18
gdb 111080	3.89881	1.13516	1.11022	3.3605	74.13	-0.2472	0.0288	0.2761	1166.7743	0.148589	-439.060312	-439.05248	-439.051536	-439.09289	29.943	
C	-0.1922790304	 1.3253424524	 0.1206070003	-0.248308
O	 0.3646914112	 0.0450364396	-0.1116162656	-0.255314
C	 0.8724725481	-0.5559659415	 1.038992811	 0.155608
C	-0.1369067653	-1.3435438573	 1.9402963353	 0.041624
C	-0.1466023426	-2.4393097132	 0.8547430231	-0.245295
C	 1.3650337895	-2.0205563843	 0.7652387824	-0.172461
C	 1.8040358379	-2.368979368	 2.1625683435	 0.447064
N	 2.8465466615	-2.9461983181	 2.5653550333	-0.574871
O	 0.7662994685	-1.8850734503	 2.9442549457	-0.262181
H	 0.5488110879	 2.0109540278	 0.556845195	 0.116746
H	-0.511073972	 1.7152631445	-0.8481295183	 0.136141
H	-1.0622390625	 1.2811564113	 0.7911194191	 0.112468
H	 1.5591722433	 0.110976371	 1.5794041949	 0.084218
H	-1.0167492352	-0.9263811123	 2.4248757787	 0.091961
H	-0.3794825697	-3.4567648469	 1.1735426403	 0.114823
H	-0.7047728503	-2.1527800142	-0.0344764242	 0.129986
H	 2.0279102271	-2.2793726865	-0.0544492312	 0.104249
H	 2.8423285829	-3.0270839341	 3.5840545766	 0.223543
82.911	152.3857	167.4705	210.1813	314.0216	381.2168	446.8137	481.417	517.5144	630.0147	710.2586	811.6226	860.2966	873.1817	889.4317	915.6546	945.1312	961.7185	995.4261	1013.935	1031.038	1082.5415	1101.8044	1122.768	1161.2798	1182.8889	1199.4437	1229.1698	1232.3255	1238.7663	1264.4142	1284.7529	1340.3268	1389.8898	1478.3394	1486.8825	1490.0158	1507.9927	1811.9659	2988.1342	3011.4487	3040.7248	3090.2698	3126.5666	3151.1264	3170.359	3179.54	3467.6865
COC1C2CC1C(=N)O2	CO[C@H]1[C@H]2C[C@@H]1[C]([NH])O2	
InChI=1S/C6H9NO2/c1-8-5-3-2-4(5)9-6(3)7/h3-5,7H,2H2,1H3	InChI=1S/C6H9NO2/c1-8-5-3-2-4(5)9-6(3)7/h3-5,7H,2H2,1H3/t3-,4+,5+/m0/s1
