17
gdb 130938	6.11685	0.67376	0.64009	2.2966	75.54	-0.2387	-0.0231	0.2156	1669.7532	0.136786	-418.036597	-418.027981	-418.027037	-418.072029	30.074	
O	-0.6517603512	 0.6829445495	 0.6925220321	-0.234959
C	 0.0488172913	 0.9571087924	-0.2473152181	 0.156979
C	 1.3149142332	 1.7784540588	-0.1787959392	-0.258247
C	 1.2514778035	 3.0099487334	-1.1144745721	-0.348685
C	 2.5361012938	 3.7828408914	-1.1560452619	 0.219807
C	 2.8729007121	 4.9132711795	-0.4359834099	-0.127485
N	 4.1416845725	 5.2342090047	-0.7876214764	-0.174211
N	 4.6686586461	 4.3933097452	-1.6955119977	-0.220672
C	 3.6986909442	 3.5120273789	-1.9185242186	-0.080365
H	-0.214062133	 0.6094663525	-1.2755088737	 0.068867
H	 1.4914655357	 2.075965256	 0.8581818164	 0.123592
H	 2.1489971572	 1.1372561556	-0.4961178705	 0.124652
H	 0.9899931521	 2.674772062	-2.1259486133	 0.114558
H	 0.4350138668	 3.6628179309	-0.7866516414	 0.117833
H	 2.3143471528	 5.4984267597	 0.2780616699	 0.134769
H	 4.6944602287	 6.0090797653	-0.4627152661	 0.276413
H	 3.8586732843	 2.7107230242	-2.6264076692	 0.107154
32.8456	61.5137	70.2786	119.4018	280.4786	310.3634	353.9938	513.2246	521.9275	654.0032	694.8659	724.7735	763.6916	798.676	851.8051	888.2992	952.0777	981.4356	1014.9326	1058.3426	1071.7808	1084.7429	1167.5159	1185.7237	1244.1591	1266.169	1296.4079	1325.1819	1366.7052	1394.7371	1420.1002	1431.1853	1463.0026	1492.7499	1495.6929	1611.8921	1836.4557	2843.1184	3022.0449	3029.0195	3069.0555	3108.737	3235.2776	3257.2107	3676.487
O=CCCC1=CNN=C1	O=CCCc1c[nH]nc1	
InChI=1S/C6H8N2O/c9-3-1-2-6-4-7-8-5-6/h3-5H,1-2H2,(H,7,8)	InChI=1S/C6H8N2O/c9-3-1-2-6-4-7-8-5-6/h3-5H,1-2H2,(H,7,8)
