16
gdb 43100	3.22766	1.94253	1.68234	4.238	66.92	-0.2195	-0.0047	0.2148	831.7479	0.128219	-437.871177	-437.86538	-437.864436	-437.901129	24.856	
O	-0.0104086585	 0.0299944309	-0.0394301074	-0.333269
C	-0.0258659995	 1.2217420052	 0.0147908528	 0.524922
C	-1.1611524943	 2.2689407844	 0.0518724041	-0.188649
N	-0.7579149551	 2.7031754356	 1.4175436095	-0.297485
C	 0.4920015896	 3.387220237	 1.0028395456	-0.050774
C	-0.0415136485	 4.4539284763	 0.0195345716	-0.221035
C	-0.5596948351	 3.3692819264	-0.9338304288	 0.071657
O	 0.7132013459	 2.7823756268	-1.3077308557	-0.275813
C	 1.0776135271	 2.29443861	 0.0057611348	-0.051218
H	-2.1894384778	 1.93944577	-0.0576040476	 0.096777
H	-1.4162158999	 3.3592109075	 1.8298141682	 0.226402
H	 1.1309323114	 3.6905708416	 1.8295003071	 0.087674
H	-0.801541071	 5.0851614187	 0.4882480491	 0.095169
H	 0.7110478033	 5.0708180847	-0.4739412457	 0.118348
H	-1.1291035553	 3.6352498359	-1.8207121656	 0.093531
H	 2.1246527078	 2.012958889	 0.0548072979	 0.103764
181.4913	323.7896	485.7037	501.8132	534.159	561.6383	630.7242	740.7167	793.1276	798.3066	809.6777	847.0789	864.9911	897.4977	909.5284	926.9236	958.8593	966.8452	978.1503	1021.5259	1042.5081	1102.983	1117.397	1152.1018	1164.4988	1206.9917	1219.2062	1237.327	1266.4296	1276.7757	1311.4372	1322.8756	1371.4329	1480.2408	1908.1312	3066.6483	3132.2936	3145.7811	3161.1057	3181.0812	3183.9471	3498.083
O=C1C2NC3CC2OC13	O=C1[C@H]2N[C@@H]3C[C@H]2O[C@H]13	
InChI=1S/C6H7NO2/c8-5-4-3-1-2(7-4)6(5)9-3/h2-4,6-7H,1H2	InChI=1S/C6H7NO2/c8-5-4-3-1-2(7-4)6(5)9-3/h2-4,6-7H,1H2/t2-,3-,4+,6+/m1/s1
