20
gdb 76814	2.80118	1.56874	1.31551	3.3056	80.44	-0.2038	0.0454	0.2492	1050.5959	0.170734	-402.985694	-402.97753	-402.976585	-403.017852	32.628	
C	 0.1172222251	 1.6311880702	 0.1593703985	-0.421063
C	 0.0723155233	 0.1174986106	 0.0387902805	-0.130709
C	 1.1836092111	-0.6178281637	-0.8875505956	 0.023442
O	 2.3651204015	 0.0993340384	-1.1432212363	-0.403414
C	 1.228873848	-1.7548987185	 0.2135915121	 0.026074
N	 2.0441353417	-2.0771668946	 1.5309784856	-0.184569
C	 2.0810223614	-0.5503087933	 1.6868125623	-0.19825
C	 0.6306724057	-0.7760387367	 1.1797252895	 0.234156
C	 0.6359574562	-1.9599025777	 2.2036366284	-0.254948
H	 1.1153729323	 1.9714479108	 0.450045316	 0.129093
H	-0.1410440627	 2.1153970336	-0.7902903809	 0.107254
H	-0.5948758185	 1.9857916864	 0.911585553	 0.123433
H	-0.9165273191	-0.22317182	-0.2872377995	 0.077632
H	 0.7625132131	-1.0103571889	-1.8235451535	 0.077575
H	 2.1705075179	 0.7745834545	-1.8017297279	 0.29021
H	 0.6536344743	-2.6265352145	-0.108451557	 0.072716
H	 2.1997097507	-0.2250622198	 2.7248935621	 0.087548
H	 2.802059145	-0.0683716761	 1.0305828806	 0.137788
H	-0.0226962055	-2.8075588422	 1.9969863248	 0.104259
H	 0.7097036584	-1.7526735285	 3.2758118372	 0.101774
147.3238	188.5083	206.6457	234.3833	238.4426	268.6948	408.2162	489.5867	526.4534	564.5943	606.5892	667.2807	725.959	771.6825	829.853	851.1187	894.7806	927.1818	951.8193	981.3069	999.0037	1021.8102	1068.5735	1077.0592	1091.3379	1140.895	1159.7296	1171.9215	1176.8802	1193.05	1204.0487	1220.9301	1242.3874	1281.2233	1292.3551	1342.94	1366.027	1400.6401	1421.0426	1491.9728	1497.8719	1507.9797	1551.2486	2994.794	3026.3968	3043.3459	3050.8498	3055.2641	3072.8746	3089.2038	3112.3074	3119.3061	3170.1166	3807.6949
CC1C(O)C2N3CC12C3	C[C@H]1[C@@H](O)[C@H]2N3C[C@@]12C3	
InChI=1S/C7H11NO/c1-4-5(9)6-7(4)2-8(6)3-7/h4-6,9H,2-3H2,1H3	InChI=1S/C7H11NO/c1-4-5(9)6-7(4)2-8(6)3-7/h4-6,9H,2-3H2,1H3/t4-,5+,6+/m0/s1
