23
gdb 58302	2.72288	0.8829	0.78963	1.6856	82.34	-0.2592	0.0689	0.3281	1569.3169	0.203151	-425.406791	-425.395986	-425.395042	-425.443595	39.139	
C	 0.0379213859	 1.5894232281	-0.024843211	-0.419031
C	 0.0483366468	 0.0604784899	 0.0305263244	 0.128277
O	 0.5978874002	-0.4963199894	-1.164250558	-0.438835
C	 0.8430045479	-0.5319452582	 1.2102025533	 0.044053
C	 0.5677248228	-2.039489658	 1.3217166923	-0.408169
C	 2.3519301508	-0.2233524021	 1.1056122708	-0.222548
C	 3.1290052056	-0.6099358183	 2.3406227533	 0.090359
C	 4.2019093183	 0.2315745262	 2.8845471471	-0.182693
O	 2.9156610386	 0.2003551794	 3.5048506532	-0.24115
H	 1.038457161	 1.9922773469	-0.203219112	 0.127243
H	-0.6102409226	 1.9361585682	-0.8385160979	 0.102931
H	-0.3486098309	 2.0132446877	 0.9077148754	 0.120908
H	-0.9951106179	-0.2789960159	 0.147738687	 0.059875
H	 0.1074670414	-0.1422935988	-1.9121560655	 0.281466
H	 0.4684894247	-0.0416772909	 2.1181060005	 0.085774
H	 1.0628671671	-2.4808958143	 2.1909039676	 0.113275
H	-0.5056545006	-2.2301820382	 1.4269091387	 0.107239
H	 0.9128566278	-2.5606642963	 0.4239597304	 0.130075
H	 2.7692210552	-0.7429751503	 0.2355621729	 0.114679
H	 2.500492002	 0.8484223823	 0.9393705474	 0.094025
H	 3.1815010287	-1.6765889933	 2.562415028	 0.092135
H	 5.010731773	-0.2181989567	 3.4594737843	 0.110597
H	 4.4561365041	 1.1646114021	 2.3822842576	 0.109516
31.7267	69.3391	88.8794	160.9068	198.3635	228.6186	241.0537	268.2891	276.3625	326.9691	382.8944	414.3815	485.8963	500.4809	606.4304	780.4289	791.8564	855.6786	890.9061	904.3482	941.4292	965.8466	1018.266	1028.9661	1038.2107	1071.9364	1093.0474	1144.0209	1158.0508	1166.0489	1176.973	1179.3528	1220.6656	1279.8456	1295.6026	1314.034	1347.6932	1372.9145	1393.6701	1405.0378	1408.5436	1422.8046	1446.7399	1472.4947	1492.0969	1498.6479	1500.9871	1505.8911	1530.8993	2947.3267	3026.3817	3031.3089	3038.224	3045.0727	3077.5924	3084.7517	3092.7856	3099.566	3107.1145	3119.6024	3120.7727	3163.1202	3824.8605
CC(O)C(C)CC1CO1	C[C@@H](O)[C@@H](C)C[C@H]1CO1	
InChI=1S/C7H14O2/c1-5(6(2)8)3-7-4-9-7/h5-8H,3-4H2,1-2H3	InChI=1S/C7H14O2/c1-5(6(2)8)3-7-4-9-7/h5-8H,3-4H2,1-2H3/t5-,6+,7-/m0/s1
