12
gdb 130969	7.00792	0.74919	0.69323	1.6334	59.93	-0.2617	-0.0813	0.1804	1472.1964	0.074111	-505.863256	-505.855236	-505.854292	-505.898023	26.638	
O	-0.2284924503	 0.0542528925	 0.5096351271	-0.232407
C	 0.1332558446	 0.8523134781	-0.3117303456	 0.157121
C	 1.0352138758	 2.0377569306	 0.0135212331	-0.249259
N	 0.9876870659	 3.0079887569	-1.0646466917	-0.365985
C	 1.1693600778	 4.2151118584	-0.8304681856	 0.596788
O	 1.4406581391	 4.8546186014	 0.3587729683	-0.231514
N	 1.5354655252	 6.2188421834	 0.0715579639	 0.068173
N	 1.3590870662	 6.4048136277	-1.1346441488	 0.078307
O	 1.126778956	 5.2021198953	-1.784096264	-0.223998
H	-0.1481848506	 0.7816353602	-1.3848624326	 0.100956
H	 0.7592075894	 2.4372160768	 0.997337153	 0.147089
H	 2.056510531	 1.6380471289	 0.1062708431	 0.154729
25.4092	70.1637	112.9474	164.6411	238.6429	326.7152	404.2701	571.8019	635.9167	685.6203	715.3265	756.6421	779.5919	915.5544	982.1568	1041.6995	1048.8613	1088.5168	1109.1727	1186.3442	1242.8344	1334.0527	1404.0374	1446.6412	1572.0048	1844.8962	1863.2034	2907.2868	3000.4887	3055.6314
O=CCN=C1ON=NO1	O=CCN=c1onno1	
InChI=1S/C3H3N3O3/c7-2-1-4-3-8-5-6-9-3/h2H,1H2	InChI=1S/C3H3N3O3/c7-2-1-4-3-8-5-6-9-3/h2H,1H2
