20
gdb 17110	4.58821	1.50501	1.43045	1.5022	74.56	-0.2347	0.0947	0.3295	980.308	0.178852	-348.989908	-348.982635	-348.981691	-349.021345	28.895	
C	-0.0444218267	 1.5435649275	 0.1052111997	-0.378378
C	 0.1036021682	 0.0277039584	-0.0586228233	-0.201548
C	 0.7529924236	-0.6269489956	 1.1545500331	 0.166149
O	-0.0233834521	-0.398592725	 2.3640470617	-0.300612
C	-0.2044944393	-1.7352295338	 2.8606085631	 0.120607
C	 1.1954298788	-2.3763581997	 2.6904827335	-0.237937
C	 0.8267859342	-2.1648457129	 1.1865204002	-0.081509
C	-0.6336154763	-2.5331395754	 1.6066869847	-0.236159
H	 0.9313772189	 2.0248651531	 0.2354679585	 0.110646
H	-0.523300031	 1.991324499	-0.7707049462	 0.107415
H	-0.6504636172	 1.773619803	 0.985468608	 0.136433
H	-0.8783006766	-0.4216682575	-0.2423487138	 0.096981
H	 0.7239759984	-0.1967544762	-0.9366663166	 0.090517
H	 1.7522822098	-0.189150626	 1.2977533759	 0.066516
H	-0.7625009105	-1.7073367287	 3.7952725373	 0.076834
H	 2.0484216269	-1.82715326	 3.0969839705	 0.09754
H	 1.2325399712	-3.4285099087	 2.9777770471	 0.098548
H	 1.3540035387	-2.6602568059	 0.3719177317	 0.069304
H	-0.7529450375	-3.6015390586	 1.7943376938	 0.099031
H	-1.4716784814	-2.145806007	 1.0247833413	 0.099624
93.3852	174.8959	195.008	265.9774	371.3523	482.1156	495.5838	531.9119	655.306	766.7665	822.7682	840.8492	861.5831	869.0936	877.4805	928.4958	967.7169	978.915	992.6411	1035.9317	1039.1505	1059.2928	1079.4885	1106.0924	1127.6198	1139.0733	1165.997	1211.4811	1242.6663	1248.9263	1284.0898	1291.6907	1298.8411	1323.955	1366.3901	1407.4358	1418.4209	1474.0159	1482.2213	1497.5271	1509.815	1514.1544	2986.2832	3022.1387	3035.9524	3064.9082	3067.148	3078.0092	3101.591	3122.4043	3124.162	3132.2004	3135.8721	3140.303
CCC1OC2CC1C2	CC[C@H]1O[C@@H]2C[C@H]1C2	
InChI=1S/C7H12O/c1-2-7-5-3-6(4-5)8-7/h5-7H,2-4H2,1H3	InChI=1S/C7H12O/c1-2-7-5-3-6(4-5)8-7/h5-7H,2-4H2,1H3/t5-,6+,7-/m1/s1
