19
gdb 99597	2.22683	1.23042	0.9979	3.4883	75.41	-0.2606	0.0259	0.2865	1268.2727	0.158445	-419.192259	-419.182493	-419.181549	-419.227189	35.412	
C	-0.1399304192	 1.4797123852	-0.4915730512	-0.487637
C	-0.0246562553	 0.0196132144	-0.1019223459	 0.31634
C	 0.9359570391	-0.8445378363	-0.8349025893	-0.278187
N	 1.2004924609	-0.4525526338	 0.5631667865	-0.349595
C	-1.2768945353	-0.6387703283	 0.488813288	-0.193977
C	-1.6991143216	-0.0332748942	 1.8519628821	-0.079511
O	-2.7622691163	-0.743648509	 2.4439648228	-0.415968
C	-2.4088518967	-0.5850516771	-0.4414858401	 0.259963
N	-3.3277462042	-0.5151548402	-1.1402135994	-0.33383
H	 0.782672208	 1.8217659693	-0.969950916	 0.120712
H	-0.9619871701	 1.6365110799	-1.1973023348	 0.151754
H	-0.321255578	 2.1173814695	 0.3802786829	 0.130892
H	 0.7249133266	-1.9001192484	-0.982016656	 0.12614
H	 1.5238047874	-0.3873946774	-1.6261549455	 0.119626
H	 1.8910464907	 0.2935522665	 0.5931526104	 0.234082
H	-1.0478702056	-1.6931431	 0.675876502	 0.140605
H	-0.8435672316	-0.1213463462	 2.5262905922	 0.138354
H	-1.9382620379	 1.0325971174	 1.7322727168	 0.102701
H	-3.5515596308	-0.6080633715	 1.9073340544	 0.297533
54.3569	101.5297	135.0555	167.2034	204.3599	219.6633	318.9296	353.1413	355.2803	379.9222	409.0272	482.2052	533.793	586.7194	775.106	826.9691	853.0541	926.4747	933.5978	980.1863	1014.3287	1038.2852	1063.4006	1066.7992	1085.6738	1124.6243	1157.7047	1205.1767	1241.0114	1267.1922	1327.9487	1338.4862	1387.0241	1395.4304	1416.0588	1425.3515	1487.3656	1502.7841	1508.3665	1515.7529	2349.079	3007.2743	3035.0293	3065.5212	3100.3118	3107.7428	3110.154	3111.2309	3196.053	3501.0214	3800.5443
CC1(CN1)C(CO)C#N	C[C@]1(CN1)[C@@H](CO)C#N	
InChI=1S/C6H10N2O/c1-6(4-8-6)5(2-7)3-9/h5,8-9H,3-4H2,1H3	InChI=1S/C6H10N2O/c1-6(4-8-6)5(2-7)3-9/h5,8-9H,3-4H2,1H3/t5-,6+/m1/s1
