19
gdb 107889	2.34342	1.84509	1.23567	2.4688	75.4	-0.2475	0.082	0.3294	1051.0027	0.159035	-422.940034	-422.93201	-422.931065	-422.972517	31.432	
C	 0.0651506538	 1.3626105224	-0.0268570283	-0.268991
O	 0.0668165405	-0.0541961952	 0.0660993374	-0.305223
C	 0.6771084958	-0.5411217982	 1.2083027096	 0.43027
C	 0.3314553547	-0.3162697967	 2.694086297	-0.330127
C	 1.5053309615	-1.3237964732	 2.682245035	-0.064174
C	 0.9742654905	-2.0600243673	 1.4034298259	-0.155225
C	 2.3411406439	-1.941470673	 0.694498339	 0.15001
O	 2.3825973872	-1.9010859222	-0.7061531947	-0.455187
C	 2.2324274462	-0.6188366452	 1.4888134175	-0.164718
H	 1.0868832296	 1.7657554137	-0.0405688242	 0.118193
H	-0.43544858	 1.620187889	-0.9621695346	 0.133352
H	-0.4823259584	 1.8164626764	 0.8094053674	 0.121531
H	 0.5408459617	 0.670622327	 3.1185040019	 0.094874
H	-0.6371269511	-0.6934553695	 3.036838784	 0.099053
H	 1.9964588075	-1.7997979993	 3.5268877223	 0.086195
H	 0.2335099651	-2.8606657541	 1.3816999573	 0.075491
H	 3.1204384065	-2.6391193025	 1.0157048425	 0.078066
H	 1.6565959909	-1.33449729	-0.9972864733	 0.285747
H	 2.9297893741	 0.2167586378	 1.5649857884	 0.07086
86.5988	162.0777	185.3713	223.7047	287.404	395.7898	436.5425	455.4851	498.8716	541.1219	653.6771	736.9195	789.1071	861.3518	877.3915	893.4963	904.8845	920.449	995.499	1025.2395	1059.1999	1067.1946	1082.4014	1093.0203	1109.9911	1133.9793	1138.4084	1178.6529	1182.3352	1202.405	1222.0323	1239.1317	1247.2044	1277.0596	1321.7324	1329.9068	1460.8046	1482.0642	1489.7105	1506.1185	1513.6525	3001.7616	3040.5733	3060.2798	3069.6278	3101.0762	3104.1638	3109.7715	3129.2523	3153.2181	3770.7539
COC12CC3C1C(O)C23	CO[C@@]12C[C@H]3[C@@H]1[C@@H](O)[C@@H]23	
InChI=1S/C7H10O2/c1-9-7-2-3-4(7)6(8)5(3)7/h3-6,8H,2H2,1H3	InChI=1S/C7H10O2/c1-9-7-2-3-4(7)6(8)5(3)7/h3-6,8H,2H2,1H3/t3-,4+,5-,6+,7-
