19
gdb 36126	3.87241	1.10292	0.98478	0.7814	86.11	-0.229	0.0207	0.2497	1246.7015	0.159105	-348.719843	-348.711567	-348.710623	-348.752815	32.562	
C	-0.1216812692	-1.1884199411	 0.3594610764	-0.461723
C	-0.0876415967	-0.012717955	 0.1114094602	 0.319351
C	-0.0173247567	 1.4135045135	-0.198327431	-0.458748
C	 1.4010700109	 1.9624702763	-0.1573852645	 0.345044
C	 2.0026356581	 2.442038762	 1.1475203444	-0.307896
C	 1.7242602945	 3.4363964048	 0.0453537888	-0.107994
C	 2.8617249754	 3.8021194286	-0.9083002812	-0.277449
C	 3.2218519384	 2.4763288953	-1.5486781374	-0.080374
C	 2.410641656	 1.4921463139	-1.1563333899	-0.138313
H	-0.1613426775	-2.2254939888	 0.5832510527	 0.194458
H	-0.45273615	 1.5885705875	-1.191403576	 0.13088
H	-0.6417750432	 1.9708019799	 0.5112415093	 0.126658
H	 1.3493728297	 2.4810183275	 2.0141704815	 0.108555
H	 3.0294153008	 2.168183139	 1.3676509524	 0.111413
H	 0.9287762727	 4.1548043942	 0.2097032244	 0.082837
H	 2.5392483671	 4.5354033278	-1.6600565309	 0.106531
H	 3.7151032576	 4.2542535127	-0.3860130471	 0.11002
H	 4.0624765464	 2.3647629385	-2.224334217	 0.093152
H	 2.4633564357	 0.4571147535	-1.4743267749	 0.103597
58.7818	108.8058	225.277	263.2749	319.3241	347.2878	400.2106	434.955	489.4497	618.324	636.963	683.0869	724.7793	752.4843	769.3908	842.2427	880.1415	919.6874	931.8723	942.721	961.1945	966.3213	987.2803	1032.519	1060.5795	1069.9292	1088.3489	1131.9262	1182.0466	1201.2016	1252.9598	1289.2382	1313.436	1333.8433	1368.2652	1404.4699	1464.6201	1474.5161	1486.817	1670.8754	2236.8591	3011.8145	3013.6064	3039.1374	3048.0374	3119.1949	3168.174	3186.7993	3207.6747	3211.5044	3506.8354
C#CCC12CC1CC=C2	C#CC[C@]12C[C@H]1CC=C2	
InChI=1S/C9H10/c1-2-5-9-6-3-4-8(9)7-9/h1,3,6,8H,4-5,7H2	InChI=1S/C9H10/c1-2-5-9-6-3-4-8(9)7-9/h1,3,6,8H,4-5,7H2/t8-,9+/m1/s1
