19
gdb 60554	2.96062	1.25383	1.08844	2.6751	71.1	-0.2599	0.0826	0.3425	1178.5179	0.15706	-460.115155	-460.105983	-460.105039	-460.149661	34.088	
C	 0.0960145155	 1.5428975164	-0.1544158545	-0.480868
C	-0.0392392738	 0.040043838	-0.0578640048	 0.399885
C	 1.105657689	-0.822286395	-0.3813975127	-0.22798
O	 0.7279065866	-0.5802730077	 0.9843418461	-0.277928
C	-1.449115872	-0.5584198694	-0.199304448	 0.000957
O	-1.4224488308	-1.9455831489	 0.0490035117	-0.432234
C	-2.4604597828	 0.1340794871	 0.707298336	 0.066567
C	-3.5858353567	-0.6010742141	 1.2904860959	-0.180009
O	-2.4316297341	-0.2723586792	 2.0758191859	-0.241041
H	 1.1495101136	 1.8314930289	-0.1449974232	 0.130539
H	-0.3552448811	 1.9159352471	-1.0807068506	 0.121945
H	-0.3954150059	 2.0382034034	 0.6879439995	 0.142218
H	 0.9318837537	-1.8359383216	-0.7313509623	 0.128569
H	 2.0454417241	-0.3642343678	-0.6857238328	 0.112169
H	-1.7765318278	-0.4261268316	-1.2394491659	 0.099391
H	-1.0045450287	-2.0359171133	 0.9178752551	 0.299553
H	-2.5752691239	 1.2077641899	 0.5556216487	 0.094541
H	-4.4949888079	-0.0644028875	 1.5567663315	 0.113361
H	-3.6980779471	-1.6567585948	 1.0601139044	 0.130366
34.8901	86.4043	177.3352	225.5099	237.4057	289.5321	328.2555	362.7953	392.0908	442.7489	449.0084	537.4323	677.7368	753.68	787.4522	862.8707	874.6466	917.995	933.9265	976.6019	1013.8507	1018.383	1088.8182	1106.6521	1128.0858	1136.0811	1166.1322	1171.3702	1176.2827	1243.8511	1279.9818	1306.1198	1323.6745	1389.8217	1418.8064	1425.8348	1437.6417	1485.098	1499.9271	1514.3957	1520.8605	3027.4989	3039.8424	3095.0519	3096.1526	3105.4899	3109.9411	3127.0418	3194.2312	3198.3419	3747.9248
CC1(CO1)C(O)C1CO1	C[C@]1(CO1)[C@@H](O)[C@H]1CO1	
InChI=1S/C6H10O3/c1-6(3-9-6)5(7)4-2-8-4/h4-5,7H,2-3H2,1H3	InChI=1S/C6H10O3/c1-6(3-9-6)5(7)4-2-8-4/h4-5,7H,2-3H2,1H3/t4-,5+,6+/m1/s1
