15
gdb 11161	5.88786	1.29322	1.1057	2.6137	68.76	-0.2627	0.0205	0.2832	1025.9506	0.119403	-362.650288	-362.642959	-362.642015	-362.682023	27.392	
N	-0.0266632295	 1.2886555862	-0.1260884657	-0.538621
C	-0.0174617367	 0.0287368322	-0.0852275284	 0.407014
C	-1.235650307	-0.8682968332	-0.0573629312	-0.30119
C	-0.6674196298	-2.2302936604	-0.5130311639	-0.203773
C	 0.779090454	-2.1310846792	 0.0262851408	-0.090748
O	 1.1160084483	-0.7429348119	-0.0648691777	-0.23508
C	-1.388925324	-3.4021357556	-0.0487567547	 0.302918
C	-1.9759349058	-4.3715730994	 0.351032247	-0.431467
H	 0.9269006508	 1.6553242363	-0.1179008416	 0.223931
H	-1.6163043147	-0.9380805901	 0.9672444836	 0.142686
H	-2.0341652458	-0.4804798471	-0.6886817246	 0.14719
H	-0.6219913416	-2.2408006122	-1.6090005313	 0.121626
H	 0.8289990628	-2.4586937732	 1.0714133119	 0.122759
H	 1.501546533	-2.6995079906	-0.562195814	 0.130604
H	-2.4990506642	-5.2286060816	 0.6971112898	 0.20215
90.3681	142.7087	166.7243	258.9355	417.9459	479.4172	507.9702	526.7166	578.3279	639.1642	644.6476	675.8085	846.2844	882.5627	896.261	917.3618	1012.8634	1046.8353	1063.984	1072.7279	1112.3911	1177.7222	1237.9965	1265.2297	1281.5047	1315.0755	1354.3462	1403.0285	1473.228	1522.6617	1784.2312	2242.0421	3029.8571	3042.2259	3063.9061	3118.0868	3145.1994	3471.7027	3503.692
N=C1CC(CO1)C#C	[NH][C]1C[C@@H](CO1)C#C	
InChI=1S/C6H7NO/c1-2-5-3-6(7)8-4-5/h1,5,7H,3-4H2	InChI=1S/C6H7NO/c1-2-5-3-6(7)8-4-5/h1,5,7H,3-4H2/t5-/m0/s1
