21
gdb 111811	2.79717	1.33678	1.2797	2.8969	76.93	-0.2337	0.0702	0.3039	1112.0329	0.185455	-424.229914	-424.221941	-424.220997	-424.262436	31.572	
O	-0.1242465738	 1.4988885012	 0.0343036204	-0.422797
C	 0.0279567194	 0.0842709087	-0.0003653459	-0.126621
C	-1.3612393589	-0.5199879616	 0.1131393468	 0.033442
C	-1.463974985	-2.0559150429	 0.2863131037	-0.068951
C	-0.8465264475	-2.2894927782	 1.6890819734	-0.218941
C	-1.3203432368	-1.0296516096	 2.4843556479	-0.221187
C	-2.1374866643	-0.2720789385	 1.420722272	 0.114705
O	-3.3550672857	-1.0047330012	 1.1994864186	-0.285915
C	-2.9890736687	-2.1729132047	 0.4397802344	-0.077269
H	 0.7467291281	 1.8977913452	-0.0496816537	 0.287135
H	 0.488778025	-0.2422797698	-0.9466577817	 0.086787
H	 0.6825592624	-0.2583536953	 0.8135205261	 0.087956
H	-1.9550510406	-0.1704750984	-0.7379558043	 0.083322
H	-1.0500160255	-2.6757152184	-0.5112027001	 0.06192
H	-1.2047791628	-3.2237981234	 2.130510229	 0.098337
H	 0.2439584804	-2.3556276702	 1.641907813	 0.095315
H	-1.9554282765	-1.2802835175	 3.3365567641	 0.106247
H	-0.4820828865	-0.4326970035	 2.8563349341	 0.098228
H	-2.3955002607	 0.7583864541	 1.6600727516	 0.083177
H	-3.5103302674	-2.1594944125	-0.5271575652	 0.092566
H	-3.2909217546	-3.0785618334	 0.981261676	 0.092544
78.8295	172.2036	205.3116	241.0027	283.3058	346.2836	404.8905	450.5701	535.6032	607.3002	748.1502	781.0005	819.0554	847.8125	879.5374	897.6667	919.2587	956.2568	973.9992	990.5681	1027.1764	1036.7143	1064.0812	1078.2268	1081.9133	1124.5691	1158.4675	1177.5165	1196.4427	1219.559	1237.6006	1264.9114	1271.3045	1280.6808	1301.4264	1309.8409	1333.5872	1348.2508	1374.6792	1399.1878	1465.0462	1483.0066	1506.3936	1525.8542	1530.9317	2970.649	3001.9986	3012.5064	3039.077	3052.0748	3061.5477	3062.3671	3088.99	3100.2338	3114.928	3136.286	3828.5296
OCC1C2CCC1OC2	OC[C@H]1[C@H]2CC[C@@H]1OC2	
InChI=1S/C7H12O2/c8-3-6-5-1-2-7(6)9-4-5/h5-8H,1-4H2	InChI=1S/C7H12O2/c8-3-6-5-1-2-7(6)9-4-5/h5-8H,1-4H2/t5-,6-,7-/m0/s1
