19
gdb 36840	4.33071	1.01361	0.9706	1.777	76.01	-0.2343	0.0881	0.3223	1272.988	0.158602	-422.933902	-422.925889	-422.924944	-422.967321	30.596	
C	 0.0063466013	 1.580903314	 0.2355834039	-0.379752
C	-0.0245754042	 0.0705115017	 0.2852667044	 0.101866
C	-1.18963936	-0.7006282809	-0.1603319858	-0.183442
O	-0.0211156137	-0.6045327204	-0.977321767	-0.236679
C	 1.390903168	 2.1032778918	-0.0257146156	 0.439006
C	 2.3957355965	 1.7340761465	-1.1516289798	-0.244021
C	 3.1195702212	 2.5757216055	-0.0785224588	 0.051032
C	 1.927601848	 3.5595445059	-0.0433159866	-0.270793
O	 2.4516026596	 1.7710333425	 0.9716758301	-0.350731
H	-0.6658740348	 1.9355728171	-0.5537446983	 0.112884
H	-0.3517404357	 1.9886842554	 1.1894367347	 0.11602
H	 0.6380025987	-0.3766438886	 1.025894627	 0.113514
H	-1.3856266029	-1.6840088847	 0.2646143157	 0.115822
H	-2.0677077252	-0.1764156727	-0.5369244357	 0.111123
H	 2.6773602682	 0.6821599277	-1.1933342524	 0.117859
H	 2.2413228688	 2.175708082	-2.1393782963	 0.093847
H	 4.1833372881	 2.7746907034	 0.0479485165	 0.094904
H	 1.7324461962	 4.1697894875	-0.9291707277	 0.09373
H	 1.8066653522	 4.1081159765	 0.8920217814	 0.103811
60.3393	74.8514	127.4294	277.8229	321.7917	352.9	450.8901	521.1155	596.6806	684.2943	717.4638	781.4367	806.213	854.603	884.3096	905.7026	938.0769	960.9873	962.9514	984.8177	996.499	1069.9612	1079.1268	1101.4881	1115.8217	1147.5079	1155.2084	1160.9984	1175.5376	1213.7494	1227.5093	1237.2988	1262.7092	1294.0094	1312.4355	1364.5492	1446.3339	1452.3744	1467.2732	1513.5435	1530.2209	3030.8796	3057.6549	3069.233	3079.2645	3080.6473	3122.4666	3124.3023	3142.1839	3156.2267	3166.5276
C(C1CO1)C12CC(C1)O2	C([C@H]1CO1)[C@@]12C[C@@H](C1)O2	
InChI=1S/C7H10O2/c1-5-2-7(1,9-5)3-6-4-8-6/h5-6H,1-4H2	InChI=1S/C7H10O2/c1-5-2-7(1,9-5)3-6-4-8-6/h5-6H,1-4H2/t5-,6-,7+/m0/s1
