19
gdb 36264	4.45975	0.96014	0.89558	1.0509	84.95	-0.2104	0.0564	0.2667	1336.3544	0.158695	-348.633101	-348.62493	-348.623985	-348.666245	32.415	
C	 0.1173197902	-1.1146226207	 1.1078450986	-0.404362
C	-0.0074025461	-0.0584009683	 0.5474065587	 0.26005
C	-0.1288066822	 1.2292120851	-0.1290922799	-0.420003
C	 1.2257566932	 1.9670003793	-0.2044522717	-0.011429
C	 1.851483641	 2.7447448855	-1.333530086	-0.093792
C	 0.9727944656	 3.8042649212	-2.054660431	-0.052497
C	-0.4436948927	 3.9326572197	-1.5628656609	-0.297984
C	 0.6808683124	 4.4762996026	-0.72347117	-0.052492
C	 1.5573712834	 3.4217647013	 0.0075543787	-0.093798
H	 0.2131334839	-2.0498619931	 1.6008832578	 0.190658
H	-0.529145834	 1.0606573788	-1.1350829533	 0.143911
H	-0.8668583528	 1.8380099413	 0.4050869478	 0.143909
H	 2.0011249677	 1.367292503	 0.268357265	 0.107906
H	 2.8158348154	 2.4597507245	-1.7365422478	 0.088046
H	 1.2962210528	 4.2674105393	-2.9777954743	 0.089854
H	-1.0024613594	 4.7100824843	-2.0778811805	 0.108322
H	-1.0609976275	 3.0946658313	-1.2751764084	 0.115801
H	 0.7483977552	 5.5285694737	-0.4796373588	 0.089854
H	 2.2664269138	 3.7244189912	 0.7686418361	 0.088045
41.8374	134.2539	194.6643	230.4276	348.167	380.6294	457.9152	467.918	608.463	626.2657	641.0215	684.4795	702.7399	711.6901	782.13	864.2851	875.9867	897.3646	912.56	967.269	973.9373	983.0543	1013.2709	1030.831	1031.964	1058.2743	1077.6319	1092.4587	1121.6845	1177.31	1226.5058	1250.1008	1268.1004	1299.5566	1302.3739	1333.3831	1372.233	1442.1165	1474.349	1502.5294	2236.9029	3031.1698	3066.9119	3127.0044	3136.4208	3172.7964	3183.0559	3189.5061	3200.2464	3246.0369	3507.2798
C#CCC1C2C3CC3C12	C#CC[C@H]1[C@H]2[C@H]3C[C@H]3[C@@H]12	
InChI=1S/C9H10/c1-2-3-5-8-6-4-7(6)9(5)8/h1,5-9H,3-4H2	InChI=1S/C9H10/c1-2-3-5-8-6-4-7(6)9(5)8/h1,5-9H,3-4H2/t5-,6-,7+,8-,9+
