21
gdb 119891	4.20322	0.84712	0.72921	1.4257	82.49	-0.2339	0.0282	0.2621	1587.9728	0.182501	-424.21866	-424.209345	-424.208401	-424.253447	33.759	
C	 0.002138832	 1.4610074449	-0.0718385074	-0.225871
O	-0.0615843089	 0.0570637215	-0.0106212128	-0.225776
C	 0.6623883776	-0.5685779752	-1.040502222	-0.12993
C	 0.6045448341	-2.0645732715	-0.9095915778	 0.216592
C	 0.0506965255	-2.6970184349	 0.1233005854	-0.137848
C	-0.0110855955	-4.1996444192	 0.1923062018	-0.254773
C	 0.2776558853	-4.8025345317	-1.1833801897	-0.079825
O	 1.4239177	-4.2059343779	-1.7687072415	-0.245023
C	 1.2294036783	-2.8362038259	-2.0495406411	-0.14965
H	 1.0364692434	 1.828592271	 0.0220153526	 0.105244
H	-0.4140936995	 1.8486977483	-1.0154196102	 0.104407
H	-0.5881312078	 1.8511361984	 0.7606586163	 0.128685
H	 0.2673640784	-0.2642771413	-2.0293836996	 0.089467
H	 1.7179438173	-0.2347448292	-1.0255554417	 0.093211
H	-0.3733012201	-2.1198075076	 0.9378005072	 0.101898
H	 0.7114765932	-4.5764644954	 0.9296367037	 0.113309
H	-1.0000013172	-4.5273297344	 0.5381703981	 0.101639
H	 0.4898814326	-5.8734134147	-1.119966244	 0.104278
H	-0.5976960004	-4.6666918648	-1.8405311653	 0.086996
H	 0.6141172742	-2.7117468515	-2.9616240124	 0.092237
H	 2.2226566775	-2.4329720989	-2.2858513295	 0.110734
67.4024	71.6264	135.1429	152.955	227.5179	245.2387	315.0221	336.0548	374.0067	430.6199	501.1362	550.3436	707.2582	812.2784	857.3451	904.3835	937.0726	959.4448	1006.2427	1019.3775	1064.8459	1067.1995	1088.6966	1134.9482	1156.6863	1180.2029	1185.4039	1227.0646	1231.2679	1257.8832	1267.0091	1315.1489	1334.1288	1364.0568	1390.0493	1422.7729	1429.1944	1471.369	1478.2921	1484.8132	1487.406	1498.2578	1501.4443	1523.3023	1749.538	2910.7959	2919.2719	2925.0547	2966.2039	2968.9522	3010.1361	3011.9939	3035.5746	3045.0623	3087.454	3115.8187	3190.9294
COCC1=CCCOC1	COCC1=CCCOC1	
InChI=1S/C7H12O2/c1-8-5-7-3-2-4-9-6-7/h3H,2,4-6H2,1H3	InChI=1S/C7H12O2/c1-8-5-7-3-2-4-9-6-7/h3H,2,4-6H2,1H3
