25
gdb 101678	3.03963	0.68873	0.64509	1.6792	86.1	-0.2609	0.0697	0.3306	1896.6861	0.225829	-426.630365	-426.618368	-426.617423	-426.668471	42.887	
C	-0.4113528889	 1.5367437827	 0.0601253004	-0.382069
C	-0.0883645832	 0.0417964636	 0.0088447856	-0.183144
C	 0.7277807622	-0.4427700731	 1.2153015849	 0.12751
O	 0.0552616098	-0.1612304757	 2.443525028	-0.42494
C	 1.0893068534	-1.9313737321	 1.1010686002	-0.222355
C	 1.899523106	-2.5119474183	 2.2737479552	 0.041524
C	 1.893383986	-4.0458763547	 2.2422557386	-0.401065
C	 3.3337446139	-1.9788882288	 2.2831957471	-0.072058
O	 3.9885069514	-2.4772696011	 3.4421820079	-0.422924
H	 0.5033205506	 2.1384256941	 0.0154481641	 0.112592
H	-1.0481369675	 1.835215257	-0.7780578406	 0.107816
H	-0.9249094299	 1.7860414169	 0.9922444775	 0.127738
H	-1.0199554741	-0.5418491178	-0.037234338	 0.083671
H	 0.4629266477	-0.1954512412	-0.9098589579	 0.094503
H	 1.6444740915	 0.1576772186	 1.2741761957	 0.085888
H	-0.7576056716	-0.6800224827	 2.453431067	 0.275422
H	 0.1519595458	-2.500167647	 1.0094236158	 0.08112
H	 1.6287195748	-2.0961703181	 0.1577337425	 0.090762
H	 1.4299453447	-2.1764274279	 3.20592218	 0.093023
H	 2.3079233965	-4.4205552022	 1.2977665006	 0.102972
H	 2.4960272333	-4.4501555835	 3.0580940081	 0.134131
H	 0.8749922275	-4.437551292	 2.3354270206	 0.101722
H	 3.8512201946	-2.3067725146	 1.3643918912	 0.076315
H	 3.3307905637	-0.8788580542	 2.2849826144	 0.086636
H	 4.8843337621	-2.129162208	 3.454410701	 0.285209
30.2904	73.6199	85.9992	126.5603	148.2554	216.965	226.1786	233.8292	246.6736	279.0516	300.8534	320.9796	347.3562	414.1511	459.4842	535.2728	550.5481	777.2059	812.2099	853.9565	899.3943	929.6116	953.2264	976.1636	1013.9936	1056.8579	1072.8898	1083.1274	1099.2207	1129.9291	1158.1107	1177.6416	1189.19	1262.0002	1265.9306	1285.3742	1289.3963	1328.5347	1358.2853	1372.0146	1383.2664	1399.0055	1403.0475	1406.6358	1421.6885	1459.4105	1472.3178	1484.6799	1492.4295	1495.3144	1506.7106	1509.5272	1517.7335	2947.1952	2992.1866	2998.4268	3001.2483	3024.5921	3026.0868	3036.6377	3038.0046	3049.848	3056.5527	3088.3607	3100.6712	3122.2607	3129.7301	3788.3626	3835.4111
CCC(O)CC(C)CO	CC[C@@H](O)C[C@@H](C)CO	
InChI=1S/C7H16O2/c1-3-7(9)4-6(2)5-8/h6-9H,3-5H2,1-2H3	InChI=1S/C7H16O2/c1-3-7(9)4-6(2)5-8/h6-9H,3-5H2,1-2H3/t6-,7-/m1/s1
