18
gdb 22836	3.07923	1.23845	0.95193	1.1642	85.59	-0.2227	-0.0267	0.196	1232.5877	0.1485	-401.919109	-401.910816	-401.909872	-401.952482	31.664	
O	 0.2698497207	 1.177064144	-0.6005974463	-0.39513
N	 0.0735966857	-0.2121731008	-0.5941355721	-0.190298
C	-1.0184761756	-0.5557535935	-0.0067011549	 0.331818
C	-1.2750777274	-2.0440687973	 0.0423008516	-0.339956
C	-1.4045387977	-2.5742519817	 1.452822798	-0.064056
C	-2.3093308225	-2.1687055	 2.3390184078	-0.045023
C	-3.3696149608	-1.1158337797	 2.1236836356	-0.319196
C	-3.0182924568	 0.131697924	 1.3550936901	-0.060258
C	-2.0118365172	 0.3841472	 0.5078240981	-0.10871
H	 1.0792242337	 1.2602493119	-1.1149824615	 0.306001
H	-2.1979095351	-2.2575736764	-0.5157503397	 0.118481
H	-0.4581850285	-2.5424359167	-0.4828552641	 0.120811
H	-0.6976400471	-3.3463792948	 1.7442976039	 0.094996
H	-2.3232234946	-2.6416968091	 3.3180792489	 0.091324
H	-4.2526075985	-1.5795334413	 1.648264783	 0.131893
H	-3.7426821799	-0.79300772	 3.1036888817	 0.118829
H	-3.6976691202	 0.9589525711	 1.5553160399	 0.097353
H	-1.9152164785	 1.3923283703	 0.1198472401	 0.111121
49.1111	92.0958	235.4779	290.6164	309.1308	357.2313	368.2444	421.4875	434.9533	559.5492	578.4741	679.2953	722.1233	744.8127	816.4754	859.4679	879.6166	928.4678	959.594	975.1062	995.0175	1016.1688	1026.6183	1064.3792	1201.7307	1212.6366	1244.7941	1259.3321	1307.8747	1328.1512	1383.7553	1402.1553	1408.8734	1439.7293	1454.1216	1475.7134	1677.8374	1710.787	1735.7521	2954.1504	3006.3944	3037.3594	3110.8093	3134.6364	3145.6988	3170.9632	3192.804	3824.5043
ON=C1CC=CCC=C1	ON=C1CC=CCC=C1	
InChI=1S/C7H9NO/c9-8-7-5-3-1-2-4-6-7/h1,3-4,6,9H,2,5H2	InChI=1S/C7H9NO/c9-8-7-5-3-1-2-4-6-7/h1,3-4,6,9H,2,5H2
