17
gdb 121785	2.82235	0.75156	0.61559	4.8559	73.72	-0.2837	-0.0104	0.2733	1720.7761	0.134612	-418.021747	-418.011684	-418.01074	-418.057997	34.146	
O	-0.0525913275	 1.4526240536	-0.0193248882	-0.416478
C	 0.0458517785	 0.0407532862	 0.0198726216	-0.078763
C	-1.3752488923	-0.5124974517	 0.0328009876	-0.191878
C	-1.3990992213	-2.041196207	 0.0382750535	-0.20008
C	-2.8455811942	-2.6139183525	 0.055664058	-0.299463
C	-2.835543277	-4.0756166673	-0.0964424805	 0.296344
N	-2.7938206552	-5.2197405782	-0.2438931651	-0.299374
C	-3.5704986724	-2.2282335554	 1.2755667929	 0.308686
N	-4.1231028433	-1.8960866048	 2.2331925316	-0.306259
H	 0.8355225263	 1.820592781	 0.0036508056	 0.291551
H	 0.5905196274	-0.3495725324	-0.8558850669	 0.090084
H	 0.5847960623	-0.3020748714	 0.9180106673	 0.095134
H	-1.895257208	-0.1183295521	 0.9125815265	 0.141737
H	-1.9037933275	-0.1284942508	-0.8483539149	 0.116037
H	-0.9080639592	-2.4392200465	-0.8557152478	 0.133347
H	-0.8612360075	-2.4390648461	 0.9047729118	 0.139816
H	-3.3965797789	-2.1974938246	-0.7981992229	 0.179559
57.7376	75.7697	99.9566	131.1602	139.9408	218.9887	225.0158	258.9979	335.6293	387.9786	428.3205	522.4206	585.331	600.1519	758.293	821.5458	902.8695	988.6345	1013.1311	1050.5611	1057.0345	1094.5477	1126.0618	1203.839	1235.5368	1273.9689	1293.3957	1320.2781	1328.037	1341.7724	1391.2659	1467.627	1487.1936	1501.5833	1529.4785	2368.5497	2374.2402	2959.8738	2987.2915	3033.191	3036.9926	3053.7058	3081.4278	3105.2689	3833.2241
OCCCC(C#N)C#N	OCCCC(C#N)C#N	
InChI=1S/C6H8N2O/c7-4-6(5-8)2-1-3-9/h6,9H,1-3H2	InChI=1S/C6H8N2O/c7-4-6(5-8)2-1-3-9/h6,9H,1-3H2
