18
gdb 47358	3.0872	1.14966	0.86874	3.667	78.85	-0.2399	0.0233	0.2633	1292.205	0.148936	-401.965964	-401.957482	-401.956538	-401.999251	32.195	
O	 0.0085311331	-0.0860308886	 0.097788994	-0.371506
C	-0.0093999182	 1.1292620302	 0.0409336357	 0.373749
C	-1.3205119041	 1.910139864	 0.036026288	-0.30038
C	-1.1900049626	 3.3913346773	 0.45155451	-0.202969
C	-0.0136276982	 4.02353041	-0.3181396592	-0.196545
C	 1.2860931591	 3.3052508188	 0.0351442252	-0.17114
N	 1.1410771939	 1.860563417	-0.084134986	-0.302616
C	-2.4380141434	 4.1169593686	 0.2427636412	 0.294376
C	-3.4662546239	 4.7077506754	 0.0459855401	-0.417929
H	-1.7236546245	 1.8557930727	-0.9823010522	 0.140144
H	-2.0214692228	 1.372544444	 0.677324529	 0.140148
H	-0.9472871287	 3.4285761972	 1.5237359617	 0.1108
H	-0.2094555249	 3.9491223456	-1.3936665756	 0.119268
H	 0.0799657783	 5.0849871517	-0.0739206097	 0.117262
H	 2.089278544	 3.6348366414	-0.6329970886	 0.115958
H	 1.5885654636	 3.5796118872	 1.0578811535	 0.10959
H	 1.9778525473	 1.295708868	-0.0465067236	 0.246076
H	-4.376576628	 5.2299382895	-0.1161760835	 0.195714
95.6061	110.9496	137.1408	188.3824	299.842	383.6637	426.6913	442.1086	499.8476	534.0031	567.7195	634.4812	643.691	661.3665	667.8268	814.4423	837.6856	910.2873	952.2986	967.8823	1044.3761	1085.7037	1094.1262	1134.7422	1177.6333	1248.9019	1264.4297	1291.3456	1319.5755	1335.2851	1353.6596	1389.0376	1399.0851	1461.6768	1484.6107	1493.0201	1528.3098	1790.4398	2237.5195	2979.5265	2997.3784	3045.9055	3051.7312	3060.954	3103.5695	3120.2849	3503.9602	3602.5938
O=C1CC(CCN1)C#C	O=C1C[C@@H](CCN1)C#C	
InChI=1S/C7H9NO/c1-2-6-3-4-8-7(9)5-6/h1,6H,3-5H2,(H,8,9)	InChI=1S/C7H9NO/c1-2-6-3-4-8-7(9)5-6/h1,6H,3-5H2,(H,8,9)/t6-/m1/s1
