20
gdb 91542	3.06967	1.2425	1.12268	2.6755	78.43	-0.2329	0.0745	0.3074	1185.9114	0.170746	-403.079383	-403.070865	-403.06992	-403.112765	32.373	
C	-0.2620667022	 1.4161199021	-0.3361571796	-0.414474
C	 0.0733814201	-0.0073509003	 0.0906923992	-0.052764
C	 1.2321655685	-0.7862852535	-0.5948552425	-0.176719
N	 1.8806172061	-1.1222371985	 0.723480912	-0.168962
C	 2.2449638332	 0.1784368536	 1.3169296595	-0.280693
C	 0.8331972847	-0.2500290252	 1.4013345165	 0.312457
C	 0.1759854	-0.6341085253	 2.6836576405	-0.039301
C	 0.1845611448	-2.0202466994	 3.1755457933	-0.174727
O	 1.0289019026	-1.0205325786	 3.7576825135	-0.235661
H	 0.6232833948	 2.0593537237	-0.3326944457	 0.118375
H	-0.6784439254	 1.4294365685	-1.3493367691	 0.118349
H	-1.0045924703	 1.8656617323	 0.3323620216	 0.118929
H	-0.835917739	-0.6173376927	 0.0775118914	 0.08198
H	 0.9217871732	-1.6960903225	-1.1118339672	 0.110081
H	 1.8817874417	-0.2033996321	-1.2579363936	 0.102564
H	 2.8271620884	 0.0722663034	 2.2258300117	 0.138667
H	 2.547599841	 0.9923761414	 0.6609685675	 0.105891
H	-0.654208311	 0.0129205189	 2.9768905348	 0.090506
H	-0.6227403132	-2.3765537127	 3.813757152	 0.111399
H	 0.705342542	-2.7714886431	 2.5867512342	 0.134102
62.2457	134.8355	178.0368	209.3817	214.4525	257.4345	405.253	416.0369	498.6006	582.0098	619.9323	698.8665	793.9593	834.2286	861.0163	877.3931	887.969	923.7089	947.0042	1001.9119	1029.3715	1078.1747	1094.0391	1103.188	1119.1823	1139.9299	1152.3861	1165.1885	1168.3954	1203.065	1226.0088	1263.9171	1281.1794	1302.3244	1362.6031	1382.7806	1413.5353	1447.429	1485.6412	1494.6635	1497.8575	1509.8061	1516.5376	3030.8289	3039.063	3048.4949	3079.4651	3091.6211	3094.3041	3101.7243	3107.5039	3113.0779	3190.5746	3210.8774
CC1CN2CC12C1CO1	C[C@H]1CN2C[C@@]12[C@H]1CO1	
InChI=1S/C7H11NO/c1-5-2-8-4-7(5,8)6-3-9-6/h5-6H,2-4H2,1H3	InChI=1S/C7H11NO/c1-5-2-8-4-7(5,8)6-3-9-6/h5-6H,2-4H2,1H3/t5-,6+,7-,8?/m0/s1
