19
gdb 60622	3.01039	1.07192	0.84778	5.4118	71.82	-0.2482	0.0158	0.264	1358.0228	0.159413	-456.349564	-456.34007	-456.339125	-456.384547	34.669	
C	-0.9999060125	 0.912006744	 0.4301272648	-0.399808
C	-0.0944261883	-0.2468612718	 0.0809347219	-0.014532
N	 1.2221599522	 0.0774297565	-0.4830128146	-0.323252
C	 1.1553639525	-0.5999942999	 0.8158689369	-0.01381
C	 1.6747973587	 0.1704783704	 2.0141717674	-0.140062
N	 0.9114374696	 0.0182933202	 3.2664605654	-0.543837
H	 2.6698049605	 0.1765891471	 4.0449625101	 0.305316
H	 0.065682341	 0.5773374695	 3.2398234204	 0.248602
H	 0.6197085144	-0.9482181842	 3.3868132329	 0.243392
C	 3.1529273227	-0.1860319739	 2.2895619627	 0.432936
O	 3.9186289371	-0.5469280863	 1.4378631694	-0.331012
O	 3.5044697427	-0.0342215158	 3.5747843184	-0.375578
H	-0.4357996045	 1.7495572345	 0.8482864166	 0.122869
H	-1.5108514057	 1.279955451	-0.4657668815	 0.12865
H	-1.7692012486	 0.6087934673	 1.1495527609	 0.111193
H	-0.6188543518	-1.0985864641	-0.35253629	 0.084554
H	 1.4948698445	-0.5691560764	-1.2168444041	 0.239402
H	 1.4132981541	-1.6580974773	 0.8363806294	 0.091828
H	 1.6772256314	 1.2356955093	 1.7586468231	 0.133148
54.4527	74.0629	118.7145	179.2177	201.3375	276.764	316.7026	351.0382	385.863	405.8009	498.0119	558.7442	610.9547	726.4927	787.7754	830.2014	837.0203	874.0522	890.4354	941.1306	980.0587	1012.7189	1048.6555	1083.6016	1112.3636	1152.945	1165.504	1205.9137	1222.0833	1255.1054	1276.0819	1280.7466	1382.9612	1400.8798	1417.94	1426.9443	1469.6462	1489.6776	1503.7342	1658.7697	1871.3201	3032.4478	3063.1511	3093.6985	3097.199	3115.4944	3123.26	3494.0265	3514.584	3522.4931	3581.3013
CC1NC1C([NH3+])C([O-])=O	C[C@H]1N[C@H]1[C@@H](N)C(=O)O	
InChI=1S/C5H10N2O2/c1-2-4(7-2)3(6)5(8)9/h2-4,7H,6H2,1H3,(H,8,9)	InChI=1S/C5H10N2O2/c1-2-4(7-2)3(6)5(8)9/h2-4,7H,6H2,1H3,(H,8,9)/t2-,3-,4-/m1/s1
