23
gdb 62937	1.83492	1.79776	1.48544	1.0545	84.69	-0.2396	0.0665	0.3061	1100.5811	0.20353	-388.269104	-388.259421	-388.258476	-388.30217	39.002	
C	-0.4108473477	 1.5316324985	 0.348475481	-0.448381
C	-0.1573876871	 0.0280858798	 0.214763242	 0.250451
C	-1.3768930965	-0.7495166042	 0.7150812792	-0.439005
C	 0.2833667096	-0.4775170437	-1.176785703	-0.068181
C	 1.6070208973	 0.0911479902	-1.5983702798	-0.322544
C	 1.584050589	-1.0358365388	-0.6063054249	-0.057055
C	 1.2201089534	-0.5558907495	 0.8025777922	 0.354661
C	 2.1746777739	 0.4005605455	 1.5099194623	-0.453913
O	 1.0441270788	-1.7218998841	 1.5975978256	-0.47113
H	 0.4064601081	 2.1373121299	-0.0510255342	 0.109218
H	-1.3209441017	 1.8130948071	-0.193610994	 0.111925
H	-0.5533281595	 1.8170945826	 1.3974437436	 0.106209
H	-2.2587548759	-0.4752956458	 0.1247555076	 0.105984
H	-1.2261942767	-1.8271538052	 0.6359025167	 0.130636
H	-1.6013923136	-0.5144039925	 1.7623537253	 0.09496
H	-0.3901260689	-0.9382791384	-1.8911583117	 0.077416
H	 1.9314127092	-0.189185121	-2.5957711103	 0.111845
H	 1.9130468751	 1.0931070292	-1.3109161973	 0.102452
H	 2.0626788783	-1.9898694357	-0.7908260559	 0.088429
H	 2.4257806566	 1.2705814327	 0.8993227521	 0.11626
H	 1.7329738812	 0.773340838	 2.4431947247	 0.10309
H	 3.1012190199	-0.1256842152	 1.7590565805	 0.123032
H	 0.7475664069	-1.4456435293	 2.4714320283	 0.273641
135.2523	207.7354	230.6909	243.2986	264.1846	275.557	290.2671	299.9163	335.2316	345.6777	404.1998	457.875	501.0341	519.2671	609.144	651.1073	774.4368	791.0054	859.1258	931.8305	943.0273	951.3154	968.1934	980.5468	995.9943	1008.9039	1030.7821	1073.0935	1086.4782	1110.1518	1140.8872	1157.4131	1182.2071	1202.1364	1232.4187	1253.897	1296.5724	1352.8764	1382.6322	1398.653	1405.8707	1421.7899	1481.5561	1483.0478	1485.0991	1494.2466	1498.1635	1510.0368	1510.5835	3022.5691	3024.3239	3029.3687	3078.5068	3085.4058	3092.7763	3108.3565	3116.7586	3127.4898	3135.1905	3163.7103	3185.8391	3199.3607	3804.3359
CC1(C)C2CC2C1(C)O	CC1(C)[C@H]2C[C@H]2[C@]1(C)O	
InChI=1S/C8H14O/c1-7(2)5-4-6(5)8(7,3)9/h5-6,9H,4H2,1-3H3	InChI=1S/C8H14O/c1-7(2)5-4-6(5)8(7,3)9/h5-6,9H,4H2,1-3H3/t5-,6+,8-/m0/s1
