18
gdb 45711	3.19095	1.49163	1.07533	3.3411	78.24	-0.2058	-0.0009	0.2049	1102.0368	0.150664	-402.004306	-401.996816	-401.995872	-402.036425	29.234	
O	-0.1056802632	-0.0493146387	-0.147667946	-0.375087
C	-0.0324804063	 1.1531502535	-0.0420007313	 0.398306
N	-1.1041774167	 2.0380073802	-0.0449918464	-0.326156
C	-0.6927203539	 3.3628652436	 0.2201055608	-0.164446
C	 0.6401858338	 3.4404547507	 0.2441784963	 0.264273
C	 1.6719071823	 4.3715807557	 0.8142217426	-0.322112
C	 2.8069693841	 3.3894455618	 1.2677599172	-0.204424
C	 2.1955120492	 1.962961354	 1.2278465144	-0.220698
C	 1.2066803705	 2.0556826102	 0.0491788088	-0.194746
H	-2.0592730973	 1.7199049004	-0.0640473154	 0.256409
H	-1.4402695989	 4.115984355	 0.4283227823	 0.123846
H	 2.0549704413	 5.0936229786	 0.0837225238	 0.110043
H	 1.2751612457	 4.9545387496	 1.6517612649	 0.111341
H	 3.6433047006	 3.44629225	 0.5629889615	 0.106236
H	 3.2055253227	 3.6413543977	 2.2537349048	 0.103326
H	 2.9480023757	 1.1805036461	 1.1062994619	 0.110635
H	 1.6458427877	 1.7564285655	 2.152583931	 0.11048
H	 1.7522667528	 1.9486013662	-0.8992276015	 0.112775
87.488	141.3739	226.8492	250.7082	317.6197	474.1368	506.8797	558.5522	607.1923	627.744	689.9811	752.558	788.5878	849.4776	852.003	891.5586	909.3071	932.8839	989.7425	1014.7327	1046.5584	1089.8635	1141.1169	1165.8243	1175.6136	1216.3453	1229.107	1261.2358	1290.2857	1293.1689	1328.1827	1337.8996	1357.914	1395.0331	1485.1941	1491.9011	1507.0145	1717.5799	1831.816	3011.0415	3029.7789	3049.3126	3051.5439	3066.0979	3099.588	3111.3027	3227.213	3656.8672
O=C1NC=C2CCCC12	O=C1N[CH][C]2CCC[C@@H]12	
InChI=1S/C7H9NO/c9-7-6-3-1-2-5(6)4-8-7/h4,6H,1-3H2,(H,8,9)	InChI=1S/C7H9NO/c9-7-6-3-1-2-5(6)4-8-7/h4,6H,1-3H2,(H,8,9)/t6-/m1/s1
