21
gdb 95965	2.53935	1.4497	1.18732	2.8599	76.74	-0.2425	0.0536	0.2961	1130.8912	0.183512	-424.213203	-424.204423	-424.203479	-424.247555	32.933	
O	-0.0302139714	 1.649227056	 0.3987508199	-0.438707
C	-0.0243780535	 0.2604433991	 0.0768877619	 0.077002
C	 0.7331628305	-0.5962139577	 1.1253417077	-0.248259
C	-0.3541682626	-1.3464309604	 1.9463598237	-0.208861
C	-1.6908009753	-0.705388942	 1.519615378	-0.307695
C	-1.4503583181	-0.3263143036	 0.0574683668	 0.295243
C	-2.5046713481	 0.458678542	-0.7437791272	-0.147653
O	-2.5797792085	-0.5743578518	-1.7515316493	-0.274288
C	-1.6926800177	-1.4277585269	-1.0073074215	-0.120426
H	-0.33559276	 1.7502537029	 1.3065066403	 0.277946
H	 0.4395471289	 0.2174150737	-0.912377526	 0.086875
H	 1.4199530274	-1.2970816078	 0.6428222303	 0.107788
H	 1.3476969179	 0.0648976318	 1.743433564	 0.107206
H	-0.3580905884	-2.4092939701	 1.6828821468	 0.107173
H	-0.185170683	-1.2923320317	 3.0248308226	 0.10111
H	-2.5519418095	-1.3659988283	 1.6550799479	 0.10328
H	-1.8936625802	 0.199501019	 2.1099732595	 0.089219
H	-3.4672865596	 0.6004189403	-0.2335248931	 0.090288
H	-2.1668832667	 1.4181555174	-1.1494639508	 0.115835
H	-0.8221030951	-1.7370528726	-1.6011252623	 0.096509
H	-2.202733257	-2.3269016293	-0.633235179	 0.090413
43.4213	66.0434	127.4826	210.3025	274.8023	306.137	330.8291	407.9448	467.3597	523.838	631.3724	742.71	793.5984	843.5872	871.2902	887.1248	898.7238	952.7772	969.256	978.2055	997.4101	1029.4118	1038.1626	1057.7713	1113.2294	1144.743	1155.4714	1162.492	1178.9956	1217.774	1238.9473	1265.044	1280.2336	1301.0846	1307.8051	1315.7863	1335.7788	1359.0226	1385.4597	1431.7143	1484.4647	1491.3765	1507.3404	1514.4031	1538.0622	2989.0196	3003.8438	3008.6899	3032.7893	3046.8583	3058.2193	3070.1032	3074.3698	3084.8635	3089.1244	3106.4835	3809.1633
OC1CCCC11COC1	O[C@H]1CCCC21COC2	
InChI=1S/C7H12O2/c8-6-2-1-3-7(6)4-9-5-7/h6,8H,1-5H2	InChI=1S/C7H12O2/c8-6-2-1-3-7(6)4-9-5-7/h6,8H,1-5H2/t6-/m0/s1
