16
gdb 123778	4.55631	1.14932	0.98916	3.8788	78.5	-0.2338	-0.0637	0.1701	1175.4766	0.126511	-396.927359	-396.920163	-396.919219	-396.959559	27.11	
C	-0.2321034926	 1.3030084131	-0.3328523735	-0.267899
C	 1.1650230683	 1.1719018415	 0.1792016001	-0.267914
C	 0.2810511492	-0.0639858806	 0.0958883454	-0.091234
C	-0.2272503105	-0.7234491419	 1.3137869926	 0.353976
C	-0.593255484	-0.0381532855	 2.4882490559	-0.040573
N	-1.0467165423	-0.6598919362	 3.5660815578	-0.173557
N	-1.1613308657	-1.9901690369	 3.5373707042	-0.191578
C	-0.8078487758	-2.6074931732	 2.4135993195	 0.100098
N	-0.3436216233	-2.0512124075	 1.2904250032	-0.308428
H	-0.9726075194	 1.7798191452	 0.2998534119	 0.129496
H	-0.3874790221	 1.4541108821	-1.3947738336	 0.131682
H	 1.9872216297	 1.2312498461	-0.5244459416	 0.131677
H	 1.3926968655	 1.5578978127	 1.1667152677	 0.129496
H	 0.5034856736	-0.7731378765	-0.6926075296	 0.111241
H	-0.5216192901	 1.0424637062	 2.5699516003	 0.119542
H	-0.9115405006	-3.6893704785	 2.4208063996	 0.133975
69.1015	135.4363	183.7224	301.3772	377.2198	400.0522	550.024	572.4698	684.485	778.337	814.4745	818.5784	831.0572	899.0028	938.0851	948.0036	1001.5995	1012.9165	1057.0875	1059.0353	1083.7542	1086.1567	1137.4937	1176.8829	1203.2901	1214.1457	1246.7391	1329.5595	1337.3574	1407.034	1472.8894	1483.5374	1503.8681	1554.6153	1594.1344	3139.3228	3141.6771	3170.7945	3176.2573	3185.6285	3219.9104	3234.9072
C1CC1C1=CN=NC=N1	C1CC1c1cnncn1	
InChI=1S/C6H7N3/c1-2-5(1)6-3-8-9-4-7-6/h3-5H,1-2H2	InChI=1S/C6H7N3/c1-2-5(1)6-3-8-9-4-7-6/h3-5H,1-2H2
