17
gdb 127619	3.29225	1.56089	1.08281	3.5213	75.42	-0.1967	0.022	0.2187	1083.9211	0.138606	-418.011852	-418.004027	-418.003083	-418.045214	28.368	
C	 0.1305762057	 1.425118176	-0.0369985963	-0.334554
N	 0.0267810983	-0.0145631792	 0.0364886847	-0.078999
N	 0.0560973185	-0.7490999511	-1.1000169719	-0.269882
C	-0.0337985517	-2.0350422772	-0.7221022192	-0.1487
C	-0.1122080486	-2.1013155606	 0.6753723915	 0.272227
C	-0.0644566928	-0.8123855396	 1.1284325937	 0.282736
C	-0.2223031028	-0.7734292096	 2.6151750749	-0.382336
C	-0.0822855629	-2.3122863666	 2.9006092622	-0.084111
O	-0.2551421857	-3.0413777208	 1.6550006798	-0.289671
H	 1.0523384089	 1.7804603735	 0.4362934524	 0.135778
H	 0.141077663	 1.6942124139	-1.0926721124	 0.164062
H	-0.7245627037	 1.903776764	 0.4511264781	 0.135586
H	-0.0365655967	-2.8158132127	-1.4657735808	 0.11545
H	 0.5442359449	-0.2067721044	 3.1530561157	 0.121212
H	-1.1995261504	-0.3836768366	 2.9284760812	 0.122462
H	 0.9199445971	-2.5346433502	 3.2847209507	 0.117343
H	-0.8234790312	-2.685649139	 3.6100629656	 0.121398
38.0012	107.683	168.6169	207.194	260.6405	336.522	513.2818	594.8982	635.3003	647.4686	685.0329	764.7584	814.5971	842.4924	851.8949	929.6824	989.2661	1012.1571	1073.2392	1103.5931	1150.1883	1185.7916	1195.6464	1218.6528	1242.9178	1297.8173	1326.4348	1372.7316	1382.2562	1440.6578	1479.269	1485.2878	1492.9892	1505.501	1518.0251	1572.2697	1618.5194	3015.9433	3033.4692	3035.0607	3068.3062	3090.0249	3111.8877	3163.417	3261.4607
CN1N=CC2=C1CCO2	Cn1ncc2c1CCO2	
InChI=1S/C6H8N2O/c1-8-5-2-3-9-6(5)4-7-8/h4H,2-3H2,1H3	InChI=1S/C6H8N2O/c1-8-5-2-3-9-6(5)4-7-8/h4H,2-3H2,1H3
