21
gdb 84492	2.51958	1.53978	1.15312	1.6281	84.45	-0.2341	0.0118	0.2459	1139.0979	0.182957	-387.089076	-387.080367	-387.079423	-387.122072	34.622	
C	-0.7439257816	 1.1413686794	-0.0616952921	-0.402033
C	 0.0084686426	-0.1844130659	-0.1098403858	-0.098489
C	 1.071147608	-0.2771151696	-1.2518126166	 0.072763
O	 1.6421571842	 0.9759491617	-1.6374183948	-0.430354
C	 2.116869253	-1.2001505553	-0.6707724196	-0.145792
C	 1.9767265618	-1.3212780192	 0.6515478945	-0.122448
C	 0.7823449554	-0.5978958676	 1.157928486	 0.334416
C	 0.8870315155	 0.2541110312	 2.411903062	-0.316851
C	 0.0854500437	-1.018134681	 2.4301148035	-0.315962
H	-0.0619536999	 1.9847514324	 0.0717209678	 0.1171
H	-1.2882484031	 1.3082368389	-0.9961406294	 0.117636
H	-1.4746307535	 1.1549493681	 0.7545244708	 0.106514
H	-0.7138508294	-0.987973133	-0.3060098057	 0.079995
H	 0.6160713057	-0.655525938	-2.1727754014	 0.08255
H	 2.2462948	 1.2393756949	-0.9341775331	 0.276015
H	 2.9209225139	-1.6148063765	-1.2674424114	 0.096754
H	 2.641362325	-1.8703430363	 1.3117047753	 0.096716
H	 1.8379541771	 0.2728245404	 2.9342258246	 0.109087
H	 0.3504733576	 1.1962905459	 2.4320322033	 0.118196
H	-0.996850016	-0.9360856263	 2.4562591545	 0.113459
H	 0.47863484	-1.8713526341	 2.9735412075	 0.110727
64.6176	192.9704	225.3839	249.2635	258.6125	290.9641	346.5453	353.3254	433.5796	481.8989	588.819	593.3443	712.5821	765.5394	783.9056	794.8063	836.4606	892.8395	923.8817	942.0872	972.9966	976.0726	992.9155	1000.5865	1054.6847	1069.5201	1080.4405	1101.0589	1135.6508	1154.1245	1193.2442	1243.7875	1255.6559	1298.8304	1310.143	1331.2056	1364.1817	1394.262	1412.5295	1430.9592	1465.8385	1492.9064	1493.6689	1505.0436	1665.5501	3011.3013	3036.9099	3059.5386	3099.5532	3119.4724	3121.4951	3131.5932	3173.678	3201.3958	3208.0135	3219.7529	3798.9081
CC1C(O)C=CC11CC1	C[C@H]1[C@@H](O)C=CC21CC2	
InChI=1S/C8H12O/c1-6-7(9)2-3-8(6)4-5-8/h2-3,6-7,9H,4-5H2,1H3	InChI=1S/C8H12O/c1-6-7(9)2-3-8(6)4-5-8/h2-3,6-7,9H,4-5H2,1H3/t6-,7-/m0/s1
