21
gdb 118709	3.3502	1.09566	0.95782	2.6167	79.61	-0.2357	0.0797	0.3154	1312.9481	0.180778	-424.138201	-424.129017	-424.128072	-424.172532	34.407	
C	-0.0486250988	 1.1962547848	 2.6046803506	-0.222918
O	 0.0770816074	-0.1916010971	 2.410658487	-0.235607
C	 0.6818774143	-0.5242597728	 1.1747552982	-0.156382
C	 0.6646728821	-2.0442010318	 1.0442131899	 0.354675
C	-0.7658440067	-2.544789335	 0.8631372854	-0.473912
C	 1.7739841245	-2.7681488609	 0.2052206953	-0.009306
C	 2.8546558781	-2.407885868	 1.2534326554	-0.24178
C	 1.5830938226	-2.9045332573	 1.9781816102	 0.025565
O	 1.5131107988	-4.0035275713	 0.9804639725	-0.314263
H	-0.6754026152	 1.6626605259	 1.8279388287	 0.104804
H	-0.520032524	 1.349870278	 3.5784611457	 0.128478
H	 0.9310181656	 1.7007671927	 2.6006960139	 0.102755
H	 0.1105260339	-0.0821059086	 0.3397415941	 0.084892
H	 1.692750299	-0.0962016177	 1.127024931	 0.086188
H	-1.1879169043	-2.1630205348	-0.0741147536	 0.105459
H	-0.7987976574	-3.6333380957	 0.8412646109	 0.137788
H	-1.3930063518	-2.1775064113	 1.6799134924	 0.129959
H	 1.8622316652	-2.869961568	-0.8780020278	 0.088934
H	 3.6833004598	-3.1150499685	 1.2865675349	 0.109671
H	 3.1840469225	-1.3759359469	 1.373258213	 0.098984
H	 1.4378486542	-3.1687230756	 3.0257592122	 0.096015
57.8834	87.22	137.3655	206.3283	226.7724	259.5569	315.1035	379.3833	402.7673	427.5065	536.9289	660.1884	700.8806	744.9181	806.7706	867.2209	879.3914	915.1474	964.9238	971.3027	990.9517	1018.7629	1034.4956	1104.5031	1113.4858	1149.1998	1161.2925	1167.6889	1178.5192	1204.3688	1206.9429	1227.9405	1239.3011	1255.7506	1280.3795	1333.9709	1391.2626	1420.2681	1478.0369	1484.5079	1489.6077	1497.6602	1504.0458	1508.9494	1534.7768	2951.1488	2968.761	3009.7671	3012.8444	3037.648	3087.4993	3102.8467	3104.5532	3113.8316	3121.8572	3157.9001	3159.5492
COCC1(C)C2CC1O2	COC[C@@]1(C)[C@H]2C[C@@H]1O2	
InChI=1S/C7H12O2/c1-7(4-8-2)5-3-6(7)9-5/h5-6H,3-4H2,1-2H3	InChI=1S/C7H12O2/c1-7(4-8-2)5-3-6(7)9-5/h5-6H,3-4H2,1-2H3/t5-,6+,7+
