15
gdb 83201	3.05832	1.47998	1.29493	4.0208	61.07	-0.2491	-0.0051	0.244	983.0792	0.112718	-494.890984	-494.883552	-494.882608	-494.923228	28.107	
O	 0.3126950304	 1.2160915196	 0.2672253702	-0.416978
C	 0.0984747913	-0.1283643356	 0.0275460084	 0.08556
C	-1.32967806	-0.6283908689	-0.0246469558	-0.03275
O	-2.2743982142	 0.3977303518	 0.0882551869	-0.254096
C	-2.9921080885	 0.5863563844	-1.1260965628	-0.229504
C	-2.0853401993	 0.8947145431	-2.3127176361	 0.404252
O	-2.4355703663	 1.5542966115	-3.2481799059	-0.310777
O	-0.8272095582	 0.3917459148	-2.2552268693	-0.204992
C	-0.5065040797	-0.5837184223	-1.289068194	 0.016979
H	-0.5527088551	 1.6108888558	 0.4419554373	 0.298668
H	 0.8556686801	-0.7707961266	 0.4672395104	 0.115179
H	-1.6290286647	-1.5768583496	 0.4165251247	 0.109654
H	-3.6030204285	-0.2967284818	-1.3628432925	 0.137918
H	-3.658096034	 1.4380480166	-0.9849599969	 0.158562
H	-0.1647485733	-1.5063859128	-1.7463157146	 0.122323
72.0574	146.3463	202.6883	298.4286	371.8201	420.7488	455.7045	516.1175	582.2182	624.3116	658.0624	742.3967	786.0437	822.0862	836.0872	950.6272	1026.1382	1038.9917	1069.2629	1089.0767	1114.4838	1158.5429	1173.6151	1210.1653	1250.2717	1284.5156	1331.6444	1353.7018	1370.239	1389.2508	1445.1155	1474.8494	1866.5605	3012.1392	3122.975	3138.7688	3155.583	3166.9972	3748.8167
OC1C2OCC(=O)OC12	O[C@H]1[C@H]2OCC(=O)O[C@@H]12	
InChI=1S/C5H6O4/c6-2-1-8-4-3(7)5(4)9-2/h3-5,7H,1H2	InChI=1S/C5H6O4/c6-2-1-8-4-3(7)5(4)9-2/h3-5,7H,1H2/t3-,4+,5-/m0/s1
