21
gdb 111297	3.14639	1.20034	1.03264	2.6848	79.32	-0.2378	0.078	0.3158	1261.8091	0.179738	-424.185479	-424.175661	-424.174717	-424.219924	36.003	
C	-0.000081512	 1.3731388295	-0.0442458186	-0.239399
O	-0.2326440155	-0.0084546079	 0.1247413684	-0.237928
C	 0.5583773892	-0.5997719731	 1.1145183536	 0.133127
C	 0.1335308914	-2.0070773793	 1.5183974867	-0.096638
O	 0.3700127398	-2.8862096753	 0.4106159117	-0.281718
C	 1.4826031289	-2.5464191086	 1.2495569712	 0.422499
C	 2.2595321652	-3.6508511662	 1.888848495	-0.504896
C	 1.9923852666	-1.1795913917	 0.7400782579	-0.11868
C	 2.4331812353	-1.1191990665	-0.7157123114	-0.405248
H	 1.0286107026	 1.5875138459	-0.3673065861	 0.109541
H	-0.6895786359	 1.7245264324	-0.8155050174	 0.12979
H	-0.1922530232	 1.9315412927	 0.88557196	 0.103777
H	 0.6303981997	 0.0521205054	 1.998735677	 0.06532
H	-0.6274254852	-2.3068495795	 2.2309227555	 0.097416
H	 1.5852178854	-4.4209808899	 2.2727533178	 0.134721
H	 2.9353173942	-4.1213004658	 1.1656242199	 0.131944
H	 2.8675124175	-3.2696061966	 2.7158264153	 0.122886
H	 2.7562152393	-0.7637863166	 1.4056033931	 0.067392
H	 1.6471356429	-1.5089937576	-1.3650408939	 0.14557
H	 2.6565200758	-0.0927950278	-1.0229847267	 0.111143
H	 3.340354718	-1.7135054934	-0.872423499	 0.10938
89.9554	112.8307	156.949	186.7765	198.575	206.1181	236.4735	249.1328	327.5031	344.7642	497.0647	538.8224	602.5187	677.2819	732.4506	786.8355	856.1126	873.2438	957.5165	977.1384	1007.827	1025.2521	1061.3776	1083.1532	1097.7451	1139.4896	1162.0136	1181.9899	1201.865	1211.2486	1230.7168	1275.3593	1292.766	1350.6043	1383.6188	1404.0939	1405.7485	1464.6814	1480.9111	1483.353	1488.4015	1492.8161	1496.197	1501.6151	1509.8316	2975.191	2985.7402	3029.1638	3033.1381	3036.7989	3054.0276	3094.2984	3095.7265	3116.3457	3119.7607	3138.6556	3176.4487
COC1C2OC2(C)C1C	CO[C@H]1[C@H]2O[C@@]2(C)[C@H]1C	
InChI=1S/C7H12O2/c1-4-5(8-3)6-7(4,2)9-6/h4-6H,1-3H3	InChI=1S/C7H12O2/c1-4-5(8-3)6-7(4,2)9-6/h4-6H,1-3H3/t4-,5+,6+,7-/m0/s1
