23
gdb 113202	2.62065	1.07082	0.96093	1.1367	82.19	-0.2352	0.0678	0.303	1382.8565	0.202399	-425.403525	-425.392525	-425.391581	-425.43931	40.33	
C	-0.2358074007	 1.1308221042	-0.2202133047	-0.238181
O	 0.553718429	-0.0024848525	 0.0912857237	-0.237967
C	 0.9481730239	-0.7010008297	-1.0463455583	 0.083066
C	 1.4316984649	-2.1025777063	-0.8481535677	-0.375005
C	 0.1157793466	-1.8546045998	-1.5718729676	 0.318391
C	-1.1629310601	-2.2107279439	-0.8387651631	-0.488679
C	 0.1105683786	-2.0376163425	-3.0859996831	 0.065658
C	-0.0894622744	-3.4896734958	-3.5261466035	-0.41405
O	-0.8379765578	-1.1731719626	-3.7126534844	-0.437629
H	 0.3309506412	 1.8597981297	-0.818733402	 0.110076
H	-1.1396588454	 0.856401266	-0.7808391055	 0.11506
H	-0.5214265372	 1.5948645577	 0.7266671716	 0.123822
H	 1.4562977191	-0.0823911235	-1.7890652054	 0.083189
H	 2.2954270305	-2.437908472	-1.413651994	 0.107576
H	 1.3723345514	-2.4959359679	 0.1610813145	 0.118887
H	-1.1178888185	-1.861663611	 0.1950872081	 0.136075
H	-2.0341558867	-1.735132722	-1.3048625442	 0.102657
H	-1.336408487	-3.2921326535	-0.8240347255	 0.115568
H	 1.0804784183	-1.6930822131	-3.4669890007	 0.079273
H	-1.065833238	-3.8700012137	-3.2031866956	 0.110498
H	-0.041037588	-3.5626943289	-4.6160871637	 0.122283
H	 0.677935382	-4.141029689	-3.0967171415	 0.121757
H	-1.7122852219	-1.5553306498	-3.5845832877	 0.277676
63.4014	102.5274	118.8909	161.5743	216.7804	235.2712	244.6359	252.5899	275.3214	278.0673	301.6332	382.2362	457.1455	488.0768	515.7128	582.7367	721.2164	807.8153	857.6618	907.8364	917.4668	955.2079	1019.1239	1025.5033	1058.6793	1074.0597	1095.4875	1105.8369	1130.6889	1133.3736	1179.3521	1185.1197	1241.9624	1269.3485	1293.1254	1319.7728	1377.7754	1402.4973	1406.4879	1415.1126	1423.8615	1470.0884	1484.4218	1490.5485	1492.2076	1493.7567	1503.4665	1507.2952	1511.6608	2987.5406	3024.3937	3026.8231	3032.693	3042.4222	3077.6901	3082.4426	3099.5914	3118.4319	3119.7015	3123.2569	3126.7269	3214.2239	3812.3835
COC1CC1(C)C(C)O	CO[C@H]1C[C@]1(C)[C@@H](C)O	
InChI=1S/C7H14O2/c1-5(8)7(2)4-6(7)9-3/h5-6,8H,4H2,1-3H3	InChI=1S/C7H14O2/c1-5(8)7(2)4-6(7)9-3/h5-6,8H,4H2,1-3H3/t5-,6+,7-/m1/s1
