19
gdb 86171	2.85699	1.2165	0.94446	1.0068	88.34	-0.2298	-0.025	0.2048	1285.5452	0.157002	-385.878034	-385.868672	-385.867728	-385.912189	35.019	
C	 0.1525724487	 1.548366728	-0.1529026325	-0.389433
C	-0.0019355828	 0.0413625952	 0.0528126886	 0.098601
O	 0.5659271653	-0.659986726	-1.0562021242	-0.289149
C	 1.4352369638	-1.7041091669	-0.6200875055	 0.020508
C	 2.7628658453	-1.6273151303	-1.3672012398	-0.392374
C	 1.5379373718	-1.5010525886	 0.8861074924	 0.173413
C	 0.7157737592	-0.512214232	 1.2512449811	-0.24107
C	 2.3726639805	-2.2940758855	 1.7041703381	 0.241184
C	 3.0992272599	-2.9991911414	 2.3579834461	-0.427489
H	 1.2105407553	 1.8231759811	-0.1866640447	 0.12124
H	-0.3154402847	 1.8450003274	-1.0956742153	 0.128774
H	-0.3307678922	 2.100000509	 0.6601086824	 0.112877
H	-1.079969627	-0.1933699692	 0.1153241851	 0.083272
H	 0.9660939783	-2.681035344	-0.826787181	 0.085125
H	 3.2591167328	-0.6734859816	-1.1663606288	 0.118136
H	 3.4231414621	-2.4418280265	-1.0547673723	 0.124585
H	 2.5901125187	-1.7111059609	-2.4436101438	 0.125476
H	 0.559800612	-0.1513506712	 2.259470286	 0.11147
H	 3.7349928731	-3.6113236668	 2.948259938	 0.194856
65.1044	108.3017	132.8173	219.6275	228.1141	251.1636	299.3021	362.9174	424.3663	477.7962	525.0409	548.106	596.1923	635.3735	640.3524	713.3241	799.4171	850.8307	871.4374	899.7098	965.9757	1031.6204	1069.6151	1096.6594	1103.1907	1125.6115	1139.7178	1204.3092	1270.7601	1325.375	1346.1392	1366.4205	1375.3541	1399.4611	1401.1859	1483.5812	1486.2768	1493.3048	1496.2351	1682.9315	2223.171	2933.7126	2954.7407	3039.1848	3042.72	3113.9207	3121.3766	3122.9997	3124.082	3223.6743	3503.4323
CC1OC(C)C(=C1)C#C	C[C@H]1O[C@@H](C)C(=C1)C#C	
InChI=1S/C8H10O/c1-4-8-5-6(2)9-7(8)3/h1,5-7H,2-3H3	InChI=1S/C8H10O/c1-4-8-5-6(2)9-7(8)3/h1,5-7H,2-3H3/t6-,7+/m1/s1
