15
gdb 97169	2.25186	1.54871	0.92822	5.3166	79.31	-0.2556	-0.0702	0.1854	1201.6051	0.112711	-416.839434	-416.831036	-416.830092	-416.873381	29.358	
C	-0.0232330632	 1.4341100399	 0.0772411165	-0.341054
N	-0.0161970936	-0.0173079259	 0.1041219003	-0.322338
C	-1.0942099607	-0.6588658243	 0.0310254102	 0.396652
O	-2.3629677952	-0.129776745	-0.0782980577	-0.258622
C	-3.3290829757	-1.177753216	-0.13522526	-0.132161
C	-2.5359138225	-2.4449272492	-0.0498945356	-0.212761
C	-1.2371851188	-2.1325672347	 0.0465207633	 0.118536
C	-0.1372593196	-3.0248804454	 0.1491630772	 0.248484
N	 0.7487646345	-3.7636958792	 0.232208079	-0.329148
H	 0.5932640358	 1.7744477815	-0.7622387375	 0.1354
H	-1.0192691919	 1.8817273831	-0.009222729	 0.126571
H	 0.4554442257	 1.8062359387	 0.9899382301	 0.1354
H	-4.0377313661	-1.0679971631	 0.6970807926	 0.142957
H	-3.8987264397	-1.1000775518	-1.0714063798	 0.142957
H	-2.9711036989	-3.4341257084	-0.0661565596	 0.149127
49.8154	126.8507	136.2788	156.2446	240.2067	247.944	384.3225	427.035	526.8964	562.5498	629.1246	736.6351	753.8326	801.0034	846.6446	952.542	1030.5793	1039.7542	1061.7361	1088.7408	1130.5183	1169.5689	1198.6902	1227.456	1337.0312	1374.6878	1437.1583	1492.3576	1493.2986	1496.58	1674.3696	1793.5796	2360.0723	3010.498	3020.2158	3038.9055	3081.9456	3093.6516	3245.2672
CN=C1OCC=C1C#N	CN=C1OCC=C1C#N	
InChI=1S/C6H6N2O/c1-8-6-5(4-7)2-3-9-6/h2H,3H2,1H3	InChI=1S/C6H6N2O/c1-8-6-5(4-7)2-3-9-6/h2H,3H2,1H3
