18
gdb 71192	2.54429	1.69095	1.3985	1.1549	74.96	-0.239	-0.0297	0.2093	994.8273	0.147048	-401.903519	-401.895574	-401.89463	-401.936077	30.278	
C	-0.0498212241	 1.5226621899	 0.1860029178	-0.506936
C	-0.0148909505	 0.027082598	 0.0893176202	 0.330545
C	 0.5385262852	-0.7084223072	-1.1548149644	-0.28583
C	-0.4909634726	-1.7650518818	-0.8062739782	-0.036012
C	-0.600031484	-1.8668751019	 0.6809169982	-0.079783
C	 0.355491299	-0.8559066889	 1.3048875157	-0.122324
C	 1.7819278848	-1.2272104406	 1.6128638888	 0.131115
O	 2.7509803475	-0.692944463	 1.13249822	-0.248627
N	-1.3547564762	-0.7949898787	-0.0510691026	-0.18999
H	 0.9685785937	 1.9103978203	 0.2985229436	 0.140419
H	-0.4907791528	 1.962372684	-0.7138934682	 0.127123
H	-0.6403787058	 1.847949678	 1.048550409	 0.124029
H	 0.2489246542	-0.1784187809	-2.0664732455	 0.11005
H	 1.6006586405	-0.9582913993	-1.1869517798	 0.122231
H	-0.9332302829	-2.5120016393	-1.4560344498	 0.098133
H	-1.1206143294	-2.6785729361	 1.175804893	 0.100114
H	-0.1054246246	-0.4583121865	 2.2200094061	 0.107125
H	 1.894779968	-2.0601378459	 2.346475936	 0.078619
74.2465	155.3484	191.09	209.5564	292.3291	302.9627	409.5567	481.7886	607.8044	674.4868	700.8239	764.3861	787.5362	810.351	833.5494	868.8305	974.2049	980.9986	1010.7183	1023.5219	1039.8827	1065.489	1082.1281	1104.9293	1120.3247	1135.0613	1185.4083	1231.9603	1246.7015	1297.4223	1327.7766	1372.9223	1377.1173	1414.5168	1423.9796	1483.4508	1490.0059	1503.1502	1819.0715	2853.5776	3020.1903	3033.2432	3065.0488	3105.1689	3108.8223	3123.1172	3174.9891	3187.1914
CC12CC3C(C1C=O)N23	C[C@@]12C[C@H]3[C@@H]([C@H]1C=O)N23	
InChI=1S/C7H9NO/c1-7-2-5-6(8(5)7)4(7)3-9/h3-6H,2H2,1H3	InChI=1S/C7H9NO/c1-7-2-5-6(8(5)7)4(7)3-9/h3-6H,2H2,1H3/t4-,5+,6-,7-,8?/m1/s1
