18
gdb 119666	3.89954	1.08704	0.98339	1.3028	72.64	-0.2357	0.0592	0.2949	1248.1338	0.146483	-438.948462	-438.94031	-438.939366	-438.981936	30.221	
C	-0.0016709844	 1.3364580701	-0.0228254874	-0.22034
O	 0.0139226861	-0.0712521626	-0.0781118181	-0.243922
C	-1.264854593	-0.6419031832	 0.1124468878	-0.2344
C	-1.1185000791	-2.1273783839	 0.0738352338	 0.326426
N	-0.3986225419	-2.9416736896	 1.1077729701	-0.380034
C	-0.8596196442	-3.9718701336	 0.1205602774	-0.080435
C	-2.2072544775	-3.2290136661	-0.1143149347	 0.050615
O	-2.1167668085	-3.2472523847	-1.5668530753	-0.330931
C	-0.7365208373	-3.0519531351	-1.1368433657	 0.04302
H	 1.023221705	 1.6805064385	-0.1803914616	 0.129114
H	-0.6467697324	 1.7679732151	-0.8042258107	 0.107265
H	-0.3543231054	 1.7022634901	 0.9542147205	 0.107874
H	-1.6915341871	-0.3320476324	 1.0807462579	 0.100997
H	-1.9628909992	-0.3288275314	-0.6821765993	 0.105558
H	 0.6094370218	-2.7920023333	 1.0232429683	 0.219328
H	-0.6727999025	-5.0406670449	 0.2219896746	 0.09374
H	-3.178107612	-3.3521060273	 0.3634701865	 0.104519
H	 0.0460997215	-2.9556715758	-1.8899916041	 0.101605
66.207	95.1284	123.3474	219.8492	265.1637	343.9957	358.9554	492.5946	581.2559	718.3377	759.6221	775.1299	817.0474	831.0963	863.8867	897.96	950.056	951.703	987.6569	1040.1141	1088.317	1106.87	1112.6844	1154.0674	1159.714	1170.8359	1184.3923	1193.4031	1225.0796	1253.9513	1268.5032	1279.5639	1316.474	1360.5385	1438.7304	1478.3143	1485.3224	1496.015	1518.365	2959.0166	2974.8429	2994.895	3018.6696	3116.3829	3116.9177	3126.287	3140.7786	3420.4302
COCC12NC3C1OC23	COC[C@@]12N[C@H]3[C@@H]1O[C@@H]23	
InChI=1S/C6H9NO2/c1-8-2-6-4-3(7-6)5(6)9-4/h3-5,7H,2H2,1H3	InChI=1S/C6H9NO2/c1-8-2-6-4-3(7-6)5(6)9-4/h3-5,7H,2H2,1H3/t3-,4-,5+,6+
