19
gdb 37323	2.39228	2.27892	1.51039	1.2907	77.43	-0.2152	0.0767	0.2919	921.8906	0.16235	-381.987604	-381.980951	-381.980007	-382.018102	28.667	
C	-0.010900314	 1.5460573127	 0.2362498188	-0.324231
C	 1.280603598	 0.7972729752	 0.0138749716	 0.014011
C	-0.0496537211	 0.0553722661	 0.0028582613	 0.01402
N	-0.5282881827	-0.5788592299	-1.1969488152	-0.097415
C	-1.0464528286	 0.1717189559	-2.3295121884	-0.264276
C	 0.2866569656	-0.4879441069	-2.43093933	-0.017922
C	 1.5967830322	 0.2427435625	-2.4200974654	-0.017909
C	 1.7347722763	 1.7228367874	-2.3065187856	-0.264281
N	 2.086781554	 0.8795947214	-1.1753254516	-0.097418
H	-0.2176096818	 1.9017656243	 1.2398685204	 0.116039
H	-0.3741679559	 2.2089483114	-0.5398242179	 0.111768
H	 1.8997701532	 0.6421908401	 0.8922066835	 0.098443
H	-0.2541244957	-0.5590359494	 0.8743969413	 0.098441
H	-1.9087706692	-0.2750242711	-2.819129193	 0.116031
H	-1.0814778624	 1.2569147063	-2.2843168368	 0.107103
H	 0.339858951	-1.4336301178	-2.9653676062	 0.092232
H	 2.3801183502	-0.2957142989	-2.9485102652	 0.09223
H	 2.5741017125	 2.2250805652	-2.7820979713	 0.11603
H	 0.8294045684	 2.3226590556	-2.2685267305	 0.107104
216.1807	224.1219	368.4462	371.2786	447.0242	475.858	520.7596	550.399	658.8213	698.902	733.9854	767.5003	809.2385	849.3657	860.1949	911.6027	939.6829	983.8692	998.9894	1041.716	1053.5306	1058.9987	1096.1499	1106.847	1109.3055	1129.2653	1140.1184	1144.5404	1162.8665	1163.8283	1165.2603	1249.2364	1339.3064	1363.1813	1373.3405	1384.4001	1401.8296	1419.3906	1476.1132	1507.0271	1525.7758	3099.9695	3103.4923	3114.6567	3133.76	3138.4462	3140.095	3148.8193	3178.0225	3184.4677	3223.3055
C1C2C1N1CC1C1CN21	C1[C@H]2[C@@H]1N1C[C@H]1[C@H]1CN21	
InChI=1S/C7H10N2/c1-4-5(1)9-3-7(9)6-2-8(4)6/h4-7H,1-3H2	InChI=1S/C7H10N2/c1-4-5(1)9-3-7(9)6-2-8(4)6/h4-7H,1-3H2/t4-,5+,6+,7-,8?,9?
