20
gdb 117274	2.25287	0.85061	0.64759	3.967	85.72	-0.2356	0.0375	0.2731	1774.518	0.168512	-403.169435	-403.15825	-403.157305	-403.208758	37.683	
C	-0.9001769716	-0.016600005	 0.0646906706	-0.371146
C	 0.3039946127	 0.2165167074	-0.8505386605	-0.146129
N	 0.9866503905	-1.0143847961	-1.2108311147	-0.316742
C	 2.2155338048	-1.3389501504	-0.7393581364	 0.432604
O	 2.8787928198	-0.6359957568	 0.0014832094	-0.382601
C	 2.7735505972	-2.7009535214	-1.2068027365	-0.489789
C	 1.9316947401	-3.4951181959	-2.0910460286	 0.041807
C	 1.2237502621	-4.1409446111	-2.822342366	 0.093618
C	 0.388707284	-4.9408703916	-3.7081440056	-0.499778
H	-1.6437761953	-0.6655500396	-0.4109096442	 0.111226
H	-0.5878380254	-0.4869550193	 1.0014248251	 0.132814
H	-1.3884611064	 0.9339424188	 0.3020948473	 0.118953
H	-0.0109836772	 0.7335466848	-1.7654091952	 0.104802
H	 1.0491132544	 0.8415850262	-0.3535924547	 0.148987
H	 0.523774901	-1.6874918249	-1.8030976392	 0.248584
H	 3.7383211972	-2.4838794331	-1.6799071802	 0.159648
H	 3.0116447609	-3.2580026545	-0.2931687992	 0.159124
H	 0.8965577204	-5.8686208554	-3.9936254818	 0.15483
H	-0.5563482013	-5.2165976139	-3.2275550732	 0.149528
H	 0.1487146622	-4.3993471781	-4.6297153465	 0.149658
24.7367	33.8986	43.865	76.1646	105.7484	202.7388	204.7155	256.989	317.0102	366.8052	385.0311	432.6722	464.6717	519.1648	630.2298	645.9493	771.4035	801.0281	900.6077	935.0796	946.397	1051.8306	1055.7762	1080.781	1127.3965	1165.9429	1177.8463	1216.8753	1249.8233	1308.7971	1322.9328	1392.7487	1412.0633	1415.7829	1446.82	1478.2832	1479.0693	1484.962	1493.4631	1502.7242	1556.4411	1782.1648	2365.2698	3028.3583	3029.4132	3034.8162	3041.8718	3073.553	3089.358	3090.3216	3096.7273	3115.8258	3125.331	3609.9559
CCNC(=O)CC#CC	CCNC(=O)CC#CC	
InChI=1S/C7H11NO/c1-3-5-6-7(9)8-4-2/h4,6H2,1-2H3,(H,8,9)	InChI=1S/C7H11NO/c1-3-5-6-7(9)8-4-2/h4,6H2,1-2H3,(H,8,9)
