17
gdb 32078	3.58055	1.14473	0.87685	2.0971	78.69	-0.2377	-0.0418	0.1959	1293.7379	0.136278	-418.057469	-418.04869	-418.047746	-418.092037	31.078	
C	-0.058156748	 1.4796020477	-0.0443145271	-0.473437
C	 0.0287790653	-0.02132159	 0.0013695907	 0.305712
N	-0.0766469965	-0.6838208104	-1.1550098729	-0.354581
C	 0.0007336359	-2.0154063513	-1.1126663594	 0.275162
C	-0.1229205633	-2.7243437156	-2.4389005961	-0.154162
O	-0.022903692	-4.1212124604	-2.240544356	-0.415886
C	 0.1849056117	-2.6973143651	 0.0916496186	-0.052803
N	 0.2915060488	-2.047246263	 1.2522228944	-0.242163
C	 0.2130754119	-0.7188838191	 1.1997853073	-0.058415
H	 0.0397304387	 1.917153505	 0.9521666961	 0.124369
H	 0.7293354637	 1.8895256621	-0.6847026316	 0.142017
H	-1.0152782294	 1.7950036571	-0.4717816163	 0.142016
H	-1.0852189467	-2.4408781865	-2.8935345868	 0.113414
H	 0.6661774128	-2.3458816709	-3.1075968998	 0.113413
H	-0.1038297191	-4.5536981534	-3.0945478147	 0.295587
H	 0.2458539816	-3.7788011429	 0.1105545782	 0.13345
H	 0.2992073246	-0.1829812234	 2.1422344556	 0.106309
44.0786	59.3503	177.504	194.5961	200.286	233.1485	325.4965	456.0247	458.2695	546.8172	565.6556	605.4682	725.2341	775.1132	895.8187	942.599	969.9446	1012.4072	1041.3682	1042.5142	1061.0486	1112.1529	1189.4218	1203.8544	1240.2411	1241.754	1286.7017	1303.9878	1410.4055	1432.4025	1452.9567	1474.2617	1476.0407	1498.827	1503.7912	1588.2769	1618.1802	2974.6025	2999.6559	3041.4967	3102.0654	3125.8392	3153.3533	3207.876	3848.098
CC1=NC(CO)=CN=C1	Cc1nc(CO)cnc1	
InChI=1S/C6H8N2O/c1-5-2-7-3-6(4-9)8-5/h2-3,9H,4H2,1H3	InChI=1S/C6H8N2O/c1-5-2-7-3-6(4-9)8-5/h2-3,9H,4H2,1H3
