19
gdb 64188	2.15299	1.55036	1.35657	2.774	71.47	-0.2542	-0.0384	0.2158	1073.2687	0.154814	-460.15581	-460.145878	-460.144934	-460.190521	36.356	
C	-0.2548450514	 1.4580920593	 0.1930995014	-0.431541
C	 0.0370455981	-0.0315140457	 0.045612361	 0.354494
C	-1.1797438745	-0.8013009029	-0.445581586	-0.442766
O	 1.1719338781	-0.2500078778	-0.8343615966	-0.317616
C	 1.9971865408	-0.7555461691	 0.2262613186	-0.120296
C	 0.8622366655	-0.6383618484	 1.2657218148	 0.176426
O	 1.0572699029	 0.1695765322	 2.3986598169	-0.476101
C	 0.3527839472	-1.9565394677	 1.8139571778	 0.135362
O	 0.4024998254	-3.0031059144	 1.2209674461	-0.249934
H	 0.6501197756	 2.030513829	 0.4211833925	 0.105864
H	-0.6461796651	 1.8438113203	-0.7530020423	 0.134391
H	-0.9952429351	 1.6421021665	 0.9771121932	 0.130218
H	-1.4829775109	-0.4093904981	-1.4215572309	 0.125223
H	-0.9545882466	-1.8628836327	-0.5563365771	 0.15094
H	-2.0230269413	-0.6877113995	 0.2445658536	 0.116084
H	 2.3378316595	-1.7781369039	 0.0339053569	 0.127194
H	 2.8585651186	-0.1086175852	 0.4412553923	 0.094687
H	 1.3979114752	 1.0250724644	 2.1207725181	 0.288858
H	-0.0783544018	-1.8711457563	 2.8343506097	 0.098514
45.0301	107.5435	177.8789	213.6507	232.8414	245.4929	265.1277	292.2912	320.0184	351.4756	397.1452	455.7643	486.903	606.9503	632.4762	706.0911	853.8503	886.7377	930.8818	935.2648	971.2467	995.783	1037.5396	1072.7086	1106.5254	1160.2761	1173.9523	1207.1252	1231.2676	1251.0274	1335.4293	1365.9052	1398.1156	1409.7797	1416.8855	1468.6177	1486.373	1493.5427	1505.7747	1512.4425	1831.5895	2911.4655	3007.2749	3035.1467	3040.3699	3078.1817	3103.0523	3104.435	3120.8807	3145.0186	3834.3162
CC1(C)OCC1(O)C=O	CC1(C)OC[C@]1(O)C=O	
InChI=1S/C6H10O3/c1-5(2)6(8,3-7)4-9-5/h3,8H,4H2,1-2H3	InChI=1S/C6H10O3/c1-5(2)6(8,3-7)4-9-5/h3,8H,4H2,1-2H3/t6-/m1/s1
