18
gdb 35796	3.64662	1.1965	1.00615	3.8259	76.02	-0.2148	0.0239	0.2387	1173.1745	0.15093	-398.106565	-398.098778	-398.097834	-398.138921	30.465	
N	 0.1042619491	-1.1603329872	 0.0754640822	-0.315928
C	 0.0562930768	-0.0069603586	 0.0218453277	 0.262889
C	-0.0263762179	 1.4543434918	 0.008747958	-0.098746
C	-0.8309654298	 1.9724143692	 1.2329840498	-0.186335
N	-0.9744957319	 3.4238411455	 1.1942244128	-0.298814
C	 0.2367366852	 4.1373169936	 0.845908105	 0.026568
C	 1.5104172583	 3.9510669737	 1.612923812	-0.310062
C	 1.4096974382	 3.4432272183	 0.1773904784	-0.020587
N	 1.3212248358	 2.0243628109	-0.0784161098	-0.317539
H	-0.5828420702	 1.7453806048	-0.8948124567	 0.12207
H	-1.8274598633	 1.5226459423	 1.2573649525	 0.124263
H	-0.3132487861	 1.6708125766	 2.1507211751	 0.122851
H	-1.6856412072	 3.6590291879	 0.5085980959	 0.224374
H	 0.0184710115	 5.1480475236	 0.518203486	 0.100952
H	 2.1167862648	 4.8278860224	 1.8114233187	 0.117571
H	 1.542038107	 3.2004736646	 2.3956598687	 0.11649
H	 1.9623052794	 3.9948133131	-0.5802360831	 0.09449
H	 1.9685215803	 1.4956048075	 0.4932948767	 0.235493
82.5255	154.6151	190.6406	294.276	343.6344	392.3991	434.3999	497.0211	543.2228	557.4636	655.5575	693.1042	756.5106	783.1542	807.1606	868.2525	918.8091	960.8444	1000.0548	1021.0415	1049.7602	1064.4247	1082.7278	1122.1796	1141.5734	1175.0188	1209.2124	1252.2931	1271.4439	1297.7207	1331.2785	1370.8976	1375.8799	1419.6625	1468.6688	1484.1643	1488.3035	1508.5834	2359.2856	2995.2304	3044.7876	3099.1726	3114.5712	3132.0374	3165.9768	3218.6251	3507.6459	3544.89
N#CC1CNC2CC2N1	N#C[C@H]1CN[C@H]2C[C@H]2N1	
InChI=1S/C6H9N3/c7-2-4-3-8-5-1-6(5)9-4/h4-6,8-9H,1,3H2	InChI=1S/C6H9N3/c7-2-4-3-8-5-1-6(5)9-4/h4-6,8-9H,1,3H2/t4-,5-,6+/m0/s1
