20
gdb 108340	2.63984	1.62447	1.29816	0.7909	77.36	-0.2281	0.0561	0.2842	1066.4029	0.171089	-403.072153	-403.06409	-403.063146	-403.104665	31.746	
C	 0.0063501638	 1.4502996633	 0.242428618	-0.391385
C	-0.0714554686	-0.0361516313	-0.1248342556	-0.285172
C	 0.761003897	-0.4266913426	-1.3221800707	 0.45418
O	 0.8264676238	-1.871960953	-1.5134509024	-0.342386
C	 2.2785492132	-1.8431817561	-1.5287386977	-0.116787
C	 2.2858959948	-0.3122821386	-1.4759643641	-0.074942
N	 2.1569399197	 0.4911299861	-2.7600278022	-0.155674
C	 1.3556921157	-0.2699044563	-3.7411618778	-0.256308
C	 0.6358529335	 0.377127742	-2.6350469822	-0.074423
H	 1.0388444557	 1.7596461536	 0.4349765677	 0.124554
H	-0.3881588978	 2.0903415927	-0.5521262385	 0.124527
H	-0.5751584324	 1.6505258337	 1.1467208873	 0.119931
H	 0.2519961323	-0.6500589354	 0.723336861	 0.107519
H	-1.1122567524	-0.3210315838	-0.3302334213	 0.111189
H	 2.6944882208	-2.3143686938	-0.6290007333	 0.105774
H	 2.7049215906	-2.3273711977	-2.4146687602	 0.108742
H	 2.9474480461	 0.1936114513	-0.774510618	 0.091179
H	 1.3305606144	 0.22610839	-4.7068008327	 0.122002
H	 1.4030139767	-1.3518339547	-3.7889470064	 0.135889
H	-0.0053755369	 1.2419121105	-2.7756738808	 0.091589
82.444	147.3806	190.272	260.4211	275.3885	350.6399	409.8556	452.7131	543.9193	601.9746	686.6144	731.0152	757.2019	778.728	887.7999	899.8615	930.8949	947.2706	964.7914	980.333	1010.9076	1036.845	1050.4223	1077.5971	1105.3889	1113.0792	1136.9851	1160.3904	1166.7515	1184.8606	1229.6225	1274.3405	1300.9081	1306.2474	1341.6147	1359.8208	1386.0879	1415.4637	1482.8521	1496.1657	1500.4329	1506.368	1520.6607	3015.1379	3022.4948	3041.9788	3062.217	3064.3817	3109.0668	3114.2512	3123.4897	3130.9864	3153.7555	3218.3951
CCC12OCC1N1CC21	CC[C@]12OC[C@H]1N1C[C@@H]21	
InChI=1S/C7H11NO/c1-2-7-5-3-8(5)6(7)4-9-7/h5-6H,2-4H2,1H3	InChI=1S/C7H11NO/c1-2-7-5-3-8(5)6(7)4-9-7/h5-6H,2-4H2,1H3/t5-,6+,7+,8?/m0/s1
