16
gdb 51975	6.95136	0.63214	0.58397	2.2466	73.25	-0.2558	-0.0381	0.2177	1784.5496	0.120673	-437.891152	-437.881158	-437.880214	-437.929097	33.722	
O	-0.0521967621	-0.1218446694	-0.0206824817	-0.327279
C	-0.0273502631	 1.0918232563	-0.0153069704	 0.154376
N	 1.1062626324	 1.8326200314	 0.0385594824	-0.286119
C	 2.41187359	 1.2292669423	 0.0657651629	-0.226562
C	 3.48094189	 2.3087850645	-0.0389592725	 0.364183
O	 3.1941670192	 3.4795523615	-0.0730668983	-0.281935
C	 4.9213019393	 1.7893895618	-0.1021249988	-0.478354
C	 5.9386529688	 2.8241168012	-0.0488768934	 0.318976
C	 6.7861646186	 3.6725124927	-0.0036278438	-0.414569
H	-0.9367904493	 1.7223450988	-0.05315916	 0.082735
H	 1.0855692445	 2.8424527311	 0.0138922646	 0.26592
H	 2.5757584774	 0.6570699441	 0.9910441019	 0.148215
H	 2.5311540391	 0.5042964625	-0.7509308217	 0.150231
H	 5.058759949	 1.0612555379	 0.7088831206	 0.159555
H	 5.0117840463	 1.2037925171	-1.0285858064	 0.165616
H	 7.5315486399	 4.4278463463	 0.0370781545	 0.205011
16.861	20.6943	83.4429	101.8507	163.6354	271.2715	302.1461	316.1724	342.5588	413.3868	450.0382	574.6153	632.0667	654.548	675.1517	796.739	813.0087	901.3642	957.4939	1022.4336	1036.3041	1045.3829	1109.3901	1198.8244	1227.7097	1259.4875	1330.412	1367.0563	1423.0059	1436.3912	1480.1827	1515.9044	1797.071	1824.8851	2253.4815	2948.3256	3004.6145	3014.2755	3033.2442	3044.4214	3506.2191	3603.4641
O=CNCC(=O)CC#C	O=CNCC(=O)CC#C	
InChI=1S/C6H7NO2/c1-2-3-6(9)4-7-5-8/h1,5H,3-4H2,(H,7,8)	InChI=1S/C6H7NO2/c1-2-3-6(9)4-7-5-8/h1,5H,3-4H2,(H,7,8)
