21
gdb 113735	2.56331	1.08591	0.90365	2.8371	83.65	-0.2337	0.0312	0.2649	1402.3554	0.181311	-383.257748	-383.247631	-383.246687	-383.293338	36.473	
C	-0.2445876093	 1.691320021	-0.2181581288	-0.373784
C	-0.0117642139	 0.261949964	 0.264761347	-0.143052
N	-1.2620756297	-0.4949283555	 0.2012186037	-0.085418
C	-1.5829282456	-1.2193166215	-1.024544704	-0.266282
C	-1.2568105846	-1.950321075	 0.2335215875	 0.002482
C	 0.0014182981	-2.8186022234	 0.4080879585	-0.15642
C	-0.3965191338	-4.2992654818	 0.5996386959	-0.400421
C	 0.9574954688	-2.713756431	-0.6976385039	 0.291114
N	 1.7134476841	-2.6621402308	-1.5713054157	-0.345146
H	 0.6721698669	 2.2815935054	-0.1280779791	 0.11502
H	-0.550956079	 1.7015246578	-1.2691481764	 0.121931
H	-1.0319174789	 2.1719887951	 0.3690455565	 0.125892
H	 0.7993453889	-0.1956917446	-0.320891019	 0.115072
H	 0.3104586608	 0.2740289263	 1.3133795628	 0.101446
H	-2.6107644875	-1.1473677803	-1.3708485979	 0.115714
H	-0.8346233176	-1.2439251859	-1.8154788221	 0.135691
H	-2.0811270885	-2.3605662326	 0.8159964551	 0.097583
H	 0.5254089568	-2.4865809102	 1.3146356337	 0.134442
H	 0.4864941652	-4.9245380459	 0.7484275509	 0.139749
H	-1.0435600589	-4.3950341128	 1.4755941762	 0.130352
H	-0.9386182922	-4.668534628	-0.2749141008	 0.144035
46.3097	80.4444	120.9461	162.3299	211.7851	222.3554	239.7637	284.82	310.4463	348.6593	421.0784	535.2161	578.519	633.5261	721.7627	772.5635	817.0262	872.2921	921.2973	962.5188	995.7066	1031.993	1058.0259	1077.6019	1101.5538	1114.7235	1126.4564	1143.7242	1190.1004	1201.9619	1296.6902	1316.0718	1320.406	1354.0017	1388.6319	1398.3897	1411.4331	1416.8943	1488.4432	1492.4361	1493.9901	1499.4123	1506.0491	1519.473	2350.483	2995.6108	3020.9874	3040.7073	3046.5587	3050.8674	3093.8553	3103.5353	3110.966	3121.5399	3128.5725	3135.0016	3179.65
CCN1CC1C(C)C#N	CCN1C[C@H]1[C@@H](C)C#N	
InChI=1S/C7H12N2/c1-3-9-5-7(9)6(2)4-8/h6-7H,3,5H2,1-2H3	InChI=1S/C7H12N2/c1-3-9-5-7(9)6(2)4-8/h6-7H,3,5H2,1-2H3/t6-,7-,9?/m0/s1
