18
gdb 17076	6.34426	1.03306	0.98915	2.4394	68.46	-0.2451	0.0783	0.3234	1211.3908	0.153579	-384.895493	-384.887534	-384.88659	-384.929098	28.241	
C	-0.1023457423	 1.5808416799	 0.1510644019	-0.247169
C	-0.1224540512	 0.081109447	 0.3246712131	 0.101032
C	-1.277879797	-0.7370091914	-0.059193811	-0.180546
O	-0.1101061792	-0.694766449	-0.8805225607	-0.239947
C	 1.2948320566	 2.0930650137	-0.1658855289	 0.169709
C	 1.5422882585	 3.6169515845	-0.1191417293	-0.302267
C	 2.5865199876	 3.2694989816	 0.9604205131	-0.057013
O	 2.2173179813	 1.8751070553	 0.9333871567	-0.297797
H	-0.7824923127	 1.8613201451	-0.6625760161	 0.103081
H	-0.4578814611	 2.0609206065	 1.0718756172	 0.100398
H	 0.5416521589	-0.2995593324	 1.1007287067	 0.111003
H	-1.4644691287	-1.685516658	 0.442695969	 0.114116
H	-2.1609360468	-0.2537083596	-0.4767951695	 0.109089
H	 1.6652375861	 1.6087531497	-1.0794216791	 0.090341
H	 1.9240517351	 4.0716144303	-1.034104083	 0.112033
H	 0.6889016099	 4.1958907853	 0.2413951174	 0.108045
H	 3.6315854351	 3.4195975011	 0.6607036454	 0.102397
H	 2.43691357	 3.7151276605	 1.9508407469	 0.103494
58.4042	72.5809	96.4644	148.7978	312.7029	338.1169	449.7012	490.493	739.1454	786.9559	810.5937	853.6898	883.9996	899.5836	953.5193	972.0315	986.2726	1027.5728	1077.9148	1104.7542	1115.4693	1145.8361	1157.9362	1166.6437	1179.5407	1214.7764	1245.8656	1257.5916	1285.5165	1298.2493	1312.2886	1367.6914	1399.4775	1444.2169	1455.3437	1491.3651	1530.3567	1532.4218	3010.7025	3017.3008	3024.2321	3054.7607	3072.4529	3075.2617	3078.7869	3118.8699	3132.4352	3164.5876
C(C1CO1)C1CCO1	C([C@H]1CO1)[C@H]1CCO1	
InChI=1S/C6H10O2/c1-2-7-5(1)3-6-4-8-6/h5-6H,1-4H2	InChI=1S/C6H10O2/c1-2-7-5(1)3-6-4-8-6/h5-6H,1-4H2/t5-,6+/m1/s1
