18
gdb 79278	2.22385	2.12458	1.58016	2.6303	73.82	-0.2388	-0.0208	0.2181	928.1657	0.150168	-401.960651	-401.953639	-401.952694	-401.991834	28.353	
C	-0.11169719	 1.564807958	 0.0014108976	-0.423325
C	 0.0162360491	 0.0424216178	 0.0132145354	 0.000961
C	 0.9352413458	-0.5391093597	-1.0711289069	-0.032538
C	 2.3362621201	-0.6040011876	-0.5313139488	-0.165158
N	 1.4847989426	-1.8241001692	-0.6241334118	-0.126538
C	 0.9282892201	-2.0244753464	 0.7532146514	-0.177214
C	 0.793638441	-0.5641057104	 1.2133074423	-0.183529
C	 2.2253264727	-0.0919639479	 0.8799870797	 0.44867
O	 3.0218589311	 0.5097735162	 1.5467641747	-0.341105
H	 0.8625471889	 2.0538766017	 0.1021553636	 0.136095
H	-0.5646453389	 1.9097136066	-0.9338064662	 0.120264
H	-0.7453803849	 1.9093511137	 0.8244180674	 0.123838
H	-0.9807071791	-0.4091241939	-0.0605467201	 0.081581
H	 0.7360364847	-0.4232843243	-2.1304079018	 0.102938
H	 3.2382218009	-0.5495853781	-1.1252711377	 0.111509
H	-0.0248373381	-2.5563992635	 0.6848141807	 0.113292
H	 1.6272800489	-2.6165314308	 1.3506248254	 0.120295
H	 0.4411355949	-0.3521894821	 2.2187624151	 0.089965
137.973	205.7562	224.3753	290.3832	405.7037	457.6057	514.4313	603.9199	659.9034	712.1869	779.8472	796.4369	813.9924	851.6085	882.4216	918.4747	938.1915	970.5578	993.4535	1015.6126	1050.2337	1065.8148	1101.4963	1133.1876	1149.1444	1180.2996	1203.5973	1211.1712	1225.7722	1273.8938	1297.164	1314.9276	1356.7871	1378.5707	1418.1234	1495.7204	1499.5749	1506.5801	1870.757	3030.6385	3036.1126	3057.3017	3103.3508	3108.0693	3109.7007	3166.7791	3181.1891	3217.3111
CC1C2C3N2CC1C3=O	C[C@H]1[C@H]2[C@@H]3N2C[C@H]1C3=O	
InChI=1S/C7H9NO/c1-3-4-2-8-5(3)6(8)7(4)9/h3-6H,2H2,1H3	InChI=1S/C7H9NO/c1-3-4-2-8-5(3)6(8)7(4)9/h3-6H,2H2,1H3/t3-,4-,5+,6+,8?/m1/s1
