18
gdb 68642	2.44235	2.03091	1.53127	2.7858	76.49	-0.2504	-0.0133	0.2371	934.9985	0.149572	-401.967832	-401.960582	-401.959638	-401.999039	29.722	
C	-0.0223320735	 1.525916609	 0.0205150773	-0.487887
C	 0.0025735777	 0.0132890227	-0.0199190263	 0.177767
C	 0.7456150773	-0.7282529408	-1.1763803936	-0.257898
C	 0.4047353206	-2.0996217325	-0.5802061268	 0.041285
O	 0.9819180245	-1.959247337	 0.7723280696	-0.264972
C	 0.7248687292	-0.6698876795	 1.1492658653	 0.427293
N	 1.0271299968	-0.1378530819	 2.253291654	-0.571261
C	-1.1064581599	-1.9922947827	-0.4281704714	-0.091778
C	-1.342747217	-0.7268740483	-0.0741502394	-0.108084
H	 0.992057705	 1.9331643383	-0.0073231562	 0.127361
H	-0.5833521199	 1.9310592404	-0.8274651394	 0.11134
H	-0.4861440864	 1.8733021229	 0.9476911679	 0.141686
H	 0.2919721034	-0.5465334168	-2.1517521452	 0.111057
H	 1.8216818233	-0.5322870868	-1.2056250302	 0.110827
H	 0.8250851508	-3.0004535303	-1.0202307731	 0.087801
H	 1.4964977244	-0.8108069939	 2.8622160112	 0.221415
H	-1.8026222006	-2.8172107808	-0.4904043001	 0.110634
H	-2.2808485755	-0.2750249923	 0.2214873265	 0.113412
151.7986	189.786	253.5126	303.9953	391.8375	441.819	464.4051	539.366	619.6043	651.9717	689.232	732.4929	776.2615	834.1623	864.2775	878.9774	895.4597	910.4518	943.3173	949.9306	967.1007	1010.398	1028.2892	1090.6761	1105.1453	1161.1151	1203.9781	1231.3762	1250.6336	1273.6282	1282.255	1347.7224	1372.3599	1416.0308	1486.6184	1490.3965	1492.2852	1637.0114	1778.0102	3042.9912	3063.5432	3113.771	3121.3796	3134.5729	3156.9469	3209.9426	3236.9868	3466.5028
CC12CC(OC1=N)C=C2	C[C@@]12C[C@@H](O[C]1[NH])C=C2	
InChI=1S/C7H9NO/c1-7-3-2-5(4-7)9-6(7)8/h2-3,5,8H,4H2,1H3	InChI=1S/C7H9NO/c1-7-3-2-5(4-7)9-6(7)8/h2-3,5,8H,4H2,1H3/t5-,7+/m0/s1
