16
gdb 19589	4.26481	2.01358	1.85955	0.2106	62.41	-0.2405	0.0711	0.3116	769.9516	0.131389	-383.673383	-383.667238	-383.666294	-383.703271	25.11	
C	-0.0829806329	 1.541402515	 0.0033760748	-0.432237
C	-0.0559474563	 0.02118236	-0.0017374679	 0.034077
C	 1.1529512864	-0.6138089687	-0.7415425697	 0.014936
O	 1.9825005891	-0.3061006462	 0.4365051111	-0.304522
C	 0.7414074439	-0.6275282429	 1.1624613911	 0.014938
C	 0.6471028188	-2.1509521247	 0.8823535386	 0.033097
O	-0.3458719133	-2.5344886282	-0.0828169776	-0.242465
C	 0.9559197966	-2.1406566977	-0.5463847662	 0.033097
H	 0.9055835127	 1.9525311244	 0.2199599227	 0.134592
H	-0.4130889995	 1.9242713993	-0.9683519024	 0.115931
H	-0.7859796804	 1.9118348344	 0.757291734	 0.115931
H	-1.0339076456	-0.4080682658	-0.2162136511	 0.099922
H	 1.5623226992	-0.244107269	-1.6814444087	 0.079408
H	 0.7249795934	-0.2720185259	 2.1925209087	 0.079409
H	 0.9550474004	-2.9058837268	 1.5965355307	 0.111943
H	 1.5335597274	-2.886600667	-1.079963878	 0.111943
232.3622	250.4438	274.5806	391.2285	405.5835	597.6773	606.3722	704.9382	779.3142	796.2374	847.4379	861.896	879.4199	893.0786	924.112	924.9181	982.9818	1042.616	1062.9705	1078.0934	1089.7544	1119.2613	1174.9318	1225.6522	1228.4382	1255.4091	1261.5644	1286.2619	1299.2174	1369.775	1405.8625	1411.0742	1495.3872	1507.846	3035.574	3093.8566	3114.9973	3125.7781	3128.2123	3134.4042	3180.5948	3192.8845
CC1C2OC1C1OC21	C[C@H]1[C@H]2O[C@@H]1[C@H]1O[C@@H]21	
InChI=1S/C6H8O2/c1-2-3-5-6(8-5)4(2)7-3/h2-6H,1H3	InChI=1S/C6H8O2/c1-2-3-5-6(8-5)4(2)7-3/h2-6H,1H3/t2-,3+,4-,5-,6+
