16
gdb 42860	2.48494	1.83031	1.59014	2.9449	75.21	-0.2193	-0.0631	0.1562	914.9825	0.127007	-400.741027	-400.734183	-400.733239	-400.772114	27.37	
O	 0.000880565	 0.0136772844	-0.0233665427	-0.300093
C	-0.0148264199	 1.2048381829	 0.0051543473	 0.438089
C	-1.1069502768	 2.2881170763	 0.0836158156	-0.156818
N	-0.0334225807	 3.1779643068	 0.6348287695	-0.321079
C	 1.0493203677	 2.3172122898	 0.0561346708	-0.156818
C	 1.496316243	 2.7191941931	-1.3366436438	-0.091736
C	 0.6647586356	 3.036670872	-2.3421300271	-0.07753
C	-0.8031922743	 3.0168842396	-2.3234131041	-0.077531
C	-1.5999868248	 2.6774412337	-1.2971681998	-0.091736
H	-1.9351434097	 2.1091242113	 0.7738458751	 0.097801
H	-0.0511807813	 4.1095130604	 0.2278243944	 0.227227
H	 1.8993668489	 2.16087231	 0.7249680825	 0.0978
H	 2.5677098986	 2.7776329236	-1.5033923794	 0.105448
H	 1.1104710842	 3.3418534055	-3.2848679653	 0.100764
H	-1.2808551595	 3.3096374353	-3.2543719956	 0.100765
H	-2.676469536	 2.7069397653	-1.4365214973	 0.105448
134.8428	167.352	288.1225	383.9686	416.0421	432.4299	514.1392	607.2847	655.0936	675.0117	777.9529	785.2191	814.9802	860.4198	889.398	907.1342	964.2872	977.9581	987.7274	996.304	1045.0085	1060.2445	1104.5203	1165.3189	1237.2142	1244.4301	1259.5044	1280.874	1328.7117	1345.7565	1395.653	1435.9049	1651.5174	1690.0527	1923.1812	3078.732	3081.2654	3153.4616	3163.2274	3177.9945	3185.4205	3505.9861
O=C1C2NC1C=CC=C2	O=C1[C@H]2N[C@@H]1C=CC=C2	
InChI=1S/C7H7NO/c9-7-5-3-1-2-4-6(7)8-5/h1-6,8H	InChI=1S/C7H7NO/c9-7-5-3-1-2-4-6(7)8-5/h1-6,8H/t5-,6+
