16
gdb 47355	2.62727	1.41346	1.14991	4.0264	70.9	-0.2418	0.0092	0.251	1084.1521	0.126933	-434.094799	-434.086888	-434.085944	-434.127783	29.415	
N	-0.0203669049	 1.273763727	-0.4239909693	-0.56117
C	 0.0412931483	 0.0675591735	-0.0401109561	 0.448665
N	-1.1293831139	-0.6615512609	 0.1356641172	-0.311454
C	-1.2136503584	-1.8742062278	 0.9235921798	-0.139447
C	 0.0782721999	-2.6773086535	 0.710905704	-0.227359
C	 1.2621467167	-1.7573834033	 0.9593056034	-0.08861
O	 1.2155436131	-0.6050003055	 0.1091883408	-0.25041
C	-1.4402509077	-1.6090085092	 2.3662500717	 0.275015
N	-1.6270690145	-1.3886909289	 3.4854227647	-0.315797
H	 0.9169228473	 1.6438903602	-0.5634700614	 0.225925
H	-1.9415791554	-0.0619967162	 0.1258374019	 0.267948
H	-2.0713563211	-2.4574926045	 0.5706725236	 0.14018
H	 0.1105861979	-3.5363456578	 1.3852870815	 0.134896
H	 0.0918647663	-3.0377014801	-0.3215317064	 0.134202
H	 1.2862438105	-1.434498081	 2.0087080305	 0.136658
H	 2.2091739561	-2.2495597419	 0.730079124	 0.130759
65.8045	104.7743	174.1771	230.3028	329.2466	402.4695	445.1314	477.5801	560.8327	600.3696	606.2645	714.8675	732.3026	802.2208	812.4898	865.7009	913.7282	954.8749	1009.6667	1071.052	1100.894	1132.1691	1174.1614	1236.8794	1254.2266	1314.9404	1335.0005	1371.361	1389.6335	1447.334	1462.795	1472.4258	1514.1803	1757.6152	2348.797	3025.4316	3047.9709	3069.2479	3114.2322	3124.2748	3530.8743	3619.0249
N=C1NC(CCO1)C#N	[NH][C]1N[C@@H](CCO1)C#N	
InChI=1S/C5H7N3O/c6-3-4-1-2-9-5(7)8-4/h4H,1-2H2,(H2,7,8)	InChI=1S/C5H7N3O/c6-3-4-1-2-9-5(7)8-4/h4H,1-2H2,(H2,7,8)/t4-/m0/s1
