20
gdb 40645	3.28215	1.23345	1.20397	0.8503	79.65	-0.2242	0.0957	0.3199	1147.3495	0.172545	-403.101175	-403.093377	-403.092433	-403.13378	30.497	
C	 0.8345372747	 1.6858002107	 0.3004440982	-0.274991
C	 1.3827595736	 0.4015535078	-0.2719983035	-0.27499
C	-0.0886235306	 0.5274992927	 0.0256265126	 0.061439
N	-0.5632697362	-0.1898316963	 1.1803322277	-0.109335
C	-1.9415174069	-0.1060025324	 1.6435771998	-0.052651
C	-3.01404637	 0.3553835689	 0.6750931829	-0.108621
O	-2.8273969394	-0.3987231878	-0.5208131291	-0.252499
C	-2.1685994048	-1.6239879492	-0.2070780541	-0.108616
C	-1.3978440877	-1.3788881517	 1.0762808945	-0.052648
H	 1.0524609419	 1.8971353195	 1.3407661183	 0.11744
H	 0.7668967199	 2.5572793951	-0.3410741935	 0.109102
H	 1.6949683864	 0.3831814099	-1.3101626019	 0.109104
H	 1.9605381817	-0.23006058	 0.3925762831	 0.117439
H	-0.7590145478	 0.6205045876	-0.8250830742	 0.10781
H	-2.0912997804	 0.0649462575	 2.7061907786	 0.093695
H	-4.0073164036	 0.1728677419	 1.1163222223	 0.097201
H	-2.9490802574	 1.4152643634	 0.4050950757	 0.115113
H	-2.8907116395	-2.4413520922	-0.0488087845	 0.0972
H	-1.5396331701	-1.8845146227	-1.0655614717	 0.115115
H	-1.1093889935	-2.2339726927	 1.6816150187	 0.093694
68.8677	161.5907	166.9849	231.1365	311.5724	322.953	482.0706	511.7214	687.593	729.9434	770.7883	792.3053	815.4521	849.3358	885.9217	907.226	921.8071	959.8045	996.4241	1003.8221	1032.2844	1036.7112	1057.8056	1075.8432	1101.5969	1112.7357	1136.019	1155.2647	1168.3619	1200.8903	1225.2665	1229.3469	1245.1276	1307.4661	1310.335	1351.0936	1362.3338	1401.4177	1432.2526	1456.4738	1496.2929	1507.5306	1519.1581	2973.1339	2979.5546	3061.4751	3064.4726	3131.7408	3137.2609	3140.8909	3142.5719	3150.9036	3221.9353	3235.7197
C1CC1N1C2COCC12	C1CC1N1[C@H]2COC[C@@H]12	
InChI=1S/C7H11NO/c1-2-5(1)8-6-3-9-4-7(6)8/h5-7H,1-4H2	InChI=1S/C7H11NO/c1-2-5(1)8-6-3-9-4-7(6)8/h5-7H,1-4H2/t6-,7+,8?
