17
gdb 110952	2.84236	1.22018	1.02306	1.6621	69.59	-0.256	-0.0122	0.2438	1190.064	0.133265	-458.90167	-458.892687	-458.891742	-458.935547	32.651	
C	 0.0454693798	 1.4569168731	-0.0954443091	-0.524371
C	-0.0188986839	-0.0246907699	 0.0708746967	 0.240784
O	 0.5272843279	-0.9058057362	-1.0185042962	-0.335012
C	 0.0761771408	-1.8907401786	-0.0031678935	-0.102598
C	 0.6605174029	-0.9757821483	 1.1104256199	-0.049027
C	 2.1760642405	-0.9072188356	 1.2413557678	-0.114251
O	 2.6966343343	-2.0346022945	 1.9307818134	-0.416345
C	-1.2087470434	-1.0272685879	 0.0401198044	 0.453713
O	-2.3906136689	-1.0795349381	-0.0451691506	-0.312542
H	 1.0802192897	 1.8085021458	-0.1443353451	 0.141261
H	-0.4706147658	 1.7576300821	-1.0114142633	 0.151455
H	-0.4463955509	 1.9444105063	 0.7518821912	 0.14376
H	 0.2417213733	-2.9450285637	-0.2155718417	 0.110181
H	 0.175864776	-1.0478858992	 2.0898332645	 0.096648
H	 2.6327388693	-0.7826004295	 0.2528240963	 0.114748
H	 2.4465580836	-0.037997545	 1.8503357328	 0.115797
H	 2.6425859747	-2.7926676808	 1.3406618925	 0.2858
88.5565	120.38	146.6076	165.9771	207.2447	270.3858	293.1446	318.5372	403.4428	526.6652	578.7102	652.6602	699.8427	746.0125	806.0547	819.7565	830.4884	908.4774	982.5202	1026.5174	1071.0358	1084.4097	1093.8454	1105.8839	1161.1769	1170.2877	1215.5264	1227.0738	1336.8401	1363.5827	1404.3304	1410.9058	1424.2684	1474.495	1485.8309	1503.7834	1933.1701	3035.4701	3044.0217	3062.0534	3085.0296	3116.6946	3123.1805	3148.9473	3822.5642
CC12OC(C1CO)C2=O	C[C@@]12O[C@@H]([C@H]1CO)C2=O	
InChI=1S/C6H8O3/c1-6-3(2-7)4(9-6)5(6)8/h3-4,7H,2H2,1H3	InChI=1S/C6H8O3/c1-6-3(2-7)4(9-6)5(6)8/h3-4,7H,2H2,1H3/t3-,4+,6-/m1/s1
