21
gdb 76661	2.97582	0.99732	0.88691	2.857	79.31	-0.2267	0.034	0.2607	1394.2346	0.180984	-420.410491	-420.399994	-420.39905	-420.446576	37.86	
C	-0.1918045614	 1.287845277	 0.7642213657	-0.416727
C	 0.3858190623	-0.0534105574	 0.3637145155	-0.012507
C	 0.5476420867	-0.4915289743	-1.0564918324	-0.041302
C	 0.1739889524	 0.3445519402	-2.2599130236	-0.330799
C	 0.9445679533	 0.0351429027	-3.551815115	 0.402271
N	 2.0330985654	-0.7769555	-3.4190048409	-0.521062
O	 0.5991583875	 0.4987132867	-4.6203240909	-0.367903
N	 1.7271813767	-0.2215119653	-0.2095400315	-0.116913
C	 2.560175117	 0.9533258284	-0.4428236295	-0.320196
H	-0.073292708	 2.0622228743	 0.0047640693	 0.123645
H	-1.2639909527	 1.1794622626	 0.9582819299	 0.127874
H	 0.274035245	 1.6489193186	 1.6877000602	 0.126436
H	 0.1471118289	-0.8383370879	 1.0818975562	 0.090457
H	 0.4182494402	-1.5591023906	-1.2409260557	 0.095055
H	-0.8847928525	 0.1996995857	-2.5002026064	 0.13747
H	 0.2925413155	 1.4161365235	-2.0813953303	 0.131295
H	 2.3327026094	-1.1444016081	-2.5325458155	 0.278488
H	 2.5682694876	-0.9855704122	-4.2456885682	 0.259343
H	 2.0327077335	 1.870116337	-0.7381115743	 0.106431
H	 3.1133614437	 1.1692402579	 0.4766914462	 0.127251
H	 3.2895559196	 0.7252938812	-1.2260507689	 0.12139
40.4787	86.7797	102.0425	142.6601	164.7221	227.0308	244.5417	286.3484	295.5908	410.0792	448.5843	484.961	510.209	565.4993	570.8371	687.1685	730.093	766.077	851.0716	859.5944	967.996	998.5994	1047.0637	1077.1766	1106.1245	1139.6737	1144.1106	1172.4701	1175.8164	1200.4358	1233.4549	1297.0104	1344.5987	1347.1005	1394.9786	1415.7004	1434.4098	1453.1181	1464.3715	1484.5597	1496.6255	1507.5512	1510.7661	1616.2768	1799.5286	3007.2474	3040.54	3061.3729	3073.8166	3080.7168	3094.548	3096.4181	3103.4176	3108.5276	3136.4872	3599.7474	3735.936
CC1C(CC(N)=O)N1C	C[C@H]1[C@@H](CC(=O)N)N1C	
InChI=1S/C6H12N2O/c1-4-5(8(4)2)3-6(7)9/h4-5H,3H2,1-2H3,(H2,7,9)	InChI=1S/C6H12N2O/c1-4-5(8(4)2)3-6(7)9/h4-5H,3H2,1-2H3,(H2,7,9)/t4-,5+,8?/m0/s1
