15
gdb 23735	3.26333	2.18145	1.31805	1.0278	70.63	-0.2363	-0.0028	0.2335	881.8796	0.119688	-370.706479	-370.699627	-370.698682	-370.737528	26.108	
C	-0.0277334135	 1.528356965	 0.0287504022	-0.498234
C	-0.0060028322	 0.0234235163	-0.0143068698	 0.170942
C	-0.0354655196	-0.7022717428	-1.2063422497	-0.178637
C	-0.0141823063	-2.0958718698	-1.2118605825	-0.108102
C	 0.0375984543	-2.7946272113	-0.0093370696	-0.110813
C	 0.0679972299	-2.0979756117	 1.1969983313	-0.230954
C	 0.0456931142	-0.7132103308	 1.1689911055	 0.235737
F	 0.0749717471	-0.0407059236	 2.3308569299	-0.082438
H	 0.861884307	 1.9261345238	 0.5287114079	 0.138568
H	-0.0683086567	 1.945995629	-0.9799619816	 0.12254
H	-0.8933517497	 1.8990935746	 0.5881018872	 0.138568
H	-0.0758648781	-0.1588547999	-2.1456180833	 0.096282
H	-0.0380300828	-2.6325245706	-2.1538589106	 0.096019
H	 0.0545159064	-3.8789832989	-0.0034037392	 0.10246
H	 0.10844913	-2.6062836691	 2.1533247623	 0.108062
106.302	182.251	273.5374	277.3802	433.1501	454.7733	533.7789	554.5551	582.5272	727.0346	761.8799	776.3072	847.0639	875.411	931.3557	965.7563	1003.0211	1059.6264	1063.224	1132.6536	1176.8827	1209.1409	1280.7084	1298.029	1342.3854	1415.8305	1471.6628	1481.8421	1501.1794	1530.1784	1628.1985	1652.9331	3036.8637	3090.0236	3122.363	3169.7044	3183.105	3196.9195	3207.4031
CC1=CC=CC=C1F	Cc1ccccc1F	
InChI=1S/C7H7F/c1-6-4-2-3-5-7(6)8/h2-5H,1H3	InChI=1S/C7H7F/c1-6-4-2-3-5-7(6)8/h2-5H,1H3
