21
gdb 60234	3.03138	1.03347	0.81144	2.9223	80.96	-0.2316	0.0235	0.2551	1447.7408	0.182059	-420.395199	-420.385538	-420.384594	-420.430339	35.617	
C	-0.03764241	 1.5470404793	 0.0022161183	-0.377166
C	-0.0186986261	 0.0171605582	-0.0569641926	 0.073455
C	 0.7150035815	-0.4794036067	-1.3042079704	-0.405391
N	 0.643985177	-0.5503033634	 1.130710647	-0.30788
C	-0.1538041022	-0.5969954869	 2.3400763986	-0.096599
C	 0.4465609834	-1.4482837612	 3.4794575338	-0.112895
O	 0.4849524329	-0.2822242571	 4.354009655	-0.249873
C	-0.002976771	 0.5368158231	 3.3576489414	 0.463986
N	-0.2448020124	 1.7657271111	 3.3679070351	-0.542232
H	 0.9861698442	 1.9353399905	-0.0063573805	 0.113973
H	-0.5704162626	 1.9496200499	-0.8658170142	 0.099242
H	-0.5210980058	 1.9130649494	 0.9104724278	 0.159076
H	-1.0663168735	-0.3372865656	-0.1096757789	 0.055492
H	 1.7651194829	-0.1699499787	-1.277137596	 0.126576
H	 0.6816444563	-1.5726160272	-1.3832057066	 0.102871
H	 0.2596777345	-0.0664925824	-2.2084583449	 0.120036
H	 0.9313752168	-1.4995248509	 0.9146087508	 0.215707
H	-1.2189945922	-0.8161751456	 2.1535348716	 0.089271
H	-0.1857640483	-2.2347110117	 3.8973625894	 0.121485
H	 1.455147652	-1.8213792445	 3.2818370884	 0.122051
H	-0.0089837175	 2.1878852803	 4.2676919868	 0.228814
41.3445	89.1997	126.9838	203.8992	217.7661	231.2937	270.7571	314.3288	390.7124	443.2645	453.5667	487.5489	657.4059	719.7446	780.9179	820.2687	859.286	868.3107	933.9281	949.1721	961.8311	978.8896	995.2642	1016.2379	1079.4906	1128.0814	1163.8346	1177.8406	1202.1392	1210.4618	1236.0677	1253.0908	1331.1844	1359.2618	1366.9223	1401.0446	1407.5178	1424.342	1477.5216	1488.6068	1500.6533	1504.8408	1508.1141	1515.7342	1825.8075	2907.4476	2954.5595	3026.6602	3036.1625	3060.0025	3092.67	3103.6238	3117.4203	3122.6624	3133.6333	3473.7385	3511.5063
CC(C)NC1COC1=N	CC(C)N[C@H]1CO[C]1[NH]	
InChI=1S/C6H12N2O/c1-4(2)8-5-3-9-6(5)7/h4-5,7-8H,3H2,1-2H3	InChI=1S/C6H12N2O/c1-4(2)8-5-3-9-6(5)7/h4-5,7-8H,3H2,1-2H3/t5-/m0/s1
