20
gdb 68375	2.81318	1.53839	1.18932	2.6762	78.17	-0.2082	-0.02	0.1882	1090.4244	0.171598	-403.148909	-403.140919	-403.139975	-403.181256	31.949	
C	-0.0582914717	 1.569978157	 0.0588628133	-0.478697
C	 0.0517006791	 0.0581366087	-0.0333812853	 0.294297
C	 1.2310422916	-0.5913838461	-0.8051349126	-0.212891
N	 1.2586078236	-1.7110152483	 0.2015185609	-0.11273
C	 0.6043092429	-0.7572447002	 1.1658257828	-0.212877
C	 0.2716736824	-2.7187428287	-0.1971124863	-0.282803
C	-1.1061619238	-2.1479002177	-0.5873984307	 0.377006
O	-2.0161378942	-2.8595254863	-0.9367419021	-0.313571
C	-1.2445212164	-0.621334824	-0.5027275215	-0.348835
H	 0.884347825	 2.0140438973	 0.3960550189	 0.115696
H	-0.3081496706	 2.0090306291	-0.9139167723	 0.119114
H	-0.8421187457	 1.8677607151	 0.7648633701	 0.119113
H	 1.0709308541	-0.8993971639	-1.8443827071	 0.101535
H	 2.1578390355	-0.0121784673	-0.7414889779	 0.106441
H	 1.3705327494	-0.2205323852	 1.7344413784	 0.106438
H	-0.1081110074	-1.2114239669	 1.8634810763	 0.101529
H	 0.6538129023	-3.2945135428	-1.0485203742	 0.134045
H	 0.1231033538	-3.4347586874	 0.6200113347	 0.134051
H	-2.0791392999	-0.3999133861	 0.1751739537	 0.126572
H	-1.5486941298	-0.2592991664	-1.493468229	 0.126566
67.9936	209.51	235.5225	258.8648	367.168	390.0685	418.6198	429.22	464.3486	490.8392	584.2926	638.2408	772.2199	792.	819.4656	869.791	916.0984	927.6222	937.4301	955.369	1011.4677	1046.621	1055.7875	1100.4725	1149.9817	1150.7641	1201.1548	1245.2484	1254.6333	1261.7433	1268.2719	1280.4607	1301.3926	1327.0391	1358.4638	1411.4468	1445.5375	1446.5602	1490.8101	1493.1046	1494.3364	1520.2809	1821.7269	3020.9577	3023.5274	3029.0408	3032.1414	3040.4655	3061.4934	3075.9668	3086.5473	3086.8831	3088.1139	3095.7835
CC12CN(C1)CC(=O)C2	C[C@@]12CN(C1)CC(=O)C2	
InChI=1S/C7H11NO/c1-7-2-6(9)3-8(4-7)5-7/h2-5H2,1H3	InChI=1S/C7H11NO/c1-7-2-6(9)3-8(4-7)5-7/h2-5H2,1H3
