17
gdb 66743	2.52476	2.3091	1.81872	1.1274	77.79	-0.2004	-0.0419	0.1585	834.0479	0.136089	-384.562515	-384.55584	-384.554896	-384.592918	28.426	
O	-0.0095270254	 1.4714019365	 0.4066134991	-0.491353
C	-0.0089782006	 0.1118334382	 0.17223717	 0.412152
C	-1.2097541584	-0.9025934278	 0.2619557225	-0.196872
C	-0.1158577322	-1.9149455688	 0.526479865	-0.078225
C	-0.6271647458	-1.5780876065	-0.9414090045	-0.110618
C	 0.3983948426	-0.4938978738	-1.207822972	-0.040902
C	 1.7309147825	-0.6819569916	-1.2984193904	-0.111404
C	 2.284876494	-0.6390969944	 0.1309721369	-0.273674
C	 0.9448384362	-0.8168465928	 0.9273923655	-0.064223
H	-0.2766031607	 1.9174463526	-0.4052650909	 0.282916
H	-2.2204979047	-0.8269510525	 0.6362741009	 0.092839
H	-0.2134411178	-2.9161463471	 0.927181772	 0.089712
H	-1.041424833	-2.36247359	-1.5629010195	 0.093721
H	 2.2052188625	-1.2980294913	-2.0569901334	 0.097325
H	 3.0095730948	-1.454184581	 0.2434091328	 0.107018
H	 2.7856333387	 0.2794433155	 0.462984598	 0.121839
H	 1.0099090173	-0.7036080755	 2.0139298679	 0.069749
217.9342	231.139	303.0169	351.2788	405.8202	527.8702	567.0605	615.3689	666.476	731.4625	743.5747	772.4486	787.1408	815.9305	859.1344	885.4648	894.0131	937.1475	963.8977	981.9406	1018.7241	1026.2436	1031.6682	1048.23	1059.5214	1125.5982	1171.4172	1190.1398	1213.7856	1234.8874	1269.9949	1298.6373	1314.332	1328.6059	1392.7138	1457.3373	1583.9977	3020.9488	3063.3775	3072.5155	3162.0173	3186.2241	3193.9328	3222.5181	3790.6404
OC12C3C4C3C1=CCC24	O[C@@]12[C@@H]3[C@H]4[C@@H]3[C]1[CH]C[C@@H]24	
InChI=1S/C8H8O/c9-8-3-1-2-4(8)6-5(3)7(6)8/h1,4-7,9H,2H2	InChI=1S/C8H8O/c9-8-3-1-2-4(8)6-5(3)7(6)8/h1,4-7,9H,2H2/t4-,5+,6-,7+,8+/m1/s1
