19
gdb 75040	2.5152	1.66962	1.18622	1.7546	84.98	-0.2111	-0.0257	0.1853	1097.1208	0.160207	-385.886306	-385.878274	-385.87733	-385.918767	31.267	
C	-0.1678910724	 1.5196552459	 0.101361433	-0.487773
C	 0.0082294452	 0.0259763389	-0.0096689415	 0.297541
C	-0.0428573396	-0.5895710968	-1.2057705816	-0.18739
C	 0.0731045845	-2.0115135377	-1.5055153606	-0.047013
C	-0.2663417086	-3.0349895498	-0.7135829017	-0.078951
C	-0.8772023943	-2.9157718869	 0.6581575641	-0.319457
C	-0.1091365416	-2.0291923241	 1.6334130745	 0.051844
O	 1.247638239	-1.7183180668	 1.3557136672	-0.244443
C	 0.2854783927	-0.6475402904	 1.291516252	-0.028848
H	 0.7303201355	 1.9973856626	 0.5135748183	 0.131528
H	-0.3814750254	 1.9722940189	-0.8695401145	 0.12395
H	-0.9925508314	 1.7725652051	 0.7808823097	 0.126587
H	-0.1621832276	 0.0521361953	-2.077593849	 0.083925
H	 0.4447440132	-2.2433985654	-2.501787563	 0.085769
H	-0.1113407177	-4.0445783899	-1.0828971894	 0.092825
H	-1.8987395885	-2.5116422643	 0.586457999	 0.120207
H	-0.9762173888	-3.9133307127	 1.0985173893	 0.109349
H	-0.3074901156	-2.2413765302	 2.6873984767	 0.087256
H	 0.3814644512	 0.0478054484	 2.1268609574	 0.083094
77.997	174.522	219.8889	245.2599	280.0892	333.2551	390.3222	468.8774	493.6694	567.4327	670.2441	711.6985	750.9547	791.0663	854.512	897.2233	910.8212	927.4724	960.4215	993.9775	999.6837	1028.3188	1066.2332	1103.9513	1121.6751	1137.832	1169.2051	1242.407	1262.909	1305.7847	1354.6559	1372.3672	1411.1055	1412.3675	1432.3726	1472.2133	1478.1077	1481.8953	1494.7493	1686.7673	1713.6644	2992.9856	3013.0864	3057.6759	3060.1868	3074.3614	3095.4364	3118.6096	3127.7962	3143.0638	3171.7485
CC1=CC=CCC2OC12	CC1=CC=CC[C@H]2O[C@@H]12	
InChI=1S/C8H10O/c1-6-4-2-3-5-7-8(6)9-7/h2-4,7-8H,5H2,1H3	InChI=1S/C8H10O/c1-6-4-2-3-5-7-8(6)9-7/h2-4,7-8H,5H2,1H3/t7-,8+/m1/s1
