20
gdb 58913	3.24657	1.32808	1.2054	2.0458	77.18	-0.2339	0.0612	0.2952	1110.5626	0.170869	-403.078084	-403.069731	-403.068787	-403.110915	32.729	
C	 0.0439771703	 1.5359873682	 0.0139182175	-0.415278
C	 0.0241617172	 0.0063156212	 0.0663158696	-0.016337
O	 0.7565082284	-0.491744358	 1.1850864226	-0.427969
C	-1.3787272388	-0.5546498503	 0.033643254	 0.326297
C	-2.3790006629	-0.3716819292	 1.2179872564	-0.302039
C	-3.0295003908	-1.6579930537	 0.7161898379	-0.03227
C	-1.803834391	-2.0788191149	 0.0027318327	-0.108545
N	-3.004670462	-1.6915342108	-0.7912528392	-0.151356
C	-2.3197260656	-0.4163671192	-1.1795175171	-0.198667
H	 1.0749935849	 1.8981617891	 0.0406404918	 0.127407
H	-0.4321799122	 1.9096691081	-0.8982669086	 0.124622
H	-0.4924079666	 1.9636856533	 0.8698407885	 0.113099
H	 0.5676451	-0.3845070144	-0.8037166174	 0.089903
H	 0.3980950241	-0.0766570308	 1.9770509736	 0.278007
H	-1.902407426	-0.5468386157	 2.1869475981	 0.098099
H	-2.9697003667	 0.5506506657	 1.2524783203	 0.095027
H	-3.7896955331	-2.2638342926	 1.1909465895	 0.099711
H	-1.2750423812	-3.0176929522	-0.0911558179	 0.099521
H	-2.9663947213	 0.4675488238	-1.2413744949	 0.094114
H	-1.8167385368	-0.5757117978	-2.1379372276	 0.106654
69.843	151.8866	194.8255	245.501	270.7995	312.7134	384.2734	438.2601	482.7841	496.2987	645.2535	731.5559	750.0111	799.0832	845.7846	890.5089	901.2254	931.9242	958.2996	979.2045	992.9858	1013.3655	1027.6999	1056.6552	1093.7197	1106.4294	1120.9534	1155.072	1167.057	1176.1166	1206.583	1251.9583	1278.8843	1292.6103	1309.9289	1353.6688	1374.7819	1400.7772	1419.2076	1486.9875	1491.5125	1494.8653	1512.9657	3023.5057	3024.8474	3030.5557	3036.1039	3090.3365	3095.1938	3096.5955	3120.4795	3200.765	3214.8603	3804.7277
CC(O)C12CC3C1N3C2	C[C@@H](O)[C@]12C[C@@H]3[C@H]1N3C2	
InChI=1S/C7H11NO/c1-4(9)7-2-5-6(7)8(5)3-7/h4-6,9H,2-3H2,1H3	InChI=1S/C7H11NO/c1-4(9)7-2-5-6(7)8(5)3-7/h4-6,9H,2-3H2,1H3/t4-,5-,6-,7-,8?/m1/s1
