23
gdb 58778	2.45805	1.4281	1.06501	1.7162	86.05	-0.2363	0.0849	0.3211	1254.0125	0.203656	-388.276394	-388.266482	-388.265538	-388.310696	37.948	
C	 0.4157508192	 1.5543735897	-0.0551124467	-0.388325
C	-0.0348537573	 0.0822782091	-0.010581889	-0.089674
C	 0.3955094317	-0.6647776005	-1.2793200244	-0.399042
C	 0.4688653752	-0.5577831799	 1.2566513174	 0.378575
C	 0.0205177841	-0.2197040612	 2.6926778842	-0.290944
C	 0.4832539671	-1.6492880958	 3.1295080616	-0.277548
C	 0.9108030937	-1.9124143585	 1.6746856947	 0.326522
C	 1.0493641739	-3.243306507	 1.0073174535	-0.501587
O	 1.8705451622	-0.8846872327	 1.3573567569	-0.332729
H	 1.5077593995	 1.618793968	-0.1010011317	 0.131324
H	 0.0065787032	 2.0579848506	-0.9364466487	 0.109134
H	 0.0832003514	 2.1034942855	 0.831398254	 0.115378
H	-1.1325729865	 0.0676071585	 0.0467722126	 0.074857
H	 1.4849366785	-0.7515559736	-1.3223236435	 0.133216
H	-0.0298929888	-1.6716422824	-1.3183634628	 0.112958
H	 0.0588684633	-0.1259478899	-2.1705195792	 0.107311
H	 0.5411994932	 0.6243729348	 3.1511981392	 0.105676
H	-1.0594248296	-0.0772218467	 2.787128564	 0.098856
H	 1.2936668718	-1.70277225	 3.8609576992	 0.104419
H	-0.3464756608	-2.2806755328	 3.4582811562	 0.099193
H	 0.1217281322	-3.8191723407	 1.0915468418	 0.12041
H	 1.3021173845	-3.1342069021	-0.0486541094	 0.134576
H	 1.8456496781	-3.8239725523	 1.48836291	 0.127443
58.7064	149.5325	185.1763	201.7546	225.7055	251.7823	261.7864	284.3307	319.6114	346.9201	437.9571	512.5242	523.7152	621.8147	682.3548	722.8656	779.5951	878.2505	880.2188	910.3527	931.9199	941.9736	967.2978	998.8222	1025.5088	1074.4419	1101.2907	1141.1279	1152.1788	1179.5297	1204.7871	1212.2742	1220.6396	1225.4772	1298.1788	1338.5779	1373.2868	1395.0737	1407.5518	1415.1763	1461.9213	1464.8281	1482.3766	1486.7997	1492.533	1495.3491	1502.5	1510.0505	1526.2846	3005.1237	3032.6639	3033.8655	3040.6124	3055.9752	3064.0975	3089.8365	3103.7935	3106.4239	3107.4179	3108.7446	3120.4287	3123.658	3139.1667
CC(C)C12CCC1(C)O2	CC(C)[C@@]12CC[C@]1(C)O2	
InChI=1S/C8H14O/c1-6(2)8-5-4-7(8,3)9-8/h6H,4-5H2,1-3H3	InChI=1S/C8H14O/c1-6(2)8-5-4-7(8,3)9-8/h6H,4-5H2,1-3H3/t7-,8-/m0/s1
