21
gdb 68223	3.02783	1.67249	1.40674	1.2259	81.29	-0.2282	0.0823	0.3105	1015.2619	0.184065	-387.067758	-387.060285	-387.059341	-387.098951	31.767	
C	-0.1318894656	 1.5280619021	-0.0337157649	-0.463517
C	 0.0692281828	 0.0324637358	 0.0325677114	 0.43167
C	 1.1327580362	-0.6699069152	-0.868808969	-0.262138
C	 1.196686648	-1.7536589405	 0.2536166315	-0.052671
C	 0.7988219011	-0.6218580051	 1.2416208058	-0.275789
C	 0.0335122833	-2.6974958207	-0.0253326965	-0.049343
C	-1.1283498496	-2.8699940036	 0.9316513125	-0.334889
C	-1.2507205186	-1.9578411386	-0.269214945	 0.108495
O	-1.2285285399	-0.5586063461	-0.1337877674	-0.308138
H	 0.8156695527	 2.0508790243	 0.1241816447	 0.109085
H	-0.5339306578	 1.8180182817	-1.0095242866	 0.12264
H	-0.8421860457	 1.8512915192	 0.7337507358	 0.124177
H	 0.8257268048	-0.9837859916	-1.869704185	 0.094732
H	 2.0437594897	-0.0686322885	-0.9264090377	 0.094657
H	 2.1339929518	-2.2834462279	 0.4336970176	 0.062705
H	 1.6757124023	-0.0373440817	 1.5334520297	 0.096275
H	 0.2103424908	-0.8512988553	 2.1314127187	 0.097686
H	 0.2729772952	-3.5306417269	-0.680447215	 0.085922
H	-1.671055559	-3.8088346045	 0.8936250804	 0.107193
H	-1.0785002439	-2.4252750993	 1.917759315	 0.119081
H	-1.9174685088	-2.2614678675	-1.0705105761	 0.092168
194.4879	204.6757	252.3483	301.3254	364.4796	436.9139	454.5252	476.9175	513.0905	606.9874	663.7761	753.0541	810.318	818.6911	821.7003	874.0791	880.4434	914.0469	950.8042	960.1782	986.9526	998.8542	1017.727	1043.4911	1079.5627	1096.9636	1109.1776	1130.9894	1141.2982	1169.0022	1199.007	1212.7318	1235.1786	1241.7232	1257.423	1316.5854	1342.1318	1365.5526	1399.8312	1411.0195	1463.8755	1479.0362	1484.8526	1493.3894	1506.2402	3038.1232	3056.1868	3063.5161	3085.4669	3109.3748	3114.8837	3118.5253	3122.1126	3135.78	3138.6987	3151.6073	3225.5941
CC12CC(C1)C1CC1O2	C[C@@]12C[C@@H](C1)[C@H]1C[C@H]1O2	
InChI=1S/C8H12O/c1-8-3-5(4-8)6-2-7(6)9-8/h5-7H,2-4H2,1H3	InChI=1S/C8H12O/c1-8-3-5(4-8)6-2-7(6)9-8/h5-7H,2-4H2,1H3/t5-,6-,7-,8+/m1/s1
