22
gdb 88587	2.60881	1.14631	0.9861	3.2405	83.59	-0.2181	0.0775	0.2956	1327.6835	0.192558	-404.299445	-404.289631	-404.288687	-404.334295	37.085	
C	-0.0520983404	 1.2970598484	-1.6236187959	-0.410487
C	-0.0930365409	 0.07345311	-0.7368937349	-0.0016
C	 1.1293384017	-0.5930275444	-0.1834151745	-0.001249
C	 2.5410565915	-0.1300138094	-0.4674807583	-0.417405
N	 0.2084443615	 0.1360254988	 0.7003438169	-0.131336
C	 0.6019330301	 1.3649845183	 1.3348747435	-0.011725
C	-0.5150822446	 2.2150346232	 1.9156339645	-0.341687
C	 0.3413217691	 1.3676891784	 2.8252969954	 0.134461
O	-0.1821253842	 0.2133387055	 3.3945059289	-0.433219
H	 0.8038931705	 1.943703424	-1.4227055348	 0.120814
H	-0.0086836035	 0.9963914099	-2.6759824673	 0.12216
H	-0.957765453	 1.8970792366	-1.4874857954	 0.130784
H	-0.94165452	-0.576013197	-0.9523415764	 0.088878
H	 1.0676214359	-1.6711807177	-0.0359296338	 0.090475
H	 2.6073966319	 0.9207151975	-0.7552281266	 0.123415
H	 3.1803810366	-0.2792713787	 0.4095747606	 0.13156
H	 2.9611569877	-0.722954845	-1.2864982757	 0.124537
H	 1.4837655474	 1.88416342	 0.9678418518	 0.079619
H	-0.3889959392	 3.2925562702	 1.9122488969	 0.107782
H	-1.5295163113	 1.8677761869	 1.7516325147	 0.117881
H	 1.0539513566	 1.8627092684	 3.478162916	 0.095032
H	-0.3415406536	-0.3788563139	 2.6403108646	 0.28131
45.4331	124.8576	149.9273	169.326	197.6867	217.7556	280.2761	293.9105	410.8138	466.4789	510.3755	520.3193	541.0564	624.0169	734.102	771.5571	788.6034	804.4618	845.0283	940.85	965.629	1011.5742	1019.5083	1035.7886	1051.9388	1065.4842	1105.445	1109.9785	1132.411	1138.089	1169.8573	1197.5929	1202.9073	1225.2598	1332.1523	1353.8834	1381.2837	1384.1301	1416.7885	1421.118	1434.834	1444.119	1480.3342	1487.0949	1489.0736	1501.378	1512.4335	3039.1536	3042.1157	3091.1643	3097.0619	3098.2576	3101.6184	3118.5542	3128.2568	3129.9702	3140.1068	3154.1535	3223.1889	3652.8335
CC1C(C)N1C1CC1O	C[C@H]1[C@@H](C)N1[C@H]1C[C@H]1O	
InChI=1S/C7H13NO/c1-4-5(2)8(4)6-3-7(6)9/h4-7,9H,3H2,1-2H3	InChI=1S/C7H13NO/c1-4-5(2)8(4)6-3-7(6)9/h4-7,9H,3H2,1-2H3/t4-,5+,6-,7+,8?/m0/s1
