21
gdb 78253	2.57743	1.21001	0.99334	3.0681	83.53	-0.242	-0.0218	0.2203	1288.0521	0.181299	-387.072685	-387.063398	-387.062454	-387.106906	34.764	
C	-0.0369572053	 1.5576072284	-0.0295355027	-0.418178
C	 0.0585924735	 0.0474339307	-0.0848646972	-0.021916
C	 0.6839591904	-0.7602022027	-1.1891119465	-0.06987
C	 1.28662887	-0.7690695037	 0.2217724452	-0.084126
C	 2.5755297676	-0.0986275947	-0.2891469322	-0.108172
C	 3.7993695155	-0.9599649545	-0.1331101791	 0.15316
O	 4.8962114473	-0.5437255382	 0.1445067016	-0.262179
C	 1.9539239355	-0.1010757728	-1.750531876	-0.001225
C	 2.6807118919	-0.9203854766	-2.8135270027	-0.419251
H	 0.8610140247	 2.051517656	-0.4085212722	 0.123898
H	-0.8847604003	 1.9136479433	-0.6248922189	 0.118813
H	-0.1879882682	 1.8975693986	 1.0006425862	 0.120929
H	-0.8336776107	-0.4443302798	 0.3003167867	 0.08959
H	 0.1389707205	-1.5459470428	-1.7011080663	 0.083017
H	 1.2709907361	-1.5565597881	 0.9674356266	 0.087885
H	 2.8126583539	 0.8894442898	 0.1151262662	 0.08661
H	 3.6282048574	-2.0509779359	-0.2829113919	 0.073202
H	 1.8035920026	 0.9141718869	-2.1338364217	 0.079822
H	 2.7873562428	-1.9707628616	-2.5250798191	 0.11986
H	 2.1163220544	-0.8959165414	-3.7518201196	 0.118458
H	 3.6799314201	-0.5200613308	-3.0132310063	 0.129672
64.9954	95.9741	173.1782	186.4711	235.6544	245.9932	296.9137	327.8537	373.2855	442.8702	507.9114	573.8798	712.6523	742.2347	786.3528	850.8219	898.6299	923.0338	964.9266	995.958	1002.3236	1007.8144	1049.4581	1064.4157	1091.9729	1109.3689	1123.9819	1145.5393	1159.243	1207.8346	1223.3975	1245.4508	1295.2101	1303.7738	1341.1225	1370.5117	1413.1428	1417.6382	1436.5951	1442.7514	1494.1011	1495.9682	1504.2727	1504.8141	1823.3525	2861.999	3032.7841	3034.2154	3037.019	3072.5983	3092.8965	3098.8961	3107.2788	3110.5835	3127.0781	3160.1669	3171.755
CC1C2C1C(C=O)C2C	C[C@H]1[C@@H]2[C@H]1[C@@H](C=O)[C@H]2C	
InChI=1S/C8H12O/c1-4-6(3-9)8-5(2)7(4)8/h3-8H,1-2H3	InChI=1S/C8H12O/c1-4-6(3-9)8-5(2)7(4)8/h3-8H,1-2H3/t4-,5+,6+,7-,8-/m1/s1
