23
gdb 64275	2.77126	1.39108	1.25608	1.2515	83.95	-0.2236	0.0735	0.2971	1150.8342	0.206336	-388.286242	-388.277387	-388.276442	-388.319	35.679	
C	-0.0439319776	 1.5471236106	 0.0003795626	-0.424443
C	-0.0323944638	 0.0123072937	 0.006170047	 0.246864
C	-1.4750392753	-0.5210561679	 0.0313802489	-0.407004
C	 0.6849011653	-0.4832031382	-1.2611251195	-0.092254
O	 0.7012512754	-1.8976668707	-1.3792598881	-0.259292
C	 1.1545472142	-2.59875742	-0.2574377401	 0.134168
C	 2.47301447	-2.3183662459	 0.4078877797	-0.334858
C	 1.1672350802	-1.9690115858	 1.1118428607	-0.07071
C	 0.7562929262	-0.5020016498	 1.2369782883	-0.248181
H	 0.9700712802	 1.9557898203	-0.0756977464	 0.109562
H	-0.6283049626	 1.9374704776	-0.8403946454	 0.110599
H	-0.4895238075	 1.9351681679	 0.9229333972	 0.113068
H	-2.0263222063	-0.2000373319	-0.8593892671	 0.108119
H	-1.4984188147	-1.6129596861	 0.060004023	 0.128189
H	-2.0097999669	-0.1439922633	 0.9100850485	 0.104692
H	 0.1690304841	-0.1284444111	-2.1593393461	 0.103284
H	 1.7101647998	-0.0780201699	-1.2900852225	 0.084377
H	 0.8475567223	-3.6355448287	-0.3474765421	 0.096605
H	 3.0551885273	-3.1610774021	 0.7646900358	 0.108301
H	 3.0700018322	-1.4880669205	 0.0444558959	 0.11323
H	 0.8806207133	-2.6090436902	 1.9400663196	 0.085625
H	 1.6454498219	 0.124800468	 1.3796381726	 0.093647
H	 0.1428087822	-0.3670923061	 2.1345294173	 0.096412
102.1131	193.5189	207.7577	236.2098	277.4779	291.3743	349.1577	379.6336	403.5899	434.5736	495.0753	520.3297	662.6229	753.958	792.8366	806.5453	846.8051	880.5769	917.0291	930.1849	949.7911	981.4402	1000.8521	1008.2318	1043.1821	1051.443	1085.989	1112.6443	1128.1993	1186.114	1186.7831	1215.4891	1238.493	1246.8004	1298.9062	1328.4014	1339.2678	1368.7991	1388.6379	1399.4466	1415.6456	1431.2055	1476.0487	1484.0401	1485.3239	1492.3038	1501.6335	1508.844	1511.9305	2964.192	3019.0403	3022.9411	3032.2947	3061.8012	3070.0966	3089.1458	3091.1464	3094.9968	3122.6477	3128.5952	3148.9748	3163.5466	3214.1446
CC1(C)COC2CC2C1	CC1(C)CO[C@H]2C[C@H]2C1	
InChI=1S/C8H14O/c1-8(2)4-6-3-7(6)9-5-8/h6-7H,3-5H2,1-2H3	InChI=1S/C8H14O/c1-8(2)4-6-3-7(6)9-5-8/h6-7H,3-5H2,1-2H3/t6-,7-/m0/s1
