15
gdb 64073	2.58225	1.54878	1.22893	3.6628	61.57	-0.2615	-0.0949	0.1665	1021.0891	0.110817	-494.944523	-494.936026	-494.935082	-494.977723	30.963	
C	 0.1417735218	 1.5558778122	 0.0349320628	-0.434833
C	-0.094439141	 0.0368910051	-0.0341098322	 0.271929
O	-1.4636680736	-0.2758408706	-0.1042929159	-0.471465
C	 0.6872513036	-0.6123789932	-1.1923118303	-0.128443
O	 1.9924343001	-0.959171637	-0.6612189107	-0.223333
C	 1.9765419735	-1.073150794	 0.6884407067	 0.379727
O	 2.901204863	-1.4376564712	 1.3478889951	-0.308604
C	 0.5764599141	-0.6330895379	 1.1562747473	 0.21144
O	 0.0814088186	-0.8300359986	 2.2311591586	-0.292756
H	 1.2080963738	 1.8036408096	 0.0169478793	 0.137748
H	-0.3427266114	 2.0259545679	-0.8251249823	 0.142808
H	-0.2947896899	 1.9621381235	 0.9516343766	 0.138775
H	-1.7760897563	-0.3730987648	 0.8063052489	 0.297107
H	 0.1797169297	-1.5214376701	-1.5257585213	 0.144065
H	 0.8533353239	 0.0512885791	-2.0417955225	 0.135835
64.5281	155.3598	184.8549	243.1959	273.9298	312.0639	324.9489	352.9643	390.4979	476.7129	570.005	625.0426	633.5937	733.258	812.4357	890.3534	963.1269	989.6166	1001.6613	1028.4106	1128.65	1136.057	1175.7815	1236.8689	1278.2307	1381.5394	1386.75	1404.3069	1486.3726	1489.3863	1518.4779	1868.1905	1887.8494	3039.0252	3071.6344	3117.0005	3126.6077	3135.4671	3748.2785
CC1(O)COC(=O)C1=O	C[C@@]1(O)COC(=O)C1=O	
InChI=1S/C5H6O4/c1-5(8)2-9-4(7)3(5)6/h8H,2H2,1H3	InChI=1S/C5H6O4/c1-5(8)2-9-4(7)3(5)6/h8H,2H2,1H3/t5-/m1/s1
