18
gdb 98339	3.28586	0.88332	0.74552	2.1217	75.22	-0.2457	0.0036	0.2493	1518.9468	0.144832	-439.07449	-439.063864	-439.06292	-439.111182	36.585	
C	 0.1088577977	 1.2873029193	-0.1051049961	-0.242168
O	-0.0571934771	-0.1369801369	-0.0404861634	-0.227789
C	-1.3294176517	-0.5724290042	 0.0122139235	 0.420528
O	-2.2906544639	 0.1558215711	 0.0194991098	-0.362546
C	-1.3979930455	-2.104368868	 0.0349091847	-0.110072
N	-2.6898999033	-2.6068340388	 0.4698641849	-0.487223
C	-1.0571359982	-2.6312094662	-1.3871393911	-0.353422
C	-0.8710662129	-4.0740516677	-1.4282433076	 0.325977
C	-0.6885523962	-5.2610236632	-1.4599538229	-0.44593
H	 1.1844292556	 1.459705877	-0.1375971725	 0.137141
H	-0.3717684857	 1.6903094546	-0.9999991373	 0.142708
H	-0.3299178042	 1.7643289288	 0.7745958108	 0.14362
H	-0.6219330409	-2.4665024266	 0.7155640851	 0.116496
H	-2.790990746	-2.4676432747	 1.4706572497	 0.233664
H	-3.4164654801	-2.0350001355	 0.0441697532	 0.238349
H	-1.8680715514	-2.3381171715	-2.0667743708	 0.13516
H	-0.1497262371	-2.1299777265	-1.7422094017	 0.141586
H	-0.5419939692	-6.312016301	-1.4899303282	 0.19392
43.6755	64.8367	103.5377	118.936	159.4519	189.3	211.9954	271.0858	338.1778	340.2576	359.1104	433.9189	522.7677	611.6739	640.4903	704.8924	751.2701	866.6026	890.7495	941.3363	965.1536	996.0346	1029.7862	1155.3413	1168.6275	1178.2696	1200.2459	1217.3465	1291.723	1312.7877	1350.3421	1413.2145	1470.0571	1471.7668	1482.047	1496.7016	1675.0182	1815.9319	2243.5802	3024.5666	3053.7384	3067.3569	3081.208	3129.4591	3162.3011	3486.8078	3508.3573	3562.2401
COC(=O)C(N)CC#C	COC(=O)[C@@H](N)CC#C	
InChI=1S/C6H9NO2/c1-3-4-5(7)6(8)9-2/h1,5H,4,7H2,2H3	InChI=1S/C6H9NO2/c1-3-4-5(7)6(8)9-2/h1,5H,4,7H2,2H3/t5-/m0/s1
