21
gdb 109252	3.43332	1.10746	0.94103	1.8189	84.63	-0.2331	0.0284	0.2615	1325.6987	0.183371	-387.098527	-387.089921	-387.088977	-387.132115	32.982	
C	-0.3349436377	 1.3187407471	 0.3343385608	-0.374243
C	-0.0084099711	-0.1402214092	-0.0301198508	-0.272138
C	 0.8071057705	-0.2947880858	-1.2921101528	 0.335999
C	 2.0385094847	-0.808635479	-1.2698280011	-0.160329
C	 2.9258220312	-1.0092073155	-2.4676206424	-0.290273
C	 2.212028215	-0.8375686104	-3.7873407441	 0.052377
O	 1.0706245116	-1.6745423571	-4.0041135641	-0.260669
C	 0.8590266189	-0.2694101891	-3.8360767284	 0.057005
C	 0.1490384985	 0.1629861935	-2.5744459287	-0.337159
H	 0.5818553032	 1.9026400474	 0.4658529169	 0.117922
H	-0.9350003558	 1.8070153263	-0.4399034379	 0.117714
H	-0.9032752827	 1.3655891966	 1.2684249384	 0.113756
H	 0.5281168908	-0.6078679194	 0.802538013	 0.09947
H	-0.9523633461	-0.693098528	-0.1424154749	 0.101629
H	 2.4590806191	-1.118261243	-0.3151311352	 0.076573
H	 3.7702111906	-0.3038343752	-2.4355407278	 0.110049
H	 3.3818355684	-2.0087421916	-2.4332672335	 0.117042
H	 2.854940335	-0.7315140532	-4.6620331029	 0.084909
H	 0.54007015	 0.2403263699	-4.7464036024	 0.084219
H	-0.8896215605	-0.1981046748	-2.6064831245	 0.113003
H	 0.0742624663	 1.2601009006	-2.5880593979	 0.113144
61.7329	91.7685	180.9518	218.8638	283.9102	334.8915	351.4423	372.7817	475.7162	531.564	587.6553	703.7239	773.2117	789.2565	821.0894	831.6533	903.7742	934.9381	945.9057	964.791	976.2235	1035.1886	1053.1339	1075.6531	1085.3543	1115.4079	1149.9871	1178.076	1235.5395	1246.1601	1282.023	1297.1784	1329.7661	1355.0332	1370.7941	1383.3048	1404.94	1411.9152	1463.9355	1466.8251	1481.0687	1488.7965	1499.1535	1507.8878	1744.3519	2995.7828	2997.22	3004.7342	3021.5228	3022.9305	3035.6175	3062.2885	3092.2528	3105.6661	3105.8593	3107.1305	3142.2535
CCC1=CCC2OC2C1	CCC1=CC[C@H]2O[C@H]2C1	
InChI=1S/C8H12O/c1-2-6-3-4-7-8(5-6)9-7/h3,7-8H,2,4-5H2,1H3	InChI=1S/C8H12O/c1-2-6-3-4-7-8(5-6)9-7/h3,7-8H,2,4-5H2,1H3/t7-,8+/m1/s1
