17
gdb 67977	3.18048	1.67462	1.26228	2.4906	72.28	-0.2283	0.0078	0.2361	985.9293	0.137716	-417.976078	-417.968971	-417.968027	-418.007196	28.916	
C	 0.0363295186	 1.5209844615	-0.033162337	-0.514655
C	 0.0654699949	 0.0181818006	 0.0106212457	 0.401351
N	 0.581098948	-0.6583283149	-1.1747229265	-0.402528
C	 0.417372335	-2.0159878434	-0.9315170804	 0.419972
O	 0.5727959995	-2.9360338586	-1.696142188	-0.368387
C	-0.0521127635	-1.997981001	 0.5192317863	-0.193123
C	 0.6208472143	-0.7759784958	 1.2344973991	-0.063074
N	-0.6317614108	-0.4313502922	 2.0021526708	-0.341356
C	-1.1063800485	-0.8351421435	 0.6309929994	-0.078805
H	 1.0376042061	 1.9232617058	-0.217061738	 0.129931
H	-0.6242356439	 1.8780488507	-0.8311770957	 0.120299
H	-0.3315292953	 1.9046645412	 0.9198613196	 0.158341
H	 0.4663190271	-0.2850332354	-2.104942493	 0.248399
H	-0.2029797712	-2.9420456233	 1.0386282591	 0.089132
H	 1.6197892295	-0.7232347358	 1.6723466414	 0.090493
H	-0.8356743199	-1.1861952891	 2.6618789988	 0.215408
H	-2.1636276598	-0.8577642066	 0.3569415584	 0.088603
164.6888	235.6815	270.2204	282.7299	382.2174	408.5968	450.9633	547.3166	626.4111	646.3942	691.8341	734.0172	789.0051	841.3908	877.1045	898.745	908.9188	958.5617	972.647	1020.1903	1061.2696	1115.3948	1124.5877	1145.4306	1153.2609	1178.9285	1207.8161	1252.597	1257.2637	1288.9536	1311.6778	1318.1784	1397.6744	1422.8458	1493.4693	1495.6999	1858.452	3037.6462	3091.0285	3098.1315	3098.4428	3143.3532	3151.4455	3412.3094	3626.8015
CC12NC(=O)C3C1NC23	C[C@@]12NC(=O)[C@H]3[C@@H]1N[C@@H]23	
InChI=1S/C6H8N2O/c1-6-3-2(4(6)7-3)5(9)8-6/h2-4,7H,1H3,(H,8,9)	InChI=1S/C6H8N2O/c1-6-3-2(4(6)7-3)5(9)8-6/h2-4,7H,1H3,(H,8,9)/t2-,3-,4+,6+
