13
gdb 24873	3.49003	1.28765	0.94061	2.0531	79.43	-0.2324	-0.0946	0.1378	1135.8547	0.092059	-411.828113	-411.820942	-411.819998	-411.860013	26.732	
N	-0.1096128636	 1.2937056383	-0.3231877043	-0.55217
C	 0.0169967942	 0.0678997097	 0.0191860731	 0.352361
N	-1.1204913728	-0.6530759442	 0.3879924526	-0.41157
C	-1.0749245899	-1.9689799001	 0.7680736642	 0.282739
C	 0.1196891435	-2.6256926221	 0.7958650908	-0.113557
N	 1.2891244295	-1.9918570499	 0.4481991147	-0.222749
C	 1.2359727026	-0.7509903667	 0.0912112234	-0.043926
C	-2.3038903572	-2.59959569	 1.1230095642	 0.231954
N	-3.3060399725	-3.102911731	 1.4092351319	-0.311144
H	 0.7951895689	 1.6933118662	-0.5654955265	 0.224807
H	-1.9985646822	-0.1528762064	 0.3624220861	 0.284242
H	 0.1789946637	-3.6635513046	 1.0924106911	 0.1459
H	 2.1676757057	-0.2572918794	-0.1824598915	 0.133116
124.1603	146.8548	149.6682	378.7962	401.0825	449.4176	475.9517	554.7119	577.8824	607.3873	685.5643	697.1273	733.1671	792.9649	863.734	944.4501	950.2069	1042.5276	1108.1648	1141.6927	1226.4663	1355.479	1370.3026	1400.1659	1490.8316	1564.7714	1634.077	1704.9285	2347.8408	3142.126	3233.4408	3506.0479	3607.3156
N=C1NC(=CN=C1)C#N	[NH]c1[nH]c(cnc1)C#N	
InChI=1S/C5H4N4/c6-1-4-2-8-3-5(7)9-4/h2-3H,(H2,7,9)	InChI=1S/C5H9N4/c6-1-4-2-8-3-5(7)9-4/h4-5,7-9H,2-3H2
