20
gdb 32993	4.82832	0.88457	0.75619	1.8688	92.55	-0.1898	0.0114	0.2013	1529.0231	0.173234	-366.081558	-366.072963	-366.072019	-366.11508	32.89	
C	-0.0151601845	 1.5705558735	-0.0416342312	-0.406117
C	-0.0620001848	 0.0456634099	-0.0392347075	-0.104738
N	 0.7964090129	-0.4908433069	-1.0799469278	-0.384025
C	 0.8630866244	-1.8504132669	-1.3547919858	 0.379094
C	 0.3891655778	-2.8216512991	-0.4584067296	-0.203924
C	 0.5187565831	-4.1763119704	-0.7552904385	-0.087421
C	 1.1082148394	-4.5995537599	-1.9417322249	-0.139905
C	 1.573944485	-3.6378089859	-2.8393754619	-0.081553
C	 1.4557153697	-2.2860849648	-2.5541993399	-0.201924
H	 1.0079435287	 1.9289275597	 0.106910791	 0.129983
H	-0.3844088419	 1.9752416459	-0.9912141936	 0.117741
H	-0.6423768064	 1.9752202196	 0.7570184091	 0.124326
H	 0.2847420512	-0.3258163972	 0.9333054649	 0.114525
H	-1.1044493702	-0.2981597812	-0.1514082048	 0.096423
H	 0.8664802602	 0.0969089964	-1.8973128482	 0.228242
H	-0.0793703842	-2.5226385845	 0.4710775204	 0.084766
H	 0.1456209603	-4.9072850749	-0.0445010604	 0.087528
H	 1.2023467463	-5.6557485945	-2.1667888016	 0.084781
H	 2.0348846127	-3.9435731706	-3.7735153839	 0.087746
H	 1.8270792105	-1.5465793982	-3.2587075856	 0.074451
65.8081	104.5672	150.9212	229.9695	265.1119	333.3205	390.4047	418.997	477.3211	527.1796	616.7697	628.5435	710.3853	770.4004	817.0897	835.0035	839.6161	877.4857	940.1465	942.5019	969.8985	1003.4747	1051.6079	1074.7089	1103.1597	1161.2922	1178.4227	1180.7087	1205.2762	1288.0431	1297.5963	1348.0043	1358.7116	1387.794	1414.1611	1462.1755	1492.1975	1500.8546	1523.9752	1531.8481	1541.5077	1622.9724	1650.4773	2955.8831	3029.5743	3036.093	3101.9452	3122.0648	3154.7405	3169.0381	3177.7816	3197.6565	3206.4545	3599.321
CCNC1=CC=CC=C1	CCNc1ccccc1	
InChI=1S/C8H11N/c1-2-9-8-6-4-3-5-7-8/h3-7,9H,2H2,1H3	InChI=1S/C8H11N/c1-2-9-8-6-4-3-5-7-8/h3-7,9H,2H2,1H3
