17
gdb 126007	3.02092	1.62137	1.10593	5.0609	74.65	-0.2033	0.0142	0.2175	1068.2289	0.139399	-414.176714	-414.169226	-414.168282	-414.208692	28.835	
C	-0.1908446959	 1.5740714077	-0.023666102	-0.394943
C	 0.0416931958	 0.063039639	 0.0498154651	-0.112698
C	 0.889490007	-0.4924426505	-1.1552837791	-0.18135
N	 1.7584883515	-1.595301866	-0.6182419923	-0.415803
C	 1.81197381	-1.325879811	 0.7424243105	 0.388827
C	 0.8808693514	-0.432004629	 1.1949553989	 0.281427
N	 0.9561985507	-0.3520177229	 2.5438293811	-0.290502
N	 1.9053185459	-1.1425444113	 2.9604270223	-0.145827
N	 2.4370243685	-1.769794295	 1.8432654008	-0.334342
H	 0.7606853123	 2.1154615742	-0.0337163248	 0.11783
H	-0.7515217422	 1.8448289428	-0.9248054287	 0.111502
H	-0.7613295452	 1.9150973295	 0.8446531557	 0.137626
H	-0.9356701371	-0.4390763478	 0.0564768682	 0.096885
H	 0.2648730435	-0.8764537853	-1.9649435242	 0.118762
H	 1.514462126	 0.3167656072	-1.5561760377	 0.107815
H	 2.646104025	-1.6792784883	-1.0982702393	 0.241072
H	 3.192864563	-2.4222988731	 1.9648387754	 0.273719
99.2628	165.3168	217.4466	268.4532	306.4028	426.4859	489.0983	497.0273	558.4361	644.5956	682.8955	691.9327	758.0191	801.627	906.9449	932.8017	940.7475	981.6247	1022.8434	1056.5141	1105.6442	1131.0862	1185.3938	1216.2694	1241.4912	1303.7253	1319.0469	1348.9838	1364.9343	1392.508	1411.8684	1428.0607	1493.6851	1499.9826	1509.3925	1559.5292	1635.6296	3000.9664	3014.0408	3033.9747	3098.3903	3103.1298	3116.7526	3550.6037	3675.4724
CC1CNC2=C1N=NN2	C[C@H]1CNc2c1nn[nH]2	
InChI=1S/C5H8N4/c1-3-2-6-5-4(3)7-9-8-5/h3H,2H2,1H3,(H2,6,7,8,9)	InChI=1S/C5H8N4/c1-3-2-6-5-4(3)7-9-8-5/h3H,2H2,1H3,(H2,6,7,8,9)/t3-/m0/s1
