17
gdb 49549	2.61566	1.67594	1.55609	1.2899	71.49	-0.2437	-0.0281	0.2156	937.3548	0.136502	-421.813628	-421.806311	-421.805367	-421.845563	28.319	
O	-0.48561305	 0.5086787605	-0.5909165602	-0.25222
C	 0.111450934	 1.0148732513	 0.3269940156	 0.140711
C	 1.2669396213	 1.9621356524	 0.1691864989	-0.110487
C	 1.4112317815	 2.8910723891	-1.0614714328	 0.073312
C	 0.0635414284	 3.4606579774	-1.5261123284	-0.270525
C	-0.6854937247	 3.9955179747	-0.323365445	-0.053396
C	-0.1099191874	 3.9314688474	 0.8789064775	-0.077855
C	 1.2814356675	 3.3295462385	 0.9147242075	 0.029179
O	 2.0543918691	 3.8737934057	-0.1956110832	-0.296189
H	-0.1585574427	 0.7812940022	 1.383113554	 0.078078
H	 2.2031304521	 1.4221075043	 0.3514602558	 0.116041
H	 2.0571031694	 2.5785698286	-1.8844215161	 0.086522
H	 0.2371380086	 4.26197079	-2.255475514	 0.118076
H	-0.5200093108	 2.6824226431	-2.0311506752	 0.138244
H	-1.6734104692	 4.4212959168	-0.4711325073	 0.10178
H	-0.5836908384	 4.2847891552	 1.7880813047	 0.096618
H	 1.8009405413	 3.4248808327	 1.8695048382	 0.082111
84.1933	158.103	175.543	298.9068	362.2645	440.2858	519.8437	550.0521	630.3258	703.5086	734.8534	795.8821	840.2601	886.4022	899.9207	923.6573	948.309	966.6095	997.4716	1025.2391	1047.4502	1060.6439	1097.6896	1137.3581	1174.1317	1200.9254	1233.5365	1296.0066	1316.4877	1327.3159	1358.7044	1364.6173	1396.3992	1422.0278	1456.8648	1688.3096	1817.7956	2861.8476	3030.3226	3052.3797	3073.7651	3093.6491	3101.6141	3169.4046	3196.5295
O=CC1C2CC=CC1O2	O=C[C@H]1[C@H]2CC=C[C@@H]1O2	
InChI=1S/C7H8O2/c8-4-5-6-2-1-3-7(5)9-6/h1-2,4-7H,3H2	InChI=1S/C7H8O2/c8-4-5-6-2-1-3-7(5)9-6/h1-2,4-7H,3H2/t5-,6+,7-/m1/s1
