15
gdb 71456	4.1469	1.40514	1.26354	3.4587	63.8	-0.2585	0.0064	0.2649	967.1005	0.113491	-457.763018	-457.756204	-457.75526	-457.794043	27.195	
O	-0.0044848953	 1.3756131201	-0.0375181061	-0.452675
C	 0.0664800515	 0.0003747751	-0.0442393513	 0.342871
C	 0.7894464877	-0.8510945247	-1.0836211695	-0.304616
C	-0.2228171684	-2.0125567839	-0.744153443	-0.203941
C	-1.1080211988	-0.9772594078	-0.0053191566	-0.164006
C	-0.2295463777	-0.829644921	 1.1951748273	 0.013624
O	 0.5104847865	-2.0097699757	 1.4657464029	-0.227476
C	 0.4247801273	-2.8300338248	 0.3638100641	 0.448016
O	 0.8702389433	-3.9375597099	 0.3471680031	-0.337932
H	 0.74392032	 1.7228938596	 0.4614617894	 0.294254
H	 0.5957596655	-0.4712829035	-2.088429077	 0.128172
H	 1.8589399688	-1.0504655205	-0.959438828	 0.115849
H	-0.6101401934	-2.6042836468	-1.5671742607	 0.109129
H	-2.1801200253	-0.8447070716	-0.0490934501	 0.114101
H	-0.5666697518	-0.3229372745	 2.0893442355	 0.12463
140.2807	225.9928	283.6123	332.1347	365.9037	460.7181	488.8669	572.2343	681.2156	724.3466	747.0781	797.3555	815.2653	870.1172	904.257	910.0662	929.1339	995.2686	1012.6394	1044.0344	1082.6866	1092.6999	1156.2326	1181.7995	1186.0621	1233.2728	1256.0167	1282.7792	1305.8417	1329.1511	1441.3498	1501.3445	1894.9181	3050.5611	3123.4392	3175.0624	3211.6446	3220.7336	3790.6052
OC12CC3C1C2OC3=O	O[C@]12C[C@@H]3[C@H]1[C@H]2OC3=O	
InChI=1S/C6H6O3/c7-5-2-1-6(8)3(2)4(6)9-5/h2-4,8H,1H2	InChI=1S/C6H6O3/c7-5-2-1-6(8)3(2)4(6)9-5/h2-4,8H,1H2/t2-,3+,4-,6-/m1/s1
