13
gdb 130400	2.1906	1.7655	0.98972	5.4788	67.26	-0.2744	-0.0637	0.2107	1093.0926	0.089174	-448.905206	-448.897056	-448.896112	-448.938999	28.453	
N	-0.7749082082	 0.9399443177	 0.1419926572	-0.500934
C	 0.4545298832	 0.2128491053	-0.1226849082	-0.286141
C	 0.9543184713	-0.4606855157	 1.1161169852	 0.35186
C	 0.4171205619	-0.6766416103	 2.3619660945	 0.083345
N	 1.371366851	-1.3726346383	 3.0869003024	-0.15
N	 2.3917884782	-1.5819622188	 2.4063879403	 0.003537
O	 2.1637347895	-0.9908085078	 1.0882815314	-0.218487
C	-0.8303040496	-0.3148376243	 2.926068991	 0.266334
N	-1.830595814	-0.0326225661	 3.4339286788	-0.341883
H	-0.5921343276	 1.8247387145	 0.6021872046	 0.249428
H	-1.2652542489	 1.139541024	-0.7210581495	 0.249695
H	 0.2462607108	-0.5722182671	-0.860611755	 0.158497
H	 1.2862657024	 0.8052115068	-0.5386088526	 0.134749
32.7431	138.1484	182.6605	203.8931	220.2715	274.0063	405.3344	524.0069	530.8184	561.4431	630.6436	656.6026	701.2554	735.0948	815.457	967.548	998.8191	1095.3879	1152.8125	1182.6402	1242.1452	1316.9445	1360.312	1439.2465	1477.1038	1508.3684	1600.2924	1669.0699	2363.0906	2969.8964	3050.1376	3526.2895	3610.4476
NCC1=C(N=NO1)C#N	NCc1c(nno1)C#N	
InChI=1S/C4H4N4O/c5-1-3-4(2-6)9-8-7-3/h2,6H2	InChI=1S/C4H4N4O/c5-1-3-4(2-6)9-8-7-3/h2,6H2
