16
gdb 34187	4.3911	1.38868	1.23457	1.8451	81.1	-0.2162	-0.011	0.2052	1008.332	0.125214	-363.536531	-363.529612	-363.528667	-363.567536	28.334	
C	 0.0260756735	-1.1844688889	-0.0643527576	-0.387891
C	 0.002508842	 0.0185209043	-0.0294477619	 0.184622
C	-0.0263592788	 1.4400776121	 0.0551684334	 0.159385
C	-1.2562685236	 2.2645863778	 0.4190489601	-0.299222
C	-0.6337146431	 3.4015849141	-0.455721559	-0.061794
C	 0.2288815793	 4.266393578	 0.4279409178	-0.087516
C	 1.3045271409	 3.5555738117	 0.7709126766	-0.069668
C	 1.2576837123	 2.2639113453	 0.0352532643	-0.110347
N	 0.3214613929	 2.3813228373	-1.0957946954	-0.161839
H	 0.0452052397	-2.2452958186	-0.1051479666	 0.189036
H	-2.1371912779	 1.8343931733	-0.0602929902	 0.126633
H	-1.4646139792	 2.4710892616	 1.4722389745	 0.105564
H	-1.2861503578	 3.9014154513	-1.1690922935	 0.089014
H	-0.0763721787	 5.2285747782	 0.8185874368	 0.109663
H	 2.0842519267	 3.8237646555	 1.4708322584	 0.110166
H	 2.1614271417	 1.6990670972	-0.1691292476	 0.104192
140.6523	151.7065	332.4924	365.6778	468.0502	493.9501	553.833	575.267	594.3716	656.8891	717.24	732.2447	761.3488	808.1518	820.6007	868.5292	875.3287	937.7703	954.0917	981.9997	1012.4623	1050.7684	1089.7261	1102.0255	1144.336	1197.9837	1215.2958	1241.1535	1283.3653	1294.0691	1351.2456	1380.0925	1486.5489	1654.3124	2228.3484	3061.1445	3124.3812	3133.2553	3170.4776	3211.3961	3237.389	3502.7669
C#CC12CC3C=CC1N23	C#C[C@@]12C[C@H]3C=C[C@@H]1N23	
InChI=1S/C8H7N/c1-2-8-5-6-3-4-7(8)9(6)8/h1,3-4,6-7H,5H2	InChI=1S/C8H7N/c1-2-8-5-6-3-4-7(8)9(6)8/h1,3-4,6-7H,5H2/t6-,7+,8-,9?/m1/s1
