15
gdb 125638	5.37244	0.86028	0.75968	1.6363	70.35	-0.2472	-0.021	0.2262	1427.6949	0.112426	-453.986817	-453.978381	-453.977437	-454.020742	29.624	
C	-0.3676832307	 1.3563546336	 0.2473550631	-0.489378
C	-0.0407985263	-0.0903184786	 0.0556286113	 0.367554
N	 0.2659193936	-0.5592703538	-1.1512321706	-0.276872
N	 0.4959329746	-1.8795286262	-0.9627851116	-0.264395
C	 0.3554373639	-2.2397614291	 0.3316388618	 0.46167
O	 0.5947232207	-3.532932061	 0.6921363758	-0.21949
C	-0.3357929587	-4.1523645945	 1.4887590877	 0.159758
O	-0.1581840188	-5.2457833598	 1.916663045	-0.24417
C	 0.0042988095	-1.1140479642	 1.0399705803	-0.414883
H	 0.3227858346	 1.8315546244	 0.9524033631	 0.132661
H	-0.3000838552	 1.8791387037	-0.7087877781	 0.144522
H	-1.3801032011	 1.4883538506	 0.6440959703	 0.131132
H	 0.7691092394	-2.4659770363	-1.7333666238	 0.284248
H	-1.2212774921	-3.5165338827	 1.6565252001	 0.11115
H	-0.1625654533	-1.033610756	 2.1013466455	 0.116494
61.9485	110.5898	119.2358	146.0231	246.2623	314.4137	395.1018	429.9562	485.4344	503.0314	673.8776	690.6604	695.4904	791.1452	846.9367	984.6243	1003.8926	1044.2868	1060.3792	1066.6337	1100.8331	1165.4999	1179.9133	1302.9172	1404.8251	1407.3065	1428.5323	1481.6766	1483.2951	1490.5063	1524.521	1609.6751	1885.6613	3007.7762	3037.8314	3090.4316	3135.7615	3268.211	3674.368
CC1=NNC(OC=O)=C1	Cc1n[nH]c(OC=O)c1	
InChI=1S/C5H6N2O2/c1-4-2-5(7-6-4)9-3-8/h2-3H,1H3,(H,6,7)	InChI=1S/C5H6N2O2/c1-4-2-5(7-6-4)9-3-8/h2-3H,1H3,(H,6,7)
