15
gdb 129480	4.68121	1.01236	0.89055	8.7198	66.51	-0.2451	-0.0015	0.2435	1246.9401	0.113964	-450.164227	-450.155891	-450.154947	-450.198929	29.157	
N	-0.0267487395	 1.3268784965	 0.1001768952	-0.518021
C	-0.0120627034	 0.052645027	-0.3752066714	 0.412864
O	 0.8614921205	-0.3879062685	-1.0894744157	-0.332331
C	-1.2539917705	-0.7749506648	 0.0074359348	-0.295474
N	-0.9870248968	-2.1940852863	 0.0398293118	 0.000277
C	-0.5420959466	-3.0073559057	-0.9685957997	 0.036731
N	-0.4471823029	-4.2446504424	-0.5574120611	-0.229072
N	-0.8365158946	-4.2692394293	 0.7701184951	-0.224447
C	-1.1494611437	-3.0461350973	 1.0999345255	 0.021716
H	 0.7412329798	 1.9326077927	-0.14098582	 0.274515
H	-0.7089343753	 1.6562912701	 0.7602453762	 0.266817
H	-1.6430359839	-0.4796278118	 0.9853711926	 0.131523
H	-2.0343007639	-0.5525526356	-0.731158654	 0.161246
H	-0.2878691949	-2.6365680092	-1.9470764197	 0.158337
H	-1.5004326742	-2.7169922952	 2.0663688304	 0.13532
31.7245	49.5095	120.9732	190.729	278.2491	318.7886	367.985	491.0536	591.1097	643.0295	653.547	694.0653	802.2477	812.2835	842.6618	847.7986	955.8749	977.456	1018.2857	1084.3676	1091.6094	1199.3896	1222.8115	1241.5011	1309.8667	1371.0308	1397.9624	1418.835	1472.9536	1506.2447	1552.6409	1623.8964	1818.2677	3035.6558	3100.4075	3256.8284	3294.8645	3601.9324	3736.1284
NC(=O)CN1C=NN=C1	NC(=O)Cn1cnnc1	
InChI=1S/C4H6N4O/c5-4(9)1-8-2-6-7-3-8/h2-3H,1H2,(H2,5,9)	InChI=1S/C4H6N4O/c5-4(9)1-8-2-6-7-3-8/h2-3H,1H2,(H2,5,9)
