19
gdb 99824	1.98937	1.48357	1.09886	5.1159	76.3	-0.2574	-0.0343	0.2231	1202.3694	0.155974	-419.225895	-419.215103	-419.214159	-419.262742	37.644	
C	-0.0463259232	 1.4815125872	 0.1228608136	-0.337547
N	 0.0949280859	 0.0246819201	 0.0446363135	-0.302745
C	 0.7058778027	-0.505001758	-1.1799900933	-0.025358
C	-0.1119160605	-0.1049922431	-2.4276797719	-0.426257
C	 2.0987525791	-0.0199070391	-1.346087384	 0.297315
N	 3.1508047931	 0.4518217134	-1.4257014568	-0.344597
C	 0.7232240532	-2.0622891093	-1.0630142886	 0.374684
C	-0.6172778245	-2.735085723	-0.8521491648	-0.485941
O	 1.7567680136	-2.6743443198	-1.1489376744	-0.278961
H	 0.8858100039	 2.0302821656	-0.0788149952	 0.132842
H	-0.811461558	 1.8251932459	-0.57800027	 0.133333
H	-0.3864338083	 1.7352244293	 1.1298510198	 0.132232
H	 0.6466053309	-0.2904213407	 0.8370800782	 0.237803
H	-0.0263866676	 0.96565127	-2.6218850886	 0.148875
H	 0.2612431731	-0.6345855646	-3.3077889778	 0.148198
H	-1.1645005276	-0.3518336286	-2.2733326767	 0.138346
H	-1.1418988811	-2.8075282293	-1.8119868778	 0.151715
H	-0.4515329774	-3.7451421862	-0.4757892551	 0.149457
H	-1.2454569675	-2.1565374198	-0.17292442	 0.156604
17.3369	105.2026	110.3408	150.6593	165.7935	200.7903	215.0697	257.5585	290.7305	330.5984	375.2115	430.2779	445.506	556.966	605.0935	624.7693	668.7418	793.8093	867.8036	910.6486	969.4375	1016.7166	1072.6576	1091.2777	1133.5867	1157.0202	1184.2489	1215.8477	1256.5046	1375.9392	1399.7279	1457.062	1462.9151	1476.4641	1483.9135	1489.2793	1502.3639	1505.3496	1526.0029	1824.3828	2348.9423	2996.4848	3046.1441	3057.2821	3089.8878	3121.0268	3123.8209	3136.4255	3144.0201	3165.6865	3511.2968
CNC(C)(C#N)C(C)=O	CN[C@@](C)(C#N)C(=O)C	
InChI=1S/C6H10N2O/c1-5(9)6(2,4-7)8-3/h8H,1-3H3	InChI=1S/C6H10N2O/c1-5(9)6(2,4-7)8-3/h8H,1-3H3/t6-/m0/s1
