21
gdb 91402	2.89671	1.57614	1.39924	1.3346	81.89	-0.2386	0.0078	0.2464	1040.3043	0.185579	-387.106608	-387.099177	-387.098233	-387.137951	31.093	
C	 0.1158696262	 1.5815267288	 0.0642058505	-0.398879
C	-0.0032788695	 0.0667670496	-0.0181582406	 0.166898
C	 0.6221141437	-0.5123693073	-1.3106171016	-0.226731
C	 0.9062944809	-2.0290751401	-1.1633391941	-0.065362
C	 1.8512590661	-2.1770739448	 0.049310726	-0.218041
C	 0.845700188	-1.8656821646	 1.1684895171	 0.088136
O	 0.5880535961	-0.4517949174	 1.1804107407	-0.296446
C	-0.3704124848	-2.6590845298	 0.696512917	-0.096331
C	-0.335531301	-2.7417517327	-0.6347020483	-0.071189
H	 1.1670395746	 1.8860999417	 0.0732738802	 0.11778
H	-0.3761117039	 2.0521280308	-0.7932576009	 0.109008
H	-0.354407885	 1.9503501226	 0.9799760628	 0.121321
H	-1.0695045603	-0.2024745813	-0.0213482626	 0.069961
H	-0.0620158818	-0.3091920401	-2.1430958591	 0.09317
H	 1.5650708325	 0.0011648222	-1.5356322634	 0.096576
H	 1.2966136719	-2.4461539536	-2.0954247367	 0.061571
H	 2.2262985793	-3.201032786	 0.1355964154	 0.094204
H	 2.6920388579	-1.4783882681	 0.0458538417	 0.093014
H	 1.1889525943	-2.1002854827	 2.1779872325	 0.070914
H	-1.1683797415	-2.9920273424	 1.3487348398	 0.095437
H	-1.0996773439	-3.1704391848	-1.2733854065	 0.094988
143.2972	228.2336	263.333	309.6091	352.0308	401.2794	431.5257	485.3025	554.9576	613.3016	741.8821	783.737	802.4715	828.4173	838.0486	878.9955	902.4939	927.3103	964.1532	968.5031	978.0898	983.5288	1029.6724	1052.7421	1097.8248	1117.8916	1131.9345	1157.3874	1177.1809	1210.343	1248.1428	1288.5122	1301.3829	1322.2905	1336.3737	1362.3341	1368.91	1386.0312	1400.0265	1407.7194	1475.5692	1481.377	1491.4621	1501.1179	1656.4801	2989.7247	3022.3523	3038.1303	3053.181	3066.6592	3071.5027	3094.4628	3109.2613	3110.7476	3117.2166	3187.3026	3216.0245
CC1CC2CC(O1)C=C2	C[C@H]1C[C@H]2C[C@@H](O1)C=C2	
InChI=1S/C8H12O/c1-6-4-7-2-3-8(5-7)9-6/h2-3,6-8H,4-5H2,1H3	InChI=1S/C8H12O/c1-6-4-7-2-3-8(5-7)9-6/h2-3,6-8H,4-5H2,1H3/t6-,7-,8-/m0/s1
