19
gdb 6404	3.27968	1.30896	1.00382	4.1481	68.75	-0.234	0.0396	0.2736	1184.5049	0.163717	-402.232535	-402.222842	-402.221898	-402.267699	34.313	
C	-0.2265712254	 0.8673715638	-0.4816671248	-0.245603
O	 0.1373564366	-0.4690564651	-0.2033421261	-0.250333
C	 0.8189155088	-0.660054016	 1.0421465808	 0.121785
C	-0.1451168405	-0.5691810119	 2.2270194531	-0.399799
C	 1.4977563008	-2.0351522918	 0.9825727527	-0.295156
C	 2.6918641354	-2.1422365707	 0.02989945	 0.356907
N	 2.4177034469	-1.806559769	-1.2623548481	-0.50599
O	 3.7836253687	-2.5301161138	 0.4011606418	-0.361839
H	 0.6450769888	 1.5384623905	-0.4521074565	 0.112736
H	-0.6505272451	 0.8809605043	-1.4887833988	 0.130327
H	-0.9827059138	 1.2489897778	 0.2169985639	 0.118326
H	 1.5904487545	 0.1212127329	 1.1423043182	 0.079816
H	 0.3967589815	-0.7106501896	 3.1667246758	 0.1263
H	-0.6380579168	 0.4056108665	 2.2746250275	 0.118005
H	-0.9162577029	-1.3420905884	 2.1501898699	 0.126881
H	 1.8737554251	-2.300774286	 1.9718969062	 0.125984
H	 0.7394098595	-2.7748675244	 0.6977923769	 0.124874
H	 1.5469452004	-1.346044227	-1.4780216263	 0.264783
H	 3.1843053875	-1.7797441221	-1.9145727461	 0.251997
35.3326	81.587	105.9498	175.5471	210.3164	259.6326	282.7025	324.8519	375.3511	385.4988	459.3134	496.4866	564.2845	627.4375	726.7052	814.2875	869.698	909.288	943.1613	1036.0818	1107.0042	1111.2281	1138.0276	1156.9173	1181.7823	1198.3932	1256.439	1304.1148	1364.645	1381.5831	1382.8961	1406.6302	1457.136	1477.2911	1483.5049	1492.6568	1504.9185	1511.434	1610.1438	1800.2979	2969.2891	2989.1432	3040.6506	3045.3425	3049.1879	3114.1516	3116.2979	3118.4185	3128.2333	3567.9644	3714.0953
COC(C)CC(N)=O	CO[C@@H](C)CC(=O)N	
InChI=1S/C5H11NO2/c1-4(8-2)3-5(6)7/h4H,3H2,1-2H3,(H2,6,7)	InChI=1S/C5H11NO2/c1-4(8-2)3-5(6)7/h4H,3H2,1-2H3,(H2,6,7)/t4-/m0/s1
