18
gdb 114453	4.71123	1.22412	1.14582	1.6705	71.78	-0.2341	0.0831	0.3172	1105.0381	0.149048	-439.006671	-438.99936	-438.998416	-439.038662	28.393	
C	-0.0299243422	 1.3594522225	-0.1572897812	-0.243421
O	-0.0291684543	-0.0397015116	 0.0725924702	-0.242525
C	-1.2989618698	-0.6066893848	 0.0780104952	 0.218986
O	-1.9202707182	-0.5590689562	-1.2218619606	-0.293225
C	-1.9886403598	-1.9186312403	-1.5861311638	 0.144272
C	-2.4360704918	-2.7817913049	-0.3736617014	-0.07783
N	-1.6215747809	-3.9222721254	-0.9307210132	-0.34299
C	-0.7435861012	-2.7045166061	-1.091689311	-0.060168
C	-1.1882588695	-2.107654101	 0.2858606483	-0.109874
H	 1.0080528819	 1.6928780494	-0.0973444916	 0.128255
H	-0.4346065323	 1.599561103	-1.14701116	 0.131833
H	-0.6208530242	 1.8880086056	 0.6058081242	 0.106681
H	-1.9562592809	-0.0743363184	 0.7832771954	 0.071415
H	-2.4030168833	-2.0641472708	-2.5803988604	 0.102584
H	-3.4365838781	-2.9164555368	 0.0393509799	 0.083179
H	-1.2656842212	-4.4862560225	-0.1541996659	 0.21073
H	 0.2576618836	-2.7466991372	-1.518619265	 0.091118
H	-0.7712163179	-2.4872440843	 1.218010431	 0.08098
96.9244	135.5192	176.8761	265.3565	373.2437	448.3494	474.5951	578.501	698.9971	751.4297	798.7108	829.5056	884.7921	899.4977	904.9209	946.5119	980.8095	991.4654	1011.3467	1027.4697	1065.6302	1120.6723	1126.4015	1142.4458	1151.9759	1161.8694	1177.6623	1179.3463	1228.1343	1248.001	1260.0152	1287.5394	1290.6738	1340.9128	1379.7591	1401.2004	1479.2466	1484.5172	1511.8659	2983.6096	2994.6466	3069.4519	3107.7507	3124.4747	3128.202	3135.5995	3168.1787	3399.6934
COC1OC2C3NC2C13	CO[C@H]1O[C@@H]2[C@H]3N[C@@H]2[C@@H]13	
InChI=1S/C6H9NO2/c1-8-6-2-3-5(9-6)4(2)7-3/h2-7H,1H3	InChI=1S/C6H9NO2/c1-8-6-2-3-5(9-6)4(2)7-3/h2-7H,1H3/t2-,3-,4+,5+,6-/m0/s1
