23
gdb 95287	2.03855	1.76675	1.35073	1.8208	84.12	-0.2409	0.0757	0.3166	1112.6319	0.206621	-388.301381	-388.292539	-388.291595	-388.334311	34.905	
C	-0.5084942663	 1.4249888876	-0.0022659232	-0.419679
C	 0.0106071574	-0.0128580356	-0.0337055352	-0.009071
C	 0.9594430598	-0.3340076476	-1.2080914541	-0.228256
C	 1.6149923613	-1.6656620214	-0.8005289417	-0.233883
C	 1.8222301507	-1.5208097144	 0.7044089958	 0.098806
O	 2.9255078171	-0.6396333718	 1.0233066957	-0.300878
C	 2.0421575348	 0.3524838134	 1.5805560187	-0.119764
C	 0.7829126754	-0.4794541769	 1.226850384	 0.291706
C	-0.1080488148	-0.8617579739	 2.3981381742	-0.490261
H	 0.3104039006	 2.1492835728	 0.0631991901	 0.116595
H	-1.0739231572	 1.6535951085	-0.9116907324	 0.115202
H	-1.1751679776	 1.5954953785	 0.8498498474	 0.113291
H	-0.8585629089	-0.6816251394	-0.1229856738	 0.067287
H	 0.4358858365	-0.3844102109	-2.1671610246	 0.091683
H	 1.7252288495	 0.4456421512	-1.2969810881	 0.107778
H	 0.9339094409	-2.5046328434	-0.9924980344	 0.09281
H	 2.555371651	-1.8727607735	-1.3192111693	 0.106627
H	 1.9082431896	-2.4735693051	 1.2401179888	 0.061674
H	 2.2089146474	 0.4896011603	 2.6575017934	 0.092104
H	 2.1538513764	 1.3239622376	 1.0833755649	 0.095411
H	-0.6858637236	-0.0016748532	 2.7565229813	 0.117964
H	-0.8225295671	-1.6423285502	 2.1126739163	 0.11468
H	 0.4798816271	-1.2375866925	 3.2419859364	 0.118172
98.7552	183.5363	208.3192	221.7051	245.1384	257.6953	293.9198	369.3197	402.7112	507.7393	526.5481	604.4423	641.1752	817.122	821.2828	868.5799	878.6401	917.7157	939.5135	965.1766	969.3282	989.1928	1026.5145	1039.5605	1059.8526	1091.7096	1117.2033	1146.5507	1163.2367	1187.7378	1199.954	1242.0287	1257.1089	1291.1319	1306.8109	1326.3734	1337.809	1361.4274	1370.135	1386.5897	1408.0846	1415.944	1472.8646	1492.5494	1492.9581	1495.2392	1498.3122	1501.2015	1526.0895	2988.3447	3001.1882	3021.6285	3025.0821	3030.2023	3040.5734	3041.3442	3044.9613	3084.7879	3088.188	3094.8352	3096.1306	3096.2051	3099.9886
CC1CCC2OCC12C	C[C@H]1CC[C@H]2OC[C@@]12C	
InChI=1S/C8H14O/c1-6-3-4-7-8(6,2)5-9-7/h6-7H,3-5H2,1-2H3	InChI=1S/C8H14O/c1-6-3-4-7-8(6,2)5-9-7/h6-7H,3-5H2,1-2H3/t6-,7+,8-/m0/s1
