21
gdb 68685	2.60577	1.78521	1.49369	1.1561	82.08	-0.2296	0.0186	0.2482	998.436	0.185106	-387.103326	-387.095797	-387.094853	-387.134565	31.492	
C	 0.0266722175	 1.5307655635	 0.0517342295	-0.472338
C	-0.0211185301	 0.0085026115	-0.0142252602	 0.236364
C	 0.6574860956	-0.617649322	-1.2556101049	-0.24108
C	 0.106173377	-2.0537764058	-1.1496522319	-0.089433
C	 0.8147439732	-2.7193959057	 0.0545812917	-0.070495
O	 0.5475045806	-2.0377558415	 1.2708297784	-0.249819
C	 0.6826814993	-0.6256044339	 1.2179233952	-0.089469
C	-1.3451598528	-1.7687693998	-0.784576415	-0.07545
C	-1.4143647093	-0.6073946369	-0.1346232229	-0.082811
H	 1.0591801975	 1.8937186159	 0.1096765902	 0.113286
H	-0.4334931576	 1.973027509	-0.8379676919	 0.117539
H	-0.5082621202	 1.9106407036	 0.9297836753	 0.113284
H	 0.3149321051	-0.1277456148	-2.1725744585	 0.091472
H	 1.7517141785	-0.5673421866	-1.2175211332	 0.083795
H	 0.248371967	-2.6619323766	-2.0478143453	 0.062958
H	 0.4637858148	-3.7441709739	 0.2117968465	 0.104049
H	 1.9001028688	-2.7571370808	-0.1419339592	 0.08293
H	 1.7483245936	-0.3362735252	 1.2037508027	 0.081544
H	 0.2471626234	-0.2572514968	 2.1529057719	 0.101503
H	-2.1590767061	-2.4648622576	-0.9499249239	 0.093017
H	-2.2951177656	-0.1753012455	 0.3272625458	 0.089154
216.1868	224.1905	250.4293	281.7476	336.8784	368.363	400.9502	450.2088	560.3608	597.3005	628.4736	751.5144	796.4972	832.1723	839.5877	896.517	901.4365	929.5384	941.3717	956.7506	975.8432	1009.5462	1029.5889	1071.0688	1092.1218	1107.0965	1158.7452	1177.3306	1220.2262	1238.7105	1252.7968	1273.601	1289.1245	1319.2327	1331.1856	1343.448	1394.1023	1407.3092	1415.5497	1488.1701	1494.0588	1496.8057	1498.9817	1509.0184	1664.3632	2947.6179	2958.3083	3023.5807	3034.859	3065.0578	3066.2437	3074.9261	3084.0484	3088.1711	3097.5723	3183.42	3210.0304
CC12CC(COC1)C=C2	C[C@@]12C[C@@H](COC1)C=C2	
InChI=1S/C8H12O/c1-8-3-2-7(4-8)5-9-6-8/h2-3,7H,4-6H2,1H3	InChI=1S/C8H12O/c1-8-3-2-7(4-8)5-9-6-8/h2-3,7H,4-6H2,1H3/t7-,8+/m0/s1
