19
gdb 26377	4.1786	0.93934	0.87107	3.1792	81.06	-0.1877	0.0304	0.2181	1404.9276	0.158383	-419.23146	-419.222056	-419.221111	-419.266663	34.303	
C	-0.0260204234	 1.6683683093	 0.2166865061	-0.370358
C	-0.0677661016	 0.168094164	-0.0891717316	 0.066244
C	 0.6682062616	-0.6409021721	 0.989406977	-0.36992
N	-1.4650704303	-0.2519294234	-0.164399107	-0.398031
C	-1.7991869329	-1.1529044524	-0.9817612848	 0.518261
N	-3.0701135653	-1.6627276044	-1.1781906621	-0.375459
C	-3.047920909	-2.6005704409	-2.2066139707	-0.094913
C	-1.777527945	-2.7002367874	-2.6087702966	-0.040693
O	-0.9830123817	-1.8376675588	-1.8721240462	-0.223625
H	 1.0068234191	 2.0273565421	 0.279118481	 0.099087
H	-0.5427696102	 2.2367112012	-0.5622760328	 0.107043
H	-0.5246391985	 1.8750143749	 1.1694430373	 0.113741
H	 0.4440246702	-0.0030891812	-1.0483558671	 0.073173
H	 0.6669870982	-1.707156045	 0.7436708712	 0.110402
H	 1.709250775	-0.3127426804	 1.0826875312	 0.102157
H	 0.1771999304	-0.5139410056	 1.9599243857	 0.114778
H	-3.875709971	-1.2734424744	-0.724259209	 0.272903
H	-3.9318562465	-3.1154814007	-2.5405536294	 0.148446
H	-1.2825581993	-3.3021019848	-3.3494128522	 0.146764
24.8101	92.5904	138.3321	163.3248	230.3168	261.4778	316.5224	320.08	417.1374	459.8632	507.0587	580.0187	676.6285	734.3105	740.5292	783.1808	837.8684	888.6882	905.3686	927.7963	951.2213	1001.7765	1046.6981	1123.9309	1137.2884	1148.0657	1160.0198	1185.0947	1212.5999	1357.0769	1365.8724	1386.2959	1391.7318	1412.001	1419.1052	1482.354	1486.9971	1494.6924	1509.1363	1663.7551	1802.803	2983.245	3028.0925	3033.5009	3098.4728	3105.4858	3107.327	3110.0687	3286.7629	3314.2733	3710.4603
CC(C)N=C1NC=CO1	CC(C)N=c1[nH]cco1	
InChI=1S/C6H10N2O/c1-5(2)8-6-7-3-4-9-6/h3-5H,1-2H3,(H,7,8)	InChI=1S/C6H10N2O/c1-5(2)8-6-7-3-4-9-6/h3-5H,1-2H3,(H,7,8)
