16
gdb 65470	3.09184	1.03841	0.90914	3.0252	70.65	-0.2543	-0.0476	0.2067	1283.3977	0.121399	-475.002164	-474.993159	-474.992215	-475.036486	32.298	
O	-0.4798747827	 1.2966497262	-0.1779495199	-0.455508
C	-0.174666053	-0.0353127025	 0.0208149425	 0.320368
C	-0.3306140243	-0.6098630971	 1.4170497461	-0.371663
C	-1.3355575856	-0.989641796	 0.3856653516	 0.030396
O	-2.5994232537	-0.427230369	 0.5252584422	-0.180501
C	-3.211625413	-0.0244755219	-0.6211575781	 0.147537
N	-4.4012683904	 0.3819415701	-0.5698774393	-0.436008
C	 0.8669607124	-0.5580948455	-0.884259241	 0.094382
O	 1.3667544605	 0.1406786962	-1.738609844	-0.286577
H	 0.064512065	 1.5630576959	-0.9372214236	 0.301215
H	 0.3750659174	-1.3559087191	 1.7652992429	 0.132629
H	-0.661115844	 0.113045427	 2.1539795041	 0.164314
H	-1.3257927349	-1.9992456707	-0.0202349273	 0.11492
H	-2.569336692	-0.1019442672	-1.5055445458	 0.095011
H	-4.716009479	 0.6584696754	-1.4974671814	 0.234053
H	 1.1527264974	-1.6209094017	-0.7498575189	 0.095433
73.3839	82.411	134.8726	168.8105	227.9334	275.774	343.1194	352.6303	424.1799	458.9823	531.705	584.2839	688.9647	766.5276	822.4161	848.2466	872.0502	911.27	1021.5698	1030.7766	1040.2872	1069.1183	1078.08	1111.0748	1182.4678	1230.0358	1280.6185	1345.5542	1359.7914	1392.5921	1417.3011	1441.5835	1481.5371	1751.2948	1786.1358	2932.4597	3058.6267	3122.3544	3140.8457	3240.9148	3521.9072	3683.7248
OC1(CC1OC=N)C=O	O[C@]1(C[C@H]1O[CH][NH])C=O	
InChI=1S/C5H7NO3/c6-3-9-4-1-5(4,8)2-7/h2-4,6,8H,1H2	InChI=1S/C5H7NO3/c6-3-9-4-1-5(4,8)2-7/h2-4,6,8H,1H2/t4-,5-/m1/s1
