17
gdb 13785	4.14082	1.21014	1.10138	4.0182	65.9	-0.2464	-0.0236	0.2228	1119.5237	0.140739	-400.982607	-400.973757	-400.972813	-401.016824	31.126	
C	 0.7018202803	 1.3529869709	 0.2472250338	-0.485909
C	-0.3388219921	 0.2729163096	 0.0141086611	 0.406351
O	-1.1008319453	-0.0871892599	 0.881399694	-0.300824
C	-0.3591660817	-0.3003561835	-1.3797570918	-0.148275
N	-0.9338493593	-1.6464292967	-1.5615068972	-0.319635
C	-1.6301487312	-0.5109860634	-2.1598879257	-0.026859
C	-3.0164007557	-0.2452510636	-1.6168170723	-0.083798
O	-3.9309152719	-1.2047830543	-2.1279961712	-0.422457
H	 0.5972733467	 1.7571065576	 1.2542981596	 0.145736
H	 1.709415467	 0.9395260462	 0.1196247948	 0.141997
H	 0.5937006412	 2.1566538877	-0.4904793507	 0.140353
H	 0.5099212778	-0.0411491714	-1.9816394716	 0.087993
H	-0.3935987785	-2.1528974093	-2.2578262643	 0.240226
H	-1.5379401713	-0.3775127499	-3.2373535215	 0.097277
H	-2.9924408642	-0.2481144544	-0.522671105	 0.132643
H	-3.3732036144	 0.732048851	-1.958627625	 0.104349
H	-3.6558355074	-2.0552355665	-1.767296617	 0.290832
50.5937	73.3546	139.5787	149.6153	208.5278	274.4769	359.2322	381.5263	421.6137	495.2649	605.8525	631.4392	766.766	834.9468	883.2792	932.3206	962.3897	982.4496	1005.3918	1051.0644	1065.3546	1118.7495	1174.4175	1185.7063	1202.4074	1250.2555	1275.751	1371.2162	1378.554	1410.6429	1435.4746	1462.7242	1470.9471	1475.348	1502.8122	1811.4236	3031.8458	3048.6645	3090.638	3095.8956	3115.48	3126.5347	3156.3301	3507.0887	3803.2923
CC(=O)C1NC1CO	CC(=O)[C@H]1N[C@H]1CO	
InChI=1S/C5H9NO2/c1-3(8)5-4(2-7)6-5/h4-7H,2H2,1H3	InChI=1S/C5H9NO2/c1-3(8)5-4(2-7)6-5/h4-7H,2H2,1H3/t4-,5+/m0/s1
