21
gdb 39499	2.42513	1.72118	1.2081	0.5517	78.36	-0.2568	0.0871	0.3439	1089.884	0.185348	-424.208679	-424.200799	-424.199854	-424.240965	31.425	
C	-0.0402268386	 1.5480993208	 0.1595380642	-0.310233
C	 1.2923309704	 0.8476929543	 0.0148954346	 0.009308
C	 2.2702086767	 0.8490055869	 1.1763108901	-0.241782
C	 3.0455868752	-0.4613499458	 1.3605253281	-0.069482
O	 2.2318434898	-1.6268222218	 1.4203288817	-0.221853
C	 1.3076707256	-1.6674736656	 2.4651733591	-0.003103
O	 0.2218223769	-0.7837904448	 2.3176927684	-0.237955
C	-0.4573310718	-0.9171470523	 1.0745522361	-0.110114
C	 0.0039656397	 0.0503424673	-0.0057206348	 0.007048
H	-0.2743979336	 1.9305802562	 1.1487948557	 0.115918
H	-0.4206531598	 2.1556331291	-0.6547011142	 0.105248
H	 1.7718988966	 0.9368135244	-0.9575508931	 0.079053
H	 3.0083787783	 1.6469800884	 1.0185266566	 0.091105
H	 1.7446976407	 1.089859231	 2.1025703676	 0.117327
H	 3.7155313925	-0.6345868157	 0.511687176	 0.104943
H	 3.6671610007	-0.3949497444	 2.2683462354	 0.087654
H	 0.9530759826	-2.7080946447	 2.4890644431	 0.09875
H	 1.7659629217	-1.4012473479	 3.4289939114	 0.093927
H	-0.3501092094	-1.9457681062	 0.7030926871	 0.098685
H	-1.5207255452	-0.7510412253	 1.2865320431	 0.10397
H	-0.282509239	-0.3038183739	-0.9938588865	 0.081588
80.246	203.255	246.0898	261.025	289.0044	336.0997	412.7329	423.3433	521.8313	610.2654	671.4227	744.605	764.8807	830.1635	862.7278	885.5752	928.3973	971.8021	999.569	1011.4616	1050.6009	1059.0719	1078.5146	1103.0782	1116.9221	1140.8257	1159.841	1182.0977	1199.5506	1244.6048	1277.9308	1284.4001	1316.1661	1339.8508	1359.306	1398.2741	1404.7682	1415.1571	1432.293	1447.2726	1476.5771	1490.0051	1497.3497	1498.1099	1505.8975	2974.6073	2986.6454	3002.741	3023.6424	3035.1894	3049.9244	3066.8906	3103.1144	3120.0839	3123.0097	3131.7121	3207.7355
C1C2CCOCOCC12	C1[C@H]2CCOCOC[C@@H]12	
InChI=1S/C7H12O2/c1-2-8-5-9-4-7-3-6(1)7/h6-7H,1-5H2	InChI=1S/C7H12O2/c1-2-8-5-9-4-7-3-6(1)7/h6-7H,1-5H2/t6-,7-/m1/s1
