15
gdb 36072	4.54771	1.18111	1.11693	2.9829	71.2	-0.2324	0.0263	0.2588	1077.2307	0.11274	-379.557693	-379.550656	-379.549712	-379.589772	26.868	
N	-0.8325598479	-0.2113341314	-1.2705896878	-0.303046
C	-0.2815474895	 0.2858910148	-0.3854441846	 0.258803
C	 0.4249641165	 0.9326602439	 0.7225475127	-0.479422
C	 1.6003170708	 1.7440983074	 0.2633978332	 0.365328
C	 1.7375456509	 3.0622869104	-0.5450005155	-0.168951
C	 3.195813614	 2.6896397491	-0.8468801581	-0.100846
C	 2.8413412027	 3.4465366999	 0.4056885409	-0.008767
N	 2.6822240166	 2.1602961696	 1.219428553	-0.226869
C	 3.011928876	 1.3847323919	-0.0358086027	-0.103363
H	-0.2824621097	 1.5657347518	 1.2724425876	 0.162344
H	 0.777831017	 0.1680448299	 1.4241462823	 0.169142
H	 1.0484117755	 3.6565396145	-1.1269059887	 0.112059
H	 3.8046260503	 2.9586543512	-1.6971455253	 0.107937
H	 3.1660506541	 4.3959788829	 0.8111164394	 0.108398
H	 3.5369176426	 0.437374274	-0.0083388964	 0.107253
63.6054	103.3062	263.7033	296.4184	390.7646	456.4068	636.2625	691.7759	740.2633	762.4696	792.674	820.3597	846.0271	873.3047	889.6523	938.923	947.6381	962.3725	998.5632	1001.2025	1007.2069	1035.3223	1063.4838	1116.573	1186.2685	1197.0455	1253.4089	1297.66	1318.6772	1343.0185	1419.8655	1449.8701	2366.096	3035.76	3079.3053	3185.7437	3196.9527	3223.7763	3235.4541
N#CCC12C3C4C3N1C24	N#CC[C@@]12[C@@H]3[C@H]4[C@@H]3N1[C@@H]24	
InChI=1S/C7H6N2/c8-2-1-7-4-3-5(4)9(7)6(3)7/h3-6H,1H2	InChI=1S/C7H6N2/c8-2-1-7-4-3-5(4)9(7)6(3)7/h3-6H,1H2/t3-,4+,5-,6+,7-,9?/m0/s1
