14
gdb 16290	3.4747	1.80588	1.46076	3.2071	63.53	-0.2517	-0.0061	0.2456	861.9511	0.107799	-378.685248	-378.678159	-378.677215	-378.716518	26.574	
N	 0.1251092623	 1.4517149939	-0.0374210942	-0.502637
C	 0.0815343881	 0.0184540288	 0.0525029944	-0.059743
C	 0.2288849464	-0.5912183767	 1.495080957	-0.250385
C	-1.1291824238	-1.2700352985	 1.3195413545	-0.045623
O	-2.0879651578	-0.2420779116	 1.0490138991	-0.275768
C	-1.2953560781	-0.7226741796	-0.0455790298	 0.311978
C	-1.951796724	-1.2366512033	-1.2042202679	 0.185867
N	-2.424248592	-1.6338611302	-2.1829285718	-0.336156
H	 0.0189774127	 1.7641374648	-0.9976747195	 0.240073
H	-0.6386017024	 1.8516250559	 0.5010753028	 0.242536
H	 0.8042212933	-0.420417991	-0.6397693023	 0.105753
H	 1.0645807827	-1.289169861	 1.57204496	 0.124701
H	 0.2766191172	 0.1350581855	 2.3088092782	 0.126169
H	-1.5052353346	-2.1989001769	 1.7300455094	 0.133233
122.0889	163.6103	189.4465	313.9702	370.9012	414.1705	507.8913	546.3438	569.3183	654.6103	718.9304	810.7892	864.9255	883.6671	923.9208	955.2149	984.1849	1034.5177	1111.3205	1128.637	1146.6629	1219.8854	1251.3191	1261.3381	1276.1568	1406.6655	1419.3417	1476.0771	1660.2271	2349.377	3079.7262	3088.9246	3140.5019	3206.5658	3491.5362	3575.6775
NC1CC2OC12C#N	N[C@H]1C[C@H]2O[C@@]12C#N	
InChI=1S/C5H6N2O/c6-2-5-3(7)1-4(5)8-5/h3-4H,1,7H2	InChI=1S/C5H6N2O/c6-2-5-3(7)1-4(5)8-5/h3-4H,1,7H2/t3-,4+,5-/m0/s1
