18
gdb 35953	3.26852	1.17613	0.90872	4.2374	78.43	-0.256	-0.0072	0.2489	1253.113	0.14938	-401.961676	-401.953532	-401.952588	-401.994804	30.651	
N	 0.2654798939	-1.2136135244	 0.564796426	-0.318902
C	 0.1420400301	-0.0935578448	 0.3085994399	 0.256059
C	-0.0237309669	 1.3329118592	 0.0142835989	-0.201325
C	-0.8366184774	 1.9869439674	 1.1653474151	-0.083714
O	-1.3013292817	 3.2708547961	 0.839168058	-0.240239
C	-0.3537123599	 4.3161621598	 0.979067775	-0.077272
C	 0.6190533309	 4.4315350989	-0.1961413778	-0.258976
C	 1.5791610576	 3.2807795067	-0.371271755	-0.082463
C	 1.3239643091	 1.9762823542	-0.2780681724	-0.044739
H	-0.6552288878	 1.405568249	-0.8836827858	 0.148322
H	-1.7238277945	 1.3758232983	 1.3547103259	 0.128184
H	-0.2231023114	 2.0018176662	 2.0779548531	 0.110688
H	-0.9418789014	 5.236596303	 1.0513226046	 0.111928
H	 0.205658022	 4.1942648254	 1.9193873767	 0.097873
H	 0.0326752112	 4.5657798796	-1.1166834206	 0.127317
H	 1.1898926222	 5.3581787288	-0.0652892561	 0.10984
H	 2.5975144604	 3.5576475884	-0.6343429856	 0.101801
H	 2.1348297036	 1.2781441181	-0.4626309701	 0.115618
57.3256	152.5728	167.1249	222.244	305.5394	357.8172	398.5051	456.7257	508.4583	539.4748	559.4322	672.4154	721.3138	813.149	868.5154	913.4006	980.4569	999.52	1003.0266	1041.674	1058.0354	1090.616	1100.142	1157.3827	1221.871	1254.6666	1269.7442	1294.2072	1317.942	1344.7816	1378.8385	1385.5697	1424.8766	1433.8344	1464.7028	1484.0838	1498.3655	1725.2333	2359.329	2987.9349	2998.5986	3009.819	3011.8087	3063.4124	3078.3046	3090.283	3148.5009	3178.7163
N#CC1COCCC=C1	N#C[C@H]1COCCC=C1	
InChI=1S/C7H9NO/c8-5-7-3-1-2-4-9-6-7/h1,3,7H,2,4,6H2	InChI=1S/C7H9NO/c8-5-7-3-1-2-4-9-6-7/h1,3,7H,2,4,6H2/t7-/m0/s1
