16
gdb 19617	3.77142	2.00014	1.65392	2.2069	63.53	-0.2357	0.0744	0.3102	804.3747	0.130863	-383.675804	-383.668953	-383.668008	-383.706418	27.204	
O	-0.0510884692	 1.4715222316	-0.1549744916	-0.437783
C	-0.0269799594	 0.0613766197	-0.0932173573	 0.130902
C	-1.3728295115	-0.6379278046	-0.1238901956	-0.099234
C	-1.7655745163	-0.8392427799	-1.5903802281	-0.07093
C	-0.7926004151	-1.7825288465	-0.9295873296	-0.073695
C	 0.3223429276	-0.7558046464	-1.3704885169	-0.174398
C	-0.6708297055	-0.2169870467	-2.4433333628	 0.147016
O	-0.5993759189	-0.90398949	-3.6785136989	-0.450889
H	 0.8469450682	 1.7964624114	-0.0357929581	 0.280221
H	 0.5611194857	-0.290302634	 0.7660663732	 0.067858
H	-2.112948819	-0.6854196061	 0.6643471173	 0.087964
H	-2.7932308794	-1.025406216	-1.8734454256	 0.090849
H	-0.8025687053	-2.8475867954	-0.7599577588	 0.093271
H	 1.3522271625	-0.9855437285	-1.6415240922	 0.058898
H	-0.6860336373	 0.8707845562	-2.5885316801	 0.071492
H	 0.175376563	-0.5798695948	-4.1485218149	 0.278458
181.3866	228.9933	258.2637	271.344	322.9209	377.3165	564.4164	583.5153	717.0867	787.2049	805.3679	816.5088	846.6263	909.3636	930.1101	961.246	1000.219	1006.1448	1023.6918	1038.8762	1041.1795	1108.6009	1137.4916	1151.8155	1167.1619	1187.5617	1215.0583	1221.2457	1274.6201	1312.5921	1334.0077	1368.1982	1427.6625	1436.397	3004.0441	3022.3988	3122.5141	3197.5204	3206.5932	3242.8544	3814.8648	3817.3699
OC1C2C3C2C1C3O	O[C@H]1[C@H]2[C@@H]3[C@H]2[C@H]1[C@H]3O	
InChI=1S/C6H8O2/c7-5-2-1-3(2)6(8)4(1)5/h1-8H	InChI=1S/C6H8O2/c7-5-2-1-3(2)6(8)4(1)5/h1-8H/t1-,2+,3-,4+,5-,6-/m0/s1
