15
gdb 18466	4.02571	1.50904	1.44094	2.8582	61.7	-0.248	-0.028	0.2201	900.421	0.118447	-399.753436	-399.746083	-399.745139	-399.785483	27.061	
O	 0.3639409461	 0.8677173668	 1.094900858	-0.408764
C	 0.0812294345	 0.0073058637	 0.0035625471	-0.103958
C	-1.317060262	-0.5821047367	 0.0785743389	-0.030882
C	-1.6628772799	-2.0105633132	-0.2037723571	-0.183866
N	-1.8216079079	-1.3868191582	 1.1911183265	-0.127397
C	-0.6646165667	-2.2142564656	 1.6945534131	-0.294478
C	-0.586126246	-2.9189518456	 0.3268395598	 0.401526
O	-0.0662538382	-3.9170941927	-0.0787436112	-0.301834
H	-0.3239926033	 1.5402486747	 1.1394566026	 0.289943
H	 0.1807780461	 0.5253257467	-0.9626758184	 0.103407
H	 0.8544958819	-0.7630359681	 0.0274333252	 0.130562
H	-2.0903855238	 0.1106143694	-0.2557556436	 0.108009
H	-2.4962028456	-2.295971128	-0.8363995013	 0.122351
H	 0.1843246308	-1.636789118	 2.0647399873	 0.152106
H	-1.007404336	-2.9067971353	 2.4680211231	 0.143275
69.8161	106.9017	222.1762	275.7039	337.8291	421.8356	451.7422	559.8533	583.9582	667.2777	714.2609	798.9498	890.5576	925.1532	966.5908	978.9414	1025.224	1045.0747	1064.2184	1091.9303	1119.286	1153.3635	1223.4083	1244.9976	1254.7358	1306.2129	1363.2689	1407.6922	1439.4933	1469.0914	1514.1374	1892.4945	2992.1033	3073.2138	3097.3174	3113.6517	3135.138	3183.0519	3811.4363
OCC1C2N1CC2=O	OC[C@H]1[C@@H]2N1CC2=O	
InChI=1S/C5H7NO2/c7-2-3-5-4(8)1-6(3)5/h3,5,7H,1-2H2	InChI=1S/C5H7NO2/c7-2-3-5-4(8)1-6(3)5/h3,5,7H,1-2H2/t3-,5-,6?/m0/s1
