17
gdb 12982	2.71368	2.63787	1.61501	2.9864	69.37	-0.2515	0.0296	0.2811	832.8194	0.143603	-363.879151	-363.871941	-363.870997	-363.910292	27.776	
C	-0.0910822429	 1.5114431233	-0.0270714833	-0.475522
C	 0.03767825	 0.0106852612	 0.0077937509	 0.262836
C	-0.7889151781	-0.8371012162	 0.9615359903	-0.320686
C	 0.7045491392	-0.8014170697	 1.1010147723	-0.107636
C	 1.4532786514	-1.9147569178	 0.3967368359	-0.107088
O	 1.0106634969	-1.8877986067	-0.9724939811	-0.251547
C	 0.3766687501	-0.7045189772	-1.2569476714	 0.370026
N	 0.12318879	-0.2895272327	-2.4228290771	-0.553038
H	 0.8394096589	 1.9810662102	-0.3605814044	 0.126249
H	-0.8772673102	 1.8049987336	-0.7281350378	 0.146864
H	-0.3415221612	 1.9053297393	 0.9623445503	 0.109553
H	-1.3716556185	-0.2911112529	 1.6953672338	 0.119624
H	-1.2605660324	-1.7412518852	 0.5890457367	 0.126224
H	 1.161725498	-0.3270500608	 1.9608337125	 0.099879
H	 2.5376051274	-1.7503609334	 0.4234645718	 0.114337
H	 1.2403748183	-2.9127748239	 0.7933857473	 0.118582
H	 0.487830813	-0.9386428911	-3.1217616869	 0.221342
137.1989	178.4594	210.7	268.4243	297.1585	407.4731	456.817	569.4026	675.6342	704.6862	743.4846	831.2193	850.119	889.7308	894.1237	956.7453	978.4208	984.0652	1033.0354	1062.3369	1092.4805	1097.6741	1121.4261	1136.6428	1226.517	1233.7769	1280.2283	1347.3137	1381.3709	1415.1225	1426.6137	1481.7134	1492.7123	1500.2933	1519.7834	1772.962	3026.7988	3040.7153	3075.7572	3108.5876	3118.0572	3127.2819	3187.4682	3217.3899	3476.4523
CC12CC1COC2=N	C[C@]12C[C@H]1CO[C]2[NH]	
InChI=1S/C6H9NO/c1-6-2-4(6)3-8-5(6)7/h4,7H,2-3H2,1H3	InChI=1S/C6H9NO/c1-6-2-4(6)3-8-5(6)7/h4,7H,2-3H2,1H3/t4-,6-/m0/s1
