18
gdb 62269	2.83866	1.70395	1.34847	1.7552	80.46	-0.2405	0.0382	0.2787	994.8861	0.147082	-364.708452	-364.700674	-364.69973	-364.740198	31.348	
C	-0.0973257014	 1.4973886465	 0.0288813209	-0.452118
C	 0.0174642752	-0.0341937012	 0.0156959641	 0.145495
C	-1.2922210576	-0.6494055769	 0.1898324823	 0.256223
C	-2.3821384724	-1.1383458902	 0.3329918892	-0.444404
C	 0.9048993532	-0.5208369084	-1.1483003435	-0.067336
C	 2.1340596292	-0.4282199575	-0.3308999524	-0.069947
C	 1.1929155742	-0.5437177863	 0.9288294196	-0.119139
C	 1.2237740861	-2.0517610029	 0.6488307358	-0.16549
N	 1.6492636305	-1.7675134748	-0.7655855189	-0.15426
H	 0.8914486711	 1.956765609	-0.0640271706	 0.120745
H	-0.7196570899	 1.847989494	-0.7997999909	 0.127309
H	-0.556856608	 1.8391826372	 0.9607884287	 0.127132
H	-3.3413222523	-1.5775716815	 0.4549910945	 0.192325
H	 0.7546208338	-0.3507861753	-2.2066865062	 0.101364
H	 3.1266869351	-0.0413574031	-0.5158608365	 0.099027
H	 1.3268795	-0.1104880829	 1.9186202347	 0.077928
H	 2.0464582374	-2.5661296747	 1.1513539395	 0.108033
H	 0.2948131257	-2.6190679311	 0.7592633597	 0.117115
139.3167	154.2986	239.7902	260.0311	275.9008	427.908	446.2747	540.4182	549.5334	606.4733	626.224	640.6486	763.78	775.1422	806.3922	835.1674	883.6449	918.5417	949.1333	952.2524	979.458	1000.5184	1024.8209	1049.5084	1124.841	1139.4634	1152.545	1173.5003	1190.367	1201.2815	1234.6215	1270.115	1297.9597	1328.7781	1409.8007	1486.1221	1498.0321	1505.1481	2226.354	3038.1323	3055.1959	3111.651	3114.5148	3114.9553	3130.9523	3197.2112	3213.9139	3500.9119
CC1(C#C)C2C3C1CN23	C[C@@]1(C#C)[C@H]2[C@H]3[C@@H]1CN23	
InChI=1S/C8H9N/c1-3-8(2)5-4-9-6(5)7(8)9/h1,5-7H,4H2,2H3	InChI=1S/C8H9N/c1-3-8(2)5-4-9-6(5)7(8)9/h1,5-7H,4H2,2H3/t5-,6+,7+,8-,9?/m0/s1
