16
gdb 128237	3.16724	1.42861	1.00628	5.3841	81.55	-0.194	-0.0376	0.1565	1133.0987	0.12633	-430.211911	-430.203718	-430.202773	-430.245012	30.407	
C	 0.0838767094	 1.4322389368	 0.2820660917	-0.341882
N	-0.234825981	 0.0917312568	-0.2098327891	-0.374648
C	 0.5250127659	-0.5899506862	-1.1335061094	 0.255046
C	 0.6953726773	-1.9392134347	-1.0574555656	-0.063031
N	 1.3609648531	-2.605370659	-2.0586426946	-0.230341
N	 1.926806321	-2.0152336474	-3.1132719398	-0.048785
N	 1.8240008057	-0.754223992	-3.230038165	-0.285263
C	 1.1137471045	 0.062995674	-2.3117747431	 0.350117
N	 0.990829969	 1.3200487069	-2.5412498813	-0.534669
H	 0.9443832602	 1.4351354129	 0.9677063351	 0.107173
H	 0.3043655828	 2.075558873	-0.5673781592	 0.196995
H	-0.7882780449	 1.8137882716	 0.819575614	 0.118545
H	-0.5960592741	-0.5146443179	 0.5145394115	 0.230523
H	 0.3122086832	-2.5518653592	-0.2505195518	 0.121385
H	 1.4934645239	-3.6031075812	-2.0330285114	 0.27991
H	 1.4736392241	 1.5317037756	-3.4173035319	 0.218924
68.9636	101.8052	164.9408	262.9819	301.5031	358.553	414.6463	455.4648	479.1787	552.7241	600.2302	635.9703	665.3038	735.4681	791.5351	809.594	891.6128	941.8283	1007.6006	1062.2732	1073.9573	1152.7154	1168.0628	1234.9634	1312.8202	1322.4988	1382.2351	1447.2828	1475.2209	1497.9997	1512.0247	1538.7738	1561.7672	1658.3756	1683.4772	2990.5226	3089.7432	3172.6796	3201.6437	3453.3032	3565.2365	3654.9609
CNC1=CNN=NC1=N	CNc1c[nH]nnc1[NH]	
InChI=1S/C4H7N5/c1-6-3-2-7-9-8-4(3)5/h2H,1H3,(H,6,9)(H2,5,7,8)	InChI=1S/C4H12N5/c1-6-3-2-7-9-8-4(3)5/h3-9H,2H2,1H3
