21
gdb 101393	2.63411	1.09486	0.81652	1.902	79.5	-0.2384	-0.02	0.2184	1422.9053	0.18049	-424.234691	-424.224653	-424.223708	-424.270047	36.466	
C	 0.0860253507	 1.6127239855	-0.0759896979	-0.398875
C	-0.0016464673	 0.0816598786	-0.0318253636	 0.012166
C	 0.610984404	-0.5505425273	-1.2846633472	-0.088962
O	-0.1065815207	-0.0700316508	-2.4141360976	-0.426231
C	 0.6627295447	-0.4828502851	 1.2271982564	-0.094842
C	 0.0827603254	-0.1366686201	 2.638563201	-0.257867
C	 0.163952291	-1.6350809136	 3.0577449831	-0.335471
C	 0.4454783171	-1.9673403824	 1.5848448222	 0.387822
O	 0.4040116544	-2.9764747308	 0.9391575461	-0.301178
H	 1.1324567782	 1.9416695533	-0.0694627403	 0.106257
H	-0.3814796515	 1.9912724951	-0.9872592209	 0.139141
H	-0.413227873	 2.0678290428	 0.7850451042	 0.109803
H	-1.0620877091	-0.2065010763	-0.0183590508	 0.081802
H	 1.6780160976	-0.2726074496	-1.3468423316	 0.075571
H	 0.5539586234	-1.6437622599	-1.2068058881	 0.119302
H	 0.2169443394	-0.5322881141	-3.1922290576	 0.28743
H	 1.7434602588	-0.28142303	 1.1987312299	 0.096741
H	 0.6625070817	 0.5646601414	 3.2391468242	 0.109589
H	-0.9488189601	 0.2189908833	 2.5786834378	 0.115372
H	 1.0245634361	-1.8669972986	 3.6938816969	 0.132291
H	-0.7229030309	-2.1013683013	 3.4937698637	 0.130138
61.5832	96.037	110.4893	147.9386	209.1759	228.6408	241.9319	278.072	338.3003	370.8591	440.419	494.4599	563.5482	685.5487	740.5708	772.2601	875.0666	913.1421	933.9466	938.7059	975.074	1002.1209	1031.7092	1076.7032	1091.4765	1113.4744	1160.1083	1172.8434	1198.4934	1222.8361	1237.4039	1249.4668	1263.3689	1272.8441	1298.2775	1351.2354	1376.6557	1402.5483	1441.9547	1460.2285	1492.3986	1494.6498	1504.579	1528.4725	1876.9451	2947.4498	3004.4754	3018.3122	3031.0599	3044.2871	3058.0693	3074.3698	3094.9228	3112.6612	3131.9543	3134.9878	3836.6378
CC(CO)C1CCC1=O	C[C@@H](CO)[C@H]1CCC1=O	
InChI=1S/C7H12O2/c1-5(4-8)6-2-3-7(6)9/h5-6,8H,2-4H2,1H3	InChI=1S/C7H12O2/c1-5(4-8)6-2-3-7(6)9/h5-6,8H,2-4H2,1H3/t5-,6+/m0/s1
