19
gdb 55769	3.73871	1.04286	0.9378	3.6823	75.88	-0.2331	0.0341	0.2672	1285.0969	0.160385	-419.205936	-419.197281	-419.196337	-419.240105	32.73	
N	-0.0053931309	 0.2756912831	 1.0739349116	-0.505397
C	-0.0681149924	 0.2354903047	-0.2869872581	 0.368512
O	 0.6285625471	 0.9173756473	-1.0125218073	-0.361043
C	-1.1364662351	-0.7303639907	-0.8219234465	-0.397744
C	-0.9518045402	-2.1513438335	-0.3587583503	 0.347118
C	-0.0328306536	-3.2137645634	-0.989473609	-0.290563
C	-1.0705244616	-4.3121670284	-0.5763767948	-0.241676
C	-1.9406221762	-3.2122093426	 0.0450961035	-0.091152
N	-1.188347943	-2.466165476	 1.0545688667	-0.364374
H	 0.7015386469	 0.8487778925	 1.5037058864	 0.254465
H	-0.5300562027	-0.385726867	 1.6265749261	 0.270999
H	-2.1177629104	-0.3728997215	-0.4895398465	 0.124494
H	-1.1025627438	-0.6727429236	-1.911669982	 0.124713
H	 0.0542921022	-3.1150989018	-2.073825035	 0.117898
H	 0.9741404742	-3.2818856759	-0.5648950224	 0.102953
H	-1.5335201974	-4.7899399085	-1.4425398503	 0.114576
H	-0.7312254934	-5.0925240755	 0.1130294227	 0.101543
H	-3.0234241533	-3.1824013642	 0.0954254901	 0.098215
H	-0.4381472365	-3.020515075	 1.4652176151	 0.22646
42.9131	66.7166	144.6746	240.1043	297.2308	348.5506	373.8751	404.0048	482.8538	535.0518	579.4811	683.5973	749.1788	773.6898	781.9026	821.8427	892.0263	910.797	926.3392	954.3503	955.9087	1039.6809	1047.7675	1078.8063	1109.0848	1133.9642	1174.7138	1192.5095	1223.9898	1232.7899	1254.5138	1283.4196	1308.8433	1318.2781	1355.485	1427.9677	1463.6961	1479.5012	1500.047	1612.7869	1806.0347	3045.2511	3047.9881	3053.6415	3101.8663	3117.7896	3120.8909	3176.5876	3451.4147	3562.7468	3713.5823
NC(=O)CC12CCC1N2	NC(=O)C[C@]12CC[C@H]1N2	
InChI=1S/C6H10N2O/c7-5(9)3-6-2-1-4(6)8-6/h4,8H,1-3H2,(H2,7,9)	InChI=1S/C6H10N2O/c7-5(9)3-6-2-1-4(6)8-6/h4,8H,1-3H2,(H2,7,9)/t4-,6-/m1/s1
