25
gdb 122964	3.69939	0.56526	0.52449	2.3291	87.1	-0.252	0.0821	0.3341	2230.4489	0.226432	-426.627811	-426.61606	-426.615116	-426.666189	41.384	
C	-0.0162307759	 1.5484252504	 0.155179212	-0.379304
C	 0.1595264592	 0.0325772483	 0.0319628642	-0.165912
C	 0.6992387903	-0.6107772459	 1.3132521674	-0.177673
C	 0.8820431899	-2.1174879161	 1.1864217968	-0.05871
O	 1.3781703153	-2.6150415137	 2.4135183668	-0.279876
C	 1.5028263928	-4.0327977741	 2.5130955011	 0.121426
C	 2.704216701	-4.5654477046	 1.7295849299	-0.397911
C	 1.6284468384	-4.2964271847	 4.0161794469	-0.059918
O	 2.7328188526	-3.6090848152	 4.5726344429	-0.423089
H	 0.9360285234	 2.0392844955	 0.3842395512	 0.115936
H	-0.3999252491	 1.9821437131	-0.7733965151	 0.112467
H	-0.7187610319	 1.8017025458	 0.9568076276	 0.115918
H	-0.8026143651	-0.4270729598	-0.2301881383	 0.096837
H	 0.8385136206	-0.1896864324	-0.8019924612	 0.097141
H	 1.6648267853	-0.1627636825	 1.5793884238	 0.101976
H	 0.0208310943	-0.4090189776	 2.1514781714	 0.102436
H	-0.0795873226	-2.6023377853	 0.9461040024	 0.084694
H	 1.5728322677	-2.3432761232	 0.358818999	 0.090006
H	 0.5764149562	-4.5066748266	 2.1475084132	 0.061341
H	 3.6287414199	-4.1650082099	 2.1526590073	 0.134513
H	 2.7401146039	-5.6579068189	 1.7929779629	 0.114627
H	 2.6515940575	-4.2968540748	 0.6711755986	 0.113596
H	 0.6871260913	-4.0014562476	 4.5051663627	 0.086921
H	 1.7873687408	-5.3640719705	 4.2001579473	 0.102554
H	 2.6381659043	-2.6940683497	 4.2811573592	 0.290002
38.6233	58.6971	78.4191	116.2581	131.1734	142.2439	214.4001	228.8975	249.8608	273.917	318.066	405.0386	410.3162	470.1419	487.5235	665.3593	745.2134	813.6021	822.6439	901.7588	917.8084	935.864	954.1154	1007.2424	1029.3972	1072.1187	1082.7165	1116.7182	1136.1536	1146.597	1162.3563	1194.3858	1242.6024	1252.8362	1293.889	1312.4227	1324.3917	1342.84	1362.5748	1385.7829	1390.652	1412.5607	1413.6617	1432.7618	1442.1245	1487.9799	1488.7027	1495.4033	1497.4735	1499.9999	1502.0765	1510.7507	1529.0625	2955.925	2965.2586	2989.1635	2990.9398	3013.6988	3027.5604	3032.2263	3039.4405	3045.1815	3072.2256	3077.5367	3098.2744	3103.7115	3111.2239	3132.4089	3789.049
CCCCOC(C)CO	CCCCO[C@@H](C)CO	
InChI=1S/C7H16O2/c1-3-4-5-9-7(2)6-8/h7-8H,3-6H2,1-2H3	InChI=1S/C7H16O2/c1-3-4-5-9-7(2)6-8/h7-8H,3-6H2,1-2H3/t7-/m0/s1
