16
gdb 75762	2.51636	1.32268	1.16034	3.3547	71.75	-0.2675	-0.0058	0.2616	1117.9413	0.123262	-434.072163	-434.062883	-434.061939	-434.106591	33.097	
C	 0.1962020381	 1.3662036012	-0.3089327226	-0.421321
C	-0.0628932434	-0.0979766122	-0.0093859653	 0.248083
O	 0.6724813273	-0.9846641694	-0.9245603689	-0.275807
C	 1.5075940289	-1.4262131899	 0.0833336991	 0.410146
N	 2.5570775503	-2.1062474868	 0.0458303569	-0.539194
C	 0.7515459376	-0.7230777953	 1.1990208476	-0.150882
N	 1.4498060759	 0.1534034412	 2.0924369446	-0.512163
C	-1.4879382159	-0.4262730977	-0.0222625716	 0.255683
N	-2.6153897452	-0.6786057731	 0.006039632	-0.328664
H	 1.2698991573	 1.5638857436	-0.287118132	 0.133009
H	-0.1986053815	 1.6295164537	-1.2930455354	 0.146922
H	-0.2828195234	 1.9904805913	 0.4491278027	 0.153388
H	 2.8026059596	-2.3854079262	-0.905184122	 0.239425
H	 0.116022827	-1.4231737122	 1.7462543194	 0.134322
H	 1.3998660861	-0.1662123917	 3.0501676485	 0.252813
H	 2.4278658915	 0.2361506433	 1.841743377	 0.254237
68.2252	78.1757	144.2083	186.5826	196.7688	245.315	256.0843	376.6945	418.8575	452.2569	523.1851	595.7323	640.7167	672.0575	742.3081	807.9171	862.0169	877.7623	900.5508	938.55	1005.9829	1097.0446	1149.7742	1158.7057	1190.9817	1222.871	1267.2331	1295.1598	1408.9322	1426.7142	1472.6352	1483.7365	1673.6494	1831.3163	2355.8648	3058.0018	3090.041	3139.9314	3142.2127	3484.291	3541.4002	3625.3019
CC1(OC(=N)C1N)C#N	C[C@]1(O[C]([NH])[C@H]1N)C#N	
InChI=1S/C5H7N3O/c1-5(2-6)3(7)4(8)9-5/h3,8H,7H2,1H3	InChI=1S/C5H7N3O/c1-5(2-6)3(7)4(8)9-5/h3,8H,7H2,1H3/t3-,5+/m1/s1
