14
gdb 9445	2.74705	1.78815	1.76247	3.252	63.04	-0.2684	-0.0542	0.2142	848.049	0.106056	-378.725642	-378.717774	-378.71683	-378.757929	27.988	
C	-0.2710379383	 1.6062715338	 0.0631045126	-0.424046
C	 0.0422785842	 0.1124170644	 0.0227187708	 0.043785
N	 1.2354589259	-0.2702229505	-0.7923828291	-0.345003
C	 1.8619889794	-1.0556438102	 0.3045879348	-0.279766
C	 0.8230101	-0.4670627107	 1.2609779468	 0.371939
O	 0.6704002693	-0.3923384604	 2.4360235486	-0.261006
C	-1.1442185577	-0.6942327305	-0.2705588855	 0.250346
N	-2.0581289585	-1.3558044826	-0.5272230045	-0.327247
H	 0.6439716979	 2.1604945467	 0.2827381187	 0.137874
H	-0.6624303468	 1.9424955185	-0.9006213775	 0.143211
H	-1.0140753196	 1.8142163456	 0.837609499	 0.151213
H	 1.0137095951	-0.8062261257	-1.6235109179	 0.244066
H	 1.7640569041	-2.1472596169	 0.2279087089	 0.146788
H	 2.9079813149	-0.8056620513	 0.5070807241	 0.147845
97.2155	128.2937	184.4382	197.9545	216.1186	340.0348	411.615	510.5616	544.3078	584.2294	640.893	705.1733	740.0997	907.1174	947.3868	958.1857	1006.5728	1047.4606	1122.9492	1152.0536	1177.9593	1186.744	1279.7235	1368.6259	1405.1389	1474.0299	1478.5723	1487.7721	1933.9258	2338.5557	3019.1745	3051.0457	3085.0878	3130.6491	3139.6814	3553.9591
CC1(NCC1=O)C#N	C[C@]1(NCC1=O)C#N	
InChI=1S/C5H6N2O/c1-5(3-6)4(8)2-7-5/h7H,2H2,1H3	InChI=1S/C5H6N2O/c1-5(3-6)4(8)2-7-5/h7H,2H2,1H3/t5-/m0/s1
