20
gdb 74910	3.0321	1.52475	1.22868	1.8424	84.03	-0.2042	0.0125	0.2167	1100.8954	0.17161	-365.989062	-365.98101	-365.980065	-366.021154	32.028	
C	 0.0251220152	 1.4647953969	 0.0417964115	-0.504874
C	-0.0298485073	-0.0258566948	-0.0346122774	 0.352583
C	-0.1380970005	-0.8216891971	-1.1026806869	-0.197342
C	 0.0004725127	-2.2506953977	-0.6458477248	-0.050695
C	 1.4734845724	-2.4973595427	-0.1829960226	-0.295419
C	 1.0014976163	-2.0826588893	 1.2040371815	 0.337763
C	 1.5816310907	-2.5973842381	 2.489432176	-0.491059
C	 0.0501271848	-0.9077613943	 1.1700732835	-0.18424
N	-0.4494486466	-2.2602237902	 0.8251192694	-0.171629
H	 0.9819621504	 1.8067814536	 0.456184529	 0.129926
H	-0.0987066941	 1.9202258489	-0.9440516011	 0.126972
H	-0.7586804443	 1.8580528788	 0.7014388956	 0.129137
H	-0.1593485306	-0.5148654683	-2.1414000484	 0.094485
H	-0.4713124855	-3.0185134909	-1.2577189411	 0.076384
H	 1.7170104021	-3.563021953	-0.1846866462	 0.107693
H	 2.2738195419	-1.9367971538	-0.6759839801	 0.09255
H	 2.5660643032	-2.1523872731	 2.6764616568	 0.120294
H	 0.9339070142	-2.3537069176	 3.3368976938	 0.125831
H	 1.7037400566	-3.6857390201	 2.4594513522	 0.122047
H	-0.2743143614	-0.5299396273	 2.1369779094	 0.079594
155.742	168.7467	184.1648	207.755	280.8559	344.954	403.7682	434.3732	572.1276	588.8142	594.3828	727.3991	769.5599	808.3968	814.0967	865.8107	877.8987	930.357	955.8039	969.1275	995.318	1022.094	1046.9517	1061.5676	1071.4181	1093.8036	1143.584	1191.4372	1215.554	1238.4035	1264.6767	1293.4833	1308.1723	1336.3012	1397.4429	1414.7519	1417.0476	1478.5745	1481.1114	1488.0148	1491.6464	1492.6506	1704.6631	3018.6822	3025.8363	3045.8094	3064.3571	3087.858	3102.3959	3106.735	3114.3364	3117.5746	3136.3488	3205.4005
CC1=CC2CC3(C)C1N23	CC1=C[C@H]2C[C@@]3(C)[C@@H]1N23	
InChI=1S/C8H11N/c1-5-3-6-4-8(2)7(5)9(6)8/h3,6-7H,4H2,1-2H3	InChI=1S/C8H11N/c1-5-3-6-4-8(2)7(5)9(6)8/h3,6-7H,4H2,1-2H3/t6-,7+,8-,9?/m0/s1
