20
gdb 68048	2.12905	1.84602	1.29212	1.9629	79.64	-0.2339	0.0658	0.2997	1067.3993	0.170428	-403.074169	-403.065567	-403.064623	-403.106668	34.123	
C	-0.0229759741	 1.474693134	 0.0269560886	-0.514999
C	 0.0202812624	-0.0273474316	 0.025919127	 0.219842
C	 0.6520608633	-0.9646590194	-1.0588381933	-0.33141
C	 0.0662324193	-1.9203595626	 0.037050549	 0.340369
O	 0.1110509176	-3.2952762841	 0.1017629705	-0.471316
C	 0.6696677425	-0.9707694637	 1.0988499352	-0.292971
C	-1.1699778776	-1.0078253922	 0.0441222309	 0.33834
C	-2.4783432659	-1.0356450808	 0.7021261248	-0.358594
N	-2.3466839754	-1.1309074188	-0.7897774797	-0.420612
H	 0.9855508737	 1.8989988452	-0.0110963221	 0.127253
H	-0.5736002104	 1.855346459	-0.8411766748	 0.116847
H	-0.5120842275	 1.8559527272	 0.9301689478	 0.121993
H	 0.1653486036	-0.9784878063	-2.0374212437	 0.093995
H	 1.7420695091	-0.9368349584	-1.1403632143	 0.089873
H	-0.4783090019	-3.6381339536	-0.5805207996	 0.29119
H	 1.7609252242	-0.9432846812	 1.1542456466	 0.092881
H	 0.2069508075	-0.9809921666	 2.0889147937	 0.094384
H	-2.8440668159	-1.9409510509	 1.1795276883	 0.122588
H	-2.875458915	-0.1130225722	 1.119281448	 0.11201
H	-2.5952476196	-0.238225713	-1.2121902629	 0.228336
157.9436	184.009	209.2482	211.9607	234.838	257.6007	313.8738	421.9156	476.9853	496.8555	599.0458	619.123	652.1643	685.9804	746.1401	785.0693	899.6775	930.7278	951.5574	962.4178	969.1785	994.161	1043.4978	1046.3386	1057.7184	1113.8468	1116.9155	1124.9769	1149.5913	1179.923	1193.2285	1200.4895	1255.7423	1307.5793	1337.2838	1389.3236	1414.8675	1447.1105	1487.8849	1490.0216	1491.9062	1515.8242	1560.3624	3025.2213	3051.0728	3056.6903	3087.7507	3097.812	3101.6476	3121.6445	3124.9554	3184.9796	3477.8858	3794.7045
CC12CC(O)(C1)C21CN1	C[C@@]12C[C@@](O)(C1)[C@]12CN1	
InChI=1S/C7H11NO/c1-5-2-6(9,3-5)7(5)4-8-7/h8-9H,2-4H2,1H3	InChI=1S/C7H11NO/c1-5-2-6(9,3-5)7(5)4-8-7/h8-9H,2-4H2,1H3/t5-,6-,7-/m1/s1
