23
gdb 123266	11.24697	0.3919	0.38421	1.1383	81.97	-0.2512	0.0785	0.3297	2847.1874	0.202097	-462.523717	-462.511801	-462.510857	-462.563155	38.898	
C	-0.4500973117	 1.5316101658	-1.2623618271	-0.224656
O	-0.6363523387	 0.1522309013	-1.0584509654	-0.232409
C	-0.3737438875	-0.2466398938	 0.2664317755	-0.068691
C	-0.60982726	-1.7466266244	 0.351476609	-0.065871
O	-0.347656087	-2.147396579	 1.6769384967	-0.253741
C	-0.5322469977	-3.5284049568	 1.888934704	-0.065871
C	-0.216949976	-3.8186537643	 3.3481368984	-0.068691
O	-0.4016128889	-5.1989193964	 3.5582400996	-0.23241
C	-0.1380482693	-5.5914094104	 4.8831715907	-0.224656
H	-0.6767999997	 1.7416156489	-2.3104851117	 0.126902
H	-1.1189667132	 2.1330085867	-0.6262571332	 0.104353
H	 0.5869838603	 1.8394379955	-1.0540370837	 0.104359
H	 0.6654199451	-0.017325082	 0.5541977198	 0.094084
H	-1.0342625822	 0.2743777027	 0.9788174235	 0.094094
H	-1.6485372933	-1.9756725027	 0.0644312413	 0.097354
H	 0.0510523984	-2.2671503409	-0.3599309829	 0.097352
H	-1.5680363813	-3.8304569928	 1.6659719667	 0.097352
H	 0.1311452023	-4.1228262054	 1.2405907977	 0.097354
H	 0.8191193263	-3.5156596901	 3.5717281581	 0.094095
H	-0.880332655	-3.2234825738	 3.9969436824	 0.094084
H	-0.3068647311	-6.669216997	 4.9455481866	 0.126902
H	 0.9027031854	-5.37687858	 5.1738750327	 0.104353
H	-0.8039580451	-5.0848846611	 5.5998942313	 0.104359
32.7527	55.2461	66.9651	85.6552	106.6429	138.1189	139.7461	175.9283	230.4887	231.9122	268.879	313.6762	435.0281	499.9934	532.614	829.5602	838.6825	977.4792	1001.2245	1048.5028	1066.4435	1118.9294	1154.2279	1167.1314	1167.8142	1177.9399	1182.0083	1187.2221	1197.7281	1228.8665	1230.3976	1236.6003	1240.9443	1290.3715	1290.6153	1343.9246	1377.8239	1432.7559	1462.6239	1482.1761	1484.3989	1484.8081	1484.8187	1504.4467	1505.0846	1516.057	1531.7233	1535.1916	1540.4062	2960.5217	2961.1216	2967.2898	2973.9061	2974.1464	2979.2558	2987.3973	2988.0613	3012.6683	3012.7602	3016.0353	3017.1144	3113.7642	3113.8422
COCCOCCOC	COCCOCCOC	
InChI=1S/C6H14O3/c1-7-3-5-9-6-4-8-2/h3-6H2,1-2H3	InChI=1S/C6H14O3/c1-7-3-5-9-6-4-8-2/h3-6H2,1-2H3
