16
gdb 50613	2.07249	1.66005	1.01537	5.26	76.35	-0.2142	-0.0393	0.1749	1135.5767	0.124302	-437.919499	-437.911057	-437.910112	-437.953386	29.96	
O	-0.6196297871	 0.8619427418	-0.695394201	-0.246911
C	 0.2309017512	 0.918512185	 0.1572230103	 0.139742
C	 1.4184717237	 1.876646368	 0.1180267258	-0.210431
C	 1.4376598229	 2.7611650452	-1.1572290431	-0.19151
N	 1.4691456919	 4.1375143359	-0.6322636023	-0.279334
C	 1.3297700231	 4.1402559679	 0.7140781512	-0.064026
C	 1.3376476931	 2.8939141583	 1.2580301717	 0.147173
C	 1.3223168745	 2.570981672	 2.654912074	 0.058803
O	 1.3362295869	 1.436667232	 3.1085176032	-0.321647
H	 0.2030078547	 0.2804262593	 1.0603233542	 0.126802
H	 2.3230719153	 1.2637164588	 0.2239843424	 0.115418
H	 2.3085975487	 2.5751215586	-1.7912468306	 0.121633
H	 0.5299265183	 2.5773229781	-1.7421680303	 0.146396
H	 1.2062961142	 4.924179556	-1.2019707764	 0.260682
H	 1.2587322904	 5.0811187874	 1.2472530701	 0.142341
H	 1.2967999982	 3.4548286354	 3.3324749108	 0.054869
57.6671	90.37	152.7725	174.972	269.7922	298.644	333.726	396.4175	487.5557	533.7984	654.7063	694.0863	755.331	844.4598	922.8031	930.1777	971.6776	991.6309	1024.5466	1069.5795	1081.6862	1169.1273	1217.27	1229.7721	1288.9528	1320.7372	1336.8187	1346.9164	1401.6415	1425.8563	1479.2363	1531.1248	1651.3618	1742.7668	1819.4893	2864.7973	2970.2723	3022.8896	3046.9435	3091.4526	3212.488	3656.105
O=CC1CNC=C1C=O	O=C[C@H]1CNC=C1C=O	
InChI=1S/C6H7NO2/c8-3-5-1-7-2-6(5)4-9/h1,3-4,6-7H,2H2	InChI=1S/C6H7NO2/c8-3-5-1-7-2-6(5)4-9/h1,3-4,6-7H,2H2/t6-/m1/s1
