21
gdb 39469	2.23754	2.04785	1.49148	1.4507	81.65	-0.2342	0.0141	0.2483	985.9926	0.186525	-387.103837	-387.096672	-387.095728	-387.1349	30.217	
C	 0.0199475306	 1.5695034376	-0.11113288	-0.259902
C	 1.5388288638	 1.849851348	-0.0230289206	-0.038546
C	 2.0179375525	 1.9895088526	 1.4418354048	-0.206354
C	 1.7550184571	 0.7588142702	 2.3300134755	-0.20827
C	 0.2974427183	 0.277697845	 2.4093287984	-0.058815
O	-0.1931850764	-0.4917257554	 1.3207575155	-0.278221
C	-0.0798073437	 0.0351447842	-0.0082309493	 0.093388
C	 1.2269831442	-0.3981216421	-0.6567650465	-0.078935
C	 2.1061918055	 0.6021415596	-0.6727310679	-0.06903
H	-0.578186128	 2.0959212581	 0.6365528589	 0.099405
H	-0.3484860663	 1.8677175849	-1.097348141	 0.100815
H	 1.8117140375	 2.7629062857	-0.5638897113	 0.065689
H	 3.0932549498	 2.2079338848	 1.45569222	 0.093226
H	 1.5218578786	 2.8653281249	 1.8808164734	 0.094002
H	 2.3817258862	-0.0819748542	 2.0150323721	 0.110135
H	 2.0632733427	 1.0118149371	 3.3526305753	 0.093421
H	 0.1948679658	-0.3950030783	 3.2673073983	 0.103392
H	-0.361399512	 1.1398301724	 2.6050924317	 0.083007
H	-0.9599066757	-0.3560296505	-0.5288432264	 0.075851
H	 1.4034866599	-1.4167626802	-0.9819445401	 0.094091
H	 3.1326172796	 0.5397954054	-1.0196076709	 0.091651
174.7761	215.8084	293.7944	320.8929	365.5966	399.4642	483.7198	492.2439	596.0369	726.3198	756.0729	788.8714	814.7582	826.4494	839.7448	868.4104	923.724	953.872	968.3214	978.7937	991.22	1017.8398	1041.4046	1073.5626	1107.9003	1127.5232	1138.6333	1188.4602	1211.2232	1229.6681	1278.6638	1299.0873	1311.6023	1330.5862	1343.2302	1357.6868	1378.0871	1383.1524	1394.9594	1415.7882	1469.6839	1480.1375	1484.1742	1507.056	1674.6831	2963.5292	3011.5074	3028.5303	3040.0786	3048.5227	3050.3709	3065.4096	3067.7384	3082.471	3106.927	3177.2629	3208.8856
C1C2CCCOC1C=C2	C1[C@H]2CCCO[C@@H]1C=C2	
InChI=1S/C8H12O/c1-2-7-3-4-8(6-7)9-5-1/h3-4,7-8H,1-2,5-6H2	InChI=1S/C8H12O/c1-2-7-3-4-8(6-7)9-5-1/h3-4,7-8H,1-2,5-6H2/t7-,8+/m0/s1
