15
gdb 25061	5.95245	0.90634	0.79037	2.9811	74.75	-0.1926	0.029	0.2216	1362.918	0.111695	-416.79741	-416.788819	-416.787875	-416.831216	31.346	
N	-0.4629425407	 1.0964690821	 0.9583453342	-0.606362
C	-0.1697881811	 0.0119409623	 0.3732520963	 0.46211
N	-0.9820269957	-0.7273143697	-0.4576725258	-0.33825
C	-0.3016630614	-1.858399868	-0.906804908	-0.174722
C	 0.9174308693	-1.8182320671	-0.3601696191	 0.342907
C	 2.1178690303	-2.7007431604	-0.4255680172	-0.477816
C	 1.9086405047	-3.8651701425	-1.2781834353	 0.311568
C	 1.7334055975	-4.8230403523	-1.9809551378	-0.44274
O	 1.0289527773	-0.6812896003	 0.4309652632	-0.250966
H	 0.3199799103	 1.4317943594	 1.5122266177	 0.224356
H	-1.9215088449	-0.4517419207	-0.676067863	 0.276297
H	-0.7402052655	-2.583912523	-1.5683303702	 0.160292
H	 2.9794537124	-2.1221658592	-0.7892453992	 0.154744
H	 2.3904978361	-3.025686043	 0.5890495928	 0.154723
H	 1.5893864213	-5.6736309277	-2.6001935787	 0.203858
48.0621	110.836	127.6446	190.2139	271.9078	333.8873	362.7098	417.1152	500.6562	587.5012	624.7044	659.7959	706.2645	707.0337	736.1507	769.5793	772.7282	929.2125	962.4699	967.5652	985.4388	1040.2575	1091.8367	1190.4644	1213.8051	1247.1827	1344.5136	1384.0883	1408.5982	1470.0447	1732.2853	1796.5899	2248.4841	3000.4797	3020.2154	3302.1664	3505.0119	3546.7178	3714.3794
N=C1NC=C(CC#C)O1	[NH][C@H]1NC=C(CC#C)O1	
InChI=1S/C6H6N2O/c1-2-3-5-4-8-6(7)9-5/h1,4H,3H2,(H2,7,8)	InChI=1S/C6H7N2O/c1-2-3-5-4-8-6(7)9-5/h1,4,6-8H,3H2/t6-/m0/s1
