15
gdb 19323	5.07094	1.67295	1.50065	1.3346	72.64	-0.2077	0.0251	0.2329	854.6078	0.118425	-325.403374	-325.396689	-325.395745	-325.433827	27.071	
C	 0.0400208418	-1.1881765094	-0.087942675	-0.397124
C	 0.041430395	 0.0138289486	-0.0102222114	 0.164278
C	 0.021304613	 1.4254566647	 0.1019481895	 0.202169
N	 0.1981031657	 2.325350448	-1.0835216655	-0.374623
C	 1.1324386449	 2.4196538568	 0.0518359833	-0.119343
C	 0.4789263441	 3.2481709056	 1.1924657174	-0.057225
C	-0.9280816515	 3.6718170945	 0.8572565717	-0.292205
C	-0.6628681227	 2.244581623	 1.2469603055	-0.108703
H	 0.0445134019	-2.2474981529	-0.1587275248	 0.187739
H	 0.6488107661	 1.7638125183	-1.8056047486	 0.238691
H	 2.1928654965	 2.2423024506	-0.0709111142	 0.107951
H	 1.0462001501	 3.6644199798	 2.0136357571	 0.0947
H	-1.4112023735	 4.2590292357	 1.6322011354	 0.110813
H	-1.2009200713	 3.9267633545	-0.1582928183	 0.14607
H	-1.0986626801	 1.7615548021	 2.1106355879	 0.096812
149.0953	153.6947	357.9269	410.447	469.7102	503.4941	550.8928	562.3346	612.3125	665.3197	717.0425	757.0784	815.3206	842.7816	867.2485	919.6583	923.3812	977.5943	987.8519	1031.6832	1044.8931	1057.8226	1100.0529	1142.2182	1181.3095	1211.0369	1268.8849	1295.9368	1334.8179	1401.0161	1461.48	2228.175	3140.3987	3198.8625	3206.2996	3213.3328	3237.0355	3481.3538	3502.8486
C#CC12NC1C1CC21	C#C[C@]12N[C@H]1[C@H]1C[C@@H]21	
InChI=1S/C7H7N/c1-2-7-5-3-4(5)6(7)8-7/h1,4-6,8H,3H2	InChI=1S/C7H7N/c1-2-7-5-3-4(5)6(7)8-7/h1,4-6,8H,3H2/t4-,5+,6-,7+/m0/s1
