19
gdb 43728	4.36656	1.04531	0.99854	2.9586	81.87	-0.2329	-0.0175	0.2154	1234.345	0.159287	-385.912762	-385.904797	-385.903853	-385.945855	31.095	
O	-0.4516468501	 0.498980905	-1.1885660799	-0.290933
C	-0.2291111605	 1.3331657801	-0.3603058223	 0.408224
C	-1.1116993861	 2.2921506271	 0.4495346547	-0.40009
C	 0.1941409054	 3.0800608085	 0.8510202727	 0.328561
C	 1.0542540222	 1.919825798	 0.2430452799	-0.409204
C	 0.3728617002	 4.46565369	 0.1760943545	-0.286086
C	 0.0954841736	 5.5134085303	 1.2837442588	-0.261762
C	 0.2838161552	 4.7157831488	 2.5525808252	-0.07329
C	 0.3419590424	 3.4071580245	 2.3120564297	-0.135173
H	-1.8842873713	 2.8351894512	-0.1018155252	 0.126825
H	-1.5845131546	 1.7806491497	 1.2955930199	 0.127531
H	 1.4831281111	 1.2544191844	 1.0012161209	 0.127452
H	 1.8434472249	 2.1909802157	-0.4641969954	 0.126011
H	 1.4110858155	 4.5643721139	-0.1579113267	 0.107444
H	-0.2622496367	 4.5933571855	-0.7050634851	 0.100781
H	 0.7650803413	 6.3778948822	 1.2157421836	 0.10672
H	-0.9265909067	 5.9135222939	 1.2279615936	 0.109639
H	 0.3232897219	 5.1740965892	 3.5346226348	 0.096059
H	 0.4345545425	 2.6302643721	 3.0648171563	 0.091292
45.8105	89.6207	220.5184	308.3738	350.641	393.6754	431.578	438.6548	529.9245	667.1948	675.4428	719.2731	765.3621	787.2763	843.6071	875.756	916.0134	921.6205	944.5403	975.0756	993.2581	1013.5723	1061.0364	1091.2133	1113.6814	1135.1696	1144.1674	1184.2612	1203.3967	1224.6493	1258.0409	1273.7955	1314.4614	1323.6598	1387.0377	1423.0048	1441.859	1482.1076	1498.3522	1682.6262	1894.198	3010.7841	3041.524	3042.6814	3048.2369	3060.0156	3092.0168	3101.2203	3105.713	3171.7118	3201.5164
O=C1CC2(C1)CCC=C2	O=C1CC2(C1)CCC=C2	
InChI=1S/C8H10O/c9-7-5-8(6-7)3-1-2-4-8/h1,3H,2,4-6H2	InChI=1S/C8H10O/c9-7-5-8(6-7)3-1-2-4-8/h1,3H,2,4-6H2
