16
gdb 37017	3.24661	1.89769	1.63407	1.6577	71.54	-0.2369	0.0023	0.2393	856.5065	0.126942	-400.742862	-400.736658	-400.735714	-400.77302	26.06	
C	 0.0227633766	 1.4291241457	-0.0189043814	-0.368785
C	 1.3358892432	 0.7046896254	 0.0182262449	 0.353828
C	 2.0547421817	 0.3995172566	 1.3180168422	-0.360138
C	 1.0506016924	-0.506066555	 2.0305662116	-0.068761
C	-0.0269261182	-0.7946014537	 1.2892064181	-0.167085
C	 0.0462930074	-0.0934623273	-0.0227032731	 0.265045
N	 0.0101783887	-0.738825626	-1.3191142478	-0.314011
C	 1.0777058328	-0.3580635009	-1.9005348555	 0.069331
O	 1.952933736	 0.4640546892	-1.2399890326	-0.259684
H	-0.3038867796	 1.9165314211	 0.8926941542	 0.124275
H	-0.251336596	 1.9253101704	-0.9437160881	 0.126083
H	 3.0035604334	-0.1165607656	 1.1271353404	 0.128037
H	 2.2906421974	 1.2959991922	 1.9030065509	 0.11802
H	 1.2096102019	-0.8394526993	 3.0504964313	 0.101673
H	-0.8523805747	-1.4273906301	 1.5912854918	 0.108847
H	 1.383412847	-0.6191286726	-2.9067615969	 0.143327
220.5198	248.6597	380.0296	390.3406	469.5185	557.0945	580.8175	613.173	672.1206	754.6832	814.4355	837.4912	861.2759	914.1905	921.06	932.2677	938.5261	951.4323	964.2843	983.6355	1046.4403	1086.7296	1093.6941	1131.6397	1171.5393	1244.5906	1249.6832	1306.1809	1335.3776	1355.7554	1379.3125	1456.721	1474.1682	1633.5369	1655.3668	3033.8138	3067.7724	3131.8797	3188.4515	3217.169	3225.839	3229.8514
C1C23CC=CC12N=CO3	C1[C@@]23CC=C[C@@]12N=CO3	
InChI=1S/C7H7NO/c1-2-6-4-7(6,3-1)9-5-8-6/h1-2,5H,3-4H2	InChI=1S/C7H7NO/c1-2-6-4-7(6,3-1)9-5-8-6/h1-2,5H,3-4H2/t6-,7+/m1/s1
