19
gdb 88120	2.57771	1.43834	1.09343	2.3235	76.66	-0.24	-0.0217	0.2183	1159.1973	0.158902	-423.039772	-423.031154	-423.03021	-423.0732	32.139	
C	-0.0623017366	 1.5005876586	-0.1452925862	-0.415126
C	 0.0461738798	-0.0022773321	-0.0182408287	-0.033977
C	 1.3603254166	-0.7022569721	-0.148330761	-0.320446
C	 0.6789676761	-0.6267628487	 1.2108905742	 0.197915
C	 1.2265312409	 0.1218313796	 2.4125897864	-0.17668
O	 1.4037915833	-0.870761336	 3.4295337834	-0.253851
C	 0.4267944802	-1.8786457853	 3.2557703888	-0.185683
C	 0.0896355424	-1.8839203381	 1.7635776307	 0.310783
O	-0.5284752053	-2.7268559474	 1.1607570161	-0.32922
H	 0.8320336774	 2.0043629625	 0.2353988113	 0.118881
H	-0.1812500386	 1.7884100039	-1.1951596624	 0.128439
H	-0.9258783619	 1.8885354633	 0.4050474885	 0.125849
H	-0.8089023096	-0.5645100093	-0.3868011477	 0.110727
H	 1.3818941035	-1.6770340349	-0.6238277519	 0.135054
H	 2.2558197269	-0.1008954022	-0.2738734461	 0.117964
H	 2.1987132701	 0.5921053812	 2.2440786431	 0.116701
H	 0.5226632097	 0.8971194595	 2.7570269021	 0.097341
H	 0.8287878513	-2.8398755269	 3.5875348136	 0.138922
H	-0.4932562362	-1.6724759955	 3.8301506858	 0.116408
77.9836	140.7993	165.5116	175.626	201.3058	286.0189	341.0507	413.2325	492.1632	554.512	575.9774	656.6308	733.142	773.7073	881.3165	912.6864	930.91	944.6187	981.9572	1014.0968	1039.949	1074.4342	1086.9719	1098.331	1132.3778	1154.9897	1192.6845	1208.6679	1244.6611	1260.846	1312.974	1333.8748	1387.049	1410.2765	1430.1918	1477.509	1480.7409	1489.0563	1504.2715	1518.8627	1836.113	2959.2963	2969.6825	3032.3609	3086.1331	3092.9923	3097.0323	3100.1742	3124.1646	3141.4901	3218.4751
CC1CC11COCC1=O	C[C@H]1C[C@]21COCC2=O	
InChI=1S/C7H10O2/c1-5-2-7(5)4-9-3-6(7)8/h5H,2-4H2,1H3	InChI=1S/C7H10O2/c1-5-2-7(5)4-9-3-6(7)8/h5H,2-4H2,1H3/t5-,7+/m0/s1
