16
gdb 24783	2.51272	2.0316	1.13959	4.5876	79.91	-0.2093	-0.0273	0.1819	1018.651	0.127506	-400.806098	-400.799237	-400.798293	-400.837339	26.939	
O	 0.1035728975	-0.103389578	 0.0007807084	-0.407428
C	-0.0058241406	 1.1121922892	 0.0084750947	 0.409748
C	-1.2234897198	 1.9140224588	 0.0300803268	-0.27379
C	-1.2154897626	 3.2828503466	 0.0370055075	-0.027513
C	-0.013060648	 4.0560283106	 0.0238460663	-0.365796
C	 1.1275662128	 3.3210327683	 0.0039353186	 0.45186
C	 2.6442755303	 3.3670433553	-0.0175291308	-0.380892
C	 2.5665484203	 1.7966689278	-0.0244246096	-0.168796
N	 1.1076465222	 1.9578572925	-0.0027585929	-0.124446
H	-2.1536898067	 1.3586139209	 0.0404813889	 0.111847
H	-2.1658954795	 3.8093431167	 0.0532493896	 0.107898
H	-0.0179200709	 5.1366440465	 0.0294305519	 0.107563
H	 3.0860190887	 3.8112595519	-0.911745011	 0.13907
H	 3.1114941512	 3.8021589315	 0.868172522	 0.139062
H	 2.9359149823	 1.3025773288	-0.9257439319	 0.140808
H	 2.9614801728	 1.2934306928	 0.8608520115	 0.140806
154.13	177.8911	213.3573	293.2203	449.2065	497.9217	557.0231	574.1758	635.3518	711.2948	735.1672	777.9497	802.6797	856.4923	866.5795	917.189	995.0527	1026.3155	1056.5223	1060.926	1146.2961	1148.9141	1180.3001	1186.1856	1217.808	1230.4115	1296.994	1304.6534	1420.3237	1451.1118	1475.0689	1517.9178	1563.0372	1675.4661	1773.2103	3073.3495	3081.2109	3122.5334	3136.6566	3166.7096	3209.4004	3232.6379
O=C1C=CC=C2CCN12	O=c1cccc2CCn12	
InChI=1S/C7H7NO/c9-7-3-1-2-6-4-5-8(6)7/h1-3H,4-5H2	InChI=1S/C7H7NO/c9-7-3-1-2-6-4-5-8(6)7/h1-3H,4-5H2
