21
gdb 115963	3.12069	1.20375	0.99813	2.0382	77.44	-0.2422	0.0736	0.3158	1234.8919	0.184205	-424.216846	-424.208401	-424.207457	-424.25008	32.355	
O	-0.1520721354	 1.5165782334	-0.0669047716	-0.42221
C	 0.0092099488	 0.1090892625	 0.0514638467	-0.104721
C	-1.3626455347	-0.528973743	-0.1096894905	 0.038912
C	-2.0278092775	-0.3103993557	-1.4859642847	-0.216646
C	-3.1628633438	-1.3508857202	-1.5090492864	-0.231692
C	-2.5630831346	-2.5685531644	-0.8087279659	 0.13242
O	-1.6280137415	-3.2872603367	-1.6512162587	-0.296727
C	-0.51652646	-2.9361966497	-0.8048174151	-0.083109
C	-1.4080402041	-2.0549190058	 0.0993579445	-0.102645
H	 0.7170194867	 1.9248111459	-0.0170446674	 0.286809
H	 0.6973572471	-0.2726830114	-0.7192300243	 0.084656
H	 0.4333364576	-0.1599044456	 1.0331652298	 0.081816
H	-2.0112094273	-0.0776134116	 0.6539754459	 0.082233
H	-2.3705637275	 0.7164311092	-1.6233862725	 0.109681
H	-1.3101835077	-0.5260091355	-2.2867369127	 0.10474
H	-4.0246452247	-0.9928086346	-0.9315159478	 0.094865
H	-3.5144681772	-1.5986753701	-2.514588534	 0.107382
H	-3.3056515635	-3.2474752459	-0.3751607825	 0.067303
H	-0.0917113739	-3.8164565637	-0.3046816982	 0.09657
H	 0.2814454409	-2.4339371193	-1.3655864506	 0.097781
H	-1.4191629078	-2.3432029277	 1.1515271359	 0.072581
93.8197	113.8691	161.8604	198.7038	262.7997	295.798	366.8117	390.5201	479.5905	602.2894	619.3875	790.0146	815.0027	848.3956	874.8056	891.728	937.2869	960.2858	977.4414	1001.9008	1031.5912	1039.8524	1069.1369	1083.794	1106.8827	1126.5033	1162.7349	1189.7646	1197.257	1216.0575	1252.7185	1264.5635	1281.0902	1306.3311	1316.5501	1331.2626	1339.3543	1355.5306	1370.0311	1389.7639	1459.9202	1469.5631	1494.9062	1519.7184	1525.6514	2959.4449	2987.3466	3006.3937	3014.5237	3027.5586	3042.0316	3046.802	3047.083	3095.6807	3097.2781	3118.3026	3831.5316
OCC1CCC2OCC12	OC[C@H]1CC[C@H]2OC[C@@H]12	
InChI=1S/C7H12O2/c8-3-5-1-2-7-6(5)4-9-7/h5-8H,1-4H2	InChI=1S/C7H12O2/c8-3-5-1-2-7-6(5)4-9-7/h5-8H,1-4H2/t5-,6+,7-/m1/s1
