16
gdb 52665	1.86369	1.1972	0.88559	3.1987	73.28	-0.2758	0.005	0.2808	1363.1184	0.121449	-437.861539	-437.851274	-437.85033	-437.898071	35.132	
C	 0.9245777478	 0.8499689623	 0.6557648608	-0.501218
C	 0.3513904523	-0.4382295427	 0.2948413202	 0.070512
C	-0.135094778	-1.5090964855	 0.0320079242	 0.042837
C	-0.7004067152	-2.8061635906	-0.3572601413	-0.04271
O	-1.9483558443	-2.6903348385	-1.0100186159	-0.41117
C	 0.2866517978	-3.5415015007	-1.3101979105	-0.04777
O	 0.4948768346	-2.7745851556	-2.478618256	-0.418433
C	 1.5508473235	-3.8831030545	-0.6331055585	 0.266826
N	 2.5400982058	-4.1398575331	-0.0944252593	-0.31327
H	 2.0091094441	 0.7741049352	 0.786549692	 0.162926
H	 0.7308221349	 1.6014656029	-0.1168710974	 0.155332
H	 0.4985119183	 1.2180313287	 1.5949117953	 0.161715
H	-0.8738164126	-3.429211837	 0.5265024023	 0.135762
H	-1.7767470271	-2.2447789877	-1.8501421628	 0.290614
H	-0.2018577879	-4.4647912052	-1.6352519933	 0.150489
H	 0.905602496	-1.9430950882	-2.2017406399	 0.297556
40.2528	57.295	84.4881	143.132	159.9768	225.8911	257.8064	326.6739	328.5178	394.8452	423.04	471.2552	487.2875	560.0329	583.474	687.7072	794.4609	903.4328	979.5408	1051.2377	1052.2634	1056.8235	1094.4539	1158.8199	1232.5584	1256.4716	1310.2444	1342.0407	1412.957	1423.811	1433.3014	1475.0142	1476.17	2357.8856	2361.4515	3034.2221	3064.6072	3085.4088	3098.1791	3100.2106	3748.0866	3774.6288
CC#CC(O)C(O)C#N	CC#C[C@@H](O)[C@@H](O)C#N	
InChI=1S/C6H7NO2/c1-2-3-5(8)6(9)4-7/h5-6,8-9H,1H3	InChI=1S/C6H7NO2/c1-2-3-5(8)6(9)4-7/h5-6,8-9H,1H3/t5-,6+/m1/s1
