18
gdb 38776	2.95572	2.00483	1.6856	1.7652	73.37	-0.2195	0.0779	0.2974	866.3466	0.150948	-401.878812	-401.872582	-401.871638	-401.908995	26.714	
C	-0.0289973256	 1.4209545288	-0.2889757214	-0.258735
C	 1.2583440781	 0.725037881	 0.0066010656	-0.023295
C	 2.0159040379	 0.8893349765	 1.2957071959	-0.05791
C	 1.4903655338	 1.5004758207	 2.571570611	 0.06852
O	 0.0680644443	 1.426999255	 2.6575035982	-0.300178
C	 0.1349991324	-0.0300857612	 2.5134274722	 0.092438
C	-0.5532136664	-0.5167156123	 1.2411932543	-0.170651
N	-0.0104238546	-0.0201873697	-0.0241849327	-0.109333
C	 1.6688035303	 0.0119626351	 2.4873037723	-0.175659
H	-0.4250566067	 2.0807734646	 0.4747574656	 0.136382
H	-0.2693176942	 1.6898247288	-1.3152740325	 0.103802
H	 1.9080228132	 0.4831225597	-0.8329791297	 0.086562
H	 3.0845011932	 1.0408222205	 1.1696465133	 0.091031
H	 1.9928348797	 2.2743815734	 3.1396056805	 0.107533
H	-0.2881288893	-0.5133907463	 3.399604327	 0.086951
H	-0.4828892229	-1.6132673392	 1.2297182172	 0.107069
H	-1.6185319093	-0.2639218414	 1.2854722087	 0.115505
H	 2.3440441859	-0.673023584	 2.9805941946	 0.099967
221.0017	255.1442	347.9988	403.2642	469.4786	503.2717	682.1058	685.8927	724.3762	741.9259	785.8488	820.1538	847.7983	887.7773	913.0636	935.0498	969.824	1007.6178	1018.1983	1034.5919	1053.3374	1080.9986	1087.863	1097.4185	1116.1924	1137.0309	1154.1239	1177.545	1240.581	1257.8132	1299.778	1311.222	1331.3762	1344.2266	1383.9629	1411.4689	1437.3177	1472.073	1500.1167	3012.8654	3059.7598	3067.142	3103.5588	3109.4798	3151.3727	3184.1108	3208.8041	3212.5024
C1C2C3C4OC(CN12)C34	C1[C@H]2[C@H]3[C@H]4O[C@@H](CN12)[C@@H]34	
InChI=1S/C7H9NO/c1-3-5-6-4(2-8(1)3)9-7(5)6/h3-7H,1-2H2	InChI=1S/C7H9NO/c1-3-5-6-4(2-8(1)3)9-7(5)6/h3-7H,1-2H2/t3-,4-,5+,6-,7+,8?/m0/s1
