23
gdb 58234	2.33781	1.27219	1.00082	2.8737	81.52	-0.2554	0.0705	0.3259	1314.8588	0.202898	-425.409592	-425.399052	-425.398108	-425.444852	39.933	
C	 0.0377674322	 1.5109124472	-0.3309188074	-0.422371
C	-0.033490845	-0.0134926401	-0.2206352812	 0.151548
O	 1.0014137603	-0.4770844224	 0.6504030409	-0.428526
C	-1.4229516607	-0.5625327662	 0.2029025162	-0.076826
C	-2.5606121727	 0.0743303389	-0.6089759186	-0.42676
C	-1.4223935631	-2.1027519308	 0.1390734894	 0.430628
C	-0.8394775369	-2.8284524806	 1.3362226724	-0.469871
C	-2.3733105126	-2.8471745395	-0.7085392994	-0.226099
O	-1.0244084711	-2.6452167161	-1.1336077437	-0.278017
H	 1.0755079677	 1.8032029137	-0.512945008	 0.125845
H	-0.5736043612	 1.9003783215	-1.1485426831	 0.123548
H	-0.2948737759	 1.9931625407	 0.5980165197	 0.103537
H	 0.2102381001	-0.4581095329	-1.191154367	 0.113229
H	 0.8906571773	-0.0291522836	 1.4968035824	 0.273038
H	-1.5710685509	-0.2862441274	 1.2576414385	 0.059058
H	-2.5863892259	 1.1574825985	-0.4720765433	 0.116504
H	-2.4446033003	-0.1259572733	-1.6797896838	 0.131242
H	-3.5314685182	-0.3166033129	-0.293229006	 0.116687
H	-1.4194451236	-2.6042597505	 2.2391166669	 0.107285
H	-0.8622050435	-3.9091648345	 1.1732860493	 0.117292
H	 0.1929105183	-2.5161649019	 1.4996118744	 0.147889
H	-2.6271453732	-3.8720353919	-0.436122301	 0.103173
H	-3.1289169712	-2.3366480159	-1.2993820777	 0.107965
48.0505	80.5605	190.8406	199.172	244.0711	253.6682	267.1977	309.5824	333.8444	363.8847	369.6775	398.254	435.2759	451.2738	524.5553	547.7412	709.2361	810.8206	823.9226	908.2362	924.0385	930.3506	971.9074	1016.6779	1049.0876	1067.8258	1094.1833	1098.7395	1135.4174	1141.4653	1161.3449	1178.0878	1220.8239	1267.0251	1324.0983	1350.4182	1371.9694	1383.7296	1400.014	1404.3014	1413.2257	1429.3777	1478.5431	1491.2554	1493.9276	1504.7017	1511.6795	1514.0437	1537.0011	2993.45	3020.6188	3037.32	3040.5731	3068.1598	3084.2162	3100.7096	3107.0954	3109.5928	3119.3994	3128.3276	3147.1476	3176.7215	3793.276
CC(O)C(C)C1(C)CO1	C[C@@H](O)[C@@H](C)[C@@]1(C)CO1	
InChI=1S/C7H14O2/c1-5(6(2)8)7(3)4-9-7/h5-6,8H,4H2,1-3H3	InChI=1S/C7H14O2/c1-5(6(2)8)7(3)4-9-7/h5-6,8H,4H2,1-3H3/t5-,6-,7-/m1/s1
