15
gdb 29975	7.00516	0.83571	0.75677	6.911	70.97	-0.227	0.0051	0.2321	1430.4289	0.112889	-453.99944	-453.991068	-453.990124	-454.03347	28.92	
C	-0.0916135485	 1.4401056095	 0.0404851989	-0.338626
N	 0.0304253538	-0.0040831506	 0.0136140388	 0.018219
C	 0.0797074323	-0.7946984637	-1.0889142858	 0.01198
N	 0.2147740403	-2.0713084097	-0.7845107118	-0.345487
C	 0.2428943665	-2.0939459902	 0.5761713568	 0.372552
O	 0.4096363714	-3.2406617998	 1.3024992614	-0.22692
C	-0.0532362451	-4.41376922	 0.7785920641	 0.154906
O	 0.1167320953	-5.44965329	 1.3435193142	-0.267848
C	 0.131791976	-0.837547212	 1.1112691661	-0.238457
H	 0.7805295788	 1.8949350138	 0.5192635207	 0.152371
H	-0.1599725235	 1.8073315236	-0.9849774641	 0.150579
H	-0.9921421319	 1.7430960334	 0.5825783527	 0.15148
H	 0.0213982597	-0.3884518849	-2.0875867521	 0.138622
H	-0.5728499868	-4.2720246995	-0.1794427916	 0.123845
H	 0.1182218818	-0.4751068999	 2.1240017317	 0.142785
53.846	97.4168	118.3958	151.991	203.6205	312.4844	379.1759	445.5208	521.8741	639.218	679.9438	695.5824	736.8231	810.3642	843.0743	1014.4909	1043.0543	1056.9013	1086.1562	1116.6245	1152.7462	1200.9316	1258.4047	1334.2917	1401.0184	1411.6324	1422.8769	1458.2421	1481.4414	1519.4722	1545.5568	1602.3091	1867.9698	3044.4423	3053.4892	3108.2661	3141.6028	3251.7975	3289.3836
CN1C=NC(OC=O)=C1	Cn1cnc(OC=O)c1	
InChI=1S/C5H6N2O2/c1-7-2-5(6-3-7)9-4-8/h2-4H,1H3	InChI=1S/C5H6N2O2/c1-7-2-5(6-3-7)9-4-8/h2-4H,1H3
