24
gdb 104780	2.21391	1.42882	1.05824	1.6956	87.97	-0.2273	0.0718	0.2992	1275.9954	0.21729	-368.372903	-368.363267	-368.362323	-368.407086	37.21	
C	 0.8095821186	-0.1913513423	-1.2970098576	-0.389768
C	-0.0352948554	-0.0371411765	-0.0268879338	-0.24841
C	 0.6010163192	-0.6374275956	 1.2343489005	 0.345795
C	 1.9360983305	 0.0247692445	 1.6210859146	-0.232802
C	 1.8581355117	 1.529295355	 1.9016793509	-0.399438
C	-0.3250142093	-0.8174327727	 2.4789179526	-0.23124
N	-0.0307539578	-2.2927025898	 2.5762937151	-0.127988
C	-0.5472018907	-2.8781671089	 1.3274397603	-0.256455
C	 0.745850082	-2.1695355686	 1.2742895908	-0.069813
H	 1.0560149842	-1.2433044662	-1.4790258226	 0.119972
H	 0.2666442668	 0.1773633767	-2.1726024985	 0.113281
H	 1.7503044411	 0.3646384329	-1.2368242841	 0.119317
H	-0.2545815982	 1.0237349335	 0.1473272839	 0.0974
H	-1.0085971231	-0.5129429038	-0.1918563367	 0.09103
H	 2.321147446	-0.4890000651	 2.510640364	 0.106435
H	 2.672798923	-0.1601311749	 0.8291345426	 0.095466
H	 1.5977287587	 2.1017235755	 1.0061828505	 0.11953
H	 1.1104489192	 1.7572306408	 2.6693728293	 0.117756
H	 2.8216662646	 1.9038289282	 2.260520822	 0.115175
H	 0.025252703	-0.3028620349	 3.3764882572	 0.106443
H	-1.3890640621	-0.5961855538	 2.3364981472	 0.094475
H	-0.5192910217	-3.963948985	 1.3268495407	 0.118639
H	-1.4378955612	-2.4515668659	 0.8714606408	 0.108886
H	 1.6842775008	-2.699323753	 1.1314308202	 0.086316
72.4793	122.7635	169.0727	181.1723	205.0729	225.7503	307.6075	331.1509	375.4522	413.6243	469.1622	520.3042	637.8209	744.8905	765.7356	782.2849	796.8148	847.8988	883.4901	935.835	963.7079	977.9654	1008.3609	1022.3797	1043.0505	1053.6422	1062.6734	1085.4158	1111.3957	1120.5911	1172.5342	1194.3345	1202.7703	1228.4851	1258.8952	1286.148	1300.5165	1324.3536	1363.8061	1378.7796	1387.8427	1406.5268	1412.163	1482.5648	1487.272	1494.7412	1500.3331	1502.1737	1506.194	1509.7577	1518.7394	3022.2985	3028.965	3034.3367	3034.8281	3038.2499	3052.9295	3057.7225	3098.8877	3100.443	3102.871	3103.9454	3106.3696	3109.285	3139.6278	3192.0718
CCC1(CC)CN2CC12	CCC1(CC)CN2C[C@@H]12	
InChI=1S/C8H15N/c1-3-8(4-2)6-9-5-7(8)9/h7H,3-6H2,1-2H3	InChI=1S/C8H15N/c1-3-8(4-2)6-9-5-7(8)9/h7H,3-6H2,1-2H3/t7-,9?/m0/s1
