20
gdb 15676	2.86884	1.76876	1.17599	1.651	77.83	-0.2241	0.0253	0.2494	1077.7959	0.176282	-349.022627	-349.013852	-349.012908	-349.05607	31.964	
C	 0.1060108921	 1.5564314242	 0.0841426806	-0.381219
C	 0.0638459848	 0.0269352861	 0.0464463579	-0.177759
C	 0.580091379	-0.5450008338	-1.2802403876	 0.053249
O	 1.9281627768	-0.1187212913	-1.5034755397	-0.279839
C	 2.7723695662	-1.2406657512	-1.744515601	-0.11435
C	 1.8792749207	-2.4374798219	-1.6024512453	-0.210045
C	 0.6307536707	-2.0569593936	-1.3453233493	 0.315002
C	-0.5852568828	-2.9074596142	-1.1643304933	-0.498385
H	 1.1259633116	 1.913561198	-0.078600891	 0.136396
H	-0.5291063205	 1.9878312681	-0.6980131672	 0.109993
H	-0.2446804405	 1.9382583437	 1.047748855	 0.10652
H	 0.669659514	-0.3896168689	 0.8606077644	 0.095932
H	-0.9650885622	-0.3228805641	 0.200309003	 0.090083
H	-0.0555165958	-0.1483196535	-2.0942612216	 0.069481
H	 3.2173598355	-1.1683727613	-2.7508617689	 0.099985
H	 3.6069514028	-1.238503611	-1.0256800537	 0.102093
H	 2.2303877911	-3.4562870898	-1.7149616407	 0.095787
H	-0.3555730757	-3.9669660111	-1.3031135687	 0.126227
H	-1.0190462561	-2.7831563582	-0.1649056038	 0.132737
H	-1.3691689419	-2.6320014764	-1.8812892993	 0.128112
76.3199	101.3953	168.1372	176.4432	226.9976	241.5818	279.7595	359.5977	448.7541	538.082	603.3784	751.6806	779.8991	806.4861	865.3914	925.5871	946.9982	967.3551	1020.3788	1043.0829	1052.1868	1058.8657	1095.5482	1125.1106	1137.0874	1196.2859	1210.3752	1281.4055	1288.1596	1326.2584	1357.1271	1384.5817	1388.8416	1405.3981	1415.5024	1475.0877	1481.5843	1490.3196	1495.2918	1509.2138	1523.9597	1733.5604	2920.4539	2963.8347	2983.2553	3019.822	3022.7267	3034.7462	3060.9012	3069.4619	3099.4831	3114.6779	3124.635	3205.6078
CCC1OCC=C1C	CC[C@H]1OCC=C1C	
InChI=1S/C7H12O/c1-3-7-6(2)4-5-8-7/h4,7H,3,5H2,1-2H3	InChI=1S/C7H12O/c1-3-7-6(2)4-5-8-7/h4,7H,3,5H2,1-2H3/t7-/m1/s1
