19
gdb 67275	3.07677	1.8759	1.71042	1.7881	77.12	-0.2358	0.0594	0.2952	894.7942	0.161081	-385.821215	-385.814635	-385.813691	-385.851669	28.128	
C	-0.0195522758	 1.5669090187	 0.0115347115	-0.534323
C	-0.0264440231	 0.0660200619	 0.0027290384	 0.384335
C	 0.7114551898	-0.8569523996	-1.0444745393	-0.129832
C	 1.7092968535	-1.2996815398	 0.0476099979	-0.230488
C	 0.6468836273	-0.8691322797	 1.0821397769	-0.129832
C	-0.6041662385	-1.8319881976	 0.9809129968	 0.095129
O	-0.3934649965	-2.8492277193	-0.0251109398	-0.290137
C	-0.5430963118	-1.820469747	-1.0303586034	 0.095129
C	-1.2742435218	-0.8716921924	-0.0405296017	-0.157737
H	 1.002343394	 1.9623894015	 0.0447401779	 0.119262
H	-0.502229903	 1.9723999808	-0.8858729732	 0.117069
H	-0.5557771594	 1.9622712502	 0.8826792829	 0.117069
H	 1.0568479091	-0.5142488267	-2.0209950634	 0.060572
H	 2.0274597277	-2.3444284791	 0.0512863778	 0.108091
H	 2.5807537572	-0.6399852915	 0.0778487465	 0.09486
H	 0.9322764679	-0.5377454318	 2.0816736451	 0.060572
H	-1.0423184955	-2.2273501367	 1.8980374493	 0.076325
H	-0.9246624004	-2.2051590496	-1.9768401478	 0.076325
H	-2.3290871607	-0.6020154923	-0.0710147025	 0.06761
221.2781	234.1462	236.3293	379.9947	471.2316	508.7178	580.1965	647.3198	709.0714	785.7088	788.3576	831.415	846.5953	848.1608	867.3932	873.0908	949.0853	953.4976	957.6247	965.8325	1021.5587	1066.7565	1077.3075	1116.6092	1146.919	1153.6639	1159.1475	1166.6453	1179.2719	1183.6539	1239.7077	1257.7627	1264.681	1293.1355	1299.4165	1328.568	1360.8891	1413.893	1469.8318	1488.6803	1490.596	3015.4134	3058.5589	3077.6161	3082.4139	3092.6983	3093.673	3104.7361	3105.4183	3118.1478	3123.8307
CC12C3CC1C1OC3C21	C[C@@]12[C@H]3C[C@@H]1[C@@H]1O[C@H]3[C@H]21	
InChI=1S/C8H10O/c1-8-3-2-4(8)7-5(8)6(3)9-7/h3-7H,2H2,1H3	InChI=1S/C8H10O/c1-8-3-2-4(8)7-5(8)6(3)9-7/h3-7H,2H2,1H3/t3-,4+,5-,6+,7-,8+
