18
gdb 94797	2.86577	1.48174	1.10092	2.3658	72.89	-0.2304	-0.0297	0.2006	1105.2361	0.148356	-439.08718	-439.079024	-439.07808	-439.119845	31.599	
O	 0.1360172732	 1.39160701	-0.0376104847	-0.437435
C	 0.0910534113	-0.0041052589	 0.0368889941	 0.054127
C	 0.6652401465	-0.637643101	 1.3171610619	-0.221343
N	 0.0162160423	-1.9670434095	 1.4081019845	-0.368632
C	-1.3329786002	-1.7664039998	 0.9045452355	 0.229391
C	-2.2707318263	-2.9198391312	 0.6570124579	-0.324551
C	-2.5357199218	-2.0064134607	 1.8113723946	-0.270522
C	-1.3437258409	-0.5382947521	 0.0607273794	 0.31762
O	-2.2842344767	 0.0296330646	-0.4464083817	-0.358423
H	-0.7167131951	 1.664225159	-0.4087877986	 0.292342
H	 0.5914940056	-0.4705745741	-0.834198947	 0.086853
H	 1.7512226475	-0.7417161531	 1.3111235826	 0.115124
H	 0.3802607923	-0.0265467763	 2.1813490764	 0.124432
H	 0.5087435194	-2.6124994717	 0.7961862326	 0.224585
H	-2.9103187483	-2.8478698484	-0.2159787315	 0.137746
H	-1.8783590637	-3.9087998572	 0.8682200467	 0.127887
H	-2.2979843552	-2.3597677777	 2.8074230038	 0.132793
H	-3.3535437698	-1.2996578619	 1.7277886137	 0.138009
75.7316	173.6265	210.4965	227.4685	276.5404	367.6052	395.1729	446.0589	469.4502	516.1812	611.4527	694.9842	762.6434	783.3618	798.7719	843.0654	926.4918	946.937	957.977	999.2852	1042.6675	1044.6113	1072.191	1081.9041	1089.7957	1171.3576	1198.2822	1204.1218	1263.4856	1283.8584	1321.4719	1337.8203	1379.043	1411.8642	1437.6832	1449.1462	1480.6687	1501.229	1825.4463	2915.356	3048.7295	3124.3803	3134.2381	3143.0377	3223.8143	3246.25	3490.1787	3715.0269
OC1CNC2(CC2)C1=O	O[C@H]1CNC2(CC2)C1=O	
InChI=1S/C6H9NO2/c8-4-3-7-6(1-2-6)5(4)9/h4,7-8H,1-3H2	InChI=1S/C6H9NO2/c8-4-3-7-6(1-2-6)5(4)9/h4,7-8H,1-3H2/t4-/m0/s1
