15
gdb 124015	4.05734	1.63419	1.40993	2.4286	69.53	-0.2506	-0.0024	0.2482	900.55	0.117285	-412.937132	-412.930959	-412.930015	-412.967913	23.944	
C	 0.1195698061	 1.5083776171	-0.1694731806	-0.179498
N	 1.5193684303	 1.4778825595	 0.32219387	-0.302541
C	 1.5230664821	-0.0000730971	 0.4493723714	-0.144307
C	-0.0153714063	-0.0198809384	 0.0544890837	-0.017263
N	 0.3996790852	-0.8250032796	-1.1092380249	 0.072697
N	 0.1555666201	-1.0858112257	-2.4185220557	-0.275733
C	 1.4092022256	-1.2464162081	-2.8522585933	 0.031387
N	 2.4237962837	-1.0178246292	-1.9486415458	-0.363
C	 1.7155330547	-0.753115305	-0.866588883	 0.323469
H	-0.5271662284	 2.1047837094	 0.4811248668	 0.1258
H	-0.0313404553	 1.8180669567	-1.2080747105	 0.131255
H	 2.2190195018	 1.8442860202	-0.3136972478	 0.240539
H	 1.9500613218	-0.3947315328	 1.3705077724	 0.109883
H	-0.8312861654	-0.4211614764	 0.6510674496	 0.116735
H	 1.6064799242	-1.5588701706	-3.8678597323	 0.130576
111.0749	168.6434	283.1343	457.0189	484.3876	664.2439	667.3767	709.6553	759.8978	816.2602	831.8877	892.5251	902.5531	934.7638	984.0954	999.8981	1034.971	1053.8461	1129.8041	1143.8712	1161.273	1182.4339	1193.4831	1251.3722	1271.611	1280.6445	1299.8499	1323.3345	1374.3156	1399.6646	1448.463	1505.3406	1551.4527	3046.3553	3094.9873	3122.2233	3149.9992	3253.3881	3542.2801
C1NC2C1N1N=CN=C21	C1N[C@H]2[C@@H]1n1ncnc21	
InChI=1S/C5H6N4/c1-3-4(6-1)5-7-2-8-9(3)5/h2-4,6H,1H2	InChI=1S/C5H6N4/c1-3-4(6-1)5-7-2-8-9(3)5/h2-4,6H,1H2/t3-,4+/m1/s1
