18
gdb 67689	2.44662	1.85694	1.51289	4.165	75.38	-0.2386	0.0043	0.2429	962.3545	0.149278	-401.952344	-401.944912	-401.943968	-401.984005	29.331	
C	-0.0012822778	 1.5587730843	-0.0272283018	-0.504925
C	 0.0376020756	 0.0646665298	-0.0320010111	 0.350805
C	 0.6636354024	-0.8963602828	-0.9711967989	-0.089042
C	 1.5908338749	-1.8504304191	-0.2175539493	-0.256993
C	 1.2993453515	-1.4898651251	 1.2718293715	-0.188108
N	 0.0203526162	-0.7370756264	 1.2363803702	-0.203698
C	-1.0131333007	-1.5909143691	 0.6548685403	 0.436094
O	-1.6695370481	-2.4479592574	 1.1674489087	-0.339173
C	-0.8746234084	-0.9691291259	-0.6901608952	-0.286812
H	 0.9200559676	 1.9728667098	 0.3964925442	 0.131199
H	-0.1051171036	 1.9438643229	-1.0459751133	 0.126642
H	-0.8416611399	 1.9246176323	 0.569832523	 0.139665
H	 0.9068934846	-0.5852371938	-1.9822943303	 0.101108
H	 1.3737311813	-2.8997315644	-0.43887809	 0.121465
H	 2.6353518237	-1.665183901	-0.4856834769	 0.108422
H	 1.1879426643	-2.3622080059	 1.9183427376	 0.133021
H	 2.0790252296	-0.8469289774	 1.6899308758	 0.111844
H	-1.6016971733	-0.8693793507	-1.4868330445	 0.108487
123.9846	196.9385	215.064	227.1573	288.8714	400.4386	506.1187	593.6344	624.8192	669.4311	709.1505	792.2716	824.1804	832.3073	865.5404	881.6501	899.3536	936.369	972.054	1009.6757	1032.5928	1059.363	1088.6741	1114.8293	1148.3311	1179.62	1208.3749	1225.2711	1254.6753	1292.1028	1309.2074	1339.4541	1411.6272	1462.7071	1480.6606	1489.947	1497.0874	1503.2642	1900.8371	3036.6815	3052.9366	3063.527	3093.9647	3101.5139	3116.7676	3128.3914	3170.1876	3193.8895
CC12C3CCN1C(=O)C23	C[C@@]12[C@H]3CCN1C(=O)[C@@H]23	
InChI=1S/C7H9NO/c1-7-4-2-3-8(7)6(9)5(4)7/h4-5H,2-3H2,1H3	InChI=1S/C7H9NO/c1-7-4-2-3-8(7)6(9)5(4)7/h4-5H,2-3H2,1H3/t4-,5-,7-/m0/s1
