20
gdb 17376	3.8334	1.54526	1.28012	1.5622	74.32	-0.2322	0.0798	0.3119	1029.8797	0.176202	-348.968027	-348.959773	-348.958828	-349.00054	31.52	
C	-0.0148023736	 1.4478367754	-0.1673574145	-0.392206
C	 0.0825490285	-0.059285832	 0.1038501347	 0.013631
C	 0.7419106838	-0.3571192104	 1.4569825087	-0.394517
C	-1.2991184741	-0.696321304	 0.0460719908	 0.154817
O	-1.9865440687	-0.5127852556	-1.2324880944	-0.31117
C	-2.2775295059	-1.9106392084	-1.2882119292	 0.107875
C	-1.0249484819	-2.7164328002	-1.4044425	-0.299785
C	-1.478526015	-2.2151106843	-0.0448258429	-0.154317
H	 0.9787502807	 1.9072504094	-0.1820990681	 0.107349
H	-0.4984625851	 1.6378763427	-1.1289263391	 0.135325
H	-0.602000779	 1.9488739506	 0.6117470353	 0.108911
H	 0.6929080845	-0.5118155444	-0.687707711	 0.073888
H	 1.7434749996	 0.0812765231	 1.5055976793	 0.114938
H	 0.1565094152	 0.0654806598	 2.282454695	 0.11269
H	 0.8387586001	-1.4339075332	 1.6296850054	 0.117397
H	-1.9330997081	-0.2801093226	 0.8428985855	 0.07514
H	-3.264015388	-2.2120744086	-1.6203998601	 0.102052
H	-1.1669856927	-3.78315062	-1.5493039593	 0.113289
H	-0.1590583109	-2.2960744725	-1.9070171647	 0.117332
H	-1.6928642193	-2.8760291645	 0.7836196684	 0.097363
74.752	159.5623	185.7162	217.1278	243.4847	307.0677	396.782	402.4422	481.4364	516.2008	726.7251	772.4591	807.3007	865.4639	917.4284	929.9083	943.206	961.6212	971.5786	994.575	1024.5675	1038.2592	1051.179	1079.579	1085.5207	1130.9176	1175.2508	1198.4633	1208.9771	1260.919	1295.0958	1314.2646	1341.3341	1363.1271	1395.2232	1405.4255	1421.3132	1475.6071	1489.0429	1490.8976	1502.8387	1512.9259	2994.1118	3025.5249	3027.1828	3033.2826	3090.2639	3096.2407	3103.6621	3120.6253	3121.2075	3180.1126	3203.1579	3212.7724
CC(C)C1OC2CC12	CC(C)[C@H]1O[C@H]2C[C@@H]12	
InChI=1S/C7H12O/c1-4(2)7-5-3-6(5)8-7/h4-7H,3H2,1-2H3	InChI=1S/C7H12O/c1-4(2)7-5-3-6(5)8-7/h4-7H,3H2,1-2H3/t5-,6+,7-/m1/s1
