14
gdb 129875	3.72384	1.15926	0.88491	4.601	71.59	-0.2138	-0.0314	0.1824	1210.4712	0.10186	-470.035917	-470.027885	-470.026941	-470.06845	29.824	
N	-0.0173789655	 1.473224561	-0.1166219225	-0.615606
C	-0.0586682109	 0.0831847338	-0.0480839562	 0.09477
C	-1.1089003193	-0.7894417342	 0.0089132222	-0.078873
N	-0.5772508049	-2.0715431029	-0.0207745919	-0.028609
C	-1.3063225452	-3.251955427	 0.0242311659	 0.184379
O	-0.845416388	-4.3600785421	 0.0026729482	-0.282412
N	 0.787741635	-2.0534409089	-0.0956534202	-0.342432
C	 1.0861737402	-0.7782339271	-0.1122707502	 0.439136
O	 2.3454157529	-0.3125133738	-0.1734075613	-0.427326
H	 0.8743685041	 1.8492914908	 0.1762526414	 0.261679
H	-0.7750749874	 1.9376183673	 0.3641378097	 0.252403
H	-2.1731381254	-0.6279468343	 0.0656803744	 0.140803
H	-2.3880425902	-3.0251155981	 0.0838722886	 0.087095
H	 2.9394465245	-1.0744548745	-0.1963349781	 0.314993
101.7155	196.7885	219.1362	233.4136	256.8318	305.8288	380.8235	457.6283	461.0117	548.556	596.4984	637.8025	686.1522	721.7347	757.8133	781.3509	864.7169	986.2472	1013.1626	1113.3446	1204.2716	1212.4448	1282.0991	1348.2087	1409.1619	1455.8043	1503.2465	1588.9086	1647.6772	1695.4565	1835.8411	2954.5193	3265.2076	3552.9061	3647.985	3787.0695
NC1=CN(C=O)N=C1O	Nc1cn(C=O)nc1O	
InChI=1S/C4H5N3O2/c5-3-1-7(2-8)6-4(3)9/h1-2H,5H2,(H,6,9)	InChI=1S/C4H5N3O2/c5-3-1-7(2-8)6-4(3)9/h1-2H,5H2,(H,6,9)
