18
gdb 36916	4.36327	1.03249	0.9261	2.2341	72.49	-0.2558	0.0219	0.2778	1282.2521	0.148199	-439.077061	-439.068994	-439.06805	-439.11093	29.772	
C	-0.274949163	 1.0765446216	-0.4073171715	-0.2761
C	 1.0662972793	 1.053609482	 0.2977835264	-0.291177
C	 0.3415066249	-0.2238342519	 0.0283602727	 0.132695
O	-0.1662354694	-0.8924784436	 1.1551132216	-0.241982
C	-1.2449186585	-1.731483526	 0.904885401	 0.19183
C	-1.5412068497	-2.5803896487	 2.1585563129	-0.207995
N	-2.8071148706	-2.0595984807	 2.6957438754	-0.258623
C	-3.2055193051	-1.2089338099	 1.8474711069	 0.113668
O	-2.4704730201	-0.9714890196	 0.7288452801	-0.225687
H	-1.1309395749	 1.4199428562	 0.1591617474	 0.130449
H	-0.3066334549	 1.3006958464	-1.4678423227	 0.115053
H	 1.9658037585	 1.2656490706	-0.2686177305	 0.116877
H	 1.0890333419	 1.3836563095	 1.3299852902	 0.129919
H	 0.7302196844	-0.8980988711	-0.7342373839	 0.090952
H	-1.095981672	-2.2944263712	-0.0235250248	 0.085173
H	-1.6471494798	-3.6440734428	 1.9235098386	 0.120537
H	-0.731736067	-2.4674798217	 2.8845514076	 0.134221
H	-4.119065554	-0.6287643087	 1.9161876626	 0.140191
45.463	75.1134	119.0175	193.9785	326.773	375.7375	434.1907	479.7529	592.3433	747.5347	758.5076	819.1058	822.8109	876.5842	886.4022	943.8333	956.6838	979.253	985.7899	996.1444	1051.7709	1063.4427	1071.5438	1091.9784	1122.2607	1147.6156	1191.2344	1198.8269	1229.1418	1246.621	1305.4588	1321.4003	1355.0609	1372.0293	1428.4273	1456.0167	1481.9272	1500.0316	1710.2887	3043.0349	3059.2651	3105.3358	3106.8297	3142.4869	3147.2562	3215.5519	3228.0396	3243.9882
C1CC1OC1CN=CO1	C1CC1O[C@H]1CN=CO1	
InChI=1S/C6H9NO2/c1-2-5(1)9-6-3-7-4-8-6/h4-6H,1-3H2	InChI=1S/C6H9NO2/c1-2-5(1)9-6-3-7-4-8-6/h4-6H,1-3H2/t6-/m0/s1
