20
gdb 47092	2.71257	1.64276	1.10009	4.0053	79.39	-0.233	0.0359	0.2689	1117.4523	0.174993	-403.216774	-403.209111	-403.208167	-403.249179	29.763	
O	 0.1494498584	 0.0598213695	 0.3053981111	-0.388351
C	 0.0215097078	 1.2410472029	 0.0579082007	 0.380723
C	-1.2798095145	 2.0521443344	-0.0272721947	-0.329271
C	-0.8275086179	 3.5007569674	 0.2487451589	-0.250637
C	 0.6395590061	 3.525922327	-0.2329092499	 0.049468
C	 1.7154291741	 4.2042861058	 0.6286456957	-0.229432
C	 2.974203345	 3.3637886814	 0.3234300437	-0.224793
C	 2.4451247346	 1.9200059403	 0.1356202253	-0.162942
N	 1.038900708	 2.1188244941	-0.1932089948	-0.059776
H	-1.7025295953	 1.9399531346	-1.0326468048	 0.125617
H	-2.0130503745	 1.6648922768	 0.6818677533	 0.127832
H	-1.4441534061	 4.2530650237	-0.2477844581	 0.106098
H	-0.861570821	 3.7016425707	 1.3251429594	 0.109307
H	 0.6973288513	 3.9106422316	-1.2631251297	 0.07543
H	 1.8466688996	 5.2652577406	 0.4022443329	 0.104442
H	 1.4444101877	 4.1141393139	 1.6872267261	 0.104693
H	 3.4386997696	 3.7129306759	-0.6047473976	 0.110216
H	 3.7303106907	 3.4278509758	 1.1092069019	 0.110346
H	 2.9790552934	 1.3860862782	-0.6573650611	 0.116726
H	 2.522168923	 1.3138774053	 1.0453673415	 0.124303
86.2458	149.7655	185.657	193.0975	307.7818	444.7649	536.547	570.1324	595.2053	602.6871	672.1089	749.6213	822.788	865.4937	892.4318	921.0336	953.3992	974.4191	985.9853	1017.1772	1049.0864	1074.3916	1116.0936	1165.9555	1193.1641	1199.2267	1225.9574	1238.5008	1252.7081	1299.3917	1304.7588	1315.1552	1334.3372	1341.8275	1366.4316	1381.1441	1421.0399	1472.8982	1486.9657	1498.2346	1501.237	1530.1483	1807.7675	2969.9246	3037.9571	3039.3951	3046.6725	3050.0359	3050.8603	3071.769	3101.9071	3106.1741	3111.6888	3123.9886
O=C1CCC2CCCN12	O=C1CC[C@H]2CCCN12	
InChI=1S/C7H11NO/c9-7-4-3-6-2-1-5-8(6)7/h6H,1-5H2	InChI=1S/C7H11NO/c9-7-4-3-6-2-1-5-8(6)7/h6H,1-5H2/t6-/m1/s1
