14
gdb 10002	3.15718	1.28011	0.97459	1.3046	59.97	-0.259	-0.0649	0.194	1120.2	0.102618	-419.695177	-419.686335	-419.685391	-419.730654	28.528	
O	-0.0674766373	-0.1227147817	-0.219306265	-0.230177
C	-0.108277786	 1.0804895233	-0.2010589117	 0.142516
C	 1.1192628828	 1.9589383373	-0.0351013522	-0.30645
C	 1.3914633734	 2.835489088	-1.2674608689	-0.183735
C	 0.4196397685	 4.0079742718	-1.4104435417	 0.150909
O	-0.5341932561	 4.1698697912	-0.696525307	-0.230809
C	 2.8193352695	 3.3917212562	-1.3058744931	 0.137868
O	 3.2259585682	 4.0935358417	-2.1922791518	-0.236219
H	-1.0639981883	 1.6323599832	-0.3115255489	 0.107499
H	 0.9574963554	 2.611389592	 0.8320317214	 0.140186
H	 1.9741205869	 1.3060042751	 0.1638781243	 0.126708
H	 1.292668099	 2.2560439165	-2.1987106342	 0.151713
H	 0.6775176539	 4.7095923775	-2.2278362298	 0.126182
H	 3.4560836303	 3.1106899679	-0.4385878813	 0.103806
33.5999	60.7353	82.7905	121.5184	187.7846	216.9903	308.6565	368.7404	479.4674	552.3717	642.9771	797.5453	869.3579	882.8527	961.9617	988.7116	1100.3033	1108.8647	1125.9025	1205.6215	1226.2871	1291.3504	1332.2771	1403.4419	1410.617	1420.7548	1456.3726	1809.0267	1830.483	1841.2603	2894.2954	2932.4968	2951.9105	3004.9606	3038.0805	3103.7345
O=CCC(C=O)C=O	O=CCC(C=O)C=O	
InChI=1S/C5H6O3/c6-2-1-5(3-7)4-8/h2-5H,1H2	InChI=1S/C5H6O3/c6-2-1-5(3-7)4-8/h2-5H,1H2
