16
gdb 84185	3.53101	1.16097	0.91597	3.4222	82.	-0.234	-0.0426	0.1914	1243.9073	0.123966	-396.925125	-396.916487	-396.915543	-396.95845	32.109	
C	-0.0711599315	 1.5618486921	 0.0277230435	-0.3802
C	 0.0401051456	 0.035744728	 0.0034936506	-0.051549
N	 0.8008100989	-0.4445532935	-1.1627239493	-0.308765
C	 1.7574756422	-1.1609325644	-0.697700825	 0.228692
N	 1.7900137362	-1.2811500287	 0.6947960392	-0.394148
C	 0.7509837545	-0.5286433825	 1.2370495271	 0.382393
N	 0.4242918729	-0.3184483731	 2.4456799057	-0.558097
C	 2.749868088	-1.8239704732	-1.4756674805	 0.257558
C	 3.6052231744	-2.3964506322	-2.0963815091	-0.37031
H	 0.9220494842	 2.0198045422	 0.03830679	 0.12112
H	-0.604960806	 1.9142451946	-0.8578868815	 0.128606
H	-0.6068330121	 1.8720711365	 0.9280901788	 0.142516
H	-0.969780391	-0.391300319	-0.0492326264	 0.122951
H	 2.5109683393	-1.7529844496	 1.2146767829	 0.261303
H	 1.0443786919	-0.794999266	 3.1022477401	 0.207527
H	 4.3514480624	-2.8969632012	-2.6636290362	 0.210403
92.0903	107.6998	143.2753	231.5679	244.8358	290.202	386.717	417.3148	472.0388	544.4063	582.9776	638.4572	650.6275	675.4133	703.273	732.0492	811.9519	853.3915	923.2259	990.4292	1049.897	1091.247	1118.4311	1122.6487	1203.313	1274.1678	1301.3817	1331.3399	1397.9962	1428.7828	1487.2928	1495.8012	1653.956	1760.5527	2245.7088	3028.2965	3049.4453	3125.6439	3139.2773	3458.5936	3498.6343	3660.5012
CC1N=C(NC1=N)C#C	C[C@H]1N=C(N[C]1[NH])C#C	
InChI=1S/C6H7N3/c1-3-5-8-4(2)6(7)9-5/h1,4H,2H3,(H2,7,8,9)	InChI=1S/C6H7N3/c1-3-5-8-4(2)6(7)9-5/h1,4H,2H3,(H2,7,8,9)/t4-/m1/s1
