18
gdb 74856	2.45725	1.83573	1.23687	2.4076	77.85	-0.2329	-0.0044	0.2286	1034.3982	0.148007	-401.911375	-401.903567	-401.902623	-401.943495	30.585	
C	 0.085294048	 1.49385548	 0.0283339801	-0.508244
C	-0.0047828499	 0.0001727083	-0.0033544765	 0.2377
C	-0.121849726	-0.7774271795	-1.0915376922	-0.207245
C	-0.060030419	-2.2217350897	-0.7255716986	-0.01059
O	 1.1912095413	-2.6050801423	-0.097612604	-0.262886
C	 0.0798840368	-2.2782118407	 0.7380256486	-0.043205
C	 0.0765478952	-0.8531366078	 1.2301427104	 0.262433
C	 0.7324408824	-0.4165545825	 2.4922706696	-0.280485
N	-0.725160517	-0.5780847872	 2.4421372834	-0.361306
H	 1.0857200771	 1.8265055622	 0.3313796951	 0.139824
H	-0.1238501989	 1.9191517434	-0.9561679164	 0.134371
H	-0.624620829	 1.9348728448	 0.7394718686	 0.121311
H	-0.1988218826	-0.4184325339	-2.1107372376	 0.100203
H	-0.529007237	-2.9970948536	-1.3226959583	 0.098237
H	-0.3103839047	-3.0687168608	 1.3723468438	 0.104024
H	 1.2578059935	-1.1481468836	 3.0995744892	 0.128427
H	 1.1505246506	 0.5860640521	 2.5295183813	 0.114214
H	-1.1805923308	 0.3286321107	 2.3646646836	 0.233217
108.9644	161.5743	209.9115	247.7263	266.8642	371.9659	463.1828	476.8671	532.3554	612.6524	680.2417	750.1973	808.4301	849.3274	864.5993	875.3735	905.9299	937.1396	964.1287	981.1738	1006.0862	1030.6386	1059.1782	1077.3129	1106.2092	1121.0269	1183.7052	1233.6812	1256.4538	1262.144	1306.03	1359.0318	1376.6066	1409.8772	1421.1186	1479.2319	1485.6946	1510.2195	1678.2655	3019.5527	3066.0225	3108.54	3117.8991	3159.3935	3171.6788	3194.006	3205.3509	3493.9346
CC1=CC2OC2C11CN1	CC1=C[C@H]2O[C@H]2[C@]21CN2	
InChI=1S/C7H9NO/c1-4-2-5-6(9-5)7(4)3-8-7/h2,5-6,8H,3H2,1H3	InChI=1S/C7H9NO/c1-4-2-5-6(9-5)7(4)3-8-7/h2,5-6,8H,3H2,1H3/t5-,6-,7-/m1/s1
