14
gdb 24846	2.641	1.75545	1.13274	3.6512	76.64	-0.2462	-0.1086	0.1376	1016.7416	0.10356	-429.055622	-429.048274	-429.04733	-429.088191	27.334	
N	 0.0226310759	 0.9844887427	-0.9014614895	-0.501082
C	 0.0299149498	 0.0829945818	-0.0007508018	 0.400575
N	-1.1800198677	-0.324569619	 0.5434996189	-0.327911
C	-1.5366897626	-1.47653391	 1.2305923271	 0.400569
N	-2.5851033217	-1.4567845169	 1.9547941638	-0.501084
N	-0.8150374927	-2.6718577737	 1.0236953507	-0.234995
C	 0.4496400696	-2.7287872317	 0.8934328528	-0.009176
C	 1.4221932904	-1.6125546733	 0.9015607347	-0.009176
N	 1.2420524848	-0.4088817305	 0.5296098695	-0.235015
H	 0.9815927617	 1.2720046295	-1.0909292375	 0.234372
H	-1.9357963086	 0.3348245631	 0.4171342167	 0.278264
H	-2.7880265466	-2.4039565456	 2.2708121563	 0.234374
H	 0.8906599171	-3.7246993104	 0.796381753	 0.135142
H	 2.4272443207	-1.878322076	 1.2406766153	 0.135143
60.932	78.6995	254.71	338.825	417.4228	426.4134	460.2034	519.1862	572.6138	677.823	701.5299	735.15	822.4774	843.3434	859.5795	877.5695	918.7734	939.6119	948.0024	1023.124	1116.8718	1182.8485	1357.1222	1389.7263	1428.5711	1433.8625	1439.3188	1684.588	1700.4981	1706.4382	1731.0604	3084.6849	3101.8724	3510.3954	3510.6529	3603.2051
N=C1NC(=N)N=CC=N1	[NH][C]1N[C]([NH])N=CC=N1	
InChI=1S/C4H5N5/c5-3-7-1-2-8-4(6)9-3/h1-2H,(H3,5,6,9)	InChI=1S/C4H5N5/c5-3-7-1-2-8-4(6)9-3/h1-2H,(H3,5,6,9)
