17
gdb 110347	2.99013	1.14015	0.99475	1.4585	69.08	-0.2462	-0.0253	0.2209	1212.2853	0.13458	-458.931947	-458.923108	-458.922164	-458.966024	32.349	
O	 0.0902274426	 1.2914303399	 0.2999555055	-0.412398
C	 0.0662214378	-0.0274692194	-0.2160719827	-0.096165
C	-1.3159998112	-0.6442502467	-0.0973069725	-0.050322
C	-1.6514227532	-2.0894071252	-0.1299030809	-0.091775
C	-1.8606119933	-1.2584450999	 1.1916085669	-0.215864
C	-0.8717062368	-2.1669261026	 1.8339735853	 0.365399
O	-0.6424541024	-2.4738957441	 2.9738612787	-0.333621
C	-0.5552306622	-2.944876864	 0.5192617116	 0.024849
O	-0.941851602	-4.2922291742	 0.6605863692	-0.443701
H	-0.125059235	 1.2414466909	 1.2376942669	 0.288216
H	 0.3361679878	 0.0623185766	-1.2738646816	 0.121217
H	 0.828953806	-0.6577340037	 0.2618284547	 0.099821
H	-2.0731719436	-0.0182865943	-0.5659968329	 0.115628
H	-2.4373029091	-2.5086678338	-0.7438145804	 0.123281
H	-2.7691700388	-0.8906914534	 1.653032078	 0.118293
H	 0.4481622779	-2.8611662809	 0.0834528438	 0.087979
H	-0.6479066745	-4.5792654352	 1.5342508403	 0.299163
55.5443	94.425	154.3275	200.8815	246.4492	290.9994	329.1434	360.3838	417.8664	493.4993	570.0794	638.2835	708.1551	767.3414	845.9917	884.2221	902.2381	940.2728	977.6361	1001.8231	1043.2067	1072.4262	1077.1973	1125.433	1137.621	1170.8348	1187.3242	1234.5694	1283.9201	1310.1311	1348.748	1362.6301	1392.4801	1412.1849	1447.9784	1502.9294	1858.2687	3002.7288	3022.5468	3072.2084	3135.5174	3192.4932	3214.9106	3780.2643	3805.4982
OCC1C2C1C(=O)C2O	OC[C@H]1[C@@H]2[C@H]1C(=O)[C@H]2O	
InChI=1S/C6H8O3/c7-1-2-3-4(2)6(9)5(3)8/h2-5,7-8H,1H2	InChI=1S/C6H8O3/c7-1-2-3-4(2)6(9)5(3)8/h2-5,7-8H,1H2/t2-,3+,4-,5-/m0/s1
