23
gdb 59987	3.28583	0.80216	0.75324	4.2378	78.95	-0.2424	0.0536	0.296	1643.6548	0.203169	-462.570385	-462.559403	-462.558459	-462.606248	40.954	
C	 0.0305783317	 1.584510062	-0.0784187523	-0.382888
C	 0.017358865	 0.0695447321	 0.0935155475	 0.147236
O	 0.6003795067	-0.2114621767	 1.3554324137	-0.450767
C	-1.4021494087	-0.5108179333	-0.0206565898	-0.223938
C	-1.4404225354	-2.0446947058	-0.0106008623	 0.12505
O	-0.842340756	-2.5877708622	 1.1736265574	-0.44473
C	-2.8683435338	-2.602810803	-0.141444521	 0.116393
C	-2.8870804064	-4.1093578138	-0.3848119169	-0.42063
O	-3.5040444274	-2.2645100122	 1.0969057057	-0.450914
H	 1.0472495298	 1.9643532287	 0.0546801847	 0.121248
H	-0.322895443	 1.8736041334	-1.0731709884	 0.101843
H	-0.6092165984	 2.0582749009	 0.6732899772	 0.116502
H	 0.6297107974	-0.3764082522	-0.7137147832	 0.049597
H	 0.4078263519	-1.1418945811	 1.5405535994	 0.285275
H	-2.0167231638	-0.1254987992	 0.801606898	 0.112341
H	-1.8565351728	-0.1638481618	-0.9580885858	 0.088204
H	-0.8387462372	-2.4256055515	-0.8449036152	 0.085154
H	-1.5244915987	-2.5026938857	 1.8556058956	 0.29236
H	-3.3730095616	-2.0865221443	-0.9723492016	 0.073492
H	-2.3106555503	-4.6249859177	 0.3875408181	 0.13852
H	-3.9138138856	-4.4937408115	-0.3784066945	 0.106093
H	-2.4530724483	-4.3489833287	-1.3606833095	 0.124007
H	-4.304432095	-2.7901670864	 1.1843727333	 0.290555
65.6122	83.6107	141.5005	150.4663	224.8875	232.8087	255.4986	276.9323	294.8017	320.8466	329.0115	414.8273	465.4886	471.953	488.4589	555.8108	654.1658	682.7762	822.9467	851.182	889.4927	932.3819	953.7663	992.7037	1020.658	1058.0927	1073.33	1098.5499	1119.4853	1144.7577	1180.1906	1207.1799	1225.9217	1282.035	1322.4443	1346.847	1360.6652	1377.1882	1384.2858	1402.0564	1404.6635	1416.3981	1435.8457	1463.3812	1477.5982	1487.8665	1489.1539	1500.3181	1501.5381	2911.232	2986.7542	3022.9243	3030.9998	3037.5646	3040.2046	3077.4765	3097.2046	3109.2633	3117.8589	3128.1178	3713.2119	3741.3593	3834.3838
CC(O)CC(O)C(C)O	C[C@@H](O)C[C@@H](O)[C@@H](C)O	
InChI=1S/C6H14O3/c1-4(7)3-6(9)5(2)8/h4-9H,3H2,1-2H3	InChI=1S/C6H14O3/c1-4(7)3-6(9)5(2)8/h4-9H,3H2,1-2H3/t4-,5-,6-/m1/s1
