19
gdb 96306	2.16861	1.53399	0.9799	3.1067	71.63	-0.259	0.0116	0.2706	1197.2704	0.160534	-460.204044	-460.195664	-460.19472	-460.237086	32.15	
O	-0.0090710708	 1.3975305462	 0.0513474416	-0.432287
C	-0.0134362001	-0.0225007119	 0.0101332121	 0.118332
C	-1.4823806553	-0.4295627024	 0.0993724463	-0.188303
C	-1.7433506527	-1.9377668172	 0.041943542	-0.225617
C	-1.2434659429	-2.627788863	-1.2269365388	-0.072301
O	 0.1572226243	-2.9390668636	-1.1982196598	-0.218757
C	 1.1116554711	-1.9784830883	-1.2242008656	 0.393533
O	 2.2658094923	-2.3112175357	-1.1788865901	-0.320458
C	 0.6779445606	-0.5217489864	-1.2804324142	-0.35676
H	 0.9052092197	 1.6962331288	 0.0902873867	 0.286306
H	 0.5326659088	-0.4304381459	 0.8763474225	 0.08362
H	-1.893314714	-0.0156663416	 1.0255952534	 0.113325
H	-2.0109937077	 0.0677670744	-0.7244469528	 0.108003
H	-1.296443262	-2.4477251481	 0.9041251066	 0.119398
H	-2.8246336392	-2.1053059326	 0.1086894076	 0.110932
H	-1.7191386539	-3.6047379764	-1.3366347047	 0.126352
H	-1.485104041	-2.0398404713	-2.1215904539	 0.110825
H	 0.0231084355	-0.3297662673	-2.1379247885	 0.122732
H	 1.5996442072	 0.0436115222	-1.4338298305	 0.121126
82.2808	137.7137	193.2826	289.299	309.1026	311.9159	354.7335	388.9447	449.0253	492.5281	522.7474	596.1181	680.5436	804.1692	843.2634	868.0692	904.7409	948.2257	979.5619	1026.8099	1075.3072	1088.7545	1100.7883	1109.9262	1169.6833	1192.086	1244.3271	1279.7885	1296.0591	1301.4062	1318.2958	1367.253	1385.7572	1391.0732	1420.1111	1438.5446	1474.4969	1476.5969	1494.3769	1513.9829	1836.4278	2968.5588	3027.9749	3028.9161	3034.3023	3051.2329	3075.1946	3085.5106	3106.3692	3112.8279	3817.2802
OC1CCCOC(=O)C1	O[C@H]1CCCOC(=O)C1	
InChI=1S/C6H10O3/c7-5-2-1-3-9-6(8)4-5/h5,7H,1-4H2	InChI=1S/C6H10O3/c7-5-2-1-3-9-6(8)4-5/h5,7H,1-4H2/t5-/m0/s1
