20
gdb 80584	3.30136	1.13138	0.9996	2.824	79.59	-0.2335	-0.0129	0.2206	1269.1449	0.169371	-403.125076	-403.115853	-403.114908	-403.159689	34.022	
C	-0.0371257812	 1.6589654981	-0.2249217466	-0.423299
C	 0.258422798	 0.2413585143	 0.2051072918	 0.030806
C	 0.583277769	-0.8949596821	-0.6840893248	-0.040988
C	 1.4198903219	-0.4900979037	-1.8954637649	-0.279805
C	 2.4112419491	 0.1305511438	-0.8934420216	-0.045909
N	 1.6155117307	-0.3482151004	 0.3040793723	-0.177052
C	 3.8046263718	-0.4982537029	-0.8657914049	 0.37214
C	 4.6355811451	-0.1735259561	 0.3567870001	-0.479697
O	 4.2030837929	-1.200987634	-1.7651776899	-0.294808
H	 0.4038085449	 1.9210604448	-1.1888742283	 0.12669
H	-1.1199786157	 1.7945256371	-0.3130221249	 0.126749
H	 0.3264368513	 2.3734334811	 0.5218601119	 0.127821
H	-0.3060442915	-0.0545671314	 1.0884658629	 0.098471
H	 0.1396137561	-1.8760813228	-0.5428938459	 0.095609
H	 1.8758710678	-1.3343816717	-2.4133279471	 0.139188
H	 0.9460032378	 0.1670133878	-2.6295242131	 0.1015
H	 2.5371934936	 1.2209357019	-0.9160917113	 0.086462
H	 4.0737757138	-0.4390147123	 1.2571914554	 0.165158
H	 5.5835998312	-0.7108409877	 0.3189311187	 0.137622
H	 4.8264146335	 0.9051952663	 0.4049002402	 0.133341
40.0696	112.0279	125.7458	175.159	183.4382	261.7049	302.7312	396.8879	416.1288	522.5021	548.1799	601.9647	705.233	733.3488	793.6765	817.7045	898.3537	919.0177	946.435	974.5294	991.5609	1019.6035	1041.983	1075.4043	1089.6257	1115.431	1160.5269	1167.8526	1199.7819	1235.1702	1251.5118	1271.4704	1348.5751	1359.3849	1377.4758	1412.8366	1439.3937	1466.264	1471.5697	1491.573	1500.0724	1504.196	1815.369	3020.4081	3039.3025	3039.9433	3065.188	3097.8388	3107.1347	3112.6065	3132.0864	3136.0288	3155.6831	3157.4948
CC1C2CC(N12)C(C)=O	C[C@H]1[C@H]2C[C@@H](N12)C(=O)C	
InChI=1S/C7H11NO/c1-4-6-3-7(5(2)9)8(4)6/h4,6-7H,3H2,1-2H3	InChI=1S/C7H11NO/c1-4-6-3-7(5(2)9)8(4)6/h4,6-7H,3H2,1-2H3/t4-,6+,7+,8?/m0/s1
