16
gdb 77203	3.63125	1.04773	0.90463	3.4643	76.5	-0.2552	-0.0026	0.2526	1259.1376	0.124305	-396.871967	-396.863045	-396.862101	-396.90596	32.7	
N	 0.0162255335	 1.3957431676	 0.1944627425	-0.501663
C	 0.0697327151	-0.0273523308	 0.0087298591	 0.005109
C	-1.34787988	-0.6715645668	-0.1585797897	-0.163895
N	-1.1007559732	-0.7633945617	-1.6277370217	-0.309618
C	 0.3568450617	-0.6127335832	-1.439358388	-0.16657
C	 1.0211283378	 0.277834145	-2.3847489019	 0.295333
N	 1.56433736	 1.014945181	-3.09068475	-0.323828
C	-1.5270463397	-1.9435472556	 0.5236978616	 0.325498
C	-1.6673626045	-3.0131791564	 1.0557686784	-0.450548
H	 0.9488908342	 1.7962496108	 0.2102362264	 0.246484
H	-0.4866306883	 1.8449225002	-0.5658822368	 0.250703
H	 0.6895297024	-0.4753144914	 0.7848460561	 0.112336
H	-2.1652652751	 0.0138849115	 0.0896232064	 0.118748
H	-1.3924001377	-1.63211714	-2.0624819259	 0.236335
H	 0.9136870935	-1.5569440437	-1.3822110711	 0.118319
H	-1.8011817997	-3.9510074964	 1.5365092148	 0.207256
51.5476	120.7954	147.8291	171.2484	243.5563	285.9972	352.405	380.7643	469.5429	501.0618	569.7752	609.5412	636.9363	661.8426	702.3255	797.7159	839.3317	890.4316	941.3096	975.039	1021.6652	1033.4994	1085.2039	1117.7151	1167.6496	1215.3803	1250.0309	1274.3339	1319.9951	1354.5894	1397.91	1423.9066	1662.1551	2229.0693	2352.2905	3021.3338	3050.1175	3121.5991	3497.5182	3500.5196	3540.125	3578.068
NC1C(NC1C#N)C#C	N[C@H]1[C@@H](N[C@H]1C#N)C#C	
InChI=1S/C6H7N3/c1-2-4-6(8)5(3-7)9-4/h1,4-6,9H,8H2	InChI=1S/C6H7N3/c1-2-4-6(8)5(3-7)9-4/h1,4-6,9H,8H2/t4-,5-,6-/m0/s1
