19
gdb 82612	2.44778	1.79191	1.42502	1.8267	74.41	-0.2345	0.0695	0.304	994.1908	0.160306	-422.969184	-422.96146	-422.960516	-423.001155	30.996	
C	-0.2091768944	 1.6011745834	 0.0436331921	-0.463141
C	 0.1214160143	 0.1290464442	-0.0679786042	-0.031313
C	 1.4422077598	-0.5729825687	-0.2923957612	 0.062175
O	 2.6830371791	 0.0326647132	 0.0454645074	-0.285459
C	 2.9966744422	-0.2302100448	 1.4046979603	 0.004872
C	 2.4784487068	 0.8451585958	 2.2976979257	 0.105163
O	 2.24233078	 2.11353806	 1.7864654632	-0.41471
C	 1.6574412184	-0.4441918311	 2.0946251695	-0.135506
C	 0.6806274432	-0.8128245704	 0.9900228019	-0.108793
H	-0.0680097856	 2.100900474	-0.9220387551	 0.113822
H	-1.2648537887	 1.7116263807	 0.3145873454	 0.11588
H	 0.3774565417	 2.1183146563	 0.7987016979	 0.165241
H	-0.6373098637	-0.3959741689	-0.6505231344	 0.090709
H	 1.5374407704	-1.2957384236	-1.0981339085	 0.095476
H	 3.9168961218	-0.7879948824	 1.5554614946	 0.093811
H	 2.9000465057	 0.9006263108	 3.2985572292	 0.108074
H	 2.4526468253	 2.0585080064	 0.8430982986	 0.297218
H	 1.598604854	-1.0600666402	 2.9854265018	 0.094451
H	 0.1500733298	-1.7421977345	 1.1673625459	 0.092031
116.4099	163.5272	191.5905	250.9296	289.8682	424.8876	502.5222	555.9565	611.7393	640.0318	673.2813	705.5453	733.2735	766.2591	775.0776	829.801	888.7568	915.879	997.627	1027.2826	1043.1231	1052.2218	1065.4464	1085.3869	1102.3075	1105.11	1124.2366	1142.1584	1155.792	1239.4557	1264.5734	1294.7872	1326.2483	1344.3035	1364.3164	1373.1066	1426.223	1436.3025	1453.7284	1504.2476	1531.052	3032.8326	3083.2652	3091.3042	3133.7121	3138.1976	3143.4132	3157.4302	3174.5089	3182.8683	3734.2701
CC1C2OC3C(O)C3C12	C[C@H]1[C@H]2O[C@H]3[C@@H](O)[C@H]3[C@@H]12	
InChI=1S/C7H10O2/c1-2-3-4-5(8)7(4)9-6(2)3/h2-8H,1H3	InChI=1S/C7H10O2/c1-2-3-4-5(8)7(4)9-6(2)3/h2-8H,1H3/t2-,3-,4-,5+,6-,7-/m1/s1
