20
gdb 40360	3.73406	1.28089	1.19212	0.5443	78.52	-0.2325	0.0776	0.3101	1115.0749	0.173344	-403.097404	-403.089944	-403.089	-403.129521	30.11	
C	 1.143268662	 0.9630159666	 0.0226151703	-0.233133
N	 0.3369439804	 0.109782174	-0.8678561607	-0.320596
C	-0.2329699767	 0.5661535063	 0.4103125918	-0.167188
C	-0.5009117013	-0.5010704992	 1.4160013464	 0.528215
C	-1.6727570964	-1.5174976824	 1.3168098484	-0.276796
C	-0.8575148134	-2.1901382912	 2.4632728366	-0.085345
C	 0.4191167332	-1.717470797	 1.6987984765	-0.277512
C	-0.9505368792	-1.095214458	 3.5328159782	-0.074142
O	-0.689645694	 0.0763910266	 2.7267326367	-0.32842
H	 1.9955584798	 0.4666664374	 0.4768209129	 0.120912
H	 1.3158707435	 1.9991424172	-0.2553422924	 0.113032
H	-0.040182623	 0.6625327224	-1.6326411247	 0.233662
H	-0.9934827835	 1.3446389591	 0.3824940217	 0.08766
H	-2.6761301817	-1.1453633249	 1.5407808432	 0.091806
H	-1.6587277616	-2.0903108985	 0.3889402764	 0.111049
H	-1.0119849811	-3.22222909	 2.7748938863	 0.071323
H	 0.6304255486	-2.3057839565	 0.8062157464	 0.118621
H	 1.3269999305	-1.5290114703	 2.2778906542	 0.093168
H	-1.9407344536	-1.0199755917	 3.9982036855	 0.09661
H	-0.1924486025	-1.1860063097	 4.3200014863	 0.097075
69.4877	172.857	177.8003	326.6649	383.2347	428.7158	496.2436	534.1706	619.5937	661.9773	827.246	859.4482	866.7067	878.5149	889.8147	911.5458	923.8311	955.4697	958.1642	979.1051	983.715	988.9804	1047.4216	1085.4203	1096.1384	1108.8369	1119.6567	1145.281	1157.3286	1186.6824	1190.3026	1217.8458	1247.7672	1255.175	1286.5464	1291.2223	1329.3034	1362.5614	1463.6059	1475.5456	1508.9669	1516.4536	1532.7302	3018.9061	3057.7917	3063.4701	3068.2577	3113.4969	3123.437	3127.1157	3138.9166	3150.3798	3199.9175	3509.4149
C1NC1C12CC(C1)CO2	C1N[C@H]1[C@@]12C[C@@H](C1)CO2	
InChI=1S/C7H11NO/c1-5-2-7(1,9-4-5)6-3-8-6/h5-6,8H,1-4H2	InChI=1S/C7H11NO/c1-5-2-7(1,9-4-5)6-3-8-6/h5-6,8H,1-4H2/t5-,6-,7+/m1/s1
