17
gdb 118943	2.78033	1.12684	1.01267	4.7217	65.27	-0.2555	0.0051	0.2607	1244.6819	0.133921	-496.102488	-496.093243	-496.092299	-496.137128	32.519	
C	-0.1476911927	 1.3614232054	 0.0533296312	-0.231147
O	-0.0491430641	-0.0462274816	 0.0003587542	-0.247574
C	 0.6930331713	-0.5213228466	-1.0988835942	-0.12677
C	 0.6189879113	-2.0437596935	-1.0378687961	 0.206225
O	-0.7043463867	-2.4804464544	-0.9410997762	-0.465542
C	 1.4480736359	-2.7956840632	-2.0925985389	-0.119536
O	 2.3720510188	-3.2654642273	-1.0622963258	-0.243661
C	 1.6314332407	-2.696671429	-0.0504719909	 0.403582
O	 1.816198532	-2.7756948768	 1.1186052751	-0.318756
H	 0.8422083133	 1.8285198036	 0.1577130336	 0.119067
H	-0.6325493136	 1.7660065347	-0.8478591524	 0.112907
H	-0.7518632383	 1.6101179163	 0.9279874389	 0.140295
H	 0.2486330043	-0.1761151369	-2.0478692314	 0.101574
H	 1.737498481	-0.1736880316	-1.0615943699	 0.107759
H	-1.1366348749	-1.8801298458	-0.3179001528	 0.300631
H	 0.912690328	-3.6267691594	-2.5541516988	 0.139424
H	 1.9686607839	-2.1939935338	-2.8410813856	 0.121523
65.3138	104.9472	108.6936	169.095	214.1919	226.0654	295.2383	342.387	380.0699	429.1084	470.3177	572.1567	730.2509	773.5946	786.25	925.4555	934.4808	963.0999	998.1237	1068.7288	1113.9324	1153.2515	1159.3429	1165.3122	1189.1716	1221.6163	1247.3527	1281.5942	1335.2831	1393.3581	1441.0343	1478.9045	1486.8861	1497.8117	1508.2954	1519.7291	1943.9458	2959.356	2986.1268	3004.8168	3038.044	3072.5882	3128.7649	3140.763	3759.7623
COCC1(O)COC1=O	COC[C@@]1(O)COC1=O	
InChI=1S/C5H8O4/c1-8-2-5(7)3-9-4(5)6/h7H,2-3H2,1H3	InChI=1S/C5H8O4/c1-8-2-5(7)3-9-4(5)6/h7H,2-3H2,1H3/t5-/m1/s1
