21
gdb 116544	2.88936	0.90913	0.75152	1.7235	86.9	-0.246	-0.0153	0.2307	1577.5438	0.181448	-420.44746	-420.436881	-420.435936	-420.484861	37.043	
C	-1.6480367306	-0.1077202314	 0.4411407547	-0.360232
C	-0.5772481347	-1.1997025438	 0.3478157838	-0.138782
N	-0.0079412127	-1.2330179383	-0.9836484808	-0.284643
C	 1.2267164368	-1.02904263	-1.2135153923	 0.370465
C	 2.3458281099	-0.7359048253	-0.2388385139	-0.271967
C	 3.1383805976	-1.9978717032	 0.1469415752	-0.379548
N	 1.5630397104	-1.1094347417	-2.5855382957	-0.321044
C	 2.7578224649	-0.9722386793	-3.2401177114	 0.163444
O	 3.8454289591	-0.7618722333	-2.7500421873	-0.313878
H	-1.2032391315	 0.8845901157	 0.315831314	 0.116932
H	-2.3986730434	-0.2417907614	-0.3427124082	 0.126247
H	-2.1476826672	-0.1395329296	 1.4143543275	 0.111321
H	 0.1602746668	-1.0647074802	 1.1511787838	 0.092343
H	-1.0512560798	-2.174884955	 0.5212545653	 0.108506
H	 3.0287307984	-0.0138789019	-0.6874712346	 0.1441
H	 1.9141973015	-0.2807700915	 0.6552068459	 0.110421
H	 3.651537923	-2.4109059646	-0.7239565381	 0.145176
H	 3.8964544484	-1.7485988243	 0.8949054732	 0.120383
H	 2.4829184044	-2.7661131373	 0.5684479959	 0.118052
H	 0.750150911	-1.3043402247	-3.1556064534	 0.252785
H	 2.6101244075	-1.084775399	-4.3321714135	 0.089919
19.4671	48.2185	103.028	142.2876	189.2625	210.688	221.9092	253.5726	295.0271	357.9949	386.4954	473.6178	512.7447	662.9683	720.8011	741.285	790.1993	809.587	847.2633	912.8005	986.8614	1027.666	1033.2817	1077.7837	1104.0661	1136.2489	1145.0381	1182.7517	1266.2869	1299.0048	1324.0413	1355.2169	1375.8239	1403.1134	1409.0988	1448.8075	1472.8298	1488.8248	1493.8834	1499.4808	1503.3469	1509.3286	1523.1691	1732.3421	1805.8942	2941.3093	3000.6759	3032.9436	3039.0426	3045.5616	3081.0872	3109.8581	3111.3386	3120.1036	3130.7564	3143.3523	3587.2123
CCN=C(CC)NC=O	CCN=C(CC)NC=O	
InChI=1S/C6H12N2O/c1-3-6(7-4-2)8-5-9/h5H,3-4H2,1-2H3,(H,7,8,9)	InChI=1S/C6H12N2O/c1-3-6(7-4-2)8-5-9/h5H,3-4H2,1-2H3,(H,7,8,9)
