19
gdb 39191	2.54524	2.26264	1.55561	1.6318	77.88	-0.2422	0.0134	0.2556	901.7931	0.163644	-385.895623	-385.889267	-385.888323	-385.926137	26.913	
C	 0.0129794044	 1.4938458489	-0.4233673405	-0.25088
C	 1.4742583824	 1.5620474261	 0.11090607	-0.026503
C	 1.6862977062	 2.1446839587	 1.5270115725	-0.099135
O	 2.1737011563	 1.0857020475	 2.3447228027	-0.260304
C	 1.6110328607	-0.1436140676	 1.8695538757	 0.054609
C	 0.1866583544	-0.3565983383	 2.3440650008	-0.090011
C	-0.703904459	-0.2567294641	 1.3561644234	-0.081549
C	-0.0656276273	-0.0087614061	 0.0154243173	-0.060572
C	 1.4567983731	 0.0224500908	 0.3411187686	-0.057821
H	-0.7066916649	 2.1735503385	 0.0423981646	 0.096432
H	-0.043663507	 1.6155010054	-1.5078539734	 0.099639
H	 2.2096538712	 1.9408489614	-0.6003083929	 0.074093
H	 2.4351194303	 2.94138413	 1.5576390501	 0.104056
H	 0.7431974468	 2.5472298124	 1.9256360433	 0.089305
H	 2.2990378935	-0.9300294502	 2.1943933348	 0.07684
H	-0.0475101032	-0.5052856792	 3.3924654159	 0.096808
H	-1.7812562219	-0.3112885588	 1.4815588836	 0.0949
H	-0.4105314472	-0.6972651152	-0.7602538945	 0.072734
H	 2.1260409212	-0.5870871204	-0.2638184922	 0.067358
146.9646	218.0818	351.196	377.1275	511.1354	590.2583	635.9152	686.9886	764.6949	772.5016	814.415	848.3533	859.2489	894.9672	914.9785	940.9484	957.2975	965.5327	985.2349	1001.7759	1020.6738	1062.1528	1075.2535	1087.3452	1118.1303	1151.6312	1178.0886	1217.4405	1233.2992	1250.1777	1261.3753	1280.4726	1294.5315	1312.718	1328.1119	1344.5773	1374.902	1382.9962	1480.54	1516.7721	1672.2453	2991.1633	3051.2908	3061.1337	3069.698	3075.2032	3093.7371	3109.1515	3124.7716	3171.1838	3203.0309
C1C2COC3C=CC1C23	C1[C@H]2CO[C@H]3C=C[C@@H]1[C@@H]23	
InChI=1S/C8H10O/c1-2-7-8-5(1)3-6(8)4-9-7/h1-2,5-8H,3-4H2	InChI=1S/C8H10O/c1-2-7-8-5(1)3-6(8)4-9-7/h1-2,5-8H,3-4H2/t5-,6-,7-,8-/m0/s1
