19
gdb 15069	3.00331	1.48738	1.12151	2.0418	71.53	-0.249	-0.0396	0.2094	1110.173	0.164151	-365.041608	-365.032626	-365.031682	-365.075841	31.857	
C	-0.1183516804	 1.5302954265	 0.1686812729	-0.395942
C	 0.0345848737	 0.0112584867	 0.0425988988	-0.194895
C	 0.6840673305	-0.4283818426	-1.2813747629	-0.070223
C	 2.1229706936	 0.061964374	-1.363349842	 0.130789
O	 2.7143728268	 0.2934115006	-2.3870378523	-0.249382
C	 0.626842218	-1.9483150165	-1.4586632462	 0.001961
C	 1.4314510358	-2.6595763319	-2.4783530941	-0.253419
N	 1.7175223566	-2.8516560793	-1.043072317	-0.324305
H	 0.8491149006	 2.0426826743	 0.1204822931	 0.122113
H	-0.7412425044	 1.9311072171	-0.6383034859	 0.123465
H	-0.5862914563	 1.8013899696	 1.1194508732	 0.122025
H	 0.6291120209	-0.3786935821	 0.8795587009	 0.108021
H	-0.9486066816	-0.4652125998	 0.1248060368	 0.106987
H	 0.1464858923	 0.0229782931	-2.1257266397	 0.105424
H	 2.6322553173	 0.1772259063	-0.3767038484	 0.082618
H	-0.356522566	-2.3529010037	-1.2235280558	 0.095616
H	 1.0177854168	-3.5294329987	-2.9804875476	 0.119301
H	 2.124901397	-2.0713047088	-3.072441376	 0.138471
H	 2.5500045287	-2.3256046248	-0.7869971379	 0.231376
62.2631	75.2605	110.0802	179.3305	214.5357	250.8087	292.5121	363.5444	398.4823	524.6358	543.0294	762.4857	783.7935	835.9091	897.0463	927.5717	958.4945	964.9612	1016.7056	1030.7393	1072.7076	1110.8012	1139.1521	1146.3472	1157.6329	1199.6806	1250.0981	1272.1479	1291.2741	1302.8134	1338.7125	1373.9334	1398.1723	1416.0126	1433.0044	1488.3862	1501.1695	1503.9141	1513.3192	1824.2844	2844.5328	3021.4244	3029.7954	3033.5167	3063.8462	3098.1291	3109.8409	3112.6134	3116.7257	3203.6819	3494.2999
CCC(C=O)C1CN1	CC[C@@H](C=O)[C@H]1CN1	
InChI=1S/C6H11NO/c1-2-5(4-8)6-3-7-6/h4-7H,2-3H2,1H3	InChI=1S/C6H11NO/c1-2-5(4-8)6-3-7-6/h4-7H,2-3H2,1H3/t5-,6+/m0/s1
