20
gdb 69117	2.30044	1.59365	1.15909	3.2933	79.74	-0.2422	-0.0231	0.2191	1130.3255	0.171345	-403.162554	-403.153962	-403.153018	-403.195506	33.093	
C	-0.0308868195	 1.5190329427	-0.0375629911	-0.465653
C	-0.0249915413	 0.01194158	 0.0544364154	 0.289361
C	-1.2928632077	-0.7351529254	-0.3544018305	-0.26439
C	-1.1261950771	-2.1712327849	 0.1861260708	-0.25093
C	-0.2283456302	-2.0282145171	 1.434703631	-0.284981
C	 0.6237253095	-0.799223909	 1.1624593361	 0.187006
N	 1.25289421	-0.6548013346	-0.1713281777	-0.407417
C	 1.3649323886	-0.1641454612	 2.280759021	 0.105759
O	 1.1920441825	-0.4373271699	 3.44458421	-0.269749
H	 0.934065059	 1.9386883757	 0.2527040709	 0.13262
H	-0.2324729384	 1.8310994615	-1.0688250952	 0.123368
H	-0.8105167081	 1.950089417	 0.5992995082	 0.123297
H	-2.1527674606	-0.2400066117	 0.1126393011	 0.110764
H	-1.4573118033	-0.7030743789	-1.4377567366	 0.105069
H	-2.0843621707	-2.6437074925	 0.4139804937	 0.110833
H	-0.642727381	-2.8075057913	-0.5628008776	 0.104924
H	-0.8165933043	-1.8417654895	 2.3387959599	 0.127457
H	 0.3742336343	-2.92157526	 1.6287649407	 0.109361
H	 1.1575388585	-1.5150256069	-0.7059493213	 0.232581
H	 2.1082298399	 0.5973124358	 1.9608242212	 0.080722
95.014	171.2039	187.8599	219.7593	227.6364	268.2879	335.42	445.233	458.5703	482.0658	572.2373	633.8494	685.8791	747.3277	777.9331	878.6852	889.1599	929.4196	945.6569	1015.2232	1024.1444	1042.8881	1052.0674	1071.2343	1091.7217	1131.8668	1184.4826	1215.9877	1239.9604	1274.9517	1297.2223	1311.8433	1338.0683	1378.0699	1392.1146	1412.4296	1438.2527	1485.5667	1486.5314	1493.3342	1502.4716	1513.5968	1808.8255	2904.3956	3030.1859	3035.4534	3045.8456	3053.0717	3070.3294	3089.2961	3093.3856	3106.2672	3132.1355	3497.1997
CC12CCCC1(N2)C=O	C[C@]12CCC[C@]1(N2)C=O	
InChI=1S/C7H11NO/c1-6-3-2-4-7(6,5-9)8-6/h5,8H,2-4H2,1H3	InChI=1S/C7H11NO/c1-6-3-2-4-7(6,5-9)8-6/h5,8H,2-4H2,1H3/t6-,7-/m0/s1
