17
gdb 46669	2.84466	1.79439	1.34877	3.7463	73.35	-0.234	-0.0292	0.2048	954.5518	0.138418	-417.915297	-417.908511	-417.907567	-417.946427	27.579	
O	 0.0199777298	 0.0182352273	 0.1223475452	-0.299769
C	 0.0239672703	 1.2154872701	 0.0476646514	 0.265159
C	-1.2515925545	 2.1265916628	 0.0498091447	-0.26961
N	-0.8043195719	 3.5318652113	-0.1409582118	-0.341167
C	 0.4848707729	 3.4257547646	-0.8011998298	-0.00496
C	 1.9005780167	 3.8704799202	-0.255355319	-0.075464
C	 1.565926009	 3.1706740785	 1.070860795	-0.223537
C	 1.1209566787	 2.2288598151	-0.1058258303	 0.239629
N	 2.476387536	 2.5253136727	-0.7332039934	-0.3905
H	-1.8944744494	 1.7558280759	-0.7624416699	 0.129104
H	-1.8030192606	 1.9977718167	 0.9874697609	 0.138883
H	-1.4855714278	 4.0823610181	-0.6478376514	 0.226682
H	 0.447956346	 3.3616131315	-1.900527571	 0.062573
H	 2.455469896	 4.7943695501	-0.4260170693	 0.087072
H	 2.419963369	 2.7993834659	 1.6357104422	 0.117197
H	 0.7752632503	 3.6050662804	 1.6761876423	 0.128654
H	 2.3831696997	 2.4603353787	-1.7539693358	 0.210055
115.0094	183.6323	301.9595	354.3736	482.9246	534.5711	560.7571	583.899	593.1721	620.2242	760.5246	789.9503	832.3608	889.8854	908.942	938.8354	983.7495	1003.0691	1015.1817	1033.3425	1057.0692	1086.1935	1114.2912	1139.7178	1169.383	1189.7104	1204.7939	1212.9973	1258.8327	1268.0037	1277.872	1301.1	1384.1359	1424.3114	1473.7986	1483.5535	1859.0985	2970.1123	2999.6268	3067.1938	3098.803	3111.4128	3198.6021	3365.0979	3556.2697
O=C1CNC2C3CC12N3	O=C1CN[C@H]2[C@H]3C[C@@]12N3	
InChI=1S/C6H8N2O/c9-4-2-7-5-3-1-6(4,5)8-3/h3,5,7-8H,1-2H2	InChI=1S/C6H8N2O/c9-4-2-7-5-3-1-6(4,5)8-3/h3,5,7-8H,1-2H2/t3-,5+,6-/m1/s1
