20
gdb 9677	3.73528	1.1439	1.02373	1.9037	71.92	-0.2511	0.0703	0.3214	1222.7813	0.174697	-386.119357	-386.109696	-386.108752	-386.153668	35.252	
C	-0.0216893798	 1.5748711995	-0.3473663403	-0.396882
C	 0.015790423	 0.1270734524	 0.1588007435	-0.226763
C	-1.3494203282	-0.5373738185	 0.1434002796	 0.391117
O	-2.296955093	 0.1010922692	 0.9688825177	-0.47501
C	-1.8754951853	-1.1956905284	-1.1113086373	-0.344396
C	-1.5304795787	-2.028616125	 0.1104742121	-0.022933
C	-0.3936614363	-3.0147003856	 0.0901849669	-0.110771
O	-0.8760813648	-4.2177841641	-0.4972765469	-0.417891
H	 0.9773943193	 2.0201424295	-0.3389796501	 0.116085
H	-0.4037851762	 1.6263228558	-1.3729136917	 0.117488
H	-0.6601810437	 2.199363296	 0.2863247134	 0.113723
H	 0.713210536	-0.4513844793	-0.4556258465	 0.095815
H	 0.4037238766	 0.1090397735	 1.1848825327	 0.103466
H	-2.5672350352	 0.9155882903	 0.5316421121	 0.281721
H	-2.9249975701	-1.0658931422	-1.3503354447	 0.110307
H	-1.2156338616	-1.2659356181	-1.9707513083	 0.108016
H	-2.3864265304	-2.3683135626	 0.6857136834	 0.103158
H	 0.4568681369	-2.6141810691	-0.4826779774	 0.080158
H	-0.0384340039	-3.1944992634	 1.117807503	 0.089641
H	-0.1786902346	-4.8774895699	-0.4369699411	 0.283952
67.5482	97.2566	141.6748	185.3271	232.9378	259.0908	268.9019	306.0601	325.1471	393.848	421.8597	449.2728	604.1965	690.0629	785.9703	845.8208	881.3779	916.395	937.2248	993.4707	1022.9209	1039.8687	1056.3611	1074.4468	1088.235	1131.7124	1165.7439	1222.4646	1254.3863	1284.4057	1293.8347	1310.4736	1329.3056	1375.4415	1403.1383	1412.0728	1466.1768	1477.0736	1493.0782	1501.4864	1512.1406	1519.4212	2966.9319	2996.7442	3030.4924	3032.9583	3075.4015	3102.6171	3107.1791	3126.36	3161.2548	3217.5663	3802.4769	3825.3312
CCC1(O)CC1CO	CC[C@@]1(O)C[C@H]1CO	
InChI=1S/C6H12O2/c1-2-6(8)3-5(6)4-7/h5,7-8H,2-4H2,1H3	InChI=1S/C6H12O2/c1-2-6(8)3-5(6)4-7/h5,7-8H,2-4H2,1H3/t5-,6+/m0/s1
