23
gdb 116514	3.05195	1.03171	0.83558	1.7268	82.04	-0.2403	0.0766	0.3169	1428.8234	0.207306	-425.426448	-425.417091	-425.416147	-425.460553	35.558	
O	 0.3212533055	 1.3024629554	 0.3459898341	-0.424573
C	 0.1640084849	-0.1047333772	 0.2236789436	-0.094677
C	-1.3063515395	-0.4085418221	-0.067930493	 0.037347
C	-1.4940082328	-1.9117915837	-0.3554287081	-0.196099
C	-2.8563650725	-2.2443159859	-0.9870535097	-0.235731
C	-4.0103975759	-2.3996429582	 0.0206198169	-0.060214
O	-3.9306931316	-1.5776780277	 1.1680927459	-0.242014
C	-3.6866062535	-0.1977956768	 0.939591656	-0.099861
C	-2.1983684282	 0.1324655848	 1.0609108548	-0.175521
H	 1.2305104007	 1.4836289306	 0.5997475682	 0.286443
H	 0.7899463542	-0.498935887	-0.5931753815	 0.081095
H	 0.4693701691	-0.6203532123	 1.1498257355	 0.083858
H	-1.5583380967	 0.1359953996	-0.9903463682	 0.075968
H	-0.7035452807	-2.2297903007	-1.0466721936	 0.087809
H	-1.3546100179	-2.4919669068	 0.5657756941	 0.101856
H	-3.0991390582	-1.4705691826	-1.7255587594	 0.098854
H	-2.7913930158	-3.1822103531	-1.5515375477	 0.095437
H	-4.9705105875	-2.2449223586	-0.500015667	 0.083659
H	-4.0188327121	-3.4206853716	 0.4176473457	 0.104285
H	-4.0942272555	 0.1233775657	-0.0313127186	 0.086164
H	-4.2409026555	 0.344265964	 1.7147402725	 0.100697
H	-1.8557825257	-0.2776106465	 2.0208475208	 0.095687
H	-2.0700430948	 1.2181793906	 1.1190109787	 0.109531
82.068	122.6609	149.998	204.5338	237.2093	261.1648	281.6034	319.0508	387.5562	426.5333	456.2146	552.0127	574.2456	752.6904	829.5748	840.2732	878.6846	912.6358	940.4271	974.6024	1018.9783	1035.381	1056.4947	1068.5993	1094.9899	1128.3128	1143.7495	1169.4909	1217.838	1223.2687	1249.8601	1273.2184	1282.3433	1300.5269	1325.4122	1329.2606	1356.5031	1380.5646	1384.0062	1396.6256	1410.626	1423.3946	1456.2871	1472.6163	1487.3936	1488.8771	1500.5983	1511.3312	1519.3361	2954.8523	2961.5504	2980.4549	2988.5499	2999.5901	3017.4094	3022.1433	3027.2279	3049.6277	3054.7775	3059.6717	3072.878	3084.3017	3834.1246
OCC1CCCOCC1	OC[C@H]1CCCOCC1	
InChI=1S/C7H14O2/c8-6-7-2-1-4-9-5-3-7/h7-8H,1-6H2	InChI=1S/C7H14O2/c8-6-7-2-1-4-9-5-3-7/h7-8H,1-6H2/t7-/m0/s1
