21
gdb 104252	2.22797	1.2875	1.09538	1.0917	84.48	-0.2473	0.0379	0.2853	1255.4486	0.179696	-387.050133	-387.04007	-387.039125	-387.084976	37.457	
C	-0.2450601825	 1.5611124312	 0.0976484584	-0.396265
C	 0.2574162613	 0.1259244451	-0.090628775	-0.215924
C	 0.8394637753	-0.4883302917	 1.184646947	 0.435795
C	 2.090766981	 0.2135178878	 1.687533017	-0.446316
O	-0.1748312465	-0.5481652936	 2.2331282708	-0.321478
C	-0.3018860527	-1.9727567364	 2.1181330386	-0.082118
C	 0.927588789	-2.0608242045	 1.1784075412	-0.308454
C	 0.806467882	-2.7962112802	-0.0608751008	 0.346128
C	 0.6990173303	-3.4163147903	-1.0859986225	-0.468045
H	 0.5715624037	 2.2636351105	 0.2898654705	 0.114333
H	-0.7681595026	 1.9047449388	-0.7995369371	 0.111608
H	-0.9417595352	 1.6106658156	 0.9392629384	 0.136197
H	-0.570693762	-0.5060380576	-0.42859505	 0.105716
H	 1.0162470251	 0.0807999214	-0.8813820483	 0.100429
H	 1.8838096406	 1.2622576237	 1.9176278655	 0.130831
H	 2.4567908959	-0.2635560778	 2.6008659172	 0.118087
H	 2.8823731981	 0.1767454371	 0.9312407752	 0.120322
H	-0.2065406252	-2.4784297715	 3.0849499175	 0.107823
H	-1.2436150479	-2.2728188245	 1.642735224	 0.107192
H	 1.8184249388	-2.3916408846	 1.720272437	 0.106264
H	 0.6064750433	-3.9631633686	-1.9915591947	 0.197877
71.8322	93.5944	125.1662	179.0493	206.5542	223.3552	255.9581	323.9706	352.0137	371.0932	456.7029	508.9709	573.8299	620.069	639.365	652.3439	733.4477	785.3034	874.0801	898.2439	947.4255	998.2757	1015.7268	1025.3384	1053.483	1066.9248	1095.3449	1157.4167	1171.2378	1184.7958	1217.8447	1257.6089	1310.625	1342.3619	1366.7183	1375.6368	1405.174	1406.9915	1471.3948	1485.1185	1492.5849	1506.1681	1510.9676	1526.9134	2232.9428	3021.2756	3034.4211	3039.4356	3042.9654	3057.3685	3072.6485	3076.2869	3107.5524	3111.2461	3119.2457	3122.0389	3502.7623
CCC1(C)OCC1C#C	CC[C@@]1(C)OC[C@H]1C#C	
InChI=1S/C8H12O/c1-4-7-6-9-8(7,3)5-2/h1,7H,5-6H2,2-3H3	InChI=1S/C8H12O/c1-4-7-6-9-8(7,3)5-2/h1,7H,5-6H2,2-3H3/t7-,8-/m1/s1
