19
gdb 117592	2.10476	1.08808	0.9186	4.6643	80.37	-0.3317	-0.008	0.3237	1395.0012	0.157446	-382.103715	-382.093351	-382.092407	-382.139244	36.587	
C	-0.0495635883	 1.6198507107	-0.0449595238	-0.386547
C	 0.0014635676	 0.0902103866	 0.0261872343	-0.204195
C	 0.7214669498	-0.5072091122	-1.1869068278	-0.184588
C	 0.7456077978	-2.0703408707	-1.235393768	-0.095174
C	 1.5025074323	-2.6911617216	-0.0308565928	-0.407767
C	-0.6357563042	-2.5890171829	-1.2627032372	 0.30873
N	-1.7235054802	-2.9768776682	-1.2470200916	-0.330262
C	 1.4229329228	-2.4780582407	-2.4811598468	 0.29641
N	 1.9919635729	-2.7710821125	-3.4423717858	-0.322678
H	 0.9566628468	 2.0516194813	-0.0747348464	 0.121046
H	-0.583402514	 1.9573130429	-0.9394694043	 0.126339
H	-0.5642907595	 2.0331342271	 0.8268972286	 0.124643
H	 0.5064495164	-0.2116822505	 0.9506298791	 0.10784
H	-1.0173915398	-0.3104917424	 0.0797671169	 0.131348
H	 0.249682074	-0.1508344798	-2.1084330273	 0.134963
H	 1.7646916521	-0.1731776224	-1.2159375086	 0.125005
H	 0.98334822	-2.4571345595	 0.8994950648	 0.151001
H	 1.5625964802	-3.7759842936	-0.1339157802	 0.158111
H	 2.5152701232	-2.2831693916	 0.0085755869	 0.145774
77.0304	92.9683	119.9672	137.5676	189.1652	216.2704	243.3868	247.0517	298.5718	320.3191	387.2106	482.1894	528.323	587.931	606.6844	704.9306	749.2428	866.4429	897.8391	941.0252	951.1232	1024.0438	1050.0038	1108.7879	1142.275	1185.9767	1212.9295	1289.248	1325.5732	1344.2436	1396.2802	1411.2619	1417.5351	1477.7442	1488.293	1493.8707	1497.8262	1500.6323	1511.3229	2360.8419	2366.2784	3034.941	3036.1649	3046.5983	3062.1489	3068.3521	3092.1557	3107.6079	3113.7288	3144.4957	3154.4236
CCCC(C)(C#N)C#N	CCCC(C)(C#N)C#N	
InChI=1S/C7H10N2/c1-3-4-7(2,5-8)6-9/h3-4H2,1-2H3	InChI=1S/C7H10N2/c1-3-4-7(2,5-8)6-9/h3-4H2,1-2H3
