17
gdb 88727	3.34564	1.09987	0.90584	2.3217	74.42	-0.2432	0.0034	0.2465	1257.1985	0.135221	-417.960099	-417.951533	-417.950588	-417.993937	31.816	
O	-0.0317471387	 1.4718952248	 0.160741894	-0.428346
C	 0.0906026124	 0.0906881284	 0.056309704	 0.128483
C	-0.3818128428	-0.8129416208	 1.1667963876	-0.33923
C	-1.1503964139	-0.749301993	-0.138654078	-0.014073
N	-2.3730962605	 0.0136303929	-0.1220873226	-0.100757
C	-3.2608740285	-0.081311195	-1.2644162377	-0.241352
C	-3.6563713753	-0.6843852701	 0.0534700415	-0.144892
C	-3.6912547655	-2.1207137126	 0.18038519	 0.29298
N	-3.7208686136	-3.2703259819	 0.3033816839	-0.331267
H	-0.9769277974	 1.6522558826	 0.2603916543	 0.287667
H	 0.9850605669	-0.1877850491	-0.4913171394	 0.110175
H	 0.1643755277	-1.7229981281	 1.3874604948	 0.125346
H	-0.8390601187	-0.3301164629	 2.0237832775	 0.124858
H	-1.1180870316	-1.6130313528	-0.8015852779	 0.103182
H	-3.7386492998	 0.8397499868	-1.584440186	 0.139204
H	-2.9968370372	-0.773369256	-2.060923178	 0.144076
H	-4.3751456734	-0.1667765433	 0.6821025419	 0.143946
48.7972	99.4547	174.897	192.6281	249.0869	334.1154	371.4414	424.156	476.7036	548.0443	567.4155	658.3195	747.5834	788.4152	801.1396	834.6806	889.613	960.836	1014.954	1019.9591	1044.2253	1064.9318	1086.6164	1116.0614	1126.2139	1128.147	1141.2507	1183.6904	1225.6431	1314.322	1346.2982	1371.4971	1381.6605	1434.1225	1482.0302	1503.6039	2354.5277	3106.7752	3109.2948	3137.3523	3154.5884	3166.6213	3203.0364	3229.9702	3740.2347
OC1CC1N1CC1C#N	O[C@H]1C[C@H]1N1C[C@H]1C#N	
InChI=1S/C6H8N2O/c7-2-4-3-8(4)5-1-6(5)9/h4-6,9H,1,3H2	InChI=1S/C6H8N2O/c7-2-4-3-8(4)5-1-6(5)9/h4-6,9H,1,3H2/t4-,5-,6+,8?/m1/s1
