17
gdb 15580	2.58988	2.14486	1.46493	4.1798	67.43	-0.275	0.0205	0.2955	904.5739	0.143098	-363.884885	-363.876985	-363.876041	-363.917455	28.523	
C	-0.2649586572	 1.5502844221	-0.0642668345	-0.425472
C	 0.0187252867	 0.0524339404	-0.0177596583	 0.01063
C	 0.9419718795	-0.4899146291	-1.1223952536	-0.251378
C	 1.4302916513	-1.8249540305	-0.5403652979	-0.076146
O	 1.2462237477	-1.7499047032	 0.8873362381	-0.254479
C	 0.7534208091	-0.4718177158	 1.23873651	-0.032145
C	 1.8618889634	 0.4197400153	 1.6566310277	 0.275996
N	 2.7299289304	 1.1137862535	 1.9740136825	-0.333337
H	 0.6599706819	 2.1326584812	-0.0166247281	 0.145907
H	-0.7827782164	 1.8104142759	-0.9922685739	 0.123698
H	-0.9026969787	 1.8618079762	 0.7692970215	 0.124562
H	-0.9287948403	-0.4991438427	-0.049988981	 0.094161
H	 0.4281758177	-0.6125486695	-2.0784809527	 0.113285
H	 1.7797021369	 0.1984922137	-1.2767460767	 0.125986
H	 0.8419029326	-2.675167779	-0.9039383436	 0.111747
H	 2.4856746017	-2.0197703466	-0.7572307963	 0.11812
H	 0.0806827536	-0.5904391021	 2.0945859768	 0.128865
69.2483	130.8917	152.8149	226.3297	248.9702	298.4881	403.6101	491.2013	582.4277	618.2817	715.8131	815.5418	877.3495	897.8866	925.5079	951.0587	978.5176	1007.3389	1075.8475	1110.6592	1148.0101	1164.3975	1201.2014	1235.2799	1281.3064	1309.4533	1330.2338	1366.0972	1376.6054	1392.6844	1419.9286	1493.5202	1499.7759	1500.434	1530.1984	2349.6416	3032.6366	3034.0009	3039.8892	3054.0937	3062.9054	3075.0992	3106.6479	3112.474	3118.6648
CC1CCOC1C#N	C[C@H]1CCO[C@H]1C#N	
InChI=1S/C6H9NO/c1-5-2-3-8-6(5)4-7/h5-6H,2-3H2,1H3	InChI=1S/C6H9NO/c1-5-2-3-8-6(5)4-7/h5-6H,2-3H2,1H3/t5-,6-/m0/s1
