14
gdb 49897	2.41051	1.78924	1.32533	5.554	64.61	-0.2348	-0.0424	0.1924	956.925	0.101133	-473.872847	-473.865227	-473.864283	-473.905503	27.818	
O	 0.8098972836	-0.0556032766	-0.4416992987	-0.227591
C	 0.3582017182	 1.0365441144	-0.2318432143	 0.15834
C	 1.1977264774	 2.240736088	 0.2036795359	-0.034002
O	 2.4829411793	 1.8153706185	 0.662071193	-0.239181
C	 3.4573930217	 1.5051501392	-0.2280945737	 0.493872
O	 4.4208625403	 0.8649936526	 0.086380081	-0.367861
N	 3.289944237	 2.0531613543	-1.4944387813	-0.378536
C	 2.3306913986	 3.0138536381	-1.783034456	 0.034111
C	 1.2895997265	 3.1868585853	-0.9667019552	-0.178312
H	-0.7162313815	 1.2797143281	-0.3926901901	 0.086873
H	 0.7189767855	 2.7123096795	 1.0688003757	 0.125303
H	 4.0759958569	 1.9123558174	-2.1075352643	 0.272851
H	 2.5076752137	 3.604556979	-2.673709487	 0.135664
H	 0.5389799329	 3.9457257322	-1.1304260549	 0.118469
75.0639	110.363	147.4382	276.1762	297.9892	468.4885	473.7699	531.3028	557.0308	585.185	708.6273	736.401	784.6139	787.7855	883.1507	936.1749	945.7509	975.8171	1040.7755	1080.7734	1149.9435	1177.4179	1245.7499	1272.811	1377.0619	1396.7078	1418.2654	1469.8731	1717.0554	1838.0355	1872.8888	2881.7809	3057.0948	3208.2926	3246.134	3660.6817
O=CC1OC(=O)NC=C1	O=C[C@H]1OC(=O)NC=C1	
InChI=1S/C5H5NO3/c7-3-4-1-2-6-5(8)9-4/h1-4H,(H,6,8)	InChI=1S/C5H5NO3/c7-3-4-1-2-6-5(8)9-4/h1-4H,(H,6,8)/t4-/m0/s1
