21
gdb 41382	2.53897	1.91032	1.33338	0.4838	88.75	-0.2187	0.0238	0.2425	1033.3694	0.18497	-349.929939	-349.922543	-349.921599	-349.961537	30.568	
C	 0.1903187498	 1.6148617838	 0.4424317152	-0.216873
C	 1.4483742268	 1.6786314268	-0.4653013828	-0.289
C	 1.3562686024	 0.145147479	-0.6556644518	 0.333605
C	 2.0387219142	-0.5580165299	-1.8745737395	-0.321332
C	 3.1870096447	-1.039910687	-0.9029279125	-0.313407
C	 2.179187118	-0.7775042053	 0.1944144923	 0.23077
C	 1.4890753266	-1.40502063	 1.1435223999	-0.208814
C	 0.0444924902	-0.9187826981	 1.1784559475	-0.262711
C	-0.0520751205	 0.1294395509	 0.0309111884	-0.105897
H	 0.4193437226	 1.7188491982	 1.5065301158	 0.100562
H	-0.6089880738	 2.3169236863	 0.1940269272	 0.095296
H	 1.2562284724	 2.2119476181	-1.4021194266	 0.094328
H	 2.3682758171	 2.0754118691	-0.0251668397	 0.094223
H	 1.4598719065	-1.4023147136	-2.2573481395	 0.108153
H	 2.3360354116	 0.0901655347	-2.7042562439	 0.095908
H	 3.5677564454	-2.0577960757	-1.0131845694	 0.106701
H	 4.0290173461	-0.3405634477	-0.9132741817	 0.110248
H	 1.8224666118	-2.2569597035	 1.7268723953	 0.085689
H	-0.6267985948	-1.7730894381	 1.0151701917	 0.099536
H	-0.2558129945	-0.4821070582	 2.1409313364	 0.100021
H	-0.9312112925	-0.0108344499	-0.6018247623	 0.062995
98.3694	206.2302	231.5527	249.43	375.5953	428.3779	509.673	600.6692	669.1026	715.1068	741.5681	786.9015	805.2279	814.489	853.2333	880.3209	894.7	910.3324	948.1797	952.3683	963.7072	1029.7905	1042.7641	1081.7627	1098.408	1119.5738	1147.4163	1170.6754	1190.2387	1203.0731	1215.6455	1222.1977	1233.1806	1255.9113	1267.9863	1279.0406	1298.2933	1319.443	1335.9031	1467.543	1475.9774	1482.7696	1484.8698	1496.2228	1722.835	3004.9427	3028.2259	3039.2118	3048.0469	3052.7871	3058.6139	3078.8425	3086.0303	3102.9001	3113.5868	3118.1666	3184.3388
C1CC23CCC2=CCC13	C1C[C@@]23CC[C]2[CH]C[C@@H]13	
InChI=1S/C9H12/c1-2-8-4-6-9(8)5-3-7(1)9/h1,8H,2-6H2	InChI=1S/C9H12/c1-2-8-4-6-9(8)5-3-7(1)9/h1,8H,2-6H2/t8-,9-/m0/s1
