23
gdb 104431	2.90516	1.19956	1.07726	0.9705	88.09	-0.2391	0.0234	0.2625	1273.7865	0.205729	-388.301725	-388.292235	-388.291291	-388.335796	36.588	
C	-0.1250447926	 1.3573158565	-0.1184166702	-0.245737
O	 0.0814430802	-0.0304042913	 0.0102456946	-0.287761
C	 0.7061648283	-0.5178191677	 1.2159153684	 0.365876
C	-0.041541557	-0.0126569869	 2.4615463653	-0.436215
C	 0.594533724	-2.0470031499	 1.0784593657	-0.234387
C	 1.5830514443	-2.7983405547	 1.9750110573	-0.219908
C	 3.0308930059	-2.4192703087	 1.6350387596	-0.241919
C	 3.1844792383	-0.9353513416	 1.433579739	-0.063945
C	 2.1625614128	-0.098905448	 1.2587082723	-0.086902
H	 0.8051368214	 1.9400130551	-0.0578208706	 0.103908
H	-0.5548622472	 1.5115272953	-1.1120082923	 0.125097
H	-0.8293928379	 1.754961771	 0.6255259967	 0.103975
H	-1.1174581041	-0.1840895477	 2.3498226859	 0.118691
H	 0.3056243458	-0.5434076907	 3.3519407968	 0.12095
H	 0.1248971287	 1.054266675	 2.6367191253	 0.112773
H	-0.4362114005	-2.3533258808	 1.2860112531	 0.090963
H	 0.7924052585	-2.287153828	 0.0279020828	 0.106854
H	 1.3861619254	-2.5637039503	 3.0285244049	 0.09968
H	 1.4373942393	-3.8784830045	 1.8679448462	 0.093365
H	 3.7141100982	-2.7621369571	 2.4221233125	 0.100129
H	 3.3536891831	-2.9407445231	 0.7210851445	 0.110176
H	 4.1998027977	-0.5435637779	 1.4267130535	 0.083789
H	 2.3599241373	 0.9633462862	 1.1382153787	 0.080546
60.4279	105.8443	189.366	201.8582	250.6877	282.9392	303.3404	336.2281	379.8324	417.078	469.6328	521.5022	536.855	669.7435	720.5334	754.1358	853.3694	866.9684	885.5684	921.7005	977.1431	997.8711	1004.3831	1011.2768	1073.2383	1103.8355	1120.3876	1148.9578	1156.7877	1179.0701	1204.7256	1229.7262	1261.1686	1283.9806	1295.0554	1360.1699	1370.7969	1375.1219	1395.5911	1426.0285	1473.9246	1475.6779	1481.8636	1488.5637	1491.8084	1499.1213	1507.7863	1510.62	1721.8366	2990.0928	2995.5449	3025.5101	3034.1365	3038.3921	3040.7002	3043.2573	3070.6185	3084.1178	3102.66	3108.6706	3117.1655	3136.4189	3163.0109
COC1(C)CCCC=C1	CO[C@@]1(C)CCCC=C1	
InChI=1S/C8H14O/c1-8(9-2)6-4-3-5-7-8/h4,6H,3,5,7H2,1-2H3	InChI=1S/C8H14O/c1-8(9-2)6-4-3-5-7-8/h4,6H,3,5,7H2,1-2H3/t8-/m1/s1
