21
gdb 84540	2.78882	1.30712	1.17005	1.2096	84.2	-0.2165	0.0197	0.2362	1179.6364	0.181764	-387.091335	-387.082405	-387.081461	-387.124155	35.436	
C	-0.0125571061	 1.5810604367	 0.0439743102	-0.397828
C	 0.0144015998	 0.0454520536	-0.0120393916	-0.040722
C	 0.7984047091	-0.4848961864	-1.1995364758	-0.092934
C	 1.8542112965	-1.2169880073	-0.8307900504	-0.090512
C	 1.9421439654	-1.362193484	 0.6460018514	-0.16113
C	 0.7429316492	-0.5736682825	 1.1879174017	-0.089267
C	 0.7896041967	-2.059790847	 1.3753454135	 0.385627
C	-0.1555148394	-3.0327594051	 0.7132609988	-0.460438
O	 1.0744961393	-2.3822637892	 2.7167386081	-0.466204
H	 1.0030466112	 1.9835208751	 0.11519803	 0.120503
H	-0.4787792523	 1.9993917931	-0.8541359561	 0.109575
H	-0.580492686	 1.9307362994	 0.9128568948	 0.113305
H	-1.0260654706	-0.3083624439	-0.0579722062	 0.081014
H	 0.5005753435	-0.2805322241	-2.2225902026	 0.090186
H	 2.5593755464	-1.6833849923	-1.5102990122	 0.091944
H	 2.9019833663	-1.3650855893	 1.1517705119	 0.083933
H	 0.8415749693	 0.0123910266	 2.0949896619	 0.091203
H	-0.329842753	-2.7870766824	-0.3351315852	 0.129576
H	 0.2568376284	-4.0491775859	 0.7522515457	 0.10157
H	-1.1158966177	-3.0420059347	 1.2391228954	 0.12312
H	 1.5206458138	-3.2367946905	 2.7224592166	 0.277476
126.2942	187.8911	207.736	225.3908	246.5995	282.3659	302.5702	359.9315	405.1173	424.2415	500.7059	562.2994	660.8407	726.0133	763.401	784.3651	848.0084	873.3533	893.4138	948.8087	965.3411	978.8652	1007.4061	1017.8463	1052.3467	1063.6201	1086.1522	1094.4093	1129.3394	1141.8892	1179.9374	1269.1658	1276.1673	1297.6919	1303.0638	1336.1549	1379.4445	1405.5112	1411.8673	1432.8804	1492.7931	1494.497	1499.0829	1499.3528	1659.3025	2994.239	3024.0422	3029.1194	3085.2211	3098.6656	3105.3965	3138.6947	3162.3641	3174.6768	3177.8123	3202.4318	3788.8411
CC1C=CC2C1C2(C)O	C[C@H]1C=C[C@H]2[C@@H]1[C@]2(C)O	
InChI=1S/C8H12O/c1-5-3-4-6-7(5)8(6,2)9/h3-7,9H,1-2H3	InChI=1S/C8H12O/c1-5-3-4-6-7(5)8(6,2)9/h3-7,9H,1-2H3/t5-,6-,7+,8+/m0/s1
