12
gdb 128959	7.88407	0.8116	0.73925	3.8029	60.89	-0.2923	-0.0394	0.2529	1380.687	0.078162	-468.796234	-468.788852	-468.787908	-468.829359	25.263	
N	 0.0266308257	-1.1138460495	-0.0049440922	-0.27899
C	 0.0359937593	 0.0400414284	 0.0022373983	 0.283832
C	-0.0102376173	 1.5005364008	 0.0120101454	-0.216061
O	 1.3342058239	 1.9895827292	-0.0006135902	-0.236533
C	 1.4394255412	 3.3151781879	 0.0060932872	 0.481983
N	 0.4155600934	 4.1351056266	 0.0229426248	-0.215543
O	 1.0408712947	 5.3931935396	 0.0231273609	-0.164691
C	 2.3521072649	 5.1553562953	 0.0064962358	 0.121812
N	 2.6776884561	 3.9025482625	-0.0048766131	-0.316334
H	-0.5573147106	 1.8665675886	-0.8643273699	 0.180493
H	-0.5366200217	 1.8553711049	 0.9054632582	 0.18048
H	 3.0083713604	 6.0133967858	 0.0039530747	 0.179553
45.7846	120.0829	124.5205	240.8634	340.0149	385.3133	447.4329	543.8871	616.8539	773.0119	784.9181	914.7261	941.8817	963.814	979.5307	1019.6246	1028.5579	1085.7485	1153.504	1253.2639	1310.562	1371.6673	1426.5446	1483.2494	1559.3824	1615.7611	2380.6299	3044.3201	3084.3155	3269.2861
N#CCOC1=NOC=N1	N#CCOc1nocn1	
InChI=1S/C4H3N3O2/c5-1-2-8-4-6-3-9-7-4/h3H,2H2	InChI=1S/C4H3N3O2/c5-1-2-8-4-6-3-9-7-4/h3H,2H2
