19
gdb 111110	2.36691	1.48593	1.18	2.7955	70.27	-0.2442	0.0646	0.3087	1105.9515	0.159901	-460.123036	-460.114653	-460.113709	-460.156146	32.201	
O	-0.1740330392	 1.5768677485	-0.1549716161	-0.425993
C	 0.0841413642	 0.2024776505	 0.122082527	-0.136486
C	-1.2479138344	-0.5108247671	 0.0105696948	 0.056153
C	-1.9498617826	-0.8098210765	-1.3373462025	 0.067905
C	-0.9430615978	-1.6488052156	-2.1481033914	-0.271788
C	-0.5573348071	-2.6495275731	-1.0064163131	 0.122308
O	 0.8026106804	-2.6496769124	-0.606650222	-0.436136
C	-1.4502913682	-2.0430574538	 0.0971068906	 0.015424
O	-2.6965214775	-1.8691693285	-0.643100434	-0.304704
H	 0.6605265944	 2.0516455129	-0.1040168654	 0.286487
H	 0.8254597257	-0.2158520526	-0.5664382893	 0.100127
H	 0.4795471447	 0.0660841358	 1.1415842568	 0.089147
H	-1.9726701662	-0.0317358069	 0.6734329853	 0.096602
H	-2.5759370437	-0.0836126798	-1.8536895711	 0.084626
H	-1.4287766733	-2.1367098533	-2.9957454332	 0.105688
H	-0.0804806989	-1.0813986076	-2.5084505664	 0.10308
H	-0.8946052237	-3.6681353044	-1.2325602529	 0.08027
H	 1.3198547285	-3.0740678551	-1.2974506088	 0.287807
H	-1.5475390851	-2.5868696213	 1.0364230019	 0.079484
64.8955	156.703	206.961	242.9841	259.6585	268.7112	358.496	425.6177	457.3129	530.1108	597.184	723.4149	778.4147	842.4274	851.7502	872.7688	905.3075	936.2427	986.0799	1009.3452	1038.8474	1055.128	1070.1088	1094.2776	1132.6998	1153.9245	1172.7707	1190.9713	1216.3089	1242.0769	1260.3609	1269.3904	1284.3341	1298.7765	1325.2312	1352.6747	1385.5339	1423.1078	1466.2054	1479.9531	1529.4362	2976.4208	3029.7368	3064.0163	3067.8993	3092.1977	3118.964	3127.7205	3135.9866	3828.6412	3830.3588
OCC1C2CC(O)C1O2	OC[C@H]1[C@H]2C[C@@H](O)[C@@H]1O2	
InChI=1S/C6H10O3/c7-2-3-5-1-4(8)6(3)9-5/h3-8H,1-2H2	InChI=1S/C6H10O3/c7-2-3-5-1-4(8)6(3)9-5/h3-8H,1-2H2/t3-,4+,5+,6+/m0/s1
