20
gdb 116781	3.35662	0.83816	0.78899	3.6176	79.02	-0.2349	0.0315	0.2664	1547.6298	0.167669	-440.250816	-440.240279	-440.239335	-440.287336	36.851	
C	 0.1817700784	 0.5891690778	 0.5952249008	-0.249325
O	-0.250054568	-0.0867337863	-0.577144924	-0.196453
C	 0.658897947	-0.9236292134	-1.1276037336	 0.140117
N	 0.3727563021	-1.5334195066	-2.1899782292	-0.247591
C	 1.3243863111	-2.4477072579	-2.7973993453	-0.171302
C	 2.5130100848	-2.9233941873	-1.9828285152	 0.408129
O	 3.422232025	-1.8663288035	-1.7694515001	-0.469129
C	 2.3134982384	-3.9612570682	-0.9087503017	-0.320191
C	 3.0378448216	-4.3159384063	-2.1987969028	-0.343193
H	 0.4577956411	-0.1151599975	 1.3903227769	 0.12095
H	 1.0334406654	 1.2498213711	 0.3906976579	 0.126153
H	-0.6625429334	 1.1918487199	 0.9329273417	 0.141518
H	 1.6052348749	-0.9903753664	-0.5805345396	 0.095262
H	 0.7625401507	-3.3329596406	-3.1187238723	 0.106026
H	 1.7033393579	-1.9818097807	-3.7172570792	 0.11885
H	 4.2161303329	-2.2185880486	-1.3549799384	 0.281142
H	 2.9111343965	-3.8749835469	-0.0063272529	 0.105535
H	 1.3180816437	-4.3603046784	-0.7450860464	 0.126197
H	 2.5423559597	-4.9627875976	-2.9151573189	 0.120993
H	 4.11360874	-4.4583732327	-2.1483298476	 0.106313
46.6663	69.5075	111.9368	121.1823	153.2842	163.0665	236.6971	277.1007	318.016	346.5326	392.1184	455.2771	497.2161	627.0531	744.7046	768.2737	885.3418	910.5564	935.3802	972.4161	985.2699	1028.526	1036.2989	1052.3824	1067.1316	1072.912	1173.4923	1177.8025	1179.0278	1185.0178	1238.5097	1275.2851	1343.7288	1363.2175	1423.3265	1433.1741	1463.0822	1469.6988	1487.2607	1494.419	1501.5316	1502.569	1774.9635	3008.4581	3017.8048	3051.7558	3070.0732	3070.6351	3119.3877	3125.3818	3139.2118	3200.0802	3215.4343	3819.0506
COC=NCC1(O)CC1	COC=NCC1(O)CC1	
InChI=1S/C6H11NO2/c1-9-5-7-4-6(8)2-3-6/h5,8H,2-4H2,1H3	InChI=1S/C6H11NO2/c1-9-5-7-4-6(8)2-3-6/h5,8H,2-4H2,1H3
