18
gdb 95012	3.02173	1.69343	1.38421	1.1963	70.35	-0.2383	0.0659	0.3042	957.9625	0.150439	-439.007943	-439.001013	-439.000069	-439.039144	28.277	
O	 0.1224730822	 1.4334964253	-0.1650581925	-0.438958
C	 0.083985622	 0.0182289919	-0.0182115478	 0.086109
C	 0.7580492755	-0.4633732496	 1.2657216924	-0.114308
O	-0.1125667376	-0.3140594849	 2.3838832692	-0.282762
C	-1.4140796126	-0.7616224978	 2.1273180934	 0.172414
C	-1.705721231	-1.7107069937	 0.9196293965	-0.110069
N	-3.1385471112	-1.2357247624	 1.0349152433	-0.329929
C	-2.2967264501	 0.0200205856	 1.1135117382	-0.085488
C	-1.3560445366	-0.5058397201	-0.0159181877	-0.037922
H	-0.2427645175	 1.8154535997	 0.6411961219	 0.287883
H	 0.6356831239	-0.3737668336	-0.8794885896	 0.089863
H	 1.0451800311	-1.5206119485	 1.1566133632	 0.097126
H	 1.6550747067	 0.1226291515	 1.4798368667	 0.117829
H	-1.8962932481	-1.0219061663	 3.0694007123	 0.101485
H	-1.4624591031	-2.767684781	 0.7990951226	 0.084208
H	-3.5674217885	-1.2804900119	 0.1053081771	 0.210082
H	-2.7454494016	 1.0092070813	 1.2210630835	 0.082066
H	-1.8134566835	-0.5339322754	-1.0100271227	 0.070371
118.0919	190.7259	333.7776	353.6406	383.6719	438.6506	469.6021	556.347	615.4793	755.7855	774.4346	840.1913	862.2637	879.5212	890.0247	912.0858	960.2307	986.7691	1015.1613	1026.5893	1084.2551	1111.7577	1117.0812	1129.6644	1149.0636	1163.9171	1199.1177	1204.6607	1243.152	1266.3776	1275.0913	1294.4913	1303.364	1334.8432	1343.0036	1391.303	1408.3505	1432.6399	1495.7067	2987.393	3052.792	3065.9341	3097.3445	3101.2898	3103.8294	3127.3902	3389.1434	3799.2811
OC1COC2C3NC2C13	O[C@H]1CO[C@@H]2[C@H]3N[C@@H]2[C@@H]13	
InChI=1S/C6H9NO2/c8-2-1-9-6-4-3(2)5(6)7-4/h2-8H,1H2	InChI=1S/C6H9NO2/c8-2-1-9-6-4-3(2)5(6)7-4/h2-8H,1H2/t2-,3-,4-,5+,6+/m0/s1
