16
gdb 116555	4.09743	0.96484	0.81645	2.5526	80.02	-0.2725	-0.0872	0.1853	1387.9563	0.124237	-437.94522	-437.936986	-437.936042	-437.979267	29.721	
C	 0.0609098016	 1.5437707074	-0.2652359142	-0.365093
C	-0.093806165	 0.0306410392	-0.0907775293	-0.156509
N	-1.4927402248	-0.3474263898	-0.2377193965	-0.308157
C	-1.834303546	-1.2392932481	-1.0589300603	 0.432724
O	-0.9758756118	-1.95456543	-1.884069389	-0.237666
C	-1.7294261462	-2.8470161365	-2.6451475383	 0.423018
O	-1.2273648596	-3.5828724644	-3.4399356143	-0.317093
C	-3.1470704649	-2.6627758532	-2.2540403024	-0.2373
C	-3.1997956302	-1.7109385812	-1.3166410275	-0.1501
H	 1.0970006444	 1.8413132866	-0.0785850366	 0.118241
H	-0.2038375954	 1.847132181	-1.2825527207	 0.124017
H	-0.5894705818	 2.0807466242	 0.4304596665	 0.129407
H	 0.5652709117	-0.5081348864	-0.7808798847	 0.124147
H	 0.200743138	-0.2428612125	 0.9307179736	 0.120608
H	-3.9449374524	-3.2378921509	-2.6987791145	 0.149191
H	-4.0542170377	-1.3059557954	-0.7946585717	 0.150565
30.7433	122.3506	160.9465	177.8066	255.823	303.8354	431.456	453.9504	543.0377	643.5121	669.7399	735.7326	768.392	811.3946	856.0177	869.6731	911.3493	932.2559	977.9566	1050.666	1079.9716	1091.7806	1115.1021	1165.7519	1277.503	1296.1143	1347.5673	1380.6879	1405.7663	1487.8093	1491.799	1509.0297	1636.8131	1768.1251	1888.9573	3019.8786	3042.9167	3064.7489	3115.8182	3124.4773	3247.5118	3268.997
CCN=C1OC(=O)C=C1	CCN=C1OC(=O)C=C1	
InChI=1S/C6H7NO2/c1-2-7-5-3-4-6(8)9-5/h3-4H,2H2,1H3	InChI=1S/C6H7NO2/c1-2-7-5-3-4-6(8)9-5/h3-4H,2H2,1H3
