13
gdb 27025	2.99309	1.35984	0.93651	5.1342	72.44	-0.2089	-0.0216	0.1872	1143.2662	0.09073	-448.962404	-448.954444	-448.9535	-448.994923	29.484	
N	 0.1319262878	 1.391358797	 0.1662752936	-0.607491
C	 0.015730218	 0.0312705658	 0.037357078	 0.265287
C	-1.0804972831	-0.7739332757	 0.0054397563	 0.176799
O	-0.6576377492	-2.1155164543	-0.0260144868	-0.251747
C	 0.7121736564	-2.1278358173	-0.0227359259	 0.462032
N	 1.4902569091	-3.1207021286	-0.0206352373	-0.597072
N	 1.1156357961	-0.7924089802	-0.0204795966	-0.36245
C	-2.4359585447	-0.4422502959	-0.0143611253	 0.197826
N	-3.5513700867	-0.1149038511	-0.0314922076	-0.35789
H	 0.8464006925	 1.8197175458	-0.4076537279	 0.269233
H	-0.7497544866	 1.8819915423	 0.099012417	 0.282857
H	 0.9709325643	-3.9943972245	-0.0165972329	 0.237526
H	 2.0663844962	-0.5302873135	 0.1775241355	 0.285088
117.4381	131.0781	175.7453	292.4298	319.6978	328.8224	391.4834	454.2142	520.3894	545.0795	618.8734	634.1516	671.5032	697.4589	722.613	768.1397	818.3571	970.1567	1053.894	1063.2258	1164.6656	1300.0004	1313.9115	1339.7565	1518.7406	1639.5096	1719.5292	1803.6794	2310.0557	3547.6114	3548.2256	3646.9349	3678.4199
NC1=C(OC(=N)N1)C#N	NC1=C(O[C@H]([NH])N1)C#N	
InChI=1S/C4H4N4O/c5-1-2-3(6)8-4(7)9-2/h6H2,(H2,7,8)	InChI=1S/C4H5N4O/c5-1-2-3(6)8-4(7)9-2/h4,7-8H,6H2/t4-/m1/s1
