19
gdb 92633	2.53046	1.64204	1.56717	2.4547	69.67	-0.2417	0.0629	0.3046	969.2839	0.161729	-460.174231	-460.166585	-460.165641	-460.206622	29.815	
O	-0.5995629883	 0.9714508897	 1.3325736718	-0.424361
C	-0.1432832824	 0.1143089435	 0.2881546075	 0.104419
C	 0.8979605192	-0.9101170797	 0.775025668	-0.266102
C	 0.0971409028	-2.0567498499	 1.4183671729	 0.098632
O	-0.1522899235	-1.8794508392	 2.807737854	-0.273287
C	-1.501129461	-1.4852040724	 2.972795354	 0.021892
O	-2.2142503186	-1.9722891533	 1.8590600302	-0.258617
C	-1.3162822908	-2.0131669019	 0.7601008729	 0.080354
C	-1.3286604065	-0.7590241994	-0.1470606537	-0.236169
H	 0.1702279146	 1.3791654994	 1.741971164	 0.283821
H	 0.2420884599	 0.7199397957	-0.5440067386	 0.065764
H	 1.4521308703	-1.2978307249	-0.08876048	 0.100061
H	 1.6301266553	-0.4866183805	 1.4695656231	 0.103258
H	 0.6039219808	-3.0190732699	 1.299407963	 0.081484
H	-1.9012239465	-1.9547801921	 3.8779984422	 0.105627
H	-1.5730783256	-0.3910954788	 3.032371425	 0.103408
H	-1.558736313	-2.9150597905	 0.1926138153	 0.084587
H	-2.2761003907	-0.2207482661	-0.0775063687	 0.126196
H	-1.188136216	-1.0647328698	-1.189358273	 0.099032
62.9951	130.5949	240.2662	313.0421	358.6678	380.171	404.7686	408.5226	581.819	736.9182	761.964	783.303	791.2407	853.197	875.3631	937.5568	951.9111	973.4171	984.8021	1025.8635	1044.5063	1069.8579	1086.8398	1148.1663	1170.897	1186.1665	1204.216	1230.9749	1237.8793	1265.1098	1301.5702	1319.5826	1351.8965	1362.0167	1374.7063	1389.8335	1420.5748	1446.3299	1458.8514	1473.1766	1547.218	2997.5988	3014.7219	3035.1892	3053.8647	3058.4996	3071.2597	3081.4813	3090.2173	3122.2893	3818.8722
OC1CC2OCOC2C1	O[C@H]1C[C@H]2OCO[C@H]2C1	
InChI=1S/C6H10O3/c7-4-1-5-6(2-4)9-3-8-5/h4-7H,1-3H2	InChI=1S/C6H10O3/c7-4-1-5-6(2-4)9-3-8-5/h4-7H,1-3H2/t4-,5+,6-
