19
gdb 100240	2.84155	1.06571	0.94677	2.552	77.35	-0.2553	-0.0374	0.2179	1300.089	0.155428	-423.00114	-422.990883	-422.989938	-423.036174	37.381	
C	 0.0918503156	 1.5451731236	-0.0338846373	-0.422048
C	 0.0327032305	 0.0054675773	 0.0326385313	 0.104752
C	 0.6958787564	-0.514236386	 1.327574451	-0.082935
O	 2.0354784489	-0.1013123876	 1.4691866377	-0.429483
C	-1.4416485269	-0.4956196196	-0.0058525795	-0.399428
C	-2.2055759158	-0.073316697	-1.1737656034	 0.300717
C	-2.8322867368	 0.2778187586	-2.1377356514	-0.43557
C	 0.7710739648	-0.5332447143	-1.1846626354	 0.154693
O	 1.85042568	-1.0790708909	-1.1513798118	-0.277231
H	 1.1161008907	 1.8827750288	 0.1356901731	 0.145816
H	-0.2615936724	 1.9218363929	-0.997667014	 0.131084
H	-0.5451667616	 1.9737453765	 0.7472617175	 0.12359
H	 0.1497775757	-0.117596557	 2.1915089201	 0.105335
H	 0.6071385414	-1.6121366521	 1.3579702526	 0.091359
H	 2.5108185736	-0.5164495785	 0.736799937	 0.295816
H	-1.4555028602	-1.5915273164	 0.0610928894	 0.139494
H	-1.9393732912	-0.1293628326	 0.9016092472	 0.141561
H	-3.3938430455	 0.58293869	-2.9860234783	 0.202241
H	 0.2495657827	-0.3772373257	-2.1523132759	 0.110238
72.8462	94.2474	129.7522	165.512	220.7545	230.3105	278.1503	316.6928	341.711	345.698	354.336	416.8253	502.8386	590.1341	627.0128	643.5686	666.8995	795.2994	873.4425	899.319	944.2004	965.0471	989.5413	1028.1613	1096.9871	1134.9418	1173.6114	1210.7931	1224.7361	1309.7984	1347.8485	1387.4281	1403.2568	1427.9669	1448.7784	1468.0302	1488.8489	1500.7847	1502.3434	1802.4465	2235.9286	2921.3434	2975.4226	3015.2399	3040.549	3047.7387	3058.7783	3109.4768	3140.2482	3503.1822	3756.2691
CC(CO)(CC#C)C=O	C[C@@](CO)(CC#C)C=O	
InChI=1S/C7H10O2/c1-3-4-7(2,5-8)6-9/h1,5,9H,4,6H2,2H3	InChI=1S/C7H10O2/c1-3-4-7(2,5-8)6-9/h1,5,9H,4,6H2,2H3/t7-/m1/s1
