17
gdb 133624	2.87354	1.10251	1.00708	2.0919	61.06	-0.2531	0.0716	0.3247	1204.1357	0.131875	-549.501529	-549.492673	-549.491729	-549.535977	32.667	
C	 0.1375341457	 1.5381620863	-0.0588116943	-0.477619
C	 0.0227560969	 0.0270999739	-0.0544338422	 0.329004
C	-1.1847033618	-0.5561275283	 0.6647630411	-0.389048
C	-2.4957561091	-0.4250757638	-0.0859407242	 0.282658
F	-2.4502605423	-1.0229635768	-1.2877792567	-0.079244
F	-3.4965163816	-0.993509756	 0.6052218353	-0.075295
F	-2.8441473063	 0.8584897702	-0.2983415597	-0.083965
C	 0.6247094152	-0.7441651586	-1.1733355963	-0.268949
N	 1.2478496031	-0.7665958576	 0.1634241087	-0.35586
H	 1.0258580084	 1.8573795369	-0.6130143034	 0.113383
H	-0.7363596192	 2.0051612394	-0.5190550442	 0.142521
H	 0.2196479743	 1.9234101438	 0.9646733327	 0.122848
H	-1.0174362827	-1.6218615744	 0.8367870911	 0.143884
H	-1.3218939816	-0.081827155	 1.6424124465	 0.127314
H	 0.181953237	-1.6833265538	-1.4899413286	 0.125107
H	 1.1105061489	-0.1844702023	-1.9681863735	 0.113929
H	 2.0569924153	-0.1499684438	 0.1775649974	 0.229332
32.0705	110.1909	163.1644	218.8673	290.726	300.4617	342.9893	392.1616	401.4155	448.5353	537.3324	541.1449	666.902	741.8432	836.2002	860.3283	903.266	934.1152	946.523	987.2238	1015.1705	1052.5671	1098.7071	1127.1745	1155.1048	1186.7416	1264.2772	1272.6576	1283.7812	1344.1129	1386.5524	1395.6235	1422.079	1470.1146	1488.5801	1506.2044	1519.2254	3030.6433	3060.7985	3094.4534	3114.6028	3121.0935	3126.3391	3200.8534	3493.5817
CC1(CC(F)(F)F)CN1	C[C@@]1(CC(F)(F)F)CN1	
InChI=1S/C5H8F3N/c1-4(3-9-4)2-5(6,7)8/h9H,2-3H2,1H3	InChI=1S/C5H8F3N/c1-4(3-9-4)2-5(6,7)8/h9H,2-3H2,1H3/t4-/m1/s1
