18
gdb 93535	2.94012	1.34361	1.08661	1.8695	68.98	-0.2566	0.017	0.2737	1123.6824	0.148631	-476.233476	-476.224971	-476.224027	-476.266535	32.46	
O	 0.0985141137	 1.3975552289	-0.0431009275	-0.439591
C	 0.0313789732	-0.0125334376	-0.0196594714	 0.110566
C	 0.7798441652	-0.5518763944	 1.205130337	-0.098936
O	 0.6842518451	-1.9764454949	 1.3594508478	-0.258311
C	-0.5377162788	-2.5715684796	 1.2190630515	 0.392825
N	-0.8671590642	-3.5951315607	 1.8856048269	-0.502437
C	-1.4279959103	-2.0363118798	 0.1198226453	-0.30277
C	-1.4135931023	-0.5118394141	 0.0118569006	 0.059482
O	-1.9957482523	 0.1223019818	 1.1516408227	-0.448177
H	-0.5677694131	 1.7037928341	 0.5861940186	 0.293791
H	 0.5110610194	-0.3727843452	-0.9362232817	 0.095556
H	 1.8455393572	-0.3305593713	 1.1274765455	 0.124603
H	 0.3847305624	-0.0653994548	 2.1046442447	 0.118484
H	-0.1225615712	-3.8313239737	 2.5456569268	 0.220299
H	-1.0686131368	-2.4511738351	-0.8317090899	 0.131559
H	-2.4381101503	-2.4231427795	 0.2743115223	 0.125893
H	-1.9294909213	-0.1905573664	-0.9038522545	 0.080159
H	-2.9225210456	-0.1277463979	 1.2104977856	 0.297005
83.8063	120.8813	204.0363	258.9039	273.8368	336.4953	361.1269	408.9973	445.9912	459.5469	535.392	573.1126	639.6719	747.0034	779.0795	885.4892	901.3052	932.8243	987.8419	1000.7252	1050.3049	1089.348	1099.657	1121.7773	1140.2683	1196.9296	1224.2965	1259.0631	1295.1433	1303.1716	1325.6953	1371.1685	1388.2931	1409.0649	1434.802	1444.4479	1465.4976	1501.7597	1751.6735	3003.9244	3030.3013	3041.5777	3062.0837	3104.191	3123.4782	3458.724	3772.6777	3836.2986
OC1COC(=N)CC1O	O[C@H]1CO[C]([NH])C[C@H]1O	
InChI=1S/C5H9NO3/c6-5-1-3(7)4(8)2-9-5/h3-4,6-8H,1-2H2	InChI=1S/C5H9NO3/c6-5-1-3(7)4(8)2-9-5/h3-4,6-8H,1-2H2/t3-,4+/m1/s1
