13
gdb 6240	4.83347	1.23963	1.14221	2.321	63.57	-0.2869	-0.0538	0.2331	1040.6383	0.092325	-398.59243	-398.584016	-398.583072	-398.626149	28.853	
C	 0.3806559485	 1.03849564	-0.0317827775	-0.478564
C	-0.5175574492	-0.1278360451	 0.2634817925	 0.382098
N	-1.1925744604	-0.4015202583	 1.286377849	-0.425926
O	-0.6956621827	-0.9965887533	-0.8300042137	-0.228065
C	 0.3584147803	-1.7420117424	-1.2392773767	 0.305223
O	 1.4440949541	-1.7493966524	-0.7202695168	-0.348573
C	-0.0050372968	-2.537929871	-2.3881815623	 0.240998
C	-0.2516388139	-3.2226354448	-3.3437938994	-0.363017
H	 1.398210264	 0.6853227556	-0.2156176839	 0.177601
H	 0.0354346316	 1.556713216	-0.9322951288	 0.151165
H	 0.3870822794	 1.7394591402	 0.8046640649	 0.132896
H	-1.0602572338	 0.3131912765	 2.001701388	 0.235532
H	-0.4716462912	-3.8288428209	-4.1889017354	 0.218633
53.185	73.4701	139.9996	164.8608	229.3638	267.4113	392.2055	501.3613	513.4739	586.7548	619.0077	661.7997	707.9251	764.8578	815.3558	897.0837	963.4434	1003.3298	1063.86	1079.2202	1227.4242	1315.0466	1402.5211	1469.7057	1488.6638	1771.8253	1800.9466	2239.4725	3050.4789	3123.1038	3146.5812	3496.0464	3496.0872
CC(=N)OC(=O)C#C	C[C]([NH])OC(=O)C#C	
InChI=1S/C5H5NO2/c1-3-5(7)8-4(2)6/h1,6H,2H3	InChI=1S/C5H5NO2/c1-3-5(7)8-4(2)6/h1,6H,2H3
