16
gdb 86840	2.90102	1.31915	1.07453	1.5964	71.86	-0.2718	0.0127	0.2845	1143.0759	0.122927	-437.863286	-437.854765	-437.853821	-437.896797	31.398	
C	-0.0135990511	 1.5630256182	-0.0670473888	-0.402583
C	 0.0643752863	 0.0553915815	 0.0724891684	 0.031359
O	 0.8499224395	-0.5072724963	-0.986161723	-0.24465
C	 1.4438271636	-1.6673827574	-0.4666498686	-0.031304
O	 1.6464369704	-1.4228359578	 0.9352133203	-0.22673
C	 0.7916654808	-0.4250342821	 1.315306274	 0.397765
N	 0.6420545937	 0.0217464069	 2.4821113629	-0.535914
C	 0.6198154767	-2.8689588504	-0.6563983253	 0.355026
C	-0.0480507782	-3.8508452569	-0.8346406759	-0.443083
H	 0.9899888964	 1.9939463102	-0.1039685315	 0.131669
H	-0.5515849815	 1.8360252481	-0.9781463418	 0.128603
H	-0.5390433417	 1.9734009	 0.7983654955	 0.150587
H	-0.943849267	-0.3858248713	 0.0621263393	 0.114954
H	 2.4256883692	-1.7923208074	-0.932296556	 0.132075
H	 1.2324266358	-0.4763989557	 3.1493804007	 0.23121
H	-0.6379751231	-4.7209329595	-0.9903123602	 0.211017
77.3014	80.9406	188.1026	210.0621	247.3215	263.3663	379.5582	437.1699	518.9679	564.1658	611.1623	670.3691	681.3851	692.2517	792.0401	828.6628	885.0983	891.0227	951.1175	975.4071	1020.5388	1074.7594	1103.3693	1143.1979	1156.726	1269.6574	1327.2655	1347.7324	1378.2971	1382.8934	1406.3808	1483.4084	1495.0262	1798.0119	2240.2657	2995.9484	3055.066	3076.7477	3133.9041	3141.4208	3484.0509	3498.6843
CC1OC(OC1=N)C#C	C[C@H]1O[C@@H](O[C]1[NH])C#C	
InChI=1S/C6H7NO2/c1-3-5-8-4(2)6(7)9-5/h1,4-5,7H,2H3	InChI=1S/C6H7NO2/c1-3-5-8-4(2)6(7)9-5/h1,4-5,7H,2H3/t4-,5+/m1/s1
