18
gdb 46329	3.0413	1.33911	1.21714	3.6492	72.6	-0.2297	0.0294	0.2591	1092.0837	0.149072	-439.112568	-439.104432	-439.103488	-439.146315	30.103	
O	-0.2872294161	 0.0892808719	-0.2850406911	-0.367015
C	-0.1492495058	 1.272887293	-0.131612797	 0.378976
N	-1.0271579988	 2.3187782945	 0.0035588078	-0.334585
C	-0.0186963427	 3.3782756941	 0.0988077203	-0.217422
C	 1.0647340597	 2.2499326861	 0.0292307166	 0.288202
C	 1.9718552089	 1.9815980906	 1.2435898143	-0.305891
C	 3.3658876282	 2.3770173505	 0.7293338237	-0.226374
C	 3.2447682818	 2.019101278	-0.7516132273	-0.076711
O	 1.9011590531	 2.3526996659	-1.1030134665	-0.296765
H	-2.0350505257	 2.350828088	-0.015636777	 0.252349
H	 0.0154539204	 4.0484917935	-0.7646432091	 0.12101
H	-0.0550786641	 3.9554707763	 1.0287462635	 0.106381
H	 1.6567363726	 2.5301756508	 2.1334293205	 0.110861
H	 1.9419404143	 0.912351838	 1.4785707273	 0.131791
H	 3.5332231525	 3.4528027628	 0.8458155388	 0.108865
H	 4.1764209549	 1.8462443066	 1.233917591	 0.108676
H	 3.9106488841	 2.5883990644	-1.4058490502	 0.110207
H	 3.4258464329	 0.947079125	-0.9167732856	 0.107443
32.2226	100.8331	162.39	237.2601	264.0232	309.0826	438.7354	466.9456	602.0323	615.3399	719.2041	738.8138	788.0464	855.1078	894.1145	916.18	924.2393	947.1983	998.3189	1008.7855	1044.0743	1133.2663	1148.7012	1157.3489	1173.269	1183.1556	1207.6929	1250.6854	1274.6533	1291.3589	1329.4566	1339.0768	1388.4286	1389.3981	1484.6526	1495.5657	1521.3141	1523.7282	1894.6977	3001.8712	3039.1987	3052.0217	3055.6079	3090.8673	3096.375	3109.528	3118.6941	3621.3088
O=C1NCC11CCCO1	O=C1NC[C@]21CCCO2	
InChI=1S/C6H9NO2/c8-5-6(4-7-5)2-1-3-9-6/h1-4H2,(H,7,8)	InChI=1S/C6H9NO2/c8-5-6(4-7-5)2-1-3-9-6/h1-4H2,(H,7,8)/t6-/m0/s1
