19
gdb 68113	4.27402	1.07627	1.06924	2.5581	76.57	-0.2357	0.0837	0.3195	1215.9495	0.157577	-422.942157	-422.933782	-422.932838	-422.975376	32.046	
C	-0.1892778997	 1.363064123	-0.0169358521	-0.508703
C	 0.0599735613	-0.1115160659	-0.0033680864	 0.39834
C	 0.3758310125	-1.0794983804	-1.1740403901	-0.294423
C	 0.0701336206	-1.9087674137	 0.1000852528	 0.433725
C	 0.9759641872	-0.9579658196	 0.9232938218	-0.302502
O	-1.0739309524	-1.0075839621	 0.3738695268	-0.370505
C	-0.1284921116	-3.3745069795	 0.2496084399	-0.101187
C	-1.3358956579	-3.9145173552	 0.8867729596	-0.170923
O	-1.1704265677	-3.9581431524	-0.5326950138	-0.23032
H	 0.7201116222	 1.8977846212	-0.308594813	 0.126926
H	-0.9809626739	 1.6104215143	-0.7304185564	 0.136049
H	-0.4931906383	 1.7108907091	 0.9749344875	 0.133258
H	-0.3895372003	-1.1392951408	-1.9481885111	 0.115587
H	 1.3951565118	-1.095946988	-1.5687105579	 0.091016
H	 2.0504905673	-0.963366153	 0.7210805041	 0.092379
H	 0.7387142694	-0.8995166114	 1.9867811076	 0.104359
H	 0.7945297728	-3.9555062554	 0.2845327299	 0.096017
H	-1.2912603682	-4.8769891278	 1.3943743053	 0.113703
H	-2.0904652852	-3.2176301525	 1.2431701557	 0.137205
59.6998	136.8216	156.0168	194.5854	295.2066	302.3738	411.3049	458.4175	522.1634	599.8213	617.1975	658.0734	714.5812	790.3826	859.1672	892.5574	916.7694	950.6602	955.7832	987.6653	1008.0849	1064.9327	1079.8922	1105.7253	1120.4823	1126.5414	1157.2028	1160.4708	1168.4123	1181.8943	1205.7235	1270.3909	1284.3827	1351.3934	1412.1581	1447.0849	1465.3042	1477.3717	1488.6684	1517.1484	1530.2033	3039.9557	3054.3512	3065.7369	3091.1699	3100.8009	3114.2338	3116.4301	3140.5565	3151.8531	3190.6853
CC12CC(C1)(O2)C1CO1	C[C@@]12C[C@@](C1)(O2)[C@H]1CO1	
InChI=1S/C7H10O2/c1-6-3-7(4-6,9-6)5-2-8-5/h5H,2-4H2,1H3	InChI=1S/C7H10O2/c1-6-3-7(4-6,9-6)5-2-8-5/h5H,2-4H2,1H3/t5-,6-,7+/m1/s1
