17
gdb 24051	6.76247	0.71717	0.67978	3.2334	81.38	-0.2209	0.0246	0.2455	1600.8429	0.136873	-380.877891	-380.86932	-380.868376	-380.912194	31.292	
C	 0.0082260285	-1.2363757964	 0.0984446725	-0.437959
C	-0.0222947831	-0.0348272646	 0.1132454049	 0.294855
C	-0.0145706748	 1.4219382724	 0.1234289575	-0.342921
C	 1.3976674719	 2.0137375807	-0.1384929275	-0.326382
C	 1.4233017691	 3.5055750325	-0.1220214762	 0.301131
C	 1.5016282021	 4.4430378572	-1.1216562075	-0.165714
N	 1.4625161962	 5.7218411259	-0.613915604	-0.250673
C	 1.359940951	 5.5710246268	 0.6847667855	 0.010947
N	 1.328356387	 4.2531827119	 1.0385401267	-0.297385
H	 0.0181214348	-2.2979951651	 0.0858325741	 0.197323
H	-0.7058794021	 1.807588284	-0.6351316207	 0.143133
H	-0.3916934918	 1.7852241451	 1.0879432851	 0.123715
H	 2.0937623694	 1.6006949249	 0.6016690431	 0.117424
H	 1.746734454	 1.6684924074	-1.1154434167	 0.134437
H	 1.5890431166	 4.2617645023	-2.1828438515	 0.106375
H	 1.3070511348	 6.3642864591	 1.4157333793	 0.128616
H	 1.2764190164	 3.8885515461	 1.9752841854	 0.263078
58.3455	60.7862	94.664	181.6114	304.9086	353.1739	364.0737	471.6528	525.866	622.9261	645.4571	670.1719	684.5466	744.9415	762.4967	807.6782	851.3705	932.4529	966.7208	995.9819	1007.8068	1031.7817	1113.0749	1147.0614	1170.4378	1255.7751	1273.3241	1291.8617	1309.987	1366.4219	1387.5577	1428.147	1471.6082	1486.4955	1508.0118	1614.3416	2238.7994	3024.1591	3034.6964	3060.8222	3100.1886	3242.6876	3249.4424	3507.0829	3658.9937
C#CCCC1=CN=CN1	C#CCCc1cnc[nH]1	
InChI=1S/C7H8N2/c1-2-3-4-7-5-8-6-9-7/h1,5-6H,3-4H2,(H,8,9)	InChI=1S/C7H8N2/c1-2-3-4-7-5-8-6-9-7/h1,5-6H,3-4H2,(H,8,9)
