20
gdb 6988	2.37368	2.18131	1.53191	2.0294	69.95	-0.2414	0.0666	0.308	937.2853	0.176382	-386.147213	-386.138581	-386.137636	-386.180827	32.854	
C	-0.2972114491	 1.4942697224	-0.0571762084	-0.42541
C	 0.0391475468	 0.0065135581	-0.0050683272	 0.003427
C	 0.9354124962	-0.4848609699	-1.1505023392	-0.098624
O	 1.4737745153	-1.7151317237	-0.6971096195	-0.242196
C	 1.8283346669	-1.4970638157	 0.6565897889	-0.116116
C	 0.7746701635	-0.5246901603	 1.2655754523	 0.357047
C	 1.4360176722	 0.53885363	 2.1438092182	-0.452328
O	-0.2184797494	-1.2239934491	 2.0217598603	-0.472865
H	 0.6003105531	 2.1213591993	-0.0364391393	 0.113652
H	-0.8395328671	 1.7293921331	-0.9791975852	 0.116132
H	-0.9357269889	 1.7889808392	 0.7809610145	 0.125573
H	-0.8909523409	-0.5689844633	-0.0433834363	 0.101519
H	 0.3948267394	-0.6716972358	-2.0820228298	 0.109849
H	 1.7401513036	 0.2442787585	-1.3589718677	 0.077439
H	 1.8343242085	-2.4614550053	 1.1723426853	 0.100409
H	 2.8375025928	-1.0557404657	 0.7203943856	 0.076989
H	 2.1420427105	 1.1544036669	 1.5784437131	 0.120136
H	 0.684832685	 1.1926536574	 2.5939974344	 0.126349
H	 2.0013084056	 0.0618768367	 2.9548268901	 0.105973
H	 0.1847845761	-1.5139456327	 2.8472723899	 0.273046
18.2863	231.4374	238.0375	270.3937	271.512	288.5224	304.4536	363.8733	385.4261	448.6547	513.3868	572.11	637.6698	735.2446	877.8427	906.3801	943.5395	952.3933	965.1295	983.4438	1058.5972	1093.6049	1120.7482	1122.1308	1166.7615	1179.7735	1206.358	1246.9681	1278.8203	1327.9558	1340.7593	1355.5061	1378.2741	1404.9861	1408.7394	1422.8338	1486.0599	1488.9526	1494.8503	1505.3238	1507.8725	1516.5633	2934.738	2957.7198	3023.6453	3033.3103	3059.1552	3083.8571	3088.9722	3092.3148	3098.6297	3106.8517	3123.3938	3800.0041
CC1COCC1(C)O	C[C@H]1COC[C@]1(C)O	
InChI=1S/C6H12O2/c1-5-3-8-4-6(5,2)7/h5,7H,3-4H2,1-2H3	InChI=1S/C6H12O2/c1-5-3-8-4-6(5,2)7/h5,7H,3-4H2,1-2H3/t5-,6-/m0/s1
