16
gdb 64633	2.28089	1.6364	1.40631	3.6506	77.16	-0.2401	-0.0114	0.2288	1009.487	0.123572	-396.914569	-396.905908	-396.904964	-396.947632	32.546	
C	-0.0208162396	 1.539592903	 0.0193407867	-0.403705
C	-0.0029260841	 0.0004257507	 0.0094651848	 0.010001
N	 0.7947285982	-0.4912342129	-1.1511773788	-0.254592
C	 1.7492710746	-1.1750557697	-0.6566331554	 0.052294
N	 1.7848837539	-1.2751759089	 0.7274406345	-0.34771
C	 0.73104599	-0.5392408777	 1.2636680614	 0.362124
N	 0.4071243556	-0.3014812902	 2.4640810301	-0.530878
C	-1.3582971755	-0.5424846684	-0.0648511313	 0.394616
C	-2.4747811539	-0.9802078153	-0.1250530954	-0.496428
H	 1.0034357443	 1.9221103382	 0.0320084119	 0.118522
H	-0.5254527405	 1.9070316647	-0.876019057	 0.137415
H	-0.5437397616	 1.8893336885	 0.9117581285	 0.149195
H	 2.516211338	-1.6678930287	-1.2460786225	 0.13936
H	 2.4906854704	-1.7504367062	 1.2646361624	 0.260284
H	 1.0387017415	-0.7444269823	 3.1330255909	 0.210636
H	-3.4626838013	-1.3665921346	-0.1749528009	 0.198867
76.736	138.2932	176.6467	236.2299	240.1464	277.8339	375.4875	402.2052	476.8755	544.3342	574.941	629.0742	638.5087	645.0315	687.4478	718.3838	844.7968	853.2918	917.42	942.9847	956.2967	1064.3348	1083.858	1120.4649	1145.5032	1209.4045	1297.3387	1349.2489	1394.3454	1416.3639	1482.9875	1485.5646	1681.431	1766.9621	2242.4734	3052.3503	3132.6584	3150.7149	3190.9098	3460.3652	3502.7501	3658.9082
CC1(N=CNC1=N)C#C	C[C@]1(N=CN[C]1[NH])C#C	
InChI=1S/C6H7N3/c1-3-6(2)5(7)8-4-9-6/h1,4H,2H3,(H2,7,8,9)	InChI=1S/C6H7N3/c1-3-6(2)5(7)8-4-9-6/h1,4H,2H3,(H2,7,8,9)/t6-/m0/s1
