20
gdb 111072	3.69814	1.07471	1.06075	3.2837	80.71	-0.2513	0.0342	0.2856	1252.1602	0.172721	-403.144651	-403.136626	-403.135682	-403.177405	31.478	
C	-0.0697999037	 1.5615244885	-0.0429180536	-0.380927
C	-0.1803824219	 0.0330362265	-0.1134637075	-0.231974
C	 0.647455082	-0.5589690818	-1.2488343743	 0.040403
C	 2.1939106162	-0.6591828734	-1.1122612314	 0.080168
C	 2.0040384172	-1.941341633	-0.2754961905	-0.251017
C	 0.8285377572	-2.1299710433	-1.2996988648	-0.151352
C	 1.6369673815	-2.2182042821	-2.5681779188	 0.445089
N	 1.5241575552	-3.0003310574	-3.5481654836	-0.580156
O	 2.56511173	-1.202996498	-2.4162294117	-0.264912
H	 0.9579678802	 1.8802974999	 0.1607513244	 0.118408
H	-0.3786608037	 2.0239795368	-0.9863639941	 0.122108
H	-0.7058918297	 1.9645978589	 0.7506335674	 0.11852
H	 0.0990487494	-0.3979842528	 0.8535071447	 0.101423
H	-1.2284968927	-0.2480689515	-0.276741516	 0.108437
H	 0.3351320533	-0.111726954	-2.1989433961	 0.087557
H	 2.8615515883	 0.1626618509	-0.8617027837	 0.090339
H	 2.8188150755	-2.6677622823	-0.294003531	 0.116908
H	 1.6664679212	-1.766482052	 0.7447570679	 0.114747
H	 0.0157273598	-2.8401214169	-1.1747252272	 0.094565
H	 2.2303519348	-2.790555903	-4.256954	 0.221666
74.4098	153.2529	159.5468	226.5596	320.1554	357.4128	452.792	484.0905	505.5919	635.109	710.8728	757.0636	808.2671	855.5664	867.3853	872.0233	893.3085	929.8197	933.8036	954.7652	993.647	1014.781	1059.0622	1066.6681	1097.7756	1110.7826	1117.457	1150.8583	1209.2255	1230.8228	1242.0478	1259.453	1273.1963	1297.0141	1344.5338	1352.2676	1407.9989	1416.6728	1484.2485	1499.9597	1501.9467	1512.4171	1807.9208	3030.1547	3035.0109	3047.7863	3071.2034	3088.1199	3103.7404	3109.0996	3144.2787	3157.4991	3164.5041	3461.9448
CCC1C2CC1C(=N)O2	CC[C@H]1[C@H]2C[C@@H]1[C]([NH])O2	
InChI=1S/C7H11NO/c1-2-4-5-3-6(4)9-7(5)8/h4-6,8H,2-3H2,1H3	InChI=1S/C7H11NO/c1-2-4-5-3-6(4)9-7(5)8/h4-6,8H,2-3H2,1H3/t4-,5+,6-/m1/s1
