17
gdb 71776	3.22063	1.85852	1.62675	0.6063	68.89	-0.2178	0.0744	0.2921	865.4112	0.138338	-421.805711	-421.799387	-421.798443	-421.835916	27.194	
O	-0.054733464	 1.3686571995	-0.0625397851	-0.472121
C	 0.0247314459	-0.0222240924	-0.0527032668	 0.327228
C	 1.0380310266	-0.7297073712	-0.9466094381	-0.293725
C	 0.5021639714	-2.1486704518	-1.0549410392	-0.117306
C	 0.0736221727	-2.7796751932	 0.2449249613	 0.086326
O	 0.2412764327	-2.0246743911	 1.4202739528	-0.247538
C	-0.362746227	-0.7756260796	 1.1953694253	 0.005439
C	-1.269407252	-0.8224690578	-0.0260474254	-0.152079
C	-0.9766348334	-2.1626032751	-0.653590388	-0.114073
H	 0.6672587165	 1.7142986912	 0.4743998804	 0.283988
H	 1.0657475667	-0.2374987542	-1.9254199037	 0.109535
H	 2.0490267959	-0.7022919773	-0.5215478045	 0.10234
H	 0.8640727539	-2.7977841489	-1.8445431219	 0.087915
H	 0.1782939988	-3.843844123	 0.4170234672	 0.101243
H	-0.6127326571	-0.2429781233	 2.1057896388	 0.102921
H	-2.2459877182	-0.3597716051	-0.0525568944	 0.098648
H	-1.7393775694	-2.7321208565	-1.1659166887	 0.091261
240.1612	284.161	331.3115	361.2559	486.0448	504.321	574.3538	690.2483	719.9009	728.6725	745.8645	771.7346	791.2653	867.9289	900.0592	950.352	958.4977	963.5403	988.2841	1009.2713	1048.0106	1065.9347	1069.8042	1074.5667	1093.6495	1157.6169	1167.4301	1220.5341	1238.1727	1261.0013	1284.8661	1311.8637	1326.4543	1341.8774	1404.5915	1435.3358	1492.3658	3027.0721	3069.3789	3170.5249	3183.0886	3192.2515	3209.1583	3220.7544	3790.0455
OC12CC3C4OC1C2C34	O[C@@]12C[C@H]3[C@H]4O[C@@H]1[C@@H]2[C@@H]34	
InChI=1S/C7H8O2/c8-7-1-2-3-4(7)6(7)9-5(2)3/h2-6,8H,1H2	InChI=1S/C7H8O2/c8-7-1-2-3-4(7)6(7)9-5(2)3/h2-6,8H,1H2/t2-,3-,4+,5-,6-,7-/m1/s1
