16
gdb 51773	2.45924	1.3471	0.94207	3.3948	67.32	-0.2577	-0.0446	0.2131	1205.1567	0.12177	-474.991954	-474.982919	-474.981975	-475.027388	30.522	
N	-0.163470631	 1.1634740571	-0.4425036227	-0.431954
C	-0.3047788525	-0.0818174617	-0.5514780278	 0.131669
O	-0.9896390793	-0.7582711672	 0.4080244393	-0.189049
C	-1.074675666	-2.1570234795	 0.2686913984	 0.054596
C	-1.7383119598	-2.8192416895	 1.4855610175	-0.097912
O	-2.8213773977	-3.3333661938	 0.677243405	-0.284247
C	-2.3005088268	-2.7250725401	-0.5143217026	 0.006979
C	-3.2316693612	-1.6920922111	-1.1209408915	 0.135967
O	-2.9534645946	-1.07526041	-2.1160297951	-0.238971
H	 0.365719965	 1.5264286246	-1.2324800496	 0.236663
H	 0.0713546929	-0.7242445712	-1.3568546567	 0.099246
H	-0.11362416	-2.5793591626	-0.0383509722	 0.105384
H	-1.1689451984	-3.619722236	 1.9684445796	 0.1188
H	-2.0822598279	-2.0980865726	 2.2341980398	 0.134074
H	-2.0411532764	-3.4646509047	-1.283161272	 0.113389
H	-4.1840435264	-1.5523738017	-0.5652252495	 0.105367
58.8106	61.8794	88.0127	99.3207	186.5302	218.4391	290.7493	392.1862	463.5187	538.4662	627.5881	798.4786	818.4418	838.5473	907.0158	967.1918	989.3062	1035.5133	1038.7422	1061.1004	1086.4976	1113.2561	1155.747	1182.3736	1231.5079	1258.0534	1278.7644	1312.4779	1343.0954	1378.1452	1398.8501	1428.0058	1513.8424	1752.4718	1826.4878	2908.8264	3026.2424	3041.5404	3045.6431	3067.8126	3097.9306	3523.3672
N=COC1COC1C=O	[NH][CH]O[C@H]1CO[C@H]1C=O	
InChI=1S/C5H7NO3/c6-3-9-5-2-8-4(5)1-7/h1,3-6H,2H2	InChI=1S/C5H7NO3/c6-3-9-5-2-8-4(5)1-7/h1,3-6H,2H2/t4-,5-/m0/s1
