14
gdb 33704	3.15846	1.81589	1.31522	4.8813	69.93	-0.2596	-0.0351	0.2244	912.4531	0.101296	-399.477534	-399.471055	-399.470111	-399.508284	26.018	
N	 0.025846215	-1.1584943445	-0.0032012541	-0.328021
C	 0.0045889215	-0.003061916	 0.0213073399	 0.169956
C	-0.0359653803	 1.4380870443	 0.0698324162	 0.185161
C	-0.9222715965	 2.1659191661	 1.0689663023	-0.171374
C	-0.7020674114	 3.4596407448	 0.8235297883	-0.10931
C	 0.3031727639	 3.4734800335	-0.3080011581	-0.115526
C	 1.2976175941	 2.2822680854	-0.083158522	 0.041416
O	 1.3732243701	 2.0065054925	-1.5153470861	-0.309487
C	-0.0395477862	 2.2845593069	-1.2710507563	 0.041399
H	-1.5666132448	 1.6902354228	 1.7933828359	 0.133948
H	-1.1321588951	 4.3236419331	 1.3093098749	 0.127354
H	 0.6849345605	 4.3970682161	-0.735972192	 0.099925
H	 2.211988594	 2.2176994259	 0.5096563421	 0.117286
H	-0.7360922447	 2.2227438893	-2.1093091711	 0.117275
147.5133	168.2722	362.6366	425.6551	487.3032	516.9616	522.9436	620.9165	665.7346	701.0482	757.1502	770.202	825.7296	885.9548	904.0127	924.7413	933.4307	972.579	1039.951	1075.3617	1093.3292	1137.4063	1145.5451	1163.269	1185.5187	1242.0176	1270.6845	1309.0711	1341.3489	1633.323	2359.0989	3109.3112	3113.348	3163.1639	3231.6463	3257.7209
N#CC12C=CC3C1OC23	N#C[C@@]12C=C[C@H]3[C@@H]1O[C@@H]23	
InChI=1S/C7H5NO/c8-3-7-2-1-4-5(7)9-6(4)7/h1-2,4-6H	InChI=1S/C7H5NO/c8-3-7-2-1-4-5(7)9-6(4)7/h1-2,4-6H/t4-,5-,6+,7-
