14
gdb 46007	5.28715	1.02973	0.87722	2.6961	76.83	-0.2369	-0.0476	0.1892	1221.6387	0.103445	-432.906704	-432.899061	-432.898117	-432.939306	28.008	
N	-0.0405805547	 1.1701618562	-0.6066354621	-0.55838
C	 0.028660091	 0.0545692781	-0.0137228634	 0.468431
N	-1.1440164485	-0.5938837833	 0.3730184906	-0.338395
C	-1.1673491451	-1.8829140265	 0.8323957724	-0.024269
C	-0.0329466739	-2.4695439624	 1.2639747062	 0.060361
C	 1.2079937747	-1.6097534923	 1.2740621095	-0.185775
O	 1.1739586192	-0.6256621907	 0.2215137241	-0.247983
C	 0.01571688	-3.8037106373	 1.7251222877	 0.20212
N	 0.0938973593	-4.8929567217	 2.1174872411	-0.338369
H	 0.8922949035	 1.5185841325	-0.8160492859	 0.236367
H	-1.9884592876	-0.1396059177	 0.0646335578	 0.28294
H	-2.1282343788	-2.3816449534	 0.8253748675	 0.15216
H	 1.321911142	-1.0899659761	 2.2356455155	 0.137207
H	 2.109938029	-2.1962555653	 1.093407909	 0.153586
69.9977	139.3067	168.3092	213.528	402.7122	424.7436	432.7647	535.4534	561.9088	570.2155	604.9367	716.3045	737.2301	824.8932	833.7572	926.5083	933.6526	1010.5992	1038.8768	1116.0243	1192.9456	1239.3852	1281.7546	1306.4212	1369.6472	1440.2612	1479.5886	1504.2103	1700.534	1764.6402	2325.6059	3008.9802	3121.2322	3220.9115	3532.5806	3656.7902
N=C1NC=C(CO1)C#N	[NH][C]1NC=C(CO1)C#N	
InChI=1S/C5H5N3O/c6-1-4-2-8-5(7)9-3-4/h2H,3H2,(H2,7,8)	InChI=1S/C5H5N3O/c6-1-4-2-8-5(7)9-3-4/h2H,3H2,(H2,7,8)
