21
gdb 63071	3.00933	1.36535	1.29556	1.365	81.26	-0.2374	0.0795	0.3169	1097.8039	0.18332	-387.062262	-387.054048	-387.053103	-387.094353	33.677	
C	-0.2832739453	 1.589663938	-0.1113961672	-0.46451
C	-0.0064527609	 0.1074174497	 0.0283852499	 0.386297
O	-1.1544299869	-0.6650098799	-0.2715577422	-0.4688
C	 1.2891028979	-0.57067875	-0.3644571315	-0.121599
C	 2.6287169735	 0.1840965855	-0.3654078161	-0.269635
C	 3.0134146211	 0.438713832	 1.1012172162	-0.027503
C	 2.2464580196	 1.4358209566	 1.934305442	-0.310395
C	 1.8628231341	-0.0244588375	 1.9760226584	-0.036103
C	 0.7979649647	-0.6208991777	 1.0820640301	-0.078997
H	 0.6200173069	 2.1937402732	-0.1969935364	 0.126224
H	-0.8577751187	 1.7499138007	-1.0324023587	 0.1003
H	-0.8846096941	 1.9695288193	 0.720306152	 0.128981
H	-1.3519731416	-0.5394855453	-1.2070510697	 0.274585
H	 1.193908547	-1.4384660003	-1.0097823622	 0.080374
H	 3.3889273477	-0.4500981613	-0.8320771139	 0.104594
H	 2.5967054807	 1.1079554027	-0.9558789435	 0.099696
H	 4.0426177665	 0.2447697757	 1.3843411322	 0.081486
H	 2.7578854839	 1.8202128404	 2.8116406043	 0.105868
H	 1.5965549592	 2.1619063915	 1.4691406988	 0.112835
H	 2.0468206926	-0.559686607	 2.900935145	 0.081818
H	 0.3063680921	-1.5134042064	 1.4515449026	 0.094484
147.4869	156.8496	248.8592	256.8177	283.8865	351.0432	377.7291	414.5999	444.056	554.6225	660.9837	679.1358	715.0143	755.3948	789.9401	827.7762	855.6105	902.6446	928.6257	959.3446	974.8317	991.3906	1022.0152	1046.8114	1065.5445	1074.5478	1076.7601	1100.7222	1110.6053	1125.8849	1173.7015	1199.6119	1224.3337	1277.2696	1291.3546	1308.6654	1327.5354	1352.6046	1386.8671	1416.9938	1432.178	1479.4239	1490.9039	1503.7352	1510.4372	3027.5278	3032.1546	3074.0354	3088.4259	3137.2269	3143.2518	3152.4173	3157.1732	3166.3421	3181.9237	3250.1656	3782.189
CC1(O)C2CC3CC3C12	C[C@@]1(O)[C@H]2C[C@H]3C[C@H]3[C@@H]12	
InChI=1S/C8H12O/c1-8(9)6-3-4-2-5(4)7(6)8/h4-7,9H,2-3H2,1H3	InChI=1S/C8H12O/c1-8(9)6-3-4-2-5(4)7(6)8/h4-7,9H,2-3H2,1H3/t4-,5-,6+,7-,8-/m1/s1
