20
gdb 12551	3.33368	1.72587	1.22168	1.2413	77.42	-0.241	0.0199	0.261	1031.9665	0.178386	-349.007423	-348.999494	-348.99855	-349.039913	30.363	
C	 0.4382363361	 1.6589212736	 0.0062963235	-0.399714
C	-0.0543350537	 0.202752491	-0.0653442111	-0.024676
C	 0.4849844867	-0.4756359298	-1.3336509347	-0.18583
C	 0.0935409215	-1.9395237267	-1.5256024412	-0.091372
O	 0.8695093303	-2.8158643826	-0.7311678819	-0.233517
C	 0.4204498379	-2.999939642	 0.590625407	-0.128647
C	 0.4107249518	-1.8014859891	 1.5060941795	-0.085882
C	 0.2253288376	-0.5079119444	 1.2404108466	-0.034438
H	 1.5279687438	 1.696449001	 0.114304634	 0.120767
H	 0.1709951192	 2.2098854721	-0.9010152596	 0.110091
H	-0.0003492983	 2.1851176091	 0.8603048761	 0.111887
H	-1.1528976811	 0.241437206	-0.1641912129	 0.085992
H	 0.1327007832	 0.0964108584	-2.2021175231	 0.088469
H	 1.5808688505	-0.4249929473	-1.343536065	 0.106607
H	-0.9827062568	-2.0902180736	-1.3341753547	 0.08191
H	 0.2858484182	-2.234657703	-2.5630237962	 0.102523
H	-0.5943559228	-3.4442619617	 0.5873020596	 0.095581
H	 1.0860011266	-3.7605316665	 1.0141614109	 0.113027
H	 0.5248369784	-2.0769782086	 2.5543107176	 0.086191
H	 0.2190796509	 0.1591875743	 2.1022512655	 0.08103
47.3325	164.3641	232.8941	267.5677	314.2499	347.5721	369.6967	431.4584	488.0017	550.4082	689.0103	725.1671	816.6928	860.0913	880.2246	938.4875	979.0355	996.1352	1005.8816	1037.4705	1049.805	1073.3494	1117.3946	1179.7093	1186.8758	1227.2569	1275.1157	1298.1924	1316.4318	1336.0215	1355.1508	1385.5762	1400.3201	1407.099	1423.7638	1436.2382	1470.5998	1478.2095	1497.2802	1497.8838	1501.6446	1733.8266	2913.314	2953.0555	2964.072	3016.5226	3029.789	3057.0137	3062.6002	3064.0583	3098.5346	3102.6153	3113.2265	3138.1979
CC1CCOCC=C1	C[C@H]1CCOCC=C1	
InChI=1S/C7H12O/c1-7-3-2-5-8-6-4-7/h2-3,7H,4-6H2,1H3	InChI=1S/C7H12O/c1-7-3-2-5-8-6-4-7/h2-3,7H,4-6H2,1H3/t7-/m1/s1
