18
gdb 22429	3.64063	1.24925	1.10175	1.4225	74.15	-0.2398	0.0075	0.2473	1118.7771	0.149112	-439.04001	-439.032537	-439.031592	-439.072026	29.847	
O	-0.0975341942	 1.3585096073	 0.2200161641	-0.396847
N	 0.0412173788	-0.0380175848	 0.121704512	-0.205168
C	-1.0824443525	-0.6169228105	-0.0486564049	 0.371978
C	-2.4162967899	 0.0906847988	-0.198104218	-0.294064
C	-3.4047092425	-0.8556521905	-0.8803846072	 0.081484
C	-2.7390519006	-1.6441718629	-2.0277125839	-0.259058
C	-2.3546672335	-2.5835175927	-0.8659909004	 0.087948
C	-1.0755930569	-2.133473236	-0.157993045	-0.280968
O	-3.4819115104	-2.0784828207	-0.0929267532	-0.298606
H	 0.8173117016	 1.6437970248	 0.3127394625	 0.306018
H	-2.8060200467	 0.3776291935	 0.7861946221	 0.131954
H	-2.2766953725	 1.015738189	-0.7664351037	 0.128269
H	-4.3867368907	-0.4043299342	-1.0411420807	 0.079583
H	-3.472330203	-2.0961231456	-2.696616264	 0.113138
H	-1.9409961111	-1.1636359834	-2.5988395582	 0.108498
H	-2.4034790387	-3.6651483451	-1.0130376863	 0.079847
H	-0.1728264083	-2.4683951633	-0.6782278299	 0.117653
H	-1.067300459	-2.5841215037	 0.8418539947	 0.12834
67.884	239.0987	261.1082	325.9567	352.9431	384.5709	407.4578	507.1397	534.422	568.0533	667.5952	769.8947	848.8483	854.9738	864.1238	881.2484	933.1675	947.7362	974.3686	1004.5152	1015.3697	1070.2199	1086.2543	1101.0368	1156.5192	1202.8058	1229.3154	1244.8272	1259.7872	1306.8625	1313.26	1340.0291	1354.8662	1375.8653	1405.5241	1454.9644	1461.2373	1493.2391	1734.2541	3035.7013	3040.3844	3070.0062	3080.942	3083.9272	3088.3348	3090.1568	3138.2918	3823.385
ON=C1CC2CC(C1)O2	ON=C1C[C@H]2C[C@@H](C1)O2	
InChI=1S/C6H9NO2/c8-7-4-1-5-3-6(2-4)9-5/h5-6,8H,1-3H2	InChI=1S/C6H9NO2/c8-7-4-1-5-3-6(2-4)9-5/h5-6,8H,1-3H2/t5-,6+
