22
gdb 17268	4.60477	1.02568	0.96053	0.1969	82.23	-0.2585	0.0911	0.3496	1323.3598	0.200085	-313.047025	-313.038071	-313.037127	-313.081261	33.463	
C	 0.0402823433	 1.5341676254	-0.1766825628	-0.402297
C	 0.1380667073	 0.0315986826	-0.0206880592	-0.006744
C	 1.4783617588	-0.6634920439	 0.0372002846	-0.287298
C	 0.5891535145	-0.638488197	 1.2589128883	 0.022827
C	 0.9772687662	 0.1283384698	 2.5099725701	-0.237333
C	 1.8099409806	-0.6977283735	 3.4719750983	 0.048068
C	 3.3101806659	-0.7612134167	 3.3389154513	-0.249489
C	 2.6836642185	-0.029668701	 4.5021660736	-0.280836
H	 0.8573228161	 2.0539015112	 0.3319531608	 0.114273
H	 0.0847313112	 1.8170245757	-1.234416214	 0.114337
H	-0.9016259141	 1.9205651633	 0.229533079	 0.114133
H	-0.6377692789	-0.5072080864	-0.5598562835	 0.078377
H	 1.6168605445	-1.595938478	-0.4994799061	 0.10442
H	 2.3615421422	-0.0313057177	 0.0546595597	 0.103498
H	 0.0822342384	-1.5762403295	 1.4787849035	 0.075076
H	 1.5368502422	 1.033097141	 2.2438387425	 0.087746
H	 0.0685935391	 0.4728964674	 3.0240933343	 0.094625
H	 1.3296158208	-1.6199510701	 3.7920120353	 0.077339
H	 3.8114283166	-1.7036205142	 3.5306063586	 0.107488
H	 3.7746045461	-0.1660356597	 2.5594346843	 0.107535
H	 2.7283611294	 1.0549859568	 4.5009565606	 0.106636
H	 2.7543022611	-0.4721968654	 5.4898399707	 0.107618
44.1882	78.6549	118.3785	181.6507	233.8291	284.918	350.6571	372.7794	439.6867	496.7077	757.1417	772.5254	800.714	819.1813	835.2502	867.4989	870.2749	920.5334	938.937	961.342	1011.4115	1047.0284	1052.3271	1067.6156	1076.1053	1101.0338	1112.9421	1138.4268	1151.4138	1196.1054	1198.4585	1204.3484	1229.887	1247.892	1273.5968	1323.5294	1388.907	1409.7017	1416.6114	1432.8639	1468.5953	1478.9463	1492.1852	1495.3466	1505.0346	1508.9832	3003.8441	3027.4774	3051.2847	3083.5722	3101.489	3115.7166	3122.193	3126.1222	3127.1813	3132.425	3133.9121	3203.3017	3205.1933	3219.164
CC1CC1CC1CC1	C[C@H]1C[C@H]1CC1CC1	
InChI=1S/C8H14/c1-6-4-8(6)5-7-2-3-7/h6-8H,2-5H2,1H3	InChI=1S/C8H14/c1-6-4-8(6)5-7-2-3-7/h6-8H,2-5H2,1H3/t6-,8-/m0/s1
