22
gdb 119017	1.79384	1.21141	0.83443	3.8905	86.19	-0.2866	0.0334	0.32	1481.0498	0.193286	-367.227261	-367.217128	-367.216184	-367.263185	37.042	
C	 3.4210845756	 0.7878620138	-1.3472647008	-0.380669
C	 2.8409781236	-0.6263200915	-1.2551113041	-0.171764
C	 1.3219462102	-0.6552367875	-1.4780329633	-0.264464
C	 0.703276387	-2.0453505532	-1.4812506924	 0.381263
C	 0.8002964413	-2.8227486853	-0.1680404243	-0.420793
C	 0.1249584528	-2.145665809	 0.9419689857	 0.271737
N	-0.4066752037	-1.5963266949	 1.8086785387	-0.315444
C	-0.5366917071	-2.2727431106	-2.3099291271	-0.30895
C	 0.7823774491	-2.8650982293	-2.7472486359	-0.317354
H	 3.2339932427	 1.2291190209	-2.3326412759	 0.114161
H	 2.9714803769	 1.4490395581	-0.5985566628	 0.122016
H	 4.5029385634	 0.7859045359	-1.1831412523	 0.113656
H	 3.3279080403	-1.2753287829	-1.9943356199	 0.097489
H	 3.0831451205	-1.0467990536	-0.2708825144	 0.099945
H	 0.8288841973	-0.042160676	-0.7116851078	 0.120286
H	 1.0958807287	-0.1777003351	-2.4397473357	 0.094415
H	 0.3539948027	-3.8162522687	-0.2851598553	 0.145505
H	 1.8470885804	-2.9835257282	 0.1147964913	 0.151327
H	-1.2970009384	-2.9451960954	-1.926679644	 0.117847
H	-0.932697975	-1.4319463186	-2.8686996414	 0.119383
H	 1.2841609475	-2.4227149491	-3.6012303679	 0.118019
H	 0.9137586343	-3.9392563395	-2.6673121203	 0.112389
41.1179	74.4071	109.2642	144.7293	172.8806	253.631	290.038	325.1712	348.0656	386.3434	398.3129	446.5579	563.3529	737.3655	759.0598	782.9771	856.5627	888.3348	904.527	910.9627	945.6851	971.1964	981.0197	1005.2007	1052.1434	1057.203	1085.3384	1110.297	1134.3527	1186.4592	1211.6236	1253.8225	1302.9402	1311.6874	1324.9223	1341.8025	1375.7382	1403.1902	1415.2027	1461.5509	1472.2476	1481.8018	1493.0037	1501.3833	1508.0059	1510.8432	2359.4955	3013.7544	3022.8135	3031.712	3040.0756	3043.696	3063.6745	3080.033	3098.9713	3105.4304	3128.6266	3133.9584	3206.9407	3221.1866
CCCC1(CC#N)CC1	CCCC1(CC#N)CC1	
InChI=1S/C8H13N/c1-2-3-8(4-5-8)6-7-9/h2-6H2,1H3	InChI=1S/C8H13N/c1-2-3-8(4-5-8)6-7-9/h2-6H2,1H3
