15
gdb 13967	5.15521	1.40335	1.31329	3.1093	62.38	-0.2351	0.0184	0.2534	932.2282	0.118736	-399.769027	-399.761794	-399.760849	-399.801116	26.495	
O	 0.0858254001	 0.4287174031	 1.4469635639	-0.303956
C	 0.0434274987	 1.3127415939	 0.6245226575	 0.134693
N	 1.0918377904	 1.7320410739	-0.1528866634	-0.395502
C	 2.3800612517	 1.1516500811	-0.1336861573	 0.322492
C	 3.169620052	 0.9431400326	 1.136192221	-0.293202
C	 3.7639003361	 1.7577211152	 0.0315039414	 0.024373
O	 4.3237809692	 0.9165524225	-0.9777805611	-0.280577
C	 3.0204853389	 0.3389612712	-1.2607655445	-0.124985
H	-0.8693489521	 1.9066061522	 0.4141837068	 0.07622
H	 0.8982792115	 2.4485079131	-0.8372065829	 0.249044
H	 2.7898919714	 1.5057462776	 1.9819509476	 0.132692
H	 3.577206027	-0.0350049375	 1.3733567038	 0.125535
H	 4.1219658477	 2.7778653331	 0.1082083849	 0.112395
H	 3.0115798203	-0.753045071	-1.170446199	 0.117455
H	 2.6774217371	 0.634984029	-2.2597770787	 0.103325
46.8751	150.2771	205.8777	279.0513	366.3075	401.5451	452.9794	541.291	602.054	761.4693	808.9454	870.8589	925.9257	939.3566	988.1064	993.364	1022.5757	1031.6676	1059.3168	1089.8887	1105.9014	1150.8573	1165.206	1220.0347	1287.817	1310.989	1405.4097	1437.576	1479.0899	1514.3229	1519.238	1819.9589	2927.5431	3020.8782	3076.1705	3129.0851	3184.1608	3225.9141	3601.065
O=CNC12CC1OC2	O=CN[C@]12C[C@H]1OC2	
InChI=1S/C5H7NO2/c7-3-6-5-1-4(5)8-2-5/h3-4H,1-2H2,(H,6,7)	InChI=1S/C5H7NO2/c7-3-6-5-1-4(5)8-2-5/h3-4H,1-2H2,(H,6,7)/t4-,5+/m1/s1
