15
gdb 13926	3.6518	1.88618	1.5429	3.7863	61.82	-0.2336	0.0153	0.2488	843.29	0.119425	-399.795161	-399.787907	-399.786963	-399.827188	26.062	
O	-0.2346183706	 0.0065821598	 0.0675051693	-0.360757
C	-0.1204593445	 1.200837584	 0.0162166422	 0.380001
N	-1.0200761998	 2.2386506348	-0.0224330524	-0.338354
C	-0.0318636865	 3.3198580854	-0.0924457272	-0.223413
C	 1.0650277058	 2.2184358642	 0.0039171497	 0.298647
C	 2.1576765741	 2.156724021	 1.0860797556	-0.352623
C	 3.1169037251	 1.9866941381	-0.1089881717	-0.070933
O	 2.0232120446	 2.1297220784	-1.0474638935	-0.304525
H	-2.0285862183	 2.2501713989	-0.004564969	 0.254344
H	-0.0133750285	 3.8583048762	-1.0447526059	 0.125714
H	-0.0702991343	 4.0267613786	 0.7430302687	 0.111333
H	 2.2859516198	 3.0749892683	 1.661501058	 0.11714
H	 2.0837742995	 1.3039932815	 1.7620212224	 0.135
H	 3.8712660599	 2.7690330675	-0.2460308341	 0.108235
H	 3.5924006837	 1.0039241334	-0.192435372	 0.120193
74.6819	105.4245	179.638	254.7807	279.0882	465.1435	479.0494	604.7581	724.5121	763.2088	789.9182	867.3929	882.7946	907.533	975.1152	997.1494	1024.2632	1125.406	1137.7325	1159.5284	1166.9421	1174.8081	1218.8076	1232.9933	1278.3296	1295.4908	1352.6218	1385.4884	1482.7045	1518.2651	1527.8561	1897.1829	3034.5177	3038.639	3080.4029	3083.7489	3093.3889	3142.3179	3619.6939
O=C1NCC11CCO1	O=C1NC[C@]21CCO2	
InChI=1S/C5H7NO2/c7-4-5(3-6-4)1-2-8-5/h1-3H2,(H,6,7)	InChI=1S/C5H7NO2/c7-4-5(3-6-4)1-2-8-5/h1-3H2,(H,6,7)/t5-/m0/s1
