16
gdb 125499	2.50106	1.46709	0.93544	3.3233	75.11	-0.2694	-0.0558	0.2136	1215.3371	0.123939	-434.125443	-434.116764	-434.11582	-434.159075	30.502	
C	-0.0398456305	 1.4511756824	-0.0077198398	-0.483595
C	-0.007932644	-0.0373627154	 0.0027045957	 0.357128
N	-0.0037409851	-0.7581549353	-1.0943499071	-0.264593
N	 0.0290326637	-2.04163472	-0.6104490427	-0.079274
C	 0.0445883802	-3.1639961278	-1.4500768815	 0.183071
O	 0.0314090154	-3.1245191668	-2.645683074	-0.250684
C	 0.0424875611	-2.0119245255	 0.7702714621	 0.371108
C	 0.0774127201	-3.2139804119	 1.6535577318	-0.509563
N	 0.0198386813	-0.7700241714	 1.1765384364	-0.339976
H	 0.8403665458	 1.8553203179	 0.5020635476	 0.145496
H	-0.0629498147	 1.8207445852	-1.0335595758	 0.149638
H	-0.9206973194	 1.8176651437	 0.5286143923	 0.145477
H	 0.070785154	-4.0955782095	-0.8583816046	 0.104597
H	 0.9737286604	-3.8188677546	 1.4826855945	 0.151538
H	 0.0807004927	-2.871909172	 2.6887935357	 0.168092
H	-0.795404161	-3.8569026191	 1.5008762696	 0.151541
111.3356	128.368	134.9048	192.8378	199.5784	217.1571	269.6013	384.4654	406.8672	551.7362	625.4178	675.351	699.9277	715.5631	885.3359	989.3815	1010.676	1023.8369	1054.2007	1065.0756	1070.0459	1135.9384	1327.1337	1336.8953	1375.4543	1409.3602	1416.8298	1452.919	1475.9103	1476.0415	1482.1429	1483.9193	1561.0233	1611.0697	1847.3226	2989.3116	3045.3465	3049.0825	3102.0609	3105.8523	3152.8629	3154.6837
CC1=NN(C=O)C(C)=N1	Cc1nn(C=O)c(C)n1	
InChI=1S/C5H7N3O/c1-4-6-5(2)8(3-9)7-4/h3H,1-2H3	InChI=1S/C5H7N3O/c1-4-6-5(2)8(3-9)7-4/h3H,1-2H3
