19
gdb 102888	2.04759	1.03241	0.72084	1.0399	84.9	-0.2603	0.0197	0.2799	1573.0756	0.154518	-385.809024	-385.798375	-385.797431	-385.845389	37.901	
C	 0.8906692647	 0.9922432839	-0.3392325218	-0.391884
C	 0.2623344619	-0.3745757308	-0.0624369012	-0.185963
C	-1.2636735874	-0.304298861	 0.0926614857	-0.043682
O	-1.7889053877	 0.1670941608	-1.1425580769	-0.245128
C	-3.1732709054	 0.4757346243	-1.0923144789	-0.215689
C	-3.6016605957	 1.0074381902	-2.3782262552	 0.286742
C	-3.9827273983	 1.4481881282	-3.4281349513	-0.419726
C	-1.8329422004	-1.6051431432	 0.4703811486	 0.334556
C	-2.2942430723	-2.6725726904	 0.7758127157	-0.459778
H	 1.9732390229	 0.9006298209	-0.4661694478	 0.113495
H	 0.4729982855	 1.4333445271	-1.2470019688	 0.141371
H	 0.7098478591	 1.6866720384	 0.4891071207	 0.111162
H	 0.4828986832	-1.0726098476	-0.8768909719	 0.120419
H	 0.6726283561	-0.8121523068	 0.8537747521	 0.109529
H	-1.5071473892	 0.4224073867	 0.8885171215	 0.091187
H	-3.7584634789	-0.4226781894	-0.8440828983	 0.134682
H	-3.3699388332	 1.2163801824	-0.298474375	 0.117206
H	-4.3145745472	 1.8363497921	-4.3591979031	 0.20064
H	-2.7014901377	-3.6153082059	 1.0474760157	 0.200862
47.6128	94.9444	102.9063	124.5058	142.0636	210.9988	228.2979	285.8427	323.2299	336.3066	430.9163	495.9153	532.5601	607.2621	613.1252	631.0402	676.1692	676.4478	779.3399	874.7307	956.3842	972.7181	993.2688	1034.3891	1053.698	1101.0267	1132.2414	1160.6448	1255.6159	1285.9532	1315.8146	1350.0675	1381.7913	1407.6152	1422.2741	1476.9171	1495.205	1502.1792	1509.294	2229.3125	2248.5036	2940.8949	2961.2093	3004.842	3038.0076	3049.1227	3087.0346	3105.942	3132.3183	3501.0707	3506.1411
CCC(OCC#C)C#C	CC[C@@H](OCC#C)C#C	
InChI=1S/C8H10O/c1-4-7-9-8(5-2)6-3/h1-2,8H,6-7H2,3H3	InChI=1S/C8H10O/c1-4-7-9-8(5-2)6-3/h1-2,8H,6-7H2,3H3/t8-/m0/s1
