21
gdb 107457	2.55485	1.33678	1.18056	2.03	77.8	-0.2562	0.0753	0.3315	1175.1683	0.18065	-424.195007	-424.185642	-424.184697	-424.228499	36.167	
C	-0.049464443	 1.5322301298	 0.0841237389	-0.451113
C	-0.025418402	 0.0093318573	-0.0079611177	 0.246715
C	-1.3857211735	-0.5640104624	-0.406347573	-0.451596
C	 1.1514916874	-0.6165674311	-0.8612549388	-0.299983
C	 1.6527817542	-1.3094121292	 0.4073999893	-0.043586
O	 1.9414452454	-0.263865598	 1.3611825892	-0.311723
C	 0.5807016633	-0.7214591723	 1.2225504873	 0.379512
C	-0.0608290079	-1.1937469604	 2.4963465147	-0.188457
O	 0.849854416	-1.935462012	 3.2791347911	-0.416776
H	 0.9160316517	 1.9119092226	 0.4270281271	 0.132879
H	-0.2657484691	 1.975578353	-0.8943340459	 0.112785
H	-0.8228642048	 1.8764961446	 0.7804996602	 0.110823
H	-1.6786906317	-0.2022916833	-1.397885759	 0.119317
H	-1.3681862918	-1.6588177456	-0.4421007301	 0.115779
H	-2.1672358718	-0.2629354509	 0.3005266928	 0.117273
H	 0.790861146	-1.309912003	-1.6252317415	 0.105583
H	 1.8575912637	 0.0874911219	-1.3084460726	 0.108855
H	 2.1985035428	-2.238181808	 0.5236634884	 0.110254
H	-0.4551496751	-0.3219295897	 3.047458842	 0.094679
H	-0.9116488304	-1.8467923906	 2.2738546427	 0.11677
H	 1.6833266408	-1.4483880929	 3.2350607149	 0.292009
104.7836	142.7572	181.2033	218.6662	232.5758	273.0195	293.1203	332.6275	360.4877	437.6782	476.0701	489.5592	549.3569	632.1465	689.4389	805.1197	839.7225	860.6317	922.6548	943.7995	961.0398	981.5491	1007.8362	1039.2008	1058.6213	1077.7527	1119.8312	1126.9715	1198.9393	1220.5517	1227.7487	1266.7418	1272.1777	1290.4784	1369.1178	1398.2013	1416.5994	1436.9839	1457.8319	1479.7983	1485.4328	1489.2701	1502.5676	1507.7687	1512.3991	2952.1396	3022.9056	3028.4801	3061.9312	3067.9902	3086.6574	3091.8147	3095.4547	3119.0802	3122.068	3192.3786	3764.5933
CC1(C)CC2OC12CO	CC1(C)C[C@H]2O[C@@]12CO	
InChI=1S/C7H12O2/c1-6(2)3-5-7(6,4-8)9-5/h5,8H,3-4H2,1-2H3	InChI=1S/C7H12O2/c1-6(2)3-5-7(6,4-8)9-5/h5,8H,3-4H2,1-2H3/t5-,7-/m1/s1
