21
gdb 58807	3.50807	1.03674	0.97328	1.4521	78.62	-0.248	0.0676	0.3156	1333.8651	0.180194	-424.194778	-424.185077	-424.184133	-424.229221	36.404	
C	 0.0594774267	 1.452016448	-0.2387195443	-0.416159
C	 0.0417451691	-0.0253917987	 0.1550451901	-0.006178
O	 0.7835723663	-0.2696383743	 1.347306765	-0.423104
C	-1.3628582223	-0.5509942485	 0.2886647771	 0.444439
C	-2.3860181574	-0.3050264016	 1.4137161918	-0.335503
C	-3.0130534915	-1.7138447551	 1.0843323533	 0.013768
C	-4.4766185587	-1.7768929293	 0.6728740404	-0.404167
C	-1.9576584143	-1.8581814194	-0.0274333743	-0.068077
O	-2.1180284993	-0.7402785315	-0.9180404746	-0.299798
H	 1.0895158793	 1.8039717167	-0.3405544615	 0.124364
H	-0.4641556366	 1.6028312882	-1.1868831419	 0.140138
H	-0.4414154403	 2.0639638332	 0.5221858351	 0.109194
H	 0.5407192641	-0.6129359549	-0.6239035749	 0.098677
H	 0.5080582285	 0.38174837	 2.0012559849	 0.280618
H	-1.9406536597	-0.2719341097	 2.4109788774	 0.100583
H	-3.0356462645	 0.5620819319	 1.268388536	 0.10396
H	-2.8026600942	-2.4145527311	 1.8985254694	 0.079617
H	-4.6594444159	-1.1136468274	-0.1771870542	 0.132869
H	-4.7623290368	-2.7936357136	 0.3813183737	 0.113408
H	-5.1315434275	-1.4695879296	 1.4950847934	 0.112959
H	-1.5156871251	-2.7568550333	-0.4447063019	 0.098393
64.0255	102.4076	156.4482	203.5582	238.382	250.5488	260.5812	291.3005	339.0738	405.2772	485.9065	500.267	578.6028	644.5288	716.8017	805.9736	860.9464	888.7737	911.2933	925.5045	942.2813	996.4322	1015.2746	1044.8676	1073.2005	1101.4501	1106.9535	1120.4005	1187.1374	1211.6715	1220.9946	1257.6771	1284.9102	1298.6455	1339.0795	1361.0946	1397.787	1403.3022	1405.6966	1456.3229	1480.0088	1492.7563	1493.374	1500.245	1504.4982	3026.3236	3031.9617	3052.2061	3056.1433	3062.0708	3094.2811	3100.9318	3116.3912	3120.1208	3127.0022	3175.0842	3807.4097
CC(O)C12CC(C)C1O2	C[C@@H](O)[C@]12C[C@@H](C)[C@H]1O2	
InChI=1S/C7H12O2/c1-4-3-7(5(2)8)6(4)9-7/h4-6,8H,3H2,1-2H3	InChI=1S/C7H12O2/c1-4-3-7(5(2)8)6(4)9-7/h4-6,8H,3H2,1-2H3/t4-,5-,6-,7-/m1/s1
