18
gdb 78802	1.94005	1.84323	1.83313	2.7341	70.52	-0.2544	0.0476	0.302	946.6456	0.147691	-439.0315	-439.023444	-439.0225	-439.063492	31.778	
C	-0.0437762101	 1.5297002872	-0.0081282364	-0.511621
C	-0.0323644223	 0.0302609207	 0.0190524516	 0.249703
C	 0.3765388175	-0.8037306572	-1.2090643406	 0.069357
O	 1.7655139343	-1.0782722869	-1.3323790487	-0.441482
C	-0.5927641199	-1.8426146097	-0.6841392869	-0.099325
C	-0.5534392951	-1.8201955096	 0.8049201019	-0.105249
C	 0.4575463906	-0.7742023007	 1.2542163248	 0.128358
O	 1.8085536902	-1.0594203795	 1.4517410028	-0.445296
N	-1.3717189786	-0.7914131386	 0.0684477102	-0.191507
H	 0.9836769552	 1.9097892194	-0.0220012465	 0.137634
H	-0.5632225794	 1.9090695765	-0.8939078626	 0.12309
H	-0.5437050309	 1.930986345	 0.8786858241	 0.129721
H	-0.0139516921	-0.3474142068	-2.1276694037	 0.087977
H	 1.9027244078	-1.6683845007	-2.0804633713	 0.291999
H	-1.1037051261	-2.6211892264	-1.2394375528	 0.09503
H	-1.0333713461	-2.5920202867	 1.395890625	 0.096992
H	 0.0914035421	-0.2914865789	 2.1659912854	 0.095643
H	 2.1648293129	-1.3279442471	 0.5929796436	 0.288975
166.9846	193.4201	202.3872	246.5179	258.0803	279.913	375.8578	421.98	560.6774	569.5327	632.1709	648.8791	756.1823	765.3189	794.5304	830.5175	848.7199	926.5412	973.0296	1009.5488	1035.1029	1041.8347	1094.0112	1102.1327	1117.0948	1139.4765	1163.9173	1206.323	1247.0682	1287.6274	1317.1171	1331.1125	1354.7439	1382.6293	1409.186	1431.931	1474.7183	1482.0888	1492.0854	3028.1804	3033.8203	3068.9148	3103.8811	3108.8533	3175.1235	3187.7801	3732.2804	3819.0458
CC12C(O)C3C(C1O)N23	C[C@@]12[C@@H](O)[C@H]3[C@@H]([C@H]1O)N23	
InChI=1S/C6H9NO2/c1-6-4(8)2-3(5(6)9)7(2)6/h2-5,8-9H,1H3	InChI=1S/C6H9NO2/c1-6-4(8)2-3(5(6)9)7(2)6/h2-5,8-9H,1H3/t2-,3+,4+,5-,6-,7?
