20
gdb 22077	2.13166	1.41022	1.08157	0.9885	79.13	-0.2437	0.0015	0.2452	1228.6208	0.167035	-440.240524	-440.230258	-440.229313	-440.275329	37.641	
C	 0.4111470208	 1.6022605769	-0.0940211305	-0.404341
C	 0.0166589159	 0.1458396805	 0.0843804652	 0.066586
O	 0.6934324937	-0.756577982	-0.8330211817	-0.356629
C	 1.2609089424	-1.5688088945	 0.248725105	 0.339162
C	 0.6912896902	-2.9835939029	 0.2269074	-0.421227
C	 2.7845120337	-1.5496098586	 0.2134223312	-0.420514
C	 0.6060560909	-0.6263355629	 1.2407087005	 0.295048
N	 0.6205571477	-0.5916986834	 2.5022503941	-0.247785
O	-0.152920824	 0.4813513448	 2.9895986894	-0.39361
H	 1.4919708044	 1.7313399817	 0.0074374203	 0.122478
H	 0.1125196603	 1.9477790597	-1.0884167	 0.127725
H	-0.088527571	 2.2173843937	 0.6593908932	 0.137057
H	-1.0749935311	 0.0375454316	 0.0075066829	 0.098487
H	 1.0213155704	-3.5024906382	-0.6787113275	 0.124536
H	 1.0351825907	-3.5482135503	 1.0989029555	 0.127089
H	-0.4013477096	-2.9639051669	 0.2350410161	 0.122087
H	 3.1626946997	-0.524643605	 0.2130913738	 0.122496
H	 3.1920616708	-2.070715154	 1.085053469	 0.1278
H	 3.1417149757	-2.0507026139	-0.6919912765	 0.124873
H	-0.0490517216	 0.3905493037	 3.94292481	 0.308682
74.0546	127.8729	152.4619	181.8408	205.0787	213.5637	254.6799	276.7644	318.107	336.81	388.3173	419.3256	463.171	557.5542	612.9009	675.437	769.2122	850.9427	870.1591	933.9884	955.4481	973.7544	999.6957	1037.1248	1074.7014	1101.9592	1142.4666	1185.0325	1216.4542	1288.1942	1292.1713	1365.5711	1393.6525	1398.3363	1405.4909	1414.5311	1471.427	1476.6434	1482.8989	1491.9201	1494.8137	1500.6229	1808.7413	2998.5231	3037.6467	3042.445	3044.2006	3110.5199	3117.0184	3119.6104	3122.7705	3126.1898	3129.2098	3817.6634
CC1OC(C)(C)C1=NO	C[C@H]1OC(C)(C)C1=NO	
InChI=1S/C6H11NO2/c1-4-5(7-8)6(2,3)9-4/h4,8H,1-3H3	InChI=1S/C6H11NO2/c1-4-5(7-8)6(2,3)9-4/h4,8H,1-3H3/t4-/m1/s1
