22
gdb 120340	3.84276	0.91476	0.81997	1.4417	87.63	-0.2293	0.0144	0.2437	1498.1114	0.195558	-367.197867	-367.189047	-367.188103	-367.231792	33.905	
C	-0.114771102	 1.6187270897	 0.0392401009	-0.379538
C	 0.025556155	 0.0950452472	-0.0243544865	-0.17083
C	 0.7068400822	-0.4890440455	 1.2182173998	-0.164913
C	 0.8045330862	-2.0266348126	 1.2300884265	-0.039859
C	 1.6681014236	-2.6296306137	 0.1307764715	-0.080704
C	 2.6173490924	-3.4404082401	 0.6032299143	-0.059328
C	 2.5804228734	-3.4766633892	 2.09484481	-0.087598
N	 2.8598891659	-2.1381951887	 2.6977556204	-0.33045
C	 1.4623372446	-2.5837505629	 2.4963317935	-0.068922
H	 0.8646222804	 2.101608897	 0.1281459533	 0.116331
H	-0.6013354645	 2.0141440109	-0.8580472648	 0.108668
H	-0.7123315252	 1.9256585875	 0.9050682052	 0.111717
H	-0.9675289476	-0.3590745367	-0.1451724527	 0.089483
H	 0.5947942171	-0.1766627652	-0.9218661457	 0.097304
H	 1.7168659761	-0.0787806626	 1.3251099099	 0.117438
H	 0.1477985526	-0.1730234885	 2.1099136807	 0.084597
H	-0.2171258293	-2.4306506756	 1.1531157848	 0.073725
H	 1.5212077336	-2.3909290817	-0.9164232854	 0.095471
H	 3.3473438858	-3.9779773312	 0.0097936253	 0.09472
H	 2.8588405605	-4.3651078541	 2.651533319	 0.085835
H	 3.0915576702	-2.2698675544	 3.6814474707	 0.224712
H	 0.852489599	-2.7816522199	 3.3716971394	 0.08214
80.2323	82.9331	127.5478	194.1826	250.0938	291.3562	326.2712	421.7536	467.5375	592.5349	701.2373	741.7804	753.5828	794.9453	803.8941	851.5204	861.1409	901.7866	917.2665	926.9687	948.0582	974.7277	995.9313	1039.7675	1072.7265	1084.0708	1110.2694	1130.5247	1137.4378	1154.4766	1169.321	1242.3948	1251.6668	1286.6229	1309.5282	1323.8915	1342.4955	1348.1679	1390.2655	1396.7609	1412.1366	1414.2196	1485.4506	1495.9431	1500.0592	1511.3807	1665.3581	2980.1982	3010.6811	3014.6893	3028.907	3047.1116	3078.498	3096.7631	3100.2851	3157.6435	3169.4653	3188.7973	3213.7986	3470.8906
CCCC1C=CC2NC12	CCC[C@H]1C=C[C@H]2N[C@@H]12	
InChI=1S/C8H13N/c1-2-3-6-4-5-7-8(6)9-7/h4-9H,2-3H2,1H3	InChI=1S/C8H13N/c1-2-3-6-4-5-7-8(6)9-7/h4-9H,2-3H2,1H3/t6-,7+,8-/m0/s1
