18
gdb 31837	4.97645	0.99384	0.83653	1.4803	87.25	-0.1756	-0.0068	0.1688	1367.7564	0.150027	-398.188075	-398.179445	-398.178501	-398.221184	32.66	
C	 0.0436294954	 1.4157137377	-0.1505217129	-0.321875
N	-0.1328983534	 0.007312656	 0.1225615778	-0.346151
C	 0.583026024	-0.6461591734	 1.110807984	 0.382595
N	 0.6240187012	-1.9810324725	 1.0088053669	-0.343084
C	 1.2580380393	-2.6741477971	 1.9507900626	-0.054765
C	 1.9046201099	-2.1070019276	 3.0529518766	 0.249878
N	 2.6200120853	-2.8936232628	 3.9744408852	-0.597379
C	 1.8631199294	-0.7123946293	 3.1428826908	-0.13262
C	 1.2039108873	 0.0287777558	 2.1749456895	-0.191209
H	 1.0934800862	 1.7013953673	-0.3249889925	 0.11344
H	-0.5353260945	 1.6776451096	-1.0388247933	 0.125784
H	-0.3361377361	 2.0268025307	 0.6770326453	 0.128617
H	-0.3068357869	-0.5893399889	-0.6716143984	 0.239152
H	 1.2626763358	-3.7569580618	 1.824938038	 0.087038
H	 2.3023693173	-3.8534517498	 4.0078387543	 0.242424
H	 2.6307966603	-2.5073485815	 4.9091169709	 0.24151
H	 2.3537866134	-0.207643229	 3.9706287247	 0.087715
H	 1.1684760361	 1.1086648964	 2.2474512705	 0.088928
82.2191	144.8822	197.3168	210.3181	212.4992	346.8488	369.3414	430.4662	448.311	461.701	542.2464	586.4906	663.966	691.5982	774.1947	782.7079	839.2247	862.6871	932.8295	949.9061	1026.0649	1089.8652	1103.621	1155.1429	1163.4204	1188.4472	1290.5688	1305.0546	1335.3997	1352.791	1439.5815	1468.5755	1484.1942	1485.7813	1523.4403	1553.6638	1616.718	1651.5885	1666.5483	2973.8871	3047.1812	3119.2464	3121.1374	3164.023	3205.3369	3539.9	3621.4499	3631.6665
CNC1=NC=C(N)C=C1	CNc1ncc(N)cc1	
InChI=1S/C6H9N3/c1-8-6-3-2-5(7)4-9-6/h2-4H,7H2,1H3,(H,8,9)	InChI=1S/C6H9N3/c1-8-6-3-2-5(7)4-9-6/h2-4H,7H2,1H3,(H,8,9)
