19
gdb 101932	2.05356	1.4795	1.08341	2.2239	71.78	-0.2402	-0.0207	0.2195	1201.5079	0.155356	-460.13906	-460.128826	-460.127882	-460.175319	35.157	
C	 0.0611798519	 1.7183883402	-0.3061265165	-0.242037
O	 0.6448941336	 0.4798283651	 0.049183156	-0.230628
C	 0.9343425215	-0.3591009998	-1.038694349	-0.004178
C	 1.8090871306	-1.4714787175	-0.4733372992	 0.05723
C	 1.2237218546	-2.5694064494	 0.3003842357	-0.166282
O	 1.6863616257	-2.7736372321	-1.0440478993	-0.238695
C	-0.332957306	-0.9363310361	-1.7191887919	 0.372937
C	-0.1758942443	-1.3971676108	-3.1512518856	-0.487359
O	-1.3785705954	-0.9908640463	-1.1167320831	-0.30781
H	 0.7011667182	 2.2768630827	-1.0071936888	 0.101418
H	-0.9318528419	 1.5881782093	-0.7528497217	 0.128333
H	-0.0382107073	 2.2958733381	 0.615436177	 0.1326
H	 1.5077202132	 0.1908676698	-1.8067935509	 0.067521
H	 2.8311336332	-1.1677717759	-0.2499753563	 0.105705
H	 1.8199893573	-3.0537696693	 1.0705369557	 0.122414
H	 0.145583232	-2.6098016293	 0.4326933728	 0.145843
H	 0.1051359367	-0.5521688879	-3.7908898439	 0.133941
H	 0.6261305516	-2.1386307795	-3.2114701448	 0.167031
H	-1.1134601554	-1.8272487314	-3.5056532263	 0.142017
45.0228	69.2807	109.7315	111.4592	168.7545	180.6945	196.7064	276.1494	328.4577	374.5178	453.2871	477.1332	606.7028	638.5182	792.9248	853.6225	887.5521	947.8175	962.3693	1022.3775	1037.1586	1070.7711	1110.9068	1152.6663	1158.87	1175.9752	1177.3521	1192.6574	1230.0668	1292.1345	1317.8777	1368.5172	1378.6512	1430.8608	1462.384	1477.0544	1478.9756	1487.5277	1509.1245	1527.9035	1816.0983	2941.2	2983.0656	3038.675	3059.8534	3103.8395	3110.0247	3120.0367	3124.4543	3154.7153	3200.9674
COC(C1CO1)C(C)=O	CO[C@@H]([C@H]1CO1)C(=O)C	
InChI=1S/C6H10O3/c1-4(7)6(8-2)5-3-9-5/h5-6H,3H2,1-2H3	InChI=1S/C6H10O3/c1-4(7)6(8-2)5-3-9-5/h5-6H,3H2,1-2H3/t5-,6-/m1/s1
