16
gdb 50336	2.92699	1.53855	1.37132	2.9662	67.91	-0.2489	-0.023	0.226	970.2697	0.125342	-437.893796	-437.886501	-437.885557	-437.926415	27.045	
O	-0.7826186075	 1.2767423272	-0.4916640861	-0.243156
C	 0.0973113595	 1.1577420155	 0.3222587784	 0.160081
C	 1.4225599613	 1.8763199767	 0.2503028275	-0.110307
C	 1.6042402631	 2.9145881944	-0.892492878	-0.269265
C	 1.9184223317	 4.0126399484	 0.1476822617	 0.084728
O	 0.8924630907	 5.0229707242	 0.2825401291	-0.223187
C	 0.0971708612	 4.5843264084	 1.2887711949	 0.122546
N	 0.3864978895	 3.5213498954	 1.9215156284	-0.26296
C	 1.6246639364	 3.0197442775	 1.3113446297	-0.031734
H	-0.0217573469	 0.4929431464	 1.2052583286	 0.087355
H	 2.2222059295	 1.130062606	 0.3164311801	 0.096346
H	 2.4095953803	 2.70108019	-1.5972582734	 0.113135
H	 0.6804604016	 3.0948182614	-1.4453017271	 0.140918
H	 2.8833870008	 4.5143916337	 0.0785249464	 0.096938
H	-0.7612207943	 5.2161812491	 1.4876223169	 0.149466
H	 2.3832834331	 2.8318692557	 2.0735699429	 0.089096
53.7716	95.2969	201.2115	259.6457	346.1462	433.1932	574.6734	612.5986	667.0489	751.8619	800.3326	854.7909	868.4294	904.7502	927.5092	943.4043	974.8439	1007.4599	1048.2037	1086.6587	1092.4711	1112.839	1130.9168	1186.5121	1242.2171	1252.3196	1279.3187	1298.1173	1319.4263	1338.2095	1362.512	1421.4198	1472.0146	1680.2541	1824.1278	2896.3426	3050.6737	3081.2884	3087.7481	3115.3778	3141.959	3220.7539
O=CC1CC2OC=NC12	O=C[C@H]1C[C@H]2OC=N[C@@H]12	
InChI=1S/C6H7NO2/c8-2-4-1-5-6(4)7-3-9-5/h2-6H,1H2	InChI=1S/C6H7NO2/c8-2-4-1-5-6(4)7-3-9-5/h2-6H,1H2/t4-,5-,6+/m1/s1
