19
gdb 15089	2.46751	1.66027	1.10141	2.2654	68.21	-0.2361	0.0628	0.2989	1111.1858	0.164096	-402.145294	-402.135891	-402.134947	-402.179884	32.837	
C	 0.1521412772	-0.5090342214	 1.3275899671	-0.238677
O	-0.2089410901	-0.9828519409	 0.0495843553	-0.244915
C	 0.6153558228	-0.5178499113	-1.008041756	 0.089524
C	 1.8377672011	-1.4314202662	-1.1798278543	-0.093211
O	 2.7911676759	-0.7203900115	-1.9626078377	-0.417551
C	-0.245564512	-0.4736443859	-2.2531511562	 0.015564
C	-0.7358530972	 0.8182727597	-2.7899712876	-0.246591
N	 0.3000765381	 0.0581583503	-3.5088143988	-0.323709
H	 1.1671692896	-0.8135970276	 1.6227196173	 0.107021
H	 0.0938853992	 0.5888092575	 1.3824231472	 0.108495
H	-0.5577758324	-0.9358070833	 2.0404389193	 0.129164
H	 0.9950636675	 0.4939070997	-0.7898684262	 0.071121
H	 2.2509203881	-1.6860635887	-0.1927003974	 0.090957
H	 1.5285870757	-2.3670813868	-1.6655816057	 0.102499
H	 3.40142083	-1.3519680902	-2.3525168174	 0.294602
H	-0.8631727182	-1.3624441276	-2.3723700331	 0.093612
H	-1.6970941327	 0.8707425385	-3.2934863002	 0.11556
H	-0.4521516148	 1.7262214051	-2.2626054823	 0.106699
H	 1.2241503422	 0.4435449407	-3.3295511134	 0.239837
64.1304	90.4253	119.9962	170.8555	187.2278	203.617	262.9059	290.758	372.0344	433.0402	487.8218	523.9486	805.0128	868.2142	916.6282	951.2273	964.5663	1004.0338	1052.525	1067.2321	1092.7288	1135.9122	1142.0856	1161.929	1183.0833	1199.4016	1218.843	1249.0913	1262.4177	1270.0077	1309.0956	1341.5452	1346.5808	1439.8971	1449.5177	1482.5927	1488.5019	1508.1897	1512.2318	1517.6301	2969.825	2980.7205	2990.887	3026.7296	3034.6931	3103.5603	3113.5941	3122.2066	3188.1684	3508.1319	3843.6423
COC(CO)C1CN1	CO[C@@H](CO)[C@H]1CN1	
InChI=1S/C5H11NO2/c1-8-5(3-7)4-2-6-4/h4-7H,2-3H2,1H3	InChI=1S/C5H11NO2/c1-8-5(3-7)4-2-6-4/h4-7H,2-3H2,1H3/t4-,5+/m1/s1
