20
gdb 122478	3.53581	0.65963	0.58948	3.0727	80.69	-0.2694	0.0308	0.3002	1854.441	0.170114	-403.149437	-403.139411	-403.138467	-403.185731	35.41	
O	-0.0880994	 1.4171070076	-0.337734206	-0.421607
C	 0.0001484474	 0.057342755	 0.0583233583	-0.076411
C	-1.3863759858	-0.5582337293	-0.0784139133	-0.164617
C	-1.4223580729	-2.0337408129	 0.3367144063	-0.224343
C	-2.8040623693	-2.6358389551	 0.1982232039	 0.003025
C	-3.2737894269	-3.2014289801	-1.1076421296	-0.280985
C	-3.0024474211	-4.1424497749	 0.0596070305	-0.189828
C	-1.8668649464	-5.0195207715	 0.0142722707	 0.287455
N	-0.9497914373	-5.7249809304	-0.0172652188	-0.344995
H	 0.7864640851	 1.8098354231	-0.2640275893	 0.286872
H	 0.7159418018	-0.4974122206	-0.570220637	 0.089026
H	 0.346460885	-0.0338437754	 1.1011827744	 0.086474
H	-2.0860251293	 0.0251105947	 0.5327192944	 0.106243
H	-1.7160507467	-0.4508560268	-1.1185090824	 0.110025
H	-0.7120388585	-2.6105933283	-0.2678816774	 0.118731
H	-1.0874848884	-2.1353492942	 1.3773140269	 0.109878
H	-3.5674105909	-2.1572010003	 0.8065055398	 0.102828
H	-4.3084489898	-3.0770594328	-1.4050288558	 0.129997
H	-2.5655852653	-3.2294352371	-1.928404232	 0.139302
H	-3.8656104806	-4.5714555507	 0.5570037864	 0.132932
49.5201	70.9914	84.7244	132.0829	157.1866	211.9545	265.2585	297.3872	325.1183	407.7975	467.4356	556.0788	633.8498	755.3439	774.5474	813.7919	856.7951	872.31	947.2082	975.1454	1019.8756	1049.9999	1064.7223	1077.1959	1090.2202	1122.1657	1144.9026	1185.3839	1220.3433	1230.5385	1241.7915	1300.3939	1309.2651	1317.9549	1365.9285	1383.0428	1422.9865	1464.4132	1480.9603	1490.9278	1500.7548	1528.583	2350.1432	2959.0687	2984.6262	3021.1473	3033.7845	3055.5982	3081.1528	3141.4097	3143.123	3170.817	3232.6314	3831.0343
OCCCC1CC1C#N	OCCC[C@H]1C[C@H]1C#N	
InChI=1S/C7H11NO/c8-5-7-4-6(7)2-1-3-9/h6-7,9H,1-4H2	InChI=1S/C7H11NO/c8-5-7-4-6(7)2-1-3-9/h6-7,9H,1-4H2/t6-,7-/m0/s1
