18
gdb 68424	2.61988	1.65751	1.27286	4.5562	75.43	-0.2673	0.0137	0.2811	1027.2703	0.148515	-401.944801	-401.937041	-401.936097	-401.976825	30.471	
C	-0.018299036	 1.532036866	 0.0333565308	-0.509165
C	 0.0490719818	 0.0252553865	 0.0423068788	 0.280126
C	 0.939139721	-0.8215767753	-0.931006447	-0.279743
C	 0.6224128668	-1.9174856607	 0.108968635	 0.104148
C	 0.6998625144	-0.8202684938	 1.1916830164	-0.279982
O	-0.800044522	-2.1212913668	-0.0601521869	-0.281489
C	-1.2767953532	-0.7656724136	-0.1254949362	-0.053536
C	-2.2662275871	-0.5004010314	 0.9273466156	 0.292096
N	-3.0417836231	-0.2590050165	 1.7493032285	-0.333707
H	 0.9779893532	 1.965442169	 0.1611670796	 0.125978
H	-0.4273037186	 1.9054654999	-0.9123539074	 0.124923
H	-0.6550439605	 1.9023445576	 0.8436829547	 0.145289
H	 0.5913035819	-0.9824169137	-1.9545707041	 0.105823
H	 1.9798764209	-0.4934058187	-0.9183266865	 0.109673
H	 1.1165174114	-2.8845478159	 0.165582344	 0.093302
H	 1.718977362	-0.4950191537	 1.4065225628	 0.108846
H	 0.1336558795	-0.9742839144	 2.112608889	 0.125927
H	-1.7490082423	-0.5776522345	-1.097866397	 0.121492
126.5062	138.0778	217.8711	279.0914	297.6113	368.0504	456.5758	483.2654	529.8126	566.6936	627.1416	693.555	814.905	862.294	866.3687	911.8184	917.0974	957.4395	968.349	991.8402	1015.4509	1042.6572	1062.8004	1105.0005	1128.5435	1192.9724	1225.8313	1234.8943	1250.3536	1254.5629	1308.6115	1334.2844	1360.2542	1419.5287	1474.9562	1492.5272	1494.7117	1512.7263	2357.2154	3030.2354	3032.5849	3066.9247	3077.4317	3097.4396	3109.2195	3135.099	3144.1254	3155.1924
CC12CC(C1)OC2C#N	C[C@@]12C[C@@H](C1)O[C@H]2C#N	
InChI=1S/C7H9NO/c1-7-2-5(3-7)9-6(7)4-8/h5-6H,2-3H2,1H3	InChI=1S/C7H9NO/c1-7-2-5(3-7)9-6(7)4-8/h5-6H,2-3H2,1H3/t5-,6-,7+/m0/s1
