17
gdb 59751	2.48093	1.53892	1.23308	1.6923	63.69	-0.2637	-0.0021	0.2616	1059.4467	0.13528	-496.135594	-496.126881	-496.125937	-496.169256	31.544	
C	 0.1111082907	 1.0883317605	 0.9820806223	-0.433803
C	-0.3211165231	 0.4331259209	-0.3266715411	 0.108687
O	 0.5824416418	-0.5855100952	-0.7512566931	-0.439922
C	-1.755022048	-0.1335532251	-0.2586574254	-0.04697
O	-2.2638489942	-0.4643286391	-1.5424558976	-0.26067
C	-2.1342495311	-1.8554627087	-1.7070987159	 0.027887
O	-2.0804325391	-2.4318946471	-0.4006339545	-0.214561
C	-1.782887575	-1.4623289126	 0.4944558064	 0.413797
O	-1.5573245391	-1.6709705071	 1.6520700484	-0.341964
H	 1.1439006063	 1.4364525749	 0.8964482291	 0.130674
H	-0.5231743296	 1.948049741	 1.2192988797	 0.12558
H	 0.0387184734	 0.3791230094	 1.8130824895	 0.150311
H	-0.3218939391	 1.1693011994	-1.137932337	 0.106812
H	 0.8604916005	-1.0799912	 0.0286984425	 0.29464
H	-2.4314076407	 0.5887379104	 0.210037737	 0.120377
H	-3.0141767718	-2.2440808948	-2.2271548527	 0.129767
H	-1.2103382919	-2.1180793767	-2.2360319676	 0.129359
70.5384	113.7952	164.4007	197.3064	236.4884	245.6291	339.9734	346.9123	458.1681	499.1882	535.5041	678.9552	726.5407	758.7582	851.3527	906.9262	925.9772	1001.1676	1036.2218	1049.4049	1081.0459	1113.387	1148.8734	1149.7128	1222.0767	1231.8954	1265.7831	1298.0565	1342.607	1366.281	1406.4675	1424.1937	1448.5638	1491.8772	1501.5851	1539.6065	1879.387	3033.4067	3039.6782	3056.9493	3065.7682	3099.3444	3113.4638	3124.1121	3793.8056
CC(O)C1OCOC1=O	C[C@@H](O)[C@H]1OCOC1=O	
InChI=1S/C5H8O4/c1-3(6)4-5(7)9-2-8-4/h3-4,6H,2H2,1H3	InChI=1S/C5H8O4/c1-3(6)4-5(7)9-2-8-4/h3-4,6H,2H2,1H3/t3-,4-/m1/s1
