19
gdb 26194	3.51221	1.08068	0.87953	3.9302	79.12	-0.2181	0.0287	0.2468	1353.554	0.159324	-419.260044	-419.250691	-419.249747	-419.294738	34.374	
C	 0.3198568932	 1.2711495932	-0.4093430422	-0.38596
C	-0.0118004969	-0.030773291	 0.331805748	 0.050613
O	 0.2780633862	 0.1127058885	 1.7036491086	-0.438553
C	-1.4558953863	-0.4322862252	 0.1746915813	 0.335347
N	-2.2663434181	-0.5974246789	 1.1956065416	-0.370586
C	-3.4908873312	-0.9673486634	 0.6704134601	 0.284558
C	-4.6698028732	-1.2430582314	 1.5446704124	-0.488581
C	-3.4001967739	-1.0224543625	-0.6945265781	-0.191133
N	-2.0948917756	-0.6786949387	-0.9999182548	-0.304069
H	 1.3653421196	 1.5339847937	-0.2281615475	 0.130826
H	 0.1758684181	 1.1683226645	-1.491067737	 0.093097
H	-0.3128453201	 2.0851997127	-0.0449951966	 0.128374
H	 0.6206466352	-0.8335513149	-0.0867902663	 0.080202
H	-0.543504023	-0.1029782554	 2.1730576311	 0.294989
H	-5.5430787521	-1.5226021517	 0.9492828832	 0.118296
H	-4.4590945233	-2.0579266284	 2.2456911631	 0.13405
H	-4.9316218701	-0.3638161679	 2.1431973449	 0.133863
H	-4.1188176703	-1.2665746783	-1.4592410979	 0.129019
H	-1.6960544584	-0.623644235	-1.9216675039	 0.26565
34.4687	116.7672	141.4829	174.335	240.0879	258.8488	331.9676	354.9434	394.5513	458.5339	499.0523	524.7211	624.0094	660.2713	714.0968	723.295	756.2656	909.0517	990.1602	1007.9574	1015.3755	1065.9973	1069.041	1100.0997	1107.3861	1156.2523	1236.4077	1274.9298	1317.6864	1355.6554	1368.8335	1401.7645	1417.4272	1448.4256	1470.9555	1476.4625	1489.4652	1493.9748	1503.2324	1567.0136	1615.7193	2940.1677	3033.4664	3034.5257	3088.3814	3106.2117	3117.1031	3128.4151	3272.0707	3668.9427	3678.7525
CC(O)C1=NC(C)=CN1	C[C@@H](O)c1nc(C)c[nH]1	
InChI=1S/C6H10N2O/c1-4-3-7-6(8-4)5(2)9/h3,5,9H,1-2H3,(H,7,8)	InChI=1S/C6H10N2O/c1-4-3-7-6(8-4)5(2)9/h3,5,9H,1-2H3,(H,7,8)/t5-/m1/s1
