25
gdb 94711	3.08291	1.16937	1.00977	0.1868	92.46	-0.252	0.0826	0.3346	1338.3636	0.230671	-352.375682	-352.366552	-352.365608	-352.408757	36.997	
C	 0.0351519284	 1.5863661386	 0.0323843316	-0.403398
C	 0.0133637601	 0.0559130219	-0.0065134877	 0.057617
C	 0.6614146067	-0.5021440708	-1.2813335993	-0.212719
C	 0.443885683	-2.0170814433	-1.3949111496	-0.271479
C	 0.83104408	-2.7998496068	-0.1462767315	 0.361691
C	 0.2851408157	-4.2139155077	-0.1124141373	-0.46135
C	 2.1864962563	-2.5664017497	 0.4722395056	-0.32539
C	 0.9443203228	-2.0454241072	 1.1665129742	-0.065989
C	 0.686404393	-0.5404993948	 1.2447868858	-0.221516
H	 1.0642656783	 1.9640590806	 0.0004435142	 0.11051
H	-0.5027802807	 2.0151937423	-0.8198951495	 0.107301
H	-0.428258622	 1.9690385412	 0.9484277996	 0.107984
H	-1.0373957498	-0.270996588	-0.0095380982	 0.065945
H	 0.2385880588	-0.0104333122	-2.1653967134	 0.088426
H	 1.7336573284	-0.2611976413	-1.2833635813	 0.091888
H	-0.6230395792	-2.1952902239	-1.5916006516	 0.090146
H	 0.9829958556	-2.4174077275	-2.26391197	 0.089164
H	 0.6437266986	-4.7963323693	-0.9702679302	 0.111108
H	 0.5929039679	-4.7405861358	 0.7966839631	 0.108727
H	-0.8111209737	-4.2178218665	-0.1461576684	 0.110126
H	 2.7045835855	-3.4169467554	 0.9038957467	 0.099405
H	 2.8471794299	-1.8331544509	 0.0191646971	 0.102335
H	 0.6421035177	-2.6023620723	 2.049122415	 0.074086
H	 1.6347965748	-0.0127999713	 1.4180817452	 0.092609
H	 0.062018774	-0.3248474698	 2.1192485799	 0.092774
92.6908	193.0755	228.8642	240.9218	248.8623	285.1878	336.6598	356.1503	375.9573	415.7352	456.587	513.2213	596.8109	682.3764	758.5086	817.8681	867.312	887.6162	899.4294	912.0266	931.3457	966.322	982.5486	1023.446	1035.2034	1053.6676	1071.9983	1091.9295	1116.6912	1131.6794	1151.5853	1174.9521	1193.2597	1247.8993	1264.5299	1295.3398	1318.2923	1326.3759	1345.722	1375.2215	1380.374	1396.2989	1411.7308	1416.1667	1420.1262	1484.7495	1486.3597	1488.2183	1492.2283	1497.9916	1500.1212	1503.3144	1513.2732	2985.9217	2999.6534	3006.4928	3013.9948	3016.1578	3023.0947	3035.717	3053.6484	3057.7328	3073.7135	3088.321	3093.7511	3094.2192	3118.233	3136.9001	3200.2859
CC1CCC2(C)CC2C1	C[C@H]1CC[C@@]2(C)C[C@H]2C1	
InChI=1S/C9H16/c1-7-3-4-9(2)6-8(9)5-7/h7-8H,3-6H2,1-2H3	InChI=1S/C9H16/c1-7-3-4-9(2)6-8(9)5-7/h7-8H,3-6H2,1-2H3/t7-,8+,9-/m0/s1
