20
gdb 54606	2.46082	1.42218	0.92538	4.1909	87.09	-0.1968	-0.0213	0.1755	1277.764	0.170555	-403.197741	-403.188162	-403.187218	-403.232317	34.862	
C	-0.0280459802	 1.5661263294	-0.0379504064	-0.481626
C	-0.0526568851	 0.0449404112	 0.0754937635	 0.278286
O	-0.122196498	-0.4777999184	 1.1829558952	-0.356353
C	-0.0005569006	-0.6959070114	-1.1777222727	 0.104804
C	 0.0432943966	-2.053617049	-1.3202897198	 0.278647
C	 0.0182891204	-3.1175852913	-0.2728527236	-0.515423
N	 0.1750258261	-2.4242186261	-2.6398632179	-0.320014
C	-0.1170954932	-1.2734709136	-3.5049529024	-0.171514
C	 0.1232168457	-0.0698373986	-2.563439221	-0.326622
H	 0.8590020528	 1.9080857264	-0.5833598844	 0.126548
H	-0.9018751214	 1.9303567719	-0.5907562159	 0.128072
H	-0.0305753367	 1.9967605149	 0.9638698422	 0.131729
H	-0.8406184702	-3.784084032	-0.4224932914	 0.123412
H	 0.9216375717	-3.7347898243	-0.3417411988	 0.134747
H	-0.0437940776	-2.661868084	 0.7130884446	 0.188391
H	-0.1502349002	-3.3383314901	-2.9177646927	 0.240006
H	 0.5280668531	-1.2686817617	-4.3873806477	 0.112846
H	-1.1620275394	-1.3008101862	-3.8465976543	 0.104573
H	-0.5906492519	 0.7364219379	-2.75416126	 0.109127
H	 1.1258114684	 0.3510571649	-2.7230559263	 0.110362
74.6157	112.3222	129.4992	141.589	204.5787	211.9383	260.4332	317.7195	412.3431	461.9028	509.0723	563.2663	625.3743	640.6358	660.4816	741.7982	883.5266	937.8618	949.8517	989.7033	1028.3591	1053.2096	1067.625	1079.2387	1081.4622	1126.3028	1197.9683	1230.4977	1283.2695	1318.9197	1335.7858	1353.95	1381.6809	1400.6742	1457.6104	1463.3245	1478.5077	1489.8248	1501.1328	1504.7149	1529.8628	1632.673	1728.4497	2993.3278	3003.111	3025.7995	3029.9424	3074.2295	3077.122	3085.6624	3088.7437	3149.7338	3177.466	3606.0786
CC(=O)C1=C(C)NCC1	CC(=O)C1=C(C)NCC1	
InChI=1S/C7H11NO/c1-5-7(6(2)9)3-4-8-5/h8H,3-4H2,1-2H3	InChI=1S/C7H11NO/c1-5-7(6(2)9)3-4-8-5/h8H,3-4H2,1-2H3
