18
gdb 11393	3.49998	1.57838	1.24819	2.6937	69.73	-0.2358	0.0082	0.244	1009.5459	0.153602	-384.944266	-384.936192	-384.935247	-384.977024	30.056	
C	 0.3263593113	 1.4540729541	-0.2964505193	-0.391701
C	 0.0238449564	-0.0211468995	-0.033133237	 0.092816
O	 0.5595073613	-0.8367039348	-1.0866491006	-0.302157
C	 1.4288240779	-1.8507365845	-0.560113298	 0.054556
C	 2.7928200366	-1.7055840299	-1.2441040621	-0.053895
O	 2.6578341976	-1.7559825156	-2.648540089	-0.422684
C	 1.4311834359	-1.6120662328	 0.9229698971	-0.106388
C	 0.6479725039	-0.5816307662	 1.2183405851	-0.096001
H	 1.4052460772	 1.6344667096	-0.289913235	 0.121102
H	-0.0726346832	 1.7515224229	-1.2703587723	 0.126307
H	-0.1385412408	 2.0834494707	 0.4698250344	 0.114224
H	-1.0707431803	-0.1555037736	-0.0163221028	 0.084813
H	 1.0160643689	-2.8373791311	-0.8253949767	 0.087914
H	 3.2564382044	-0.762506052	-0.9114205441	 0.081957
H	 3.453075645	-2.5300056856	-0.9518230297	 0.101498
H	 1.9559106189	-1.1285303833	-2.8617146846	 0.28983
H	 2.0061189985	-2.2130681258	 1.6161936226	 0.109619
H	 0.4532541703	-0.1727150526	 2.2020472417	 0.108189
61.0586	117.9902	176.6669	235.2126	271.2637	334.1993	424.6908	468.0325	481.3798	553.2204	689.1963	770.5557	789.9019	822.2148	869.2755	938.2107	959.2605	1007.199	1026.3839	1077.2892	1081.9752	1095.0006	1113.0981	1132.075	1142.6238	1221.8584	1283.0274	1327.3623	1357.3125	1359.0647	1377.9325	1391.8301	1401.0498	1435.5181	1485.995	1495.012	1500.4629	1689.9749	2958.4365	2967.1587	2981.7376	3037.0131	3067.4457	3110.7083	3120.7995	3203.9876	3228.3705	3783.2814
CC1OC(CO)C=C1	C[C@H]1O[C@@H](CO)C=C1	
InChI=1S/C6H10O2/c1-5-2-3-6(4-7)8-5/h2-3,5-7H,4H2,1H3	InChI=1S/C6H10O2/c1-5-2-3-6(4-7)8-5/h2-3,5-7H,4H2,1H3/t5-,6-/m1/s1
