17
gdb 47305	2.89923	1.31072	0.99394	0.7499	68.67	-0.2409	-0.0372	0.2037	1159.8618	0.135505	-458.993019	-458.984755	-458.98381	-459.026994	30.312	
O	-0.0505213303	 0.4893835056	 1.3451416743	-0.28713
C	-0.0764521967	 1.2195827218	 0.382573843	 0.367132
C	-1.3908371366	 1.5067432322	-0.3388860969	-0.312263
C	-1.3527720003	 1.737919714	-1.8667721019	-0.307818
C	-0.7085266242	 3.0643482772	-2.2306653796	 0.346162
O	-1.332806685	 4.0152080159	-2.6359805216	-0.293635
C	 0.8111922383	 3.158257744	-2.0549185672	-0.183144
O	 1.401433378	 2.029856601	-1.4542550228	-0.229077
C	 1.2183289769	 1.9192842577	-0.0576556663	-0.183254
H	-2.0568686006	 0.673815364	-0.1012151465	 0.141793
H	-1.8250549086	 2.3936500184	 0.1459532572	 0.142662
H	-0.810296028	 0.9191040579	-2.350769831	 0.132772
H	-2.3759373644	 1.7613900342	-2.2479090133	 0.130621
H	 1.2510413617	 3.2509211877	-3.0544303843	 0.147419
H	 1.042548239	 4.0850511691	-1.508145949	 0.127167
H	 1.2511995398	 2.9117400945	 0.4243077809	 0.117272
H	 2.0475074309	 1.3287802449	 0.3387532452	 0.143321
43.7821	59.8058	159.5416	280.157	313.2286	356.9505	409.315	457.8514	496.6267	511.551	565.6565	655.6882	730.9976	758.1231	827.7778	927.8755	969.5047	991.6384	999.1626	1064.5632	1136.4039	1164.6623	1182.4925	1229.5844	1264.8858	1281.3962	1313.5699	1332.6093	1348.1301	1360.9109	1374.7072	1446.6489	1456.2578	1465.9581	1467.811	1807.9181	1820.0745	2966.0395	2999.304	3015.4246	3055.6232	3074.8915	3104.6102	3109.8875	3120.1134
O=C1CCC(=O)COC1	O=C1CCC(=O)COC1	
InChI=1S/C6H8O3/c7-5-1-2-6(8)4-9-3-5/h1-4H2	InChI=1S/C6H8O3/c7-5-1-2-6(8)4-9-3-5/h1-4H2
