18
gdb 92816	2.77948	1.84593	1.62609	2.5826	77.32	-0.225	-0.0116	0.2134	905.3981	0.149236	-401.850592	-401.843497	-401.842553	-401.881632	29.263	
O	 0.0117589167	 1.4872100199	 0.0552948571	-0.425317
C	 0.0553776951	 0.0662668066	 0.0487573804	 0.095042
C	 0.8964323889	-0.4967683226	 1.2477293666	-0.295959
C	 0.093890122	-0.0572947975	 2.4441257847	-0.11243
C	-1.1925195196	-0.4160080178	 2.4309054276	 0.111889
C	-2.3430333743	 0.5554634161	 2.2656602679	-0.181507
N	-2.6195468638	-0.0915026445	 0.9104433227	-0.159957
C	-1.3760966087	-0.4916776541	 0.1078259498	 0.01667
C	-1.7655884802	-1.2590932241	 1.3048873675	-0.125331
H	 0.9085707615	 1.8128315948	-0.0755719125	 0.281681
H	 0.4890203156	-0.2919650287	-0.8991231143	 0.063371
H	 0.9785328496	-1.5832797063	 1.1379553654	 0.114861
H	 1.9104020135	-0.0845842171	 1.2376254109	 0.09157
H	 0.4001251216	 0.8407943434	 2.9732549971	 0.096151
H	-3.2412427505	 0.3752869767	 2.8638384119	 0.11405
H	-2.0997863694	 1.6207185794	 2.2445415637	 0.120249
H	-1.747388366	-0.8353277666	-0.853222482	 0.102305
H	-2.136898072	-2.2780582477	 1.3402682354	 0.092663
133.9491	228.1693	292.0802	341.9335	372.9262	412.7862	470.7749	540.2822	614.6784	645.6023	748.3942	774.9065	793.8203	844.5635	866.3128	905.5853	918.7504	945.1563	956.136	1007.9503	1040.3441	1051.7494	1066.0809	1079.8517	1120.9022	1145.3	1199.559	1223.4603	1233.4938	1256.6486	1269.237	1292.1505	1338.8238	1359.4936	1387.8007	1428.1575	1474.6673	1496.4085	1688.404	2961.6109	3044.9863	3048.9642	3089.7848	3113.1095	3149.2081	3161.7152	3163.7235	3806.7229
OC1CC=C2CN3C1C23	O[C@H]1C[CH][C]2CN3[C@@H]1[C@@H]23	
InChI=1S/C7H9NO/c9-5-2-1-4-3-8-6(4)7(5)8/h1,5-7,9H,2-3H2	InChI=1S/C7H9NO/c9-5-2-1-4-3-8-6(4)7(5)8/h1,5-7,9H,2-3H2/t5-,6+,7-,8?/m0/s1
