21
gdb 70330	2.17225	2.02769	1.35205	1.5857	80.8	-0.2254	0.0829	0.3083	1042.6996	0.182143	-387.062705	-387.054318	-387.053374	-387.094887	34.016	
C	-0.0339796078	 1.5303313723	 0.0561734719	-0.487126
C	 0.0347913399	 0.0198368008	-0.0041717588	 0.248924
C	-0.5938347702	-0.7815985631	 1.1280020721	-0.377623
C	 0.9013638507	-0.7871813492	 0.9320991233	 0.0727
O	 1.4952374352	-1.8621918394	 0.2458872747	-0.261304
C	 1.1577304988	-1.7993222959	-1.1184282176	 0.072699
C	-0.2609022802	-2.0960260781	-1.5349324971	-0.377623
C	 0.2058560747	-0.6555347515	-1.3724256783	 0.248924
C	 0.2988179563	 0.2164153831	-2.6057243344	-0.487126
H	 0.8194148758	 2.0022350244	-0.4410917557	 0.120223
H	-0.9482970288	 1.9105774701	-0.413521294	 0.120369
H	-0.0363930281	 1.8706149601	 1.0959361259	 0.115065
H	-0.9702577284	-0.2059780841	 1.9684607838	 0.106648
H	-1.1569893846	-1.6840556903	 0.9288833494	 0.116638
H	 1.5580172673	-0.3542409586	 1.680484979	 0.094833
H	 1.9891200626	-2.0562434963	-1.7676549589	 0.094833
H	-0.4046791012	-2.4389139621	-2.5553049882	 0.106648
H	-0.9380631611	-2.5483701922	-0.8221504654	 0.116638
H	-0.6488034943	 0.7281103145	-2.8090927074	 0.120369
H	 1.0785275643	 0.9791961444	-2.5137126259	 0.120223
H	 0.5362913789	-0.3903285188	-3.4845720484	 0.115065
128.3989	196.8896	211.2574	255.1055	302.7912	319.936	340.4635	389.6265	463.5669	501.2791	585.2929	603.4581	696.3528	796.8673	797.3442	832.6327	857.6088	892.6531	933.1568	966.0942	967.6878	1002.3533	1026.2271	1030.0059	1035.3468	1083.8391	1099.7028	1102.4497	1122.9762	1127.5644	1175.4607	1203.7866	1260.4345	1288.8498	1318.9162	1377.9919	1396.8872	1415.5448	1425.3032	1468.1311	1483.477	1493.3102	1493.793	1502.0218	1508.6919	3026.5904	3032.1268	3087.2843	3094.3213	3101.0624	3106.3383	3129.1609	3134.86	3152.2452	3157.248	3219.5707	3229.3237
CC12CC1OC1CC21C	C[C@]12C[C@H]1O[C@H]1C[C@@]21C	
InChI=1S/C8H12O/c1-7-3-5(7)9-6-4-8(6,7)2/h5-6H,3-4H2,1-2H3	InChI=1S/C8H12O/c1-7-3-5(7)9-6-4-8(6,7)2/h5-6H,3-4H2,1-2H3/t5-,6+,7+,8-
