18
gdb 15691	3.39074	1.73633	1.22467	2.375	68.24	-0.2223	-0.022	0.2003	1002.7684	0.153499	-384.962499	-384.954391	-384.953447	-384.995395	29.562	
C	-0.0122830862	 1.4709217021	-0.0932859855	-0.248049
O	 0.1695545195	 0.0758660384	 0.0877303857	-0.24481
C	 0.6129265912	-0.6091952565	-1.0522285062	 0.048926
C	 1.1529703435	-1.9980693636	-0.7015631553	-0.248646
C	 1.0462456479	-2.784264667	-2.0245195459	-0.224082
C	-0.2881679629	-2.317050003	-2.6340980963	-0.312432
C	-0.4936654403	-0.8991598574	-2.0959461062	 0.383759
O	-1.379934468	-0.1425309144	-2.4015298007	-0.314269
H	 0.9238967745	 1.951653618	-0.4192951094	 0.09887
H	-0.7970724823	 1.6868870522	-0.8242235253	 0.143277
H	-0.2954796315	 1.8779614162	 0.8803623247	 0.123996
H	 1.3965440806	-0.0290532115	-1.5776695129	 0.082085
H	 2.1655671543	-1.9684743956	-0.2943719192	 0.107962
H	 0.4978399928	-2.4347901282	 0.0614360976	 0.118462
H	 1.8777201136	-2.5156468222	-2.6862645866	 0.108153
H	 1.0918896736	-3.865015633	-1.8739469913	 0.109043
H	-0.3354017681	-2.3375637466	-3.7257764783	 0.129304
H	-1.1273807222	-2.9234326878	-2.2696314788	 0.138452
58.4774	119.4984	178.8394	195.6757	255.9523	307.7753	410.9484	453.8571	552.0062	570.2325	623.0969	707.94	826.0825	908.1746	920.6084	941.9215	1001.1993	1014.2764	1063.5736	1133.8366	1155.4422	1179.7247	1182.7895	1189.0834	1226.9262	1244.4833	1295.5332	1307.8833	1315.2812	1339.3557	1377.7521	1445.2777	1476.6998	1482.562	1493.5971	1506.1517	1519.1449	1842.314	2915.7624	2980.8844	3037.7463	3043.1212	3049.7147	3081.4529	3100.012	3106.4075	3113.1843	3126.092
COC1CCCC1=O	CO[C@H]1CCCC1=O	
InChI=1S/C6H10O2/c1-8-6-4-2-3-5(6)7/h6H,2-4H2,1H3	InChI=1S/C6H10O2/c1-8-6-4-2-3-5(6)7/h6H,2-4H2,1H3/t6-/m0/s1
