21
gdb 63668	4.26097	0.70134	0.66553	4.3169	85.04	-0.2407	0.0375	0.2782	1731.8953	0.180639	-383.267049	-383.256837	-383.255893	-383.302711	36.988	
C	-0.0235565977	 1.5287814115	-0.3553328786	-0.455749
C	-0.0060339099	 0.0386101282	-0.065928201	 0.330357
C	-1.2530853449	-0.6950135598	-0.5199864515	-0.435054
C	 1.3018044142	-0.6837740017	-0.0542957232	-0.299473
N	 0.5560923355	-0.4799534141	 1.1898267893	-0.111772
C	 1.1156777865	 0.4204911375	 2.1828887018	-0.139122
C	 1.8799473554	-0.4216115764	 3.2238626706	-0.333505
C	 2.4590844803	 0.3980039105	 4.2841335288	 0.252166
N	 2.9087523013	 1.065387549	 5.1135399878	-0.30605
H	 0.9066076382	 2.0275557467	-0.0756394195	 0.121731
H	-0.1775671872	 1.6966971111	-1.426360532	 0.125995
H	-0.8483170526	 2.0204674338	 0.1735665374	 0.124057
H	-1.380478969	-0.6124087487	-1.6051348408	 0.115481
H	-1.1965474973	-1.7527101373	-0.2530793224	 0.125254
H	-2.1461365769	-0.2731871734	-0.0448384329	 0.118088
H	 1.3753031266	-1.7104898506	-0.4045848172	 0.113777
H	 2.2017914216	-0.0880931085	-0.2078219842	 0.106701
H	 1.7975762014	 1.1800866681	 1.771412767	 0.106507
H	 0.2978174411	 0.9515814722	 2.6812968812	 0.125062
H	 1.200946284	-1.1601069011	 3.6613184801	 0.161643
H	 2.6821948095	-0.9804002771	 2.7289850995	 0.153908
58.2424	79.2647	93.9614	178.8079	207.4243	213.6763	248.325	287.8631	368.3838	399.8921	405.6797	442.8318	495.7904	549.44	703.8901	787.4163	789.7217	897.7871	918.823	957.4728	962.2941	1015.8723	1021.8898	1043.6155	1060.6338	1110.8943	1129.2659	1142.9294	1203.0433	1233.9633	1282.4337	1300.8024	1315.4117	1383.6098	1390.1413	1412.6767	1423.2424	1467.8351	1479.0399	1486.4037	1495.0632	1499.9463	1507.6142	1518.3916	2362.5795	2982.5531	3029.4637	3035.8625	3051.8253	3069.7407	3082.2241	3089.8956	3094.4406	3099.7483	3124.8846	3126.7997	3169.6322
CC1(C)CN1CCC#N	CC1(C)CN1CCC#N	
InChI=1S/C7H12N2/c1-7(2)6-9(7)5-3-4-8/h3,5-6H2,1-2H3	InChI=1S/C7H12N2/c1-7(2)6-9(7)5-3-4-8/h3,5-6H2,1-2H3
