17
gdb 79659	2.81014	1.52486	1.22436	2.3109	80.77	-0.2097	0.0204	0.2301	1057.2926	0.133855	-380.716371	-380.708084	-380.70714	-380.748931	32.231	
C	-0.2402905014	 1.5347241803	-0.0403165048	-0.294435
N	 0.1818713965	 0.1369147373	 0.0663731354	-0.120113
C	 1.4031804048	-0.4971638008	-0.2967707533	-0.124889
C	 2.7141291723	 0.1882522733	 0.2292865498	-0.073427
N	 2.345958506	 1.4539430536	 0.9108351444	-0.337951
C	 2.2056507991	 0.1584971788	 1.6098054112	-0.131447
C	 0.8656762423	-0.539160401	 1.1325634062	 0.140272
C	 0.2574789783	-1.5863084648	 1.8832465652	 0.222782
C	-0.2202045068	-2.4610999664	 2.5579060483	-0.379181
H	 0.3921860196	 2.0850377263	-0.7391001694	 0.128938
H	-1.275147082	 1.5527235119	-0.402928001	 0.107057
H	-0.1916975746	 2.0425483694	 0.9240596797	 0.131794
H	 1.407395753	-1.2893990966	-1.0387345143	 0.108796
H	 3.7115275303	 0.0044582785	-0.1461256686	 0.100073
H	 3.2111636404	 1.8804152136	 1.2424075427	 0.234278
H	 2.713038584	-0.0636113773	 2.5386515659	 0.101161
H	-0.6559712619	-3.235654756	 3.1386335225	 0.186291
114.082	131.428	154.5748	229.9587	269.2625	392.5392	412.2137	469.0803	513.92	582.9963	599.0182	654.1804	672.2214	732.9988	739.3375	811.4548	823.2996	889.9269	910.3652	936.906	956.2096	993.1351	1025.7255	1078.7924	1100.862	1138.9474	1174.3609	1187.2208	1228.7905	1278.6285	1293.7387	1345.3863	1417.8954	1456.1034	1483.6658	1500.9061	2231.9861	3023.482	3103.2746	3141.2416	3161.6433	3203.7017	3217.1032	3469.8194	3503.2525
CN1C2C3NC3C12C#C	CN1[C@H]2[C@H]3N[C@H]3[C@@]12C#C	
InChI=1S/C7H8N2/c1-3-7-5-4(8-5)6(7)9(7)2/h1,4-6,8H,2H3	InChI=1S/C7H8N2/c1-3-7-5-4(8-5)6(7)9(7)2/h1,4-6,8H,2H3/t4-,5+,6-,7+,9?/m0/s1
