19
gdb 77626	2.1823	1.42391	1.26786	0.9294	84.21	-0.2268	0.0334	0.2602	1144.4364	0.156553	-385.827558	-385.818198	-385.817254	-385.861137	35.377	
C	 0.0059059074	 1.5685384124	-0.01926767	-0.42729
C	 0.0823326208	 0.0586660091	-0.0376915554	-0.118972
C	 0.6881176479	-0.74021134	-1.1474907118	 0.394955
C	 0.03525401	-1.8021464636	-1.9678680125	-0.483743
O	 1.7833887027	-0.029098496	-1.735946367	-0.317574
C	 2.5298002266	-0.0799954043	-0.4950105638	-0.144724
C	 1.3639367385	-0.7424330493	 0.2404564312	 0.037312
C	 1.4699734395	-1.7437347813	 1.2392555024	 0.17818
C	 1.5694038657	-2.5935309167	 2.0872458025	-0.410636
H	 0.7924676428	 2.010110805	-0.6350895641	 0.13764
H	-0.9552253749	 1.9035684343	-0.4234287788	 0.121237
H	 0.0952677524	 1.9598414272	 0.9992520254	 0.122274
H	-0.7707363222	-0.448459223	 0.4082983233	 0.09898
H	-0.4937691512	-1.356135887	-2.8179203542	 0.134894
H	 0.7768646949	-2.5052410569	-2.3580542536	 0.133937
H	-0.6916919263	-2.3542116142	-1.3660157053	 0.132874
H	 3.3965362434	-0.7411571516	-0.5929293796	 0.119392
H	 2.8503548873	 0.9111487907	-0.1549914808	 0.107309
H	 1.6552538847	-3.3414731048	 2.8356334521	 0.183954
108.2238	141.7245	168.672	186.6437	211.4796	254.9842	263.3928	324.4182	416.3841	506.5965	515.2548	554.646	567.9606	605.4519	652.0246	703.3662	758.1034	767.4316	918.9865	960.9282	986.7981	1007.4326	1052.7074	1094.0223	1109.0185	1120.9156	1147.7566	1167.8649	1218.4418	1273.0122	1303.7811	1347.6431	1408.8802	1410.4571	1472.5446	1476.8647	1492.0862	1495.6792	1511.1102	1520.7929	2227.642	3032.024	3035.0427	3039.3965	3086.4945	3097.3135	3100.4953	3123.2613	3125.7317	3143.6741	3503.2015
CC1C2(C)OCC12C#C	C[C@H]1[C@@]2(C)OC[C@@]12C#C	
InChI=1S/C8H10O/c1-4-8-5-9-7(8,3)6(8)2/h1,6H,5H2,2-3H3	InChI=1S/C8H10O/c1-4-8-5-9-7(8,3)6(8)2/h1,6H,5H2,2-3H3/t6-,7+,8-/m0/s1
