19
gdb 57200	2.39407	1.38767	1.09426	3.6055	71.81	-0.2536	-0.0291	0.2245	1180.8931	0.155506	-460.160084	-460.150126	-460.149182	-460.195629	35.999	
C	 0.0290721637	 1.3474481974	 0.3627048126	-0.484783
C	-0.0123734546	-0.1265124312	 0.0361085734	 0.385047
O	 0.0122453196	-0.9790657498	 0.8956332932	-0.313409
C	-0.0057358851	-0.5805815458	-1.4385182639	-0.050861
O	 0.5897526029	-1.8472904512	-1.5044757719	-0.424356
C	-1.437411759	-0.5975636815	-2.0238612388	 0.381794
C	-2.1510053727	 0.7254860956	-2.2038627634	-0.475034
C	-1.8032382126	-1.74194983	-2.8723661616	-0.214891
O	-2.2469363325	-1.656393834	-1.5106765118	-0.27294
H	 1.0693319643	 1.6826000903	 0.2591955738	 0.156316
H	-0.5681066282	 1.9504242693	-0.3237734335	 0.140413
H	-0.2860889224	 1.5123536421	 1.3940972196	 0.152037
H	 0.5941057135	 0.123198337	-2.0323065674	 0.092338
H	 0.4056518379	-2.2522767037	-0.6415243661	 0.297913
H	-1.5262065015	 1.4436841289	-2.7462033095	 0.120994
H	-3.0737137243	 0.5797463099	-2.770208227	 0.13277
H	-2.4254218347	 1.1664591951	-1.2408531376	 0.133787
H	-2.5826371319	-1.6110997375	-3.6222480597	 0.106921
H	-1.0674652922	-2.5154921209	-3.0655132604	 0.135942
35.4498	85.6088	90.0727	165.082	226.7121	259.8372	290.2981	344.128	376.1635	394.5224	420.9464	467.8228	530.5383	576.6672	640.689	752.1348	825.5713	856.967	915.2831	935.1658	977.9337	1017.2474	1030.2208	1104.053	1124.9766	1138.4281	1175.3924	1184.4187	1236.5927	1283.3299	1326.0408	1382.6765	1386.6522	1417.9188	1446.8027	1463.5028	1474.0519	1486.1118	1502.2505	1516.3447	1803.6813	3017.106	3037.7492	3039.5588	3094.2358	3104.427	3114.3269	3123.3569	3160.474	3208.1862	3691.5875
CC(=O)C(O)C1(C)CO1	CC(=O)[C@@H](O)[C@@]1(C)CO1	
InChI=1S/C6H10O3/c1-4(7)5(8)6(2)3-9-6/h5,8H,3H2,1-2H3	InChI=1S/C6H10O3/c1-4(7)5(8)6(2)3-9-6/h5,8H,3H2,1-2H3/t5-,6-/m1/s1
