13
gdb 42675	2.81053	1.65328	1.20172	1.1491	69.07	-0.2394	-0.0136	0.2257	978.3106	0.08705	-419.304006	-419.296996	-419.296052	-419.335531	27.309	
O	 0.0018590917	-0.0926149506	 0.0695017845	-0.317769
C	-0.0139538967	 1.0984535058	 0.0309724651	 0.465965
C	-1.0236701735	 2.240448776	 0.0268626115	-0.318216
C	-0.0219728632	 3.1189479653	 0.8581594796	 0.048371
O	-0.0553239273	 4.2522083639	-0.0475251001	-0.354973
C	-0.0588311549	 3.0763770132	-0.9167749491	 0.477528
C	-0.0903695681	 3.2071677613	-2.3353608479	 0.11336
C	-0.1168193672	 3.303786727	-3.5328757557	-0.359772
C	 0.9656253331	 2.2655027512	-0.0150519764	-0.318215
H	-2.1090658373	 2.2830756656	 0.0372050252	 0.11999
H	-0.001544955	 3.2913386801	 1.9307181212	 0.125701
H	-0.1402371376	 3.3922009972	-4.5915272942	 0.198043
H	 2.0490766462	 2.3354408939	-0.0504034936	 0.119989
100.1562	172.6138	209.7915	388.4567	464.9304	472.2873	548.8698	598.6904	627.8982	649.2049	660.7822	703.7541	764.4297	794.2391	805.561	850.1171	921.5665	955.9555	1004.0999	1063.306	1088.7289	1090.2552	1127.7037	1184.4146	1190.9581	1259.318	1331.6695	1927.9007	2242.6882	3162.0352	3172.9841	3178.1646	3497.2021
O=C1C2C3OC2(C#C)C13	O=C1[C@H]2[C@@H]3O[C@@]2(C#C)[C@H]13	
InChI=1S/C7H4O2/c1-2-7-3-5(8)4(7)6(3)9-7/h1,3-4,6H	InChI=1S/C7H4O2/c1-2-7-3-5(8)4(7)6(3)9-7/h1,3-4,6H/t3-,4+,6-,7+
