19
gdb 87074	4.05408	0.7121	0.67848	1.6838	102.21	-0.2251	-0.0079	0.2172	1723.2501	0.156185	-348.699295	-348.689191	-348.688247	-348.734207	37.402	
C	-0.1124184654	 1.5110540281	-0.0469540798	-0.415947
C	 0.0382775212	 0.0078684413	 0.0185061028	-0.013343
C	 1.352951587	-0.6749123044	-0.220474321	-0.31434
C	 0.7444837544	-0.7018345187	 1.1820469185	 0.074463
C	 1.4165035901	 0.0939259735	 2.2943389064	-0.458644
C	 0.159296474	-1.9383349143	 1.6135442078	 0.405968
C	-0.3338377784	-2.974202272	 2.006169413	-0.269419
C	-0.888857571	-4.1390786873	 2.4347207989	 0.297663
C	-1.382503273	-5.1735006033	 2.817316517	-0.585982
H	 0.7928154538	 2.0346752869	 0.2711769781	 0.119252
H	-0.3230851932	 1.8223427251	-1.076040273	 0.124979
H	-0.9402670876	 1.8577164004	 0.5808040628	 0.125738
H	-0.8290902389	-0.5345535211	-0.3464338135	 0.102195
H	 1.3729773246	-1.599536572	-0.7849757778	 0.125684
H	 2.2334214686	-0.0511025569	-0.3408073895	 0.115361
H	 1.888816692	 0.999840766	 1.9079266707	 0.117571
H	 0.6923600191	 0.3852237348	 3.0613223121	 0.130123
H	 2.1919624331	-0.5092131198	 2.7758834644	 0.132345
H	-1.8155714004	-6.0830295863	 3.1517141222	 0.186334
75.5322	81.5669	172.8445	180.2403	196.6764	221.9445	275.6405	301.1781	349.9521	434.7496	487.5585	490.195	527.5726	535.4938	586.008	589.3499	604.439	760.8467	808.3735	890.972	919.8289	962.444	1017.7771	1058.3094	1085.2901	1105.557	1124.5166	1135.1767	1194.5851	1291.6648	1316.7502	1402.1039	1418.3105	1426.217	1483.2178	1483.7495	1492.956	1498.5826	1512.1204	2177.6613	2348.9651	3034.2811	3043.9212	3093.173	3108.3006	3110.5586	3126.7276	3130.9922	3152.7719	3223.5989	3506.0177
CC1CC1(C)C#CC#C	C[C@H]1C[C@]1(C)C#CC#C	
InChI=1S/C9H10/c1-4-5-6-9(3)7-8(9)2/h1,8H,7H2,2-3H3	InChI=1S/C9H10/c1-4-5-6-9(3)7-8(9)2/h1,8H,7H2,2-3H3/t8-,9-/m0/s1
