23
gdb 100782	3.21437	0.89373	0.78879	1.4453	82.24	-0.2621	0.0834	0.3454	1558.3478	0.203829	-425.408895	-425.398406	-425.397462	-425.444939	38.58	
C	 0.0037193173	 1.5442578023	 0.2388170502	-0.393384
C	-0.0447783563	 0.0317498112	 0.0012571342	-0.173545
C	-1.4669292939	-0.5567977688	-0.0840114339	 0.028023
C	-2.1844966976	-0.1145774683	-1.3690337554	-0.413076
C	-1.4067097444	-2.1008080266	 0.0403243725	 0.078053
O	-0.6914889791	-2.5061563382	 1.1965671495	-0.436645
C	-2.7861940221	-2.7481237048	 0.0606729691	 0.060123
C	-3.0095469683	-4.0488971198	 0.6976710896	-0.187196
O	-3.3760561705	-2.8302820116	 1.3680023793	-0.254218
H	 1.0386633	 1.8889986969	 0.3292735982	 0.11261
H	-0.4572299588	 2.1120460352	-0.5758275001	 0.113597
H	-0.516184271	 1.8140893615	 1.1651443216	 0.113315
H	 0.4955697005	-0.2139521569	-0.924206124	 0.085286
H	 0.4848069589	-0.4774117426	 0.81082407	 0.117167
H	-2.0407891694	-0.1909815564	 0.7811122227	 0.073294
H	-1.7120820123	-0.5602655943	-2.2533410167	 0.113032
H	-3.2423739035	-0.3909229382	-1.3781444252	 0.11689
H	-2.1400452303	 0.9711795067	-1.4878238926	 0.120803
H	-0.8488755904	-2.4977875746	-0.8197620778	 0.089264
H	-1.3205283743	-2.4244039132	 1.9277585726	 0.288502
H	-3.4798225641	-2.4420103262	-0.7195745413	 0.099551
H	-3.847761113	-4.6662328778	 0.380369708	 0.118398
H	-2.1649254674	-4.5748649253	 1.1344459394	 0.130155
51.5648	64.3746	94.3883	163.988	211.596	225.4207	268.4249	283.8896	320.8793	348.588	397.9273	459.46	496.3563	537.1036	670.3468	775.6905	785.4975	841.5887	869.3617	907.8041	956.2129	983.2956	991.5652	1009.2957	1049.0457	1091.8125	1103.8351	1139.965	1151.8468	1162.6324	1171.6085	1184.6804	1259.6643	1270.3366	1291.3143	1307.4712	1349.2999	1369.5803	1383.6154	1408.5109	1415.5675	1416.4606	1444.5335	1488.4271	1496.1898	1501.2731	1509.9954	1513.7405	1516.1462	2990.0997	3010.2642	3019.4718	3030.9705	3032.5826	3084.0298	3097.4658	3098.6699	3100.2614	3106.3165	3113.1646	3138.0883	3196.9986	3740.0756
CCC(C)C(O)C1CO1	CC[C@@H](C)[C@@H](O)[C@H]1CO1	
InChI=1S/C7H14O2/c1-3-5(2)7(8)6-4-9-6/h5-8H,3-4H2,1-2H3	InChI=1S/C7H14O2/c1-3-5(2)7(8)6-4-9-6/h5-8H,3-4H2,1-2H3/t5-,6-,7-/m1/s1
