18
gdb 18406	3.19567	2.29556	1.51085	1.7926	68.1	-0.237	0.083	0.3201	858.5077	0.155607	-384.914361	-384.907587	-384.906643	-384.94497	27.167	
C	-0.0037961785	 1.5016596543	 0.0935867529	-0.344714
C	 1.3134482893	 0.7782885632	 0.0247694174	 0.079817
O	 2.1019185073	 0.8037201493	 1.1708991222	-0.245193
C	 2.6865563152	-0.4560515454	 1.4852739209	-0.072607
C	 1.7334283567	-1.367222811	 2.2616574497	-0.189837
C	 0.4736006114	-1.7848423288	 1.5001554391	-0.072607
O	-0.3666908501	-0.6785791339	 1.1875038386	-0.245192
C	 0.014960077	-0.0013949643	 0.0335090726	 0.079821
H	-0.2489950098	 1.9208885676	 1.0625057002	 0.136528
H	-0.3485997254	 2.0662644788	-0.7648406273	 0.11388
H	 1.8753007307	 0.8064758801	-0.9106637572	 0.082621
H	 3.0389148087	-0.9529169226	 0.5676766407	 0.08719
H	 3.5655959767	-0.2330973732	 2.0991061925	 0.106492
H	 2.2794398303	-2.2732107021	 2.559401697	 0.092085
H	 1.4304059453	-0.8522832486	 3.1804312782	 0.115413
H	 0.7374953893	-2.3348226538	 0.5831508902	 0.08719
H	-0.1302176012	-2.4522876657	 2.1239578075	 0.106492
H	-0.2832127628	-0.4896036439	-0.8961435852	 0.082621
169.1012	210.0875	304.0353	340.5922	362.6143	396.4416	475.429	528.5427	704.5064	762.6396	782.8685	802.5202	864.2687	919.7374	941.203	958.0591	1032.4615	1041.284	1072.129	1097.9691	1103.6121	1122.4661	1147.993	1176.0322	1182.2993	1251.5151	1264.4037	1293.7977	1330.8215	1356.3509	1393.1967	1393.5583	1415.5704	1424.5495	1460.2055	1473.2566	1492.779	1501.1724	2983.0445	2985.4289	3019.2499	3068.3933	3070.777	3075.3572	3080.7252	3087.3912	3144.0504	3239.1035
C1C2OCCCOC12	C1[C@H]2OCCCO[C@@H]12	
InChI=1S/C6H10O2/c1-2-7-5-4-6(5)8-3-1/h5-6H,1-4H2	InChI=1S/C6H10O2/c1-2-7-5-4-6(5)8-3-1/h5-6H,1-4H2/t5-,6+
