18
gdb 30868	2.33762	1.44226	0.93239	2.2009	77.04	-0.2082	0.0191	0.2273	1278.6269	0.145894	-439.125198	-439.115536	-439.114592	-439.160358	33.467	
C	 0.1240989679	 1.3364840016	 0.0570855723	-0.254625
O	-0.4571840734	 0.1443455177	-0.4848373061	-0.267535
C	 0.342881934	-0.581404843	-1.2709493507	 0.322047
C	 0.7004990878	-1.8875552539	-1.2645742805	 0.134022
C	 0.3576641254	-2.95347285	-0.2817950148	-0.498278
N	 1.4845734096	-2.1213961596	-2.3988863553	-0.344242
C	 1.5665732306	-0.9824941628	-3.0048820183	 0.377372
C	 2.2962432332	-0.6451575475	-4.2540129655	-0.487329
O	 0.8858376625	 0.0227506027	-2.3806747926	-0.219611
H	 1.0132204809	 1.096435683	 0.651868073	 0.125817
H	 0.3948161912	 2.0366797054	-0.7390959507	 0.139045
H	-0.6385050807	 1.7836362177	 0.6959452048	 0.1393
H	-0.2141035398	-3.7593881181	-0.7549902688	 0.134959
H	 1.2613431887	-3.4042699133	 0.1424292519	 0.132673
H	-0.2416127048	-2.5414585229	 0.5339075448	 0.128061
H	 1.6158977499	-0.2587954541	-5.0203957199	 0.142694
H	 3.0586962958	 0.1207422803	-4.0750302695	 0.140109
H	 2.780614801	-1.5466430531	-4.6302954242	 0.155522
52.7448	117.4941	135.1838	140.8732	153.3167	204.933	242.299	269.5548	318.9566	426.744	535.5619	616.4366	629.9344	692.4165	713.2472	805.4768	970.0976	985.4564	1030.6964	1045.6958	1064.8177	1068.4917	1121.9691	1174.5265	1205.9989	1262.2439	1302.1007	1365.3255	1411.8101	1421.7276	1475.294	1477.0047	1479.1032	1483.5432	1486.8332	1496.1645	1503.4969	1633.2691	1717.6093	3025.1366	3033.8076	3039.6255	3086.1175	3091.9995	3099.8966	3123.6002	3146.5367	3154.6801
COC1=C(C)N=C(C)O1	COc1c(C)nc(C)o1	
InChI=1S/C6H9NO2/c1-4-6(8-3)9-5(2)7-4/h1-3H3	InChI=1S/C6H9NO2/c1-4-6(8-3)9-5(2)7-4/h1-3H3
