17
gdb 75096	3.0599	1.37328	0.95889	1.68	78.96	-0.2498	-0.046	0.2038	1191.7512	0.137294	-418.07939	-418.071012	-418.070068	-418.113347	31.019	
C	 0.0367532178	 1.5046174016	 0.4171193524	-0.473794
C	-0.0219729369	 0.0466306868	 0.0642142937	 0.196142
C	-1.1439582644	-0.6778989517	 0.0110240244	-0.161887
C	-1.198662047	-2.1308093521	-0.34105201	-0.331607
C	 0.1327857547	-2.7849848097	-0.6516584715	 0.384487
N	 0.1651767646	-4.0194503033	-0.9601248641	-0.520467
N	 1.2419188911	-1.9478061274	-0.569033334	-0.402672
C	 1.2814629254	-0.5964824643	-0.2400710079	 0.378987
O	 2.3428014385	-0.0046302599	-0.2127393213	-0.35432
H	 0.6724423257	 1.6679729607	 1.293079211	 0.14478
H	 0.4828645897	 2.0846810427	-0.3968924294	 0.144766
H	-0.9614869326	 1.8966893127	 0.6257527239	 0.116982
H	-2.0977384818	-0.2052245789	 0.2342377172	 0.107431
H	-1.6704900299	-2.6984757717	 0.4709441296	 0.156683
H	-1.8583978602	-2.2855496842	-1.2041773899	 0.156681
H	 1.117006442	-4.3416726988	-1.1462057317	 0.207783
H	 2.1514686733	-2.3445017925	-0.7686684223	 0.250026
26.2801	130.2955	151.4417	226.9075	292.4459	363.8578	372.3771	434.8446	534.8761	539.4491	582.9981	653.7944	697.5182	760.5467	762.966	855.8339	875.729	903.7596	979.9421	982.4005	1074.7932	1076.3602	1140.7395	1179.112	1209.6229	1268.8323	1342.6562	1388.5505	1413.413	1417.7758	1425.5574	1447.1573	1471.1076	1487.7108	1721.4613	1736.627	1784.2324	3033.9018	3043.3393	3054.4146	3100.7408	3127.194	3156.9745	3450.9632	3583.7757
CC1=CCC(=N)NC1=O	CC1=CC[C]([NH])NC1=O	
InChI=1S/C6H8N2O/c1-4-2-3-5(7)8-6(4)9/h2H,3H2,1H3,(H2,7,8,9)	InChI=1S/C6H8N2O/c1-4-2-3-5(7)8-6(4)9/h2H,3H2,1H3,(H2,7,8,9)
