16
gdb 116837	3.68034	0.60511	0.52472	5.5417	84.23	-0.2946	-0.1041	0.1905	2029.8303	0.121781	-400.744483	-400.734462	-400.733518	-400.781971	33.409	
C	-0.038362828	 1.5400323973	 0.047017937	-0.384878
C	-0.0101047333	 0.0110474148	 0.0249530459	-0.164587
C	 0.7037069358	-0.5340194629	-1.2301275705	-0.348946
C	 0.7528840837	-1.9844243067	-1.2900842222	 0.00666
C	 0.7846400324	-3.1920955322	-1.3246645567	 0.136299
C	 0.8220401034	-4.6216112074	-1.3665537723	 0.187463
O	 1.3245144029	-5.2873221874	-2.2434995602	-0.251441
C	 0.1736456132	-5.2723830267	-0.2095657526	 0.223728
N	-0.3320062893	-5.7889542582	 0.6929314027	-0.319681
H	 0.9745471232	 1.9573177569	 0.0442971075	 0.122107
H	-0.5661511435	 1.9413779182	-0.8250389158	 0.122105
H	-0.5473876601	 1.9072764218	 0.9424222693	 0.125909
H	 0.4987647618	-0.37233019	 0.9157432695	 0.121407
H	-1.0295447246	-0.3881499241	 0.0534432392	 0.121415
H	 0.2057446416	-0.1633488649	-2.136552824	 0.151232
H	 1.7309852409	-0.1473494384	-1.2760425967	 0.151207
20.9222	48.3774	70.6781	141.1131	156.4124	230.5875	248.3781	293.3072	312.5121	413.4382	448.1902	544.8929	606.9927	699.9212	738.7617	772.8947	866.0783	885.3457	975.8819	1043.1661	1108.5521	1115.4487	1225.1407	1253.9173	1301.7468	1321.7754	1379.2017	1417.9998	1453.9583	1491.756	1500.9427	1508.1023	1744.19	2330.5136	2339.7705	3015.7338	3034.2512	3044.6569	3048.5236	3081.005	3106.2632	3114.2687
CCCC#CC(=O)C#N	CCCC#CC(=O)C#N	
InChI=1S/C7H7NO/c1-2-3-4-5-7(9)6-8/h2-3H2,1H3	InChI=1S/C7H7NO/c1-2-3-4-5-7(9)6-8/h2-3H2,1H3
