22
gdb 100923	1.79708	1.36867	1.00685	3.578	80.15	-0.2352	0.0317	0.2669	1319.1214	0.192552	-441.508508	-441.497677	-441.496732	-441.544739	38.76	
C	-1.3037206299	-2.0606792055	-1.9486632241	-0.37177
C	-1.7683345224	-0.75240951	-1.3018942681	-0.155761
N	-1.3819864249	-0.6063548755	 0.1039453627	-0.053722
C	-0.1467950083	-0.1100824695	 0.4005041063	 0.151037
O	 0.3122365535	 0.0559113654	 1.5139113953	-0.352204
C	-2.2966168007	-0.9084791485	 1.2141814719	 0.02465
C	-3.5440726743	-0.0146510123	 1.2023286329	-0.395645
C	-2.6521388023	-2.3927223995	 1.3211747636	-0.093363
O	-3.5371054588	-2.7534264207	 0.2660454026	-0.413041
H	-1.586164578	-2.0752404667	-3.0068629554	 0.112097
H	-0.215812297	-2.1649724172	-1.8871257007	 0.115906
H	-1.7721286925	-2.9150685943	-1.4571600345	 0.13116
H	-1.356291328	 0.0986691392	-1.8568957808	 0.110693
H	-2.8548231578	-0.6751280936	-1.3667144043	 0.126998
H	 0.4213568176	 0.1425448771	-0.5169425924	 0.069448
H	-1.7048308252	-0.6727286871	 2.1030730676	 0.127739
H	-4.118696478	-0.1704090177	 2.1210283629	 0.117317
H	-3.2574976069	 1.0390933895	 1.1548046033	 0.123525
H	-4.2042776225	-0.2428423605	 0.362805805	 0.135271
H	-1.7287589728	-2.9883425199	 1.289277372	 0.10126
H	-3.128907422	-2.5578630262	 2.2995445243	 0.095954
H	-3.7798594688	-3.6769907364	 0.3772317598	 0.292452
37.3703	91.2023	132.3473	159.0441	215.6405	230.46	240.9818	249.3746	271.9779	295.4086	310.8231	371.1705	424.6656	514.8946	616.4715	696.7034	727.7638	786.9382	908.3948	939.3344	956.8301	999.4321	1033.6023	1075.6481	1105.5889	1118.1288	1137.1459	1151.6554	1215.2876	1248.0243	1282.7406	1288.8844	1368.9749	1380.3702	1397.2061	1404.9928	1409.4526	1434.0444	1448.7813	1455.003	1485.3045	1490.2044	1496.5372	1504.2869	1511.4521	1516.7298	1783.9331	2930.5264	2982.7312	3024.3395	3037.3005	3040.6015	3047.7698	3083.5534	3100.2864	3114.4447	3120.9505	3135.4382	3145.611	3835.7708
CCN(C=O)C(C)CO	CCN(C=O)[C@@H](C)CO	
InChI=1S/C6H13NO2/c1-3-7(5-9)6(2)4-8/h5-6,8H,3-4H2,1-2H3	InChI=1S/C6H13NO2/c1-3-7(5-9)6(2)4-8/h5-6,8H,3-4H2,1-2H3/t6-/m0/s1
