18
gdb 53832	3.21268	1.03351	0.81264	2.1	74.49	-0.2412	-0.0617	0.1794	1381.4339	0.148027	-435.253632	-435.244394	-435.24345	-435.288783	33.737	
N	 0.3871707676	 0.9022942193	-0.0327876183	-0.504789
C	-0.1802819083	-0.3081860313	 0.2563782687	 0.237538
N	 0.3373831322	-1.1089451485	 1.108563886	-0.521071
C	-1.4552768596	-0.5311771468	-0.5628602866	 0.341006
O	-1.9930338438	 0.4254190669	-1.0784954729	-0.307529
C	-2.0251919451	-1.9322587261	-0.776250468	-0.322921
C	-2.3805301242	-2.7305608903	 0.46587865	-0.003564
C	-2.7667062413	-4.1563368163	 0.345026651	-0.249505
N	-1.492770331	-3.7862973106	 0.9906182675	-0.305353
H	 1.0808048984	 1.2365666845	 0.6165658428	 0.259784
H	-0.2158715923	 1.5798507383	-0.4718190358	 0.267519
H	-0.1908212036	-1.9699883678	 1.2093392707	 0.249279
H	-2.9162851887	-1.7799263064	-1.3930482797	 0.139302
H	-1.3041456779	-2.5028597682	-1.3786914537	 0.123532
H	-2.8543988411	-2.1521077995	 1.25621141	 0.113936
H	-3.51549502	-4.5771027654	 1.0094372823	 0.129033
H	-2.7290937927	-4.6103130444	-0.6422064899	 0.118192
H	-0.7295624686	-3.9511606875	 0.3369745457	 0.235612
41.6291	54.1477	125.7542	154.2642	249.3829	318.1473	355.398	379.3594	436.7265	496.1149	520.8344	537.2155	630.5156	687.8563	775.733	809.7525	827.6217	853.8396	937.7465	941.6461	988.8044	1048.1134	1092.9311	1127.0559	1130.1406	1150.3046	1166.6027	1206.7685	1254.7261	1269.8857	1310.4003	1314.9188	1415.9669	1421.8793	1455.9323	1512.2617	1593.5214	1713.5139	1779.3309	3017.7702	3087.1385	3110.4605	3132.4326	3197.7506	3483.7566	3556.8682	3588.7612	3714.6463
NC(=N)C(=O)CC1CN1	NC(=N)C(=O)C[C@H]1CN1	
InChI=1S/C5H9N3O/c6-5(7)4(9)1-3-2-8-3/h3,8H,1-2H2,(H3,6,7)	InChI=1S/C5H9N3O/c6-5(7)4(9)1-3-2-8-3/h3,8H,1-2H2,(H3,6,7)/t3-/m0/s1
