15
gdb 71871	3.23629	1.58705	1.30039	3.712	64.45	-0.2596	0.0062	0.2658	951.5091	0.11357	-457.769725	-457.762966	-457.762022	-457.800712	27.138	
O	-0.101875012	 1.3786497781	-0.0559173318	-0.452527
C	 0.0503230639	 0.0142715008	-0.0668172157	 0.392551
C	 0.8778506117	-0.8004770799	-1.0587292605	-0.322825
C	-0.0632731032	-1.9966024317	-0.7199837229	 0.071083
O	 0.5177476331	-2.7990805038	 0.3163702322	-0.235092
C	 0.5211351072	-2.0646091755	 1.4779775649	 0.452191
O	 1.0424282893	-2.4471292254	 2.4845418799	-0.349814
C	-0.2454702278	-0.80811859	 1.2164434993	-0.290536
C	-1.0516414634	-1.0014197493	-0.0460777291	-0.143004
H	 0.6672890734	 1.7746944716	 0.3698662998	 0.29682
H	 0.7111326962	-0.4381034236	-2.0764295821	 0.121889
H	 1.9458205074	-0.9559194201	-0.8786512216	 0.11288
H	-0.3956884565	-2.6492646027	-1.5220425647	 0.107881
H	-0.6383508534	-0.2452325616	 2.0515518411	 0.122811
H	-2.126021416	-0.923450767	-0.1374480989	 0.115693
154.0143	215.2517	284.8965	342.6053	428.3862	449.4719	490.7597	586.6095	636.8558	686.9554	723.6473	815.563	860.7558	884.6772	893.0336	917.7278	926.0693	981.5107	1012.2232	1018.6272	1082.1432	1133.7747	1152.8572	1159.6869	1176.2611	1232.0119	1264.1488	1280.6286	1315.8018	1353.3396	1440.9857	1494.9021	1883.8608	3053.5387	3116.7422	3163.9839	3216.0379	3228.5671	3792.6194
OC12CC3OC(=O)C1C23	O[C@@]12C[C@H]3OC(=O)[C@@H]1[C@@H]23	
InChI=1S/C6H6O3/c7-5-4-3-2(9-5)1-6(3,4)8/h2-4,8H,1H2	InChI=1S/C6H6O3/c7-5-4-3-2(9-5)1-6(3,4)8/h2-4,8H,1H2/t2-,3+,4+,6-/m1/s1
