16
gdb 49976	3.83	1.1304	1.00557	2.1254	71.34	-0.25	-0.0316	0.2184	1164.7893	0.12305	-437.779562	-437.772015	-437.77107	-437.812022	28.671	
O	-0.3775161228	 0.5111487004	 0.8062629874	-0.259513
C	 0.2319254849	 0.836917695	-0.1813205508	 0.180459
C	 1.4032897573	 1.7543927848	-0.172186763	-0.249467
N	 2.2937842829	 1.6499487458	-1.3733976984	-0.408881
C	 1.5315492017	 2.8342411073	-1.1895273851	 0.463375
C	 0.6279296039	 3.58625435	-2.1823962705	-0.045891
C	 0.3785540433	 4.6559291271	-1.0900927244	-0.217134
C	 1.8920894263	 4.3276413207	-1.1185086897	-0.056652
O	 1.8327682751	 4.3508785543	-2.6012709768	-0.307018
H	-0.0445384232	 0.4791937389	-1.1978479112	 0.086691
H	 1.8439594807	 1.9340399184	 0.8057543442	 0.112632
H	 3.2700681545	 1.7646399494	-1.1131909968	 0.2506
H	-0.0287645271	 3.2076296979	-2.9634322175	 0.11316
H	 0.1315151575	 5.642195015	-1.4818896715	 0.118656
H	-0.2000632802	 4.3763637008	-0.2067393125	 0.113558
H	 2.7301237254	 4.8274722944	-0.6329441235	 0.105425
78.6799	133.8534	184.4846	247.0342	366.4257	381.9372	474.1416	500.3049	594.3389	695.9824	750.0112	797.2398	852.3127	888.6594	902.753	907.6839	954.3713	998.1873	1023.18	1038.2503	1057.3343	1069.0326	1118.6113	1132.4586	1170.5864	1187.3795	1198.5862	1227.545	1235.4296	1261.7335	1318.177	1404.4473	1473.9114	1504.8979	1822.1381	2894.5275	3073.8384	3125.609	3145.2829	3147.489	3163.1357	3510.6379
O=CC1NC11C2CC1O2	O=C[C@H]1N[C@]21[C@H]1C[C@@H]2O1	
InChI=1S/C6H7NO2/c8-2-3-6(7-3)4-1-5(6)9-4/h2-5,7H,1H2	InChI=1S/C6H7NO2/c8-2-3-6(7-3)4-1-5(6)9-4/h2-5,7H,1H2/t3-,4-,5+,6-/m1/s1
