20
gdb 117795	2.1455	1.05643	0.96382	2.6022	75.82	-0.2676	0.0204	0.288	1379.4352	0.167527	-440.283133	-440.272131	-440.271187	-440.31939	38.468	
C	 0.0872279026	 1.3748235683	 0.0437333235	-0.258113
O	-0.0256827957	-0.0392192158	 0.0260805677	-0.261262
C	-1.3365836855	-0.5863314701	 0.0108509066	 0.193513
C	-2.1246953923	-0.1892553019	-1.2509958142	-0.427495
C	-1.1536147172	-2.1133798932	 0.0710783135	-0.193636
C	-0.357980891	-2.6057568402	 1.275159624	-0.095798
O	-0.3128548712	-4.022190074	 1.1772697542	-0.422479
C	-2.0883281477	-0.1233941799	 1.2106567506	 0.272022
N	-2.6679714546	 0.2559091388	 2.1360587255	-0.352649
H	 1.1495603778	 1.5910281797	 0.1730080867	 0.137863
H	-0.2523152012	 1.8307816411	-0.8949105169	 0.116798
H	-0.4711698049	 1.8166038411	 0.8792221422	 0.135888
H	-1.5417286021	-0.4685062238	-2.1327031424	 0.134897
H	-3.083652951	-0.7124643614	-1.2782018755	 0.140062
H	-2.3267141883	 0.8832846685	-1.2823977166	 0.135635
H	-2.1380762127	-2.5913900256	 0.074727839	 0.122007
H	-0.6406846672	-2.4187597406	-0.8464160714	 0.120275
H	 0.6470798095	-2.1650104688	 1.2587206333	 0.107883
H	-0.8505057324	-2.2844370118	 2.2057240603	 0.105838
H	 0.2027257548	-4.3558079803	 1.9169724398	 0.28875
76.1725	94.1785	98.3661	136.079	170.8277	196.8453	210.7814	249.9551	261.8517	292.1309	357.4616	379.7046	408.7232	464.646	596.9844	643.4588	712.1675	787.5043	878.5672	935.3892	1020.9384	1043.0839	1063.8528	1103.1169	1124.763	1181.7624	1183.5819	1203.2042	1230.8589	1255.858	1266.8594	1323.5966	1346.9	1401.5646	1464.288	1472.7804	1476.9512	1484.7807	1488.121	1505.2417	1510.9699	1531.8476	2346.4325	2988.914	3008.8968	3038.0276	3051.3529	3056.9558	3069.5905	3105.2386	3128.1975	3133.573	3137.2843	3834.4769
COC(C)(CCO)C#N	CO[C@@](C)(CCO)C#N	
InChI=1S/C6H11NO2/c1-6(5-7,9-2)3-4-8/h8H,3-4H2,1-2H3	InChI=1S/C6H11NO2/c1-6(5-7,9-2)3-4-8/h8H,3-4H2,1-2H3/t6-/m0/s1
