21
gdb 39663	3.90451	1.08186	0.93025	1.5573	83.11	-0.2318	0.0293	0.2611	1306.5653	0.18417	-387.084319	-387.075987	-387.075043	-387.118253	31.328	
C	-0.0416040988	 1.2824272056	 0.0563008977	-0.065276
C	 1.4799748429	 1.4877043731	 0.1867672123	-0.297877
C	 1.4828541316	 0.0387734702	 0.7281137802	 0.159814
O	 0.0617604542	-0.095466766	 0.4679578474	-0.296234
C	 2.3112521085	-1.0076576228	-0.0032807407	-0.004831
C	 3.8197069408	-0.8416179455	 0.3428617174	-0.275125
C	 4.0722256403	-1.9361550141	 1.3529136667	-0.055978
C	 3.0562490512	-2.7935571024	 1.4286046757	-0.054677
C	 1.9349473208	-2.4368294913	 0.4836618742	-0.272293
H	-0.6500310737	 1.8719136402	 0.754445716	 0.09902
H	-0.4668167765	 1.3799711968	-0.9496126073	 0.102359
H	 2.0077751751	 1.6086215795	-0.7619335166	 0.107823
H	 1.8033424615	 2.2657012574	 0.8795039264	 0.108098
H	 1.6816175037	-0.0275176275	 1.8084829667	 0.074896
H	 2.126200506	-0.8929598088	-1.0756457976	 0.065037
H	 4.4574149285	-0.9670135376	-0.5425303496	 0.103559
H	 4.0455501347	 0.1587303011	 0.7360561908	 0.099411
H	 4.9964884368	-2.006176463	 1.9161504622	 0.088329
H	 3.0252527577	-3.6708906704	 2.0657412914	 0.089285
H	 0.9449319306	-2.4535880548	 0.952930925	 0.123376
H	 1.8858531241	-3.1488418496	-0.3513225783	 0.101284
63.1248	83.8967	85.5765	170.8006	309.482	349.5823	379.1648	453.9889	676.9613	739.3773	755.8132	791.2643	815.1097	856.1707	904.3388	925.3428	940.8762	961.0547	966.4684	978.4584	980.4394	1016.7995	1031.1181	1065.2015	1097.3666	1116.1044	1132.0842	1164.6282	1176.5012	1211.4362	1234.0476	1248.4545	1258.5974	1291.7235	1306.6335	1314.5034	1330.1096	1360.7507	1375.6755	1409.3133	1485.7435	1490.0928	1494.4058	1531.9755	1688.9124	2988.0265	3009.4373	3011.8842	3014.1401	3032.4126	3051.9133	3060.0793	3064.7713	3074.6335	3130.9341	3178.9207	3204.6993
C1CC(O1)C1CC=CC1	C1C[C@@H](O1)[C@H]1CC=CC1	
InChI=1S/C8H12O/c1-2-4-7(3-1)8-5-6-9-8/h1-2,7-8H,3-6H2	InChI=1S/C8H12O/c1-2-4-7(3-1)8-5-6-9-8/h1-2,7-8H,3-6H2/t8-/m1/s1
