18
gdb 67566	2.9164	1.99098	1.47452	2.9361	74.06	-0.2306	0.079	0.3096	915.339	0.149044	-401.852568	-401.845861	-401.844917	-401.883153	28.394	
C	 0.0210609203	 1.5139992744	-0.0223360222	-0.518492
C	 0.0427267432	 0.0070113012	-0.0471699037	 0.377014
C	 0.5261160923	-0.7500861048	-1.2737356693	-0.14284
N	 1.7487498701	-1.5565379783	-1.0138403982	-0.341719
C	 0.399938091	-2.1655085663	-0.8577820496	-0.073369
C	-0.1436108065	-2.0292024965	 0.5488223472	-0.045053
C	 0.5231506124	-0.7921310128	 1.210878499	 0.013487
O	-0.7192160277	-0.4662432808	 1.9364589737	-0.324168
C	-1.1476398472	-0.8239758503	 0.5861741718	 0.004604
H	 1.027599196	 1.9220603796	-0.1637620576	 0.123487
H	-0.6152293017	 1.9170871322	-0.8184986695	 0.112263
H	-0.3644290227	 1.8629322919	 0.9393338948	 0.138264
H	 0.3120066582	-0.4015813296	-2.2780984673	 0.088063
H	 2.1353929592	-1.8545514039	-1.9084924701	 0.228928
H	 0.081960189	-2.955710445	-1.5275666953	 0.092996
H	-0.3510854264	-2.8989582575	 1.1689001433	 0.082292
H	 1.4640171042	-0.7212002435	 1.7530087549	 0.098471
H	-2.2173122337	-0.7936285201	 0.3687959281	 0.08577
231.5561	243.753	273.1151	298.2548	396.908	499.1702	551.6667	659.8418	698.6086	705.2537	766.1091	788.65	843.0084	858.3146	872.9085	898.067	910.7908	921.5582	939.4091	989.7927	1016.0788	1069.2191	1083.1499	1115.8326	1127.9012	1148.9329	1154.253	1177.3007	1198.8915	1222.3869	1232.2137	1268.4699	1286.7213	1338.0843	1366.0599	1403.3971	1420.4124	1492.0911	1499.8774	3030.7385	3090.2339	3096.3822	3119.506	3137.1095	3147.6689	3169.8504	3184.7148	3478.7496
CC12C3NC3C3C1OC23	C[C@@]12[C@H]3N[C@H]3[C@H]3[C@@H]1O[C@@H]23	
InChI=1S/C7H9NO/c1-7-4-3(8-4)2-5(7)9-6(2)7/h2-6,8H,1H3	InChI=1S/C7H9NO/c1-7-4-3(8-4)2-5(7)9-6(2)7/h2-6,8H,1H3/t2-,3-,4-,5-,6+,7+/m0/s1
