21
gdb 75249	3.79276	1.0593	0.97155	2.1021	84.14	-0.2336	0.0262	0.2599	1304.1089	0.182839	-387.088325	-387.079639	-387.078695	-387.122513	32.724	
C	-0.0298725147	 1.5128101684	 0.0861648226	-0.493547
C	 0.0144599442	 0.0209740808	-0.0085148593	 0.337814
C	-0.0500202387	-0.7282083717	-1.1119306934	-0.165249
C	-0.0353892386	-2.2049917711	-0.8071126644	-0.33824
C	 0.4139320827	-2.2585189241	 0.6716101445	 0.307337
C	 0.0202561119	-3.4917222586	 1.5150124267	-0.128156
O	 1.3954699939	-3.8788042166	 1.7007493135	-0.273631
C	 1.8612496472	-2.7612105022	 0.9208038448	-0.10932
C	 0.0861524785	-0.8553300085	 1.2258011526	-0.38455
H	 0.8656513621	 1.9066330809	 0.5837315992	 0.124864
H	-0.1038406034	 1.9785483455	-0.9003423837	 0.123375
H	-0.8874654284	 1.8465705462	 0.684841824	 0.125112
H	-0.1494372656	-0.3375116167	-2.1193933309	 0.084839
H	-1.038437668	-2.6417898884	-0.9309724455	 0.103766
H	 0.6288820589	-2.7828649567	-1.4609403975	 0.104301
H	-0.4776799059	-3.2732920002	 2.4694400422	 0.093583
H	-0.5552194359	-4.2618571938	 0.9835505962	 0.093852
H	 2.4101410303	-3.0854135362	 0.0265646873	 0.09494
H	 2.5026857231	-2.0904007249	 1.5079985615	 0.093915
H	 0.8296641934	-0.5123787883	 1.9563623486	 0.101925
H	-0.8804396672	-0.8507049338	 1.753484271	 0.10307
41.8728	63.8562	176.6825	224.9157	253.8775	315.9483	378.4575	411.6839	438.4599	455.1035	627.9637	753.694	824.2056	857.4985	877.1277	898.0708	915.31	930.9721	983.4696	989.6418	1002.6093	1035.0172	1039.5513	1043.6144	1103.4995	1149.1403	1155.6076	1161.0916	1162.7807	1196.7661	1248.338	1254.4239	1292.6421	1311.9238	1331.8588	1350.2418	1385.3062	1414.7504	1478.6845	1481.3	1488.8519	1489.5132	1511.7889	1535.7821	1723.3898	2985.8176	2986.7465	2990.1212	3002.6749	3014.9457	3034.1314	3036.7963	3040.5267	3045.6429	3059.6871	3108.9492	3183.5177
CC1=CCC2(COC2)C1	CC1=CCC2(COC2)C1	
InChI=1S/C8H12O/c1-7-2-3-8(4-7)5-9-6-8/h2H,3-6H2,1H3	InChI=1S/C8H12O/c1-7-2-3-8(4-7)5-9-6-8/h2H,3-6H2,1H3
