19
gdb 85533	2.38733	1.7505	1.18618	3.088	77.01	-0.2374	0.0238	0.2612	1080.2408	0.160702	-419.19787	-419.189826	-419.188882	-419.230358	31.307	
C	-0.3705138119	 1.4095662499	 0.0260710845	-0.397123
C	-0.0050751852	-0.0569931992	 0.2040745802	 0.095239
O	 0.4637411186	-0.5227332193	-1.0739622291	-0.256859
C	 1.1004694245	-1.728164613	-1.1525879434	 0.368667
N	 1.4470709643	-2.2281923499	-2.2621926612	-0.516256
C	 1.4035043562	-2.42742059	 0.1571799981	-0.235637
N	 1.7522775922	-1.5532187492	 1.2800899509	-0.108199
C	 2.47724514	-0.315129789	 0.9656421933	-0.260588
C	 1.0258422127	-0.2868925008	 1.2923942463	-0.016109
H	 0.5173563581	 1.9948950506	-0.2284820452	 0.132128
H	-1.1051380968	 1.5226932068	-0.7751981488	 0.131705
H	-0.7997253538	 1.8081501194	 0.9499223601	 0.123388
H	-0.9110855065	-0.6267849353	 0.4624829645	 0.092632
H	 1.1378199292	-1.6286934225	-3.0310617092	 0.216987
H	 0.5249378797	-3.0108501472	 0.4619952933	 0.129869
H	 2.2131584537	-3.1355902916	-0.0264785763	 0.146176
H	 3.2063380133	-0.0124201935	 1.7110175811	 0.121004
H	 2.7716588383	-0.1277446752	-0.063599888	 0.136046
H	 0.7031750836	 0.047972909	 2.2772222189	 0.096931
100.4696	125.1947	221.6246	245.2991	291.1312	354.44	427.5039	452.5277	499.4851	535.6143	616.6917	682.1682	739.1727	828.1739	849.2453	900.8446	914.3141	948.1542	985.5952	1018.4767	1042.091	1070.7777	1083.4945	1111.4708	1145.5002	1151.7327	1164.7454	1180.9356	1263.5316	1304.9428	1324.526	1346.2077	1365.2967	1383.1785	1409.3907	1416.0542	1474.8326	1485.8763	1497.4333	1509.7279	1750.5972	2983.3994	3030.555	3047.4282	3113.6326	3116.0933	3121.5946	3124.5621	3128.791	3200.7042	3454.7798
CC1OC(=N)CN2CC12	C[C@H]1O[C]([NH])CN2C[C@@H]12	
InChI=1S/C6H10N2O/c1-4-5-2-8(5)3-6(7)9-4/h4-5,7H,2-3H2,1H3	InChI=1S/C6H10N2O/c1-4-5-2-8(5)3-6(7)9-4/h4-5,7H,2-3H2,1H3/t4-,5+,8?/m1/s1
