21
gdb 112511	2.17771	1.20475	1.11452	1.3191	83.96	-0.2495	0.0375	0.287	1273.9262	0.180945	-387.050742	-387.040969	-387.040025	-387.085257	36.977	
C	 0.4499676888	 1.1603502083	 0.523918604	-0.38633
C	 0.3987752309	-0.315347541	 0.1170049061	-0.189665
C	 0.5951864116	-0.5232979197	-1.3857275777	-0.014326
C	 2.0657282217	-0.416909639	-1.8866856241	-0.248995
C	 2.1567678053	-1.9782962864	-1.9834098635	-0.229829
C	 2.8264624584	-2.626056429	-0.874039861	 0.314738
C	 3.3196118906	-3.1839644424	 0.0731042973	-0.460077
C	 0.5843636946	-2.0155583478	-1.8541338782	 0.12623
O	-0.0062078117	-2.9994702277	-1.0592067297	-0.423344
H	 1.4085898236	 1.6181589851	 0.2563066513	 0.115571
H	-0.3394374122	 1.734250859	 0.0258150918	 0.114159
H	 0.3175035702	 1.2784902244	 1.6038534256	 0.112536
H	 1.1618139426	-0.8736803801	 0.6737174714	 0.099579
H	-0.5670098746	-0.7475986899	 0.4039871508	 0.107524
H	-0.1159157675	 0.1091543984	-1.9281213321	 0.065557
H	 2.1578923781	 0.050521715	-2.8693947163	 0.105319
H	 2.7791345442	 0.0519880818	-1.2064140838	 0.111781
H	 2.5459083547	-2.3685168233	-2.9281509451	 0.102809
H	 3.7945519681	-3.6684625734	 0.8903431085	 0.20167
H	 0.1356132538	-2.1080994287	-2.8473011203	 0.08985
H	 0.5837849089	-3.1686813337	-0.3129664949	 0.285242
68.6634	113.4778	138.7947	167.5398	204.6745	234.4014	294.0111	356.8399	386.3663	404.6157	478.8479	558.8985	604.0494	621.378	642.8221	734.8572	776.3125	782.6392	820.4134	876.8318	922.0872	968.9145	991.6411	1032.3441	1060.9475	1094.7718	1117.8231	1145.0108	1157.115	1209.0194	1246.1777	1248.3168	1267.4551	1291.6123	1331.4829	1333.7099	1344.4397	1396.0382	1411.0218	1439.2674	1482.0494	1493.8114	1499.6242	1509.0337	2218.5032	3026.9111	3029.2803	3039.1174	3058.6481	3064.3195	3067.2191	3076.9337	3097.1246	3101.9409	3125.7096	3500.8176	3759.066
CCC1CC(C#C)C1O	CC[C@H]1C[C@@H](C#C)[C@H]1O	
InChI=1S/C8H12O/c1-3-6-5-7(4-2)8(6)9/h1,6-9H,4-5H2,2H3	InChI=1S/C8H12O/c1-3-6-5-7(4-2)8(6)9/h1,6-9H,4-5H2,2H3/t6-,7+,8-/m1/s1
