17
gdb 77616	2.14901	1.6202	1.29025	3.905	74.96	-0.2434	0.0121	0.2555	1056.3234	0.135412	-417.977673	-417.968913	-417.967969	-418.010788	32.676	
C	-0.0016642643	 1.5437825757	 0.0141497794	-0.472999
C	 0.0385667761	 0.0491265036	 0.0354351749	 0.267103
N	 0.6192656853	-0.7088427214	-1.0770162253	-0.354681
C	 1.2133710213	-1.7225120833	-0.1566160524	-0.233804
C	 0.6648218261	-0.9548066005	 1.045274521	 0.087285
C	 1.2839435624	-0.7374920153	 2.30359309	 0.189328
N	 1.7634587461	-0.5793175997	 3.3465492642	-0.360022
C	-0.8539736492	-0.8067279486	 0.881929356	 0.007961
O	-1.5224574277	-0.1354441048	 1.8934187035	-0.409732
H	 0.9908037374	 1.9540287966	-0.189038798	 0.136539
H	-0.6777955337	 1.8844390762	-0.7791112691	 0.128607
H	-0.3712471323	 1.9309128592	 0.9652059178	 0.151593
H	-0.0724437412	-1.082178195	-1.723133316	 0.22193
H	 0.8398144857	-2.7478840683	-0.2650354871	 0.110409
H	 2.3050151348	-1.7294126251	-0.2178334529	 0.135174
H	-1.3944551411	-1.6424149107	 0.4261949015	 0.089503
H	-1.4218328356	-0.6225202184	 2.7198732524	 0.305806
109.4382	125.7476	176.7688	223.9706	259.4056	282.778	301.1404	361.5528	402.7475	487.0079	561.9304	589.1886	634.5012	684.9938	715.0019	803.2184	877.6111	953.3762	987.5467	1021.4473	1056.0387	1091.5233	1132.9225	1163.4722	1177.2771	1233.7888	1256.7169	1286.3091	1339.1906	1354.4772	1379.041	1413.6872	1443.5464	1482.8388	1492.063	1513.984	2337.0398	3027.8961	3038.1077	3047.8764	3087.9292	3105.8125	3147.1253	3484.1849	3786.5689
CC12NCC1(C#N)C2O	C[C@@]12NC[C@]1(C#N)[C@H]2O	
InChI=1S/C6H8N2O/c1-5-4(9)6(5,2-7)3-8-5/h4,8-9H,3H2,1H3	InChI=1S/C6H8N2O/c1-5-4(9)6(5,2-7)3-8-5/h4,8-9H,3H2,1H3/t4-,5-,6+/m0/s1
