19
gdb 105003	1.90905	1.6964	1.04337	4.8228	74.94	-0.2726	0.021	0.2936	1182.0154	0.15869	-419.191714	-419.182242	-419.181298	-419.22624	34.92	
C	 0.83441466	 0.6277371837	-0.1290968895	-0.39328
C	-0.0020322947	-0.6059901354	-0.5030715153	-0.296286
C	-1.408625468	-0.6505665485	 0.0860660764	 0.296857
C	-1.8193904782	-1.8160964177	 0.913061684	-0.275418
N	-1.6166571692	-0.4919975498	 1.532274346	-0.364277
C	-2.5411435567	 0.026387569	-0.7139642345	-0.065052
O	-3.7386294071	 0.0611575991	 0.0183045712	-0.410003
C	-2.174182455	 1.393895124	-1.1611093098	 0.27814
N	-1.9119121005	 2.46188857	-1.5164183109	-0.33505
H	 1.8300786165	 0.5498634206	-0.5754544561	 0.1216
H	 0.3785799891	 1.5556759811	-0.4775092718	 0.165248
H	 0.969585548	 0.7044800048	 0.9553205188	 0.110628
H	-0.0826457548	-0.6766972836	-1.5951893957	 0.11698
H	 0.534137465	-1.5072819771	-0.1851946948	 0.10593
H	-2.8500704137	-2.1548404315	 0.9087434179	 0.138508
H	-1.0755196118	-2.5877430306	 1.0889111157	 0.121001
H	-0.7339356669	-0.4367863611	 2.0311853107	 0.243025
H	-2.7271750182	-0.5645245981	-1.6195201648	 0.138015
H	-3.4667048439	 0.2542513512	 0.9325934324	 0.303435
55.2072	86.1592	146.2408	216.0845	225.4364	262.4175	288.0774	337.4919	351.4021	432.7412	510.2184	542.3611	585.6656	621.0391	752.1727	776.5189	845.531	906.4847	918.6112	972.6766	985.5273	1006.481	1036.9327	1086.5831	1099.119	1118.3195	1154.0655	1236.9416	1253.4408	1277.607	1325.3818	1333.5892	1368.9664	1391.4797	1419.8211	1445.5953	1478.4898	1501.3253	1504.4968	1511.0397	2350.5844	3028.2056	3041.5483	3042.3585	3064.2092	3103.7427	3120.397	3147.7337	3213.1311	3524.618	3652.7162
CCC1(CN1)C(O)C#N	CC[C@]1(CN1)[C@@H](O)C#N	
InChI=1S/C6H10N2O/c1-2-6(4-8-6)5(9)3-7/h5,8-9H,2,4H2,1H3	InChI=1S/C6H10N2O/c1-2-6(4-8-6)5(9)3-7/h5,8-9H,2,4H2,1H3/t5-,6-/m0/s1
