21
gdb 39414	2.36972	1.88861	1.33172	0.9625	81.04	-0.2222	0.0794	0.3015	1034.1643	0.185564	-387.051567	-387.044081	-387.043137	-387.083041	31.153	
C	-0.0413658082	 1.4479659798	-0.1014123879	-0.319187
C	 1.3262482994	 0.8210244483	 0.0629771287	 0.004894
C	 2.1203699168	 1.0367045603	 1.3408998463	-0.277631
C	 2.6709125156	-0.258315021	 1.994390308	-0.064914
O	 1.987548082	-1.4575258993	 1.6706683306	-0.239799
C	 0.6370370523	-1.6109404907	 1.9916816102	 0.119122
C	-0.2156247674	-0.5453172704	 2.6281181441	-0.360941
C	-0.4006197581	-0.8880449708	 1.158379322	-0.066555
C	 0.0898635182	-0.0519968212	 0.0135831887	 0.011774
H	-0.4407033094	 1.9795020058	 0.7572691285	 0.107634
H	-0.3207162507	 1.8768117039	-1.057962923	 0.10691
H	 1.936526127	 0.7723246646	-0.8344155291	 0.083369
H	 2.9703416987	 1.6965932953	 1.1293632681	 0.100625
H	 1.5088865524	 1.5860289056	 2.0613878714	 0.107721
H	 3.6912654642	-0.4464149587	 1.6467718363	 0.108504
H	 2.7177766188	-0.1237819364	 3.0856416477	 0.090828
H	 0.4467273471	-2.6404499382	 2.2816211896	 0.094292
H	-0.9889322503	-0.8822357268	 3.310881407	 0.111322
H	 0.2192631184	 0.4007744655	 2.9156049757	 0.116534
H	-1.308271337	-1.441451046	 0.9318132201	 0.080849
H	-0.0183066899	-0.5838703292	-0.9287946129	 0.084649
168.509	182.2011	229.052	282.736	335.6413	404.2993	473.8675	491.1405	621.7169	671.7567	711.5638	758.381	780.7	801.8567	845.7275	858.5915	900.7136	939.7477	959.2032	988.3908	1017.48	1039.1342	1063.2531	1069.3797	1081.2218	1115.4289	1124.2665	1131.4581	1140.426	1179.4855	1192.7849	1246.7432	1263.4429	1275.8412	1297.5055	1348.243	1376.415	1397.2503	1405.5034	1421.2101	1431.236	1474.6854	1493.1523	1499.2915	1513.9735	2989.1392	3038.0969	3067.1479	3088.1488	3120.747	3122.8399	3132.9821	3140.3952	3143.5838	3151.1128	3207.7947	3246.4354
C1C2CCOC3CC3C12	C1[C@H]2CCO[C@H]3C[C@H]3[C@@H]12	
InChI=1S/C8H12O/c1-2-9-8-4-7(8)6-3-5(1)6/h5-8H,1-4H2	InChI=1S/C8H12O/c1-2-9-8-4-7(8)6-3-5(1)6/h5-8H,1-4H2/t5-,6+,7+,8+/m1/s1
