21
gdb 115790	3.94325	1.058	0.94643	2.8136	78.47	-0.246	0.0861	0.3321	1307.4924	0.182955	-424.221977	-424.21311	-424.212166	-424.255281	34.209	
C	-0.0428684063	 1.464175577	-0.0794517166	-0.488349
C	 0.0237797527	-0.0402217252	 0.0034861492	 0.325829
C	-0.8389403029	-0.8177551949	 0.9655194155	-0.333344
C	 0.6623643993	-0.7953701385	 1.1496427366	-0.113076
C	 1.4348047944	-1.943343902	 0.526758422	 0.093826
C	 1.3378705971	-3.3028101265	 1.2070635751	-0.06536
O	 2.000536525	-4.303313887	 0.4579414672	-0.425664
O	 0.8647783011	-2.0979014267	-0.7817682488	-0.287492
C	 0.4324791403	-0.8208694306	-1.2392918337	-0.137267
H	 0.9010845303	 1.8855505083	-0.4446348933	 0.118656
H	-0.8380209889	 1.7917867274	-0.7595856381	 0.121818
H	-0.2491362651	 1.9040825017	 0.9009020383	 0.120217
H	-1.4293840712	-0.2450703878	 1.6727036029	 0.109616
H	-1.3070223128	-1.7352180069	 0.6236564327	 0.120441
H	 1.0944089662	-0.2736960959	 1.995968549	 0.088287
H	 2.4995426727	-1.6691539979	 0.4379088472	 0.07217
H	 1.8250029066	-3.2617216311	 2.1872236169	 0.103631
H	 0.2770504959	-3.550546763	 1.3669471368	 0.087198
H	 1.666014077	-4.2224947369	-0.4429259233	 0.292135
H	-0.3808707569	-0.987072024	-1.9544020541	 0.106844
H	 1.2472975754	-0.2902947695	-1.7599320717	 0.089884
92.5613	138.5917	183.7173	205.2637	218.3352	304.2572	346.7424	375.4191	436.5878	452.2033	510.3491	577.1966	684.0792	730.9058	834.7262	864.8181	917.486	929.2618	950.5282	986.0082	1010.057	1043.1641	1065.0767	1073.7848	1079.3769	1088.2764	1118.6936	1124.1292	1148.3089	1220.727	1247.3467	1269.91	1299.9804	1321.6786	1353.6314	1354.7843	1397.0454	1414.2603	1425.7282	1443.2617	1485.8487	1489.4803	1499.0841	1501.8751	1515.8072	2960.8409	2966.4702	2990.3423	3023.1408	3060.8741	3074.1041	3080.7035	3101.8808	3127.679	3178.1472	3214.7002	3798.8406
CC12CC1C(CO)OC2	C[C@]12C[C@H]1[C@@H](CO)OC2	
InChI=1S/C7H12O2/c1-7-2-5(7)6(3-8)9-4-7/h5-6,8H,2-4H2,1H3	InChI=1S/C7H12O2/c1-7-2-5(7)6(3-8)9-4-7/h5-6,8H,2-4H2,1H3/t5-,6+,7+/m0/s1
