16
gdb 127321	3.31412	1.69917	1.13132	4.0175	77.27	-0.1961	0.0271	0.2231	1025.2865	0.127443	-396.951815	-396.944092	-396.943147	-396.98516	28.393	
C	 0.0087037748	 1.4559561187	 0.0525733051	-0.351438
N	-0.0105180795	 0.0125143562	 0.0129514808	-0.150194
C	-0.0552323504	-0.7948032124	-1.1330431164	-0.077849
C	-0.0298152327	-2.1215404564	-0.7908559272	-0.367665
C	 0.037608476	-2.1717060897	 0.6422367324	 0.223074
C	 0.0489484844	-0.846080613	 1.0699864833	 0.455575
N	 0.1104877313	-0.8260453661	 2.4222148476	-0.372892
N	 0.1424000023	-2.1056358747	 2.9155861154	-0.229236
C	 0.0978105354	-2.9059142407	 1.8558350455	-0.148883
H	 0.9575681696	 1.8370009039	 0.4494977272	 0.137832
H	-0.1173675853	 1.839909861	-0.9610284101	 0.147855
H	-0.8097469761	 1.8454615117	 0.6691965341	 0.137365
H	-0.1038157798	-0.3233935897	-2.1026265694	 0.11864
H	-0.0597178383	-2.9453259165	-1.486502365	 0.103029
H	 0.1435718712	-0.0571524839	 3.0659404935	 0.267282
H	 0.111186777	-3.9748108684	 2.0112880632	 0.107505
22.6389	132.4902	218.1874	248.3596	258.7223	353.2881	522.6922	581.2623	620.3445	644.587	690.8564	695.3768	757.1055	792.6755	816.6787	870.3975	970.166	1023.1487	1058.5214	1106.378	1120.363	1151.4777	1238.3224	1258.1655	1286.3563	1345.2883	1363.4127	1432.5043	1460.2256	1480.5829	1482.6352	1515.9941	1539.8973	1558.8718	1646.1268	3018.6694	3069.7832	3136.0825	3241.5884	3245.2514	3264.4946	3701.0773
CN1C=CC2=C1NN=C2	Cn1ccc2c1[nH]nc2	
InChI=1S/C6H7N3/c1-9-3-2-5-4-7-8-6(5)9/h2-4H,1H3,(H,7,8)	InChI=1S/C6H7N3/c1-9-3-2-5-4-7-8-6(5)9/h2-4H,1H3,(H,7,8)
