15
gdb 65801	2.52144	1.56194	1.27771	4.6619	68.81	-0.2429	-0.0666	0.1764	1009.0381	0.111129	-457.799821	-457.791689	-457.790745	-457.832923	29.907	
O	 0.0173461997	 1.4763022432	 0.060861009	-0.462573
C	-0.0391439012	 0.0855869131	-0.021153491	 0.222467
C	-1.4816069731	-0.4636011482	-0.1381019079	-0.337666
C	-1.4338993507	-1.4174374448	-1.3024022108	-0.049283
C	-0.2665834588	-1.4066492192	-1.9580471619	-0.176044
C	 0.6669074287	-0.4546750171	-1.3268504697	 0.32751
O	 1.7602232646	-0.1105179843	-1.6941541596	-0.316968
C	 0.6844959192	-0.5350875796	 1.1605947849	 0.118553
O	 1.3226546269	 0.1380939236	 1.9305847795	-0.267103
H	 0.6932805498	 1.6747793938	 0.7286960895	 0.299324
H	-1.8441611871	-0.9507477203	 0.7751952869	 0.123192
H	-2.1550962673	 0.3779833183	-0.3324224412	 0.156507
H	-2.2886356394	-2.0314491633	-1.565516381	 0.127791
H	-0.0101345875	-1.9714671669	-2.8449127227	 0.129931
H	 0.6037781362	-1.6358878782	 1.2649355261	 0.104363
57.5759	104.1227	212.445	270.0556	304.4804	309.3023	367.2879	414.7615	473.4791	562.6531	640.1362	677.0859	740.9619	813.1298	825.8236	895.2286	925.3525	969.7832	1001.9145	1048.7661	1078.2647	1119.9174	1140.0026	1159.8557	1258.1095	1319.6207	1361.8549	1383.5546	1431.1829	1466.0638	1647.2601	1797.4762	1839.4523	2933.7449	3036.2024	3079.0007	3193.6537	3229.3292	3691.0179
OC1(CC=CC1=O)C=O	O[C@]1(CC=CC1=O)C=O	
InChI=1S/C6H6O3/c7-4-6(9)3-1-2-5(6)8/h1-2,4,9H,3H2	InChI=1S/C6H6O3/c7-4-6(9)3-1-2-5(6)8/h1-2,4,9H,3H2/t6-/m1/s1
