17
gdb 71096	2.59258	1.60923	1.32905	4.8289	78.09	-0.2601	0.0012	0.2613	1017.9946	0.136779	-380.825515	-380.817879	-380.816935	-380.857474	29.632	
C	 0.0072548942	 1.5841507665	-0.0175372089	-0.506661
C	-0.0340036109	 0.0828189959	 0.0005159459	 0.231864
C	 0.4471903733	-0.7784864109	-1.2045081405	-0.282351
C	-0.5019101937	-1.8565153	-0.6900565199	-0.084753
N	-0.5049533051	-1.8657033982	 0.8068596838	-0.174203
C	 0.4480879046	-0.7695057368	 1.1903814745	-0.185193
C	-1.3237293266	-0.8600552669	 0.0542551178	 0.256921
C	-2.7141622766	-0.632064033	 0.1916086475	 0.12077
N	-3.8437113941	-0.3944807863	 0.2855928067	-0.357443
H	 1.0447860392	 1.936936846	-0.0450043587	 0.130506
H	-0.5059467088	 1.9882335722	-0.8959240726	 0.133662
H	-0.4672635069	 2.0057370215	 0.8744389595	 0.135125
H	 0.096143821	-0.3775922545	-2.1585584906	 0.120465
H	 1.5168067394	-1.0043088265	-1.2629759171	 0.106491
H	-0.839456695	-2.7641563275	-1.1719800281	 0.125485
H	 1.5025266278	-1.0658845985	 1.2179644163	 0.106333
H	 0.1414264679	-0.3749870829	 2.1619645644	 0.122982
121.7677	139.5472	206.0444	283.0455	295.5001	422.5448	437.5355	534.5189	555.9799	565.0713	619.0815	727.2946	766.0957	833.2013	873.2539	912.5292	929.3783	958.4008	998.1144	1031.4947	1048.7102	1104.129	1120.1303	1152.3065	1163.0534	1214.3639	1238.7995	1257.9255	1276.3643	1351.1625	1386.4771	1418.5406	1485.4052	1491.6311	1492.7213	1515.2926	2342.4249	3030.0967	3041.6862	3052.0196	3096.299	3104.9806	3112.1938	3115.0913	3216.6752
CC12CC3N(C1)C23C#N	C[C@@]12C[C@H]3N(C1)[C@@]23C#N	
InChI=1S/C7H8N2/c1-6-2-5-7(6,3-8)9(5)4-6/h5H,2,4H2,1H3	InChI=1S/C7H8N2/c1-6-2-5-7(6,3-8)9(5)4-6/h5H,2,4H2,1H3/t5-,6-,7-,9?/m1/s1
