21
gdb 112752	2.45861	1.28857	0.98123	1.6114	79.69	-0.2484	0.0746	0.323	1283.0275	0.181148	-424.187488	-424.178024	-424.17708	-424.22189	35.534	
C	-0.427428191	 1.6127628056	 0.0160005546	-0.237245
O	-0.4038134042	 0.3288807648	 0.5981308721	-0.243407
C	-1.3289019699	-0.5595725393	 0.0270888151	 0.074887
C	-0.9763002305	-1.2172435029	-1.3441663077	-0.304278
C	-1.3627862727	-2.60144325	-0.7408828754	 0.077035
O	-0.5460409039	-3.716166455	-0.9976239222	-0.430791
C	-1.3270783219	-1.9527949558	 0.6525661105	 0.275806
C	-0.4090942562	-2.3783109231	 1.7637085092	-0.315077
C	-1.9068135973	-2.4144923559	 1.9519504313	-0.338788
H	 0.3031830325	 2.2256375824	 0.5494482916	 0.126832
H	-0.1562675699	 1.586881767	-1.0501160369	 0.108771
H	-1.4198526184	 2.0818666975	 0.1067374528	 0.104939
H	-2.3314310283	-0.102472086	 0.016412716	 0.062504
H	-1.5084887922	-0.8849919528	-2.2377996964	 0.099601
H	 0.1029927723	-1.1592130358	-1.5190095876	 0.101597
H	-2.3718731998	-2.9092438568	-1.031912336	 0.090024
H	 0.3523742777	-3.4824426783	-0.7388688859	 0.278476
H	 0.1054789352	-3.3280693262	 1.653404099	 0.109789
H	 0.1566278679	-1.6008817113	 2.2635012589	 0.130709
H	-2.3570998014	-1.6690835803	 2.6002195039	 0.11357
H	-2.3936872779	-3.384616508	 1.9724116231	 0.115047
65.2592	94.355	159.9273	199.3346	216.4072	223.8945	313.8099	333.9807	373.8818	463.5128	480.4243	547.5909	559.5012	727.3591	785.5542	813.3225	870.0795	896.0363	947.4679	978.2102	1013.3315	1031.9946	1050.6449	1055.205	1082.2189	1106.7605	1128.1411	1170.366	1184.7331	1191.5088	1194.8349	1219.1271	1243.1346	1275.2516	1285.0098	1314.8411	1374.1277	1396.3026	1439.3606	1456.0476	1470.1102	1484.2967	1488.3712	1499.2382	1510.5424	2967.0248	2977.1649	3022.6726	3053.6006	3063.3588	3114.0359	3119.6652	3121.1969	3130.006	3203.519	3226.0004	3801.149
COC1CC(O)C11CC1	CO[C@H]1C[C@@H](O)C21CC2	
InChI=1S/C7H12O2/c1-9-6-4-5(8)7(6)2-3-7/h5-6,8H,2-4H2,1H3	InChI=1S/C7H12O2/c1-9-6-4-5(8)7(6)2-3-7/h5-6,8H,2-4H2,1H3/t5-,6+/m1/s1
