18
gdb 34071	3.7965	1.38307	1.38302	4.408	78.44	-0.2855	0.0406	0.3261	991.0788	0.151631	-364.846851	-364.840198	-364.839254	-364.877648	27.782	
N	 0.0270855573	-1.0963242016	-0.011963098	-0.346795
C	 0.0168688522	 0.059822517	-0.0008003707	 0.174038
C	 0.0035836231	 1.5074111702	 0.0133646288	 0.147695
C	-0.6866538167	 2.1844425441	 1.2342432664	-0.246583
C	-0.4466916393	 3.6234383678	 0.7974702035	-0.066638
C	 0.8592129009	 3.6435899474	 0.0248784802	-0.067074
C	 1.390303653	 2.2163132765	 0.0054049256	-0.246395
C	-0.4629683552	 3.6381354721	-0.7196953948	-0.066888
C	-0.7123367938	 2.2078745949	-1.1792480516	-0.246406
H	-1.7453832634	 1.9185883522	 1.30395416	 0.114693
H	-0.1955466141	 1.9251945653	 2.1765340251	 0.114716
H	-0.7803122635	 4.4685717473	 1.3840731254	 0.092314
H	 1.5146922315	 4.503819843	 0.026177198	 0.092324
H	 1.9856296735	 1.9584695847	 0.8860055421	 0.11466
H	 1.9666779626	 1.9756597416	-0.8925072054	 0.114661
H	-0.8090043	 4.494395059	-1.2824814883	 0.092293
H	-0.2412965698	 1.967074478	-2.1365728014	 0.1147
H	-1.7723095284	 1.9430706806	-1.231630925	 0.114685
158.5376	159.2941	408.7153	412.7437	434.9272	505.4371	554.7261	555.0582	651.0993	651.7434	785.8149	815.8512	816.2952	904.4619	905.1129	954.1382	961.3503	971.7201	972.6828	1023.4766	1024.259	1059.2096	1077.2417	1109.5873	1109.8611	1147.4304	1147.8987	1222.8853	1224.2648	1272.8772	1273.6103	1300.5175	1301.0982	1320.1631	1396.6506	1488.4125	1489.8064	1517.8358	2357.1921	3055.3065	3055.8247	3061.5321	3102.3558	3107.0765	3107.1656	3203.5948	3204.1733	3217.2058
N#CC12CC3C(C1)C3C2	N#C[C@@]12C[C@H]3[C@@H](C1)[C@H]3C2	
InChI=1S/C8H9N/c9-4-8-1-5-6(2-8)7(5)3-8/h5-7H,1-3H2	InChI=1S/C8H9N/c9-4-8-1-5-6(2-8)7(5)3-8/h5-7H,1-3H2/t5-,6+,7-,8-
