16
gdb 13271	5.82749	0.82223	0.79783	2.7948	70.69	-0.2511	0.0169	0.2681	1438.5381	0.129481	-383.676129	-383.667442	-383.666498	-383.711724	29.224	
O	 0.4177471273	 0.9535211384	-0.7073513298	-0.399893
C	-0.0056223152	 0.2872390171	 0.4737046165	-0.194289
C	-1.2541047435	-0.4566597135	 0.317257727	 0.058679
C	-2.2980922304	-1.0407912251	 0.1672012332	 0.076292
C	-3.5537567699	-1.7480495751	-0.0057741253	-0.029449
C	-4.4966023698	-1.2784808849	-1.1497388215	-0.284819
C	-4.362441583	-2.7252154206	-1.6605751045	-0.058198
O	-3.4161590914	-3.0561016795	-0.6214875641	-0.277196
H	-0.3212642863	 1.4862986739	-1.0187039891	 0.286522
H	 0.8059454827	-0.4011616208	 0.7345684553	 0.146421
H	-0.1069654611	 0.9895860697	 1.3168069491	 0.119492
H	-4.0616197316	-1.8372622459	 0.9644405629	 0.102995
H	-5.4910711641	-0.9621384477	-0.8338592307	 0.116606
H	-4.0578008855	-0.5200589511	-1.7977850053	 0.121426
H	-5.2732019887	-3.3326626952	-1.589685946	 0.103725
H	-3.9297678796	-2.8477654195	-2.6597322075	 0.111685
22.1774	49.7727	93.4557	121.1419	223.8	285.332	338.2927	403.4857	517.8274	595.4864	696.8903	796.9582	837.6188	922.467	945.3995	983.8611	1006.0424	1026.5687	1052.8699	1087.5635	1163.1553	1174.5936	1214.5191	1214.7915	1256.5077	1261.5955	1352.1893	1358.0358	1369.0542	1416.8819	1487.0502	1488.3338	1531.3643	2351.3264	2975.3896	3003.9593	3021.0076	3063.7996	3064.1463	3091.4154	3151.3659	3818.1042
OCC#CC1CCO1	OCC#C[C@H]1CCO1	
InChI=1S/C6H8O2/c7-4-1-2-6-3-5-8-6/h6-7H,3-5H2	InChI=1S/C6H8O2/c7-4-1-2-6-3-5-8-6/h6-7H,3-5H2/t6-/m0/s1
