17
gdb 72627	2.53481	1.45171	1.21485	4.4364	74.47	-0.2393	0.0265	0.2658	1078.692	0.135028	-417.977246	-417.968422	-417.967478	-418.010365	32.994	
C	 0.0772311868	 1.5494497569	-0.0563578966	-0.498953
C	 0.1078253873	 0.0659574148	 0.0770320934	 0.436642
O	 0.4623209513	-0.7264281419	-1.0562630684	-0.316589
C	 1.1459584311	-1.6901260378	-0.2076191157	-0.143781
C	 0.7085944893	-0.9239747407	 1.0458542459	 0.176381
N	 1.3737171933	-0.7104221523	 2.2721327053	-0.580865
C	-0.8210725979	-0.7801215213	 0.9540587335	-0.303024
C	-1.4942167598	-0.150753358	 2.0515514538	 0.301288
N	-2.0695242653	 0.351631076	 2.9212577668	-0.347732
H	 1.0446143281	 1.9239112764	-0.4037215703	 0.132151
H	-0.6878867211	 1.8513162416	-0.7794113768	 0.143004
H	-0.1588830918	 2.0104517593	 0.9055532461	 0.16057
H	 0.7809960676	-2.7133169189	-0.3522732085	 0.111798
H	 2.2292232669	-1.6514758078	-0.3760901746	 0.111754
H	 1.2716738148	-1.4904832586	 2.9124072603	 0.245586
H	 2.3606812266	-0.517623302	 2.1446930291	 0.241162
H	-1.3908673973	-1.5631620857	 0.4602290668	 0.130606
121.6344	133.2564	175.5676	183.8004	258.3682	269.3371	349.4782	365.3332	389.0153	489.7388	517.4171	535.2847	688.4503	712.6941	727.3741	754.2704	881.5518	917.7416	969.7862	979.2465	1023.1163	1062.1222	1090.0261	1125.8224	1143.6912	1179.7601	1262.4031	1285.1966	1325.8308	1343.8866	1414.6756	1465.472	1479.7408	1500.3653	1515.9253	1659.2211	2348.8676	3020.4418	3042.2488	3075.3626	3107.3873	3134.7327	3142.2156	3509.4069	3593.0267
CC12OCC1(N)C2C#N	C[C@@]12OC[C@]1(N)[C@H]2C#N	
InChI=1S/C6H8N2O/c1-5-4(2-7)6(5,8)3-9-5/h4H,3,8H2,1H3	InChI=1S/C6H8N2O/c1-5-4(2-7)6(5,8)3-9-5/h4H,3,8H2,1H3/t4-,5-,6-/m0/s1
