20
gdb 67274	2.96963	1.91392	1.73498	1.592	80.63	-0.2088	0.0714	0.2802	908.7369	0.173703	-365.942773	-365.93607	-365.935126	-365.973294	28.72	
C	-0.0766565278	 1.5226701499	 0.0251488717	-0.523689
C	 0.0201332994	 0.0281988276	 0.0141455398	 0.412327
C	 0.7343508057	-0.8703401965	-1.0553572047	-0.115546
C	 1.7390050223	-1.3183479508	 0.030972111	-0.245532
C	 0.6991740436	-0.8884192602	 1.0911920585	-0.115546
C	-0.5996773844	-1.7616856555	 1.0261722425	 0.00404
C	-0.5425983013	-2.888065636	-0.0196366677	-0.244657
C	-0.5656921854	-1.7442200875	-1.047640099	 0.00404
N	-1.2351201456	-0.8290591717	-0.0136451139	-0.205463
H	 0.9180834046	 1.9825109818	 0.0452134019	 0.115521
H	-0.6024994066	 1.8834037393	-0.8658565181	 0.123892
H	-0.6313224943	 1.8685105718	 0.9045068154	 0.123889
H	 1.0975471712	-0.5205524597	-2.0220796132	 0.063329
H	 2.1008605264	-2.3509151303	 0.0282045469	 0.094432
H	 2.6016151163	-0.6447741748	 0.050781477	 0.099728
H	 1.030405864	-0.5550573552	 2.0750470121	 0.063329
H	-1.1310779868	-1.9187602038	 1.9669972359	 0.068559
H	 0.287864652	-3.5982409491	-0.0120081601	 0.098606
H	-1.4877411002	-3.4371064311	-0.0397493025	 0.110182
H	-1.0659390232	-1.8852843084	-2.0078820936	 0.068559
210.1653	235.4212	237.3681	386.5624	424.6271	469.9749	562.1392	663.9064	676.9385	741.895	785.8738	806.2369	856.4398	864.3192	914.1815	921.4837	940.3789	942.9131	965.4013	978.3912	990.1953	1049.0111	1054.6522	1104.7813	1108.4899	1144.8679	1146.6104	1157.1131	1165.078	1182.6254	1233.6316	1246.9892	1263.1046	1283.9253	1286.1086	1323.2487	1331.5008	1351.9881	1408.2611	1473.8853	1478.4023	1487.7586	1504.1625	3022.6226	3043.3394	3059.1719	3079.6384	3081.4688	3091.4786	3093.4642	3093.5545	3102.5691	3105.5688	3113.1198
CC12C3CC1C1CC3N21	C[C@@]12[C@H]3C[C@@H]1[C@@H]1C[C@H]3N21	
InChI=1S/C8H11N/c1-8-4-2-5(8)7-3-6(4)9(7)8/h4-7H,2-3H2,1H3	InChI=1S/C8H11N/c1-8-4-2-5(8)7-3-6(4)9(7)8/h4-7H,2-3H2,1H3/t4-,5+,6+,7-,8+
