16
gdb 11976	2.64687	2.29961	1.76708	2.7793	64.48	-0.2398	-0.0288	0.211	821.5632	0.128139	-383.718579	-383.710743	-383.709799	-383.750341	29.127	
C	-0.0342204787	 1.5648581367	-0.091394723	-0.448686
C	-0.0045203498	 0.0415825509	-0.0370699185	 0.140052
C	-1.3721637964	-0.5680479472	 0.2864152604	-0.443874
C	 0.7286526369	-0.6767672421	-1.1959528183	 0.008827
O	 2.0647495615	-0.1967332047	-1.2053472834	-0.236267
C	 1.7502862666	-1.2887738007	-0.3088571992	-0.124389
C	 1.0809192137	-0.6210306712	 0.8878819013	 0.402215
O	 1.2061718431	-0.6956049148	 2.0735349704	-0.308579
H	 0.9344283695	 1.9615975158	-0.4032166056	 0.139119
H	-0.799087474	 1.9167044483	-0.7928266307	 0.115725
H	-0.2718281902	 1.9729875866	 0.8962047064	 0.131828
H	-2.1172608239	-0.2518241772	-0.4515261788	 0.121476
H	-1.3413485198	-1.6629507675	 0.2903505408	 0.120425
H	-1.7074059561	-0.2394880323	 1.2742287053	 0.141553
H	 0.3205803506	-1.078061546	-2.1166837262	 0.116327
H	 2.3372140772	-2.1951535947	-0.3987497209	 0.124249
122.2019	204.0904	204.4358	213.0401	249.7328	278.3281	323.2367	482.4952	524.8048	648.9571	684.6519	757.1164	832.5014	849.101	862.4986	943.1819	962.6031	971.0099	1013.049	1024.2005	1065.9473	1183.6566	1192.6799	1207.8253	1231.029	1301.0513	1341.7794	1394.847	1416.2916	1482.4732	1484.9971	1500.8575	1508.5818	1895.5249	3030.1736	3034.0847	3096.6763	3098.813	3114.5188	3129.3458	3184.7881	3199.3609
CC1(C)C2OC2C1=O	CC1(C)[C@H]2O[C@H]2C1=O	
InChI=1S/C6H8O2/c1-6(2)4(7)3-5(6)8-3/h3,5H,1-2H3	InChI=1S/C6H8O2/c1-6(2)4(7)3-5(6)8-3/h3,5H,1-2H3/t3-,5-/m0/s1
