16
gdb 9067	5.98381	0.86754	0.80197	1.6894	67.89	-0.2619	0.0091	0.271	1352.5598	0.12981	-379.95989	-379.950967	-379.950022	-379.994513	29.978	
C	-0.1287036402	 1.4151691908	 0.052112398	-0.35538
N	-0.003515925	-0.0311049384	-0.0364001011	-0.033029
C	 0.0038511431	-0.8147344948	 1.1773988339	-0.181454
C	-1.4046434603	-0.9495606697	 1.811776165	-0.337946
C	-1.3666175901	-1.7276272056	 3.0459980833	 0.260226
N	-1.3035064691	-2.3477489355	 4.0188773256	-0.294564
C	 0.1391622533	-0.6258817923	-1.2615251511	 0.152164
O	 0.1421265074	-0.0492508654	-2.325872611	-0.329834
H	 0.6522601581	 1.8289527915	 0.7004231379	 0.13196
H	-0.019416117	 1.8162833998	-0.955420179	 0.177212
H	-1.1054594565	 1.7160206634	 0.4482273438	 0.128784
H	 0.3876579715	-1.8131387782	 0.9495058383	 0.143313
H	 0.6859500768	-0.3640109738	 1.9076709827	 0.135371
H	-1.8199314451	 0.0392951474	 2.0323965799	 0.160981
H	-2.083698423	-1.4324743232	 1.1010018489	 0.16346
H	 0.2591659362	-1.7234106859	-1.1698443252	 0.078736
60.268	65.3669	102.4403	137.1459	190.8161	309.9151	331.6008	363.8806	394.7325	417.7532	504.58	714.1834	770.1815	878.4652	959.074	1008.3431	1028.583	1053.638	1091.5319	1156.647	1200.6419	1281.379	1298.3623	1313.4383	1400.9152	1429.0466	1439.6225	1443.3976	1469.0086	1489.8249	1499.496	1519.0402	1803.2399	2364.2571	2938.3836	3024.6726	3039.0775	3056.0533	3077.2002	3087.4033	3107.521	3158.6589
CN(CCC#N)C=O	CN(CCC#N)C=O	
InChI=1S/C5H8N2O/c1-7(5-8)4-2-3-6/h5H,2,4H2,1H3	InChI=1S/C5H8N2O/c1-7(5-8)4-2-3-6/h5H,2,4H2,1H3
