17
gdb 31929	5.82236	0.83789	0.7629	4.9303	81.97	-0.237	-0.0497	0.1874	1476.8423	0.136708	-418.071662	-418.062987	-418.062043	-418.106508	30.755	
C	 0.0661311239	 1.5725121563	 0.1347376059	-0.368601
C	 0.1076651515	 0.0432407755	-0.0003876059	-0.299456
C	 0.7603141006	-0.4032998794	-1.2707999221	 0.365089
N	 0.462507963	 0.0411185947	-2.4872774508	-0.292338
C	 1.2776895411	-0.6343247451	-3.3402695583	-0.13266
C	 2.0975631622	-1.5128518463	-2.6540332883	 0.201272
N	 1.7400407068	-1.338876465	-1.3234638401	-0.354789
C	 3.120210831	-2.4404756044	-3.0912529994	 0.064691
O	 3.4523098378	-2.6130513901	-4.2446356477	-0.273837
H	 1.0755686591	 1.9906107758	 0.19083553	 0.123015
H	-0.4324306258	 2.0126960805	-0.7314486024	 0.153684
H	-0.4766784697	 1.8626310295	 1.0385944095	 0.116314
H	 0.6298606832	-0.4042961768	 0.8533020466	 0.100605
H	-0.9166041603	-0.349779521	 0.0220933916	 0.136113
H	 1.2545757793	-0.4734076056	-4.4072614936	 0.140027
H	 2.1406195078	-1.8239889086	-0.5364788157	 0.269725
H	 3.6042863483	-3.01209852	-2.2630693793	 0.051145
18.8113	103.645	151.5123	199.9911	222.1984	247.7173	337.7845	371.929	519.2162	564.8311	651.5023	666.684	733.5745	775.3672	796.1525	901.6622	962.8388	1017.0861	1022.5627	1047.4808	1075.8623	1092.8038	1180.8141	1213.9297	1280.2638	1308.5665	1344.555	1377.4098	1407.6583	1439.8315	1453.513	1477.8075	1494.0143	1503.5415	1528.5695	1595.1341	1782.8623	2835.319	3027.6885	3047.8878	3064.0626	3117.2751	3137.8072	3259.557	3648.5749
CCC1=NC=C(N1)C=O	CCc1ncc([nH]1)C=O	
InChI=1S/C6H8N2O/c1-2-6-7-3-5(4-9)8-6/h3-4H,2H2,1H3,(H,7,8)	InChI=1S/C6H8N2O/c1-2-6-7-3-5(4-9)8-6/h3-4H,2H2,1H3,(H,7,8)
