21
gdb 88002	2.82468	1.3031	1.14113	1.5766	83.41	-0.2188	0.0756	0.2944	1199.8213	0.181172	-387.04199	-387.033022	-387.032078	-387.075647	34.372	
C	-0.1437888748	 1.4155226128	-0.0725580391	-0.403089
C	 0.1013915106	-0.076452721	-0.0435364914	-0.079918
C	 1.5264354868	-0.6254967819	-0.0539756463	-0.368995
C	 0.6841091802	-0.7172594432	 1.176453574	 0.406826
O	 0.9891508613	 0.0437458808	 2.3515768156	-0.321602
C	 0.5397326277	-1.032213716	 3.211296346	-0.140238
C	 0.2268208762	-1.9007351292	 1.9964013874	 0.216494
C	-0.9223255055	-2.8312536334	 1.7676939281	-0.327789
C	 0.496995126	-3.3577578218	 1.7892744572	-0.323345
H	 0.5703988741	 1.9378800363	 0.5697691142	 0.133069
H	-0.0495949208	 1.8144924594	-1.0882915092	 0.113
H	-1.1483032617	 1.6557417382	 0.2922368432	 0.116359
H	-0.6326906732	-0.6754991818	-0.5794722935	 0.080646
H	 1.7405785435	-1.5298448275	-0.6156370056	 0.107913
H	 2.3373344115	 0.0964433566	-0.0318815597	 0.119856
H	 1.3439759336	-1.3898350899	 3.8658540717	 0.104182
H	-0.3222204676	-0.7320758759	 3.8203077408	 0.103311
H	-1.5691010872	-3.0603925235	 2.6089119209	 0.115032
H	-1.4359678034	-2.7826076461	 0.812568951	 0.116807
H	 0.9444181911	-3.6636620783	 0.8486965381	 0.11642
H	 0.8149085315	-3.9454110245	 2.6449049366	 0.115063
70.7243	126.678	155.8205	177.8602	228.5731	259.5389	328.6025	404.9367	436.8611	539.7212	552.5574	605.5399	773.0117	795.249	859.7392	861.6342	880.1948	893.5712	917.9738	966.6718	986.8834	990.5767	1014.3427	1037.3717	1054.36	1074.0547	1097.6271	1109.5475	1127.1882	1150.8743	1164.3755	1185.6407	1190.1404	1247.3976	1296.1925	1334.5701	1387.7556	1412.5945	1437.9823	1463.3957	1481.8838	1491.525	1501.3321	1517.9126	1529.0262	3010.5149	3032.2036	3055.2016	3091.5005	3108.6704	3117.7439	3121.1729	3124.3303	3125.8407	3198.5736	3206.1137	3213.5785
CC1CC11OCC11CC1	C[C@H]1C[C@]21OCC12CC1	
InChI=1S/C8H12O/c1-6-4-8(6)7(2-3-7)5-9-8/h6H,2-5H2,1H3	InChI=1S/C8H12O/c1-6-4-8(6)7(2-3-7)5-9-8/h6H,2-5H2,1H3/t6-,8+/m0/s1
