18
gdb 114576	2.56788	1.2633	0.98644	5.3235	78.19	-0.2349	-0.0022	0.2327	1241.5264	0.148262	-398.080173	-398.071493	-398.070549	-398.113837	32.019	
C	 0.1756617527	 1.4750217153	 0.1849379569	-0.322884
N	-0.2189937243	 0.106591556	-0.1305678278	-0.290206
C	 0.5415771651	-0.5087394945	-1.1810645258	-0.024916
C	 2.0097073715	-1.0484574259	-1.0215969292	-0.195787
N	 1.6243302324	-2.4108491704	-1.5380923539	-0.145755
C	 0.659346811	-2.9338480783	-0.5731096797	-0.27046
C	 0.1606750722	-1.9419037713	-1.5622267626	 0.18363
C	-0.7594100996	-2.2895315167	-2.6025566608	 0.210487
N	-1.5187361797	-2.5424962547	-3.4380651442	-0.338299
H	 1.2292260558	 1.5883269499	 0.4927124097	 0.102416
H	 0.0150835555	 2.1097048627	-0.6933767386	 0.132416
H	-0.4568434289	 1.8571325358	 0.9905101201	 0.128636
H	-0.2134255233	-0.4662980356	 0.7055748694	 0.218421
H	 0.4884136078	 0.1376840828	-2.0617893088	 0.113178
H	 2.7369305658	-0.5831942586	-1.6879293062	 0.124115
H	 2.4106644904	-1.0759308925	-0.0027375225	 0.108659
H	 0.3878348083	-3.9694556605	-0.7500935024	 0.149903
H	 0.7467920274	-2.6577352737	 0.4761953965	 0.116447
74.8087	127.7512	154.6639	166.3048	202.9171	287.7149	375.9105	431.6732	463.0826	524.1211	575.9362	637.8929	706.701	765.5648	790.3115	858.7034	867.4447	974.76	1002.8944	1027.6591	1045.2126	1105.9719	1138.0558	1150.3672	1159.143	1189.0475	1204.6638	1245.3862	1260.5713	1299.1695	1337.3411	1384.8784	1460.151	1486.1865	1489.9718	1501.663	1507.6323	1521.1179	2348.9997	2958.582	3048.8654	3063.7708	3073.7492	3101.0112	3113.0665	3128.0467	3204.4423	3535.431
CNC1CN2CC12C#N	CN[C@H]1CN2C[C@@]12C#N	
InChI=1S/C6H9N3/c1-8-5-2-9-4-6(5,9)3-7/h5,8H,2,4H2,1H3	InChI=1S/C6H9N3/c1-8-5-2-9-4-6(5,9)3-7/h5,8H,2,4H2,1H3/t5-,6-,9?/m0/s1
