16
gdb 101990	3.64157	0.71838	0.62943	1.3093	89.96	-0.2325	-0.0476	0.185	1728.4247	0.120681	-400.682073	-400.672013	-400.671069	-400.717846	34.94	
C	 0.0725249428	 1.5435390025	 0.0698308789	-0.323542
N	-0.1265872544	 0.0986868376	-0.0484500956	-0.263033
C	 0.5994090269	-0.499609265	-1.1536864461	-0.300133
C	 2.12877586	-0.6293328956	-0.9254139445	 0.159838
O	 2.6507680304	-0.3845182477	 0.1275824262	-0.235353
C	 0.1178292243	-1.8412715915	-1.4807865977	 0.314778
C	-0.2145885567	-2.9762332149	-1.7388142463	-0.11769
C	-0.6065516924	-4.2460391657	-2.028932448	 0.280872
C	-0.9518341029	-5.3734949412	-2.2884520648	-0.543591
H	 1.1226148975	 1.8535049688	 0.1743619173	 0.117841
H	-0.3494902996	 2.0390017927	-0.8118954196	 0.123158
H	-0.4786557654	 1.9015846227	 0.9432188393	 0.128199
H	 0.1694608848	-0.3564500707	 0.8095223852	 0.233514
H	 0.4685543104	 0.1396567683	-2.0412784873	 0.129182
H	 2.7040569273	-0.9923565236	-1.8044770234	 0.099315
H	-1.258304803	-6.3648022066	-2.5142700635	 0.196646
57.4227	76.4707	105.6194	146.6058	184.3231	226.1473	236.9177	282.677	348.679	412.6315	465.6014	523.1709	547.4339	592.2414	610.75	661.0938	758.3877	775.4032	853.3477	996.5023	1023.0316	1123.5371	1155.3702	1177.4703	1214.052	1252.919	1329.7652	1398.8518	1456.9994	1488.1026	1497.5506	1523.7039	1834.8577	2181.1539	2358.0012	2900.4915	2989.9302	2997.059	3066.9495	3112.643	3503.8093	3525.0214
CNC(C=O)C#CC#C	CN[C@@H](C=O)C#CC#C	
InChI=1S/C7H7NO/c1-3-4-5-7(6-9)8-2/h1,6-8H,2H3	InChI=1S/C7H7NO/c1-3-4-5-7(6-9)8-2/h1,6-8H,2H3/t7-/m1/s1
