16
gdb 11432	4.56405	1.38582	1.25216	5.1005	61.29	-0.2635	0.0152	0.2786	992.9729	0.130469	-420.911152	-420.903515	-420.902571	-420.943633	27.341	
C	 0.0526916397	 1.1968520179	 0.2702095077	-0.242401
O	-0.1130019182	-0.1484118225	-0.1212594114	-0.243245
C	 0.5994821504	-0.5071409907	-1.2878369506	 0.101812
C	 2.088861972	-0.7974326243	-1.00259711	-0.096685
O	 2.161939932	-2.1780839502	-0.6281975963	-0.216524
C	 1.0483927615	-2.8560417963	-1.030599035	 0.441526
O	 0.9131812524	-4.0291933513	-0.8504504382	-0.333562
C	 0.1024578814	-1.8815747033	-1.7238558252	-0.38134
H	 1.0917368016	 1.4343443667	 0.542078917	 0.109356
H	-0.2623506065	 1.8889321958	-0.5260193005	 0.110345
H	-0.5780942215	 1.3540549928	 1.1476273661	 0.13913
H	 0.4835081422	 0.2670517754	-2.0589611935	 0.076304
H	 2.7090728008	-0.6320888012	-1.8919612026	 0.114233
H	 2.4864034798	-0.2020289159	-0.1780981733	 0.127765
H	-0.9327830044	-2.0653334966	-1.4378032367	 0.153858
H	 0.1958880769	-2.0212192363	-2.8057376476	 0.139426
72.9735	112.9485	165.116	212.547	292.4907	364.9461	426.6183	518.371	555.1449	695.135	774.9027	823.034	863.5659	882.6195	961.963	1030.4875	1069.3961	1089.9102	1139.3743	1168.1532	1181.8815	1186.0577	1214.4202	1265.8481	1272.3363	1315.2056	1379.4981	1403.9887	1444.7132	1480.0724	1491.0487	1504.0315	1510.539	1892.0334	2978.8396	3006.786	3028.0337	3038.0582	3071.2391	3112.7729	3124.105	3148.2704
COC1COC(=O)C1	CO[C@H]1COC(=O)C1	
InChI=1S/C5H8O3/c1-7-4-2-5(6)8-3-4/h4H,2-3H2,1H3	InChI=1S/C5H8O3/c1-7-4-2-5(6)8-3-4/h4H,2-3H2,1H3/t4-/m1/s1
