13
gdb 12588	3.33078	2.33697	1.38533	1.1277	61.46	-0.2692	-0.0931	0.1761	821.4655	0.096166	-398.677209	-398.670031	-398.669087	-398.709215	25.159	
C	-0.0079785108	 1.4608792192	 0.0031615725	-0.348436
N	 0.0088549979	 0.0120334856	-0.0003458536	-0.158267
C	 0.1026139561	-0.7740292348	-1.1478787995	 0.402491
O	 0.1817925165	-0.3586064143	-2.2783843369	-0.345538
C	 0.0832459838	-2.2005031543	-0.6732451576	-0.181033
C	-0.0154080461	-2.2067958278	 0.6557601098	-0.1863
C	-0.0674328579	-0.7859012843	 1.1430303688	 0.408747
O	-0.156413734	-0.387828245	 2.2789908661	-0.345534
H	 0.9107216112	 1.8586492996	-0.4362707503	 0.147882
H	-0.8596225825	 1.8383229936	-0.5691768819	 0.147903
H	-0.0896329673	 1.7836332522	 1.0418827104	 0.163495
H	 0.1437787526	-3.0293286324	-1.3638666064	 0.147303
H	-0.0569714693	-3.0417797872	 1.3403466885	 0.147287
55.2384	147.0233	176.8715	262.4837	301.737	380.5976	569.486	610.2963	639.2293	704.7936	736.5265	786.4674	852.9663	953.6158	970.7994	1048.7338	1104.597	1142.6022	1160.2386	1278.8396	1321.7911	1414.0853	1467.0455	1488.8216	1514.3163	1647.4092	1802.4381	1856.4304	3050.8399	3114.8492	3155.2039	3236.4609	3258.9605
CN1C(=O)C=CC1=O	CN1C(=O)C=CC1=O	
InChI=1S/C5H5NO2/c1-6-4(7)2-3-5(6)8/h2-3H,1H3	InChI=1S/C5H5NO2/c1-6-4(7)2-3-5(6)8/h2-3H,1H3
