12
gdb 43435	3.42864	1.29947	0.94232	2.866	75.67	-0.2802	-0.1068	0.1735	1125.3881	0.077221	-435.510308	-435.502956	-435.502012	-435.542339	27.298	
N	-0.0904406552	 1.2567024792	 0.0101126548	-0.509841
C	-0.0427262591	-0.0012602392	 0.0035869807	 0.345594
O	 1.1051982632	-0.7607237331	-0.0080414212	-0.230245
C	 0.7572219089	-2.1169995516	-0.0118830642	 0.458026
O	 1.5813338238	-2.9789654514	-0.0227194676	-0.313344
C	-0.715592203	-2.1854276607	-0.0029433091	-0.421836
C	-1.2054577297	-0.930294251	 0.0067965033	 0.136906
C	-2.542607685	-0.4914780768	 0.0177478841	 0.277277
C	-3.6874906319	-0.1209678807	 0.0270941991	-0.356984
H	 0.8487106206	 1.6587883846	 0.005735434	 0.24678
H	-1.2558002213	-3.1193444968	-0.0043115392	 0.154762
H	-4.6949399413	 0.2170595576	 0.0354331551	 0.212905
126.2728	136.3515	169.7713	289.3525	355.0307	437.6943	495.1929	531.4916	615.001	654.4122	664.7209	674.6389	732.0709	775.8464	794.4169	893.1838	903.9286	918.3962	1006.0296	1126.5557	1180.2017	1269.2621	1358.4751	1643.3163	1764.8024	1893.6846	2236.7812	3266.7204	3484.1383	3498.2239
N=C1OC(=O)C=C1C#C	[NH]C1=C([CH]C(=O)O1)C#C	
InChI=1S/C6H3NO2/c1-2-4-3-5(8)9-6(4)7/h1,3,7H	InChI=1S/C6H3NO2/c1-2-4-3-5(8)9-6(4)7/h1,3,7H
