16
gdb 12469	3.36283	1.95693	1.31263	3.4684	68.68	-0.2375	-0.0549	0.1826	909.2877	0.131754	-383.757092	-383.750028	-383.749084	-383.788726	26.476	
O	-0.0433274983	 0.9629005276	 1.5534137947	-0.321036
C	-0.0380214846	 1.4682788224	 0.4465355125	 0.320964
C	-1.3991335753	 1.7917815243	-0.1831835142	-0.185331
O	-1.4348393808	 2.1752461147	-1.5334243324	-0.234113
C	-0.7795605902	 3.3964213489	-1.8141142625	-0.092117
C	 0.6517223825	 3.1639125948	-2.2856604838	-0.254184
C	 1.5453008488	 2.4209526417	-1.3397009508	-0.035093
C	 1.2543971291	 1.731597271	-0.2274956386	-0.138207
H	-2.0054987956	 0.8856459159	-0.0956349617	 0.142615
H	-1.8673914456	 2.5541133994	 0.4619183222	 0.11988
H	-1.3486905784	 3.8952829691	-2.606379986	 0.111786
H	-0.7905340298	 4.0538797175	-0.9315403707	 0.098315
H	 0.6289365202	 2.6109650201	-3.2363422975	 0.13436
H	 1.1151136701	 4.1315665216	-2.5244175935	 0.114049
H	 2.5983511585	 2.4555611846	-1.617335524	 0.109203
H	 2.0746650794	 1.2867989665	 0.3306599863	 0.108906
63.9133	158.4362	267.2233	340.7108	360.9406	399.7616	487.7171	516.0683	613.7405	680.1381	744.7062	824.1198	841.614	909.5833	985.044	1009.1664	1037.1993	1047.9636	1089.0954	1157.4649	1214.328	1244.6232	1280.4608	1301.8661	1327.1771	1369.4771	1397.3318	1410.0634	1427.1454	1449.5765	1455.4133	1502.9935	1696.1582	1752.71	2973.1802	2992.9653	3006.4204	3036.8544	3065.9592	3094.751	3131.827	3167.2516
O=C1COCCC=C1	O=C1COCCC=C1	
InChI=1S/C6H8O2/c7-6-3-1-2-4-8-5-6/h1,3H,2,4-5H2	InChI=1S/C6H8O2/c7-6-3-1-2-4-8-5-6/h1,3H,2,4-5H2
