14
gdb 13647	5.66229	0.91849	0.83461	6.0393	78.09	-0.269	-0.0444	0.2246	1311.03	0.107083	-341.547969	-341.540015	-341.539071	-341.580846	28.071	
C	-0.1259234239	 1.5038466884	-0.1395702197	-0.401229
C	-0.0094506981	 0.0113355791	 0.0293128965	 0.019662
N	 1.3111207516	-0.5825204033	-0.1668838174	-0.309698
C	 0.7099926479	-0.6217566905	 1.1901149792	-0.290651
C	 1.3480220676	 0.1520853492	 2.2115909766	 0.185355
C	 1.8583650941	 0.7939911565	 3.100365134	 0.05293
C	 2.4379215061	 1.5203373345	 4.0991285575	 0.205017
N	 2.9292673916	 2.1388271474	 4.9515591434	-0.337291
H	 0.7607861042	 2.0082546637	 0.2501702478	 0.144723
H	-0.2249722228	 1.7567317758	-1.1999609518	 0.130837
H	-1.0065669974	 1.8858166398	 0.3863765859	 0.128526
H	-0.8678139404	-0.5624301594	-0.3186935749	 0.100843
H	 1.2430730478	-1.506313894	-0.5864941056	 0.244922
H	 0.3135711816	-1.5725665573	 1.5399639685	 0.126055
76.1758	100.2289	179.6427	197.598	255.6448	345.5098	399.267	480.4241	545.3184	579.6524	603.1614	716.906	775.2638	849.2068	906.376	981.1979	1005.6336	1064.4371	1126.6635	1156.7648	1209.0931	1237.4689	1265.7467	1394.3859	1420.9073	1451.0029	1485.7276	1496.0261	2263.716	2394.434	3043.9812	3109.1546	3111.0523	3130.9318	3139.0203	3506.453
CC1NC1C#CC#N	C[C@H]1N[C@H]1C#CC#N	
InChI=1S/C6H6N2/c1-5-6(8-5)3-2-4-7/h5-6,8H,1H3	InChI=1S/C6H6N2/c1-5-6(8-5)3-2-4-7/h5-6,8H,1H3/t5-,6+/m1/s1
