14
gdb 48684	3.85255	1.20484	1.06678	1.6459	63.84	-0.2592	-0.057	0.2022	1084.9629	0.100788	-473.846365	-473.838811	-473.837866	-473.878721	27.711	
O	-0.4516261818	 0.630587749	 0.7307680893	-0.251342
C	 0.2198074948	 0.9679354022	-0.2112035526	 0.090292
C	 1.3282511428	 1.9552746153	-0.1171142345	 0.316518
C	 1.8466806079	 2.4521510848	 1.2218471408	-0.236449
N	 2.3691191346	 3.7697047963	 0.8961139293	-0.343677
C	 2.1672369052	 4.2003935592	-0.3867917033	 0.464211
O	 2.4355204277	 5.2837573155	-0.850824348	-0.370074
C	 1.5179069363	 3.0321321295	-1.1198473361	-0.18316
O	 2.3338749818	 1.8628396876	-1.1323615174	-0.272357
H	 0.0708280726	 0.565444553	-1.2350703081	 0.103164
H	 1.0221757193	 2.492750544	 1.9420383455	 0.146799
H	 2.6228955366	 1.786772241	 1.6161054853	 0.137561
H	 2.8759918412	 4.3403888583	 1.553457243	 0.264123
H	 0.8918550409	 3.2064182144	-1.9886498933	 0.134393
88.0751	154.9973	187.7057	220.5547	334.9143	393.3116	461.7741	483.6606	506.383	619.0881	702.5718	747.0254	798.1254	843.4595	907.8668	941.9983	998.5563	1060.7568	1070.565	1077.6754	1205.4241	1224.7873	1244.6335	1318.8419	1342.8261	1372.9707	1431.3061	1449.0615	1513.5166	1817.9065	1842.7245	2922.6053	3040.1027	3081.2878	3184.3999	3649.1674
O=CC12CNC(=O)C1O2	O=C[C@]12CNC(=O)[C@H]1O2	
InChI=1S/C5H5NO3/c7-2-5-1-6-4(8)3(5)9-5/h2-3H,1H2,(H,6,8)	InChI=1S/C5H5NO3/c7-2-5-1-6-4(8)3(5)9-5/h2-3H,1H2,(H,6,8)/t3-,5-/m1/s1
