19
gdb 114676	3.35841	1.34213	1.27867	1.7469	74.12	-0.2428	-0.0015	0.2413	1082.4135	0.160464	-423.019189	-423.011605	-423.010661	-423.051292	30.12	
C	 0.0065399786	 1.6053563914	-0.0114212176	-0.378348
C	-0.1046728509	 0.0773684774	-0.0314231456	-0.201347
C	 0.6764192554	-0.5457079945	-1.179711154	 0.152027
O	 2.0869248742	-0.2726516424	-1.0673862427	-0.300942
C	 2.7076409762	-1.570803148	-1.240393177	 0.137237
O	 1.8517123262	-2.2311687835	-2.1438018379	-0.23214
C	 0.6843748847	-2.1111645578	-1.304646745	-0.052191
C	 1.1865124508	-2.6708013974	 0.0179191535	-0.093627
C	 2.4778273211	-2.3374837163	 0.0604133877	-0.07784
H	 1.0520034757	 1.9104859174	 0.0834291989	 0.136714
H	-0.3880077799	 2.0439738396	-0.9346768079	 0.113114
H	-0.5538281668	 2.0301042182	 0.8267833249	 0.109128
H	 0.2621680129	-0.3342184532	 0.9143897177	 0.103444
H	-1.1580040065	-0.2192126837	-0.1277443428	 0.091109
H	 0.3267225908	-0.140773538	-2.139033751	 0.083451
H	 3.7142099647	-1.4464843276	-1.6337361449	 0.094304
H	-0.1905059344	-2.5584024108	-1.7716242532	 0.090353
H	 0.5725779184	-3.1191922471	 0.7861516583	 0.112836
H	 3.1901660888	-2.4440050439	 0.8661759184	 0.112714
91.4092	151.2603	192.8085	258.2958	346.5868	445.5514	477.2922	500.8114	634.7556	715.7571	736.2078	773.8871	815.6087	837.7605	858.9758	867.2266	900.1469	926.4567	936.4924	946.3595	979.8036	1002.6388	1060.1611	1081.8515	1112.6389	1147.5225	1160.9835	1232.8005	1249.4753	1275.5884	1291.5155	1309.3347	1333.9249	1344.1595	1359.0078	1403.7833	1410.3089	1477.1196	1498.3972	1509.4571	1633.5372	3011.093	3019.7338	3036.8814	3077.0039	3104.1094	3122.5955	3148.4876	3155.5571	3223.449	3248.9817
CCC1OC2OC1C=C2	CC[C@H]1O[C@@H]2O[C@H]1C=C2	
InChI=1S/C7H10O2/c1-2-5-6-3-4-7(8-5)9-6/h3-7H,2H2,1H3	InChI=1S/C7H10O2/c1-2-5-6-3-4-7(8-5)9-6/h3-7H,2H2,1H3/t5-,6+,7-/m1/s1
