21
gdb 120324	3.0335	1.10487	1.04802	2.3477	78.48	-0.2246	0.0734	0.298	1287.2771	0.182819	-424.201344	-424.192451	-424.191506	-424.235601	32.968	
C	 0.246560623	 1.5016154993	-0.2530360882	-0.387918
C	-0.0296656533	 0.0298065729	-0.5048566119	-0.034768
O	 1.1887158662	-0.5985324722	-0.8823581433	-0.246452
C	 1.0508879772	-1.962125657	-1.109628945	 0.083635
C	 0.6626312751	-2.5170652577	-2.47534285	-0.151778
C	 0.8151492652	-1.6022243382	-3.6829269306	-0.242456
C	 2.2576779632	-1.0558451633	-3.5647200188	-0.070636
O	 2.9784852927	-1.9560664536	-2.7171569862	-0.254936
C	 2.0721797223	-2.683404534	-1.9428489732	 0.053518
H	 0.9953129452	 1.6210433045	 0.5349765071	 0.130531
H	 0.623589064	 1.9854004843	-1.1587198897	 0.126319
H	-0.6699123446	 2.0128274848	 0.0566354531	 0.115528
H	-0.4271245928	-0.4500526267	 0.4044142239	 0.089493
H	-0.7843586235	-0.1012689946	-1.2953315339	 0.093247
H	 0.6592704768	-2.5196190673	-0.2549676535	 0.082894
H	-0.0411066736	-3.3397649844	-2.533380076	 0.086435
H	 0.6875578397	-2.1955715528	-4.5939376658	 0.107685
H	 0.0859849788	-0.7871807489	-3.7140514724	 0.105461
H	 2.78166391	-1.0124247844	-4.52467798	 0.100616
H	 2.2537820053	-0.058437777	-3.1154170459	 0.113345
H	 2.4928682832	-3.6221787938	-1.5998258096	 0.100238
64.5375	92.3647	114.6569	186.2199	216.5125	250.6425	272.9462	383.7972	539.8264	609.2583	699.565	732.4727	767.1239	789.4056	819.407	856.0566	899.4307	915.0953	953.2777	990.6115	1028.9892	1052.2537	1075.1284	1092.3514	1107.5466	1132.7288	1143.58	1173.0274	1188.277	1222.4851	1233.3028	1251.2545	1292.5384	1304.1031	1314.4373	1351.0012	1390.8297	1403.5344	1414.3862	1458.1442	1482.9734	1492.8749	1499.3816	1519.9532	1528.1783	2969.708	3002.456	3043.8805	3044.9448	3052.0368	3066.4734	3078.5253	3099.9148	3118.4712	3122.5492	3166.4916	3176.4363
CCOC1C2CCOC12	CCO[C@H]1[C@H]2CCO[C@@H]12	
InChI=1S/C7H12O2/c1-2-8-6-5-3-4-9-7(5)6/h5-7H,2-4H2,1H3	InChI=1S/C7H12O2/c1-2-8-6-5-3-4-9-7(5)6/h5-7H,2-4H2,1H3/t5-,6+,7-/m1/s1
