19
gdb 86063	2.48648	1.28296	0.95697	1.4246	88.26	-0.2234	-0.0172	0.2063	1268.4875	0.157669	-385.884634	-385.875334	-385.87439	-385.918454	35.281	
C	 0.0522030934	 1.49126222	 0.0974602966	-0.51431
C	 0.0714828911	 0.0007928829	 0.0171943656	 0.213458
C	 0.0408643947	-0.7541687017	-1.1014120313	 0.10748
C	 0.0199526208	-2.2392011191	-0.7682536945	-0.339943
C	 0.4775372511	-2.2694470161	 0.7085539873	 0.123854
O	 1.8761904541	-2.4940941055	 0.8205082309	-0.435919
C	 0.0798840103	-0.8754983188	 1.2492834017	-0.314024
C	-0.0158566358	-0.2791665547	-2.4332993212	 0.164286
C	-0.0615779143	 0.0846724527	-3.5822925115	-0.406723
H	 0.9244106862	 1.8670028435	 0.6474567132	 0.127933
H	 0.0438385731	 1.9458044417	-0.8957439426	 0.13951
H	-0.8320112906	 1.8417280733	 0.6458127347	 0.130751
H	-0.9929362261	-2.6452068061	-0.8895448493	 0.113654
H	 0.6852203527	-2.8392509331	-1.396279016	 0.11722
H	 0.0161632719	-3.0840340545	 1.2714067096	 0.083549
H	 2.3203117165	-1.8111742278	 0.3043897773	 0.280024
H	 0.7827468477	-0.5429197522	 2.0215872267	 0.110237
H	-0.9169105803	-0.890751411	 1.7144152785	 0.111116
H	-0.1052307465	 0.4137588768	-4.5907031756	 0.187846
87.4551	130.4996	143.7592	164.2696	240.0758	303.9166	344.8002	382.03	407.8825	431.8219	519.6938	565.6214	571.581	607.3572	640.47	644.8791	806.2245	843.5657	886.6911	932.2307	939.1946	1009.5256	1042.6694	1065.3292	1085.6724	1153.5808	1174.1279	1188.4315	1231.6313	1281.4589	1298.2257	1318.79	1352.1665	1413.2728	1431.9719	1466.7669	1478.725	1481.611	1483.3223	1680.2262	2215.2997	3002.2607	3017.4886	3023.958	3061.0977	3062.9721	3085.4605	3091.0074	3124.1189	3503.4188	3790.3003
CC1=C(CC(O)C1)C#C	CC1=C(C[C@@H](O)C1)C#C	
InChI=1S/C8H10O/c1-3-7-5-8(9)4-6(7)2/h1,8-9H,4-5H2,2H3	InChI=1S/C8H10O/c1-3-7-5-8(9)4-6(7)2/h1,8-9H,4-5H2,2H3/t8-/m0/s1
