19
gdb 68229	3.17743	1.66059	1.42067	3.1278	73.53	-0.2437	0.0766	0.3203	975.484	0.160225	-423.002429	-422.995173	-422.994228	-423.033587	29.929	
C	-0.007208781	 1.5471760916	 0.0555184527	-0.469741
C	 0.0034227306	 0.0403979368	-0.0525014945	 0.402223
C	 0.7532156787	-0.6380928524	-1.2333706173	-0.294439
C	 1.1902019141	-1.6093549594	-0.116539182	 0.041798
O	 0.9582747458	-0.581572836	 0.8692127551	-0.305682
C	 0.1141157372	-2.687212591	 0.0218419905	 0.043732
O	-0.5525319173	-2.7553836983	 1.2752448993	-0.238546
C	-1.2410370384	-2.1389240599	 0.1785950121	 0.035876
C	-1.3671192039	-0.6184016745	 0.1942546018	-0.271276
H	 1.0019973043	 1.947112722	-0.0741815275	 0.123533
H	-0.6585289894	 1.9841665618	-0.709018115	 0.117985
H	-0.3770987027	 1.8592334874	 1.0378324091	 0.129014
H	 0.1722368303	-1.0339016939	-2.0702021744	 0.097243
H	 1.5749151502	-0.0174293842	-1.5947398495	 0.107864
H	 2.2122486011	-1.9947388013	-0.0867821724	 0.078815
H	 0.2850028474	-3.6375879977	-0.4830640367	 0.089806
H	-2.1044671675	-2.7031349576	-0.1703646941	 0.092892
H	-1.769131641	-0.2833621662	 1.1573488913	 0.11916
H	-2.0754107284	-0.3089448773	-0.5840759186	 0.099742
176.2559	203.9707	279.6899	298.0441	374.5564	396.3035	434.2384	472.4117	583.475	654.173	705.1779	791.6529	817.6091	835.4929	883.7817	908.6769	923.175	946.0502	966.1634	995.0309	1008.6608	1018.7167	1060.7585	1087.6189	1128.7466	1150.0958	1210.8584	1234.5341	1239.2143	1249.8692	1269.5503	1302.1658	1340.3872	1356.8473	1363.4817	1409.1594	1450.7697	1462.4083	1480.0307	1488.0237	1495.2502	3030.0198	3036.458	3064.3799	3075.4542	3080.8463	3105.0383	3112.0151	3118.0584	3124.4796	3130.8586
CC12CC(O1)C1OC1C2	C[C@@]12C[C@@H](O1)[C@H]1O[C@H]1C2	
InChI=1S/C7H10O2/c1-7-2-4-6(8-4)5(3-7)9-7/h4-6H,2-3H2,1H3	InChI=1S/C7H10O2/c1-7-2-4-6(8-4)5(3-7)9-7/h4-6H,2-3H2,1H3/t4-,5+,6-,7+/m0/s1
