15
gdb 129982	5.86939	0.95493	0.82215	3.3989	72.45	-0.2019	0.0207	0.2225	1324.0413	0.115627	-446.332561	-446.324217	-446.323273	-446.365883	30.455	
N	-0.1468090927	 1.4095911358	 0.1855061174	-0.600996
C	-0.0603034036	 0.0354434755	 0.0856372519	 0.42769
N	-1.0807650071	-0.802135235	 0.1002804047	-0.399086
C	-0.4568572282	-2.0242854922	 0.0599976583	 0.4654
N	-1.2604435715	-3.1502903837	 0.0646246895	-0.37899
C	-0.9162116843	-4.4831364106	 0.0281216996	 0.070033
N	 0.277543434	-4.9165886766	-0.0219995108	-0.418187
N	 0.8593489406	-2.0071370475	 0.011462468	-0.280769
N	 1.0993916745	-0.647139574	 0.0265108604	-0.248321
H	 0.5232493477	 1.9228344868	-0.3701458628	 0.256288
H	-1.090552124	 1.7324122378	 0.0229492314	 0.268769
H	-2.2412878154	-2.9282398185	 0.1039194912	 0.260519
H	-1.8199527853	-5.1060212907	 0.0484231944	 0.083939
H	 0.2693921039	-5.934472808	-0.0402616393	 0.219316
H	 2.0468575715	-0.3152829792	 0.0745855662	 0.274396
47.8228	156.6546	170.0651	254.809	266.861	292.8399	354.2659	428.3028	461.6386	504.7591	585.7343	646.9124	732.588	760.8365	778.1636	805.2084	843.9575	996.2907	1046.4142	1068.3688	1105.9001	1120.1785	1166.9416	1252.9418	1308.6536	1370.16	1424.2146	1490.8073	1572.755	1614.4813	1621.4629	1666.6849	1737.7824	3029.9859	3503.415	3561.052	3659.9647	3661.3218	3683.
NC1=NC(NC=N)=NN1	Nc1nc(NC=N)n[nH]1	
InChI=1S/C3H6N6/c4-1-6-3-7-2(5)8-9-3/h1H,(H5,4,5,6,7,8,9)	InChI=1S/C3H6N6/c4-1-6-3-7-2(5)8-9-3/h1H,(H5,4,5,6,7,8,9)
