13
gdb 132911	3.10322	1.42617	0.98302	4.5786	64.66	-0.2576	-0.0817	0.176	1085.8157	0.087445	-497.898207	-497.890513	-497.889569	-497.930996	27.802	
C	-0.0321683889	 1.5091239771	 0.0173626039	-0.48356
C	-0.0046548939	 0.0114024467	-0.0145462782	 0.238371
N	-0.0284411177	-0.6056499207	-1.161555442	-0.371465
C	-0.0043565082	-1.9836029578	-1.2298816966	 0.447836
O	-0.0223310134	-2.6442362547	-2.2222165346	-0.323271
O	 0.0478490547	-2.7059029852	 0.0080878801	-0.204798
C	 0.071609418	-2.0600621881	 1.1725780495	-0.004747
C	 0.0473672484	-0.7153670276	 1.2182843224	 0.13194
F	 0.0706925172	-0.0531759261	 2.3782998788	-0.065507
H	 0.8554234973	 1.8949613096	 0.5305093165	 0.155101
H	-0.0713645987	 1.8970890722	-0.999732815	 0.160633
H	-0.8999417277	 1.8615750938	 0.5854691735	 0.155092
H	 0.1108989828	-2.7054735893	 2.0429407616	 0.164374
69.0087	110.3246	203.2895	267.4495	349.8631	378.6135	390.2857	468.8336	543.107	596.2782	647.5157	692.5377	768.0941	787.9165	793.9172	927.4731	987.2727	1052.3471	1079.1633	1211.7222	1260.409	1321.5197	1397.519	1454.8605	1465.8279	1472.4422	1572.6673	1716.4462	1880.3165	3043.7537	3099.4344	3167.1548	3206.4565
CC1=NC(=O)OC=C1F	Cc1nc(=O)occ1F	
InChI=1S/C5H4FNO2/c1-3-4(6)2-9-5(8)7-3/h2H,1H3	InChI=1S/C5H4FNO2/c1-3-4(6)2-9-5(8)7-3/h2H,1H3
