19
gdb 36657	4.35263	0.80551	0.78003	4.3843	80.36	-0.2523	0.0361	0.2884	1494.1549	0.160026	-382.037045	-382.028563	-382.027618	-382.071238	31.452	
N	-0.2227646077	-1.1357597172	-0.0311715631	-0.305748
C	-0.0915465369	 0.0070064526	 0.0797557624	 0.253256
C	 0.0990622459	 1.4484069285	 0.2108854593	-0.3314
C	 1.4934272859	 1.9002853769	-0.2632734664	-0.144544
N	 1.5781840852	 3.344071763	-0.1249044575	-0.077531
C	 2.0636526004	 4.0015419309	 1.0743019276	-0.047498
C	 3.2429251223	 3.2656891713	 1.7397192787	-0.246564
C	 4.0205780689	 3.3376620494	 0.3877162628	-0.244987
C	 2.818973795	 4.077073998	-0.2344680521	-0.043737
H	-0.6695037362	 1.9729520977	-0.3655480032	 0.161868
H	-0.043246613	 1.7295228464	 1.2605228249	 0.154007
H	 2.258876124	 1.3402471703	 0.290852809	 0.11398
H	 1.6153192101	 1.6536156033	-1.3227745534	 0.127068
H	 1.4206562401	 4.7341442934	 1.5500707518	 0.096526
H	 3.7135566884	 3.8723691168	 2.5157733718	 0.113165
H	 3.0361118248	 2.2753354053	 2.1569387839	 0.104971
H	 4.904889668	 3.9741341443	 0.4557721565	 0.112541
H	 4.3092564426	 2.3939340655	-0.0839146379	 0.107066
H	 2.8736531819	 4.8787604933	-0.9632979753	 0.097561
53.5513	70.9769	108.9978	229.824	270.6262	303.3958	399.573	441.9296	498.8958	570.8287	737.652	780.2588	784.8079	795.6035	836.2964	910.1425	944.2268	948.17	970.2914	987.5019	1038.7792	1044.6964	1064.6688	1088.8606	1104.5106	1135.0413	1217.4088	1222.5573	1228.046	1251.6003	1278.9452	1287.2821	1297.0372	1316.3303	1380.1257	1402.578	1467.836	1476.5991	1496.0906	1510.8871	2363.014	3013.3424	3050.7719	3055.1757	3063.8008	3075.3189	3099.0493	3106.9419	3124.0294	3163.3121	3175.0182
N#CCCN1C2CCC12	N#CCCN1[C@H]2CC[C@@H]12	
InChI=1S/C7H10N2/c8-4-1-5-9-6-2-3-7(6)9/h6-7H,1-3,5H2	InChI=1S/C7H10N2/c8-4-1-5-9-6-2-3-7(6)9/h6-7H,1-3,5H2/t6-,7+,9?
