15
gdb 12153	3.57572	1.55258	1.20698	2.3874	69.61	-0.267	0.0085	0.2756	994.5171	0.117364	-362.628765	-362.620811	-362.619867	-362.661197	29.059	
C	-0.1956947317	 1.4190040062	-0.0524016225	-0.410331
C	 0.0430231841	-0.0770391756	 0.0890635248	-0.141789
C	 0.9138511806	-0.7984205793	-0.9855754922	-0.061162
O	 1.8597048515	-1.204231218	 0.0693515473	-0.261818
C	 1.1419284907	-0.5230397638	 1.032907434	 0.441324
N	 1.3766086914	-0.3430755435	 2.2497711868	-0.542647
C	 0.3387574494	-1.917154814	-1.6991956752	 0.322968
C	-0.1583078303	-2.8328134181	-2.2977545575	-0.431759
H	 0.7365391572	 1.9514595915	-0.2648462759	 0.127352
H	-0.9055490608	 1.6282667141	-0.8584156366	 0.126774
H	-0.6048986387	 1.819622308	 0.878890632	 0.147763
H	-0.8917865622	-0.611501803	 0.2747994518	 0.122805
H	 1.4169862782	-0.1089401593	-1.6712126803	 0.119869
H	 2.245757706	-0.7953872037	 2.5380653658	 0.230798
H	-0.5909236454	-3.6459138315	-2.8272062223	 0.209852
77.0109	141.1329	202.0862	214.1937	224.2447	329.9871	415.9441	488.8495	551.5322	629.3954	651.0109	681.9978	725.4594	824.0911	865.1457	870.8204	918.611	1016.1573	1051.6891	1076.1115	1102.4474	1128.3717	1205.0989	1242.0361	1287.5685	1348.045	1373.3151	1410.4562	1493.8584	1496.1513	1830.2388	2241.3189	3041.3533	3057.7466	3086.661	3114.3649	3123.0226	3478.4846	3500.9986
CC1C(OC1=N)C#C	C[C@H]1[C@@H](O[C]1[NH])C#C	
InChI=1S/C6H7NO/c1-3-5-4(2)6(7)8-5/h1,4-5,7H,2H3	InChI=1S/C6H7NO/c1-3-5-4(2)6(7)8-5/h1,4-5,7H,2H3/t4-,5-/m0/s1
