19
gdb 59081	2.17232	1.47993	1.11299	4.715	77.18	-0.2405	0.0272	0.2677	1167.3901	0.158041	-419.186605	-419.177043	-419.176099	-419.220831	35.115	
C	 0.1275212411	 1.2554972862	-0.6207080421	-0.329776
N	-0.0332219572	-0.0472638919	 0.026935034	-0.079558
C	 0.5844302573	-0.0792507132	 1.3511344737	-0.32723
C	-1.4056194807	-0.4537529967	 0.0241876238	-0.043884
C	-1.8497714525	-1.1814695698	-1.2102561976	 0.119707
O	-0.9461802327	-1.3971113438	-2.2297696461	-0.411184
C	-1.7262449491	-1.9552789912	 0.1121346146	-0.28225
C	-0.6762920821	-2.9170319815	 0.2577813411	 0.308085
N	 0.1657937725	-3.7026471787	 0.3746653462	-0.350037
H	 1.1922191125	 1.4952004303	-0.6930352828	 0.128534
H	-0.2897209409	 1.2188216481	-1.6299645136	 0.139211
H	-0.3699221339	 2.0698917727	-0.0647094104	 0.104192
H	 0.1217461867	 0.6402734984	 2.0490102408	 0.099039
H	 0.5069192535	-1.0819827284	 1.7748862572	 0.148844
H	 1.6453641567	 0.1698966295	 1.258953366	 0.128445
H	-2.1260001585	 0.1946582367	 0.5339115484	 0.08793
H	-2.854987637	-1.0343679675	-1.588938946	 0.124983
H	-0.0651664638	-1.2622107305	-1.84686372	 0.29929
H	-2.6482928022	-2.2159778086	 0.6209462728	 0.13566
83.2806	112.3757	140.7755	174.1625	229.282	244.6747	274.7859	343.4662	367.8174	393.9923	434.5166	498.8768	626.3822	654.8545	678.9557	742.6522	784.2747	852.2571	954.5597	1009.3461	1042.9255	1061.7766	1090.7052	1116.215	1124.5037	1139.6587	1190.6568	1219.2956	1241.0662	1311.9551	1337.2962	1355.5027	1376.1042	1444.0128	1464.8698	1477.4272	1484.4786	1495.8448	1501.2603	1513.6598	2348.6908	2952.4963	2959.5644	3038.8134	3077.3445	3083.5811	3125.5286	3137.461	3168.1769	3183.082	3706.6861
CN(C)C1C(O)C1C#N	CN(C)[C@H]1[C@@H](O)[C@H]1C#N	
InChI=1S/C6H10N2O/c1-8(2)5-4(3-7)6(5)9/h4-6,9H,1-2H3	InChI=1S/C6H10N2O/c1-8(2)5-4(3-7)6(5)9/h4-6,9H,1-2H3/t4-,5+,6-/m0/s1
