18
gdb 11595	5.70865	0.95676	0.87263	2.0709	69.35	-0.2631	0.0204	0.2835	1340.8263	0.152176	-384.967422	-384.958446	-384.957502	-385.002728	30.956	
C	 0.2382621376	 1.3698863771	-0.1555191652	-0.477047
C	 0.0236230199	-0.1082697448	 0.0702503489	 0.429588
O	-0.09700601	-0.6438977645	 1.1435825683	-0.352343
O	-0.0166679933	-0.7689405964	-1.1046546338	-0.241871
C	-0.23126973	-2.1942073046	-1.014212186	-0.076597
C	-0.2345403653	-2.7553390485	-2.4050167457	 0.003512
C	 1.0679400509	-3.085393378	-3.0878601431	-0.250092
C	 0.1658869988	-4.195301322	-2.6127357508	-0.271816
H	 0.2892188725	 1.8800299602	 0.8055463478	 0.146632
H	 1.1620013993	 1.5346967034	-0.7171505093	 0.148284
H	-0.5814902225	 1.7801992115	-0.7522312696	 0.148298
H	 0.5642013621	-2.6374544616	-0.4053647136	 0.115019
H	-1.1786315895	-2.3738109053	-0.4951626948	 0.120785
H	-1.0318566554	-2.3774045893	-3.0382276961	 0.092021
H	 1.1468085643	-2.9040225852	-4.1536389203	 0.115642
H	 1.9853736606	-2.9056182351	-2.5372879573	 0.116021
H	 0.4771022479	-4.7668771447	-1.7444820535	 0.117127
H	-0.3788395179	-4.7736007121	-3.3501423559	 0.116837
38.4812	56.6052	70.2347	133.2399	182.7752	272.5805	316.0485	398.2556	478.1119	608.3643	636.1697	775.0755	814.6214	836.5295	895.6726	930.3797	963.5411	984.3677	1042.0068	1052.3954	1064.012	1066.0422	1082.1011	1136.2014	1196.2699	1200.4301	1227.3882	1268.8054	1277.765	1367.7242	1393.8836	1440.1632	1469.9457	1470.8625	1476.2588	1500.5127	1512.3255	1821.7509	3042.3554	3057.0606	3084.567	3121.7252	3133.6937	3138.2871	3153.6124	3168.7849	3212.3574	3227.2315
CC(=O)OCC1CC1	CC(=O)OCC1CC1	
InChI=1S/C6H10O2/c1-5(7)8-4-6-2-3-6/h6H,2-4H2,1H3	InChI=1S/C6H10O2/c1-5(7)8-4-6-2-3-6/h6H,2-4H2,1H3
