20
gdb 51178	3.74961	1.01737	0.91028	2.6752	79.01	-0.2389	-0.0224	0.2165	1320.8285	0.171328	-403.145482	-403.136992	-403.136047	-403.179422	31.983	
O	-0.4982508323	 0.4319590489	 0.522816309	-0.239761
C	 0.271513581	 0.8194196661	-0.3177050979	 0.163291
C	 1.3048094784	 1.9082791452	-0.1147384622	-0.363417
C	 1.1994146126	 2.9964072468	-1.1653689627	 0.326653
C	 1.8430849408	 2.8391301588	-2.5009369041	-0.296317
N	 2.4287968528	 3.7451436347	-1.5016232616	-0.133748
C	 2.0410754396	 5.15660545	-1.6855578572	-0.149862
C	 0.5026250868	 5.2167891594	-1.8431112776	-0.243709
C	 0.0176548574	 3.9610427141	-1.090152155	-0.270123
H	 0.2702404369	 0.3787768406	-1.342278805	 0.07417
H	 1.193926448	 2.3132231671	 0.8961060267	 0.118025
H	 2.2976759516	 1.4462086264	-0.1934424076	 0.130351
H	 2.4424627772	 1.9578044512	-2.7132580843	 0.113549
H	 1.3484533655	 3.2603273183	-3.3728869569	 0.111783
H	 2.3598784282	 5.6961352105	-0.7871126042	 0.110514
H	 2.5770681605	 5.5869375036	-2.5370772651	 0.108321
H	 0.0809902432	 6.1392277319	-1.4372017284	 0.107142
H	 0.2125777301	 5.1738603636	-2.8968463203	 0.109828
H	-0.9026927684	 3.5434081982	-1.5102268301	 0.111468
H	-0.1849324599	 4.1886468947	-0.0370059255	 0.111842
51.6832	71.7266	150.9644	227.4077	267.6735	320.4947	382.3837	447.894	483.3526	609.4803	642.9357	699.8066	791.3418	814.5113	845.8976	891.7773	906.0331	927.0073	949.886	981.8882	1020.2877	1037.179	1069.3895	1089.8985	1114.7253	1169.0324	1180.9483	1194.2621	1209.3683	1255.6844	1274.3737	1301.1526	1320.1269	1342.7189	1350.2331	1388.1795	1429.2514	1457.3497	1489.6355	1493.2816	1500.4867	1524.4549	1834.6405	2858.576	3029.1462	3039.2157	3043.7092	3060.1077	3082.8827	3087.2998	3093.2387	3103.7039	3111.0945	3184.7267
O=CCC12CN1CCC2	O=CC[C@]12CN1CCC2	
InChI=1S/C7H11NO/c9-5-3-7-2-1-4-8(7)6-7/h5H,1-4,6H2	InChI=1S/C7H11NO/c9-5-3-7-2-1-4-8(7)6-7/h5H,1-4,6H2/t7-,8?/m1/s1
