18
gdb 99529	2.58032	1.05566	0.89008	4.1569	76.16	-0.245	-0.0037	0.2413	1387.9382	0.145457	-435.265376	-435.254888	-435.253944	-435.30139	36.34	
C	-0.1204768309	 1.3767210041	 0.1057189035	-0.24928
O	 0.2956994188	 0.0307982137	-0.0736006997	-0.246582
C	 0.8106835663	-0.5801128497	 1.0900073314	-0.067957
C	-0.2379980574	-0.7135076433	 2.1297844267	 0.279923
N	-1.070002409	-0.7880130562	 2.928095088	-0.32822
C	 1.3664513866	-1.9521468943	 0.712074771	 0.339263
N	 0.5757145217	-2.6420184352	-0.1732844917	-0.544321
N	 2.4359532912	-2.3273550162	 1.2902757159	-0.273691
C	 2.9385389627	-3.6538120669	 0.9765872303	-0.343288
H	 0.7138992249	 2.0050918455	 0.4466606018	 0.122395
H	-0.461497708	 1.729523215	-0.86896431	 0.140201
H	-0.9429324154	 1.4511412635	 0.8282750364	 0.142096
H	 1.6433973498	-0.0088515867	 1.5189012103	 0.139998
H	-0.0404844733	-2.0816648187	-0.7424750558	 0.270445
H	 0.9731387231	-3.447938689	-0.6279094069	 0.26033
H	 2.2273796219	-4.4442836355	 1.2601006417	 0.122245
H	 3.1596904275	-3.7772365363	-0.0966506724	 0.106451
H	 3.8680813895	-3.828388584	 1.5229494094	 0.129992
48.0529	98.1047	116.8654	139.0082	168.5064	176.8921	239.6517	284.0312	298.8742	365.4751	394.5291	430.9241	472.4189	511.7816	610.8797	671.529	722.5969	903.069	935.2944	992.9503	1026.3393	1106.3328	1115.5252	1133.8861	1184.5359	1190.2358	1226.1709	1300.0885	1337.6871	1368.4873	1434.7731	1480.02	1487.4031	1490.9477	1507.105	1507.7907	1633.0173	1756.7267	2353.1448	2964.2642	3003.4008	3017.9901	3042.48	3067.1311	3107.333	3136.8197	3586.216	3701.149
COC(C#N)C(N)=NC	CO[C@@H](C#N)C(=NC)N	
InChI=1S/C5H9N3O/c1-8-5(7)4(3-6)9-2/h4H,1-2H3,(H2,7,8)	InChI=1S/C5H9N3O/c1-8-5(7)4(3-6)9-2/h4H,1-2H3,(H2,7,8)/t4-/m0/s1
