19
gdb 90787	4.06319	1.36289	1.2566	1.9909	74.63	-0.2121	0.0785	0.2906	1072.1804	0.158793	-422.991049	-422.983147	-422.982203	-423.02303	31.227	
C	-0.1302303547	 1.5179702215	 0.0156681429	-0.409331
C	 0.0246344209	 0.0019662463	 0.0377498405	 0.127868
O	 0.7498525082	-0.4548981865	-1.1247794949	-0.278368
C	 2.0325064113	-0.8455095652	-0.6996241858	 0.030979
C	 2.323751329	-0.4317399818	 0.7159497408	-0.26576
C	 0.8604438076	-0.538801272	 1.1964739031	 0.05111
O	 0.878577595	-1.9932291439	 1.0583960869	-0.332365
C	 2.1433003924	-1.9028759003	 0.3896907912	 0.437856
C	 3.0394960156	-3.0938088667	 0.4184278767	-0.503378
H	 0.8452160371	 2.0114556041	 0.0764555256	 0.1212
H	-0.6102307221	 1.8293285329	-0.9157838693	 0.131249
H	-0.7477624734	 1.8604430007	 0.8530499013	 0.113531
H	-0.9527358233	-0.4927391236	 0.026496511	 0.095127
H	 2.7857867089	-0.7930425221	-1.4771184147	 0.104446
H	 3.136150167	 0.1675975615	 1.1039830287	 0.097552
H	 0.5791236782	-0.2176360629	 2.1998019217	 0.08582
H	 2.556038727	-3.9447124788	-0.0738997622	 0.137898
H	 3.9744192647	-2.8817351875	-0.1088458745	 0.124633
H	 3.2778276905	-3.3824474057	 1.447230841	 0.129932
131.4184	194.0965	203.9558	222.4188	284.4153	292.594	401.2996	458.2984	581.8658	630.9602	714.5068	748.7443	773.6081	834.1147	842.9347	883.61	894.5246	904.4375	948.4888	984.4908	1016.8281	1033.7651	1068.2413	1091.2863	1110.0509	1112.702	1128.2947	1174.9427	1227.1053	1260.8901	1272.0096	1292.8943	1336.0616	1366.7351	1402.3956	1406.3573	1453.9774	1472.2903	1486.3567	1495.6306	1498.9001	3033.215	3035.6256	3054.5254	3099.4606	3106.1497	3113.0582	3114.5571	3120.8854	3186.2122	3199.8659
CC1OC2C3C1OC23C	C[C@H]1O[C@H]2[C@H]3[C@@H]1O[C@@]23C	
InChI=1S/C7H10O2/c1-3-5-4-6(8-3)7(4,2)9-5/h3-6H,1-2H3	InChI=1S/C7H10O2/c1-3-5-4-6(8-3)7(4,2)9-5/h3-6H,1-2H3/t3-,4-,5-,6+,7-/m1/s1
