23
gdb 122064	3.11407	0.6945	0.59381	0.7018	89.2	-0.2491	0.0512	0.3003	1949.7945	0.20235	-388.253503	-388.242042	-388.241098	-388.290925	40.317	
C	-1.5156920089	-0.2700130607	 0.0122088335	-0.391515
C	 0.0031735323	-0.0946639488	 0.0449164274	-0.174147
C	 0.7227377904	-0.6258651682	-1.2184202943	-0.15307
C	 2.2286828293	-0.2851067903	-1.1812969106	-0.20612
C	 2.971995854	-0.6586516578	-2.4568262539	-0.062532
O	 4.3164824357	-0.251246563	-2.3172448169	-0.231065
C	 5.1050730215	-0.5784757443	-3.4345029269	-0.226674
C	 0.5025692679	-2.0631902174	-1.3871895432	 0.357904
C	 0.3291762357	-3.2482188842	-1.5005319351	-0.498319
H	-1.9577001582	 0.2631670249	-0.8370717234	 0.112289
H	-1.7879594282	-1.3255096382	-0.077714094	 0.132197
H	-1.9730380671	 0.1222073612	 0.9255495358	 0.113163
H	 0.2528207864	 0.968149396	 0.1476190984	 0.096758
H	 0.4201868992	-0.601860213	 0.9229605575	 0.106656
H	 0.2824208532	-0.1147892864	-2.0882230744	 0.101185
H	 2.3399210828	 0.7921574311	-1.0152772045	 0.105169
H	 2.7002563694	-0.7929887718	-0.3329485162	 0.113734
H	 2.911834224	-1.7442724241	-2.6335689723	 0.100545
H	 2.5097237868	-0.1629464964	-3.3296848446	 0.079249
H	 5.130859083	-1.6652831224	-3.6142138672	 0.103182
H	 4.7387793326	-0.0908496484	-4.3525620021	 0.100892
H	 6.1212495431	-0.2302547941	-3.2329715795	 0.124818
H	 0.173048835	-4.2925931936	-1.6124311336	 0.195702
56.8082	75.466	92.2915	115.8623	130.1504	164.2203	216.1295	239.9514	251.9729	263.552	308.9111	392.1376	473.6614	538.1579	593.225	625.6021	634.1683	758.6818	794.6424	860.2231	932.8598	986.3086	1022.8694	1025.799	1063.8955	1107.5006	1134.6548	1140.4667	1166.3993	1182.5714	1228.1476	1234.5888	1272.1382	1293.726	1309.9531	1342.2913	1366.0253	1372.9411	1412.145	1429.18	1481.6193	1482.3653	1485.6689	1492.5772	1497.0828	1505.6504	1507.9718	1533.471	2227.8582	2940.6985	2966.5478	2989.836	2995.0427	3008.2689	3028.7331	3034.9586	3043.0193	3066.7378	3090.2247	3101.7351	3110.8258	3116.6938	3503.3187
CCC(CCOC)C#C	CC[C@@H](CCOC)C#C	
InChI=1S/C8H14O/c1-4-8(5-2)6-7-9-3/h1,8H,5-7H2,2-3H3	InChI=1S/C8H14O/c1-4-8(5-2)6-7-9-3/h1,8H,5-7H2,2-3H3/t8-/m0/s1
