16
gdb 42899	2.80912	1.5624	1.2294	4.193	69.05	-0.244	-0.0297	0.2143	1016.4282	0.12432	-437.819271	-437.811701	-437.810757	-437.851853	28.099	
O	-0.147335533	 0.0306569487	-0.2242511421	-0.310516
C	-0.1271369169	 1.2110914614	-0.0337597274	 0.39536
C	-1.1682041491	 2.3082717014	-0.0325618325	-0.187441
N	-0.8402336084	 3.1607633932	 1.1640663227	-0.333853
C	-0.0553432281	 3.3263472102	-0.0632652052	-0.160409
C	 1.0288787185	 2.248937981	 0.0133971387	 0.197446
C	 2.1651289952	 2.2640550235	 1.0476044017	-0.123234
O	 3.1702961212	 2.2160671745	 0.0114586807	-0.273202
C	 2.1698316446	 2.1270025168	-1.0186686548	-0.144887
H	-2.1595562416	 2.3222892165	-0.4664439743	 0.120686
H	-1.5546650886	 3.8895066822	 1.18538379	 0.244109
H	-0.0225589953	 4.2562455446	-0.6165075931	 0.117298
H	 2.2281223818	 3.1742923472	 1.6546275012	 0.112945
H	 2.2082978176	 1.3847600821	 1.7010348558	 0.118895
H	 2.2002498271	 1.1649059115	-1.5445410111	 0.122165
H	 2.2419251248	 2.9459052752	-1.7458599702	 0.10464
81.5319	110.5829	176.5783	232.838	256.2059	384.7541	517.1152	594.4488	629.907	750.3805	810.9773	826.3116	839.8605	856.8891	899.5727	962.3712	972.6439	980.9361	1040.9015	1047.9331	1060.4085	1098.3566	1124.8682	1142.0887	1159.6022	1191.5346	1222.9803	1272.0779	1305.446	1326.19	1358.7509	1376.5226	1501.1979	1525.8016	1891.1002	3008.3035	3025.5995	3058.7291	3072.1148	3199.3764	3211.1887	3464.9853
O=C1C2NC2C11COC1	O=C1[C@H]2N[C@H]2C21COC2	
InChI=1S/C6H7NO2/c8-5-3-4(7-3)6(5)1-9-2-6/h3-4,7H,1-2H2	InChI=1S/C6H7NO2/c8-5-3-4(7-3)6(5)1-9-2-6/h3-4,7H,1-2H2/t3-,4+/m0/s1
