19
gdb 105405	2.4881	1.04707	0.93432	3.0827	72.09	-0.2389	-0.0278	0.2111	1324.7227	0.156666	-460.1427	-460.132976	-460.132032	-460.177912	35.463	
O	 0.7426488303	 0.1999172115	-1.0072572933	-0.416447
C	-0.1415037143	 0.58779729	 0.0451444437	-0.156291
C	-1.4498257941	-0.1977351911	 0.087290617	 0.224987
C	-2.402028833	 0.300472078	 1.1659314655	-0.352811
C	-1.8467502672	 0.1149187387	 2.5661788316	 0.160923
O	-1.7942199436	 0.9780732865	 3.4037072297	-0.239787
C	-2.0447615439	-0.7121438241	-1.2183265096	-0.394164
C	-1.4230595177	-1.6767304767	-0.2356812988	 0.128332
O	-0.2440695987	-2.3610800243	-0.5062358897	-0.435702
H	 0.420570505	 0.5826318188	-1.8292557196	 0.296699
H	 0.4219481993	 0.4214966133	 0.9703985018	 0.133381
H	-0.3563085438	 1.6645450696	-0.0115584449	 0.113498
H	-2.6608684986	 1.3569513765	 1.0313769398	 0.117666
H	-3.3344901458	-0.2782775399	 1.1125430354	 0.123168
H	-1.4786317619	-0.9154940889	 2.7774871159	 0.086521
H	-3.1226084186	-0.6882037254	-1.3428987801	 0.114581
H	-1.4903243849	-0.5361549987	-2.1349066479	 0.098809
H	-2.1031338888	-2.3181029671	 0.3179436464	 0.101792
H	 0.3874005702	-1.7169850167	-0.8601456629	 0.294845
54.1953	72.3069	116.1322	169.4063	234.1922	247.2348	297.3783	340.146	355.8638	439.018	469.5766	483.9838	585.1304	606.796	707.9949	788.5512	814.8625	897.1548	906.6217	985.015	1010.3169	1029.2469	1043.0454	1065.5901	1080.384	1113.32	1161.6689	1193.8441	1225.4614	1238.6815	1297.8969	1347.3181	1352.3724	1393.1372	1423.8826	1427.2243	1455.8187	1461.9191	1492.3067	1504.551	1832.9004	2871.1258	3002.7139	3017.0059	3066.1415	3074.7018	3122.2395	3149.7371	3207.3648	3706.318	3828.7772
OCC1(CC=O)CC1O	OC[C@@]1(CC=O)C[C@H]1O	
InChI=1S/C6H10O3/c7-2-1-6(4-8)3-5(6)9/h2,5,8-9H,1,3-4H2	InChI=1S/C6H10O3/c7-2-1-6(4-8)3-5(6)9/h2,5,8-9H,1,3-4H2/t5-,6-/m1/s1
