16
gdb 43306	3.04275	1.76803	1.42074	2.0159	73.59	-0.2302	-0.0587	0.1715	918.2765	0.126493	-400.724176	-400.717616	-400.716672	-400.755078	26.437	
O	-0.0367636828	-0.0355206176	-0.0287806644	-0.330239
C	-0.0499218268	 1.1719601453	 0.0166357006	 0.377651
C	-1.2518657635	 2.0496583002	 0.1313786251	-0.178206
C	-0.9113371714	 3.3485166012	 0.1237323343	-0.068091
C	 0.5735907258	 3.5390393438	 0.0402149032	-0.021935
C	 1.1524030442	 2.1183810125	-0.0450674394	-0.170273
C	 1.7068511248	 2.5224288003	-1.425840652	-0.018399
C	 0.6767907356	 3.0300447906	-2.3456600343	-0.252215
N	 1.1947732601	 3.9487091384	-1.3097769795	-0.154634
H	-2.2537871445	 1.6413080663	 0.1898026082	 0.123023
H	-1.6078295279	 4.1800024349	 0.1560587609	 0.12299
H	 0.9744366436	 4.2045825177	 0.8061633613	 0.101595
H	 1.92596995	 1.8508149255	 0.6739196327	 0.106866
H	 2.7223976208	 2.3132308942	-1.7431445059	 0.106961
H	 1.0065651379	 3.321165808	-3.3379301642	 0.12966
H	-0.3459768459	 2.6696935089	-2.2991110966	 0.125246
114.645	226.4001	266.4993	368.0361	485.8851	498.7583	588.6636	696.2742	708.4125	735.0727	764.127	805.2466	837.4849	856.4546	927.8357	950.8699	984.799	1005.4329	1017.5672	1035.8321	1058.6945	1103.519	1120.7764	1138.4761	1171.4955	1205.3794	1216.7292	1255.3081	1262.7018	1313.325	1359.7735	1364.0295	1499.972	1626.4839	1814.8744	3097.4503	3124.3448	3126.7735	3173.7276	3186.3337	3210.9622	3218.4477
O=C1C=CC2C1C1CN21	O=C1C=C[C@H]2[C@@H]1[C@H]1CN21	
InChI=1S/C7H7NO/c9-6-2-1-4-7(6)5-3-8(4)5/h1-2,4-5,7H,3H2	InChI=1S/C7H7NO/c9-6-2-1-4-7(6)5-3-8(4)5/h1-2,4-5,7H,3H2/t4-,5+,7+,8?/m0/s1
