20
gdb 91234	3.24181	1.24549	1.06998	2.4675	78.67	-0.2266	-0.0246	0.202	1191.6856	0.17173	-403.157234	-403.149053	-403.148109	-403.190116	31.726	
C	-0.3910037258	 1.398904492	-0.0801878193	-0.41018
C	 0.1631670296	-0.0225642688	-0.1369754954	 0.021478
C	 1.2736626029	-0.2390830809	-1.186512463	-0.240196
C	 2.0540637017	-1.4602760779	-0.6600866611	-0.116902
N	 1.7350564105	-1.6134483674	 0.8060714736	-0.097252
C	 1.0540291321	-2.9231865436	 0.5864298847	-0.305509
C	 1.424369947	-2.8405809581	-0.9013689508	 0.397199
O	 1.2657933761	-3.5396389395	-1.8574049372	-0.291454
C	 0.8529263521	-0.4954495875	 1.1647206363	-0.18059
H	 0.4037730888	 2.1196543389	 0.1449542662	 0.116459
H	-0.8445705403	 1.6899984052	-1.0330539814	 0.119417
H	-1.1586090468	 1.4962268723	 0.6948241166	 0.116948
H	-0.6628238918	-0.7115136422	-0.360591525	 0.079939
H	 0.8893231294	-0.4028262179	-2.1969298887	 0.121634
H	 1.9356556097	 0.6339572816	-1.2217352415	 0.106037
H	 3.123757885	-1.4113086095	-0.8881960898	 0.102998
H	 1.5047256196	-3.7540764905	 1.1404650381	 0.132488
H	-0.030043958	-2.9311222899	 0.7684863923	 0.121718
H	 1.4618679825	 0.3212051321	 1.576137722	 0.100235
H	 0.1486062559	-0.7996048686	 1.9449570635	 0.105534
69.5085	141.631	189.2892	227.3058	283.5325	353.0393	406.8268	442.111	528.8424	566.2318	606.4416	707.3281	747.7361	842.3417	851.4688	869.2455	916.4906	946.1012	983.8021	985.8863	1024.0175	1059.4593	1085.0236	1097.4553	1132.5033	1142.367	1178.4787	1202.9781	1234.8117	1257.4032	1273.0641	1290.1635	1308.944	1328.9771	1348.1571	1390.794	1413.2492	1464.2942	1483.7116	1495.9973	1497.464	1503.9338	1904.5908	3003.0864	3011.0387	3016.2738	3027.3165	3038.9675	3057.8263	3065.7334	3083.072	3093.2677	3099.9031	3101.1064
CC1CC2N(CC2=O)C1	C[C@H]1C[C@H]2N(CC2=O)C1	
InChI=1S/C7H11NO/c1-5-2-6-7(9)4-8(6)3-5/h5-6H,2-4H2,1H3	InChI=1S/C7H11NO/c1-5-2-6-7(9)4-8(6)3-5/h5-6H,2-4H2,1H3/t5-,6+/m0/s1
