18
gdb 96971	4.18658	1.10856	1.06892	2.8456	75.46	-0.2387	0.0316	0.2703	1191.0152	0.148035	-439.063711	-439.055482	-439.054538	-439.096936	31.06	
C	-0.0908271409	 1.3678579867	-0.0031878322	-0.338055
N	-0.0374933149	-0.0846068029	-0.0863481179	-0.369062
C	-1.1029267603	-0.7433223742	-0.0254732645	 0.482371
O	-2.3977832562	-0.2432373058	 0.1128507551	-0.275175
C	-3.1810818557	-1.4646678397	 0.1342813693	 0.043199
C	-2.3749454113	-2.3855032783	 1.0744121798	-0.246113
C	-1.3243870213	-2.2310029477	-0.0847336472	-0.173349
C	-2.5511727478	-2.2457919623	-1.0619029914	 0.131084
O	-3.0186191229	-3.5495275794	-1.2827049647	-0.435371
H	 0.5988093178	 1.7034361354	 0.7789916753	 0.124309
H	 0.2695295167	 1.7945170776	-0.9465109019	 0.124798
H	-1.087452069	 1.7727920013	 0.2056026171	 0.123957
H	-4.2378270584	-1.2245606219	 0.2393918057	 0.087148
H	-2.1152405576	-1.9903475241	 2.0579931084	 0.112521
H	-2.7783801152	-3.3942570779	 1.1329489044	 0.129448
H	-0.4538521288	-2.8664823176	-0.2151108823	 0.101552
H	-2.4453938593	-1.6732801947	-1.992164383	 0.085348
H	-3.8384487348	-3.4950464947	-1.7843504899	 0.291391
51.4234	108.8119	209.1615	271.6861	292.5842	306.5318	328.1726	444.4867	474.3822	572.246	653.3627	720.6656	796.4068	852.431	864.8317	907.4087	929.6708	962.4885	1009.9702	1026.8551	1051.0724	1083.6933	1117.5253	1120.9286	1133.7701	1146.2167	1179.7646	1198.8668	1233.6477	1254.2123	1258.6048	1315.4293	1318.4483	1422.7139	1438.8572	1486.9517	1494.0488	1497.0025	1835.3193	3017.5904	3029.6667	3078.1824	3089.5039	3090.637	3138.7008	3172.5135	3176.9002	3815.7184
CN=C1OC2CC1C2O	CN=C1O[C@@H]2C[C@H]1[C@H]2O	
InChI=1S/C6H9NO2/c1-7-6-3-2-4(9-6)5(3)8/h3-5,8H,2H2,1H3	InChI=1S/C6H9NO2/c1-7-6-3-2-4(9-6)5(3)8/h3-5,8H,2H2,1H3/t3-,4+,5+/m0/s1
