20
gdb 113328	2.34561	1.13733	0.92412	4.2048	81.29	-0.2508	0.0202	0.271	1363.7828	0.170273	-399.304591	-399.294525	-399.293581	-399.339741	36.443	
C	 0.4240569851	 1.6841679412	 0.0106452905	-0.378116
C	-0.1474960638	 0.2733492214	-0.1093362914	-0.129918
N	 0.5438556106	-0.4447705314	-1.1798854356	-0.0942
C	 1.7259911065	-1.2162019819	-0.8514850017	-0.281092
C	 0.4621627319	-1.9113857962	-1.2721548377	 0.119963
C	-0.3111415696	-2.7854659846	-0.2747233167	-0.229875
N	-1.73859805	-2.9355870534	-0.5223722261	-0.501888
C	 0.3537996528	-2.3965888994	-2.6371762463	 0.274115
N	 0.2433185167	-2.83272187	-3.7024941767	-0.345306
H	 1.4826386258	 1.6540569566	 0.2881203673	 0.123215
H	 0.337800941	 2.214968626	-0.9409023974	 0.136616
H	-0.1113864142	 2.2492934125	 0.77915522	 0.119276
H	-0.0764585057	-0.2357558675	 0.864608079	 0.093614
H	-1.2095968086	 0.3236686039	-0.3762359465	 0.111712
H	 2.5657577068	-1.1376381687	-1.5356347411	 0.137014
H	 1.9941414946	-1.3307006752	 0.1996481629	 0.118286
H	 0.1437194451	-3.7823720922	-0.2826797712	 0.129966
H	-0.1660292045	-2.3881420454	 0.7336748814	 0.11639
H	-2.1970096773	-2.029788578	-0.5364906544	 0.233072
H	-1.8945552834	-3.3547150679	-1.4347545281	 0.247157
81.2758	85.1309	124.3807	141.302	210.6644	217.7142	243.9673	290.218	353.3974	374.8873	417.1152	472.5268	574.7839	590.4174	714.8873	773.8194	818.7253	846.8914	880.2904	919.1363	950.7245	971.8589	1059.2544	1101.5119	1107.5035	1129.3036	1137.1191	1182.7801	1196.7494	1246.5826	1312.5813	1341.7962	1377.4228	1389.5037	1400.3403	1411.7413	1478.3989	1488.2277	1490.0459	1502.5119	1515.5855	1668.0152	2351.0913	2977.9473	3042.7071	3048.603	3055.4843	3082.5526	3096.8929	3112.6159	3127.3854	3184.37	3495.4247	3574.8288
CCN1CC1(CN)C#N	CCN1C[C@]1(CN)C#N	
InChI=1S/C6H11N3/c1-2-9-5-6(9,3-7)4-8/h2-3,5,7H2,1H3	InChI=1S/C6H11N3/c1-2-9-5-6(9,3-7)4-8/h2-3,5,7H2,1H3/t6-,9?/m0/s1
