16
gdb 102346	1.73962	1.58936	1.19464	3.8128	71.4	-0.2785	-0.0128	0.2658	1132.7616	0.120247	-437.828187	-437.818059	-437.817115	-437.863259	35.577	
C	-0.1270560683	 1.4019244745	 0.0796642624	-0.257438
O	 0.0215429077	-0.0112057302	 0.0370800976	-0.251163
C	 0.6561361862	-0.5283337801	-1.1163306092	-0.001778
C	-0.048038515	-0.1117219376	-2.4539108145	-0.098403
O	-1.4312452447	-0.3208927899	-2.4174302791	-0.412034
C	 2.0785710424	-0.161161753	-1.1975400945	 0.343016
C	 3.2238822562	 0.1873940694	-1.2924234035	-0.446395
C	 0.5179472704	-1.9994778142	-0.9973988879	 0.279303
N	 0.3638137974	-3.1437640038	-0.9819998238	-0.334917
H	 0.8246439696	 1.9145085089	-0.1083852775	 0.123336
H	-0.8852189046	 1.7484926055	-0.6316284504	 0.136727
H	-0.4598315958	 1.6321384381	 1.093224168	 0.142627
H	 0.1121663886	 0.95853057	-2.6026016839	 0.13243
H	 0.4538286062	-0.6444659946	-3.273148149	 0.12541
H	-1.6008572419	-1.2675591515	-2.3424102312	 0.303888
H	 4.2439137158	 0.4778019585	-1.3632056136	 0.215391
81.1757	104.8832	124.3137	133.6498	176.6378	190.8959	259.8833	287.1794	359.8192	364.4653	461.0458	489.707	521.6278	564.597	595.0969	662.4939	696.534	721.6703	887.2166	1021.6591	1044.7518	1108.3574	1117.0097	1135.4158	1176.5977	1219.3812	1268.033	1374.6911	1413.9646	1469.8546	1488.3599	1494.0451	1513.1494	2235.5915	2365.1957	3015.1519	3019.2144	3083.9941	3111.0494	3134.9321	3495.9714	3793.1715
COC(CO)(C#C)C#N	CO[C@@](CO)(C#C)C#N	
InChI=1S/C6H7NO2/c1-3-6(4-7,5-8)9-2/h1,8H,5H2,2H3	InChI=1S/C6H7NO2/c1-3-6(4-7,5-8)9-2/h1,8H,5H2,2H3/t6-/m0/s1
