20
gdb 122869	6.81952	0.50335	0.47429	1.1058	74.14	-0.2584	0.0383	0.2967	2237.6754	0.168483	-477.414398	-477.403262	-477.402318	-477.452513	37.383	
O	-0.2574747494	 1.4538322553	 0.0163794459	-0.420141
C	-0.0505358994	 0.0500257041	 0.0043447407	-0.07297
C	-1.4197452537	-0.6182420334	 0.0132997136	-0.188604
C	-1.3149800511	-2.1344627178	 0.0017434345	-0.054954
O	-2.6502376763	-2.6579005965	 0.0119391029	-0.252627
C	-2.7659849837	-3.9992171646	 0.001867659	 0.396912
N	-1.7716386085	-4.7800801396	-0.0153134959	-0.527973
C	-4.2329700163	-4.3780797735	 0.0143248056	-0.16636
O	-4.325634204	-5.7865511993	 0.0031265135	-0.413884
H	 0.6025022787	 1.8838375167	 0.0093543851	 0.286291
H	 0.512696141	-0.2627688093	-0.8902155689	 0.088477
H	 0.5304022916	-0.2753292137	 0.8829753131	 0.088465
H	-1.9703590077	-0.2913331174	 0.9019198341	 0.114811
H	-1.9878784023	-0.2790894379	-0.8595602863	 0.114787
H	-0.7916621893	-2.5048491347	-0.8870470716	 0.118682
H	-0.7735057919	-2.5168962397	 0.8744483834	 0.118565
H	-2.1073236407	-5.7427628399	-0.0199185207	 0.240858
H	-4.6972469019	-3.9349842728	 0.9084226406	 0.116256
H	-4.7162887299	-3.9196527757	-0.8617650995	 0.116254
H	-5.2548697853	-6.0307220205	 0.0110714009	 0.297157
38.5024	66.2058	71.9735	87.3456	122.9171	154.1738	187.3156	226.4649	269.8207	276.7426	339.3946	460.1002	512.7147	561.2971	672.3328	774.9839	877.0068	896.864	913.3459	993.268	1036.107	1052.7659	1068.7973	1098.1311	1119.7145	1135.0134	1175.0349	1216.5253	1231.7848	1239.9195	1244.9534	1295.8194	1308.5591	1318.0617	1367.1691	1421.0941	1466.2137	1470.3582	1498.7913	1503.5293	1518.6194	1532.9305	1745.8002	2960.4153	2985.3179	2985.5594	3014.5908	3036.4897	3050.0994	3070.2303	3100.1406	3503.4907	3831.1107	3849.5292
OCCCOC(=N)CO	OCCCO[C]([NH])CO	
InChI=1S/C5H11NO3/c6-5(4-8)9-3-1-2-7/h6-8H,1-4H2	InChI=1S/C5H11NO3/c6-5(4-8)9-3-1-2-7/h6-8H,1-4H2
