20
gdb 78855	3.33097	1.56872	1.3551	1.8829	81.06	-0.2172	0.0799	0.2971	1036.5273	0.171904	-365.965569	-365.957905	-365.956961	-365.997219	31.007	
C	-0.1930198468	 1.4929508923	-0.0021716096	-0.397503
C	 0.0376020467	-0.0206451771	 0.0048493267	-0.009022
C	 0.9772964068	-0.5071382639	-1.0812198722	-0.052327
C	 1.683576201	-1.7454392686	-0.6766420342	-0.120872
N	 2.4140816083	-0.4357791737	-0.6530018011	-0.160686
C	 2.3094953726	-0.4655383558	 0.8570545463	-0.074515
C	 0.838016739	-0.5240072324	 1.1935307228	-0.132702
C	 1.606559802	-1.7978440741	 0.8643973784	 0.313382
C	 1.7432428214	-3.0077083461	 1.7354828495	-0.518578
H	 0.7585429853	 2.0303664459	 0.057806482	 0.128741
H	-0.703917616	 1.8103786624	-0.9171342535	 0.112933
H	-0.8112155517	 1.8010843137	 0.8472780744	 0.111279
H	-0.9235970255	-0.5453878117	-0.0724517283	 0.07712
H	 0.8083606823	-0.2714623789	-2.1267375005	 0.090519
H	 1.9844434045	-2.5535407209	-1.3346706263	 0.090505
H	 3.0988381633	-0.0444450028	 1.4657713182	 0.0919
H	 0.5206120288	-0.3544415635	 2.2158174608	 0.084603
H	 0.8816699704	-3.678179366	 1.629505533	 0.120402
H	 2.6435146267	-3.5808528506	 1.4858875743	 0.123782
H	 1.813060931	-2.7242946282	 2.7906932092	 0.121041
153.0818	198.2611	216.7768	227.4824	251.1234	325.4736	500.4336	579.4345	605.3396	697.3997	718.4993	749.0739	792.4272	829.7708	859.7923	878.446	913.9793	926.3681	943.7561	976.4936	1007.0913	1018.6144	1041.3679	1046.9865	1053.6999	1115.96	1117.8869	1122.8971	1166.3148	1202.3731	1220.8751	1247.2219	1287.2168	1302.7755	1333.4247	1384.6289	1408.3775	1414.8525	1453.2293	1485.1425	1497.8256	1498.6893	1499.7476	3020.1639	3025.2628	3033.5973	3077.4575	3096.068	3099.2047	3109.7666	3163.7956	3176.4362	3186.102	3198.4508
CC1C2C3N2C2C1C32C	C[C@H]1[C@@H]2[C@H]3N2[C@H]2[C@@H]1[C@@]32C	
InChI=1S/C8H11N/c1-3-4-6-8(4,2)7-5(3)9(6)7/h3-7H,1-2H3	InChI=1S/C8H11N/c1-3-4-6-8(4,2)7-5(3)9(6)7/h3-7H,1-2H3/t3-,4-,5-,6+,7-,8-,9?/m1/s1
