19
gdb 57811	6.32269	0.48048	0.45984	1.3599	88.62	-0.2531	0.0327	0.2859	2337.2748	0.155507	-385.829898	-385.81892	-385.817976	-385.868438	38.219	
C	 0.0388183713	 1.5382719471	-0.0903844275	-0.383072
C	 0.01761222	 0.014841929	 0.1018222241	-0.018522
O	 0.7269069501	-0.3739021338	 1.2771617078	-0.413922
C	-1.3524310378	-0.5101137713	 0.0937517491	 0.131507
C	-2.4887338084	-0.9107309252	 0.1289669967	-0.016554
C	-3.8449245571	-1.4439356649	 0.1521841432	-0.348849
C	-3.8811245234	-2.9810678773	-0.0619926119	-0.338298
C	-5.2387855909	-3.5085782169	-0.0371040407	 0.292997
C	-6.3710300243	-3.9111108277	-0.0110321254	-0.437555
H	 1.0728504404	 1.8923863077	-0.0731294988	 0.125026
H	-0.4207031816	 1.8178373185	-1.0429100155	 0.124404
H	-0.5170170622	 2.0325748752	 0.7129880495	 0.116095
H	 0.5799451985	-0.4487482891	-0.7179803832	 0.116705
H	 0.1883650628	-0.1173868838	 2.0340642458	 0.28133
H	-4.3282692799	-1.2073131964	 1.107239303	 0.141281
H	-4.4518334236	-0.9626332862	-0.6235457946	 0.143142
H	-3.4020389765	-3.2189209842	-1.018498151	 0.143162
H	-3.275092629	-3.4633513914	 0.7133350764	 0.144094
H	-7.3650782887	-4.2836856796	 0.0090810129	 0.19703
11.2856	51.3334	62.5357	133.0396	162.5213	183.1801	250.5165	272.6122	330.5039	363.7951	385.0074	454.9563	481.3737	551.3001	577.3912	621.4591	650.6234	739.0168	763.7133	897.6692	964.0993	1002.3385	1019.4214	1032.7821	1067.7114	1096.4681	1176.0263	1193.6193	1280.8852	1283.5241	1304.8836	1338.428	1365.056	1398.2709	1417.6665	1470.2517	1480.7809	1487.5406	1491.2634	2239.7338	2358.4893	3032.7397	3035.6783	3039.7785	3043.0357	3060.5236	3082.7492	3114.005	3126.8636	3506.6699	3804.5302
CC(O)C#CCCC#C	C[C@@H](O)C#CCCC#C	
InChI=1S/C8H10O/c1-3-4-5-6-7-8(2)9/h1,8-9H,4-5H2,2H3	InChI=1S/C8H10O/c1-3-4-5-6-7-8(2)9/h1,8-9H,4-5H2,2H3/t8-/m1/s1
