19
gdb 87631	2.64443	1.39089	1.17498	1.47	77.98	-0.2259	0.0226	0.2485	1123.3384	0.159087	-423.013424	-423.004854	-423.003909	-423.04649	33.394	
O	-0.1385727438	 1.3947036801	-0.1310169141	-0.426841
C	-0.0705017338	 0.0003407916	-0.0273261364	 0.053675
C	-0.483969529	-0.670767174	 1.2520854708	-0.388591
C	-1.3824920306	-0.7289083352	 0.0171855327	 0.281689
C	-2.6893996017	-0.0226764302	-0.018026833	-0.125521
C	-3.6530724043	-0.8074828881	-0.5042773608	-0.10367
C	-3.1364457772	-2.184574621	-0.848531041	-0.290491
C	-1.5906699911	-2.0272512561	-0.784550616	 0.025739
O	-1.0028265317	-1.960126916	-2.0786442636	-0.427043
H	 0.5949449601	 1.7642247219	 0.3716142446	 0.288623
H	 0.7171438992	-0.4691519204	-0.6154677425	 0.100387
H	 0.0299214104	-1.5772904536	 1.5568545806	 0.113683
H	-0.8123942626	-0.0305996993	 2.0646368501	 0.11317
H	-2.8003326902	 1.0016784819	 0.3137964107	 0.107492
H	-4.692358061	-0.5213880065	-0.6193304871	 0.092982
H	-3.4957383229	-2.9329653544	-0.1290027465	 0.108213
H	-3.4331576345	-2.5380372276	-1.8422123047	 0.109228
H	-1.1118134079	-2.8874885077	-0.3099419381	 0.083836
H	-1.3242525473	-1.1535435253	-2.4981123854	 0.28344
69.9511	148.2839	184.4962	242.6628	298.4097	318.5146	349.6228	406.2059	461.5853	481.5229	549.2313	603.6295	758.2106	768.4794	814.0186	829.6776	861.5638	923.6632	947.832	954.6912	971.3166	1003.788	1016.0908	1037.3028	1071.7785	1086.2889	1120.5318	1165.2747	1167.5238	1238.5374	1256.9308	1287.0754	1292.1484	1304.0189	1324.1616	1398.3311	1426.7466	1433.3508	1476.9421	1485.6214	1670.7038	3015.1221	3065.3684	3079.2688	3111.6203	3121.3903	3192.6752	3213.3556	3224.8394	3794.9147	3805.6878
OC1CC11C=CCC1O	O[C@H]1C[C@]21C=CC[C@H]2O	
InChI=1S/C7H10O2/c8-5-2-1-3-7(5)4-6(7)9/h1,3,5-6,8-9H,2,4H2	InChI=1S/C7H10O2/c8-5-2-1-3-7(5)4-6(7)9/h1,3,5-6,8-9H,2,4H2/t5-,6+,7-/m1/s1
