15
gdb 33679	3.2853	1.46189	1.3968	3.9857	70.15	-0.2616	-0.0057	0.2559	956.6622	0.114946	-416.767455	-416.760802	-416.759858	-416.798548	26.028	
N	-0.0733667649	-1.1123029551	-0.1900518107	-0.343672
C	-0.0551192698	 0.0376164063	-0.0605904755	 0.145186
C	 0.0153991196	 1.4479193815	 0.1052702165	 0.262723
C	-0.9113599998	 2.3463015658	 0.8312207437	-0.104931
C	-0.085927299	 3.2705570364	 1.7159309866	-0.109738
O	 1.2795758598	 3.0339543202	 1.3493664639	-0.252398
C	 1.2475096981	 2.4040205447	 0.0892516807	 0.00733
C	 0.4484089906	 3.2311067716	-0.9450720169	-0.183744
N	-0.8196928486	 2.4712265867	-0.6473255231	-0.177574
H	-1.8758168415	 1.9865080372	 1.1693066031	 0.134517
H	-0.3510302141	 4.3252950257	 1.5665507162	 0.120919
H	-0.2144709676	 3.0289481396	 2.775615995	 0.131698
H	 2.2380994517	 2.0283368933	-0.1579066335	 0.11667
H	 0.3957902931	 4.3107486411	-0.7793194309	 0.120361
H	 0.7320760624	 3.0258514549	-1.978982595	 0.132654
136.5465	159.8761	268.7696	397.9914	419.0296	511.135	538.9177	549.8687	677.0473	705.4646	770.8927	857.7587	866.2644	901.6487	936.3656	952.7617	987.5412	1034.3811	1094.3636	1095.848	1123.5002	1163.8444	1181.2131	1208.6877	1224.6266	1270.5063	1297.8556	1323.8716	1371.2052	1419.1596	1492.794	1520.2999	2348.8156	3022.0893	3065.3284	3080.6301	3128.2994	3151.6956	3198.3755
N#CC12C3COC1CN23	N#C[C@@]12[C@H]3CO[C@@H]1CN23	
InChI=1S/C6H6N2O/c7-3-6-4-2-9-5(6)1-8(4)6/h4-5H,1-2H2	InChI=1S/C6H6N2O/c7-3-6-4-2-9-5(6)1-8(4)6/h4-5H,1-2H2/t4-,5-,6-,8?/m1/s1
