17
gdb 95444	2.64973	1.41577	0.96565	4.1807	74.1	-0.2089	-0.0092	0.1997	1175.3364	0.137775	-455.18755	-455.178984	-455.17804	-455.220982	32.319	
N	-0.0293559686	 1.3600719197	 0.0170674179	-0.555162
C	 0.0784852969	-0.0116615947	-0.0135701266	 0.293826
O	 1.1572041737	-0.5851325294	-0.0654558586	-0.385759
C	-1.2108196928	-0.720763157	 0.002746061	 0.130851
C	-1.3348633968	-2.0646274236	 0.0312702876	-0.072172
N	-2.6314207612	-2.5019278171	-0.0773941635	-0.299482
C	-3.5307880224	-1.3445909353	 0.0454350849	-0.186765
C	-2.590219713	-0.1034725237	-0.0666112212	-0.020256
O	-2.8425428337	 0.8902953976	 0.9350493886	-0.427304
H	 0.8305421608	 1.8664598502	 0.1568061049	 0.249293
H	-0.8865518077	 1.773356482	 0.3554359301	 0.258696
H	-0.5209237746	-2.7762677361	 0.0833795607	 0.150663
H	-2.8931622505	-3.3751133655	 0.3544352906	 0.248375
H	-4.299843762	-1.3627671975	-0.7309739024	 0.124308
H	-4.0343564154	-1.3242777511	 1.0211578078	 0.109376
H	-2.7618777115	 0.4347340614	-1.0048894632	 0.107243
H	-2.5579525913	 0.5162182901	 1.7782758713	 0.274268
73.2371	99.6378	178.7047	188.1899	333.0016	380.6754	397.7555	419.3888	471.7188	495.7754	511.8601	593.9312	610.9739	672.9899	742.1027	779.7741	851.9303	933.3879	960.2799	985.291	1021.4044	1054.9911	1118.2768	1154.5288	1175.5515	1198.0598	1257.7034	1284.0302	1309.3232	1342.009	1387.5694	1429.7685	1464.62	1510.8825	1622.4435	1667.0394	1763.0127	3020.1808	3050.1436	3090.718	3231.6002	3555.9457	3612.7355	3697.035	3776.1915
NC(=O)C1=CNCC1O	NC(=O)C1=CNC[C@H]1O	
InChI=1S/C5H8N2O2/c6-5(9)3-1-7-2-4(3)8/h1,4,7-8H,2H2,(H2,6,9)	InChI=1S/C5H8N2O2/c6-5(9)3-1-7-2-4(3)8/h1,4,7-8H,2H2,(H2,6,9)/t4-/m1/s1
