21
gdb 112515	3.17662	0.97803	0.86247	4.6021	83.58	-0.2492	0.0183	0.2676	1424.8483	0.182568	-383.271688	-383.261958	-383.261013	-383.306497	35.734	
C	-0.0716254143	 1.5311832844	-0.2801942687	-0.388268
C	 0.0276950743	 0.0333789914	 0.0277391772	-0.18445
C	-1.3399530465	-0.6283641208	 0.0980243228	 0.06235
N	-2.0864029467	-0.6851451023	-1.1866198572	-0.316154
C	-2.6376101519	-2.0090707523	-0.8382512314	-0.129534
C	-2.7352912752	-2.9612331788	-1.9458778468	 0.298216
N	-2.8163637702	-3.7292662733	-2.8059357251	-0.331911
C	-1.4826657241	-2.1816470163	 0.2074971568	-0.0431
C	-0.3009202082	-3.0209362514	-0.259193093	-0.402488
H	 0.9191376946	 1.9923221105	-0.3256633952	 0.118373
H	-0.5593291372	 1.6969071414	-1.2463400612	 0.126179
H	-0.6504034519	 2.059100721	 0.4864079012	 0.111245
H	 0.6304176383	-0.4594945562	-0.7414582152	 0.10773
H	 0.5405464681	-0.1174540747	 0.9867334802	 0.095566
H	-1.9271750021	-0.1508344924	 0.8998906066	 0.062651
H	-2.7775030639	 0.039845322	-1.3461106598	 0.22599
H	-3.6155527564	-1.9758951929	-0.3367480216	 0.108237
H	-1.8342660907	-2.5308886215	 1.1802662994	 0.084667
H	 0.0392725571	-2.7230877419	-1.254417336	 0.144123
H	 0.539956911	-2.9248249542	 0.434615888	 0.1189
H	-0.577849204	-4.0785020217	-0.306746711	 0.131679
63.7715	95.9199	133.8435	171.5816	220.6334	237.0782	252.2495	288.0934	357.7243	418.7145	461.9926	561.9855	573.4191	679.2221	763.533	799.9373	804.8719	875.143	947.532	972.5099	990.7954	1034.3662	1044.5845	1065.1468	1092.2929	1113.077	1159.6863	1180.0967	1192.7786	1260.7202	1287.9452	1299.799	1334.5844	1364.4132	1370.68	1388.7263	1408.2027	1413.6018	1429.8748	1477.2064	1494.8591	1498.3211	1500.8702	1509.0848	2354.0552	2956.7003	2995.1362	3027.1026	3031.8718	3042.5129	3078.1584	3085.8988	3103.1435	3108.6049	3109.7728	3124.7416	3528.9014
CCC1NC(C#N)C1C	CC[C@H]1N[C@@H](C#N)[C@H]1C	
InChI=1S/C7H12N2/c1-3-6-5(2)7(4-8)9-6/h5-7,9H,3H2,1-2H3	InChI=1S/C7H12N2/c1-3-6-5(2)7(4-8)9-6/h5-7,9H,3H2,1-2H3/t5-,6+,7-/m0/s1
