16
gdb 14300	3.81932	1.84144	1.75771	1.4386	64.74	-0.2154	0.0536	0.269	824.2292	0.132073	-379.928065	-379.92085	-379.919906	-379.9593	27.675	
C	-0.0829952487	 1.5594051472	 0.011708483	-0.414926
C	 0.068868349	 0.0569298354	 0.0642584621	-0.056817
C	 1.3653050797	-0.6649713317	-0.1966181412	 0.032244
O	 2.5646931684	 0.0878020499	-0.0517489791	-0.241245
C	 2.6052087791	 0.4426307558	 1.2673381068	 0.447833
N	 3.6417099326	 1.2770781095	 1.5892807245	-0.579311
N	 1.6743261428	 0.0301524644	 2.0422585387	-0.339337
C	 0.7590751185	-0.6960242952	 1.1973972843	-0.044294
H	 0.7559673603	 2.0743881848	 0.4833648557	 0.141683
H	-0.1510027021	 1.9080679372	-1.024250008	 0.116805
H	-0.9939805912	 1.8692212668	 0.5338194821	 0.120624
H	-0.7797993648	-0.493871871	-0.3367700964	 0.089118
H	 1.4720937955	-1.4801141734	-0.9010804479	 0.103543
H	 4.4719909547	 1.1610509091	 1.0275814682	 0.262702
H	 3.8117671215	 1.3414116044	 2.5813038631	 0.268798
H	 0.2777580147	-1.5609144332	 1.6392935742	 0.092578
119.3695	146.3514	205.0697	296.0911	354.3997	430.4956	513.2957	560.0166	605.2531	694.074	742.6722	756.9647	765.366	808.2966	891.7588	933.9037	993.3172	1009.8788	1028.7717	1079.7879	1085.8703	1131.9191	1139.9925	1196.1601	1217.6177	1291.1267	1343.2097	1414.5494	1420.406	1424.6361	1490.5859	1499.3356	1614.1892	1733.7152	3039.7941	3097.0191	3122.7988	3138.1338	3171.0761	3191.1347	3580.7212	3694.0684
CC1C2OC(N)=NC12	C[C@H]1[C@H]2OC(=N[C@@H]12)N	
InChI=1S/C5H8N2O/c1-2-3-4(2)8-5(6)7-3/h2-4H,1H3,(H2,6,7)	InChI=1S/C5H8N2O/c1-2-3-4(2)8-5(6)7-3/h2-4H,1H3,(H2,6,7)/t2-,3+,4-/m1/s1
