14
gdb 23597	3.28214	1.50329	1.168	3.2123	65.03	-0.2637	-0.031	0.2327	999.7782	0.100661	-473.72637	-473.719465	-473.718521	-473.75773	26.905	
O	-0.1153907851	 1.3181680318	-0.0640629947	-0.378736
N	 0.0037829169	-0.0704236252	-0.0392830786	-0.224996
C	-1.1308374497	-0.6490197841	-0.000806962	 0.419108
C	-2.5015230902	-0.0504079537	 0.1295868794	-0.077988
O	-3.4471838641	-0.4900807631	-0.859568198	-0.22543
C	-3.4377150049	-1.1643034842	 0.3919009882	 0.00641
C	-2.6419864374	-2.4697031756	 0.3773868127	 0.008543
O	-2.0558024484	-2.7598917164	-0.8861826	-0.226479
C	-1.2273326122	-2.1384116368	 0.109795943	-0.067369
H	 0.8040215552	 1.6071327526	-0.0756715324	 0.315187
H	-2.6220315717	 0.9662086015	 0.4853001988	 0.122615
H	-4.3269559876	-1.0656638092	 1.0072701059	 0.108196
H	-2.9596978122	-3.317225928	 0.9771153449	 0.107427
H	-0.3706655387	-2.7139712896	 0.445703733	 0.113512
121.0212	209.1862	250.9782	317.274	380.6304	456.931	483.9241	565.7767	663.0094	693.9015	731.6237	816.9646	847.4622	867.1325	880.8118	899.4624	938.4948	1004.4878	1023.0079	1040.6699	1081.0326	1106.814	1232.3916	1243.0493	1252.9771	1293.6624	1325.2301	1369.796	1407.2624	1429.9061	1749.4292	3156.6838	3166.6125	3175.2192	3190.5153	3811.8501
ON=C1C2OC2C2OC12	ON=C1[C@H]2O[C@H]2[C@H]2O[C@@H]12	
InChI=1S/C5H5NO3/c7-6-1-2-4(8-2)5-3(1)9-5/h2-5,7H	InChI=1S/C5H5NO3/c7-6-1-2-4(8-2)5-3(1)9-5/h2-5,7H/t2-,3+,4-,5+
