17
gdb 29340	1.95863	1.88681	0.96905	2.5868	86.04	-0.1791	0.0284	0.2075	1184.7298	0.135677	-380.885084	-380.875748	-380.874803	-380.918737	34.903	
C	-0.0143012236	 1.4986664278	 0.0321885078	-0.51586
C	-0.0181300815	 0.003356065	 0.0028303994	 0.173886
C	-0.0267913617	-0.805294113	-1.0988473118	-0.179589
N	-0.0112616526	-2.1274369773	-0.6729014364	-0.294875
C	 0.0038020784	-2.1717773168	 0.6886407707	 0.209486
N	-0.0593540569	-3.3828607432	 1.3816452223	-0.618056
C	 0.0083967494	-0.8641388499	 1.1582923092	 0.052558
C	 0.0466749978	-0.5008763589	 2.5199667147	 0.195337
C	 0.0825517232	-0.2065958612	 3.6905839036	-0.453021
H	 0.8758510997	 1.890029461	 0.5382347796	 0.129292
H	-0.0344183125	 1.9118028928	-0.9803292046	 0.115115
H	-0.8824144493	 1.8912462497	 0.5740994331	 0.130292
H	-0.0304910135	-0.5635734144	-2.1491409417	 0.117089
H	-0.1283819434	-2.9329503694	-1.2622166511	 0.260247
H	 0.7212330345	-3.9995920089	 1.1796609763	 0.245581
H	-0.082468311	-3.2063460039	 2.3797682423	 0.257586
H	 0.107941673	 0.0631254007	 4.7165175565	 0.174934
108.1637	119.5697	145.3312	201.5212	220.6296	257.3554	311.2671	383.442	438.6617	450.6173	500.2305	535.4934	568.5453	621.7346	666.876	668.427	685.4243	717.8185	772.7981	824.5247	1001.7435	1039.8883	1066.1819	1085.3689	1151.3358	1234.1579	1276.6296	1349.7491	1397.0133	1420.6051	1479.0929	1491.1213	1529.6592	1583.0102	1622.4609	1658.7487	2212.7449	3026.462	3075.4208	3107.4792	3265.9054	3500.628	3505.4518	3593.5674	3682.2822
CC1=CNC(N)=C1C#C	Cc1c[nH]c(N)c1C#C	
InChI=1S/C7H8N2/c1-3-6-5(2)4-9-7(6)8/h1,4,9H,8H2,2H3	InChI=1S/C7H8N2/c1-3-6-5(2)4-9-7(6)8/h1,4,9H,8H2,2H3
