17
gdb 126474	5.03746	0.92709	0.82562	1.5915	71.71	-0.2569	0.0027	0.2596	1415.9241	0.135537	-455.153531	-455.144608	-455.143664	-455.187967	31.119	
C	-0.0388274964	 1.5249329702	-0.1761979939	-0.379283
C	-0.052391384	 0.0173774767	 0.1198613045	-0.288959
C	-1.432454075	-0.553237321	 0.1058297643	 0.377784
N	-1.9546745	-1.1207048695	 1.1633839563	-0.198471
O	-3.2493222084	-1.5043617629	 0.710558977	-0.223888
C	-3.3122343922	-1.1052487411	-0.563071328	 0.523796
O	-4.4088198112	-1.3286100596	-1.255421237	-0.250124
C	-5.4849804832	-2.0031088742	-0.5836253753	-0.25112
N	-2.2433811798	-0.5157812879	-1.0067324658	-0.407383
H	 0.9884943223	 1.8989189306	-0.2001522276	 0.117764
H	-0.5057716668	 1.7323870145	-1.142305411	 0.143796
H	-0.5854078657	 2.0796369522	 0.5923789156	 0.125878
H	 0.5409561039	-0.5096126735	-0.6365372534	 0.126863
H	 0.395727716	-0.1940673919	 1.094579478	 0.12772
H	-5.8270984695	-1.4220536723	 0.2766238277	 0.151743
H	-6.2791138206	-2.0855740575	-1.3243120312	 0.152032
H	-5.1704910994	-2.9959889428	-0.2520344103	 0.151851
61.591	83.5394	139.117	160.5224	191.7031	239.2421	278.8119	358.6168	431.2744	527.0125	631.541	711.6257	748.1014	778.2301	806.6854	891.0347	975.1574	1004.1527	1016.8723	1079.9109	1102.6191	1125.5992	1177.8937	1203.8201	1278.0708	1343.2077	1356.3512	1400.1372	1419.5032	1473.83	1479.2301	1487.4764	1496.392	1496.9715	1509.575	1581.0232	1662.131	3043.5533	3046.4972	3051.5662	3097.4361	3117.3102	3128.7816	3130.6291	3169.5197
CCC1=NOC(OC)=N1	CCc1noc(OC)n1	
InChI=1S/C5H8N2O2/c1-3-4-6-5(8-2)9-7-4/h3H2,1-2H3	InChI=1S/C5H8N2O2/c1-3-4-6-5(8-2)9-7-4/h3H2,1-2H3
