21
gdb 103305	2.33074	1.50009	1.36788	1.8182	78.33	-0.2486	0.0659	0.3146	1098.1278	0.181533	-424.178817	-424.169733	-424.168789	-424.211922	36.055	
C	-1.5202574245	-0.5335379234	 0.0772874856	-0.378256
C	-0.0755024376	-0.0189485425	 0.0175605012	-0.282259
C	 0.6993737369	-0.5679144341	-1.1807011384	 0.405548
O	 0.0973021089	-0.1004444652	-2.3805268263	-0.49777
C	 2.2688231978	-0.64661334	-1.153022822	-0.140398
C	 2.1345053058	-1.8667139743	-0.1881581084	-0.279022
C	 1.0757034561	-2.082856503	-1.2907883333	 0.367856
O	 0.2135937938	-3.163416423	-1.331266244	-0.476884
C	 2.182894843	-1.6712106049	-2.3228476785	-0.297384
H	-2.0585397225	-0.2870112066	-0.8420802844	 0.11761
H	-1.5354111177	-1.6213048512	 0.1912936005	 0.133464
H	-2.0606995056	-0.0916967094	 0.9197182995	 0.106749
H	-0.0757287796	 1.0794364993	-0.0580302452	 0.080671
H	 0.4363414959	-0.2439036731	 0.9558504717	 0.1066
H	-0.0142775755	 0.8528387877	-2.3074526192	 0.27739
H	 2.967944711	 0.182203951	-1.0606188414	 0.073777
H	 2.9728682168	-2.565694029	-0.2074770388	 0.098917
H	 1.7912879527	-1.6950497878	 0.8315548123	 0.095932
H	-0.375508113	-3.0394937531	-2.0844344844	 0.289372
H	 1.8523579759	-1.2932360595	-3.2873965763	 0.109782
H	 3.0235876217	-2.363304698	-2.4077002502	 0.088308
96.2317	139.7782	211.9595	225.5392	282.1586	303.0566	332.7713	355.2318	379.8766	443.2665	504.1883	563.2141	576.6158	668.3354	714.4224	781.4148	803.3309	811.0791	926.865	947.1562	953.3326	971.3279	1011.0662	1020.2422	1033.787	1074.9536	1106.7185	1110.4169	1138.3097	1149.2507	1189.7117	1191.7713	1207.4636	1229.1892	1278.3716	1284.0547	1361.6223	1367.5763	1403.3391	1408.5198	1483.7939	1495.426	1499.6233	1516.1818	1548.3912	2991.902	3043.5064	3074.6991	3079.2188	3093.2388	3114.234	3122.1908	3136.1783	3145.6699	3168.4196	3801.735	3811.9852
CCC1(O)C2CC1(O)C2	CC[C@@]1(O)[C@H]2C[C@]1(O)C2	
InChI=1S/C7H12O2/c1-2-7(9)5-3-6(7,8)4-5/h5,8-9H,2-4H2,1H3	InChI=1S/C7H12O2/c1-2-7(9)5-3-6(7,8)4-5/h5,8-9H,2-4H2,1H3/t5-,6-,7-/m1/s1
