19
gdb 62765	3.31832	1.19333	1.16736	2.2957	74.75	-0.242	-0.0181	0.2239	1133.7435	0.158154	-423.046527	-423.03796	-423.037015	-423.079451	33.433	
C	 0.1240470202	 1.6059810289	 0.0802030437	-0.473497
C	 0.0793360563	 0.0945983671	 0.0447638363	 0.400629
O	-1.1808011966	-0.4128175978	-0.326792845	-0.46768
C	 1.2524926783	-0.7694096106	-0.3754885154	-0.132883
C	 2.6507856542	-0.1879969118	-0.384890807	-0.339998
C	 2.9107980014	 0.3147899022	 1.0471083766	 0.382218
O	 3.8288621626	 1.0149819297	 1.3834956186	-0.310058
C	 1.8037890516	-0.2139982503	 1.9767538607	-0.342812
C	 0.7353448325	-0.7873239835	 1.0706285998	-0.095385
H	 1.0836593516	 2.0024860015	 0.4206281833	 0.135888
H	-0.0594228664	 2.0175423513	-0.920190759	 0.111927
H	-0.6562875092	 1.9854076133	 0.7472598253	 0.132749
H	-1.3363139418	-0.1685845035	-1.246309464	 0.279324
H	 1.0207403072	-1.6006706552	-1.0311281263	 0.090277
H	 3.3955886145	-0.9617264946	-0.6113602434	 0.132943
H	 2.8199258034	 0.6267021809	-1.0960823292	 0.128731
H	 2.2395622155	-0.9969666826	 2.6101177015	 0.133809
H	 1.4731749341	 0.5845135368	 2.6480403698	 0.132764
H	 0.1423320204	-1.6254134718	 1.4157581636	 0.101055
71.8505	174.257	196.2266	234.2397	269.8746	330.1626	398.7743	424.6288	449.9751	475.1414	478.8481	640.6286	656.7011	698.1797	768.8517	783.4307	854.3119	876.7181	940.0195	991.0382	1013.4305	1028.771	1052.7028	1081.3768	1094.3357	1144.3715	1161.1158	1177.1325	1211.6523	1269.5006	1280.9086	1295.7585	1312.0151	1336.0862	1423.987	1440.2971	1448.5836	1460.9827	1488.5952	1505.5351	1845.2556	3027.276	3035.1105	3039.8843	3081.5633	3085.9671	3091.151	3121.8868	3174.8652	3188.0422	3789.7935
CC1(O)C2CC(=O)CC12	C[C@@]1(O)[C@H]2CC(=O)C[C@@H]12	
InChI=1S/C7H10O2/c1-7(9)5-2-4(8)3-6(5)7/h5-6,9H,2-3H2,1H3	InChI=1S/C7H10O2/c1-7(9)5-2-4(8)3-6(5)7/h5-6,9H,2-3H2,1H3/t5-,6+,7+
