19
gdb 87760	4.4236	0.83168	0.7815	4.1311	78.11	-0.2421	-0.0207	0.2214	1466.5015	0.157363	-423.001889	-422.992865	-422.991921	-423.036337	33.484	
O	-0.0905344724	 1.4103615423	 0.0164033826	-0.418545
C	-0.0530150673	 0.0144583302	 0.0566045366	 0.048005
C	-0.6125351638	-0.7176023718	 1.2564701541	-0.404836
C	-1.3700170488	-0.6848876388	-0.0439118112	 0.357406
C	-2.6859209426	 0.0272495201	-0.3633056191	-0.318908
C	-2.8549145451	-0.9252250177	-1.596893408	-0.054909
C	-1.7112944036	-1.8219166574	-1.0093751924	-0.334757
C	-4.195328164	-1.584386048	-1.7441779681	 0.160799
O	-4.8669353165	-1.5941238293	-2.7436976571	-0.254073
H	 0.5553708981	 1.747041021	 0.6460599738	 0.290557
H	 0.7956881798	-0.4388450791	-0.4585556129	 0.085551
H	-0.1395213558	-1.6449655273	 1.5656317258	 0.112721
H	-0.999504075	-0.1076621121	 2.0674549444	 0.115288
H	-3.4584065529	-0.1372577092	 0.3962090431	 0.103484
H	-2.6224848188	 1.0936585866	-0.5833431153	 0.132951
H	-2.5780607507	-0.4497646094	-2.538823252	 0.09689
H	-0.9398591789	-2.1406379611	-1.7147866184	 0.113067
H	-2.1053787893	-2.7071448376	-0.4969218096	 0.106252
H	-4.546700942	-2.0936761113	-0.8126481064	 0.063056
48.3591	70.5964	172.6754	200.9578	256.2692	296.9271	324.7633	364.704	413.1251	441.6469	505.2383	600.6416	759.2835	804.6519	825.4702	880.429	891.4998	907.8461	910.5797	1000.625	1025.5462	1031.5855	1067.9719	1090.3757	1101.4259	1156.9092	1173.6431	1213.107	1225.9688	1239.4679	1241.8921	1264.5848	1299.8772	1317.5735	1352.2241	1422.9117	1429.7109	1471.1292	1490.5258	1491.7955	1830.6271	2826.9485	3036.496	3044.4911	3085.0033	3096.1327	3110.5035	3117.3459	3127.8479	3206.6187	3808.0267
OC1CC11CC(C1)C=O	O[C@H]1C[C@]21C[C@@H](C2)C=O	
InChI=1S/C7H10O2/c8-4-5-1-7(2-5)3-6(7)9/h4-6,9H,1-3H2	InChI=1S/C7H10O2/c8-4-5-1-7(2-5)3-6(7)9/h4-6,9H,1-3H2/t5-,6-,7-/m0/s1
