15
gdb 84330	3.02726	1.4313	0.99738	3.2855	69.41	-0.2556	-0.0619	0.1937	1112.4165	0.114597	-454.016617	-454.008826	-454.007882	-454.049254	29.202	
N	 0.1061101976	 1.5098027849	-0.1995479446	-0.524981
C	 0.0169515898	 0.0706511744	 0.0375820336	-0.184549
C	 0.8044233023	-0.3509829609	 1.2486232826	-0.018215
C	 0.3656815991	-1.2532084472	 2.1262371659	-0.193877
C	-0.9717616091	-1.8628819293	 2.010036752	 0.439022
O	-1.4016851704	-2.7215803511	 2.7474100127	-0.3464
N	-1.7695095956	-1.3511502857	 0.9744839218	-0.405951
C	-1.4602957784	-0.3257092516	 0.1056384058	 0.461948
O	-2.2961476357	 0.1941966145	-0.6001892911	-0.356073
H	 0.9477847104	 1.728677784	-0.7215590678	 0.234168
H	-0.6871723526	 1.7724054082	-0.7791672507	 0.253242
H	 0.4029342928	-0.5301076946	-0.8122322348	 0.120746
H	 1.7849623519	 0.1033153337	 1.3606844023	 0.124342
H	 0.9488204635	-1.5850583354	 2.9765662262	 0.129574
H	-2.7314619257	-1.6691953239	 0.9679481162	 0.267004
66.3864	137.6604	232.2797	262.2266	310.1748	390.4039	429.339	457.2236	518.7157	566.8469	677.1477	690.0353	719.0918	758.0067	831.2592	867.7801	921.3025	939.983	997.5566	1017.5705	1125.7633	1163.9662	1204.9077	1255.0528	1310.6814	1356.4564	1402.3719	1404.1598	1407.6734	1641.6231	1697.7395	1802.5837	1811.0427	2882.4395	3173.0442	3216.4572	3494.3656	3578.6733	3582.4389
NC1C=CC(=O)NC1=O	N[C@H]1C=CC(=O)NC1=O	
InChI=1S/C5H6N2O2/c6-3-1-2-4(8)7-5(3)9/h1-3H,6H2,(H,7,8,9)	InChI=1S/C5H6N2O2/c6-3-1-2-4(8)7-5(3)9/h1-3H,6H2,(H,7,8,9)/t3-/m0/s1
