18
gdb 84252	3.39775	1.68936	1.44312	3.562	75.05	-0.2341	-0.0158	0.2184	947.0051	0.14893	-401.886158	-401.879273	-401.878329	-401.917064	28.417	
C	 0.0179693202	 1.5321887406	-0.1522650295	-0.38324
C	 0.021134291	 0.0173969768	-0.0020634288	 0.043928
N	 0.8210913251	-0.585920726	-1.1337242839	-0.26553
C	 1.34782247	-1.5994395769	-0.5933735666	 0.315594
O	 2.6723614091	-2.0055674462	-0.6031776138	-0.276952
C	 2.5777064869	-1.8304511152	 0.8795622727	 0.075108
C	 2.3306810537	-0.3428587803	 1.3486233966	-0.259742
C	 0.750205601	-0.5311777224	 1.2695825929	-0.06971
C	 1.0529501287	-1.9790512711	 0.8473277187	-0.142082
H	 1.0388105558	 1.9230831757	-0.1943576982	 0.123868
H	-0.4895085901	 1.8243883259	-1.0751725265	 0.129958
H	-0.5000827816	 1.9977308115	 0.6933506604	 0.108232
H	-1.017835318	-0.3465418641	-0.0012418479	 0.080162
H	 3.30893986	-2.4593448919	 1.3830677312	 0.102386
H	 2.6566933036	-0.2174862169	 2.3837048584	 0.116737
H	 2.7880398484	 0.4328862622	 0.7335733938	 0.132677
H	 0.2278265365	-0.3407347322	 2.2090354153	 0.071899
H	 0.48679938	-2.8760039795	 1.0878910752	 0.096706
152.6098	227.6157	246.8441	350.1815	372.8069	504.7538	520.8796	597.9872	646.5245	730.5797	737.2491	777.6578	839.9949	849.3406	872.9735	907.7164	924.3453	935.2834	961.9001	1012.0093	1054.9144	1082.345	1102.6273	1124.3636	1126.152	1144.4271	1180.085	1217.6938	1251.6563	1264.0039	1282.4469	1310.9488	1311.5374	1354.4973	1405.3986	1458.2107	1482.6685	1497.9134	1697.162	2984.7047	3037.7341	3076.759	3095.388	3109.0484	3122.0862	3137.432	3141.8051	3149.2846
CC1N=C2OC3CC1C23	C[C@H]1[N][C]2O[C@H]3C[C@@H]1[C@@H]23	
InChI=1S/C7H9NO/c1-3-4-2-5-6(4)7(8-3)9-5/h3-6H,2H2,1H3	InChI=1S/C7H9NO/c1-3-4-2-5-6(4)7(8-3)9-5/h3-6H,2H2,1H3/t3-,4+,5+,6-/m1/s1
