18
gdb 96678	4.6987	0.71121	0.6254	8.1724	73.49	-0.2322	0.028	0.2603	1724.4324	0.147019	-472.448527	-472.438405	-472.437461	-472.484796	35.412	
C	 0.0882503744	 1.4138361933	 0.2087472117	-0.334661
N	-0.180514323	 0.0363338817	-0.1694496074	-0.331522
H	-0.4513725	-0.583138138	 0.5785310164	 0.251165
C	 0.5430303869	-0.6341038226	-1.131372794	 0.452357
N	 1.1450068284	 0.1640275054	-2.083645034	-0.555862
N	 0.6262503245	-1.916035887	-1.0733682188	-0.356166
C	 1.2849244252	-2.6535121729	-2.1274397256	-0.3201
C	 1.1488393853	-4.1637798745	-1.867893076	 0.416037
O	 0.4792444262	-4.4462098217	-0.7464340634	-0.361076
O	 1.6033321879	-4.9981558618	-2.6042254058	-0.347868
H	 1.1456815258	 1.6051322623	 0.4348389201	 0.136986
H	-0.2290724437	 2.1142073264	-0.5731548717	 0.127821
H	-0.5039580785	 1.6465237698	 1.095588099	 0.142978
H	 0.7247634164	 1.0618057705	-2.2662528776	 0.259536
H	 1.4569295326	-0.3096731971	-2.9160793201	 0.269764
H	 0.243688966	-3.5626840181	-0.3773297023	 0.298607
H	 0.8615609382	-2.4706095524	-3.1287858679	 0.120785
H	 2.3631720773	-2.4428233232	-2.1985495728	 0.131219
47.6035	68.4226	84.4588	121.7651	155.9654	217.6309	278.5671	301.218	384.6396	401.6152	506.0487	531.4034	584.1638	588.1945	625.7104	683.2703	742.5468	829.374	878.4414	925.4655	1006.5643	1032.9028	1123.522	1144.7871	1155.3079	1221.431	1226.2414	1231.9042	1338.966	1426.4173	1454.4941	1464.2143	1467.2199	1490.7383	1500.8328	1520.1553	1648.4972	1739.0976	1874.6609	2967.3659	3004.3594	3008.9771	3059.0791	3130.34	3417.4633	3593.5074	3630.4493	3698.0489
C[NH+]=C(N)NCC([O-])=O	CNC(=NCC(=O)O)N	
InChI=1S/C4H9N3O2/c1-6-4(5)7-2-3(8)9/h2H2,1H3,(H,8,9)(H3,5,6,7)	InChI=1S/C4H9N3O2/c1-6-4(5)7-2-3(8)9/h2H2,1H3,(H,8,9)(H3,5,6,7)
