17
gdb 31276	1.93573	1.74904	0.95443	3.154	71.91	-0.2031	0.0153	0.2184	1204.3762	0.135328	-458.965749	-458.95674	-458.955795	-459.000857	31.924	
C	 0.0868125265	 1.2644203455	 0.2619393652	-0.251744
O	 0.0064757343	-0.1415755436	 0.1018978443	-0.284299
C	-1.24833985	-0.6685958221	 0.0281808488	 0.237465
C	-1.4755935417	-2.0144989432	 0.0138434299	 0.227104
C	-0.5326281157	-3.1697385183	 0.0945168015	-0.1818
O	 0.4613111147	-2.9860982567	 1.0924270008	-0.419455
O	-2.8212216153	-2.2353311976	-0.0682567892	-0.173061
C	-3.4333661866	-1.0281759804	-0.1085816672	-0.009564
C	-2.5229050107	-0.0179997266	-0.0498338477	-0.312816
H	 1.1475830765	 1.5083055824	 0.3381939266	 0.138037
H	-0.3413018197	 1.7892162941	-0.6016740211	 0.12591
H	-0.428370525	 1.5934587384	 1.1733511583	 0.127544
H	-1.095198199	-4.0701023008	 0.3600485655	 0.127931
H	-0.0649155453	-3.3580881965	-0.8864998001	 0.101053
H	 0.8595682921	-2.1221546074	 0.9346176946	 0.294296
H	-4.5082458337	-1.0466729377	-0.1775860716	 0.137
H	-2.7356306214	 1.0383251905	-0.0568765186	 0.1164
30.45	64.056	137.8089	191.1612	202.2401	276.4384	326.88	390.8139	417.5361	498.7865	613.9108	637.6231	690.422	723.5648	751.6727	800.6432	908.4984	974.4744	1038.0948	1061.3043	1086.3549	1145.0444	1178.6345	1180.6057	1209.031	1218.8073	1284.0472	1316.6286	1368.0878	1429.765	1461.6827	1488.0244	1493.5742	1499.8611	1506.8982	1530.3392	1672.7054	2956.2585	3007.1428	3067.3032	3082.1627	3136.8668	3263.4098	3286.8363	3795.7958
COC1=C(CO)OC=C1	COc1c(CO)occ1	
InChI=1S/C6H8O3/c1-8-5-2-3-9-6(5)4-7/h2-3,7H,4H2,1H3	InChI=1S/C6H8O3/c1-8-5-2-3-9-6(5)4-7/h2-3,7H,4H2,1H3
