21
gdb 103293	2.28478	1.53737	1.38601	2.8945	78.29	-0.2511	0.0657	0.3167	1079.3111	0.182337	-424.167174	-424.158226	-424.157282	-424.200178	35.573	
C	-0.1056760498	 1.5683284145	-0.0742744219	-0.482396
C	 0.0033522225	 0.0388862016	-0.0677297169	 0.312946
C	-1.3976876614	-0.5171390232	-0.3680396292	-0.143747
O	-2.2780877525	-0.2824743705	 0.7255161102	-0.429909
C	 1.2770702535	-0.6532142845	-0.6927595714	-0.111727
C	 2.1154786249	-0.1094856363	 0.5066118033	-0.298816
C	 0.7797545393	-0.6608498532	 1.0972847522	 0.356903
O	 0.3020051906	-0.6235848117	 2.4030173325	-0.483894
C	 1.0002598788	-1.909034259	 0.1878921981	-0.309107
H	-0.2276019625	 1.9300664535	-1.1019004637	 0.112104
H	-0.9985890211	 1.8577921318	 0.4858878225	 0.141557
H	 0.7454442337	 2.0904667449	 0.3624699687	 0.11274
H	-1.8292163167	 0.0178887578	-1.2216301727	 0.099721
H	-1.388525878	-1.5796916662	-0.6378791167	 0.086597
H	-1.8272374863	-0.58607449	 1.5231556197	 0.292536
H	 1.5764067765	-0.6500982478	-1.7387022502	 0.081737
H	 3.0160013825	-0.6820836677	 0.7444569017	 0.086329
H	 2.3068110231	 0.9595214068	 0.5601170583	 0.10162
H	 0.8520216397	-1.1876736306	 2.9578012095	 0.286712
H	 0.1470213218	-2.5403568344	-0.0496582439	 0.101374
H	 1.8790919012	-2.5157409858	 0.4223740799	 0.08672
108.4362	133.7055	179.4715	223.8373	267.3833	330.3513	363.4806	402.6045	434.7857	465.8935	479.845	547.2038	595.0814	656.2383	724.2591	772.1999	805.3671	904.1793	937.5412	948.0353	953.7322	969.6239	1008.3828	1041.0875	1052.6972	1063.2569	1109.6791	1119.5795	1124.9201	1171.0815	1181.8072	1196.2338	1218.0023	1241.9938	1271.2778	1288.6548	1367.3672	1377.8419	1414.2561	1443.3457	1487.1977	1497.8211	1513.1112	1529.7805	1558.6208	3023.6303	3040.4385	3058.902	3065.0349	3073.2953	3109.2219	3137.6425	3139.3864	3157.4065	3165.7105	3779.9783	3804.863
CC1(CO)C2CC1(O)C2	C[C@@]1(CO)[C@H]2C[C@]1(O)C2	
InChI=1S/C7H12O2/c1-6(4-8)5-2-7(6,9)3-5/h5,8-9H,2-4H2,1H3	InChI=1S/C7H12O2/c1-6(4-8)5-2-7(6,9)3-5/h5,8-9H,2-4H2,1H3/t5-,6-,7-/m1/s1
