18
gdb 82829	2.36029	2.00375	1.51458	2.8087	70.34	-0.2046	0.0651	0.2697	930.2924	0.148099	-439.013148	-439.00546	-439.004516	-439.044815	30.689	
O	-0.1036532368	 1.4699531634	-0.0112359218	-0.436194
C	-0.0430108401	 0.0632650406	 0.0401391386	 0.053904
C	 0.3113417843	-0.6632488497	 1.3715980679	-0.113938
C	-0.4832828709	-0.0965979523	 2.558682748	-0.1715
N	-1.7353433696	-0.8171233104	 2.1422064467	-0.146445
C	-2.4093982813	-0.079127764	 1.0172176474	-0.238525
C	-1.4135589422	-0.6479506585	-0.0127030582	 0.371244
O	-1.8688137523	-1.1110475634	-1.2481980462	-0.487837
C	-0.915246852	-1.599232317	 1.1188839924	-0.048601
H	 0.7929080625	 1.820243657	-0.0001121387	 0.287479
H	 0.5731112907	-0.3506306485	-0.7714682295	 0.076437
H	 1.343846014	-0.9858540375	 1.5141343619	 0.064496
H	-0.1411281181	-0.4868721946	 3.5222473431	 0.104091
H	-0.5768213624	 0.9922157291	 2.6251891977	 0.105728
H	-3.4127103934	-0.4872438922	 0.8585562532	 0.107154
H	-2.4647674222	 1.0066835503	 1.1380854803	 0.111363
H	-2.0727083126	-0.3454828897	-1.7980821943	 0.28319
H	-0.9388020075	-2.6870014723	 1.1111481715	 0.077954
160.0641	191.3315	230.8975	248.4427	274.4122	347.7209	436.7248	470.1029	577.4826	584.5328	615.2349	754.2061	808.7794	820.4945	879.8679	897.5235	911.7378	965.9648	973.5388	1006.379	1026.9218	1049.511	1113.0035	1136.5133	1148.3971	1175.397	1190.8577	1194.7016	1204.346	1233.7756	1253.7234	1265.1116	1301.9846	1316.9978	1343.4398	1371.3278	1427.6408	1486.0381	1506.1356	2999.372	3038.5879	3043.1802	3087.282	3093.0237	3101.7948	3136.6125	3791.2542	3815.4488
OC1C2CN3CC1(O)C23	O[C@H]1[C@H]2CN3C[C@]1(O)[C@@H]23	
InChI=1S/C6H9NO2/c8-5-3-1-7-2-6(5,9)4(3)7/h3-5,8-9H,1-2H2	InChI=1S/C6H9NO2/c8-5-3-1-7-2-6(5,9)4(3)7/h3-5,8-9H,1-2H2/t3-,4+,5-,6-/m0/s1
