16
gdb 98113	4.99052	0.80787	0.70129	1.8204	73.94	-0.2448	-0.067	0.1777	1553.4505	0.120966	-437.897979	-437.887888	-437.886944	-437.934295	34.426	
C	-0.0070832015	 1.4786990182	 0.0599655518	-0.336885
N	-0.0980212429	 0.0349583472	 0.1114707564	-0.309249
C	-1.2527956172	-0.640199525	-0.054441624	 0.337166
O	-2.3537946996	-0.1582537476	-0.2648964473	-0.373894
C	-1.0514475644	-2.1701571412	 0.05099126	 0.295223
O	 0.0397707967	-2.6398487133	 0.259178833	-0.290577
C	-2.3314834468	-2.9752829041	-0.1302518745	-0.483073
C	-2.1538894397	-4.4121457981	-0.0331841558	 0.313701
C	-2.0092502125	-5.6011499745	 0.0467443524	-0.413612
H	 0.6617257882	 1.8038509015	-0.7441537517	 0.136024
H	-1.0088205815	 1.86705546	-0.1294633442	 0.170571
H	 0.3619871564	 1.8852096129	 1.0076825765	 0.136025
H	 0.7204044055	-0.5334282923	 0.2777373328	 0.268573
H	-3.055749613	-2.6018859456	 0.605799807	 0.175393
H	-2.7652256431	-2.6808833801	-1.0951117942	 0.175395
H	-1.8826314746	-6.652984318	 0.1172237718	 0.199218
37.8352	71.0573	91.0888	108.5525	142.2637	204.1746	290.6234	320.9554	362.5302	408.1352	421.0278	513.0886	624.7458	632.0121	652.4917	712.1108	761.3365	850.8514	930.7656	941.8354	1017.5991	1135.3876	1151.8184	1182.4598	1190.3218	1251.3045	1346.9516	1414.0223	1444.3471	1493.9949	1497.1589	1571.8274	1783.0221	1815.2978	2251.4959	3032.4137	3034.013	3054.8276	3087.1103	3149.9596	3507.4957	3607.8112
CNC(=O)C(=O)CC#C	CNC(=O)C(=O)CC#C	
InChI=1S/C6H7NO2/c1-3-4-5(8)6(9)7-2/h1H,4H2,2H3,(H,7,9)	InChI=1S/C6H7NO2/c1-3-4-5(8)6(9)7-2/h1H,4H2,2H3,(H,7,9)
