19
gdb 76552	2.51547	1.32014	1.1602	3.5067	72.29	-0.2341	0.053	0.2871	1158.4672	0.156856	-460.113249	-460.103646	-460.102702	-460.147945	34.92	
C	-0.1781293416	 1.4415433618	-0.1707962584	-0.400549
C	 0.0190181012	-0.0566328006	-0.1407309261	-0.126634
C	 1.4184870396	-0.6704620796	-0.1891089574	 0.018797
O	 2.5394847798	 0.1585602285	-0.1516708085	-0.436081
C	 0.6041953823	-0.7285194082	 1.0648536337	 0.398359
O	 1.0885214901	 0.0261913948	 2.1865230909	-0.322769
C	 0.6192857884	-0.9977331167	 3.1021501648	-0.09796
C	 0.0997698516	-1.8703325272	 1.9297533381	-0.057258
O	-1.2920223294	-2.050662354	 1.8302744215	-0.422267
H	 0.6678930273	 1.955191302	 0.2891817078	 0.129355
H	-0.2653340558	 1.7970607851	-1.2023172835	 0.118314
H	-1.0864375621	 1.7288945666	 0.3679399852	 0.118582
H	-0.7489413212	-0.6457600329	-0.6369493679	 0.09793
H	 1.5685785649	-1.5731019733	-0.7783133237	 0.092936
H	 2.7068573487	 0.3504469786	 0.7818336801	 0.29635
H	 1.4382874806	-1.4108304064	 3.7005649596	 0.106199
H	-0.1782391428	-0.6224294102	 3.7518877984	 0.113454
H	 0.6391383145	-2.8166355959	 1.7969176569	 0.083221
H	-1.5356378162	-2.8343608324	 2.3326660085	 0.290023
58.5334	112.8789	125.9047	157.1011	201.809	228.4814	259.4929	306.1207	403.2495	436.1916	477.0214	560.8862	617.5635	647.962	780.9261	807.6574	856.1541	928.2043	954.8352	995.0386	1006.9024	1058.168	1070.6166	1098.9975	1136.6292	1144.7562	1157.6051	1173.7972	1187.6675	1213.8494	1271.0509	1303.5886	1328.7024	1337.1159	1390.3359	1411.3393	1431.5938	1472.149	1487.7458	1500.4753	1510.8232	3018.843	3033.7229	3042.6476	3092.0826	3102.2177	3119.0688	3130.6965	3144.4722	3734.8773	3823.0565
CC1C(O)C11OCC1O	C[C@H]1[C@@H](O)[C@]21OC[C@H]2O	
InChI=1S/C6H10O3/c1-3-5(8)6(3)4(7)2-9-6/h3-5,7-8H,2H2,1H3	InChI=1S/C6H10O3/c1-3-5(8)6(3)4(7)2-9-6/h3-5,7-8H,2H2,1H3/t3-,4+,5+,6+/m0/s1
