20
gdb 108964	3.75485	1.24953	1.13912	1.8085	83.54	-0.2063	0.0097	0.216	1165.0624	0.172854	-365.978925	-365.971199	-365.970254	-366.011336	30.583	
C	 0.1304718645	 1.5458994904	-0.1354704497	-0.372555
C	-0.054662971	 0.033473312	 0.0828307436	-0.302851
C	 0.6508881595	-0.4758615597	 1.3018103393	 0.355755
C	 0.1416313608	-1.0537441883	 2.3944955421	-0.214642
C	 1.254545525	-1.4379827538	 3.3033253279	-0.062517
C	 2.4490279105	-2.1727308682	 2.7465624633	-0.041659
C	 2.5828846955	-2.0642708726	 1.2379119781	-0.245619
C	 2.1592442213	-0.56791059	 1.421658781	-0.11354
N	 2.4663841753	-0.6745817225	 2.9221970436	-0.138048
H	 1.1871976616	 1.8096706929	-0.2442639566	 0.121934
H	-0.3897273948	 1.8734008887	-1.0407646191	 0.1136
H	-0.2673598389	 2.1124064243	 0.7117729305	 0.125078
H	-1.12278526	-0.198397425	 0.1590460284	 0.10501
H	 0.3140312405	-0.4997402295	-0.8050589563	 0.105602
H	-0.9030608887	-1.250822624	 2.5996357193	 0.097402
H	 1.0890137596	-1.5301875525	 4.372746807	 0.088982
H	 3.0403112547	-2.8284880236	 3.3795345352	 0.090765
H	 3.6331099798	-2.1412248239	 0.9481499006	 0.113215
H	 1.9730244676	-2.7040467442	 0.5925279578	 0.097494
H	 2.7477292172	 0.1873931197	 0.9017528241	 0.076593
70.9432	130.6941	195.5753	260.7161	322.3436	381.1302	501.391	557.6013	610.7435	742.002	752.603	775.9179	788.1437	805.2621	836.5704	864.8027	905.0111	927.8137	966.6594	980.516	1004.6918	1032.6289	1058.1648	1069.8503	1088.2453	1098.6494	1140.88	1163.9455	1192.8286	1223.3631	1253.9292	1262.3364	1289.6052	1344.2055	1352.0884	1355.5268	1373.2557	1410.3892	1478.081	1485.5111	1497.818	1505.8489	1698.3344	3006.8122	3038.7221	3047.9271	3060.7422	3106.345	3109.5133	3113.514	3117.8301	3146.1754	3158.2487	3211.4762
CCC1=CC2C3CC1N23	CCC1=C[C@H]2[C@H]3C[C@@H]1N23	
InChI=1S/C8H11N/c1-2-5-3-7-8-4-6(5)9(7)8/h3,6-8H,2,4H2,1H3	InChI=1S/C8H11N/c1-2-5-3-7-8-4-6(5)9(7)8/h3,6-8H,2,4H2,1H3/t6-,7-,8+,9?/m0/s1
