18
gdb 8036	3.48827	1.90682	1.51139	2.367	67.2	-0.2411	0.06	0.3012	888.6463	0.153199	-384.905838	-384.898079	-384.897135	-384.937709	29.725	
C	-0.6560177902	 1.3235673295	 0.0036265972	-0.400911
C	 0.0448633728	-0.0259945471	 0.0140199466	 0.023972
C	 1.2384422914	-0.2534242506	-0.9762365945	-0.331459
C	 2.1609533758	-0.643481639	 0.2105902064	 0.36344
O	 2.951915032	-1.7848578942	 0.1313929386	-0.472891
C	 2.8554443434	 0.538704461	 0.8940317826	-0.104278
O	 1.6860827144	 0.8231328054	 1.6976957164	-0.287296
C	 0.9857069399	-0.3393207164	 1.2086446951	 0.023671
H	 0.0578509102	 2.1271619296	 0.2025897493	 0.130619
H	-1.1321596834	 1.5116012686	-0.9644543959	 0.109803
H	-1.4322706627	 1.3711788534	 0.7749329792	 0.116044
H	-0.6877933208	-0.8340858686	-0.0922850784	 0.070256
H	 1.0737368687	-1.0757028219	-1.6803790529	 0.09231
H	 1.5638243669	 0.6210395521	-1.5481204797	 0.104203
H	 2.4760152762	-2.458516944	-0.3648513662	 0.281437
H	 3.7043750408	 0.2258997049	 1.514375836	 0.110094
H	 3.1500765968	 1.3851165384	 0.2620195614	 0.099324
H	 0.6299902078	-0.9835933811	 2.0174457489	 0.071663
74.3535	209.8634	233.2021	243.6055	299.637	333.753	377.6713	414.8574	523.8767	632.974	651.4416	781.6614	866.8958	876.1964	912.0158	925.1258	964.4229	989.6894	1007.8421	1046.5236	1108.1444	1115.5371	1120.8645	1150.832	1178.004	1188.7474	1234.3414	1276.3689	1293.2361	1315.2868	1345.9657	1359.4984	1408.1317	1409.6433	1475.8152	1491.3551	1500.2726	1517.2093	3015.3475	3032.7121	3035.5395	3042.4718	3066.7836	3073.4846	3092.3766	3096.9579	3120.0265	3815.9451
CC1CC2(O)COC12	C[C@H]1C[C@@]2(O)CO[C@@H]12	
InChI=1S/C6H10O2/c1-4-2-6(7)3-8-5(4)6/h4-5,7H,2-3H2,1H3	InChI=1S/C6H10O2/c1-4-2-6(7)3-8-5(4)6/h4-5,7H,2-3H2,1H3/t4-,5-,6+/m0/s1
