27
gdb 101473	3.12818	0.89484	0.7399	0.0907	95.89	-0.2946	0.0816	0.3762	1673.8294	0.253154	-353.58626	-353.575753	-353.574809	-353.62245	39.538	
C	-0.1437822253	 1.5373393078	-0.1081890152	-0.390765
C	-0.0681304372	 0.0144835167	 0.0489881292	-0.169284
C	 0.7388089593	-0.4757941603	 1.2691416656	 0.023126
C	 0.0826857786	-0.039117003	 2.5881877831	-0.402612
C	 0.9453404948	-2.0022227381	 1.218773897	 0.07185
C	 1.7249360317	-2.5056224491	-0.0324283808	-0.217816
C	 2.5949450507	-3.707080502	 0.4350663088	-0.209226
C	 2.1673701916	-3.9806663723	 1.891072671	-0.204157
C	 1.7286031783	-2.6036965016	 2.4050865155	-0.221834
H	 0.858196215	 1.9793910005	-0.1545534333	 0.111247
H	-0.6665384782	 1.8075299793	-1.0313353312	 0.10948
H	-0.6778242664	 2.0140903274	 0.7191236602	 0.116875
H	-1.0851276628	-0.3986415673	 0.109243097	 0.088224
H	 0.3739289142	-0.4050328423	-0.8615178141	 0.096558
H	 1.7368947824	-0.0113994279	 1.2170253657	 0.060767
H	-0.906809706	-0.4994280836	 2.7018537663	 0.107774
H	 0.6851710626	-0.3287912317	 3.4533110159	 0.113966
H	-0.0499347424	 1.0454002516	 2.633833543	 0.110744
H	-0.050160491	-2.4715089813	 1.2140988803	 0.060465
H	 1.0436662966	-2.7890492394	-0.8392794125	 0.097229
H	 2.3600125655	-1.7062502391	-0.4305643819	 0.093814
H	 2.477763435	-4.5850528639	-0.2062981523	 0.092536
H	 3.6559554456	-3.4370906995	 0.4045480421	 0.096446
H	 1.3123119711	-4.6679226263	 1.9122913017	 0.09366
H	 2.9608662045	-4.4359079765	 2.4911072327	 0.088897
H	 2.6116082894	-1.984725722	 2.6194691434	 0.089243
H	 1.1403179623	-2.6602888663	 3.3249669627	 0.092792
40.5918	72.6727	92.5749	159.4103	191.0617	216.6206	242.2134	304.0699	324.113	375.7719	403.6284	477.0949	567.5289	622.7048	771.9791	780.4117	826.5443	846.4447	868.6026	906.1383	933.1387	954.4887	961.7376	979.1633	1002.8247	1014.919	1038.9954	1052.2269	1079.9705	1109.1902	1157.7141	1181.2106	1197.4763	1212.0059	1231.9678	1269.2769	1283.8701	1299.2889	1308.88	1324.413	1339.8407	1345.4175	1347.4701	1361.069	1377.073	1391.9328	1408.0675	1414.2503	1483.8181	1489.4384	1490.4006	1495.3876	1496.5069	1499.1473	1507.6087	1513.7421	1517.0183	2969.9303	2985.7408	3009.6399	3011.8352	3028.3597	3028.8363	3031.5502	3033.4515	3047.4208	3060.4382	3073.0566	3083.4372	3087.0648	3094.5702	3096.4309	3098.2442	3105.8899	3114.6046
CCC(C)C1CCCC1	CC[C@@H](C)C1CCCC1	
InChI=1S/C9H18/c1-3-8(2)9-6-4-5-7-9/h8-9H,3-7H2,1-2H3	InChI=1S/C9H18/c1-3-8(2)9-6-4-5-7-9/h8-9H,3-7H2,1-2H3/t8-/m1/s1
