18
gdb 88242	3.40489	0.73728	0.63881	3.9931	86.37	-0.2495	0.0195	0.2689	1729.463	0.146344	-364.789996	-364.780261	-364.779317	-364.827081	34.182	
C	-0.5535137044	 1.3384111522	 0.5240127714	-0.407051
C	 0.009364001	-0.0013937392	 0.1127257343	 0.01679
C	 1.4182285392	-0.1325032045	-0.38265451	-0.287181
C	 1.0457824939	-0.7236849023	 0.9730189678	-0.190502
C	 1.5430425422	-0.1366137732	 2.1812544081	 0.126346
C	 1.9571029791	 0.3433254614	 3.2053681903	 0.054741
C	 2.4635748621	 0.921738803	 4.4467894718	-0.475218
C	 1.4374725107	 1.6464955426	 5.2107788809	 0.2792
N	 0.6404089468	 2.2204820431	 5.8177719503	-0.303473
H	 0.206001814	 1.9537547013	 1.0137528597	 0.128405
H	-0.9231696419	 1.8860838385	-0.3493997972	 0.119285
H	-1.3856392817	 1.2201344605	 1.2255928069	 0.128578
H	-0.711782091	-0.6728857476	-0.345586852	 0.094707
H	 1.6387623461	-0.8283563282	-1.1843287676	 0.119246
H	 2.0404992013	 0.7555598005	-0.3695697314	 0.124435
H	 0.9542046605	-1.8054481892	 1.00611697	 0.112674
H	 2.8782895079	 0.1378725762	 5.0940754672	 0.18058
H	 3.2899595441	 1.6161520948	 4.2454672395	 0.178439
10.0412	57.1257	115.3626	138.8143	202.4501	255.1278	300.3778	350.9459	375.2657	384.3906	464.9839	538.57	611.5454	731.9768	764.8402	851.9112	877.8305	919.2495	932.38	938.7891	990.2303	1068.1854	1069.7501	1101.3819	1143.8857	1180.8664	1199.4784	1234.925	1242.5497	1336.9505	1381.2688	1405.114	1424.9031	1446.724	1483.7029	1492.1847	1501.4677	2365.5251	2372.8251	3021.243	3036.458	3050.4253	3098.7477	3114.0012	3136.1456	3140.7338	3149.9884	3225.8322
CC1CC1C#CCC#N	C[C@H]1C[C@H]1C#CCC#N	
InChI=1S/C8H9N/c1-7-6-8(7)4-2-3-5-9/h7-8H,3,6H2,1H3	InChI=1S/C8H9N/c1-7-6-8(7)4-2-3-5-9/h7-8H,3,6H2,1H3/t7-,8+/m0/s1
