19
gdb 95492	2.11597	1.52764	0.92597	2.5331	79.18	-0.2405	-0.0516	0.1888	1240.2824	0.160207	-423.054602	-423.046087	-423.045143	-423.088161	32.366	
O	 0.1176327232	 1.3231854438	 0.334434617	-0.4359
C	 0.0208893249	-0.0750585823	 0.0766831471	 0.115118
C	-1.4737363132	-0.3866975787	 0.0625465123	-0.199646
C	-1.8299548916	-1.8559707264	 0.2877653159	-0.272105
C	-1.2554070148	-2.8923138441	-0.6340879594	-0.038558
C	-0.1736756328	-2.887006969	-1.4255716797	-0.139854
C	 0.8678771514	-1.8609776287	-1.6682604844	 0.349579
O	 1.8743476992	-2.1972984622	-2.2668587293	-0.325275
C	 0.7173188115	-0.4033555195	-1.248090126	-0.329494
H	 1.0452131071	 1.5753709077	 0.2808632693	 0.282973
H	 0.5003171643	-0.6408049565	 0.8941795172	 0.070092
H	-1.9372189339	 0.2076780371	 0.8560603334	 0.115665
H	-1.9013924296	-0.0346950958	-0.8839521649	 0.10583
H	-1.551357108	-2.1470935365	 1.3133017401	 0.127482
H	-2.9221601848	-1.9580351102	 0.2621697863	 0.117446
H	-1.8067483574	-3.8322747086	-0.6075300238	 0.107504
H	 0.0646189621	-3.8017642073	-1.9626823263	 0.106722
H	 0.1720718557	 0.1121684519	-2.0512137739	 0.131674
H	 1.7339751766	 0.0045039352	-1.2513801409	 0.110747
51.5764	112.5746	192.9885	299.2709	306.7026	327.6	336.2234	372.1315	440.8353	491.1253	545.0252	615.2649	688.7172	759.2292	826.8188	854.7418	895.3436	928.2588	936.9262	1040.9516	1051.993	1076.1154	1082.4604	1103.4003	1159.1578	1213.6109	1231.6208	1282.4657	1287.8261	1303.425	1313.0291	1364.4192	1388.385	1399.1721	1428.1601	1438.1285	1459.7168	1466.6954	1495.8039	1699.7737	1745.9541	2950.4713	2989.757	3019.9383	3033.8933	3047.1365	3074.5039	3087.8446	3124.8423	3166.4357	3814.1952
OC1CCC=CC(=O)C1	O[C@H]1CCC=CC(=O)C1	
InChI=1S/C7H10O2/c8-6-3-1-2-4-7(9)5-6/h1,3,7,9H,2,4-5H2	InChI=1S/C7H10O2/c8-6-3-1-2-4-7(9)5-6/h1,3,7,9H,2,4-5H2/t7-/m0/s1
