14
gdb 17984	4.01722	1.87894	1.59553	1.2725	62.95	-0.2486	0.0132	0.2618	811.326	0.106386	-382.44838	-382.441602	-382.440658	-382.479533	25.386	
C	 0.1393258369	-1.1394028576	 0.2791627045	-0.432513
C	 0.099651566	 0.0544934882	 0.1501731247	 0.347714
C	 0.0428911452	 1.4900940084	-0.0251941655	-0.099475
O	-0.349479027	 2.2353048274	 1.171258745	-0.301401
C	 0.8295198587	 3.0555693482	 1.1151335893	 0.063181
C	 2.0269953446	 2.4535832	 1.8693120978	-0.092048
O	 2.4401299827	 1.720797551	 0.6817161494	-0.280898
C	 1.3818678164	 2.2815011936	-0.0947987759	 0.059666
H	 0.1839198266	-2.1940962022	 0.3967514881	 0.203935
H	-0.6313442181	 1.7504881725	-0.8526749412	 0.10901
H	 0.6157021949	 4.1223276339	 1.1893209404	 0.094946
H	 2.7989545434	 3.1698464082	 2.1756547664	 0.107611
H	 1.7636597724	 1.795575253	 2.7029735482	 0.12422
H	 1.7052914872	 2.6651196152	-1.0634640915	 0.096052
88.1735	145.4355	226.8274	334.2878	394.2311	522.6259	566.8818	622.3257	679.1101	723.4985	801.1422	809.4457	897.726	940.723	961.8372	999.6304	1010.184	1039.0646	1083.2895	1092.8911	1161.6457	1194.9684	1214.162	1269.5287	1291.7803	1328.4048	1350.3692	1361.1367	1502.6778	2239.3518	3009.9259	3026.3579	3092.9135	3100.1401	3113.0803	3502.3927
C#CC1OC2COC12	C#C[C@H]1O[C@H]2CO[C@@H]12	
InChI=1S/C6H6O2/c1-2-4-6-5(8-4)3-7-6/h1,4-6H,3H2	InChI=1S/C6H6O2/c1-2-4-6-5(8-4)3-7-6/h1,4-6H,3H2/t4-,5+,6+/m1/s1
