16
gdb 77275	2.52618	1.21684	1.07654	2.8597	73.5	-0.2507	0.0183	0.269	1181.008	0.121441	-437.815731	-437.806484	-437.80554	-437.85019	33.285	
O	-0.6511974312	 1.2543797963	 0.3286973035	-0.415179
C	-0.3330055839	-0.0787632898	 0.1388686631	 0.076845
C	-1.4286488811	-1.0759665949	-0.1541505949	 0.049038
O	-2.7323051005	-0.6121375375	-0.3172459015	-0.185639
C	-3.3255634321	-0.0966733981	 0.7928824153	 0.138869
N	-4.5252293148	 0.280828365	 0.7268587716	-0.441338
C	-0.440748346	-0.6992262947	-1.2562987727	-0.316582
C	-0.8581754777	 0.1695879523	-2.3126340192	 0.306647
C	-1.1840803205	 0.9675417331	-3.1527374044	-0.415197
H	-0.8999546213	 1.6353182167	-0.5259480077	 0.30018
H	 0.4950612714	-0.3992210923	 0.7643258558	 0.118358
H	-1.3515725485	-2.0838724666	 0.2481858307	 0.11224
H	-2.6638468974	-0.0666042727	 1.6648039798	 0.103497
H	-4.8227624166	 0.6442512537	 1.6299709842	 0.231382
H	 0.2917507185	-1.4553558644	-1.5204763737	 0.127611
H	-1.4967303586	 1.6324256238	-3.9199310801	 0.209267
67.4557	99.4045	117.2417	155.0827	196.5118	271.0872	298.3807	348.0504	389.504	539.12	605.1792	625.3463	654.3927	676.094	731.458	758.3615	788.5364	823.4643	909.7009	998.9692	1039.8252	1052.3766	1067.8786	1109.1911	1119.9503	1171.7736	1246.1337	1283.2551	1347.5441	1351.6466	1375.5183	1417.2309	1438.6713	1747.6185	2232.7782	3069.2229	3124.6805	3152.3727	3162.3388	3500.9433	3518.7569	3723.3831
OC1C(OC=N)C1C#C	O[C@H]1[C@@H](O[CH][NH])[C@H]1C#C	
InChI=1S/C6H7NO2/c1-2-4-5(8)6(4)9-3-7/h1,3-8H	InChI=1S/C6H7NO2/c1-2-4-5(8)6(4)9-3-7/h1,3-8H/t4-,5+,6-/m0/s1
