16
gdb 34122	3.48854	1.53706	1.4115	4.9155	73.08	-0.2676	0.0102	0.2778	943.9805	0.126293	-400.716489	-400.710017	-400.709072	-400.74724	26.519	
N	 0.0182438961	-1.0993454374	-0.1063878245	-0.337817
C	 0.0111854307	 0.0550869962	-0.058599587	 0.184712
C	 0.0438480586	 1.496331113	 0.0580086431	 0.322654
C	-0.3985432112	 2.2667421592	 1.3292980999	-0.27335
C	 0.3968883454	 3.3979651929	 0.6649735087	-0.089816
C	-0.0610046227	 3.4441111741	-0.8553449492	 0.079843
C	 1.3871188966	 3.1233070926	-1.2841858096	-0.244412
C	 1.393970737	 2.3543872592	 0.0417484852	-0.099507
O	-0.7022713333	 2.1590240569	-0.9733971096	-0.299378
H	-1.4757463098	 2.359210038	 1.4797841945	 0.120703
H	 0.1014351911	 1.9077085043	 2.2316183232	 0.122514
H	 0.7077367358	 4.3153384774	 1.1581918663	 0.091492
H	-0.679918061	 4.2232818553	-1.2944194441	 0.094102
H	 1.5191684601	 2.59268081	-2.2292869142	 0.118344
H	 2.0467803208	 3.9931718046	-1.2250884339	 0.111789
H	 2.2668362559	 1.9489105738	 0.5475535612	 0.098125
144.5822	169.1835	398.2596	413.9012	500.066	520.8351	548.6902	569.3528	648.0967	731.9367	804.0939	834.7777	872.3903	888.6859	942.7263	948.5687	959.7427	989.7047	1014.0307	1023.9655	1047.637	1075.6625	1095.4678	1137.7051	1182.0537	1188.7679	1210.4793	1242.02	1258.0623	1269.8138	1298.3331	1311.3799	1479.0446	1479.7648	2364.1309	3066.2965	3073.0125	3130.9036	3140.3532	3149.2401	3152.4335	3160.0023
N#CC12CC3C(CC13)O2	N#C[C@@]12C[C@@H]3[C@@H](C[C@H]13)O2	
InChI=1S/C7H7NO/c8-3-7-2-4-5(7)1-6(4)9-7/h4-6H,1-2H2	InChI=1S/C7H7NO/c8-3-7-2-4-5(7)1-6(4)9-7/h4-6H,1-2H2/t4-,5-,6+,7-/m0/s1
