20
gdb 87578	2.55658	1.42641	1.20031	1.4825	79.13	-0.233	0.0702	0.3032	1146.0727	0.169668	-403.086799	-403.077968	-403.077024	-403.120044	33.774	
C	 0.0918569014	 1.6119659525	-0.0685967705	-0.413894
C	-0.0435994532	 0.1206193118	 0.0867346908	-0.018788
O	 1.1532176495	-0.6705348076	-0.1045378831	-0.313464
C	 0.5683462959	-0.6250409458	 1.1840492629	 0.470304
C	 1.3179301441	-0.1404003731	 2.4115146652	-0.179818
N	 0.2756382693	-0.045560981	 3.4738799049	-0.33945
C	 0.893384816	-1.3552609049	 3.1612149574	-0.058573
C	 0.1453860953	-1.9196093486	 1.9341585589	-0.077648
C	-1.3275916843	-2.2725185189	 2.074659827	-0.414371
H	 0.9798205053	 1.9798882903	 0.45143052	 0.122118
H	 0.173530953	 1.8861973462	-1.1255997524	 0.126114
H	-0.7876584212	 2.1163532032	 0.3454202292	 0.127669
H	-0.9233553132	-0.3198309892	-0.3859051733	 0.087764
H	 2.2361075938	 0.4311259759	 2.4572460342	 0.102219
H	 0.7373421676	 0.3142453586	 4.3091905628	 0.230717
H	 1.4254803515	-1.9156380659	 3.9199336937	 0.09435
H	 0.7168657917	-2.7478120718	 1.500862448	 0.090833
H	-1.8712711405	-1.452854523	 2.5510160843	 0.13675
H	-1.7802775727	-2.4684567406	 1.0967934071	 0.115694
H	-1.4586202693	-3.1732842678	 2.6843064728	 0.111473
105.1021	137.9167	176.4816	184.1847	219.6741	259.6371	284.3166	434.3025	463.9183	485.3968	565.2096	630.0611	726.5776	789.9692	828.6724	839.4551	862.1631	911.6028	928.7086	946.6329	998.6239	1027.2118	1058.0907	1077.4769	1107.4193	1110.3542	1128.0685	1132.2595	1156.302	1179.7627	1215.3355	1284.572	1304.3882	1349.3866	1361.1504	1377.7121	1404.9932	1408.7841	1475.0094	1489.1915	1492.308	1501.7144	1531.7794	3033.1995	3037.6684	3056.0047	3090.4515	3094.0207	3102.0997	3124.0189	3126.2424	3187.6699	3202.9788	3469.2481
CC1OC11C2NC2C1C	C[C@H]1O[C@]21[C@H]1N[C@H]1[C@H]2C	
InChI=1S/C7H11NO/c1-3-5-6(8-5)7(3)4(2)9-7/h3-6,8H,1-2H3	InChI=1S/C7H11NO/c1-3-5-6(8-5)7(3)4(2)9-7/h3-6,8H,1-2H3/t3-,4-,5+,6+,7-/m1/s1
