16
gdb 15606	3.62245	1.58295	1.29179	2.9326	61.41	-0.2495	-0.0259	0.2237	943.1315	0.12985	-420.877531	-420.869465	-420.868521	-420.911127	28.052	
O	-0.2445853612	 1.4737257002	 0.6213487614	-0.435856
C	 0.0013640049	 0.1741719343	 0.1029095311	 0.085116
C	 0.7669237988	-0.7134644135	 1.086926749	-0.088645
O	-0.1825643574	-1.1651549981	 2.0386869237	-0.257369
C	-1.5010549277	-1.0343084344	 1.5083186547	-0.079512
C	-1.352081745	-0.5639472842	 0.044481599	-0.118299
C	-2.5061866448	 0.2918627159	-0.4338094991	 0.148892
O	-3.1819401928	 0.0286164476	-1.3957330437	-0.255186
H	 0.6007550112	 1.8932516575	 0.807785697	 0.291169
H	 0.4874977329	 0.2231449976	-0.8805245623	 0.083625
H	 1.2304170358	-1.5612139528	 0.5572782253	 0.09604
H	 1.5597289727	-0.1638092181	 1.6093280723	 0.099569
H	-2.0196660748	-1.9966838127	 1.5729592141	 0.114911
H	-2.0583488337	-0.300387258	 2.1060927464	 0.110809
H	-1.2649016509	-1.4178059393	-0.6321640712	 0.102248
H	-2.6986172181	 1.1926812278	 0.1830590023	 0.102489
46.7606	66.5704	129.4543	234.1872	260.0342	311.8633	375.1566	452.4302	477.5705	717.4979	774.5146	872.5818	880.7389	938.7548	948.7224	990.8871	1020.7607	1061.1268	1110.3088	1127.0941	1151.8337	1189.496	1229.3053	1243.2466	1288.4681	1313.1363	1343.3324	1365.2754	1396.6727	1420.3435	1426.8804	1507.6582	1524.1367	1826.6446	2933.5445	2976.0743	3013.0901	3022.1718	3047.5759	3062.8829	3090.1955	3828.3929
OC1COCC1C=O	O[C@H]1COC[C@H]1C=O	
InChI=1S/C5H8O3/c6-1-4-2-8-3-5(4)7/h1,4-5,7H,2-3H2	InChI=1S/C5H8O3/c6-1-4-2-8-3-5(4)7/h1,4-5,7H,2-3H2/t4-,5+/m1/s1
