23
gdb 90781	3.67555	1.28885	1.18868	0.1602	88.87	-0.2423	0.0931	0.3354	1177.8416	0.207422	-351.152628	-351.144327	-351.143382	-351.184846	33.923	
C	-0.0626077084	 1.5565669345	 0.0086701086	-0.40344
C	-0.0077632695	 0.0261863734	 0.0127143761	 0.042313
C	 0.7960837802	-0.5374107625	-1.198940237	-0.255785
C	 2.1593158983	-0.9013745666	-0.611227344	-0.076445
C	 2.2760407827	-0.4489084477	 0.8214042319	-0.129918
C	 0.7753356449	-0.5162093704	 1.2221060042	-0.028526
C	 0.8762167968	-2.0748669405	 1.1794850191	-0.30574
C	 2.243584775	-1.9381335757	 0.5016278346	 0.357707
C	 3.3382099464	-2.9646728403	 0.5621214188	-0.504483
H	 0.9474550104	 1.9830282241	 0.0060296938	 0.117513
H	-0.5838027992	 1.9329396376	-0.8780217861	 0.10876
H	-0.5840716071	 1.9395091418	 0.8928076307	 0.106986
H	-1.0312472486	-0.3678910353	 0.0175794183	 0.06232
H	 0.3004717753	-1.4044842358	-1.6492271586	 0.093879
H	 0.8978152232	 0.2134512788	-1.9898174814	 0.091757
H	 3.040446049	-0.8430070065	-1.242020283	 0.073317
H	 3.063228834	 0.1685532479	 1.2347889993	 0.075245
H	 0.4766201027	-0.0856047371	 2.1788483308	 0.05836
H	 0.9793490368	-2.5005094876	 2.1823106508	 0.092287
H	 0.0827507648	-2.6164533881	 0.6485552758	 0.080816
H	 3.0861760277	-3.8525296964	-0.0312540419	 0.116063
H	 4.2813772416	-2.5658129164	 0.1733243856	 0.114261
H	 3.5161557431	-3.2964430114	 1.5920848736	 0.112754
117.4705	193.0868	212.2744	250.2339	284.4541	291.5097	367.9057	408.4769	450.0026	592.4282	692.3174	705.0717	730.5463	791.1473	824.6835	862.2734	893.5885	911.7892	921.2677	945.4978	980.352	983.2287	1000.3319	1026.7267	1032.0122	1054.9785	1074.9951	1125.0956	1130.5544	1163.096	1204.6264	1206.8477	1225.6426	1233.0046	1252.2856	1276.4938	1303.0385	1322.6945	1331.1707	1363.8987	1405.908	1413.3067	1438.9958	1485.2341	1490.3125	1496.7248	1498.5495	1501.2914	1508.5578	3014.1434	3017.7697	3023.1934	3025.4505	3040.0242	3070.5425	3072.1371	3077.6795	3089.5948	3091.2702	3093.9791	3101.4297	3163.3937	3191.1612
CC1CC2C3C1CC23C	C[C@H]1C[C@H]2[C@H]3[C@@H]1C[C@@]23C	
InChI=1S/C9H14/c1-5-3-7-8-6(5)4-9(7,8)2/h5-8H,3-4H2,1-2H3	InChI=1S/C9H14/c1-5-3-7-8-6(5)4-9(7,8)2/h5-8H,3-4H2,1-2H3/t5-,6+,7-,8+,9-/m0/s1
