18
gdb 73963	2.41817	1.43915	0.93373	4.3479	79.19	-0.2204	-0.0362	0.1842	1216.9821	0.148462	-439.1089	-439.100367	-439.099422	-439.141984	32.236	
N	 0.1317744173	 1.3781652165	-0.1572980789	-0.563648
C	-0.0194712781	 0.0228675349	-0.0003368149	 0.226088
C	-1.194027456	-0.6544223161	 0.136544592	 0.111794
C	-1.2047206497	-2.1683892249	 0.136719823	-0.28884
C	 0.1088789331	-2.7248876563	-0.3958044868	-0.104696
O	 1.2121870631	-2.0849971186	 0.2399809962	-0.240805
C	 1.2937803319	-0.7309508036	-0.1057397122	-0.138429
C	-2.4718683698	 0.0121312825	 0.3059671177	 0.070351
O	-3.5422735141	-0.5608174482	 0.3953387269	-0.295912
H	 1.0083086956	 1.7808320353	 0.1364147584	 0.257506
H	-0.663812327	 1.9771117814	-0.0083744061	 0.264665
H	-1.3832101048	-2.5448577362	 1.1519223965	 0.117308
H	-2.045947464	-2.5234549684	-0.4685138514	 0.122383
H	 0.2135171703	-3.7913822868	-0.1821095648	 0.11255
H	 0.175342409	-2.5850000995	-1.487301282	 0.091063
H	 1.6779618653	-0.6001968747	-1.134426364	 0.113726
H	 2.0297302798	-0.2774336992	 0.5715667832	 0.116797
H	-2.444008872	 1.1257950817	 0.373422977	 0.0281
100.1527	136.4116	172.8585	221.1747	317.6797	338.619	358.6502	381.1091	458.8029	463.5089	485.6711	580.0239	614.3189	659.7686	761.609	864.3279	934.0488	985.8226	1003.4704	1023.7752	1033.3242	1093.9089	1166.7783	1180.6775	1227.9736	1230.3676	1258.5642	1316.0952	1338.6922	1374.2416	1406.8038	1422.1523	1463.3759	1478.087	1480.1624	1502.3167	1640.1465	1687.3517	1756.7844	2826.73	2937.4414	2974.081	3028.1109	3034.8573	3072.8406	3098.6318	3583.2821	3691.6953
NC1=C(CCOC1)C=O	NC1=C(CCOC1)C=O	
InChI=1S/C6H9NO2/c7-6-4-9-2-1-5(6)3-8/h3H,1-2,4,7H2	InChI=1S/C6H9NO2/c7-6-4-9-2-1-5(6)3-8/h3H,1-2,4,7H2
