19
gdb 98602	4.28528	0.96402	0.88909	1.8174	76.06	-0.2361	-0.0246	0.2115	1362.789	0.157548	-422.971049	-422.962282	-422.961338	-423.005787	32.123	
C	 1.5227052065	 1.7190910277	 0.0222344379	-0.379891
C	 1.5510369664	 0.2017945112	-0.1383036941	-0.281101
C	 0.8166666105	-0.2958390803	-1.376203091	 0.343605
O	 0.1870380028	 0.4523860422	-2.0931198085	-0.311878
C	 0.9272521936	-1.7840339926	-1.638118352	-0.071709
C	 0.1742628252	-2.4931962789	-2.7937870329	 0.041475
C	 1.1014692605	-1.8365281333	-3.8442493222	-0.228149
C	 1.9523535266	-2.3737549882	-2.6724456583	 0.035752
O	 1.1501086712	-3.6115885582	-2.6844826139	-0.31005
H	 2.0030955325	 2.2114330964	-0.827473549	 0.129211
H	 0.4940767335	 2.0846370428	 0.068350678	 0.135203
H	 2.0417872647	 2.0217317769	 0.9357320332	 0.111718
H	 2.5801747441	-0.1825345712	-0.1772452714	 0.121937
H	 1.1003004705	-0.2970632639	 0.7317063933	 0.127801
H	 0.9359241234	-2.363137567	-0.7111292723	 0.092817
H	-0.8825765651	-2.7494118206	-2.8575433684	 0.10306
H	 1.2091134749	-2.4041787707	-4.7687484771	 0.109423
H	 1.0210292482	-0.761029233	-3.9920411461	 0.131571
H	 3.0336728001	-2.4727353993	-2.5705144252	 0.099206
35.2139	61.5574	140.5562	176.4571	216.426	282.8653	351.4185	422.3049	542.5615	588.9899	686.8376	709.8552	771.9723	828.0418	870.4689	884.211	906.1283	918.3326	933.9715	1008.2839	1011.9371	1038.5404	1062.92	1093.9797	1101.9685	1131.5221	1152.7497	1171.5281	1194.8092	1209.7809	1261.5699	1272.1111	1277.3953	1353.2272	1389.3346	1413.7783	1449.6621	1490.2674	1491.8302	1497.4931	1793.2734	3013.2796	3038.9102	3052.0883	3086.5246	3093.5564	3113.8465	3122.2793	3129.2279	3131.2793	3178.4039
CCC(=O)C1C2CC1O2	CCC(=O)[C@H]1[C@H]2C[C@@H]1O2	
InChI=1S/C7H10O2/c1-2-4(8)7-5-3-6(7)9-5/h5-7H,2-3H2,1H3	InChI=1S/C7H10O2/c1-2-4(8)7-5-3-6(7)9-5/h5-7H,2-3H2,1H3/t5-,6+,7+
