16
gdb 28615	5.14518	1.00809	0.84736	5.3622	83.3	-0.2488	-0.0688	0.18	1314.0108	0.124793	-400.823085	-400.814939	-400.813994	-400.857313	29.078	
C	-0.0164219915	 1.5302141989	 0.0204767577	-0.498896
C	 0.0011861161	 0.0252502847	 0.0162712622	 0.270931
C	-0.0801674271	-0.7004819996	-1.1831952967	-0.064972
N	-0.070767781	-2.0242828476	-1.2696102795	-0.292255
C	 0.0233840759	-2.7180862176	-0.1263627376	 0.204922
C	 0.0355740872	-4.2088614116	-0.2022941541	 0.108475
O	-0.0325294623	-4.8578885763	-1.2134812777	-0.247063
C	 0.1098200541	-2.1028462301	 1.1236427712	-0.144035
C	 0.0984170839	-0.7157203874	 1.1934634311	-0.154411
H	 0.89646126	 1.9364345317	 0.4697708507	 0.141737
H	-0.0980498735	 1.9289334476	-0.9937509708	 0.135804
H	-0.860444663	 1.9155383734	 0.6030242758	 0.141713
H	-0.1574471219	-0.1605741835	-2.1258996614	 0.110653
H	 0.1164139326	-4.6980909866	 0.7965524878	 0.066355
H	 0.1845069463	-2.7069807069	 2.0224517739	 0.112231
H	 0.1643687642	-0.2113750393	 2.1531284873	 0.108811
21.6419	85.6859	167.3669	196.8467	324.7902	340.2358	413.5277	418.9679	501.8507	615.0218	647.1936	768.3429	792.0747	850.4788	870.266	960.5792	988.6113	1009.4212	1034.1412	1042.1199	1067.1163	1156.7365	1216.2781	1244.1484	1305.6162	1339.9281	1406.4057	1414.7231	1440.935	1483.4749	1492.9284	1512.6688	1604.2538	1628.4732	1823.1342	2857.9839	3034.224	3089.2562	3119.5547	3138.2353	3167.722	3184.948
CC1=CN=C(C=O)C=C1	Cc1cnc(C=O)cc1	
InChI=1S/C7H7NO/c1-6-2-3-7(5-9)8-4-6/h2-5H,1H3	InChI=1S/C7H7NO/c1-6-2-3-7(5-9)8-4-6/h2-5H,1H3
