14
gdb 27021	3.06468	1.32432	0.92668	3.7392	78.08	-0.1795	-0.0008	0.1787	1176.6241	0.100452	-432.85905	-432.850496	-432.849552	-432.89193	32.157	
N	 0.1683959576	 1.3637996039	 0.1871451963	-0.60315
C	-0.0118544176	 0.0095131853	 0.0611199313	 0.273541
C	-1.1161840315	-0.7744322409	 0.0238332426	 0.110666
N	-0.6274435744	-2.1117493574	 0.0829575347	-0.420175
C	 0.741376721	-2.1039687846	 0.0110861726	 0.46197
N	 1.5232473736	-3.0923962746	-0.0856387522	-0.602825
O	 1.1198338385	-0.7555332072	 0.073720989	-0.224765
C	-2.4669894403	-0.4138335473	 0.0004597034	 0.207237
C	-3.6326045114	-0.1014897879	-0.041657253	-0.431761
H	 0.9656006387	 1.7201979295	-0.3245235324	 0.265783
H	-0.6731702394	 1.8932758394	 0.0038774142	 0.26972
H	-1.1532682789	-2.9153231312	-0.2138790341	 0.275245
H	 2.4930983171	-2.7913104007	-0.1095402055	 0.226548
H	-4.657523183	 0.1747234738	-0.054374407	 0.191965
114.9523	125.2151	188.5054	246.769	276.3563	328.2392	360.2516	426.8168	432.0989	497.0587	544.7774	609.1328	640.6566	667.4558	693.1488	705.9856	714.8386	738.9877	836.9112	932.1153	1031.9697	1072.1961	1204.4505	1253.8576	1310.3354	1383.5221	1451.5937	1621.8021	1725.2708	1814.0459	2213.7616	3501.6745	3543.452	3549.8463	3649.1866	3686.2614
NC1=C(NC(=N)O1)C#C	NC1=C(N[C@H]([NH])O1)C#C	
InChI=1S/C5H5N3O/c1-2-3-4(6)9-5(7)8-3/h1H,6H2,(H2,7,8)	InChI=1S/C5H6N3O/c1-2-3-4(6)9-5(7)8-3/h1,5,7-8H,6H2/t5-/m0/s1
