18
gdb 30288	3.05411	1.6308	1.10029	1.15	79.38	-0.1764	0.0232	0.1996	1086.2837	0.150036	-401.959913	-401.952371	-401.951427	-401.991796	29.286	
C	-0.1088011679	 1.5188598693	-0.0806404525	-0.331085
N	 0.0655946304	 0.0829629528	 0.0320002601	-0.172333
C	 0.7329722914	-0.5559299896	-1.1367659803	-0.156209
C	 1.3933019872	-1.877799088	-0.6214259557	-0.361105
C	 1.5355620636	-1.4890227282	 0.8104201096	 0.257755
C	 0.7699244846	-0.422392248	 1.1385733893	 0.292908
C	 0.8509819939	-0.2762798318	 2.5586211427	-0.349194
C	 1.6617206721	-1.3014749616	 2.9632390705	-0.008005
O	 2.0760179595	-2.0700617353	 1.9127518606	-0.195544
H	 0.8445828627	 2.0630337872	-0.209265465	 0.099557
H	-0.7489697758	 1.7441461099	-0.9394338231	 0.120707
H	-0.605444909	 1.9010172524	 0.8156523432	 0.126295
H	 0.0145926006	-0.7235976786	-1.9436778035	 0.108593
H	 1.5248050481	 0.1114728356	-1.515265372	 0.094994
H	 0.7245464583	-2.7398325283	-0.7562713066	 0.116344
H	 2.3235336318	-2.0962761056	-1.1544479043	 0.116634
H	 0.3976583121	 0.4628735082	 3.1999666456	 0.109049
H	 2.0456491364	-1.5905098704	 3.9278046614	 0.130639
135.7445	162.684	212.4366	234.3721	272.6228	390.2354	472.9129	581.0817	604.9644	627.2967	691.1985	720.6806	733.1083	799.8264	834.9041	915.5616	937.9971	986.0109	1031.4855	1073.7108	1075.5192	1142.9507	1163.9069	1168.1513	1193.0671	1223.1434	1248.5278	1272.621	1305.1527	1358.3701	1388.679	1452.962	1482.9756	1489.2457	1494.9062	1506.1366	1510.1613	1526.0387	1661.1243	2940.5188	2964.9912	3000.3895	3067.1449	3070.2054	3086.3557	3110.4618	3254.0447	3281.6173
CN1CCC2=C1C=CO2	CN1CCc2c1cco2	
InChI=1S/C7H9NO/c1-8-4-2-7-6(8)3-5-9-7/h3,5H,2,4H2,1H3	InChI=1S/C7H9NO/c1-8-4-2-7-6(8)3-5-9-7/h3,5H,2,4H2,1H3
