18
gdb 65279	4.22544	0.74382	0.7154	3.8785	77.58	-0.2539	-0.029	0.2249	1610.4137	0.14492	-439.092988	-439.0835	-439.082556	-439.128242	33.697	
C	 0.4159697498	 1.7199377567	-0.1097026144	-0.429414
C	 0.0042157032	 0.2698839104	-0.272449748	 0.355244
C	 1.0800858602	-0.7815302773	-0.288029612	-0.277669
C	 0.1515720489	-0.6704535344	 0.9058489512	-0.316632
N	-1.0639269131	 0.1357912896	-1.2343186994	-0.287355
C	-2.1732280557	-0.3271718822	-0.8714827894	 0.129966
O	-3.2441474878	-0.4727312487	-1.7132427025	-0.196603
C	-3.0381926731	-0.4501516725	-3.0737256009	 0.180144
O	-3.9597869255	-0.4433335712	-3.8264787713	-0.250708
H	 1.2869659051	 1.8044775131	 0.5460284739	 0.116257
H	 0.6685727646	 2.1544440642	-1.0817460985	 0.131523
H	-0.3972233048	 2.311707319	 0.324051585	 0.120868
H	 0.9365900151	-1.6300770636	-0.9480398641	 0.118026
H	 2.1109422564	-0.4606075884	-0.1837228274	 0.1163
H	 0.5435031264	-0.2647013804	 1.8322542002	 0.118277
H	-0.5674692249	-1.4689639504	 1.0480788173	 0.113406
H	-2.454801545	-0.6510053856	 0.1325134641	 0.126423
H	-1.9729535197	-0.4579679781	-3.3364170838	 0.131946
52.5881	83.6786	95.0025	157.0319	222.5783	235.3206	305.771	316.3696	355.7152	466.2137	487.975	521.9755	677.3312	782.2948	795.6961	862.7973	934.2112	939.5924	980.7761	996.8239	1038.7008	1043.8357	1062.5104	1065.396	1082.3955	1123.8662	1187.3202	1189.5867	1302.5354	1328.0432	1387.5875	1397.0475	1414.7083	1463.2091	1483.8767	1495.3368	1506.4178	1739.5073	1874.1774	3035.5367	3076.8102	3102.2353	3111.5763	3117.8264	3132.957	3139.2093	3213.4934	3227.0984
CC1(CC1)N=COC=O	CC1(CC1)N=COC=O	
InChI=1S/C6H9NO2/c1-6(2-3-6)7-4-9-5-8/h4-5H,2-3H2,1H3	InChI=1S/C6H9NO2/c1-6(2-3-6)7-4-9-5-8/h4-5H,2-3H2,1H3
