21
gdb 59821	4.18565	0.59599	0.54261	3.4138	91.23	-0.252	-0.0436	0.2084	2091.7525	0.178613	-387.097307	-387.086038	-387.085094	-387.136362	38.876	
C	 0.0184156467	 1.5654064045	-0.0804315518	-0.385754
C	-0.0132133001	 0.0341519695	-0.0363669222	 0.04633
C	 0.6622218772	-0.580073091	-1.2678337535	-0.391853
C	 0.6513106864	-0.5101507504	 1.2534729911	-0.356649
C	-0.006252708	-0.0942704074	 2.4836194335	 0.008653
C	-0.5776236391	 0.2657150165	 3.4855593692	 0.095209
C	-1.2597322403	 0.7005814527	 4.6888497613	 0.24451
C	-0.80277428	 0.037106831	 5.9732315393	-0.47657
O	-2.1357159362	 1.5396379921	 4.658686836	-0.278596
H	 1.0511630752	 1.9338363196	-0.1129547845	 0.109982
H	-0.4951973293	 1.9391426174	-0.9716496587	 0.11506
H	-0.4675128351	 1.9987274706	 0.7980715085	 0.138554
H	-1.0621239795	-0.2880922357	-0.0190540995	 0.090996
H	 1.7212774227	-0.2993983105	-1.3163459738	 0.114418
H	 0.606436141	-1.6738656994	-1.2553989627	 0.112185
H	 0.1853904589	-0.2308108334	-2.188739953	 0.116997
H	 0.6777891987	-1.6072873456	 1.2184432602	 0.132533
H	 1.7014938991	-0.1857669961	 1.2844478131	 0.134182
H	 0.266615756	 0.215885553	 6.1290892734	 0.144427
H	-1.3748815859	 0.4331878778	 6.813521215	 0.141097
H	-0.9379652087	-1.0477264052	 5.904609109	 0.144291
10.0952	52.68	62.8184	119.3782	150.4257	165.5173	226.3881	251.5716	297.5201	344.0485	386.2422	404.3815	435.0482	476.7815	603.2066	614.4788	690.4788	814.6191	873.9024	930.9457	943.6371	963.3779	971.3377	1042.6187	1054.1419	1125.0444	1137.814	1191.5404	1247.3732	1255.0682	1307.6523	1365.7031	1367.7395	1381.3127	1403.0702	1423.7435	1456.7271	1460.7589	1469.3846	1488.3786	1492.9183	1504.155	1510.8348	1765.8818	2326.467	3007.2231	3023.1735	3024.8232	3031.6747	3039.0126	3045.7472	3090.1167	3096.7836	3103.183	3105.1049	3117.2712	3150.8422
CC(C)CC#CC(C)=O	CC(C)CC#CC(=O)C	
InChI=1S/C8H12O/c1-7(2)5-4-6-8(3)9/h7H,5H2,1-3H3	InChI=1S/C8H12O/c1-7(2)5-4-6-8(3)9/h7H,5H2,1-3H3
