21
gdb 107931	3.73788	1.16215	1.06032	1.4696	82.99	-0.2369	0.0693	0.3061	1224.8257	0.182187	-387.04077	-387.032042	-387.031098	-387.073849	34.102	
C	-0.0918549705	 1.4626605408	-0.0024740332	-0.505262
C	 0.0393720582	-0.0310202899	-0.0152780853	 0.354306
C	 0.9598538624	-0.8770483682	-0.8959842135	-0.313749
C	 0.0984622841	-2.0958391213	-0.4579097665	 0.358633
C	-0.0489865668	-3.3025601676	-1.3376421248	-0.21299
O	 1.2249053535	-3.9298639611	-1.4272136302	-0.423177
C	 0.4210880181	-2.2326390023	 1.0587081247	-0.267646
C	-0.28983244	-0.8923114012	 1.2197003823	-0.107166
C	-1.0539082223	-1.0747166554	-0.0740293546	-0.203091
H	 0.8106495777	 1.939530963	 0.3985122793	 0.118374
H	-0.2554948809	 1.8575766455	-1.011869159	 0.11478
H	-0.936440562	 1.7808303209	 0.6187877418	 0.115411
H	 0.81359154	-0.64287932	-1.9559853718	 0.086373
H	 2.0322113118	-0.9125474226	-0.6722722429	 0.089683
H	-0.8013104961	-3.9859343537	-0.9094983998	 0.082959
H	-0.4135474795	-2.9955635041	-2.3322800814	 0.082414
H	 1.1386659279	-4.7058368817	-1.9885200405	 0.287895
H	-0.1501758403	-3.0462242879	 1.5170898566	 0.09038
H	 1.4758343333	-2.3182073327	 1.3415106244	 0.092729
H	-0.6460759758	-0.4270176045	 2.1308574205	 0.077842
H	-2.107238593	-1.014496616	-0.310833546	 0.081302
79.3067	145.027	206.1924	224.1145	251.8125	280.2459	347.367	366.8716	441.7523	456.6217	587.7989	663.419	741.7473	751.0093	822.601	878.891	897.1779	921.277	933.1854	962.3736	976.232	991.3949	1033.8828	1047.4285	1062.044	1085.8507	1122.3715	1133.1654	1157.7293	1174.5883	1192.8244	1220.0439	1237.4794	1261.5463	1284.5515	1301.8703	1347.8077	1404.773	1426.4656	1467.7804	1486.8339	1492.4039	1499.6019	1509.5557	1518.001	2953.5578	2980.1862	3018.4823	3027.1636	3036.2857	3077.4057	3081.2818	3088.4647	3088.8744	3184.979	3209.6383	3829.7154
CC12CC3(CO)CC1C23	C[C@@]12C[C@@]3(CO)C[C@@H]1[C@@H]23	
InChI=1S/C8H12O/c1-7-3-8(4-9)2-5(7)6(7)8/h5-6,9H,2-4H2,1H3	InChI=1S/C8H12O/c1-7-3-8(4-9)2-5(7)6(7)8/h5-6,9H,2-4H2,1H3/t5-,6+,7-,8-/m1/s1
