21
gdb 8439	2.70496	2.04756	1.74422	1.668	77.71	-0.2245	0.0782	0.3027	914.7076	0.187739	-329.095419	-329.086863	-329.085919	-329.127436	33.538	
C	 0.0131852733	 1.5403096468	 0.1135797387	-0.496806
C	-0.0261609696	 0.0439456099	-0.017448154	 0.324672
C	-0.8820217638	-0.7953647228	 0.8482890957	-0.293575
N	 0.5811044946	-0.8925764163	 1.0224861733	-0.1672
C	 1.0331656795	-1.7819824545	-0.1039224023	-0.207388
C	 0.5523991135	-0.7774156224	-1.1954527602	 0.268349
C	-0.4365837937	-1.2771189472	-2.2489303525	-0.454002
C	 1.7383878044	-0.0828005124	-1.8697592155	-0.446366
H	 0.9858255626	 1.9520325244	-0.1716038271	 0.121992
H	-0.7495411252	 2.0076966889	-0.5210435777	 0.118904
H	-0.1852529212	 1.8349303613	 1.1482193588	 0.127886
H	-1.3774408465	-0.3016306212	 1.6795547168	 0.113515
H	-1.4216549115	-1.6548516127	 0.4560406904	 0.104732
H	 2.117200162	-1.9152734541	-0.0737625416	 0.103407
H	 0.5542797548	-2.7679124297	-0.0967950152	 0.094728
H	-1.2962680549	-1.7839407329	-1.8022559286	 0.111997
H	-0.8156773755	-0.4458373285	-2.8547584215	 0.113514
H	 0.0485649333	-1.9857821703	-2.9303147616	 0.113122
H	 2.2578485245	-0.7822395317	-2.5342257398	 0.112834
H	 1.4133955755	 0.7704149214	-2.4758180671	 0.112444
H	 2.4635398339	 0.2803646442	-1.1349499988	 0.123239
150.3726	170.5617	200.1124	229.9693	263.9551	301.459	345.1985	360.5995	419.1721	476.1366	493.8159	619.458	641.3188	740.0273	844.4953	855.4077	901.5541	933.4899	960.6791	967.3331	995.2374	1026.2131	1036.2089	1092.615	1106.7513	1125.9987	1179.8041	1192.3061	1241.7517	1259.6918	1276.1074	1334.5451	1360.0041	1403.2599	1412.8872	1423.9014	1479.5655	1483.7057	1488.457	1493.1979	1495.3936	1505.5792	1512.012	1518.1556	3023.0591	3026.4855	3029.4669	3034.802	3084.4155	3091.5518	3092.4023	3097.3887	3098.3761	3104.1646	3108.1959	3112.8971	3186.1729
CC12CN1CC2(C)C	C[C@]12CN1CC2(C)C	
InChI=1S/C7H13N/c1-6(2)4-8-5-7(6,8)3/h4-5H2,1-3H3	InChI=1S/C7H13N/c1-6(2)4-8-5-7(6,8)3/h4-5H2,1-3H3/t7-,8?/m1/s1
