19
gdb 111336	2.42489	1.54273	1.12383	2.0138	76.03	-0.2526	0.0748	0.3274	1139.5021	0.158103	-422.958268	-422.949809	-422.948865	-422.991534	31.9	
C	 0.2622379066	 1.3628107357	 0.160028565	-0.238115
O	-0.2154200155	 0.0654972943	-0.1249840572	-0.244643
C	 0.492002685	-0.571262963	-1.1544194049	 0.032344
C	 1.9077282576	-1.1189565171	-0.8731518421	-0.085696
C	 1.8490469741	-2.1914147642	 0.1763144954	-0.28775
C	 1.4302093471	-2.5367779847	-1.2288806323	-0.156131
C	 0.0316422083	-2.0057486894	-1.455416843	 0.434035
C	-1.2815103747	-2.6245683325	-1.2935607246	-0.26314
O	-0.7494075239	-2.3032528622	-2.5941215943	-0.290963
H	 1.3056794132	 1.3473191433	 0.5074941535	 0.111659
H	 0.2004273975	 2.018994588	-0.7221949395	 0.106366
H	-0.3672236667	 1.7746262395	 0.952220763	 0.128193
H	 0.4739968533	 0.0293751892	-2.076931463	 0.08256
H	 2.8334854377	-0.6364422178	-1.1591383887	 0.090455
H	 2.8081912872	-2.59112447	 0.4885727507	 0.11548
H	 1.1059013594	-2.1328352378	 0.9664462106	 0.124324
H	 1.920786275	-3.2905836409	-1.8305648929	 0.102751
H	-1.3537248703	-3.6882983067	-1.0713178525	 0.11355
H	-2.124889211	-2.0152901436	-0.9749247233	 0.124722
79.9415	123.972	162.1757	196.0073	260.1373	283.9919	316.338	461.6154	479.2969	569.6908	613.4473	756.3778	801.9185	826.2325	872.6948	914.384	926.0521	964.1132	987.2141	1003.8266	1044.3535	1061.1064	1084.1803	1092.299	1123.3057	1142.7932	1154.3932	1181.0785	1183.2204	1193.2864	1223.0866	1249.6691	1289.7228	1339.2151	1372.5739	1450.0511	1479.9505	1486.8793	1490.8618	1508.2979	1537.1054	2977.3051	2992.9568	3028.7692	3087.2961	3117.4657	3122.3448	3179.2049	3191.0262	3202.6588	3213.215
COC1C2CC2C11CO1	CO[C@H]1[C@H]2C[C@H]2[C@]21CO2	
InChI=1S/C7H10O2/c1-8-6-4-2-5(4)7(6)3-9-7/h4-6H,2-3H2,1H3	InChI=1S/C7H10O2/c1-8-6-4-2-5(4)7(6)3-9-7/h4-6H,2-3H2,1H3/t4-,5+,6-,7-/m0/s1
