12
gdb 131750	4.49423	0.99095	0.83432	2.2114	64.25	-0.3024	-0.0964	0.206	1264.5236	0.077781	-468.797629	-468.789927	-468.788982	-468.830762	26.642	
O	-0.0099155415	 1.3649245835	-0.3640032749	-0.400577
C	-0.0192573928	 0.0828469059	 0.2208388253	-0.17767
C	-1.3904447469	-0.5279926605	 0.179125586	 0.34026
N	-1.9870569384	-1.0705816049	 1.2083700876	-0.135777
O	-3.2136337174	-1.4981038934	 0.700747904	-0.186095
C	-3.2150718453	-1.1485695879	-0.5928221821	 0.344824
N	-2.1303552141	-0.5524548886	-0.9834753437	-0.3441
C	-4.3656698474	-1.4603596066	-1.3690684355	 0.275148
N	-5.301049956	-1.7160456937	-1.9974254195	-0.299504
H	-0.3370147232	 1.2783496875	-1.2670304714	 0.304818
H	 0.6834939136	-0.6045477595	-0.2754390503	 0.125412
H	 0.2952968094	 0.1901959083	 1.2610792946	 0.153263
65.6055	112.8814	148.4631	208.4468	294.6588	377.5234	429.9506	490.0537	563.9301	567.6604	688.2248	750.0153	797.4955	923.0922	986.5376	1026.6439	1059.7763	1085.0433	1210.8432	1280.1959	1366.6304	1374.2768	1422.4384	1492.0084	1537.105	1600.972	2372.3459	2989.351	3117.3742	3802.2798
OCC1=NOC(=N1)C#N	OCc1noc(n1)C#N	
InChI=1S/C4H3N3O2/c5-1-4-6-3(2-8)7-9-4/h8H,2H2	InChI=1S/C4H3N3O2/c5-1-4-6-3(2-8)7-9-4/h8H,2H2
