19
gdb 41858	2.42882	2.00602	1.62639	0.4412	75.21	-0.2308	0.0218	0.2526	925.3093	0.162835	-423.034056	-423.027195	-423.026251	-423.06499	28.362	
C	-0.0357701501	 1.5385976037	-0.062153141	-0.082575
O	 1.258249139	 2.1191388887	-0.0277260796	-0.247586
C	 2.0956561276	 1.5783023232	-1.0340234359	-0.083646
C	 2.1691790204	 0.0469991995	-0.8981756894	 0.027485
O	 0.8434201685	-0.4749256986	-1.0341113021	-0.278612
C	 0.0147824207	 0.0080853634	 0.0271381634	 0.075471
C	 0.4990955486	-0.551577269	 1.3802015814	-0.266024
C	 2.0004140372	-0.6269494207	 1.4641778654	-0.056092
C	 2.7767511905	-0.3649214918	 0.4175922447	-0.048044
H	-0.5949267172	 1.9697745477	 0.7740535079	 0.104619
H	-0.5449329188	 1.8095481962	-1.0020107232	 0.0904
H	 1.7080321699	 1.8278907641	-2.0352563249	 0.091641
H	 3.0795664275	 2.0399240793	-0.9085242864	 0.106916
H	 2.7378682429	-0.3660808734	-1.7385189813	 0.084858
H	-0.9888288354	-0.3745086259	-0.1874455778	 0.081816
H	 0.1043243509	 0.0637099982	 2.1989562562	 0.108804
H	 0.0780440786	-1.5548352891	 1.5317684714	 0.112775
H	 2.4301794853	-0.9311681406	 2.415109796	 0.089189
H	 3.8600263437	-0.4051974948	 0.4842044052	 0.088606
143.036	219.6569	314.3953	365.1095	415.8678	435.9275	485.3675	511.7305	646.4661	711.7875	757.4612	787.33	826.7654	877.4689	904.0388	919.9306	962.7158	990.7833	993.4945	1025.537	1037.3199	1055.957	1101.3921	1136.1948	1149.9447	1196.471	1219.6198	1250.0527	1294.947	1316.0195	1330.4691	1349.3545	1360.2309	1376.5087	1398.0781	1412.1939	1422.2405	1468.3695	1481.0314	1492.1316	1727.6483	2968.687	2976.3718	3012.3715	3043.1014	3051.5667	3054.9831	3080.9472	3086.5779	3152.4683	3178.0436
C1OCC2OC1CC=C2	C1OC[C@@H]2O[C@H]1CC=C2	
InChI=1S/C7H10O2/c1-2-6-4-8-5-7(3-1)9-6/h1-2,6-7H,3-5H2	InChI=1S/C7H10O2/c1-2-6-4-8-5-7(3-1)9-6/h1-2,6-7H,3-5H2/t6-,7+/m1/s1
