21
gdb 39320	2.82899	1.67995	1.26991	1.7157	80.85	-0.2576	0.0817	0.3393	1052.9777	0.185884	-387.082138	-387.074851	-387.073906	-387.113663	30.082	
C	 0.0165587329	 1.5938020998	 0.1023943996	-0.239987
C	 1.5463444007	 1.5567849008	-0.1716141583	-0.232951
C	 1.3949973466	 0.0775339507	-0.6338193696	 0.0026
C	 2.4108114734	-0.9471757065	-0.1941032325	 0.021406
O	 2.8336323633	-0.9047496492	 1.17906928	-0.25882
C	 2.0268148896	-2.009034494	 0.7522552125	 0.063724
C	 0.6209739217	-2.0634921286	 1.3166119389	-0.246571
C	-0.0029639488	-0.6630359472	 1.4068275591	-0.216499
C	-0.0121490446	 0.0391834628	 0.0455860672	-0.00264
H	-0.3105043121	 2.0566041824	 1.0377013171	 0.095511
H	-0.541809257	 2.0488765132	-0.7203881377	 0.096038
H	 1.9467955448	 2.2698809788	-0.8957870107	 0.093694
H	 2.1343343446	 1.6191118606	 0.7466943755	 0.120835
H	 1.2963500951	 0.0190943521	-1.7229500918	 0.066958
H	 3.230035499	-1.1444434019	-0.8871342405	 0.084547
H	 2.5611589636	-2.9592825096	 0.7107051363	 0.084152
H	 0.0164523354	-2.7219440457	 0.677433883	 0.099586
H	 0.6469215017	-2.5310910934	 2.3083252779	 0.104033
H	-1.0228826204	-0.7290661096	 1.8012015214	 0.090856
H	 0.5789309005	-0.0757561246	 2.1246682857	 0.11429
H	-0.79965271	-0.393418741	-0.5804023132	 0.059238
109.8959	187.8741	258.3818	321.3818	355.3544	412.3696	464.093	605.732	637.364	680.2132	748.2114	782.4144	799.3883	845.5221	877.1625	911.4691	944.1866	951.4281	969.6798	990.4294	1002.989	1059.5229	1065.0149	1083.1664	1092.3134	1140.3519	1174.0656	1187.8758	1226.4327	1240.561	1256.8943	1261.0148	1283.6004	1288.9218	1292.1296	1337.5665	1361.4992	1372.9511	1386.8009	1392.5103	1462.627	1477.795	1484.8148	1488.5703	1499.6987	3015.9085	3034.4425	3040.2892	3047.7849	3054.2372	3056.7321	3067.9735	3086.3615	3090.4052	3098.2664	3103.69	3125.5047
C1CC2C3OC3CCC12	C1C[C@H]2[C@H]3O[C@H]3CC[C@@H]12	
InChI=1S/C8H12O/c1-3-6-5(1)2-4-7-8(6)9-7/h5-8H,1-4H2	InChI=1S/C8H12O/c1-3-6-5(1)2-4-7-8(6)9-7/h5-8H,1-4H2/t5-,6-,7+,8-/m1/s1
