20
gdb 60607	2.70942	1.04233	0.94967	3.7577	75.61	-0.2368	0.038	0.2748	1333.4775	0.168992	-440.303434	-440.292941	-440.291996	-440.340221	37.569	
C	 0.5273712089	 1.7973670296	 0.1010778023	-0.397096
C	 0.1430919611	 0.3098457336	 0.0256111974	-0.105443
C	 0.6571224417	-0.3242657992	-1.2566511743	 0.012833
C	-0.0511912366	-1.5159412455	-1.8723002553	-0.341824
C	-0.0982869153	-0.1633464671	-2.5412329072	 0.074986
O	-1.2776076779	 0.5913464278	-2.4852022912	-0.418605
C	 0.7553550215	-0.4345197427	 1.2166532811	 0.420834
N	-0.137576778	-1.0341843048	 2.0576226425	-0.529299
O	 1.9576022741	-0.4932614513	 1.3956294925	-0.382207
H	 1.6155684774	 1.9031079023	 0.1073275392	 0.136053
H	 0.1186766062	 2.3324628992	-0.7594526864	 0.131127
H	 0.1390050671	 2.2608771464	 1.0139394575	 0.108104
H	-0.9480074736	 0.2249895972	 0.0441793488	 0.071725
H	 1.7403396584	-0.3179051972	-1.3275040605	 0.108803
H	 0.5375050928	-2.3093654875	-2.3195448367	 0.113772
H	-0.9662603301	-1.845775334	-1.3898704224	 0.106044
H	 0.48290347	-0.0256317416	-3.452900938	 0.087756
H	-1.9133082697	 0.1944945998	-3.089461282	 0.288811
H	-1.1300553848	-0.9235199507	 1.9526385624	 0.256262
H	 0.2162242666	-1.4913369143	 2.8825471303	 0.257363
22.7772	50.1859	127.058	153.39	183.0441	233.7524	239.3478	270.3649	299.5439	353.936	441.211	455.8224	560.981	596.4021	629.2117	752.1513	782.3532	817.7745	843.9691	872.0828	967.1606	998.8224	1006.2969	1050.8622	1062.8766	1089.476	1115.328	1136.3752	1178.6289	1197.16	1235.1165	1252.5246	1294.3024	1312.1204	1378.168	1401.3753	1403.4441	1427.7124	1487.273	1497.0169	1502.6695	1614.2115	1791.8064	3040.832	3056.6282	3098.9214	3111.0068	3126.8316	3132.2725	3162.716	3215.5051	3599.8171	3740.5932	3807.9033
CC(C1CC1O)C(N)=O	C[C@@H]([C@H]1C[C@H]1O)C(=O)N	
InChI=1S/C6H11NO2/c1-3(6(7)9)4-2-5(4)8/h3-5,8H,2H2,1H3,(H2,7,9)	InChI=1S/C6H11NO2/c1-3(6(7)9)4-2-5(4)8/h3-5,8H,2H2,1H3,(H2,7,9)/t3-,4+,5+/m0/s1
