17
gdb 35286	3.50071	0.9009	0.80282	4.0483	73.6	-0.2656	0.0054	0.271	1409.2583	0.135342	-417.955552	-417.946937	-417.945993	-417.989981	30.786	
N	-0.43500598	-1.0763218385	-0.0485386383	-0.331543
C	-0.2225232017	 0.0468321274	 0.1291029818	 0.286856
C	 0.0239701149	 1.4563255976	 0.3201423055	-0.143839
C	 1.051011253	 1.8810082548	 1.3301990285	-0.237739
N	 1.2962145221	 2.0614967924	-0.0866580623	-0.082021
C	 2.3055674471	 1.2132346117	-0.720869044	-0.193616
C	 3.6364750395	 1.9299938443	-0.706255423	 0.097189
C	 4.674497836	 1.6233743791	 0.2867288513	-0.171718
O	 4.7667830223	 1.1357373648	-1.0530896178	-0.231811
H	-0.8490837095	 2.0799553721	 0.1494835962	 0.143191
H	 0.8771255569	 2.7821213083	 1.9107857047	 0.136991
H	 1.5789616574	 1.0834802394	 1.8498401782	 0.135486
H	 2.4123853004	 0.2273756987	-0.2431876871	 0.118721
H	 1.9952417508	 1.0428083866	-1.7578115467	 0.13208
H	 3.6231995228	 2.926764171	-1.1476476404	 0.10595
H	 5.4043399526	 2.3838876436	 0.5594172166	 0.121403
H	 4.4877098853	 0.864077647	 1.045468387	 0.114421
57.809	78.386	97.8088	198.5902	217.2548	327.8407	353.8492	409.7588	445.7304	556.5785	629.9206	760.6853	831.4414	846.6497	886.3903	897.7928	916.1781	1009.6319	1028.9322	1038.1079	1105.729	1117.8028	1122.5011	1138.1117	1157.0644	1171.5684	1178.4307	1270.2235	1285.7801	1319.2169	1365.5159	1372.8632	1449.4832	1489.2362	1507.7231	1531.069	2351.4181	2994.8809	3070.3209	3083.2262	3103.0417	3114.5757	3150.4976	3171.3336	3197.1247
N#CC1CN1CC1CO1	N#C[C@H]1CN1C[C@H]1CO1	
InChI=1S/C6H8N2O/c7-1-5-2-8(5)3-6-4-9-6/h5-6H,2-4H2	InChI=1S/C6H8N2O/c7-1-5-2-8(5)3-6-4-9-6/h5-6H,2-4H2/t5-,6-,8?/m0/s1
