19
gdb 73029	2.72759	1.37402	1.21751	2.3644	74.91	-0.237	0.0747	0.3117	1114.1637	0.158347	-422.957877	-422.949462	-422.948517	-422.991242	31.704	
C	 0.4012659947	 1.3777602795	 0.4349890336	-0.484625
C	 0.1617184901	-0.0865255083	 0.2640708123	 0.434492
O	-0.0689736255	-0.5579079174	-1.0741616042	-0.3156
C	-1.0760350645	-1.4869644221	-0.5931546856	-0.095388
C	-0.8144355939	-1.0919477848	 0.8551509953	-0.21467
C	 0.674299607	-1.1879287579	 1.1514815745	-0.101279
C	 1.5479771358	-2.335810962	 0.7561871446	 0.048066
C	 2.266399278	-2.4226413169	-0.5242137653	-0.173603
O	 2.952589255	-2.0620811712	 0.6739742474	-0.24193
H	 1.339575294	 1.6687380114	-0.0502969597	 0.138911
H	-0.4093918702	 1.9617495705	-0.0113522594	 0.128043
H	 0.478097636	 1.6329223801	 1.4955329773	 0.126778
H	-2.0678946795	-1.1924486548	-0.9528575193	 0.111467
H	-0.8662839916	-2.5202141771	-0.8919784587	 0.106968
H	-1.5644438883	-0.9845240377	 1.6276175647	 0.098513
H	 0.8953133709	-0.8227037428	 2.1540181905	 0.100384
H	 1.3219950561	-3.2730711317	 1.2694283474	 0.089521
H	 2.5174284661	-3.4041316998	-0.9260654657	 0.106678
H	 2.13821076	-1.630839967	-1.2553401998	 0.137275
57.5754	125.4887	181.4109	200.8782	248.065	319.7219	340.3423	389.5428	485.112	596.2788	698.7694	760.3387	797.9824	843.2108	864.8031	897.8281	928.6355	964.0139	980.5289	989.8971	1004.5168	1044.9502	1079.9218	1107.1822	1128.6756	1132.1886	1158.7967	1166.3454	1183.357	1206.8642	1261.5987	1295.1477	1323.6472	1344.3749	1410.4137	1428.7755	1473.6405	1481.5341	1500.9152	1519.7301	1531.371	3030.0002	3035.7247	3077.3653	3079.2108	3092.0077	3100.5034	3117.2651	3122.6043	3196.7494	3200.3201
CC12OCC1C2C1CO1	C[C@]12OC[C@H]1[C@H]2[C@H]1CO1	
InChI=1S/C7H10O2/c1-7-4(2-9-7)6(7)5-3-8-5/h4-6H,2-3H2,1H3	InChI=1S/C7H10O2/c1-7-4(2-9-7)6(7)5-3-8-5/h4-6H,2-3H2,1H3/t4-,5+,6-,7-/m0/s1
