17
gdb 41453	2.91174	2.1528	1.64601	2.8825	71.17	-0.2272	0.0445	0.2717	852.4596	0.136872	-421.684623	-421.67833	-421.677386	-421.714858	26.705	
C	 0.1023343213	 1.4766996119	-0.2446590881	-0.178919
O	 1.5324810239	 1.4345508274	 0.0999008944	-0.32627
C	 1.3103785586	 0.2364151838	 0.8734698965	 0.375134
C	 1.1694184794	 0.2961811293	 2.3818294292	-0.300937
C	 0.082268275	-0.8134182349	 2.566440707	-0.23649
C	-0.1501672215	-1.2413010932	 1.120010836	-0.122666
C	 1.2518064583	-1.243387252	 0.3523332694	-0.016661
O	 0.6237596832	-0.8325125124	-0.8798938738	-0.323544
C	-0.0186837606	-0.0012242535	 0.1670853369	 0.249414
H	-0.434946046	 2.1951254615	 0.3837561245	 0.115262
H	-0.0593548896	 1.6787811604	-1.3056249794	 0.136821
H	 2.0995559599	 0.0714546964	 2.9112894084	 0.111434
H	 0.8263743571	 1.2791161784	 2.7162328502	 0.111728
H	 0.4331650909	-1.6550683478	 3.1707598045	 0.112759
H	-0.8254557475	-0.4271097364	 3.0386117302	 0.113152
H	-0.8573065487	-2.037341564	 0.8884467065	 0.091276
H	 1.9871683865	-2.053796775	 0.3152075776	 0.088507
206.7011	256.7093	368.1001	381.9646	470.8867	494.1434	601.3682	664.4092	673.5323	758.642	812.7181	822.0379	848.3063	871.1768	898.9486	926.9973	950.6645	969.2794	998.0054	1021.8093	1062.4071	1086.7275	1118.6293	1142.4602	1156.8439	1199.1003	1223.1709	1228.7751	1236.506	1246.3987	1260.487	1302.428	1321.425	1342.5009	1485.7708	1489.398	1512.4744	3041.9694	3053.7529	3057.7512	3063.0041	3089.5407	3108.0319	3121.6946	3132.0373
C1OC23CCC4C2OC134	C1O[C@]23CC[C@@H]4[C@H]2O[C@]134	
InChI=1S/C7H8O2/c1-2-6-5-4(1)7(6,9-5)3-8-6/h4-5H,1-3H2	InChI=1S/C7H8O2/c1-2-6-5-4(1)7(6,9-5)3-8-6/h4-5H,1-3H2/t4-,5-,6-,7+/m1/s1
