15
gdb 57586	2.9168	1.20435	1.04264	3.8545	69.52	-0.2557	-0.0809	0.1748	1155.0043	0.106412	-457.737793	-457.727534	-457.72659	-457.773896	35.227	
C	 0.0989209782	 1.5372001221	 0.0566113905	-0.407141
C	 0.0149053486	 0.0150850223	 0.0435124576	 0.161012
O	 0.6774890611	-0.4622515559	 1.20864141	-0.452886
C	-1.4429128813	-0.4810229161	 0.0912521465	 0.144017
O	-2.4088581246	 0.2281921416	 0.097564826	-0.229532
C	 0.6608435528	-0.5380388721	-1.2393839475	 0.148128
O	-0.01136704	-0.830727534	-2.2047389972	-0.283057
C	 2.1022672236	-0.6916881149	-1.2167368081	 0.283986
C	 3.3001063495	-0.8130773913	-1.2159918379	-0.388969
H	 1.1423607053	 1.8561210564	 0.0030566779	 0.13433
H	-0.4573362882	 1.9533634729	-0.7851511324	 0.150431
H	-0.3413088422	 1.9107479059	 0.9836239621	 0.147692
H	 0.7199518988	-1.425662617	 1.1810946633	 0.29082
H	-1.5267943788	-1.5887342046	 0.182753834	 0.079015
H	 4.3579865372	-0.9220041254	-1.2210687249	 0.222153
25.8851	72.6894	128.3383	181.146	186.4761	227.3101	253.1808	272.9317	284.0033	346.2994	378.0557	435.9585	535.0437	653.0542	668.936	709.9475	720.239	765.0488	845.3603	967.5454	996.383	1071.8272	1111.9907	1181.7104	1232.0655	1351.1357	1399.1171	1427.8772	1476.8613	1487.5777	1754.8586	1851.0575	2209.3808	2865.2521	3060.8344	3140.7644	3151.3813	3491.0199	3790.9463
CC(O)(C=O)C(=O)C#C	C[C@@](O)(C=O)C(=O)C#C	
InChI=1S/C6H6O3/c1-3-5(8)6(2,9)4-7/h1,4,9H,2H3	InChI=1S/C6H6O3/c1-3-5(8)6(2,9)4-7/h1,4,9H,2H3/t6-/m1/s1
