18
gdb 109849	2.15134	1.44752	1.04694	1.7747	69.7	-0.2386	0.0241	0.2627	1178.6546	0.146391	-476.20688	-476.197425	-476.196481	-476.241503	33.802	
C	-0.0576838212	 0.645696288	 0.9684782861	-0.260984
O	-0.2569088265	-0.139360834	-0.2062011769	-0.26185
C	-1.4816009151	-0.7838363453	-0.2458346036	 0.058916
C	-1.5094092312	-1.9587106304	-1.1775389903	 0.020481
O	-0.3104161833	-2.3119344725	-1.7988898807	-0.43081
C	-1.606354139	-2.2020919816	 0.3212103406	-0.061429
N	-0.4727062514	-2.8472463472	 0.8903651163	-0.259505
C	-0.1133492936	-2.7352472519	 2.193076978	 0.156707
O	-0.7041334883	-2.0780487954	 3.0269205644	-0.330015
H	 0.9708993125	 1.0102413898	 0.9320028713	 0.127715
H	-0.7415669531	 1.5058161593	 0.9752187069	 0.114075
H	-0.2172469946	 0.0519133075	 1.8744411508	 0.161393
H	-2.3565299388	-0.1378662981	-0.1724554319	 0.098282
H	-2.3804679099	-2.1407104167	-1.7992895333	 0.111152
H	 0.2974634645	-1.5727009346	-1.6556289181	 0.305138
H	-2.564914326	-2.4770364495	 0.7505409187	 0.11565
H	 0.1293284279	-3.3422057574	 0.2472065475	 0.25586
H	 0.7931747169	-3.3304186097	 2.4216037241	 0.079224
61.6354	126.8409	137.4444	164.2861	196.1054	217.311	235.9716	327.5163	356.5917	413.8938	554.3699	609.1856	632.9728	683.1145	755.0821	778.853	856.078	945.7867	1020.5414	1032.9458	1053.0014	1078.4286	1111.2007	1132.5252	1162.6808	1191.7312	1214.6686	1247.7902	1281.8791	1337.6028	1353.6727	1382.1013	1427.3135	1448.0318	1487.8671	1490.9882	1517.7051	1523.1379	1794.3603	2937.1384	3005.9217	3085.1837	3103.4355	3135.2131	3150.6251	3159.8081	3594.8165	3742.8445
COC1C(O)C1NC=O	CO[C@H]1[C@@H](O)[C@H]1NC=O	
InChI=1S/C5H9NO3/c1-9-5-3(4(5)8)6-2-7/h2-5,8H,1H3,(H,6,7)	InChI=1S/C5H9NO3/c1-9-5-3(4(5)8)6-2-7/h2-5,8H,1H3,(H,6,7)/t3-,4+,5-/m1/s1
