18
gdb 85260	2.49288	1.62953	1.21211	3.2485	73.31	-0.2568	0.0064	0.2632	1072.3644	0.147759	-439.089115	-439.080932	-439.079988	-439.122027	31.193	
C	 0.7675708973	 1.2867331132	 0.0125255086	-0.397029
C	-0.1668703859	 0.0845932225	-0.0290433395	 0.105467
C	 0.0735249581	-0.8572633985	-1.2260801648	-0.333814
C	 1.0582607533	-1.8511173597	-0.6472662624	 0.342094
C	 1.683707922	-2.9808854881	-1.3308199615	-0.243098
O	 2.4295120909	-1.7897411258	-1.0621283524	-0.267994
C	 0.8145397536	-1.8366311874	 0.8366679229	 0.37008
N	 1.237362516	-2.6999444353	 1.6536709846	-0.546466
O	 0.0574254771	-0.747138895	 1.1431513504	-0.255922
H	 1.8107631666	 0.9711748009	-0.0887615324	 0.144865
H	 0.5344206273	 1.9742955938	-0.8068443957	 0.121392
H	 0.6557698958	 1.8236853721	 0.9580624559	 0.131929
H	-1.2082540966	 0.410212642	 0.0348925119	 0.09444
H	-0.8558395525	-1.3626305031	-1.5075926273	 0.120822
H	 0.4751304844	-0.3444112087	-2.1013896789	 0.128128
H	 1.9691730204	-3.8485789548	-0.7405207638	 0.145633
H	 1.4524098281	-3.1607167612	-2.380169684	 0.114221
H	 0.9718865841	-2.4597428668	 2.6099764383	 0.225252
72.4232	105.4604	246.7777	263.9019	268.3778	314.7303	375.6496	420.0591	472.3742	564.1925	687.5551	700.2996	746.605	808.7645	837.6524	888.2834	905.7773	933.4435	941.1235	986.115	1035.1453	1064.6798	1109.35	1123.5213	1136.1083	1168.8649	1203.5845	1221.7277	1285.4766	1307.573	1359.0415	1387.0251	1413.9118	1444.1331	1474.3602	1491.4575	1495.9885	1521.9199	1779.4841	3040.6471	3055.8812	3076.2086	3087.4841	3115.2999	3124.7634	3128.6715	3187.951	3478.7146
CC1CC2(CO2)C(=N)O1	C[C@H]1C[C@]2(CO2)[C]([NH])O1	
InChI=1S/C6H9NO2/c1-4-2-6(3-8-6)5(7)9-4/h4,7H,2-3H2,1H3	InChI=1S/C6H9NO2/c1-4-2-6(3-8-6)5(7)9-4/h4,7H,2-3H2,1H3/t4-,6-/m0/s1
