19
gdb 93356	3.1636	1.35176	1.05911	3.3549	75.47	-0.2441	-0.0308	0.2133	1155.9192	0.15969	-423.046156	-423.037952	-423.037008	-423.079112	31.482	
C	-0.1789657994	 1.5257596015	 0.0956247654	-0.406099
C	 0.016255986	 0.0057336771	 0.0157351841	-0.011339
C	 0.7014784936	-0.4142916738	-1.2958388797	-0.223079
C	 0.9476932796	-1.926200272	-1.3738308888	-0.328379
C	 1.6035717421	-2.5526738401	-0.1485874076	 0.408098
O	 2.0431412996	-3.6795699364	-0.1553956587	-0.314882
C	 1.6065252911	-1.7440818035	 1.1221001934	-0.083143
O	 2.2389536628	-0.451738099	 1.0525543091	-0.244575
C	 0.8222972979	-0.4946243706	 1.2011069213	 0.062264
H	 0.7868430679	 2.0413270189	 0.073418261	 0.131961
H	-0.7753674082	 1.8877358275	-0.7474542414	 0.117905
H	-0.6931240314	 1.8139402358	 1.0183507345	 0.115403
H	-0.9714924759	-0.4759822018	 0.0725511199	 0.080591
H	 0.0845782429	-0.1004795626	-2.1443275166	 0.099839
H	 1.6531027557	 0.1195976158	-1.3780146008	 0.123734
H	-0.0112262419	-2.4546751082	-1.4814764699	 0.132464
H	 1.5377208711	-2.2007632084	-2.2532309048	 0.132762
H	 1.8369790029	-2.3171919689	 2.0180993167	 0.109395
H	 0.4691882735	-0.1931247913	 2.1886482132	 0.097079
54.9483	169.4434	214.0884	233.5246	272.5229	328.8923	394.2085	421.2604	480.2311	586.7254	594.6783	643.7159	737.1935	793.2665	855.1923	875.2443	926.8341	949.3357	957.9035	1022.1371	1047.7915	1068.4714	1102.6552	1135.1955	1156.5631	1209.5515	1229.3567	1260.829	1267.7097	1324.2342	1347.0926	1353.2041	1371.6277	1383.7656	1410.7581	1443.245	1448.5271	1489.4199	1498.1117	1503.191	1806.2604	2997.2665	3012.9615	3033.6016	3048.8011	3086.7964	3095.1253	3098.4878	3104.1834	3109.004	3140.8337
CC1CCC(=O)C2OC12	C[C@H]1CCC(=O)[C@H]2O[C@@H]12	
InChI=1S/C7H10O2/c1-4-2-3-5(8)7-6(4)9-7/h4,6-7H,2-3H2,1H3	InChI=1S/C7H10O2/c1-4-2-3-5(8)7-6(4)9-7/h4,6-7H,2-3H2,1H3/t4-,6-,7+/m0/s1
