23
gdb 110836	3.10068	1.20003	1.07307	1.1978	86.19	-0.2398	0.0846	0.3244	1270.8169	0.204206	-388.256247	-388.246559	-388.245615	-388.290204	37.178	
C	 0.4667906792	 1.1253391678	 0.3053093713	-0.236711
O	-0.300183289	 0.0988740536	-0.2919352039	-0.236791
C	 0.3963459221	-0.5718081208	-1.2984575002	 0.121623
C	 1.3954314067	-1.6538944958	-1.0221221845	-0.113802
C	 0.9580157365	-2.4873521848	 0.1899235766	-0.285761
C	-0.3585850508	-2.8974533198	-0.5622706051	 0.340824
C	-0.2809496415	-4.3534823382	-1.032071051	-0.432216
C	-1.6900019941	-2.6339093097	 0.1413281252	-0.452195
C	 0.0404531996	-1.9549368929	-1.7202019105	-0.150557
H	 1.38612189	 0.7324749567	 0.7622081524	 0.111949
H	 0.7482164003	 1.8964484103	-0.4282552356	 0.105109
H	-0.1528984233	 1.5838886384	 1.0793477392	 0.126274
H	 0.6729769226	 0.0797960944	-2.1316810398	 0.082518
H	 2.3939597292	-1.6381998111	-1.4437119182	 0.080426
H	 1.609427582	-3.3400373859	 0.3938881503	 0.095579
H	 0.8195457291	-1.9199923098	 1.1147894965	 0.096804
H	-0.3614302662	-5.0400197199	-0.1816892041	 0.108711
H	-1.0971403431	-4.5846416711	-1.7267493768	 0.108323
H	 0.6640713358	-4.558752157	-1.5463410552	 0.109259
H	-1.7559515703	-1.6031610388	 0.490301139	 0.138448
H	-2.5299061904	-2.8193602139	-0.5388972462	 0.103925
H	-1.8104888652	-3.3054553726	 1.0002226301	 0.100889
H	-0.1556886892	-2.1790434489	-2.7644738496	 0.07737
90.4984	127.0789	162.3763	211.6084	217.8037	251.3263	267.4843	304.9336	352.7673	367.8752	409.5023	549.8779	622.6375	634.1692	736.9114	782.9786	848.1472	875.1895	915.7291	949.7015	967.3566	978.1384	997.4791	1007.6054	1036.2423	1053.7494	1084.1147	1095.0002	1154.8258	1181.4958	1197.2318	1212.4293	1228.9723	1241.2487	1256.1749	1275.6185	1304.8309	1353.408	1397.8173	1417.8785	1426.8012	1478.9968	1481.615	1485.0545	1488.7368	1492.4573	1501.4936	1509.6861	1513.8663	2981.9234	3017.947	3024.4077	3034.326	3054.6203	3068.2332	3076.5291	3086.6244	3093.6613	3108.4373	3118.5642	3147.6606	3150.5846	3173.6216
COC1C2CC(C)(C)C12	CO[C@H]1[C@H]2CC(C)(C)[C@@H]12	
InChI=1S/C8H14O/c1-8(2)4-5-6(8)7(5)9-3/h5-7H,4H2,1-3H3	InChI=1S/C8H14O/c1-8(2)4-5-6(8)7(5)9-3/h5-7H,4H2,1-3H3/t5-,6+,7-/m0/s1
