25
gdb 123076	7.49331	0.3753	0.36299	0.1467	100.15	-0.2391	0.0652	0.3043	3067.793	0.226295	-352.351013	-352.338778	-352.337834	-352.391262	41.609	
C	-0.0693752739	 1.5878926487	 0.0989581942	-0.379757
C	-0.0163988618	 0.0592345972	 0.0341558068	-0.162493
C	 0.6951275951	-0.4683781298	-1.2164662451	-0.165625
C	 0.752024481	-1.9977616531	-1.2880334042	-0.17474
C	 1.4634424908	-2.5217732241	-2.5387044392	-0.170329
C	 1.5117243492	-4.0621771106	-2.5944546627	-0.357869
C	 2.1867877432	-4.577965931	-3.7808441865	 0.027058
C	 2.748187309	-4.9782568452	-4.7682435213	 0.105489
C	 3.4249641171	-5.4752949496	-5.9581623562	-0.496836
H	 0.9379322936	 2.0193906112	 0.103367653	 0.112993
H	-0.6005596571	 2.0028864878	-0.7650456343	 0.112993
H	-0.5827316942	 1.9332998391	 1.0018613289	 0.110183
H	 0.489751392	-0.3283302232	 0.9283864953	 0.093375
H	-1.0370932087	-0.3447104644	 0.0666159844	 0.093375
H	 0.1892763194	-0.0808751958	-2.1119899164	 0.091967
H	 1.7167388012	-0.0643998617	-1.2499126722	 0.091967
H	 1.2581087974	-2.3847442107	-0.3921994111	 0.091842
H	-0.2699673112	-2.4012501325	-1.2545016908	 0.091843
H	 0.9601433226	-2.1495372729	-3.4391640603	 0.104135
H	 2.4881239962	-2.1328471625	-2.5769945318	 0.104134
H	 2.0125644943	-4.4401142162	-1.6924498127	 0.12162
H	 0.4870922458	-4.4568013869	-2.5531873216	 0.121622
H	 3.4446453838	-6.5708529228	-5.9774135663	 0.144895
H	 2.9245849533	-5.1392733424	-6.8733653032	 0.14408
H	 4.4629689718	-5.1269069484	-6.0035629965	 0.144079
22.5582	43.3006	54.7134	64.4182	125.2638	135.0915	142.5785	221.2821	252.5752	260.8153	265.1808	369.6588	388.1537	446.8393	520.2494	730.0644	741.2844	770.8793	790.7895	886.9721	898.4593	996.4311	1005.9404	1023.2947	1053.6141	1054.3052	1055.5701	1070.4975	1132.2709	1134.8687	1168.6433	1224.2429	1248.3394	1278.6056	1312.3068	1315.2558	1329.8427	1335.1314	1363.5753	1391.4055	1401.4813	1415.4451	1415.6583	1473.9198	1479.6352	1480.3868	1482.9784	1483.9151	1493.9487	1501.3262	1505.2044	1513.8653	2373.2791	2998.7779	3003.473	3005.7171	3015.4083	3020.7983	3024.0431	3028.4961	3029.7517	3032.1676	3034.5633	3054.8373	3076.6357	3083.2185	3083.2234	3094.4295	3100.2728
CCCCCCC#CC	CCCCCCC#CC	
InChI=1S/C9H16/c1-3-5-7-9-8-6-4-2/h3,5,7-9H2,1-2H3	InChI=1S/C9H16/c1-3-5-7-9-8-6-4-2/h3,5,7-9H2,1-2H3
