19
gdb 71809	3.34686	1.61298	1.50013	1.9528	77.33	-0.2385	0.0737	0.3121	963.7787	0.160887	-385.841732	-385.834832	-385.833888	-385.872563	29.061	
C	-0.0520530865	 1.5253824621	 0.0054936206	-0.499673
C	-0.0019194585	 0.0238809809	-0.0328515337	 0.336986
C	 0.7120454968	-0.7883860512	-1.1206779188	-0.271653
C	-0.2162194581	-1.9984587271	-0.7798826019	-0.099969
C	 0.4437975895	-2.8835284712	 0.2917489009	 0.028888
O	 1.6770385868	-2.3631591464	 0.8252194805	-0.253615
C	 0.4548595024	-2.0994433627	 1.5297378762	 0.035498
C	-0.2689169735	-0.8046733668	 1.2324905185	-0.125417
C	-1.1312163073	-0.9907583566	 0.004452746	-0.12731
H	 0.9190677327	 1.9463035282	 0.2918140154	 0.124904
H	-0.3135007945	 1.9331748869	-0.9779678529	 0.116403
H	-0.7946201104	 1.8864285663	 0.7248705386	 0.115111
H	 0.4514973313	-0.3785459073	-2.1016901526	 0.088881
H	 1.7896697512	-0.9402340674	-1.0526615508	 0.113327
H	-0.6391362969	-2.5497051377	-1.618152193	 0.068619
H	 0.3792226969	-3.9675204692	 0.2503054955	 0.092792
H	 0.3926292764	-2.5292054307	 2.5267392758	 0.093486
H	-0.6617155895	-0.2330369078	 2.0657846614	 0.080377
H	-2.2054735086	-0.8617583321	-0.0563528758	 0.082365
177.3045	202.1305	294.4632	335.3697	352.657	502.2407	558.456	586.0554	683.9357	712.881	738.3338	819.5143	841.943	853.9767	862.5002	882.3675	899.5257	936.4937	968.9905	991.4148	1003.9614	1028.0447	1031.3932	1058.6679	1087.0405	1104.9633	1157.4867	1189.2233	1196.3576	1231.0208	1256.5732	1273.4569	1282.5598	1306.4301	1332.1667	1405.2394	1420.3941	1430.7122	1485.9139	1493.4324	1500.6408	3020.7731	3052.4729	3081.1317	3093.1768	3123.1942	3126.6575	3135.7272	3151.5869	3174.9673	3185.1038
CC12CC3C4OC4C1C23	C[C@@]12C[C@H]3[C@H]4O[C@H]4[C@@H]1[C@@H]23	
InChI=1S/C8H10O/c1-8-2-3-4(8)5(8)7-6(3)9-7/h3-7H,2H2,1H3	InChI=1S/C8H10O/c1-8-2-3-4(8)5(8)7-6(3)9-7/h3-7H,2H2,1H3/t3-,4+,5+,6-,7+,8+/m1/s1
