18
gdb 47598	2.37086	1.80219	1.18664	3.5175	71.62	-0.2175	-0.0357	0.1818	1045.4433	0.150222	-439.06938	-439.061776	-439.060832	-439.102149	28.927	
O	 0.0437082499	-0.049654292	-0.1903629019	-0.302574
C	-0.0244169574	 1.1545460739	-0.1053964058	 0.366529
C	-1.3372505685	 1.9235665696	-0.0928578002	-0.270313
N	-1.3107166985	 3.0473251739	-1.0357072932	-0.28599
C	-0.2806472465	 4.0222886112	-0.6888174362	-0.182497
C	 1.1646329541	 3.4700171084	-0.6193716093	-0.093526
C	 1.8995102048	 3.8042007901	 0.6945769572	-0.081976
O	 1.54955979	 2.513009859	 1.2466632076	-0.295183
C	 1.236408273	 2.016181584	-0.082319229	 0.052394
H	-2.1516564418	 1.23657101	-0.3357314909	 0.126332
H	-1.5173301104	 2.325645648	 0.9128031943	 0.134886
H	-1.1750185879	 2.7020295307	-1.9816103455	 0.223544
H	-0.3285809333	 4.848855941	-1.4045840604	 0.110437
H	-0.5562991175	 4.4359217191	 0.2893850107	 0.115734
H	 1.7092377758	 3.6502661036	-1.5488980225	 0.082036
H	 2.9877787846	 3.9109965804	 0.5936526309	 0.103794
H	 1.506231466	 4.6319911911	 1.2948765139	 0.110217
H	 2.0679596136	 1.4223590981	-0.4834692899	 0.086154
53.6189	103.6114	208.8487	300.6478	351.7769	421.3229	437.0907	473.9777	567.2015	688.3008	741.1578	788.0232	825.4891	855.4337	893.5101	947.3191	961.3023	990.2393	1004.6146	1045.8374	1091.7595	1126.8691	1136.7948	1164.0663	1199.262	1233.6851	1252.2741	1275.6397	1318.738	1335.0624	1343.0988	1350.0161	1361.9933	1390.0307	1457.5162	1481.6434	1485.7507	1523.2109	1813.9329	3010.7403	3024.3058	3027.151	3029.607	3068.992	3072.5753	3092.2276	3108.3762	3505.0305
O=C1CNCC2COC12	O=C1CNC[C@H]2CO[C@@H]12	
InChI=1S/C6H9NO2/c8-5-2-7-1-4-3-9-6(4)5/h4,6-7H,1-3H2	InChI=1S/C6H9NO2/c8-5-2-7-1-4-3-9-6(4)5/h4,6-7H,1-3H2/t4-,6+/m0/s1
