19
gdb 58659	1.90668	1.47129	1.14733	3.8219	76.46	-0.254	0.0059	0.2599	1198.7253	0.157119	-419.198586	-419.188386	-419.187441	-419.233744	36.65	
C	-1.7096868983	 2.053449228	 1.5811892994	-0.410096
C	-1.1342432511	 1.3891329031	 0.3214402754	-0.065012
N	 0.3049708298	 1.1078535304	 0.3521986477	-0.526497
C	-1.8647267875	 0.081609986	 0.0202895893	 0.279252
O	-3.214999136	 0.1786612718	-0.4407850867	-0.287211
C	-2.2406169936	-0.3725196381	-1.3383147867	 0.032067
C	-1.9292504896	 0.3734453398	-2.6072820783	-0.428941
C	-1.6446266583	-0.9537821455	 1.0245560697	 0.266071
N	-1.4286927549	-1.7488822907	 1.8357221442	-0.344857
H	-1.2135275688	 3.0123573063	 1.7602986551	 0.113275
H	-2.7834242359	 2.2368637337	 1.4731706916	 0.136675
H	-1.5561304941	 1.4207195704	 2.4620757208	 0.134826
H	-1.3160854232	 2.0499134939	-0.5302952277	 0.094989
H	 0.8158981187	 1.9801827182	 0.4501747151	 0.23356
H	 0.5304124582	 0.5566382867	 1.1776545424	 0.241148
H	-2.3396820773	-1.4520932125	-1.4603130715	 0.113
H	-1.9029961453	 1.4532961829	-2.4560120813	 0.135288
H	-0.9623765864	 0.0481121178	-3.0031981268	 0.144651
H	-2.6954253066	 0.1548584878	-3.3578478716	 0.137813
54.1933	122.7944	136.6582	152.9388	194.796	221.7314	242.7365	259.0753	335.964	367.7948	392.2368	479.6716	512.5699	574.6454	618.7922	669.8135	800.6893	866.6788	909.3379	937.7116	972.2054	1005.4943	1030.7242	1085.7847	1102.7372	1134.4505	1169.581	1221.0097	1259.208	1316.9727	1360.9456	1404.1053	1407.8843	1410.689	1453.6793	1486.4548	1492.5659	1498.0818	1505.3641	1662.2582	2350.3658	3032.9863	3048.9057	3076.3333	3103.3324	3109.252	3112.0858	3113.07	3148.3393	3480.0997	3561.2718
CC(N)C1(OC1C)C#N	C[C@@H](N)[C@]1(O[C@H]1C)C#N	
InChI=1S/C6H10N2O/c1-4(8)6(3-7)5(2)9-6/h4-5H,8H2,1-2H3	InChI=1S/C6H10N2O/c1-4(8)6(3-7)5(2)9-6/h4-5H,8H2,1-2H3/t4-,5+,6-/m1/s1
