20
gdb 98158	2.60398	1.10906	0.96494	5.709	79.59	-0.2618	-0.0304	0.2314	1338.2923	0.167412	-403.190292	-403.179567	-403.178623	-403.226295	38.187	
C	-0.0292203434	 1.5463999901	 0.1232111377	-0.380265
C	-0.2182251355	 0.0691178011	-0.2162497291	-0.297183
C	 0.7922903533	-0.4369824822	-1.2348723441	 0.385609
O	 1.54871039	 0.3042057568	-1.8103516549	-0.288899
C	 0.8639955615	-1.9748887304	-1.480492557	-0.03429
C	 1.8406533795	-2.5556334319	-0.4221148886	-0.4098
C	-0.5075555696	-2.6808513469	-1.395588202	-0.424793
C	 1.4289285502	-2.206841483	-2.8181804304	 0.299017
N	 1.8463485925	-2.4464450148	-3.8682001769	-0.337853
H	 0.955539554	 1.7246034093	 0.5629107225	 0.132547
H	-0.1003336261	 2.1628546819	-0.7754684799	 0.142101
H	-0.791196265	 1.8750579892	 0.8349313598	 0.114582
H	-0.1662076748	-0.5565002507	 0.6839247699	 0.124166
H	-1.2204726245	-0.1097542038	-0.6286071915	 0.136773
H	 1.4468390454	-2.3930494568	 0.5853313272	 0.126855
H	 1.9604155625	-3.631298408	-0.5745394302	 0.14318
H	 2.820974936	-2.0806814626	-0.4997922284	 0.155208
H	-1.2155660347	-2.2665351831	-2.11797543	 0.141869
H	-0.3891454414	-3.745491778	-1.6123592423	 0.143458
H	-0.9304560399	-2.5849105464	-0.3928476717	 0.127717
37.9366	85.9307	140.1824	186.9686	193.6014	215.0724	245.8729	253.3856	270.247	300.047	338.3189	414.731	449.9228	541.1036	593.1121	632.2059	712.0851	809.7918	819.7542	940.0565	959.6941	979.9875	1021.1437	1035.8965	1081.0187	1115.109	1153.8828	1212.4392	1258.0711	1277.4385	1365.8036	1397.6857	1416.0886	1422.8368	1447.4734	1483.7959	1487.8667	1492.7146	1498.0142	1500.9576	1508.524	1813.0657	2362.0931	3024.6673	3047.4409	3051.5791	3053.6834	3055.4057	3123.1689	3125.149	3126.7313	3131.6018	3135.5131	3138.3665
CCC(=O)C(C)(C)C#N	CCC(=O)C(C)(C)C#N	
InChI=1S/C7H11NO/c1-4-6(9)7(2,3)5-8/h4H2,1-3H3	InChI=1S/C7H11NO/c1-4-6(9)7(2,3)5-8/h4H2,1-3H3
