20
gdb 16340	3.01859	1.81979	1.40344	1.7655	74.58	-0.2434	0.0775	0.3209	987.1145	0.175942	-348.981138	-348.972653	-348.971709	-349.013942	31.966	
C	-0.30935256	 1.5014432078	-0.1134170945	-0.380182
C	 0.0881681157	 0.0304217897	 0.0785327411	-0.301159
C	 0.8533660095	-0.5285173132	-1.0820980463	 0.427207
O	 0.1274276439	-0.7917213294	-2.2971121047	-0.296201
C	 0.8737194861	-1.8650585884	-1.701949096	-0.047891
C	 2.3272664804	-1.7081068498	-2.1555888004	-0.264342
C	 2.3256798999	-0.2744241209	-1.5033835336	-0.037084
C	 2.6128992751	 0.9190139229	-2.4037924277	-0.409475
H	 0.5705070388	 2.1467186654	-0.2005220724	 0.120175
H	-0.9066009634	 1.6222938545	-1.0217889348	 0.134918
H	-0.9012166285	 1.8580180073	 0.7347430044	 0.11262
H	 0.6934990236	-0.0781789698	 0.9873898942	 0.099548
H	-0.8116426567	-0.579147588	 0.2197932077	 0.109
H	 0.3225988676	-2.7664243401	-1.4555916988	 0.096843
H	 3.0183023409	-2.3978257844	-1.6648166281	 0.101441
H	 2.4775649215	-1.7479911445	-3.2377960685	 0.106259
H	 2.9747142382	-0.2641041122	-0.6210709907	 0.07116
H	 1.9072970061	 0.9386063188	-3.2390666177	 0.132729
H	 2.5275488493	 1.8656721748	-1.8595810805	 0.112885
H	 3.6269522319	 0.8637610496	-2.8144650726	 0.11155
70.9265	131.875	193.4334	210.6874	240.8713	287.7272	324.3533	379.1922	480.957	547.3884	663.2138	702.4415	761.3609	808.8695	858.353	889.0157	925.1165	942.4444	977.6248	1000.7071	1040.6706	1065.4309	1096.382	1115.3886	1120.629	1186.8647	1199.6917	1223.3268	1254.2288	1271.4444	1315.2069	1354.4507	1360.2275	1401.9979	1407.8801	1455.0707	1471.7882	1480.2529	1491.8867	1500.1443	1506.5725	1510.2595	3026.6158	3031.3228	3040.7996	3048.3003	3060.47	3067.3104	3092.602	3109.4924	3115.0958	3117.7585	3119.2959	3174.3556
CCC12OC1CC2C	CC[C@]12O[C@H]1C[C@H]2C	
InChI=1S/C7H12O/c1-3-7-5(2)4-6(7)8-7/h5-6H,3-4H2,1-2H3	InChI=1S/C7H12O/c1-3-7-5(2)4-6(7)8-7/h5-6H,3-4H2,1-2H3/t5-,6+,7-/m1/s1
