17
gdb 17968	2.75883	2.34807	1.41369	1.4003	65.62	-0.2383	0.02	0.2583	877.4635	0.144193	-400.983067	-400.975824	-400.974879	-401.014867	26.994	
C	 0.0343660139	 1.3420105986	 0.1723847894	-0.088473
C	 1.5157954471	 1.6705809793	-0.0843949802	-0.087708
O	 1.7835566907	 2.2834777648	-1.3475231269	-0.224885
C	 1.5817281182	 1.6672037084	-2.5404054625	 0.135911
N	 1.2292814524	 0.5148752453	-2.9040989106	-0.261575
C	 0.879618042	-0.6313282952	-2.0846276305	-0.180582
C	-0.4404468232	-0.4992304285	-1.2983879062	-0.075288
O	-0.3083819133	-0.0133038941	 0.0216501913	-0.233467
H	-0.1903212939	 1.5766557724	 1.2180255045	 0.115241
H	-0.5882707225	 1.9943958747	-0.4606953172	 0.105257
H	 1.8462170718	 2.4266151258	 0.6323978478	 0.120358
H	 2.1275361788	 0.7758806682	 0.0644175214	 0.124974
H	 1.7978203847	 2.4091446447	-3.3110672654	 0.118993
H	 0.7578324007	-1.4726106617	-2.7763851117	 0.108742
H	 1.6728778567	-0.923825626	-1.3854730131	 0.111075
H	-1.1430957324	 0.1211674305	-1.8765378724	 0.100334
H	-0.8805058917	-1.4942319073	-1.1824295477	 0.111093
62.0082	192.2306	221.235	289.664	317.9201	362.2652	468.4389	508.2261	581.4869	717.7204	818.1934	829.453	881.2036	943.5629	966.8927	1014.8224	1034.1638	1068.5837	1073.7656	1097.9886	1154.9284	1192.4755	1240.3882	1282.2233	1325.8476	1357.6801	1371.3263	1392.3933	1406.3999	1417.2794	1450.0781	1476.1939	1486.9732	1491.2912	1518.9895	1770.3456	2985.3095	2990.2112	3023.6051	3051.884	3061.4898	3076.6333	3085.0076	3109.9969	3124.5431
C1COC=NCCO1	C1COC=NCCO1	
InChI=1S/C5H9NO2/c1-2-7-3-4-8-5-6-1/h5H,1-4H2/b6-5-	InChI=1S/C5H9NO2/c1-2-7-3-4-8-5-6-1/h5H,1-4H2/b6-5-
