17
gdb 133855	2.77196	1.56217	1.05877	2.3062	83.81	-0.2151	-0.0232	0.1919	1122.6407	0.135276	-384.678652	-384.670683	-384.669739	-384.711299	30.188	
C	 1.0375449948	-0.1057986834	-1.0380019172	-0.50754
C	 2.4804890521	 0.2356899823	-0.9937138895	 0.285118
O	 3.8208615276	-2.069154326	 1.2655554288	-0.300225
C	 4.3213070557	-1.2872078716	 0.5052116755	 0.35363
C	 5.7490260328	-0.6641535717	 0.6309941906	-0.349766
C	 5.5766357677	 0.7022477294	-0.025133931	-0.23416
C	 4.4626668529	 0.6911641111	-0.7623554038	 0.301221
C	 3.2147336077	 1.3641158484	-1.1602542392	-0.298656
C	 3.7347841392	-0.6356993404	-0.7550540776	-0.255015
H	 0.423988823	 0.7685889037	-1.2721860513	 0.131608
H	 0.7061474189	-0.5179849038	-0.0773403597	 0.151676
H	 0.8417833451	-0.8787739192	-1.7918854534	 0.138371
H	 6.4957482643	-1.3175720847	 0.1566420398	 0.126283
H	 6.0220869396	-0.5977352153	 1.6894415761	 0.132379
H	 6.1727580621	 1.5643677157	 0.2491513251	 0.100677
H	 2.9555170341	 2.3914326935	-1.3835958844	 0.111828
H	 3.9588870923	-1.288283888	-1.6103769587	 0.112572
89.1569	127.8947	160.9758	234.6642	278.2805	400.5429	415.907	472.4016	566.2884	596.5148	657.0737	687.7797	778.1383	803.5479	854.264	862.9138	920.1385	968.8731	978.3063	1007.7705	1044.8563	1070.9077	1109.664	1141.3589	1157.5035	1171.2502	1243.5463	1266.8453	1276.712	1305.1781	1405.8424	1453.8499	1470.3458	1477.3806	1630.7054	1721.5123	1855.5542	3003.7949	3015.9199	3022.0555	3072.3663	3077.6671	3113.3241	3198.3715	3211.4751
CC12OC34CC=C(C13)C24	CC1=C[C]2[CH]CC(=O)[C@@H]12	
InChI=1S/C8H8O/c1-7-5-4-2-3-8(5,9-7)6(4)7/h2,5-6H,3H2,1H3	InChI=1S/C8H8O/c1-5-4-6-2-3-7(9)8(5)6/h2,4,8H,3H2,1H3/t8-/m0/s1
