25
gdb 100253	2.10251	0.95444	0.84745	0.2113	98.03	-0.2395	0.0652	0.3047	1618.398	0.225411	-352.348497	-352.336297	-352.335353	-352.386977	43.39	
C	 0.1966831602	 1.5108964766	-0.0100658777	-0.397781
C	 0.0457482173	-0.011520382	-0.0477856724	-0.179984
C	-1.4154461672	-0.5442621331	-0.0018254295	 0.062771
C	-1.3758284912	-2.0896755265	-0.0638630971	-0.412005
C	-2.1790663498	-0.0691464303	 1.2719452756	-0.17649
C	-1.5500793789	-0.4487866463	 2.6169470514	-0.407997
C	-2.1528145708	-0.0524854694	-1.1745371739	 0.108998
C	-2.7699707351	 0.3446787399	-2.1305306659	 0.027101
C	-3.517085088	 0.8205285352	-3.2873554852	-0.498965
H	 1.2463920138	 1.79490007	-0.1340240612	 0.108742
H	-0.3781707129	 1.9797893935	-0.8142038811	 0.127406
H	-0.1467181459	 1.9339997759	 0.9392137661	 0.114696
H	 0.507612294	-0.3958871931	-0.9646642472	 0.097795
H	 0.6011444853	-0.460322079	 0.7842405206	 0.092152
H	-0.7961289438	-2.5013011193	 0.7679188479	 0.11062
H	-2.3858037998	-2.5080659034	-0.0221439594	 0.115364
H	-0.9116033601	-2.4228932547	-0.9963452751	 0.118111
H	-2.294021383	 1.0184320494	 1.2198982833	 0.104198
H	-3.194443706	-0.4784088185	 1.2179283252	 0.0995
H	-1.45851971	-1.5322903618	 2.7389832071	 0.11801
H	-0.5541528616	-0.0132032956	 2.7443155567	 0.119699
H	-2.1734353064	-0.080567835	 3.4379973791	 0.113157
H	-4.2801908558	 0.0965201598	-3.5945409444	 0.145056
H	-4.0275918492	 1.7660853969	-3.0725241743	 0.144875
H	-2.8586987951	 0.9893711109	-4.1468851788	 0.144972
21.2295	81.6568	85.5787	90.4386	134.4668	220.2034	222.8502	235.9884	264.193	287.9266	294.0725	312.8682	355.7015	395.3888	427.3357	535.7445	572.5136	634.0823	757.6677	781.3787	837.9852	884.5924	972.1154	1013.3639	1014.1145	1044.013	1052.7928	1053.84	1068.9997	1087.1999	1091.5379	1186.5892	1210.664	1246.069	1311.9759	1316.1355	1365.4742	1371.8087	1405.2798	1407.5423	1413.0781	1415.3318	1477.8005	1479.62	1479.7961	1480.6637	1493.8469	1498.0675	1501.8501	1502.7326	1508.541	1512.85	2361.7649	3024.3044	3028.8204	3035.8272	3036.7287	3039.6663	3041.756	3063.2697	3073.2818	3083.5188	3084.0217	3101.8265	3102.137	3108.0593	3113.3067	3113.8739	3114.3537
CCC(C)(CC)C#CC	CCC(C)(CC)C#CC	
InChI=1S/C9H16/c1-5-8-9(4,6-2)7-3/h6-7H2,1-4H3	InChI=1S/C9H16/c1-5-8-9(4,6-2)7-3/h6-7H2,1-4H3
