15
gdb 10060	3.44811	1.2396	1.01161	4.9995	61.86	-0.2655	-0.0406	0.2249	1120.4716	0.116784	-399.812876	-399.803983	-399.803039	-399.847362	29.984	
O	 0.2642846074	 1.3325608601	 0.016977701	-0.41065
C	 0.0710278233	-0.0630813978	 0.1208136612	-0.08884
C	-1.4210576885	-0.4682502528	 0.0285745874	-0.121545
C	-1.5894898217	-1.9977120198	 0.108346781	-0.351023
C	-2.8931363812	-2.4461237488	-0.3740357507	 0.269646
N	-3.9162031356	-2.7898263556	-0.7860631382	-0.304006
C	-2.2080199638	 0.2348868512	 1.1264453839	 0.173372
O	-2.7917359248	-0.3443883033	 2.0062499559	-0.238194
H	 0.1091634006	 1.5951583008	-0.8961359734	 0.292134
H	 0.6393651724	-0.6140917721	-0.6429842637	 0.107576
H	 0.4726019682	-0.3536176946	 1.097938262	 0.133539
H	-1.7999451523	-0.1003342642	-0.9354303464	 0.110209
H	-0.8148713375	-2.4945411917	-0.4863227242	 0.147211
H	-1.4734261323	-2.3209607727	 1.1474959589	 0.172568
H	-2.1801536741	 1.3412431813	 1.0761957754	 0.108001
52.0597	76.2156	112.2889	147.0516	223.6351	273.0823	315.2357	368.686	382.0128	417.3348	556.9871	654.2897	825.6141	898.0729	905.8013	949.161	1049.5386	1058.9593	1077.2666	1125.6681	1180.4988	1233.0146	1286.2215	1344.1135	1360.3811	1404.72	1411.7028	1419.6774	1452.4028	1508.4536	1825.8947	2366.4616	2943.6659	2994.7189	3018.4931	3051.0699	3075.135	3099.7176	3817.1351
OCC(CC#N)C=O	OC[C@@H](CC#N)C=O	
InChI=1S/C5H7NO2/c6-2-1-5(3-7)4-8/h3,5,8H,1,4H2	InChI=1S/C5H7NO2/c6-2-1-5(3-7)4-8/h3,5,8H,1,4H2/t5-/m0/s1
