19
gdb 108698	3.26226	1.51854	1.19634	1.7629	82.91	-0.2066	-0.0339	0.1727	1058.5789	0.159487	-385.784473	-385.776789	-385.775845	-385.816433	30.698	
O	-0.1743345854	 1.4736271702	-0.2120354605	-0.412405
C	-0.18696971	 0.0614846821	-0.2351706965	-0.132302
C	-1.4381656254	-0.5419503943	 0.3222149146	 0.212228
C	-2.5795342758	 0.1536331583	 0.5558504745	-0.073289
C	-3.209285483	 0.7756043951	-0.7145886093	-0.253799
C	-3.9710768638	-0.5946447493	-0.7495338905	-0.06673
C	-3.2735439586	-1.8879090447	-0.1575401829	-0.039616
C	-1.7628279767	-2.0159304379	 0.1028181181	-0.318328
C	-3.7742917274	-0.8045037633	 0.7251324577	-0.108194
H	-0.6329714092	 1.7402767153	 0.5943389589	 0.281945
H	-0.0599594392	-0.2372702243	-1.2874451496	 0.118363
H	 0.6858649197	-0.3590613955	 0.2990514199	 0.099838
H	-3.9352386869	 1.5805355815	-0.5529292764	 0.103738
H	-2.5223475955	 1.0501910826	-1.5179949362	 0.116048
H	-4.8994688262	-0.7477127373	-1.2956790184	 0.087111
H	-3.8684335642	-2.7858405613	-0.3157100718	 0.078789
H	-1.1740341349	-2.3865586086	-0.7461840171	 0.109661
H	-1.5761466099	-2.7042800765	 0.9394991806	 0.110964
H	-4.4935673277	-0.8387609922	 1.5329904747	 0.085974
110.4593	162.7934	178.7523	299.4884	318.4987	402.7733	425.8009	482.3928	605.6083	639.0362	735.7845	753.0188	777.4967	821.3611	884.8055	910.5666	940.9141	950.2225	971.5848	1000.0887	1013.2789	1035.581	1045.9646	1076.587	1078.706	1095.0592	1120.3923	1158.0152	1200.7171	1215.8139	1226.5877	1235.9475	1283.6782	1297.4158	1344.1095	1372.5628	1425.8345	1475.7056	1487.2972	1509.5046	1599.0284	2925.7509	2994.5167	3002.1106	3034.1268	3043.5126	3108.5926	3126.3681	3135.1823	3194.0469	3773.4198
OCC1=C2CC3C(C1)C23	OC[C]1[C]2C[C@H]3[C@@H](C1)[C@@H]23	
InChI=1S/C8H10O/c9-3-4-1-6-7-2-5(4)8(6)7/h6-9H,1-3H2	InChI=1S/C8H10O/c9-3-4-1-6-7-2-5(4)8(6)7/h6-9H,1-3H2/t6-,7+,8-/m1/s1
