22
gdb 122585	3.56271	0.74283	0.64651	3.4107	83.92	-0.244	0.0364	0.2804	1788.3443	0.193888	-404.383001	-404.372873	-404.371929	-404.419129	36.169	
C	-0.1224612051	 1.5842166635	-0.0272321621	-0.380214
C	 0.0214235248	 0.0605693934	 0.0159311993	-0.167123
C	 0.7007491491	-0.5118524537	-1.2321802447	-0.16252
C	 0.8605815858	-2.0371854575	-1.1869776956	-0.21083
C	 1.4867213522	-2.598523105	-2.4607482779	-0.144238
C	 1.5221398333	-4.148110489	-2.644981627	-0.188788
N	 0.6965119776	-3.9591431269	-3.8404611932	-0.319269
C	 0.5804573823	-2.5957893849	-3.7229091662	 0.42957
O	-0.0203529551	-1.7680215024	-4.3569137935	-0.366342
H	 0.8557977503	 2.0722704902	-0.1019773651	 0.112322
H	-0.7144203726	 1.8996406087	-0.8933210454	 0.119315
H	-0.6165497611	 1.9654682726	 0.871983411	 0.109044
H	 0.5928129808	-0.2296195457	 0.9082356585	 0.089395
H	-0.9700997145	-0.3976453587	 0.129609238	 0.094973
H	 0.1288159259	-0.2402932073	-2.1271701409	 0.131039
H	 1.6908561507	-0.0494321348	-1.3511018632	 0.088854
H	 1.4776779037	-2.3222551246	-0.3241435027	 0.095529
H	-0.1212414072	-2.5053046447	-1.0317839649	 0.098702
H	 2.4550485905	-2.128237561	-2.6589749534	 0.099439
H	 2.507544403	-4.5817092923	-2.8422733855	 0.11109
H	 1.0277521664	-4.7092295838	-1.844488584	 0.110923
H	 0.2621393893	-4.6142445561	-4.4733856715	 0.24913
59.7547	74.6849	85.1721	131.1659	151.9268	212.8751	249.7726	263.4785	334.8014	407.8371	480.0824	502.4013	710.9339	740.9929	759.5938	788.5933	844.0543	885.0736	908.2459	955.8264	988.697	1013.1811	1044.1972	1069.6794	1095.6616	1126.154	1151.3503	1171.2641	1176.7036	1210.678	1245.2161	1270.3414	1302.0585	1315.2701	1335.7399	1346.2848	1377.2938	1395.2518	1403.6235	1414.2804	1486.82	1488.0329	1499.5459	1502.1849	1514.8757	1526.83	1882.9567	3004.6314	3007.3089	3015.3859	3029.8244	3035.384	3037.7909	3038.6185	3066.8143	3075.9893	3085.1121	3096.9559	3101.5261	3610.3246
CCCCC1CNC1=O	CCCC[C@H]1CNC1=O	
InChI=1S/C7H13NO/c1-2-3-4-6-5-8-7(6)9/h6H,2-5H2,1H3,(H,8,9)	InChI=1S/C7H13NO/c1-2-3-4-6-5-8-7(6)9/h6H,2-5H2,1H3,(H,8,9)/t6-/m0/s1
