20
gdb 39219	2.60835	1.95731	1.46092	1.3807	77.96	-0.2228	0.0823	0.3052	959.7473	0.174181	-403.095949	-403.089073	-403.088128	-403.126712	29.269	
C	 0.0324411014	 1.5474649617	 0.0315514754	-0.259412
C	 1.2385013981	 0.6597549396	-0.0519861065	-0.020419
C	 2.2417141713	 0.6407455953	 1.1029283498	-0.105985
O	 2.4075569761	-0.6109559086	 1.7474242096	-0.26934
C	 1.2595199346	-1.1775922916	 2.3660503079	 0.134905
C	 0.3279193543	-1.9222000833	 1.3690977443	-0.223837
C	-0.5177939169	-0.6239796708	 1.2592455949	 0.021758
C	 0.0786286501	-0.2057022391	 2.6433854973	-0.288846
N	-0.1088745292	 0.1057988611	 0.0671671354	-0.073566
H	-0.0886857868	 2.1144537071	 0.9542732605	 0.107544
H	-0.3646482866	 2.0403480778	-0.8526893405	 0.11517
H	 1.6808782962	 0.4794145557	-1.0303550478	 0.093512
H	 3.2310796942	 0.8838085671	 0.7039795002	 0.111604
H	 1.9964909394	 1.4172146178	 1.8389987597	 0.093763
H	 1.6387279131	-1.7555056016	 3.2127634243	 0.077019
H	 0.7855224512	-2.2835592007	 0.4463371448	 0.109202
H	-0.2196625954	-2.7344419726	 1.8550602506	 0.096973
H	-1.6055235819	-0.7290758578	 1.2210345281	 0.074691
H	-0.5417878609	-0.6044493632	 3.4510853165	 0.104817
H	 0.2764796578	 0.8445879159	 2.8607224356	 0.100448
202.6421	223.5941	336.6974	368.6944	391.5415	421.2774	471.7729	492.4265	624.0524	716.8713	767.3695	795.4109	817.4379	882.3341	888.2239	912.7169	919.3768	974.1501	997.4947	1002.8654	1046.5772	1077.7555	1084.1824	1090.0088	1120.9878	1141.9694	1157.6586	1168.3563	1176.4081	1219.6739	1249.7298	1269.4047	1285.1262	1301.1966	1345.6084	1364.423	1382.0573	1395.4133	1417.1857	1458.5401	1482.891	1503.9167	1521.0527	3013.6917	3058.3067	3063.909	3068.0371	3079.2588	3081.0998	3086.1979	3115.1926	3125.1428	3129.7714	3168.9205
C1C2COC3CC(C3)N12	C1[C@H]2CO[C@@H]3C[C@@H](C3)N12	
InChI=1S/C7H11NO/c1-5-2-7(1)9-4-6-3-8(5)6/h5-7H,1-4H2	InChI=1S/C7H11NO/c1-5-2-7(1)9-4-6-3-8(5)6/h5-7H,1-4H2/t5-,6-,7+,8?/m0/s1
