21
gdb 102520	2.27534	1.07996	0.9348	1.7501	80.67	-0.2501	0.0466	0.2967	1378.6789	0.178984	-424.177541	-424.166504	-424.165559	-424.213878	39.469	
C	-0.0374127826	 1.2254473985	 0.2748058097	-0.245311
O	 0.1738045229	-0.1689992213	 0.1332148583	-0.261807
C	 0.6537961842	-0.5960556617	-1.1338675123	 0.083919
C	 1.409297042	-1.9009821773	-0.8586548547	-0.071839
O	 2.4029341327	-1.7109319051	 0.123585526	-0.42629
C	-0.4773848745	-0.7858314369	-2.189728127	-0.176475
C	-1.7287792459	-1.4751139593	-1.6073781401	-0.385966
C	-0.8298505451	 0.4718084146	-2.8489267039	 0.313245
C	-1.1244685011	 1.4989473626	-3.4012533642	-0.462284
H	 0.8662688919	 1.7938152258	 0.0117648077	 0.11412
H	-0.8648454613	 1.5814803984	-0.3486428128	 0.131534
H	-0.276522352	 1.4023970758	 1.3265665839	 0.125132
H	 1.375113262	 0.1405981263	-1.5163627466	 0.085753
H	 0.6968722028	-2.6872059295	-0.5618386692	 0.091557
H	 1.9125768701	-2.2321961374	-1.7728795728	 0.109044
H	 1.9595307786	-1.2358035107	 0.8377428457	 0.285548
H	-0.054773883	-1.4437006316	-2.9633146003	 0.111023
H	-2.4780914878	-1.616753901	-2.3897171504	 0.12461
H	-1.4765537753	-2.4530726346	-1.1898808829	 0.121336
H	-2.1667932998	-0.8695788142	-0.8118859246	 0.137107
H	-1.379925719	 2.4056677087	-3.8913936594	 0.196043
51.4533	94.1295	107.497	143.889	178.2168	191.3385	208.4724	264.6137	274.8469	292.3394	383.7359	422.8073	475.9482	517.057	558.7059	618.1379	634.722	665.2154	803.3793	851.3126	940.3352	982.1011	1054.0497	1076.1499	1089.1153	1113.3679	1136.6069	1152.9932	1185.8618	1203.7439	1259.3395	1283.7334	1296.1839	1352.4013	1382.3067	1400.0077	1413.8267	1441.0348	1479.2701	1490.5584	1493.2865	1495.7738	1503.8535	1512.3306	2229.5539	2977.4745	2999.0737	2999.4321	3006.6291	3057.0918	3073.1484	3077.5679	3116.8083	3128.466	3142.6026	3503.2744	3777.6968
COC(CO)C(C)C#C	CO[C@@H](CO)[C@@H](C)C#C	
InChI=1S/C7H12O2/c1-4-6(2)7(5-8)9-3/h1,6-8H,5H2,2-3H3	InChI=1S/C7H12O2/c1-4-6(2)7(5-8)9-3/h1,6-8H,5H2,2-3H3/t6-,7-/m0/s1
