17
gdb 98515	2.30017	1.48821	0.97664	1.404	71.89	-0.2587	-0.044	0.2148	1199.2006	0.13552	-455.166246	-455.157054	-455.156109	-455.20078	32.425	
C	-0.2326433052	 1.5033072634	 0.4015626754	-0.339599
N	-0.3895499229	 0.0704730755	 0.5635427631	-0.338665
C	-1.0755707327	-0.6861731881	-0.3152693886	 0.372071
O	-1.6438720775	-0.2642817082	-1.3155989047	-0.411234
C	-1.1336762831	-2.1737566724	-0.0074783393	 0.091662
C	-2.5074168908	-2.7903775105	-0.1795971182	-0.242589
N	-1.4788875927	-3.0385318873	-1.1602012877	-0.332915
C	-0.2409504172	-2.8384996592	 0.9775626929	 0.127794
O	 0.4238176638	-2.2807502153	 1.823173537	-0.292597
H	 0.8214521863	 1.7717828801	 0.2718122738	 0.132841
H	-0.7893186292	 1.8048163565	-0.4858094077	 0.169265
H	-0.6239499886	 2.040040734	 1.272236937	 0.130914
H	 0.0707121631	-0.4159505694	 1.3243670626	 0.273906
H	-2.787331639	-3.6378227054	 0.4405881983	 0.131618
H	-3.2970569312	-2.0808780745	-0.4090215576	 0.151501
H	-1.6173624967	-2.3930607157	-1.940750852	 0.261712
H	-0.2399669464	-3.9431824034	 0.8797601757	 0.114315
69.0408	80.8218	141.1895	154.3264	198.4456	283.3871	305.1933	344.6212	353.5141	405.3714	503.9936	640.1934	695.9093	767.865	817.5173	841.8438	934.9817	947.633	1007.5947	1051.1603	1059.9225	1125.6836	1134.9818	1153.3184	1181.6908	1249.7572	1299.0382	1336.8955	1377.109	1421.055	1440.9668	1489.9837	1499.59	1499.8677	1602.8409	1752.9591	1798.3575	2935.7548	3033.5202	3086.6228	3110.7929	3158.6938	3208.8092	3451.1424	3532.4853
CNC(=O)C1(CN1)C=O	CNC(=O)[C@]1(CN1)C=O	
InChI=1S/C5H8N2O2/c1-6-4(9)5(3-8)2-7-5/h3,7H,2H2,1H3,(H,6,9)	InChI=1S/C5H8N2O2/c1-6-4(9)5(3-8)2-7-5/h3,7H,2H2,1H3,(H,6,9)/t5-/m0/s1
