16
gdb 24443	3.46195	1.6427	1.1575	3.0536	69.92	-0.2101	0.0057	0.2158	1008.884	0.128107	-437.924902	-437.918309	-437.917365	-437.955922	25.97	
C	-0.0071809639	 1.4958911562	-0.0084961786	-0.224731
C	 1.4271523101	 2.0424147725	 0.0587504367	-0.081703
O	 2.1227731781	 1.6719202507	 1.2610205165	-0.260063
C	 1.9326953711	 0.3684268882	 1.5443489449	 0.312211
C	 1.0005413427	-0.4433009179	 0.9879737924	 0.205194
C	-0.0386385723	-0.0534357356	 0.0054838015	-0.342055
O	 1.1616199268	-1.6827618555	 1.5624611274	-0.187204
C	 2.1854955393	-1.5119168904	 2.4299143625	 0.051415
N	 2.6894143955	-0.3174596231	 2.4684113977	-0.329638
H	-0.5688549608	 1.8792354635	 0.8500231222	 0.124351
H	-0.485420731	 1.8841696226	-0.9128394113	 0.11036
H	 2.0076091219	 1.6813027878	-0.8023845322	 0.109986
H	 1.4301859195	 3.13409211	 0.0464615974	 0.121572
H	-1.0336783321	-0.4104259932	 0.2950112294	 0.123012
H	 0.1625343807	-0.4598383181	-0.9949833706	 0.117968
H	 2.4862818144	-2.3762405277	 3.0003059441	 0.149325
127.0641	210.3856	298.3002	366.0114	402.2552	463.032	527.9469	635.6272	692.7738	720.905	737.6186	817.107	863.2672	885.4434	914.8749	956.193	1001.0505	1064.5689	1093.8896	1127.6712	1164.9808	1196.1325	1220.6707	1256.1278	1297.5319	1316.0817	1336.944	1365.3388	1398.9893	1444.2283	1476.6475	1495.9281	1503.0298	1543.1211	1693.0103	3007.5405	3011.4162	3047.5397	3059.9414	3098.8414	3113.6602	3278.9171
C1COC2=C(C1)OC=N2	C1COc2c(C1)ocn2	
InChI=1S/C6H7NO2/c1-2-5-6(8-3-1)7-4-9-5/h4H,1-3H2	InChI=1S/C6H7NO2/c1-2-5-6(8-3-1)7-4-9-5/h4H,1-3H2
