19
gdb 116912	4.76361	0.57458	0.55775	1.3157	84.65	-0.238	0.0314	0.2694	2047.8142	0.156033	-422.96085	-422.950534	-422.94959	-422.997897	36.204	
C	-0.2613231321	 1.3897876797	-0.2384447496	-0.218843
O	-0.3254290975	-0.0161128791	-0.2955059993	-0.228544
C	 0.8744505136	-0.5809648866	-0.7914695085	-0.20647
C	 0.7748357328	-2.0313281398	-0.8388030881	-0.065077
C	 0.7261315577	-3.2341656444	-0.8975397243	 0.173454
C	 0.6468295376	-4.670585521	-0.9073841685	 0.225006
O	 1.1545943025	-5.3171667909	 0.231922172	-0.444104
C	-0.518182615	-5.3369098009	-1.6253664162	-0.310698
C	 0.8763891663	-5.4308408886	-2.1886293405	-0.289495
H	 0.5450983129	 1.7374162748	 0.4272817178	 0.104627
H	-0.0977203885	 1.8340257631	-1.2335714142	 0.104426
H	-1.2185581294	 1.7415447099	 0.1524831727	 0.130893
H	 1.0925834066	-0.1902440344	-1.8012905046	 0.115269
H	 1.7276212534	-0.2880427005	-0.1542423406	 0.116303
H	 0.6516766416	-5.0011395098	 0.9912353627	 0.285618
H	-0.9210315396	-6.218018949	-1.1390310099	 0.122382
H	-1.2418860695	-4.7026624979	-2.1232839726	 0.126742
H	 1.1207278064	-4.8629989672	-3.0777996127	 0.127007
H	 1.4020229602	-6.3718908475	-2.0757526755	 0.131501
23.8807	69.7464	72.7383	120.4554	197.1446	230.1552	286.525	299.7387	335.0915	362.9697	394.8503	474.3567	552.5424	576.9737	666.8835	776.8364	869.8273	888.9052	927.164	972.9146	990.0469	1023.5856	1054.7745	1076.1007	1081.6538	1148.7678	1182.3418	1194.3128	1219.1764	1240.1908	1254.585	1312.3527	1380.8404	1409.7587	1448.97	1476.6249	1484.2577	1486.5667	1492.8556	1515.117	2357.0181	2942.3234	2959.6761	2967.5022	3009.5243	3120.2917	3140.8337	3147.6029	3231.4179	3246.1976	3795.5027
COCC#CC1(O)CC1	COCC#CC1(O)CC1	
InChI=1S/C7H10O2/c1-9-6-2-3-7(8)4-5-7/h8H,4-6H2,1H3	InChI=1S/C7H10O2/c1-9-6-2-3-7(8)4-5-7/h8H,4-6H2,1H3
