24
gdb 6533	3.03237	1.48358	1.21817	0.1044	85.86	-0.25	0.08	0.33	1154.9774	0.221164	-314.273329	-314.263039	-314.262095	-314.307733	38.642	
C	 0.2654470446	 1.4855278991	 0.2768174685	-0.378152
C	-0.1936653676	 0.0922665398	-0.1776219466	-0.242977
C	 0.5992429362	-0.476647852	-1.3535258756	 0.332183
C	 0.4058499863	 0.32720084	-2.6314600143	-0.461706
C	 1.974386724	-1.0548125643	-1.0747243719	-0.368807
C	 0.8390990801	-1.9854308164	-1.4509919323	 0.287738
C	 0.2962060862	-2.9267678128	-0.3854629321	-0.450969
C	 0.8751182104	-2.66284613	-2.8132327337	-0.449357
H	 1.3296048078	 1.481976428	 0.5362067868	 0.116016
H	 0.1144512872	 2.2442481851	-0.4965647937	 0.116262
H	-0.2941627284	 1.8059629456	 1.1614168288	 0.107976
H	-0.1300275553	-0.5812433421	 0.6803171807	 0.092542
H	-1.2574186348	 0.1338641821	-0.4504351052	 0.090163
H	 0.6646243821	 1.3791396316	-2.4724807568	 0.115923
H	 1.0284279911	-0.0290283024	-3.4536023532	 0.112414
H	-0.6388021431	 0.2937873515	-2.9650278541	 0.110166
H	 2.7623263377	-0.8796620253	-1.8016622557	 0.098713
H	 2.3234590215	-1.069473619	-0.0459435915	 0.099168
H	 0.3827464301	-2.5280136967	 0.6268888933	 0.115215
H	-0.7592526076	-3.1672081706	-0.5628193941	 0.111261
H	 0.8533630668	-3.8708985075	-0.406344806	 0.110718
H	 1.4287015597	-3.6070617259	-2.7473022185	 0.111383
H	-0.1357610592	-2.9020436177	-3.1656957823	 0.111289
H	 1.3608719741	-2.05851423	-3.5809714608	 0.112838
65.5525	124.183	164.958	168.2569	186.3506	230.6799	245.5323	331.5894	337.2754	366.5206	389.185	407.0507	448.278	525.8275	672.2619	697.2793	785.0611	866.5876	904.5356	923.0899	937.1907	967.4496	994.5637	1016.3023	1037.7624	1058.031	1070.0492	1071.554	1125.7361	1152.8544	1219.2148	1227.2211	1296.906	1320.8721	1362.0902	1393.9027	1407.7333	1410.843	1416.9101	1428.7283	1474.0912	1483.2499	1489.3156	1490.9094	1495.1077	1496.4025	1505.5607	1509.8977	1513.2455	1524.1529	3013.3004	3020.9868	3024.9914	3029.9327	3035.9704	3073.1718	3077.3254	3083.1522	3087.2535	3100.6928	3111.3428	3111.6532	3118.0556	3124.9759	3135.4039	3193.6184
CCC1(C)CC1(C)C	CC[C@@]1(C)CC1(C)C	
InChI=1S/C8H16/c1-5-8(4)6-7(8,2)3/h5-6H2,1-4H3	InChI=1S/C8H16/c1-5-8(4)6-7(8,2)3/h5-6H2,1-4H3/t8-/m0/s1
