16
gdb 127727	3.35077	1.2501	0.92097	7.5788	75.69	-0.249	-0.0452	0.2038	1218.8483	0.123437	-434.084542	-434.075664	-434.07472	-434.118601	30.618	
C	 0.0047176673	 1.4191570566	-0.0175567801	-0.338184
N	 0.0058493935	-0.0271523392	 0.0637365435	-0.000101
N	-0.0263200999	-0.7694630719	-1.0831276085	-0.133776
N	-0.0182561807	-2.0130164952	-0.7482375914	-0.231757
C	 0.0194683065	-2.1102883863	 0.6192550629	 0.119963
C	 0.0381048624	-3.3844011115	 1.3394629515	 0.093531
O	 0.0236599608	-4.4791664531	 0.8305967285	-0.261625
C	 0.0348459716	-0.8260815264	 1.1519184072	 0.262025
C	 0.0745180013	-0.3033675316	 2.5479836862	-0.508213
H	 0.9086084083	 1.8348656452	 0.4370160633	 0.150701
H	-0.0230235207	 1.6793530066	-1.0753860593	 0.179021
H	-0.873442491	 1.8361111001	 0.4839524901	 0.150728
H	 0.0671995862	-3.2704834669	 2.4478818511	 0.058853
H	 0.9717470264	 0.3011629208	 2.722532943	 0.150697
H	-0.7948810944	 0.3281096371	 2.762636439	 0.150159
H	 0.0784902839	-1.1242576944	 3.2662245329	 0.157978
94.168	103.3653	114.9688	181.394	184.4195	255.7375	265.64	318.7135	379.567	515.8497	643.979	674.7016	731.1284	754.3623	811.387	989.784	996.2287	1026.0146	1061.2349	1135.7624	1151.0007	1206.4448	1244.1948	1340.535	1409.2435	1418.9535	1437.9384	1440.8305	1467.7616	1477.5671	1488.4948	1498.0382	1521.8339	1587.7837	1808.3597	2856.0714	3034.7623	3047.6071	3086.734	3112.1693	3141.7288	3166.1873
CN1N=NC(C=O)=C1C	Cn1nnc(C=O)c1C	
InChI=1S/C5H7N3O/c1-4-5(3-9)6-7-8(4)2/h3H,1-2H3	InChI=1S/C5H7N3O/c1-4-5(3-9)6-7-8(4)2/h3H,1-2H3
