19
gdb 15045	2.30285	1.95679	1.12014	1.156	77.85	-0.2362	0.0467	0.2829	1088.1382	0.163402	-327.859132	-327.850159	-327.849214	-327.892649	33.09	
C	 0.0038780894	 1.5498028862	 0.0011199503	-0.396331
C	 0.0120939343	 0.0201718481	-0.0341245144	-0.167162
C	 0.7189112743	-0.5790019473	-1.2683914673	-0.169345
C	 0.7729942204	-2.0391661914	-1.1668416731	 0.356745
C	 0.8190634533	-3.2358594721	-1.068073473	-0.443687
N	 0.0138215382	-0.1952341798	-2.5020718628	-0.063982
C	 0.5578361443	 0.9466314326	-3.2371238135	-0.220843
C	 0.7315134704	-0.4375144392	-3.7498556478	-0.215306
H	 1.020686565	 1.9575211691	-0.0368469132	 0.109285
H	-0.5602760025	 1.9675019056	-0.836626872	 0.1327
H	-0.4598040369	 1.9068735512	 0.9257144331	 0.114194
H	 0.5140348804	-0.3713177762	 0.8574118774	 0.105008
H	-1.012715365	-0.3645355793	-0.0180153268	 0.11747
H	 1.7613343962	-0.2048666539	-1.2852391619	 0.081353
H	 0.8607109634	-4.2936956758	-0.98532406	 0.194222
H	-0.1766771962	 1.6153306139	-3.6767465082	 0.118166
H	 1.4397383331	 1.442397147	-2.8349157872	 0.112039
H	 1.7275704122	-0.871625309	-3.6878838761	 0.116706
H	 0.1271996556	-0.8051900997	-4.5737235634	 0.118769
85.2347	102.1007	144.8725	165.7139	219.1432	278.9394	322.7704	357.151	453.0613	517.474	536.1297	622.5281	654.8123	721.0601	794.6493	859.2726	894.2911	901.9887	980.2237	1001.6672	1041.3916	1065.006	1112.5504	1119.7869	1121.3881	1127.5215	1175.3144	1194.2138	1284.7515	1304.774	1321.0364	1356.7244	1380.6634	1408.6119	1478.437	1491.2819	1497.0845	1507.9968	1518.2407	2238.3469	2901.8562	3034.0869	3045.9042	3084.3522	3096.4748	3101.581	3102.9446	3122.4835	3178.8755	3194.1625	3504.3072
CCC(C#C)N1CC1	CC[C@@H](C#C)N1CC1	
InChI=1S/C7H11N/c1-3-7(4-2)8-5-6-8/h1,7H,4-6H2,2H3	InChI=1S/C7H11N/c1-3-7(4-2)8-5-6-8/h1,7H,4-6H2,2H3/t7-/m1/s1
