18
gdb 53120	5.59417	0.88542	0.85551	1.8866	84.75	-0.2287	0.0524	0.2812	1407.9053	0.147823	-364.715897	-364.70767	-364.706725	-364.750689	30.294	
C	 0.1016809458	 1.4670158034	-0.095935559	-0.500032
C	 0.0501207973	 0.0136798384	-0.0256506803	 0.115287
C	 0.0103551504	-1.1892396007	 0.028091436	 0.02375
C	-0.032322346	-2.6382406504	 0.0949412418	-0.203778
C	-0.0154873833	-3.1744860724	 1.5394569561	-0.030389
C	-1.4911700247	-3.2205127503	 1.6112253532	-0.039018
C	-1.474619991	-3.2494034116	 0.0348952525	-0.076424
C	-1.1878863347	-4.7489288228	 0.195290641	-0.161713
N	-0.722779158	-4.4992169433	 1.6013335838	-0.157576
H	 0.7627832995	 1.8021939854	-0.9028833548	 0.148198
H	-0.8902587048	 1.893072713	-0.2835960326	 0.147068
H	 0.4757392317	 1.8994992944	 0.8387905007	 0.147695
H	 0.688702949	-3.0797736274	-0.6047290047	 0.091777
H	 0.7123052754	-2.972793338	 2.313603865	 0.105164
H	-2.2119077676	-2.941936731	 2.3675567021	 0.099555
H	-2.208153749	-2.84250549	-0.6571413896	 0.083734
H	-2.090026732	-5.3641996491	 0.2382744895	 0.109162
H	-0.4510086879	-5.2138282577	-0.4708940806	 0.097539
13.9655	89.6406	97.679	255.0711	285.1494	371.4701	428.3913	461.9817	501.9611	738.7489	765.7445	788.4024	820.9137	845.749	871.1261	921.8071	949.6919	969.0245	981.0047	1003.3302	1046.9271	1052.9341	1054.0889	1076.1592	1142.0314	1162.7184	1170.3056	1191.3524	1198.9279	1221.8518	1251.4586	1296.6985	1329.2327	1355.8556	1415.4451	1478.0585	1479.3269	1510.4803	2368.6846	3020.2157	3025.6718	3032.5851	3085.304	3086.5047	3102.9698	3146.0822	3205.0209	3219.1161
CC#CC1C2C3C1CN23	CC#C[C@H]1[C@H]2[C@H]3[C@@H]1CN23	
InChI=1S/C8H9N/c1-2-3-5-6-4-9-7(5)8(6)9/h5-8H,4H2,1H3	InChI=1S/C8H9N/c1-2-3-5-6-4-9-7(5)8(6)9/h5-8H,4H2,1H3/t5-,6-,7+,8-,9?/m1/s1
