20
gdb 47604	2.34131	1.78646	1.11874	3.7951	78.86	-0.2303	0.0337	0.264	1107.158	0.174562	-403.189115	-403.181312	-403.180368	-403.221677	30.643	
O	 0.0043068226	-0.0698842294	-0.0935788086	-0.38991
C	-0.0170229941	 1.1486974711	-0.0748555808	 0.373707
N	-1.1901402607	 1.8526909843	-0.0626477837	-0.309852
C	-1.3295542551	 3.3034471573	-0.0528339758	-0.158175
C	-0.1825531983	 3.934832454	 0.7382997061	-0.213927
C	 1.1590395062	 3.5244509545	 0.1298404207	-0.014974
C	 2.3456177547	 3.4455396546	 1.1317862384	-0.243868
C	 2.1226630361	 1.9112680634	 1.2481736608	-0.218727
C	 1.2511975618	 1.978401671	-0.0436242486	-0.083937
H	-2.0191883605	 1.2798060394	-0.1198318411	 0.244136
H	-1.3469774284	 3.7088942251	-1.0765121496	 0.106139
H	-2.2936909891	 3.5507349792	 0.4030309217	 0.110887
H	-0.2889852196	 5.0248317978	 0.751057142	 0.101627
H	-0.2490526389	 3.5903638158	 1.7777687625	 0.106224
H	 1.3418007219	 4.1033216112	-0.7808350466	 0.066743
H	 3.3001798839	 3.6868579433	 0.6567835706	 0.103369
H	 2.2566772821	 4.0364664999	 2.047566529	 0.097022
H	 3.0038037631	 1.2693075848	 1.2110058087	 0.110577
H	 1.5339276343	 1.6332229898	 2.1259737915	 0.112042
H	 1.8426864479	 1.6982951629	-0.9192235472	 0.100899
68.8457	126.76	228.1333	245.0556	332.2328	413.4802	467.182	470.0727	554.6759	660.3108	663.5729	705.8858	769.1355	796.4771	864.9134	922.3706	939.2736	953.3014	973.842	987.3654	1013.6925	1074.2227	1091.8762	1119.4316	1158.6658	1190.3843	1219.2275	1243.0664	1251.6637	1261.9237	1279.2899	1289.6379	1306.6152	1336.6655	1355.9304	1389.575	1397.9413	1470.7958	1480.2666	1487.9376	1500.0081	1523.6878	1781.1247	2981.2042	3030.2103	3045.7023	3055.7799	3067.2757	3071.8765	3076.807	3082.082	3103.202	3129.266	3613.8261
O=C1NCCC2CCC12	O=C1NCC[C@H]2CC[C@@H]12	
InChI=1S/C7H11NO/c9-7-6-2-1-5(6)3-4-8-7/h5-6H,1-4H2,(H,8,9)	InChI=1S/C7H11NO/c9-7-6-2-1-5(6)3-4-8-7/h5-6H,1-4H2,(H,8,9)/t5-,6-/m1/s1
