18
gdb 30423	3.19778	1.17669	0.87274	4.1035	79.71	-0.1742	0.0503	0.2245	1328.9274	0.146944	-435.288518	-435.278736	-435.277792	-435.323565	34.906	
C	-0.0955440479	 1.4076683516	 0.1102296241	-0.318289
N	-0.0488619255	-0.0425585698	 0.0440069465	-0.383042
C	 0.5198842403	-0.659624016	 0.9867494211	 0.497469
N	 0.6711097359	-2.03780347	 1.0925817417	-0.398977
C	 1.4737447807	-2.3127729888	 2.2072919294	 0.184456
N	 1.8947512305	-3.6266887364	 2.4313007645	-0.608085
C	 1.7028312734	-1.1535487663	 2.8423306398	 0.29076
C	 2.3916215785	-0.7810193666	 4.0986981719	-0.499966
O	 1.1130409652	-0.114482048	 2.1031532258	-0.263496
H	 0.833629823	 1.8561663382	 0.4886340435	 0.109474
H	-0.2856633726	 1.8040461157	-0.891442153	 0.112302
H	-0.9116361863	 1.7557280049	 0.7596694948	 0.111571
H	 0.6816323198	-2.6036064673	 0.259598858	 0.267147
H	 1.1151998713	-4.2626414301	 2.573674998	 0.25132
H	 2.5211660356	-3.691465373	 3.2232375404	 0.250728
H	 2.7278010571	-1.6783599224	 4.6265711153	 0.118543
H	 3.2700380436	-0.1492237407	 3.9170546355	 0.138401
H	 1.7249536175	-0.2268730851	 4.7705476425	 0.139684
38.5608	118.32	162.7647	176.6215	189.0733	225.5823	266.2548	277.735	339.0294	371.7074	439.2314	548.4114	612.0892	641.3247	673.731	726.5054	793.6407	823.2051	918.9212	987.2853	1045.62	1066.4852	1100.1394	1125.7069	1155.8524	1188.3299	1268.8757	1289.5691	1344.6791	1421.5012	1446.0864	1461.856	1463.5815	1492.3437	1498.6627	1501.1422	1638.2666	1780.0248	1818.3047	2989.5999	3017.2943	3035.6182	3063.8452	3088.0244	3106.3069	3495.2778	3612.2077	3655.8696
CN=C1NC(N)=C(C)O1	CN=c1[nH]c(N)c(C)o1	
InChI=1S/C5H9N3O/c1-3-4(6)8-5(7-2)9-3/h6H2,1-2H3,(H,7,8)	InChI=1S/C5H9N3O/c1-3-4(6)8-5(7-2)9-3/h6H2,1-2H3,(H,7,8)
