17
gdb 64787	4.64361	0.68753	0.67525	0.9364	90.44	-0.2468	-0.0183	0.2285	1684.6418	0.133005	-384.620503	-384.611082	-384.610138	-384.65513	35.184	
O	-0.2873935327	 1.3756100253	-0.230371264	-0.464888
C	-0.0325399989	 0.0131100288	-0.0485343138	 0.432173
C	 1.0920211419	-0.5262275019	-0.9315518719	-0.444285
C	 2.3573361419	 0.1460177873	-0.6645242645	 0.332505
C	 3.383535574	 0.7409838278	-0.4207447936	-0.215981
C	 4.542198258	 1.4021028595	-0.1508268474	 0.283407
C	 5.5687929958	 1.9906444988	 0.0897103301	-0.540524
C	-0.2541004413	-0.5759172139	 1.3208162943	-0.310721
C	-1.2453944621	-0.8247969291	 0.1958517176	-0.31056
H	 0.5025738793	 1.8569354923	 0.0456244184	 0.288805
H	 1.202631925	-1.6061395282	-0.7755715666	 0.134571
H	 0.8170216469	-0.3806446322	-1.9844367787	 0.145403
H	 6.4723574843	 2.5071673971	 0.2993738779	 0.192592
H	 0.3750463642	-1.3963311329	 1.6494734714	 0.114753
H	-0.5559006913	 0.1113091065	 2.1026596254	 0.119942
H	-2.1908201736	-0.2969988023	 0.2382615913	 0.129029
H	-1.2940287314	-1.8148304231	-0.2446577759	 0.113777
55.1784	66.9133	155.8853	189.5573	297.0291	323.2191	351.9541	367.7939	384.5973	442.6039	494.2267	528.6722	532.6246	590.5446	598.4694	726.8012	749.4987	775.8574	881.8765	920.4498	934.1402	975.9832	1006.1942	1051.2855	1081.104	1170.841	1186.4258	1190.5279	1281.3733	1302.1564	1314.6848	1405.9992	1449.8182	1458.5299	1505.3797	2181.1403	2360.8702	3021.2147	3061.6818	3134.4672	3139.1167	3220.7042	3234.2613	3505.3649	3775.3721
OC1(CC#CC#C)CC1	OC1(CC#CC#C)CC1	
InChI=1S/C8H8O/c1-2-3-4-5-8(9)6-7-8/h1,9H,5-7H2	InChI=1S/C8H8O/c1-2-3-4-5-8(9)6-7-8/h1,9H,5-7H2
