18
gdb 76668	2.7991	1.1212	1.00946	2.2075	68.27	-0.246	0.0459	0.292	1245.7178	0.145587	-476.24257	-476.232548	-476.231604	-476.278537	35.599	
C	-0.0235293151	 1.4555078478	 0.3419740252	-0.408401
C	 0.1035271653	-0.0313689936	 0.1042852401	-0.070008
C	 1.4291355956	-0.6362290322	-0.3354994359	 0.05942
O	 2.5471615814	 0.1889540254	-0.4692716246	-0.425497
C	 0.8968401146	-0.9104386083	 1.0421187714	 0.062472
O	 1.6678422985	-0.3004873111	 2.0587899814	-0.280176
C	 1.0415726809	-0.1636397946	 3.2671986034	 0.505122
N	 1.9009158498	 0.3978116898	 4.165554835	-0.564444
O	-0.083816483	-0.5278893681	 3.4970650392	-0.386033
H	 0.9478368726	 1.9007354703	 0.5654872316	 0.120175
H	-0.4143736181	 1.9520706042	-0.5514189203	 0.120158
H	-0.7046107858	 1.6625566127	 1.1733856992	 0.127897
H	-0.783208459	-0.5118536933	-0.3009216788	 0.092274
H	 1.4137864832	-1.4472900203	-1.0596600817	 0.098597
H	 2.9989256659	 0.1995479186	 0.3818963052	 0.294312
H	 0.5227311707	-1.8892216387	 1.3187131815	 0.116436
H	 2.7335214753	 0.8544115997	 3.8355259295	 0.264645
H	 1.4981365671	 0.7115376918	 5.0314236086	 0.273053
26.6485	79.944	127.4679	153.299	187.6772	231.1729	256.9473	278.9893	312.889	421.892	500.5811	514.2882	603.0778	615.3761	681.6027	773.9915	779.9272	789.0216	887.6771	956.0473	990.7603	1036.7466	1089.2785	1104.7612	1116.2742	1144.7888	1165.2086	1169.7613	1250.8666	1322.6198	1344.8061	1374.8504	1393.3698	1413.8978	1450.1478	1496.7962	1501.9024	1612.5254	1849.078	3043.9544	3104.4847	3127.415	3131.3566	3146.7425	3178.0324	3618.6424	3748.1341	3799.7996
CC1C(O)C1OC(N)=O	C[C@H]1[C@@H](O)[C@H]1OC(=O)N	
InChI=1S/C5H9NO3/c1-2-3(7)4(2)9-5(6)8/h2-4,7H,1H3,(H2,6,8)	InChI=1S/C5H9NO3/c1-2-3(7)4(2)9-5(6)8/h2-4,7H,1H3,(H2,6,8)/t2-,3+,4-/m0/s1
