14
gdb 20341	5.23129	2.09405	1.50939	2.5955	68.89	-0.205	-0.0021	0.203	781.5451	0.11144	-341.607217	-341.601534	-341.600589	-341.636751	22.776	
C	-0.0681498001	 1.5084329535	 0.010757999	-0.418339
C	 1.4068458559	 1.9051270478	-0.0009958671	-0.088174
C	 2.2092140893	 0.8220034461	-0.0146470342	-0.202055
C	 1.3813473891	-0.3837878483	-0.0135509247	 0.226404
C	 0.0575601282	 0.0157204126	 0.0012321288	 0.351362
N	-0.6930667677	-1.1020654909	 0.0021987928	-0.327125
N	 0.0688850007	-2.2279867905	-0.0113076903	-0.224942
C	 1.3317999914	-1.7931488059	-0.0209412829	-0.167927
H	-0.5862090174	 1.8945879558	 0.8981744429	 0.134859
H	-0.6029092562	 1.9044450841	-0.8622918846	 0.134858
H	 1.7253529279	 2.9390799862	 0.0017477971	 0.099215
H	 3.2912837867	 0.8400224126	-0.0248124249	 0.102056
H	-1.6936186434	-1.202052834	 0.0111196078	 0.270516
H	 2.1341775757	-2.5159396592	-0.0325983197	 0.109293
203.8075	265.013	433.3614	433.654	509.2082	647.2207	665.7602	684.1397	721.4756	742.8712	863.9551	878.0709	926.1032	932.997	948.5581	984.1328	1080.1499	1095.3675	1138.9037	1164.1993	1227.145	1238.5298	1327.5817	1330.7204	1400.7166	1435.4807	1465.7566	1548.9195	1555.6298	1616.04	3028.921	3057.6039	3210.4363	3233.0775	3246.1535	3675.0399
C1C=CC2=C1NN=C2	C1C=Cc2c1[nH]nc2	
InChI=1S/C6H6N2/c1-2-5-4-7-8-6(5)3-1/h1-2,4H,3H2,(H,7,8)	InChI=1S/C6H6N2/c1-2-5-4-7-8-6(5)3-1/h1-2,4H,3H2,(H,7,8)
