16
gdb 56936	2.18672	1.41373	1.02143	5.6828	74.23	-0.2813	-0.0062	0.2751	1179.7484	0.123368	-396.919648	-396.910683	-396.909738	-396.953853	31.879	
C	 0.0034885317	 1.4461811004	-0.2132263096	-0.393902
C	 0.1179010152	-0.0346111295	 0.1739692309	-0.123717
C	 0.7151300623	-0.1791771469	 1.5110540872	 0.307656
N	 1.1959083248	-0.2766932429	 2.5563194538	-0.310837
N	-1.2220649361	-0.6376749663	 0.1937374972	-0.070692
C	-1.7644176704	-1.0849228626	-1.0761792361	-0.242301
C	-1.3519820532	-2.0841331908	-0.0341336909	-0.143198
C	-0.1927418173	-2.9029163506	-0.2980341443	 0.29321
N	 0.7385256882	-3.558054294	-0.5011884372	-0.32554
H	 0.9879026814	 1.9187649461	-0.1949040683	 0.147592
H	-0.4063829391	 1.5319827911	-1.2230253012	 0.130592
H	-0.6563017887	 1.9691343235	 0.4821056325	 0.154022
H	 0.787951301	-0.5449764657	-0.5368629358	 0.13598
H	-2.8198384409	-0.8899852503	-1.2385283055	 0.145466
H	-1.1346576114	-1.0239084912	-1.9619568345	 0.142066
H	-2.1060575574	-2.5664712899	 0.5801558017	 0.153602
52.6701	107.3924	148.7853	212.2832	224.4478	243.9175	269.2123	357.9362	405.9992	526.4713	557.2773	562.2307	656.0476	747.556	805.2008	861.6027	922.4488	990.6787	1022.7906	1042.7576	1107.9834	1115.7721	1126.9237	1147.5716	1160.505	1311.3054	1332.0615	1360.3981	1369.7873	1408.6557	1487.0268	1495.2644	1503.6877	2353.555	2368.3802	2978.4757	3056.1807	3105.2109	3134.0729	3146.4756	3162.9581	3202.381
CC(C#N)N1CC1C#N	C[C@@H](C#N)N1C[C@H]1C#N	
InChI=1S/C6H7N3/c1-5(2-7)9-4-6(9)3-8/h5-6H,4H2,1H3	InChI=1S/C6H7N3/c1-5(2-7)9-4-6(9)3-8/h5-6H,4H2,1H3/t5-,6+,9?/m0/s1
