22
gdb 96157	2.63902	1.46321	1.03268	0.872	82.82	-0.2214	0.0907	0.312	1215.2988	0.195817	-404.325692	-404.317325	-404.316381	-404.358177	33.48	
C	-0.0296601513	 1.5443061304	 0.1096556874	-0.399034
C	 0.0015363466	 0.0259874602	-0.029800458	 0.135393
C	 0.5834935754	-0.4106022522	-1.3845581118	-0.163887
N	 0.1285855981	-1.7475529515	-1.7646292167	-0.087257
C	 1.100295404	-2.6732844611	-2.3393010053	-0.264584
C	 0.5712706923	-2.8908104914	-0.9633305917	 0.014906
C	 1.4217922124	-2.705043781	 0.2794260411	-0.240359
C	 0.7248108865	-1.837248426	 1.3386800579	-0.06388
O	 0.7798622479	-0.4508990582	 1.0651257218	-0.258291
H	 0.9743013684	 1.9624546582	-0.0175864178	 0.121761
H	-0.6891029441	 1.9893402345	-0.6407906393	 0.114956
H	-0.3890602669	 1.8219397289	 1.103404538	 0.123115
H	-1.0223418839	-0.375560521	 0.0462389121	 0.075325
H	 0.2456174828	 0.2778355507	-2.1684052448	 0.099897
H	 1.6798629861	-0.3171109264	-1.3235298724	 0.090505
H	 0.7541273692	-3.2742429114	-3.1766429205	 0.112507
H	 2.1339833487	-2.3374210249	-2.4205465755	 0.106507
H	-0.216838807	-3.6341059468	-0.8393440033	 0.087087
H	 1.6322905061	-3.6923565072	 0.7092992971	 0.09939
H	 2.3898387199	-2.2500495452	 0.04564925	 0.107161
H	-0.3207705772	-2.1668804448	 1.4637171225	 0.086755
H	 1.2278980461	-1.956510154	 2.3039424591	 0.102026
124.3987	171.0256	219.7018	270.4446	273.9496	334.5586	357.6687	383.117	437.1151	487.8086	554.5053	561.6483	751.2224	777.6188	828.8299	885.4095	924.1209	936.0553	944.7906	978.414	1015.2608	1053.1174	1083.4493	1105.7457	1121.3166	1132.3721	1144.7047	1158.8684	1165.9592	1183.0507	1241.8811	1260.3904	1302.956	1318.8155	1339.6745	1352.7443	1379.2042	1396.6992	1410.2536	1419.1991	1427.7956	1473.4234	1485.4868	1491.9561	1492.8974	1502.7928	1516.3944	2963.2293	2968.0233	2977.6395	3031.716	3041.8684	3047.6508	3070.5739	3078.41	3084.3962	3099.8345	3113.7811	3127.5891	3170.0481
CC1CN2CC2CCO1	C[C@H]1CN2C[C@H]2CCO1	
InChI=1S/C7H13NO/c1-6-4-8-5-7(8)2-3-9-6/h6-7H,2-5H2,1H3	InChI=1S/C7H13NO/c1-6-4-8-5-7(8)2-3-9-6/h6-7H,2-5H2,1H3/t6-,7+,8?/m0/s1
