17
gdb 100491	3.60104	0.60418	0.57235	2.4775	79.09	-0.2562	0.0188	0.275	1925.7912	0.132675	-421.748639	-421.738302	-421.737358	-421.7858	36.341	
O	 0.1125076475	 1.052060555	-1.1120054947	-0.417932
C	-0.1436743968	-0.3109705117	-0.8742270837	-0.054295
C	-0.8940554809	-0.4839970227	 0.4600472739	-0.069442
O	-2.0477130599	 0.3691482899	 0.4576973583	-0.429865
C	-1.232703106	-1.8792740618	 0.7207096739	 0.033407
C	-1.5325815281	-3.0346649513	 0.8761236115	 0.115405
C	-1.8894190154	-4.4383134294	 1.0910788321	-0.49536
C	-2.4589003443	-5.0862988899	-0.0919065734	 0.312903
C	-2.9282518915	-5.6262432389	-1.0557134576	-0.438292
H	-0.7137608032	 1.5085202515	-0.9045719605	 0.287147
H	-0.7455498996	-0.7684671616	-1.6777863366	 0.086113
H	 0.8169247543	-0.8338093979	-0.8366168522	 0.117443
H	-0.2584225305	-0.0885340412	 1.2607832643	 0.12458
H	-2.7444084431	-0.0927647754	-0.0233745194	 0.289799
H	-0.9973753426	-4.9916803368	 1.4156826605	 0.167684
H	-2.6008390865	-4.5113553557	 1.9251736494	 0.166619
H	-3.3415579335	-6.1027530524	-1.9100054656	 0.204088
18.9807	56.6286	95.5077	133.5699	197.798	277.9926	296.5028	321.0753	336.4711	352.5908	390.6603	511.1989	517.9114	543.2939	611.6873	627.3094	655.2847	810.6352	876.796	932.9418	950.1126	1044.546	1067.9647	1095.7311	1159.5607	1203.5217	1230.422	1272.7135	1297.5393	1334.704	1377.1868	1417.791	1436.162	1450.0965	1503.0539	2248.6292	2368.6524	2963.6451	3010.8949	3035.9102	3050.9165	3086.0681	3505.8171	3763.6693	3797.5011
OCC(O)C#CCC#C	OC[C@@H](O)C#CCC#C	
InChI=1S/C7H8O2/c1-2-3-4-5-7(9)6-8/h1,7-9H,3,6H2	InChI=1S/C7H8O2/c1-2-3-4-5-7(9)6-8/h1,7-9H,3,6H2/t7-/m0/s1
