16
gdb 44258	3.0195	1.51596	1.18032	1.7864	68.99	-0.2448	-0.0405	0.2042	1026.3781	0.125461	-437.928303	-437.920943	-437.919999	-437.960645	27.802	
O	-0.009926947	 0.0831730524	 0.6329853022	-0.331813
C	-0.0809136646	 1.2104303538	 0.2356819816	 0.396572
C	-1.2094184929	 2.223970704	-0.0667931902	-0.388262
C	-0.0527546966	 3.2616477329	-0.1519599545	-0.102619
N	 0.9195181473	 2.1570327543	-0.0430957499	-0.101781
C	 2.0255908711	 2.4670967435	 0.8720875486	-0.20361
C	 1.4335889757	 3.5324765199	 1.8217272728	-0.33294
C	 0.2274714328	 4.1381310993	 1.0762789062	 0.388392
O	-0.3820782896	 5.1237174642	 1.3931488972	-0.297448
H	-1.762356786	 2.0592847724	-0.992867209	 0.144973
H	-1.912191476	 2.360239188	 0.7576149222	 0.149704
H	 0.0030337568	 3.8535284421	-1.0703236015	 0.11418
H	 2.334240938	 1.5511714316	 1.3791053417	 0.146589
H	 2.8811453652	 2.8550531583	 0.3108052374	 0.124322
H	 1.0536138889	 3.0720124261	 2.7418831769	 0.151687
H	 2.1297279669	 4.3197153973	 2.1182710683	 0.142054
76.416	104.4798	227.6094	230.4862	429.8754	448.4142	536.2016	554.427	588.1698	641.9865	690.1756	767.5049	787.3011	832.4789	947.0869	959.1582	982.0088	1004.3101	1046.3815	1072.2314	1098.3369	1153.9708	1183.6201	1197.1658	1215.464	1256.2765	1272.0334	1288.4256	1321.7894	1355.6592	1446.608	1456.4997	1504.7116	1852.0935	1890.243	3047.9897	3057.9751	3069.5745	3087.2996	3116.1565	3127.4245	3145.1441
O=C1CC2N1CCC2=O	O=C1C[C@@H]2N1CCC2=O	
InChI=1S/C6H7NO2/c8-5-1-2-7-4(5)3-6(7)9/h4H,1-3H2	InChI=1S/C6H7NO2/c8-5-1-2-7-4(5)3-6(7)9/h4H,1-3H2/t4-/m0/s1
