15
gdb 30624	4.51389	1.04597	0.85377	2.6102	69.71	-0.2485	-0.0233	0.2252	1285.1388	0.114054	-454.010288	-454.002117	-454.001172	-454.043923	28.618	
C	-0.0134457063	 1.4028141662	-0.0906534203	-0.335688
N	 0.1066461649	-0.0335244291	 0.0343400062	-0.322925
C	 0.5718112246	-0.6345863908	 1.160353782	 0.316444
O	 0.9330608752	-0.0489772259	 2.1700829186	-0.391885
C	 0.6093240336	-2.1155250754	 1.0669394521	 0.174274
C	 1.0211722773	-2.988240202	 2.0197881514	-0.071429
O	 0.8907671481	-4.248759885	 1.5204863034	-0.137681
C	 0.3987771455	-4.0705042436	 0.2711081833	 0.069492
N	 0.2101917758	-2.8370701972	-0.0579933198	-0.326582
H	 0.6049316471	 1.7849856029	-0.9107265368	 0.126921
H	-1.0524468125	 1.7023057433	-0.2689133906	 0.126918
H	 0.3278888848	 1.8424328439	 0.8474988654	 0.169515
H	-0.1589778885	-0.6368498297	-0.7291425897	 0.263678
H	 1.4025962748	-2.8845617152	 3.0194984751	 0.178515
H	 0.2177008854	-4.9598864124	-0.3115058503	 0.160434
80.5856	92.9377	120.8721	149.5056	239.6362	309.5749	394.0019	499.7551	564.4403	628.1487	670.2696	775.2687	812.186	828.9823	859.0521	933.7021	961.2237	1055.6335	1095.768	1133.2686	1153.7604	1173.8969	1210.8669	1243.1432	1306.4198	1346.0293	1440.8144	1495.703	1499.1616	1559.1949	1566.4594	1625.8922	1769.534	3025.8169	3076.5375	3150.2685	3278.124	3313.3089	3624.2908
CNC(=O)C1=COC=N1	CNC(=O)c1cocn1	
InChI=1S/C5H6N2O2/c1-6-5(8)4-2-9-3-7-4/h2-3H,1H3,(H,6,8)	InChI=1S/C5H6N2O2/c1-6-5(8)4-2-9-3-7-4/h2-3H,1H3,(H,6,8)
