18
gdb 29780	2.4748	1.52613	0.95627	1.6565	77.71	-0.1674	0.0542	0.2217	1207.2825	0.147538	-435.278398	-435.268171	-435.267227	-435.31481	36.349	
C	-0.0506816787	 1.426162339	 0.0398627395	-0.337744
N	 0.0650083169	-0.0116215001	 0.0073845448	-0.040941
C	 0.0572686908	-0.8018650007	-1.1285259202	-0.202246
C	 0.0431545795	-2.123188514	-0.7383922637	 0.189651
N	-0.0197708621	-3.2926108406	-1.5283595423	-0.618326
C	 0.026839384	-2.1511692245	 0.6875121666	 0.106774
N	 0.0750054826	-3.3260312667	 1.4762775912	-0.630835
C	 0.0418898465	-0.8429108468	 1.1087504476	 0.228345
O	-0.0019974388	-0.3419003203	 2.382911754	-0.443803
H	 0.7325462399	 1.894872995	-0.566152463	 0.126274
H	-1.0260599017	 1.7646032909	-0.3313818915	 0.13052
H	 0.0556507403	 1.7588426644	 1.0732777719	 0.141249
H	 0.0466706412	-0.3574594657	-2.1107936675	 0.097943
H	 0.1525405811	-3.0978296521	-2.5072190091	 0.23375
H	 0.6620911533	-3.9773615959	-1.2162391688	 0.241836
H	-0.6423701631	-3.9810914173	 1.1776326688	 0.242334
H	-0.1035011022	-3.1013088168	 2.4494638143	 0.234804
H	 0.8944329305	-0.2841716178	 2.7350980974	 0.300414
14.3155	70.7198	133.6211	177.6307	223.4	275.7625	282.4808	294.4365	298.2461	331.1436	340.8181	566.1929	579.6974	588.0268	611.9694	627.8805	688.2124	751.6988	828.5208	887.8063	921.3532	1060.5674	1114.6968	1133.168	1151.4187	1213.1772	1232.062	1276.9217	1291.3979	1406.2343	1432.5383	1467.7464	1491.6208	1508.4573	1529.4078	1599.8482	1632.6997	1647.3666	1688.4804	3017.5581	3068.5163	3142.2003	3255.9058	3484.9188	3497.5769	3576.4171	3596.2879	3750.4299
CN1C=C(N)C(N)=C1O	Cn1cc(N)c(N)c1O	
InChI=1S/C5H9N3O/c1-8-2-3(6)4(7)5(8)9/h2,9H,6-7H2,1H3	InChI=1S/C5H9N3O/c1-8-2-3(6)4(7)5(8)9/h2,9H,6-7H2,1H3
