19
gdb 114434	3.8922	1.31038	1.17487	2.5533	74.04	-0.2269	0.0732	0.3001	1101.3056	0.160131	-422.97428	-422.9667	-422.965755	-423.006499	29.646	
C	 0.0862707033	 1.3563419902	 0.0762218596	-0.234709
O	-0.2053375332	-0.0028949254	-0.1513756387	-0.248287
C	 0.5696444863	-0.5889650738	-1.1648793273	 0.176795
C	 2.0736767595	-0.827758507	-0.8181351677	-0.27137
C	 2.378404934	-2.1768080962	-1.4635728029	-0.092693
C	 1.5217360132	-3.3407530996	-1.0054499179	 0.104445
O	 0.3648940948	-2.8610908241	-0.3199225397	-0.301409
C	 0.0723364128	-1.9991744696	-1.4688720283	 0.043872
C	 1.192832349	-2.6579413108	-2.2947785819	-0.16375
H	 1.1120732238	 1.50659566	 0.4439886067	 0.108352
H	-0.0434589154	 1.9582372679	-0.8378733681	 0.10084
H	-0.6127875154	 1.7145589382	 0.8357162485	 0.128533
H	 0.4949897056	 0.0095803927	-2.0915361203	 0.060694
H	 2.7207743344	-0.0398632017	-1.2118549942	 0.097574
H	 2.1902908208	-0.8576099097	 0.2695704109	 0.119504
H	 3.3786898381	-2.4119674842	-1.8098001076	 0.087856
H	 1.8826796762	-4.3346805366	-0.7682282442	 0.102389
H	-0.9699339217	-2.0818055653	-1.778022256	 0.084048
H	 1.190688804	-2.9807531048	-3.325974001	 0.097315
94.7143	120.9252	198.5524	242.6305	338.2009	411.6029	467.5334	516.5463	670.3747	712.9979	762.5585	803.3098	806.3115	857.8608	871.4852	918.1058	978.7151	988.4921	1007.3187	1031.215	1039.7579	1058.5723	1076.9512	1078.2496	1115.25	1162.0904	1181.5535	1198.4119	1213.634	1236.2658	1258.8872	1266.7946	1284.6514	1319.9776	1355.8138	1380.1618	1406.363	1480.8486	1484.8894	1492.9201	1508.9611	2934.2795	2971.3104	3021.9141	3055.249	3101.3664	3114.6126	3117.2756	3174.9733	3184.2786	3213.4833
COC1CC2C3OC1C23	CO[C@H]1C[C@H]2[C@H]3O[C@@H]1[C@@H]23	
InChI=1S/C7H10O2/c1-8-4-2-3-5-6(3)9-7(4)5/h3-7H,2H2,1H3	InChI=1S/C7H10O2/c1-8-4-2-3-5-6(3)9-7(4)5/h3-7H,2H2,1H3/t3-,4+,5+,6-,7+/m1/s1
