19
gdb 84424	3.04282	1.32448	1.02195	2.7669	77.24	-0.2454	-0.0361	0.2093	1183.798	0.15836	-423.045588	-423.03687	-423.035925	-423.07895	33.029	
C	-0.0165342485	 1.6089187101	 0.1596129429	-0.39563
C	 0.116999416	 0.0909235942	 0.0109984909	-0.033522
C	 0.9136986359	-0.3707720867	-1.1918093496	-0.056737
C	 1.6685793399	-1.4329548198	-0.9263056843	-0.100757
C	 1.5060197683	-1.8587222095	 0.5217747188	-0.165595
C	 2.7690910308	-2.3731947183	 1.1701461051	 0.163777
O	 3.1889526407	-2.041912241	 2.254752572	-0.26927
C	 0.8401752787	-0.6175199486	 1.19153842	 0.090953
O	 1.7981674452	 0.2734813422	 1.7198234455	-0.435959
H	 0.9643136589	 2.0777718226	 0.2519769418	 0.141352
H	-0.5288653795	 2.0307873852	-0.7113694992	 0.104174
H	-0.5978598487	 1.8668129091	 1.0499068939	 0.116124
H	-0.8954887916	-0.3362029469	-0.0648026045	 0.080753
H	 0.8300686111	 0.1082979582	-2.1615930235	 0.09756
H	 2.299137602	-1.9650200087	-1.6298230811	 0.099123
H	 0.8145399523	-2.7215011766	 0.5637091231	 0.110572
H	 3.3127774339	-3.1391712323	 0.5725106832	 0.092895
H	 0.126313107	-0.9269197433	 1.9689468923	 0.062576
H	 2.3527639577	-0.2433015798	 2.3201281327	 0.297611
81.8481	108.6937	198.0441	212.1251	245.5289	300.5434	308.7711	375.3438	437.3799	540.4996	570.3338	662.5398	708.7745	732.677	781.8829	840.4281	854.0833	911.6198	952.7803	963.7656	1005.105	1037.1652	1071.5068	1086.7485	1115.6148	1143.3752	1187.3848	1205.4445	1251.1634	1303.0116	1306.1019	1334.437	1347.1739	1382.4619	1403.3092	1426.1039	1440.1123	1490.2656	1501.1553	1681.7196	1806.7796	2880.6435	2935.6015	2973.2181	2995.1015	3042.2821	3104.3539	3141.4853	3180.1969	3205.36	3740.1623
CC1C=CC(C=O)C1O	C[C@H]1C=C[C@@H](C=O)[C@H]1O	
InChI=1S/C7H10O2/c1-5-2-3-6(4-8)7(5)9/h2-7,9H,1H3	InChI=1S/C7H10O2/c1-5-2-3-6(4-8)7(5)9/h2-7,9H,1H3/t5-,6-,7-/m0/s1
