16
gdb 26439	3.72626	1.07804	0.9956	0.6045	73.6	-0.2083	-0.0402	0.1681	1202.7674	0.124906	-437.927459	-437.919387	-437.918442	-437.961003	29.934	
O	-1.0383131046	-0.0684690661	-0.0525004793	-0.438909
C	 0.2770284825	-0.5154658184	-0.2704146038	-0.070452
C	 1.0758602848	 0.5883902618	-0.9630554562	 0.135254
O	 0.5686783012	 1.64433854	-1.2533599483	-0.260941
C	 0.9536382229	-0.8615184001	 1.0266600257	 0.28403
C	 2.0547221736	-1.6365513334	 1.3266761028	-0.248616
C	 2.279609734	-1.524332703	 2.7267675683	-0.140002
C	 1.3109616517	-0.6874796611	 3.2336759279	-0.09052
N	 0.524409128	-0.2788476895	 2.1898754378	-0.266465
H	-1.0881179333	 0.7943595391	-0.4976910898	 0.297365
H	 0.2977482795	-1.3957001902	-0.9358858875	 0.110236
H	 2.142604194	 0.3661740041	-1.1568050033	 0.111718
H	 2.6284853698	-2.2215760683	 0.6235344602	 0.091889
H	 3.0579655705	-2.0090858288	 3.2955304575	 0.097441
H	 1.1083506168	-0.364864207	 4.2421251931	 0.119769
H	-0.3217702315	 0.2635048608	 2.2382781549	 0.268204
46.2553	82.0737	169.1156	233.0213	312.2765	360.0672	433.7027	516.3253	571.2906	638.9126	676.0767	691.8861	728.0836	776.7169	794.4469	851.1775	860.8132	899.2409	979.4422	1023.87	1055.0229	1098.5653	1137.4438	1143.0029	1240.3437	1256.8062	1287.4937	1326.7377	1384.9216	1426.1672	1440.3059	1471.3761	1490.0765	1597.6268	1807.6117	2952.406	2966.4946	3239.1981	3253.2701	3273.44	3661.4421	3672.9563
OC(C=O)C1=CC=CN1	O[C@@H](C=O)c1ccc[nH]1	
InChI=1S/C6H7NO2/c8-4-6(9)5-2-1-3-7-5/h1-4,6-7,9H	InChI=1S/C6H7NO2/c8-4-6(9)5-2-1-3-7-5/h1-4,6-7,9H/t6-/m0/s1
