19
gdb 58213	2.76319	1.09047	0.82091	2.8009	73.06	-0.2607	0.0136	0.2743	1373.9555	0.157862	-456.345337	-456.335061	-456.334117	-456.380564	37.43	
C	-0.006743499	 1.5832264536	-0.0980551666	-0.380965
C	 0.0110434638	 0.0646959495	 0.0352642079	 0.110448
O	 0.7462164345	-0.2449653719	 1.1988878627	-0.442982
C	-1.4219478367	-0.5173434745	 0.079058424	 0.106781
O	-2.2090639558	-0.0772569486	-1.0109818058	-0.410465
C	-1.4288819504	-2.0733369899	 0.1125675199	-0.176144
N	-0.7426465597	-2.5999887205	 1.3020435692	-0.513487
C	-2.8069942523	-2.5892810613	-0.0138702766	 0.280278
N	-3.8673813296	-3.0479136776	-0.0480048063	-0.317154
H	 1.0204629889	 1.9543739674	-0.1379614036	 0.125491
H	-0.5394395044	 1.9004348789	-0.9963766744	 0.11623
H	-0.4961152725	 2.0283652066	 0.7738746478	 0.124509
H	 0.5014505319	-0.3648754748	-0.8638913311	 0.04506
H	 0.611282153	-1.189993409	 1.3803094769	 0.290648
H	-1.9229907758	-0.1442697373	 0.9803651934	 0.109303
H	-1.7259979785	-0.2526846312	-1.8273518018	 0.28805
H	-0.8674810449	-2.4189831147	-0.7658119178	 0.128212
H	-1.2938480613	-2.405884449	 2.1340681298	 0.258984
H	-0.6516831912	-3.6094053959	 1.2395236422	 0.257203
60.5201	85.8939	136.9582	202.5809	241.6477	248.9313	266.8457	294.0006	316.7296	349.7717	380.2144	397.1807	480.3504	523.7129	575.9344	612.8886	687.9244	866.0429	881.9309	922.2919	965.4588	1017.865	1065.9537	1086.4574	1120.8058	1127.2754	1165.2944	1176.873	1253.1713	1287.3109	1329.3641	1361.1567	1377.8365	1392.2803	1401.2543	1409.4551	1471.3929	1485.203	1498.8264	1657.5075	2351.8203	2873.7807	3025.7825	3049.2812	3055.0053	3120.9739	3141.6057	3495.0769	3574.477	3633.3282	3788.9997
CC(O)C(O)C(N)C#N	C[C@@H](O)[C@@H](O)[C@@H](N)C#N	
InChI=1S/C5H10N2O2/c1-3(8)5(9)4(7)2-6/h3-5,8-9H,7H2,1H3	InChI=1S/C5H10N2O2/c1-3(8)5(9)4(7)2-6/h3-5,8-9H,7H2,1H3/t3-,4+,5-/m1/s1
