23
gdb 120327	3.21877	0.92097	0.89564	1.0236	85.89	-0.2464	0.081	0.3274	1470.0367	0.207034	-388.277193	-388.267988	-388.267044	-388.313157	34.328	
C	 1.9022641457	 1.5289923159	-0.6257572263	-0.227144
O	 1.6806376268	 0.1486550935	-0.4835882865	-0.2359
C	 1.1933061048	-0.4506677981	-1.6703009053	-0.095118
C	 0.9984220384	-1.9302247577	-1.3813983823	-0.018813
C	-0.1365318568	-2.7897738133	-1.8924665798	-0.060322
C	-0.9346121468	-2.3276915442	-3.1041037976	-0.212689
C	 0.1161175728	-1.9497400291	-4.177514676	-0.22256
C	 1.380508271	-2.7747846067	-3.8315537001	-0.212684
C	 1.2866997982	-3.0645760266	-2.3396706638	-0.060352
H	 2.6494894136	 1.7473772973	-1.4061875417	 0.100685
H	 0.976647438	 2.0699464311	-0.8820978216	 0.100685
H	 2.2742382012	 1.9024949346	 0.3316644971	 0.124895
H	 0.2491476085	 0.0364190487	-1.9689796715	 0.088088
H	 1.9130927736	-0.284576852	-2.4902026788	 0.088079
H	 1.280126342	-2.1428179761	-0.354383815	 0.099972
H	-0.6355918963	-3.4365696069	-1.1783204622	 0.076757
H	-1.5542428099	-3.1623399662	-3.4527350504	 0.0987
H	-1.6175596314	-1.4986487294	-2.8863188618	 0.09627
H	-0.2410418056	-2.1497242268	-5.1912603658	 0.094715
H	 0.3362298635	-0.8795847613	-4.1347821676	 0.10501
H	 1.3751126865	-3.7280732545	-4.3731595249	 0.098702
H	 2.302244017	-2.2556456082	-4.1180079101	 0.096267
H	 1.8414557655	-3.914821684	-1.9566035581	 0.076756
10.3298	93.3974	129.2832	193.5138	226.0754	237.5106	276.6579	404.7865	429.1083	505.9958	645.5442	669.4387	753.8995	809.5342	825.5549	885.9903	886.0638	933.8196	965.3796	973.9791	993.0059	1038.7472	1052.6399	1070.774	1091.6891	1116.564	1119.8256	1158.0615	1180.8288	1186.12	1205.1943	1212.3619	1238.9737	1257.7038	1266.3042	1313.8355	1320.2942	1328.7501	1342.7631	1361.687	1407.7609	1447.7006	1480.2734	1484.7295	1491.7493	1493.8146	1503.9631	1517.3967	1531.0081	2939.8883	2963.6506	2965.0774	3004.317	3029.9424	3031.6119	3056.2605	3063.3592	3068.5087	3102.2508	3110.5599	3151.0633	3153.166	3167.5019
COCC1C2CCCC12	COC[C@H]1[C@H]2CCC[C@@H]12	
InChI=1S/C8H14O/c1-9-5-8-6-3-2-4-7(6)8/h6-8H,2-5H2,1H3	InChI=1S/C8H14O/c1-9-5-8-6-3-2-4-7(6)8/h6-8H,2-5H2,1H3/t6-,7+,8-
