21
gdb 62948	2.05587	1.83855	1.41353	1.6302	81.9	-0.2479	0.0872	0.3351	1059.7154	0.181004	-387.044734	-387.035952	-387.035008	-387.07739	34.81	
C	-0.0846766706	 1.594131787	-0.0817852399	-0.448714
C	 0.0285240828	 0.0727382789	-0.0049194705	 0.206422
C	-1.3436908144	-0.5903207823	-0.1489917237	-0.425109
C	 1.0766923437	-0.6136034163	-0.9198000704	-0.072019
C	 2.4840192198	-0.2385524896	-0.5574342504	-0.311496
C	 1.7644647585	-1.2566694609	 0.289677728	-0.147037
C	 0.7993608717	-0.5353137535	 1.2033370103	 0.435324
C	 0.9755330911	-0.0599409113	 2.5770024704	-0.272085
O	 0.1259838347	-1.180031649	 2.2683694673	-0.287309
H	 0.8874464924	 2.0857185354	 0.0164591801	 0.111983
H	-0.5202624749	 1.9020864313	-1.0391582494	 0.114552
H	-0.7347346456	 1.9777499262	 0.71292041	 0.115115
H	-1.8010352003	-0.3141949194	-1.1055950054	 0.106725
H	-1.2642308518	-1.6804019356	-0.1082021093	 0.121849
H	-2.0144370853	-0.2763316565	 0.6558262646	 0.121071
H	 0.8350686047	-1.0711549448	-1.8721512093	 0.085356
H	 3.2532741423	-0.6411281881	-1.2091370482	 0.114767
H	 2.7211175028	 0.7422223677	-0.1531311505	 0.108987
H	 2.1195930448	-2.2698081014	 0.4304561518	 0.098001
H	 1.8863297236	-0.303187201	 3.1231409114	 0.112483
H	 0.4540521999	 0.8332020534	 2.919333163	 0.111135
120.2636	194.6952	211.4247	220.9497	247.7842	277.9366	307.2302	344.383	414.7895	490.4682	538.0005	585.3163	644.1132	775.7454	784.1203	856.5962	885.7671	928.3885	931.9763	952.5136	965.8036	975.9801	1003.8437	1030.	1044.8821	1064.876	1086.5206	1121.434	1140.3226	1155.3501	1181.674	1214.6905	1223.8314	1247.3538	1298.0553	1336.8011	1401.0497	1417.1465	1438.5001	1480.3944	1481.0421	1492.5307	1502.1297	1505.0857	1534.7643	3026.4509	3034.6911	3078.5903	3087.8985	3103.3234	3104.3158	3112.131	3116.0033	3164.5973	3174.9692	3190.7	3201.4196
CC1(C)C2CC2C11CO1	CC1(C)[C@H]2C[C@H]2[C@]21CO2	
InChI=1S/C8H12O/c1-7(2)5-3-6(5)8(7)4-9-8/h5-6H,3-4H2,1-2H3	InChI=1S/C8H12O/c1-7(2)5-3-6(5)8(7)4-9-8/h5-6H,3-4H2,1-2H3/t5-,6+,8-/m0/s1
