14
gdb 24040	4.08094	1.0912	0.99532	5.1811	73.4	-0.2674	-0.0567	0.2107	1171.0222	0.10353	-395.797968	-395.790635	-395.789691	-395.831937	26.214	
N	-0.0291392556	-1.1565940253	-0.0039350722	-0.302556
C	-0.0187545669	-0.0014684063	 0.0018546721	 0.265863
C	 0.0005790564	 1.4620309594	 0.0099828797	-0.397378
C	 1.4222150504	 2.0023736541	-0.0007261011	 0.346173
N	 1.9946505513	 2.2019968067	 1.1876906657	-0.265454
C	 3.247857469	 2.6610806524	 1.1661751212	 0.013691
C	 3.9237406848	 2.9208817823	-0.0197875561	-0.126552
C	 3.2221678348	 2.6820421955	-1.1951624091	 0.013739
N	 1.9686789705	 2.223147573	-1.1975812066	-0.265598
H	-0.5302869326	 1.825172082	-0.8739408052	 0.169433
H	-0.5130737701	 1.8149390544	 0.9081383809	 0.169447
H	 3.7188563227	 2.8261669113	 2.1322054669	 0.129086
H	 4.9406584482	 3.2934027129	-0.0275552357	 0.121036
H	 3.6720731072	 2.8643249776	-2.1681291804	 0.129071
11.9754	92.5201	218.789	339.8079	377.6651	411.843	432.6805	509.3597	643.5204	659.3786	803.5437	834.7438	882.2652	930.3388	952.5464	1011.0387	1012.4454	1015.8468	1096.2026	1119.945	1200.6046	1250.4933	1277.8412	1319.7242	1341.6	1446.5427	1458.6012	1469.4623	1606.6971	1616.0194	2365.6918	3070.6724	3124.4584	3161.5951	3163.7942	3214.3378
N#CCC1=NC=CC=N1	N#CCc1ncccn1	
InChI=1S/C6H5N3/c7-3-2-6-8-4-1-5-9-6/h1,4-5H,2H2	InChI=1S/C6H5N3/c7-3-2-6-8-4-1-5-9-6/h1,4-5H,2H2
