20
gdb 109127	4.01562	0.94553	0.81946	4.0215	82.8	-0.2366	0.0164	0.253	1437.149	0.172026	-403.20631	-403.197128	-403.196184	-403.241367	33.522	
C	 0.1822829026	 1.5204297964	 0.1591048891	-0.375282
C	 0.0072343112	 0.002216372	-0.0265979876	-0.271261
C	-1.431400466	-0.4552407561	-0.0622282658	 0.312537
C	-2.0147084271	-0.9120408715	-1.1691644498	-0.166113
C	-3.4379954758	-1.3741874027	-1.2474513851	-0.370931
C	-4.2297053371	-1.2931069754	 0.0490580607	 0.391868
O	-5.3980695104	-1.6306846903	 0.1095192119	-0.381326
N	-3.5616459253	-0.8213380082	 1.1406002146	-0.318073
C	-2.1828131204	-0.3808541819	 1.2400759039	-0.236959
H	 1.2429311181	 1.7891312801	 0.1449878621	 0.11802
H	-0.3186264628	 2.0704947502	-0.6435301529	 0.124134
H	-0.2307438165	 1.8676656889	 1.1112324596	 0.119185
H	 0.4939564577	-0.3028432818	-0.9587668208	 0.106782
H	 0.5374238906	-0.5172689981	 0.7841538609	 0.101716
H	-1.4364318533	-0.9652252541	-2.0896431776	 0.085622
H	-3.9992846735	-0.8025971791	-1.9982843355	 0.140278
H	-3.4960354692	-2.4157180033	-1.5904136009	 0.140336
H	-4.1287058499	-0.7854260686	 1.9755123427	 0.244687
H	-1.6506279207	-0.9883064634	 1.9905831331	 0.116142
H	-2.1566282722	 0.6504581369	 1.6233176472	 0.118638
40.0511	62.5723	108.0353	169.3679	213.8126	299.3217	338.1227	425.5797	457.7178	511.2428	528.7058	587.5091	655.5654	715.5127	775.5961	785.3099	848.3903	935.5534	962.1414	986.1961	996.1837	1019.2917	1080.2071	1108.9751	1122.2274	1188.6938	1207.6979	1258.6857	1279.0883	1311.0776	1338.0371	1355.2529	1396.6384	1405.4746	1411.8802	1452.9105	1480.3901	1488.9835	1499.3374	1507.8447	1530.6208	1757.337	1790.9656	2966.1237	2991.3263	3010.009	3025.4718	3039.3123	3046.2245	3067.8605	3109.1913	3112.7788	3141.8749	3606.6036
CCC1=CCC(=O)NC1	CCC1=CCC(=O)NC1	
InChI=1S/C7H11NO/c1-2-6-3-4-7(9)8-5-6/h3H,2,4-5H2,1H3,(H,8,9)	InChI=1S/C7H11NO/c1-2-6-3-4-7(9)8-5-6/h3H,2,4-5H2,1H3,(H,8,9)
