17
gdb 89708	3.7491	1.20806	1.13137	1.1455	68.23	-0.2526	-0.0398	0.2128	1096.5207	0.13557	-458.944008	-458.936191	-458.935247	-458.976804	29.887	
O	-0.1039021611	 1.3910284216	-0.1390359062	-0.442601
C	 0.0036867566	-0.008158436	-0.0460315229	 0.172843
C	 0.5274978077	-0.5145816747	 1.3446336814	-0.313945
C	-0.7751665335	-1.2339919527	 1.7808682039	 0.338988
C	-1.1145944677	-2.105072062	 0.5505746833	-0.274835
C	-1.3811589354	-0.6899230444	 0.007079488	 0.02564
O	-1.8085666212	-0.2785575195	 1.3546502098	-0.35083
C	-0.9020800097	-1.6815180968	 3.2036004502	 0.046446
O	-0.5446206219	-2.7621792576	 3.596721501	-0.248057
H	-0.7479655068	 1.6503467912	 0.5334090307	 0.283738
H	 0.6214463988	-0.3350199153	-0.8854247142	 0.094967
H	 1.3800061096	-1.1943157498	 1.28724678	 0.123045
H	 0.7816603451	 0.3277562791	 1.9916514702	 0.116398
H	-0.3233394006	-2.7098452526	 0.1040494522	 0.112759
H	-2.0305189311	-2.6789631391	 0.6907293059	 0.126218
H	-2.1024170135	-0.456781666	-0.7748994729	 0.094568
H	-1.3456275753	-0.9177977254	 3.8810131497	 0.094656
54.888	127.1885	210.4342	229.6366	343.9684	441.1142	446.8879	481.9571	495.3705	595.1651	688.9068	749.4967	820.6833	836.4362	855.6171	898.941	918.3348	954.189	976.2505	1011.5793	1031.618	1065.6757	1113.9495	1149.5731	1166.7191	1188.8565	1218.3354	1242.7182	1281.1741	1286.1458	1307.156	1337.3925	1409.8557	1439.3795	1477.6438	1497.7765	1829.3251	2887.474	3074.8176	3082.5761	3093.5279	3132.2132	3139.2231	3155.44	3762.6806
OC1CC2(CC1O2)C=O	O[C@H]1C[C@@]2(C[C@H]1O2)C=O	
InChI=1S/C6H8O3/c7-3-6-1-4(8)5(2-6)9-6/h3-5,8H,1-2H2	InChI=1S/C6H8O3/c7-3-6-1-4(8)5(2-6)9-6/h3-5,8H,1-2H2/t4-,5+,6+/m0/s1
