18
gdb 54838	2.67897	1.35502	1.11811	2.8083	73.35	-0.2351	0.0254	0.2605	1136.0945	0.147481	-439.08527	-439.076517	-439.075573	-439.118753	33.509	
N	-0.043300525	 1.2884238394	 0.2891999532	-0.533739
C	 0.0887913104	 0.0471517701	-0.2836581204	 0.402562
O	 1.1489149665	-0.3200029394	-0.762393224	-0.377051
C	-1.1513937123	-0.7879358023	-0.2185845252	-0.191957
C	-1.6938779176	-1.6589365919	-1.355334539	-0.134837
C	-0.5650749881	-2.3399424621	-2.1430933834	-0.216041
C	-0.0811085327	-3.0262543284	-0.8231191668	-0.289789
C	-1.2124771887	-2.3015085923	-0.0787768737	 0.368769
O	-1.9945337299	-2.8748021615	 0.9073039974	-0.454361
H	 0.7237921697	 1.9295618523	 0.1619134149	 0.256929
H	-0.947663304	 1.6770307636	 0.4940265399	 0.2558
H	-1.970120568	-0.3391770516	 0.3392283718	 0.082107
H	-2.7057742147	-1.4912716212	-1.7049035918	 0.094165
H	-0.9538474917	-3.0589505704	-2.8673616616	 0.099768
H	 0.1532408452	-1.679302343	-2.6269336557	 0.126627
H	-0.2650243952	-4.1031448904	-0.8310998862	 0.102106
H	 0.9392303321	-2.8166766099	-0.5039094877	 0.122301
H	-1.505793866	-2.841785341	 1.7377696085	 0.28664
47.7549	160.2717	198.9903	238.9119	286.5303	297.1513	329.663	378.8402	408.5953	469.6795	557.4164	617.9567	654.1102	685.8977	794.7238	811.2362	827.6872	891.1384	928.4908	953.3295	962.3113	1026.0707	1044.8299	1080.5572	1095.5996	1138.5434	1197.5027	1217.2459	1233.023	1238.3619	1283.6834	1292.6463	1313.7908	1379.4403	1462.3849	1469.2619	1501.6467	1616.5315	1774.9061	3072.93	3081.3246	3136.7037	3139.2325	3151.4527	3182.4995	3592.4763	3726.2598	3787.2112
NC(=O)C1C2CCC12O	NC(=O)[C@H]1[C@H]2CC[C@@]12O	
InChI=1S/C6H9NO2/c7-5(8)4-3-1-2-6(3,4)9/h3-4,9H,1-2H2,(H2,7,8)	InChI=1S/C6H9NO2/c7-5(8)4-3-1-2-6(3,4)9/h3-4,9H,1-2H2,(H2,7,8)/t3-,4-,6+/m1/s1
