16
gdb 49702	3.27207	1.21593	1.0451	1.1788	72.13	-0.2639	-0.0476	0.2162	1138.9084	0.123046	-437.870691	-437.862519	-437.861575	-437.903829	29.537	
O	 0.3627436809	 0.155389783	-0.6825574885	-0.277615
C	 0.2458026496	 1.2806867471	-0.272409618	 0.149686
N	 1.2077222733	 1.9487378444	 0.4806640183	-0.103341
C	 2.6193882064	 1.9456688895	 0.2882902222	-0.079804
C	 2.9953604739	 2.0753463065	-1.1966933534	-0.239009
C	 2.1542555193	 3.3910216597	-1.2892485038	-0.3007
C	 1.7800813904	 3.2479960677	 0.1952660877	 0.19542
C	 1.6884384527	 4.3215560999	 1.2048540771	 0.078559
O	 1.8786721314	 5.4870671451	 0.9572120913	-0.256575
H	-0.6728029447	 1.8869955953	-0.3870846667	 0.09578
H	 3.2551985873	 1.6192151462	 1.1034452747	 0.125109
H	 4.0619111977	 2.2537908656	-1.3398553956	 0.12214
H	 2.6808738	 1.2336940534	-1.8164472403	 0.141657
H	 2.7700855321	 4.2751209368	-1.456284392	 0.142092
H	 1.3151788624	 3.4060164683	-1.9885623962	 0.117706
H	 1.4444145572	 3.9593201715	 2.2269137631	 0.088894
92.5854	105.3937	180.0335	207.5087	237.9994	256.6715	366.1724	404.8487	539.807	638.3305	699.3019	757.0963	787.6596	869.3245	918.2649	948.8915	957.6521	1018.2395	1021.9363	1043.5129	1076.3785	1103.1708	1152.3401	1214.981	1227.1202	1251.3087	1288.4157	1305.464	1390.613	1412.8664	1446.7335	1476.6671	1496.8728	1808.0523	1811.5238	2905.1394	2958.7875	3078.3951	3085.3634	3134.0134	3148.5662	3186.7898
O=CN1C2CCC12C=O	O=CN1[C@H]2CC[C@@]12C=O	
InChI=1S/C6H7NO2/c8-3-6-2-1-5(6)7(6)4-9/h3-5H,1-2H2	InChI=1S/C6H7NO2/c8-3-6-2-1-5(6)7(6)4-9/h3-5H,1-2H2/t5-,6-,7?/m0/s1
