16
gdb 36664	2.15233	1.49414	1.03254	3.4213	74.87	-0.2424	0.0089	0.2513	1162.3565	0.121884	-400.691165	-400.682077	-400.681133	-400.72586	32.61	
C	 1.1026456998	-1.2526027122	 0.6434188966	-0.445919
C	 0.8138685638	-0.1447073032	 0.2765292758	 0.337633
C	 0.4548399014	 1.1684403304	-0.1658145161	-0.232919
C	 0.187623228	 2.260455549	 0.8726020522	-0.32979
C	 1.4093762652	 2.344674811	 0.0308041674	 0.132189
O	 2.6254696062	 2.1490593587	 0.6859269355	-0.224435
C	 3.7460808592	 2.0892118573	-0.1639229958	-0.201863
C	 3.7635873732	 0.9492134095	-1.1000586408	 0.260307
N	 3.8105014938	 0.0808433916	-1.8601343625	-0.299382
H	 1.3719389339	-2.2314249879	 0.9540004554	 0.19889
H	-0.1461434299	 1.2055445179	-1.0699801237	 0.122265
H	-0.6215660125	 2.9583861259	 0.6925969048	 0.126961
H	 0.3364259412	 1.9747688217	 1.9070081591	 0.146475
H	 1.4452473279	 3.0869037738	-0.7664843394	 0.100886
H	 3.8419943691	 3.0105587409	-0.759191368	 0.143347
H	 4.6217498796	 2.0200579757	 0.4874289995	 0.165356
43.6684	71.5019	121.054	187.1962	224.7499	270.9805	357.1509	375.7478	410.981	521.4105	586.5119	608.7027	654.9468	663.1702	760.6265	776.8676	839.4241	907.2929	960.9301	1015.3993	1046.8817	1070.1929	1097.1415	1120.3988	1131.1933	1170.8054	1232.992	1303.1317	1366.8131	1389.1088	1419.4038	1468.6767	1481.5883	2242.067	2361.3145	2994.4563	3097.9012	3104.7702	3145.9914	3148.7941	3242.6972	3506.1843
C#CC1CC1OCC#N	C#C[C@H]1C[C@H]1OCC#N	
InChI=1S/C7H7NO/c1-2-6-5-7(6)9-4-3-8/h1,6-7H,4-5H2	InChI=1S/C7H7NO/c1-2-6-5-7(6)9-4-3-8/h1,6-7H,4-5H2/t6-,7+/m0/s1
