20
gdb 116060	3.08877	1.11991	0.86912	3.3828	76.71	-0.2381	0.0231	0.2611	1326.7541	0.172185	-440.283029	-440.27406	-440.273116	-440.317168	33.05	
O	-0.1675471914	 1.4849556572	-0.0269371728	-0.422254
C	-0.0287643465	 0.0754835481	-0.1269285083	-0.09554
C	-1.4070640658	-0.5649004087	 0.0576530661	 0.007443
C	-1.3361898722	-2.0785055344	-0.1530636107	-0.226072
C	-2.7073729823	-2.751675495	-0.2776690291	-0.155279
N	-3.6246716298	-2.7148320619	 0.8459336511	-0.249449
C	-3.8610377164	-1.7233967688	 1.5860210876	 0.118992
O	-3.3342837014	-0.4710679293	 1.665487098	-0.231762
C	-1.944291538	-0.2189964637	 1.445910478	-0.065664
H	 0.7064693384	 1.8817305356	-0.0806401554	 0.290392
H	 0.3725880054	-0.2152717202	-1.1099446943	 0.092095
H	 0.6660540101	-0.3124844026	 0.6370037969	 0.087732
H	-2.0773030491	-0.1190382364	-0.6898598923	 0.091516
H	-0.77633771	-2.3020747715	-1.0707094973	 0.094244
H	-0.7775619907	-2.5379419133	 0.6740977921	 0.09947
H	-3.2324698241	-2.3144929835	-1.1408970706	 0.112748
H	-2.551723732	-3.8072622508	-0.5271533624	 0.105401
H	-4.6772585496	-1.7958633976	 2.3072744491	 0.11375
H	-1.3655325135	-0.7665226777	 2.2049722796	 0.097154
H	-1.8289371011	 0.8496938345	 1.6286621047	 0.135081
57.842	110.9894	153.5984	199.6833	228.9427	263.3772	307.1103	378.473	428.1287	455.9339	505.3819	560.9666	748.5941	824.46	857.9221	895.5009	955.3491	966.0502	975.8407	979.8439	1044.4433	1081.6145	1093.132	1136.2014	1146.4524	1171.4425	1216.6855	1244.3285	1255.8681	1296.5937	1310.0239	1339.0455	1359.8407	1381.3207	1399.2119	1425.9952	1437.5633	1456.5599	1481.3129	1487.2037	1506.0442	1521.246	1761.8151	2960.5987	2992.7716	2994.7253	2996.5769	3009.5077	3027.4533	3051.0387	3054.3693	3119.5616	3130.4689	3835.6544
OCC1CCN=COC1	OC[C@H]1CCN=COC1	
InChI=1S/C6H11NO2/c8-3-6-1-2-7-5-9-4-6/h5-6,8H,1-4H2	InChI=1S/C6H11NO2/c8-3-6-1-2-7-5-9-4-6/h5-6,8H,1-4H2/t6-/m1/s1
