19
gdb 76393	2.51693	1.18557	1.13389	1.4153	73.24	-0.2108	0.0248	0.2356	1196.7215	0.159966	-452.519871	-452.509474	-452.50853	-452.555275	38.145	
N	 0.6146716668	 0.8937775293	 0.3930128872	-0.515539
C	-0.0214158656	-0.3912318833	 0.3830646999	-0.0146
C	-1.0920809755	-0.695751137	 1.3901708469	-0.054416
N	-1.5772069207	 0.2857970324	 2.3274553251	-0.537941
C	-1.4938707662	-0.5734102898	-0.0824120726	 0.143287
N	-2.1696031683	 0.6495788719	-0.4336915357	-0.564453
C	-1.8311711915	-1.7605511242	-0.94093674	 0.327093
N	-1.3495560576	-2.9845366728	-0.5486368895	-0.542959
O	-2.4434243837	-1.6184608316	-1.9872317406	-0.376258
H	 1.1448070881	 1.0211604397	-0.4639194821	 0.234542
H	-0.099434341	 1.6172511181	 0.3970599265	 0.239297
H	 0.6495942953	-1.2026653277	 0.119253545	 0.09938
H	-1.0958227494	-1.7031789441	 1.8052903099	 0.075786
H	-0.7944928873	 0.6777870159	 2.8444321961	 0.239044
H	-2.0024580487	 1.0541548578	 1.8172901729	 0.23963
H	-2.082699335	 0.7766154225	-1.4392935243	 0.246198
H	-3.1687646565	 0.5333151365	-0.2782280167	 0.242624
H	-1.1079367987	-3.1642369647	 0.4109992514	 0.2592
H	-1.6703270347	-3.7714909092	-1.0908375694	 0.260086
37.069	126.1949	138.5834	160.6175	209.1621	226.9088	269.7007	300.2135	334.5767	339.6225	378.6388	461.3997	493.0111	565.7413	604.6302	627.9639	705.538	730.6774	813.37	851.107	892.1515	912.5494	948.0694	1025.5045	1071.0063	1082.6417	1101.673	1161.7383	1216.3875	1244.1659	1264.6786	1289.7339	1320.8403	1379.1013	1398.0924	1464.2954	1616.5416	1657.627	1659.8039	1677.1385	1766.2821	3089.712	3164.4311	3480.2943	3486.6326	3490.2383	3541.2415	3561.7395	3566.8522	3592.7431	3718.391
NC1C(N)C1(N)C(N)=O	N[C@H]1[C@@H](N)[C@]1(N)C(=O)N	
InChI=1S/C4H10N4O/c5-1-2(6)4(1,8)3(7)9/h1-2H,5-6,8H2,(H2,7,9)	InChI=1S/C4H10N4O/c5-1-2(6)4(1,8)3(7)9/h1-2H,5-6,8H2,(H2,7,9)/t1-,2+,4-
