19
gdb 40208	3.14542	1.47365	1.12532	1.0033	87.14	-0.2081	-0.0265	0.1817	1113.2801	0.160439	-385.878227	-385.870487	-385.869543	-385.910533	30.987	
C	-0.1499815255	 1.5013548292	 0.0414519695	-0.31595
C	 1.266793582	 0.9960943223	 0.0331390602	-0.320263
C	 0.0997335809	 0.0116617336	-0.0064243568	 0.400279
O	-0.217668863	-0.6200922267	 1.1946951098	-0.292355
C	 0.5078947416	-1.8161514065	 1.479479797	-0.166529
C	-0.0627948348	-3.0369251238	 0.813859097	-0.089997
C	-0.4950761659	-3.0801927666	-0.4541170682	-0.056509
C	-0.4572456393	-2.0084592941	-1.4406318262	-0.124221
C	-0.1648469191	-0.7080364469	-1.2670172228	-0.095042
H	-0.5467212342	 1.8754752485	 0.9774319437	 0.13059
H	-0.5420124416	 1.9802424632	-0.8485792763	 0.117485
H	 1.8691882271	 1.1262698103	-0.8587998176	 0.11635
H	 1.8148595023	 1.0310666357	 0.9684821202	 0.12241
H	 1.5671963836	-1.683074178	 1.2082519678	 0.107758
H	 0.4648917725	-1.9319520815	 2.5672028881	 0.110317
H	-0.1302655669	-3.9335235713	 1.4243939742	 0.090411
H	-0.8895705764	-4.0251758414	-0.8205697934	 0.087146
H	-0.6676803772	-2.3224025915	-2.4602965926	 0.087277
H	-0.130505906	-0.0755386745	-2.1517007135	 0.090843
56.3931	206.1396	232.5743	287.1124	352.4011	360.814	415.8673	485.5283	575.2039	638.7042	695.0786	730.5185	771.155	797.437	876.4092	886.1565	894.5729	914.6099	945.0121	972.9313	986.794	999.4726	1008.5678	1044.6208	1057.5724	1078.6052	1095.2236	1193.0647	1230.1193	1247.6022	1277.0843	1294.6391	1323.9358	1404.5151	1424.4407	1452.6068	1467.1417	1477.5959	1487.7984	1669.1122	1708.3573	2979.2701	3071.1349	3133.6932	3135.9413	3142.7126	3145.6647	3160.2357	3171.5743	3221.7264	3238.9579
C1CC11OCC=CC=C1	C1CC21OCC=CC=C2	
InChI=1S/C8H10O/c1-2-4-8(5-6-8)9-7-3-1/h1-4H,5-7H2	InChI=1S/C8H10O/c1-2-4-8(5-6-8)9-7-3-1/h1-4H,5-7H2
