19
gdb 118601	1.92576	1.00681	0.68863	3.6155	79.68	-0.2846	-0.0012	0.2834	1637.4591	0.157241	-419.219124	-419.20872	-419.207776	-419.256013	35.474	
C	-0.0297258558	 1.6115190338	 0.0042890185	-0.387479
C	 0.0079125464	 0.081406682	-0.0170609642	-0.184044
C	-1.3936302778	-0.533517859	 0.0535765934	-0.18613
C	-1.368138153	-2.0658517606	 0.0352400168	-0.054928
O	-0.6890611064	-2.5068048597	 1.2088981656	-0.185398
C	-0.2869249408	-3.8036820042	 1.2357272079	 0.134399
N	 0.3336981143	-4.2336851903	 2.2418413114	-0.429347
C	-2.733411208	-2.6258525448	-0.0199668931	 0.281369
N	-3.8003046641	-3.0654491649	-0.0754344055	-0.309224
H	 0.9797431792	 2.0293415348	-0.0480093992	 0.121275
H	-0.600361763	 2.0088260199	-0.8423088897	 0.117761
H	-0.4965679799	 1.9828985275	 0.922829312	 0.123969
H	 0.507791822	-0.2623858959	-0.932563811	 0.097097
H	 0.6037377884	-0.2908837983	 0.822064612	 0.132014
H	-1.9085943913	-0.2139210773	 0.9661414212	 0.13401
H	-2.0037380941	-0.1979447552	-0.7927845875	 0.122312
H	-0.8301227872	-2.4134506836	-0.858555741	 0.129066
H	-0.5572225081	-4.3673866662	 0.3335985564	 0.10465
H	 0.5712999592	-5.2153918878	 2.1162716458	 0.238629
56.0709	76.4042	82.328	97.2537	117.0895	201.0096	242.2312	254.8713	298.1261	325.1937	457.4184	517.7963	576.2028	654.1725	753.4263	821.3604	858.4834	903.9522	930.0727	989.9684	1035.0737	1040.5487	1058.1433	1112.552	1135.619	1161.785	1255.811	1277.7451	1292.3416	1329.6563	1351.9328	1362.5519	1398.9403	1416.3009	1428.2339	1475.6515	1494.3687	1500.2827	1510.7805	1753.4904	2358.4703	3007.3819	3021.5145	3033.598	3040.3773	3045.8658	3075.3982	3092.0176	3107.1467	3110.5713	3523.187
CCCC(OC=N)C#N	CCC[C@@H](O[CH][NH])C#N	
InChI=1S/C6H10N2O/c1-2-3-6(4-7)9-5-8/h5-6,8H,2-3H2,1H3	InChI=1S/C6H10N2O/c1-2-3-6(4-7)9-5-8/h5-6,8H,2-3H2,1H3/t6-/m1/s1
