14
gdb 128992	4.03751	1.69638	1.1945	3.4051	76.86	-0.2402	-0.0462	0.194	944.6438	0.106401	-395.797045	-395.791112	-395.790168	-395.827169	24.012	
N	 0.0235481026	 1.3414446767	 0.0094542863	-0.346232
N	 1.2901574481	 1.8336136556	 0.0001456299	-0.192571
C	 2.0937347592	 0.7885381119	-0.0135874444	-0.097782
C	 1.3517398484	-0.4312631451	-0.0135228115	 0.236794
C	-0.005635969	-0.0188105959	 0.0018698241	 0.381896
C	-1.0266388173	-0.971981493	 0.0061527225	-0.226498
C	-0.6091719771	-2.2904640612	-0.0054644854	-0.096776
C	 0.7678444789	-2.6083915003	-0.0204994576	-0.041036
N	 1.746764713	-1.715091332	-0.0247232318	-0.342644
H	-0.7451382101	 1.989008611	 0.0205304758	 0.274153
H	 3.1647876257	 0.9220879505	-0.0230811109	 0.12921
H	-2.0772598794	-0.7027518506	 0.0177791014	 0.108926
H	-1.3356931453	-3.0952688116	-0.0031485586	 0.105722
H	 1.0689975222	-3.653193376	-0.0294202297	 0.106838
222.5072	256.3881	407.8013	427.8622	446.8719	550.8836	602.7554	645.1533	675.6221	776.5327	795.6551	821.9092	889.731	914.4595	943.0727	946.5447	979.4779	1048.0693	1100.3438	1147.1164	1212.5035	1253.0594	1303.7215	1343.0381	1372.2996	1417.4936	1422.5395	1509.9595	1538.2781	1605.6896	1648.9424	3155.708	3183.6897	3202.3144	3257.9156	3678.9396
N1N=CC2=C1C=CC=N2	[nH]1ncc2c1cccn2	
InChI=1S/C6H5N3/c1-2-5-6(7-3-1)4-8-9-5/h1-4H,(H,8,9)	InChI=1S/C6H5N3/c1-2-5-6(7-3-1)4-8-9-5/h1-4H,(H,8,9)
