21
gdb 116089	2.74163	1.19949	0.88613	3.2383	81.73	-0.2258	0.024	0.2498	1350.2772	0.183957	-420.41256	-420.40359	-420.402646	-420.446566	33.603	
C	 0.0541167763	 1.5405813531	-0.0766441061	-0.395633
C	-0.001240849	 0.0186497411	 0.0506892977	-0.106999
N	-1.3611772983	-0.5171200193	 0.0231039294	-0.085174
C	-1.3838577279	-1.9629467244	-0.1327849389	-0.160478
C	-2.8175459787	-2.4068634328	-0.3566030994	-0.081411
O	-3.6928030918	-1.9904034597	 0.7003132345	-0.247704
C	-3.5256219272	-0.743207356	 1.2229892439	 0.378621
N	-4.4663207495	-0.1295780012	 1.8055656148	-0.508029
C	-2.1300254991	-0.1543751902	 1.2090898529	-0.228062
H	 1.0936225479	 1.8672697002	-0.1758267709	 0.117009
H	-0.4999046322	 1.8705397833	-0.9601599424	 0.128137
H	-0.3634835054	 2.0469916888	 0.797843168	 0.127269
H	 0.5350378387	-0.4277762805	-0.7944683731	 0.099336
H	 0.5350645271	-0.2991961497	 0.9672165618	 0.078205
H	-0.7882425124	-2.2453073775	-1.0075564712	 0.107982
H	-0.9577666625	-2.4885262087	 0.7455816906	 0.085514
H	-3.1870494324	-1.9909920074	-1.3022071732	 0.116008
H	-2.8957499741	-3.496251254	-0.3931479456	 0.116391
H	-5.3198227297	-0.6918924888	 1.7734504125	 0.218357
H	-1.6220533017	-0.5001856593	 2.1347199305	 0.099511
H	-2.240275108	 0.9265599328	 1.2858654142	 0.141149
79.0362	102.5059	120.7135	208.096	224.1842	279.7338	365.7697	400.4947	453.4933	471.1628	485.5913	561.2139	656.8583	805.6681	814.6849	836.7544	915.9249	931.555	969.6549	986.1043	1032.5793	1061.6263	1085.3872	1111.6893	1146.8743	1154.8294	1172.7458	1222.8086	1244.1471	1285.7516	1300.0475	1322.8932	1341.8288	1370.8202	1395.0489	1409.5826	1427.5765	1439.0605	1478.8029	1486.8579	1493.497	1498.7656	1503.2922	1516.5577	1753.4573	2878.2311	2901.495	2911.9026	3030.5578	3045.1641	3050.4625	3069.1011	3103.6987	3113.9446	3120.9823	3137.6958	3458.9634
CCN1CCOC(=N)C1	CCN1CCO[C]([NH])C1	
InChI=1S/C6H12N2O/c1-2-8-3-4-9-6(7)5-8/h7H,2-5H2,1H3	InChI=1S/C6H12N2O/c1-2-8-3-4-9-6(7)5-8/h7H,2-5H2,1H3
