20
gdb 111320	2.15545	1.57629	1.22827	1.7234	75.41	-0.2259	0.0745	0.3003	1126.5202	0.168756	-440.221766	-440.212278	-440.211334	-440.255652	35.614	
C	-0.0033508077	 1.4069661408	-0.0070351858	-0.241975
O	-0.2444813317	 0.0228820992	 0.1407564804	-0.241827
C	 0.5645537828	-0.5920297799	 1.0982641939	 0.146012
C	 0.1285468297	-1.977739866	 1.5509421813	-0.111246
N	 0.3123234934	-2.912427756	 0.4127749349	-0.333101
C	 1.4737258542	-2.5420444701	 1.2509061946	-0.117509
C	 1.9800412917	-1.1884303412	 0.7000202197	 0.3538
C	 2.3780061577	-1.1511906133	-0.7638508103	-0.452456
O	 2.9459660941	-0.5836340593	 1.5458448429	-0.485946
H	 1.0193463064	 1.6192777897	-0.3483728527	 0.114073
H	-0.7081666227	 1.7784124941	-0.7548048133	 0.126188
H	-0.1676862766	 1.9472103279	 0.9381659409	 0.106184
H	 0.7283465388	 0.0595862479	 1.968360322	 0.080969
H	-0.5639923575	-2.212060498	 2.3498046982	 0.092709
H	-0.014186226	-3.8250181729	 0.729457226	 0.230314
H	 2.0491649313	-3.2777559212	 1.799962602	 0.088557
H	 1.5867247238	-1.5770667919	-1.3818231418	 0.156626
H	 2.5705802882	-0.1231069862	-1.083919719	 0.118138
H	 3.2941653722	-1.7343705459	-0.9256444698	 0.096353
H	 3.802192948	-0.9766681876	 1.3430907058	 0.274137
102.8929	114.523	155.4366	208.2973	224.2126	243.0943	275.1641	297.1965	368.9864	394.7213	470.0803	527.9936	571.572	661.6203	767.6372	833.8177	842.6724	902.7504	920.6181	962.0071	1009.3852	1012.5665	1036.6398	1079.2845	1105.6053	1115.8716	1165.6804	1167.6795	1180.3639	1192.217	1223.0128	1246.4923	1304.9199	1329.2442	1346.4479	1382.2142	1397.897	1411.8946	1482.2846	1484.1301	1490.1376	1495.8817	1509.175	2981.3884	3010.6011	3022.9131	3035.8349	3096.3845	3115.8343	3150.8834	3182.3588	3195.6145	3472.8144	3796.5583
COC1C2NC2C1(C)O	CO[C@H]1[C@H]2N[C@H]2[C@]1(C)O	
InChI=1S/C6H11NO2/c1-6(8)4-3(7-4)5(6)9-2/h3-5,7-8H,1-2H3	InChI=1S/C6H11NO2/c1-6(8)4-3(7-4)5(6)9-2/h3-5,7-8H,1-2H3/t3-,4+,5-,6-/m0/s1
