18
gdb 12818	3.39764	2.05559	1.62475	1.8935	67.16	-0.2464	0.0896	0.336	852.9093	0.154925	-384.926418	-384.919218	-384.918274	-384.957452	28.169	
C	-0.0138547267	 1.5010136947	-0.0015044801	-0.468299
C	-0.0114235746	-0.012690559	 0.0104903103	 0.266801
C	-0.8517029715	-0.7327660569	 1.0451503152	-0.340185
C	 0.6529766593	-0.736984805	 1.1604267094	 0.073416
O	 1.321001474	-1.9514774895	 0.9353142772	-0.246215
C	 1.6514239388	-2.1609837311	-0.4137434996	 0.013816
O	 0.5437894691	-2.0239655766	-1.2614233175	-0.233092
C	 0.1554983712	-0.6591509544	-1.3556733002	-0.150223
H	 0.9028873218	 1.89950974	-0.4515350158	 0.118401
H	-0.8644348503	 1.8897010148	-0.5746199182	 0.120927
H	-0.0915387156	 1.9041354566	 1.0127758544	 0.120025
H	-1.4304865038	-0.136623509	 1.7428583275	 0.107252
H	-1.2965652923	-1.6799031838	 0.7604901436	 0.128015
H	 1.1224998124	-0.1513596191	 1.9471522955	 0.093003
H	 2.4480050479	-1.4612990477	-0.728473644	 0.075764
H	 2.0000584099	-3.1926319659	-0.4906577341	 0.117814
H	-0.7787786844	-0.6418168307	-1.9261517764	 0.113418
H	 0.9149104549	-0.1000031672	-1.9289344871	 0.089362
147.9723	195.2887	215.528	310.8953	356.7666	400.256	425.2216	499.8203	523.0272	642.1757	752.2519	818.6958	877.2871	922.5647	946.1303	983.9372	1006.89	1035.258	1045.5603	1060.1109	1094.1442	1109.3332	1139.4864	1184.4208	1204.7461	1261.1554	1282.1396	1325.249	1337.0197	1371.9312	1418.0267	1420.6713	1446.8533	1477.2064	1491.0268	1494.9408	1505.9986	1513.136	2928.7614	2959.0407	3020.9207	3070.5007	3080.3547	3100.8256	3114.0852	3128.7144	3133.3778	3224.5487
CC12CC1OCOC2	C[C@]12C[C@H]1OCOC2	
InChI=1S/C6H10O2/c1-6-2-5(6)8-4-7-3-6/h5H,2-4H2,1H3	InChI=1S/C6H10O2/c1-6-2-5(6)8-4-7-3-6/h5H,2-4H2,1H3/t5-,6-/m1/s1
