19
gdb 64078	3.26424	1.21927	1.10814	3.5691	79.3	-0.2329	-0.0556	0.1773	1172.8156	0.158065	-423.058345	-423.04958	-423.048636	-423.091479	33.668	
C	-0.0163758794	 1.5095037661	-0.0430617107	-0.411373
C	-0.059011829	-0.0230396155	 0.0138926746	 0.306199
C	-1.5186762118	-0.51882871	 0.0883248368	-0.415074
O	 0.5587730899	-0.4458307836	-1.2040106467	-0.289253
C	 0.9671303046	-1.7978753101	-1.267769594	-0.198527
C	 1.8596013129	-2.2216514282	-0.1047213552	 0.349161
O	 2.6377792265	-3.1478784287	-0.2043529267	-0.32205
C	 1.6358547119	-1.4820722015	 1.1495332607	-0.19308
C	 0.716931164	-0.5124453505	 1.2128494367	-0.052041
H	 1.0182600944	 1.8577638679	-0.0912367951	 0.130662
H	-0.5393117278	 1.8544359343	-0.939013514	 0.130145
H	-0.4986349102	 1.9482074662	 0.8351694553	 0.114763
H	-2.0780303238	-0.1383754175	-0.7709903641	 0.129233
H	-1.5704221648	-1.6109752526	 0.0851514869	 0.123453
H	-2.0036348159	-0.1660199314	 1.0035130499	 0.120097
H	 0.1091416122	-2.4911883767	-1.3020288961	 0.114056
H	 1.5196126383	-1.9183130197	-2.20247524	 0.137599
H	 2.2052892454	-1.8049633666	 2.0154144	 0.113344
H	 0.4890812925	-0.025912032	 2.1591393819	 0.112687
66.1671	200.2359	203.5997	218.3377	255.7728	313.2872	338.962	382.3937	420.7951	460.4035	488.4495	531.2318	620.3422	713.6896	744.4304	794.9983	865.1242	898.936	927.8642	951.2374	1015.0596	1017.7464	1033.8787	1124.5458	1129.5052	1185.9062	1222.1152	1235.9885	1262.5976	1290.7244	1368.4792	1390.8224	1399.7303	1417.8124	1467.3854	1477.6863	1482.1542	1496.1685	1507.3832	1681.3419	1788.2307	2963.7881	3041.8211	3047.2666	3107.3012	3114.9696	3122.0468	3125.4823	3129.5956	3150.1911	3188.6075
CC1(C)OCC(=O)C=C1	CC1(C)OCC(=O)C=C1	
InChI=1S/C7H10O2/c1-7(2)4-3-6(8)5-9-7/h3-4H,5H2,1-2H3	InChI=1S/C7H10O2/c1-7(2)4-3-6(8)5-9-7/h3-4H,5H2,1-2H3
