23
gdb 102466	2.16539	1.00766	0.8149	2.2282	82.67	-0.2339	-0.0025	0.2314	1567.424	0.202449	-425.451818	-425.440198	-425.439254	-425.489652	40.453	
C	 0.1146204958	 1.5521219922	-0.0883682499	-0.398063
C	 0.1122647327	 0.0257606906	 0.0431909921	-0.181002
C	 0.6799698474	-0.5088347436	 1.3729184287	-0.074883
C	-0.1584513679	-0.1003591484	 2.5872866015	-0.075558
O	 0.4969641879	-0.6102521725	 3.7441406189	-0.429257
C	 0.728282286	-2.0445703007	 1.3351437503	 0.407749
O	-0.2601589327	-2.6828732963	 1.0471800837	-0.33719
C	 2.049439387	-2.6989750676	 1.6891918035	-0.29005
C	 2.0241821711	-4.2229240726	 1.6268355109	-0.379274
H	 1.11897377	 1.9640777706	 0.0615132626	 0.115299
H	-0.2196835407	 1.8509430326	-1.0868003755	 0.116669
H	-0.5519886415	 2.0320709679	 0.6344774297	 0.119495
H	-0.9003757086	-0.3711972876	-0.084277938	 0.120793
H	 0.7042059827	-0.4009411916	-0.775864723	 0.09923
H	 1.6942474027	-0.1190523263	 1.524471539	 0.077946
H	-0.2495889117	 0.9934489677	 2.6410421524	 0.089341
H	-1.1660855164	-0.527054842	 2.4770515991	 0.108159
H	-0.0744284352	-0.4689460722	 4.5042388346	 0.290203
H	 2.8205554976	-2.2806364131	 1.0260758736	 0.113726
H	 2.3081661838	-2.3345354034	 2.6927986565	 0.142548
H	 2.997560566	-4.6394769349	 1.9010655998	 0.106803
H	 1.2703164259	-4.6262745475	 2.3077294935	 0.130886
H	 1.770185638	-4.5698039613	 0.6215695959	 0.126429
37.0486	72.229	79.7731	113.9326	159.4639	183.3637	204.9263	217.2095	246.5123	255.0821	310.984	333.5821	399.5291	484.9828	567.6858	655.261	761.5209	800.3701	807.8894	893.7025	963.4589	988.0133	1015.3025	1036.373	1056.7863	1065.0509	1104.9169	1124.5398	1139.221	1140.9634	1244.7213	1254.8934	1278.6133	1294.8206	1335.1411	1351.2847	1368.9503	1391.5035	1412.1188	1413.9545	1441.6411	1450.7254	1490.0146	1492.8743	1497.2219	1501.6933	1508.9692	1518.852	1801.643	2990.2891	3012.8171	3023.3628	3031.6766	3033.6718	3041.1089	3048.3101	3049.5794	3075.548	3101.1101	3108.6951	3119.3289	3124.8277	3835.3729
CCC(CO)C(=O)CC	CC[C@@H](CO)C(=O)CC	
InChI=1S/C7H14O2/c1-3-6(5-8)7(9)4-2/h6,8H,3-5H2,1-2H3	InChI=1S/C7H14O2/c1-3-6(5-8)7(9)4-2/h6,8H,3-5H2,1-2H3/t6-/m0/s1
