21
gdb 112922	2.49111	1.30861	1.02892	2.2662	80.64	-0.2465	0.0194	0.266	1255.5333	0.182676	-424.236828	-424.227771	-424.226827	-424.270577	34.6	
C	 0.1243986168	 1.4943899014	 0.1180774317	-0.40367
C	 0.0923680923	-0.0209602178	-0.0029825003	 0.143287
C	 0.8119315807	-0.5497205334	-1.2486370794	-0.258159
C	 1.033350433	-2.034822703	-1.1381794051	-0.089856
C	 0.9151201625	-2.6748054585	 0.0213684732	-0.040464
C	 0.5990608005	-1.9623999779	 1.3098957894	 0.047894
C	 1.5672568033	-2.3217466766	 2.4423306667	-0.065849
O	 2.8933207657	-1.9525553511	 2.1332766187	-0.420996
O	 0.6984968915	-0.5477297061	 1.1771246603	-0.295171
H	 1.1577929973	 1.848367986	 0.1907974168	 0.121448
H	-0.3388146654	 1.9587938609	-0.7577804322	 0.116279
H	-0.4135269449	 1.8203283318	 1.0121092671	 0.123555
H	-0.95527785	-0.3641931478	-0.0380214351	 0.069879
H	 0.2165791133	-0.3176502444	-2.1410681113	 0.104835
H	 1.7708549513	-0.0269892967	-1.3775387436	 0.109338
H	 1.2884185896	-2.5789415084	-2.0436307137	 0.091619
H	 1.0497248085	-3.7510915088	 0.0873651167	 0.093722
H	-0.4222668016	-2.2327990288	 1.6394897006	 0.072335
H	 1.2139953902	-1.8327443042	 3.3639903174	 0.090817
H	 1.5574988107	-3.4041475454	 2.6092441317	 0.10403
H	 2.8349276448	-1.0481609013	 1.8018591406	 0.285128
86.5111	97.3809	164.4788	217.0159	250.9405	254.3478	350.5443	397.4815	441.4773	466.2295	476.4404	512.1681	658.2721	692.4459	810.7221	849.1526	881.0969	901.717	935.9199	955.9712	989.613	998.9444	1042.514	1087.7552	1093.3085	1119.8844	1131.9701	1166.0464	1207.3273	1231.189	1246.4265	1301.3895	1323.1404	1342.7547	1378.5018	1392.9336	1400.0722	1410.6555	1420.5973	1437.7696	1471.6951	1484.0883	1498.8355	1499.3928	1727.8484	2920.1263	2961.4045	2983.1201	3004.795	3040.8603	3045.1593	3074.0497	3112.9597	3122.3734	3152.7356	3175.8078	3787.3145
CC1CC=CC(CO)O1	C[C@H]1CC=C[C@@H](CO)O1	
InChI=1S/C7H12O2/c1-6-3-2-4-7(5-8)9-6/h2,4,6-8H,3,5H2,1H3	InChI=1S/C7H12O2/c1-6-3-2-4-7(5-8)9-6/h2,4,6-8H,3,5H2,1H3/t6-,7-/m0/s1
