20
gdb 97598	4.60643	0.56762	0.53336	4.3414	90.1	-0.2591	0.0259	0.285	2092.3523	0.168983	-366.016013	-366.005214	-366.00427	-366.053522	37.336	
C	 0.1400237008	 1.4261960929	-0.4398556129	-0.36449
C	-0.0640185829	 0.1723678209	 0.4302279376	-0.315944
C	-1.4153540898	-0.3725027032	 0.3405651642	 0.113151
C	-2.5368263467	-0.8012721955	 0.2383530016	 0.025617
C	-3.8902910914	-1.3449251939	 0.1444679033	-0.165201
C	-3.8886416497	-2.8013372695	-0.3560282378	-0.390566
C	-4.5952952937	-1.2114870149	 1.5266122121	-0.329307
C	-5.9985554865	-1.6164422935	 1.4851808607	 0.260187
N	-7.1077813973	-1.9368719071	 1.4322011072	-0.312003
H	 1.1645457401	 1.7962990957	-0.3396844065	 0.117152
H	-0.0441581691	 1.2016778179	-1.4938524205	 0.129761
H	-0.5456756697	 2.223179896	-0.1399712299	 0.128579
H	 0.658485956	-0.5998524761	 0.1366668942	 0.131739
H	 0.1615754886	 0.4117153516	 1.4773357707	 0.130404
H	-4.4637315595	-0.7385689626	-0.5687147065	 0.12363
H	-3.3284488313	-3.4439430743	 0.3301607193	 0.126338
H	-4.9109991603	-3.1814111131	-0.4353285399	 0.142119
H	-3.4162100381	-2.8634161769	-1.3390329134	 0.131578
H	-4.0687076859	-1.8241499218	 2.2664006585	 0.15765
H	-4.5377068037	-0.1744513625	 1.8709849581	 0.159606
27.2561	59.2458	78.8229	119.2851	163.0459	200.9794	216.8621	254.1892	323.4133	340.3924	399.3166	474.0403	492.412	526.5231	547.1221	736.02	786.4099	850.1058	891.855	945.2604	963.1266	1029.7355	1077.2809	1094.8276	1103.8079	1109.9872	1182.2211	1240.7729	1287.1997	1288.7345	1338.1024	1350.3391	1363.5995	1410.3238	1411.9013	1464.104	1475.2822	1494.734	1495.2908	1499.8926	1505.5997	2359.4575	2364.3892	3021.3924	3021.7533	3045.1473	3045.7994	3048.9689	3055.6844	3098.3124	3119.5883	3119.8288	3124.9949	3130.0403
CCC#CC(C)CC#N	CCC#C[C@@H](C)CC#N	
InChI=1S/C8H11N/c1-3-4-5-8(2)6-7-9/h8H,3,6H2,1-2H3	InChI=1S/C8H11N/c1-3-4-5-8(2)6-7-9/h8H,3,6H2,1-2H3/t8-/m1/s1
