18
gdb 52116	4.13408	0.97464	0.88016	2.6398	73.37	-0.2402	0.0277	0.2679	1324.0062	0.147564	-439.064317	-439.055697	-439.054753	-439.099518	31.207	
O	 0.409651653	 0.4260470811	-1.129757092	-0.32628
C	 0.2209319446	 1.3222556216	-0.3337281844	 0.159308
N	 1.0940726461	 1.7043760847	 0.6365800268	-0.266823
C	 2.4296449311	 1.132563473	 0.7468089113	-0.283055
C	 3.4869402744	 2.0515634965	 0.2206870561	 0.47839
C	 3.8583956926	 2.2699063085	-1.2118042051	-0.32447
C	 4.9279256237	 1.8787637888	-0.2071760021	-0.194617
C	 5.2018683333	 3.0702352825	 0.7028833679	-0.086305
O	 3.7845907168	 3.2266122547	 0.9947202115	-0.335333
H	-0.7122328118	 1.9184759828	-0.3051843512	 0.077736
H	 0.8823365012	 2.5274999501	 1.1783170327	 0.258999
H	 2.6344126072	 0.8920894903	 1.795827318	 0.116288
H	 2.4199512836	 0.2064679145	 0.1679873774	 0.152361
H	 3.5608826131	 1.479826549	-1.8937219268	 0.135181
H	 3.8334565792	 3.2747895751	-1.6247323718	 0.114579
H	 5.5369439172	 0.9899511389	-0.3005664153	 0.106118
H	 5.7541539681	 2.8150721766	 1.6141576684	 0.11057
H	 5.6336292467	 3.9694303214	 0.2476421085	 0.107354
21.0559	48.2922	134.865	203.1183	270.6647	328.073	365.4672	435.4241	447.3121	538.1918	715.8696	744.7971	758.0641	845.4916	914.1039	936.377	955.9733	971.1395	980.5919	1003.7249	1019.3034	1033.4216	1042.9417	1071.9305	1130.0894	1162.7745	1182.0686	1206.2562	1269.6993	1292.3546	1343.7228	1372.4388	1414.7299	1428.4187	1461.7109	1490.0568	1519.5837	1527.3773	1801.4549	2941.3197	3024.6961	3046.8246	3073.6235	3117.307	3125.301	3203.5996	3215.3411	3636.1545
O=CNCC12CC1CO2	O=CNC[C@]12C[C@H]1CO2	
InChI=1S/C6H9NO2/c8-4-7-3-6-1-5(6)2-9-6/h4-5H,1-3H2,(H,7,8)	InChI=1S/C6H9NO2/c8-4-7-3-6-1-5(6)2-9-6/h4-5H,1-3H2,(H,7,8)/t5-,6+/m0/s1
