13
gdb 6254	4.29726	1.37535	1.06898	5.1033	58.89	-0.2637	-0.0701	0.1937	1022.7738	0.095481	-431.968009	-431.95996	-431.959016	-432.001168	28.217	
N	 0.2220607897	 1.2006980722	 0.0281409165	-0.559263
C	-0.2433124856	-0.0408855342	-0.3345467355	 0.467909
O	-0.3107278519	-0.4231560905	-1.4864358322	-0.375617
N	-0.6014201292	-0.8355168926	 0.7538300184	-0.379141
C	-0.9790489982	-2.1737474738	 0.6405395761	 0.286311
N	-0.7710530877	-2.9618252711	 1.6155164962	-0.484293
C	-1.7471243151	-2.6062831884	-0.6032293021	 0.121792
O	-1.899311646	-3.7778385923	-0.8362175729	-0.249372
H	 0.3407407337	 1.8381962093	-0.7431786666	 0.274215
H	-0.0764593404	 1.6139816342	 0.8970156877	 0.262085
H	-0.2211378598	-0.6057827972	 1.6626107109	 0.261149
H	-1.152120648	-3.8795803479	 1.3719821024	 0.247869
H	-2.1860907314	-1.8113557278	-1.223690429	 0.126354
71.3225	72.6942	124.0177	261.8491	316.2094	391.0908	394.4874	427.0485	496.7322	529.8476	621.7419	651.704	735.8996	770.6562	868.479	915.4279	1003.3842	1023.6278	1106.0951	1166.2076	1312.5678	1364.9685	1448.3497	1503.8818	1625.3963	1707.9934	1802.3773	1815.6183	3031.8234	3457.6081	3585.9593	3594.134	3712.1164
NC(=O)NC(=N)C=O	NC(=O)NC(=N)C=O	
InChI=1S/C3H5N3O2/c4-2(1-7)6-3(5)8/h1H,(H4,4,5,6,8)	InChI=1S/C3H5N3O2/c4-2(1-7)6-3(5)8/h1H,(H4,4,5,6,8)
