18
gdb 55728	2.21715	1.44763	1.01555	2.5199	73.13	-0.2514	-0.0345	0.2169	1198.5636	0.144996	-439.09064	-439.081174	-439.08023	-439.12568	33.786	
C	-0.1167078682	 1.2625369656	 0.1887149915	-0.483481
C	 0.7221162572	 0.200134228	-0.4781927877	 0.397928
O	 1.8860670889	 0.0050197805	-0.2008019626	-0.31106
C	 0.0428991593	-0.6724802384	-1.5409159643	-0.403484
C	-0.1064418225	-2.1068010991	-1.0518114427	 0.217842
C	 0.4619477283	-3.2367782374	-1.8620010024	-0.278168
N	 1.0813723976	-2.8718452021	-0.6006329728	-0.33554
C	-1.3039110429	-2.3941319665	-0.2093852735	 0.150826
O	-2.1736463002	-1.5935803191	 0.0359976435	-0.271823
H	-0.4462482086	 1.9942060576	-0.5592582111	 0.14237
H	-1.0242073023	 0.8049894958	 0.5973599551	 0.170592
H	 0.4525606539	 1.7655667028	 0.9709010278	 0.140978
H	-0.943396448	-0.2847114742	-1.8057769333	 0.129517
H	 0.6827767447	-0.650449675	-2.428036844	 0.124984
H	-0.0321027923	-4.205228091	-1.8708390863	 0.127517
H	 0.9319684681	-2.9569025343	-2.8014760901	 0.126986
H	 1.8993186575	-2.2767825572	-0.7228685781	 0.260584
H	-1.3233926405	-3.4285689962	 0.195174811	 0.093432
45.9533	76.7538	129.3886	171.2343	183.2597	243.0694	308.23	348.2252	390.3389	415.8146	508.6284	545.4257	603.7974	772.0867	806.3592	808.714	891.0305	919.9217	957.7449	985.1585	1021.5527	1040.1351	1051.6998	1104.5564	1140.7641	1166.5394	1229.4639	1258.9707	1313.8943	1329.7487	1379.7282	1387.5358	1424.9049	1457.0948	1466.4302	1471.5674	1508.2956	1799.4623	1812.9624	2914.6407	3034.0578	3060.1988	3097.496	3102.7487	3120.1629	3157.1304	3188.9682	3494.0473
CC(=O)CC1(CN1)C=O	CC(=O)C[C@]1(CN1)C=O	
InChI=1S/C6H9NO2/c1-5(9)2-6(4-8)3-7-6/h4,7H,2-3H2,1H3	InChI=1S/C6H9NO2/c1-5(9)2-6(4-8)3-7-6/h4,7H,2-3H2,1H3/t6-/m0/s1
