25
gdb 115796	3.61455	1.00215	0.89654	0.1658	92.72	-0.2512	0.0864	0.3377	1455.5854	0.22994	-352.374951	-352.365468	-352.364524	-352.408754	37.395	
C	 0.0692700359	 1.5569640757	-0.00113742	-0.383119
C	 0.0245565685	 0.0255394499	 0.0194522305	-0.17916
C	-1.3946896856	-0.5565143689	-0.0024705403	 0.042654
C	-2.2084136909	-0.231774236	-1.2820797696	-0.240867
C	-3.2492962458	-1.3658356319	-1.4060284397	-0.270564
C	-2.6062644462	-2.5870154112	-0.7518109836	 0.359117
C	-3.5074316979	-3.7178791884	-0.3171804225	-0.481192
C	-1.1815959245	-2.8778683959	-1.1639693972	-0.33593
C	-1.4574774359	-2.0777123752	 0.0917120416	-0.079138
H	 1.0990954957	 1.9243765169	 0.0496893947	 0.10906
H	-0.3806867468	 1.96133862	-0.9138665138	 0.11643
H	-0.4761386655	 1.9797428795	 0.8505414062	 0.110721
H	 0.5861410921	-0.3731129478	-0.8357754843	 0.091959
H	 0.5419871469	-0.3379612185	 0.9168100865	 0.089261
H	-1.9387963487	-0.1532018298	 0.8651222597	 0.062617
H	-2.6744052437	 0.7561615959	-1.2446773169	 0.0961
H	-1.5419081999	-0.2278591814	-2.1524593961	 0.098237
H	-4.1593007213	-1.1085649355	-0.8480450955	 0.092301
H	-3.5537391671	-1.5434353542	-2.4443163423	 0.090489
H	-3.9969672347	-4.1914843572	-1.176949166	 0.113641
H	-2.9455976784	-4.4957100241	 0.2101427066	 0.110813
H	-4.2969281581	-3.3610154727	 0.3554765502	 0.11032
H	-0.8325688471	-3.8963058007	-1.0269031604	 0.102073
H	-0.7568775413	-2.3868867758	-2.0339355636	 0.103119
H	-1.2235451795	-2.5402919626	 1.046122036	 0.071059
86.6136	126.2513	180.942	210.4596	219.2959	250.6183	294.4776	343.5099	386.7003	415.0632	483.2204	549.9077	611.993	688.8143	771.1341	813.5316	847.7761	864.849	920.757	930.9862	944.1682	952.1883	984.8374	1004.8661	1019.5595	1047.0377	1061.9931	1074.2797	1079.7618	1100.1155	1144.2887	1164.633	1198.3688	1231.2244	1267.3428	1279.6776	1298.1425	1312.494	1329.056	1337.4017	1359.1364	1385.7801	1406.9818	1411.6239	1420.6563	1485.9093	1487.5786	1488.3116	1492.1038	1500.5537	1503.9092	1508.0206	1517.5758	2984.259	3014.1052	3014.5825	3019.2594	3029.2202	3038.0625	3046.369	3058.264	3073.019	3092.758	3093.6888	3094.705	3102.0502	3123.6853	3148.0258	3203.4284
CCC1CCC2(C)CC12	CC[C@H]1CC[C@@]2(C)C[C@@H]12	
InChI=1S/C9H16/c1-3-7-4-5-9(2)6-8(7)9/h7-8H,3-6H2,1-2H3	InChI=1S/C9H16/c1-3-7-4-5-9(2)6-8(7)9/h7-8H,3-6H2,1-2H3/t7-,8-,9-/m0/s1
