20
gdb 57261	2.2208	1.43552	1.28604	3.0029	78.91	-0.2379	0.0365	0.2744	1124.1078	0.170451	-399.317541	-399.30762	-399.306676	-399.351475	38.014	
C	 0.2642333575	 1.4409947527	 0.2515338834	-0.408262
C	-0.0026207567	-0.058095632	 0.0334073492	 0.06344
N	 0.4661350486	-0.8004047636	 1.2097712366	-0.53077
C	-1.4612982889	-0.2674858277	-0.1721480457	 0.254477
N	-2.5907014195	-0.4794029522	-0.3056132125	-0.357395
C	 0.719594829	-0.54183301	-1.2448427403	 0.345183
N	 0.1644882758	 0.0878696847	-2.4222174774	-0.574699
C	 2.204136197	-0.7409779936	-1.1890674854	-0.306393
C	 1.2916426996	-1.9433971074	-1.3152820379	-0.319989
H	 1.3198711144	 1.5757246388	 0.5002162601	 0.129793
H	 0.0325851553	 1.9932925531	-0.6590496433	 0.157848
H	-0.3459450953	 1.8311014723	 1.0716829739	 0.119771
H	 0.1438242432	-0.3346671665	 2.0525306468	 0.240999
H	 0.0633099673	-1.7322445516	 1.2249098003	 0.244556
H	 0.8240150114	 0.070582903	-3.1906512713	 0.232352
H	-0.677830161	-0.3906732324	-2.7281022743	 0.244564
H	 2.7878140063	-0.4322868048	-2.050695077	 0.108878
H	 2.692727203	-0.6002723842	-0.2325116436	 0.135032
H	 1.2305908556	-2.6070093922	-0.4608471894	 0.112535
H	 1.2264714173	-2.4414382065	-2.2767519523	 0.108082
81.6037	137.7046	193.9864	221.0619	240.1648	257.5614	277.415	307.8044	351.7399	370.267	406.1487	440.3367	485.0203	548.4027	602.5586	659.4168	779.9655	801.6103	835.3518	892.3539	903.8993	921.2003	962.8852	983.2634	1002.002	1029.5137	1056.7627	1090.3295	1168.0032	1183.1607	1189.4152	1214.7676	1304.9369	1323.245	1377.3974	1397.5171	1453.5279	1487.6927	1495.317	1499.6235	1652.1053	1663.	2337.2212	3050.1882	3122.6085	3132.615	3137.532	3161.0467	3218.9535	3231.5559	3501.5103	3502.8463	3579.5879	3593.5921
CC(N)(C#N)C1(N)CC1	C[C@@](N)(C#N)C1(N)CC1	
InChI=1S/C6H11N3/c1-5(8,4-7)6(9)2-3-6/h2-3,8-9H2,1H3	InChI=1S/C6H11N3/c1-5(8,4-7)6(9)2-3-6/h2-3,8-9H2,1H3/t5-/m1/s1
