14
gdb 84305	2.19825	1.80131	1.13079	4.2874	68.17	-0.2696	-0.0789	0.1907	1028.8074	0.101045	-436.721455	-436.713561	-436.712617	-436.754451	28.818	
O	 0.259425356	 1.3291425359	-0.3334752655	-0.413196
C	 0.0523316705	-0.0270852488	-0.0351397222	 0.080535
C	 0.5917688836	-0.4581491914	 1.3138818039	-0.085357
C	-0.2391635648	-1.2465233583	 2.0026510758	-0.170569
C	-1.4963579292	-1.4622417876	 1.2567666552	 0.383128
O	-2.3980159917	-2.214953124	 1.5081990491	-0.300004
C	-1.4378410261	-0.5139895089	 0.0072684382	-0.323205
C	-2.3423743486	 0.6085241143	 0.2001084984	 0.288894
N	-3.0103850891	 1.5343786185	 0.3848238162	-0.320568
H	-0.2989941164	 1.8683929915	 0.2414148739	 0.300886
H	 0.5773825241	-0.5731398339	-0.8273539541	 0.12808
H	 1.582086342	-0.1445252426	 1.6251249588	 0.13951
H	-0.0601824126	-1.7121578721	 2.9631971474	 0.138563
H	-1.7350790178	-1.0699551627	-0.8852693351	 0.153303
51.1576	139.8586	173.9226	227.5247	350.0804	365.4722	430.0767	448.398	487.8674	554.0161	655.5682	705.0643	768.7111	815.7727	837.4668	890.0323	978.0955	1011.7947	1063.0855	1079.0198	1135.7452	1159.1268	1184.8249	1257.3437	1298.342	1310.8717	1355.2808	1430.1217	1650.4395	1838.3413	2350.9523	3047.5732	3093.5994	3202.3302	3232.4974	3773.3598
OC1C=CC(=O)C1C#N	O[C@H]1C=CC(=O)[C@H]1C#N	
InChI=1S/C6H5NO2/c7-3-4-5(8)1-2-6(4)9/h1-2,4-5,8H	InChI=1S/C6H5NO2/c7-3-4-5(8)1-2-6(4)9/h1-2,4-5,8H/t4-,5-/m0/s1
