18
gdb 54452	3.3367	1.3729	1.12046	3.7977	77.02	-0.2177	-0.0114	0.2063	1105.0562	0.146648	-401.884037	-401.875923	-401.874979	-401.916891	31.423	
C	 0.076557987	 1.3269235549	-0.4908512919	-0.492814
C	-0.0716914843	 0.0370098762	 0.2983999	 0.292799
O	 0.8144565661	-0.3697065797	 1.0259780701	-0.331049
C	-1.3360685574	-0.7065039846	 0.1275218161	 0.233963
C	-1.7516699366	-1.7700197822	 1.1319249563	-0.325982
C	-1.4087879831	-2.2194902905	-0.2393529787	-0.084193
C	-2.501134497	-1.8794282197	-1.2878979521	-0.055098
N	-3.6477954754	-1.2373567583	-0.5954978983	-0.33844
C	-2.4404853665	-0.4470768442	-0.9418356114	-0.148092
H	 1.0350039807	 1.7897916013	-0.2543296004	 0.140778
H	 0.0235376107	 1.1259318644	-1.5674084495	 0.134384
H	-0.7384941792	 2.0206796989	-0.2542086191	 0.136995
H	-0.9811772057	-1.9488149627	 1.8733280175	 0.14216
H	-2.7783081503	-1.7863074542	 1.4720823182	 0.148831
H	-0.5433699927	-2.8301091348	-0.460348734	 0.11444
H	-2.6187427632	-2.3631561525	-2.2481867165	 0.101386
H	-4.3501770947	-1.0372924183	-1.3069620583	 0.234057
H	-2.5038573883	 0.4263179561	-1.5773013478	 0.095876
64.5684	143.5027	166.3112	187.5701	341.0169	389.8798	429.6067	466.9969	580.6403	585.1509	633.2353	737.1658	746.7283	802.7266	831.6846	853.9516	907.6421	927.4381	934.1229	951.3897	979.5264	1008.2003	1048.1574	1059.839	1102.3673	1105.396	1125.9371	1145.8124	1206.0273	1240.3664	1297.8809	1315.2184	1346.3333	1374.3892	1397.5184	1452.3931	1464.5055	1476.6418	1768.3216	3030.6308	3090.0707	3152.9042	3154.8536	3195.4093	3205.4986	3212.534	3254.963	3478.0914
CC(=O)C12CC1C1NC21	CC(=O)[C@]12C[C@H]1[C@H]1N[C@@H]21	
InChI=1S/C7H9NO/c1-3(9)7-2-4(7)5-6(7)8-5/h4-6,8H,2H2,1H3	InChI=1S/C7H9NO/c1-3(9)7-2-4(7)5-6(7)8-5/h4-6,8H,2H2,1H3/t4-,5+,6+,7+/m0/s1
