19
gdb 54274	2.45737	1.5461	1.26009	4.7679	70.55	-0.2443	0.0268	0.2711	1064.7548	0.162094	-456.380496	-456.371988	-456.371044	-456.413758	32.208	
N	 0.0374529392	 1.6371786654	-0.1834008253	-0.558485
C	-0.0490213011	 0.2016766065	 0.0447689435	 0.148926
C	 0.5645970129	-0.1941615325	 1.4319748962	-0.237213
C	-0.4655690913	-1.1498694009	 2.0814947743	-0.168706
N	-1.3523189753	-1.5059510847	 0.9570397047	-0.324507
H	-0.243284645	-2.1249497243	-0.3455620179	 0.310099
H	-2.2327368159	-1.9088457938	 1.2577700972	 0.235246
C	-1.5149230024	-0.2615005257	 0.1953088396	-0.22301
C	 0.6620212608	-0.6165203178	-1.0646929837	 0.375445
O	 1.4068148436	-0.1072251093	-1.8626541498	-0.350814
O	 0.4170656424	-1.9345264363	-1.0609325336	-0.383927
H	 1.0013045487	 1.847915066	-0.4374407854	 0.242487
H	-0.4837820805	 1.8636179391	-1.0288433943	 0.230243
H	 1.5425890288	-0.6676616887	 1.3211964195	 0.125638
H	 0.6938584051	 0.7156467535	 2.0200274843	 0.125737
H	-0.0144424224	-2.0492741563	 2.5084609099	 0.11584
H	-1.0124993043	-0.6314154331	 2.8821579244	 0.106138
H	-2.0728793829	 0.5172693581	 0.7368922327	 0.112283
H	-2.0125140704	-0.4545744754	-0.7601170364	 0.11858
77.7188	110.5183	155.7978	231.1398	275.2401	322.6463	365.7949	385.0357	440.3208	555.1143	615.9477	666.6689	760.2586	768.1109	819.2056	885.2487	898.9175	942.5514	951.7838	971.1827	977.7981	1030.624	1066.6332	1091.2368	1135.6705	1189.9435	1201.7526	1235.6617	1254.7731	1279.5653	1300.0968	1310.2754	1340.2276	1395.4546	1429.8276	1487.0195	1492.9024	1512.3126	1531.4288	1677.2234	1848.5953	2992.3376	2997.6257	3075.5125	3081.621	3088.8263	3129.3908	3255.6659	3469.5778	3530.5823	3541.6597
NC1(CC[NH2+]C1)C([O-])=O	N[C@]1(CCNC1)C(=O)O	
InChI=1S/C5H10N2O2/c6-5(4(8)9)1-2-7-3-5/h7H,1-3,6H2,(H,8,9)	InChI=1S/C5H10N2O2/c6-5(4(8)9)1-2-7-3-5/h7H,1-3,6H2,(H,8,9)/t5-/m0/s1
