16
gdb 94427	2.69997	1.4449	1.20923	3.4226	64.6	-0.2465	-0.0047	0.2418	1048.4928	0.124846	-475.011834	-475.003824	-475.002879	-475.044821	29.548	
O	 0.2065580471	 1.3396493032	-0.1831044443	-0.423565
C	 0.10557947	-0.0390282901	 0.050706217	 0.090046
C	 0.1828829886	-0.5012642538	 1.5285630881	-0.211036
N	-1.2992264838	-0.6119722979	 1.5369333405	-0.36665
C	-1.3550053822	-0.6034498831	 0.0786931286	 0.091962
C	-2.4916777278	 0.0084244358	-0.7520339481	-0.143162
O	-2.5837737502	-1.2284069729	-1.5389057511	-0.246676
C	-1.6523990578	-1.8599487683	-0.7536275425	 0.40336
O	-1.3012134441	-2.9962771231	-0.7935879795	-0.335585
H	-0.3017847187	 1.7994810499	 0.4953703261	 0.293952
H	 0.7850133406	-0.5248945642	-0.6496647114	 0.117867
H	 0.7149783239	-1.4527888367	 1.6425215497	 0.122365
H	 0.5868728428	 0.2270086748	 2.2402677825	 0.106893
H	-1.6890710079	-1.4308875948	 1.9915466073	 0.235976
H	-3.4199056834	 0.1923648652	-0.2069863324	 0.128328
H	-2.221427257	 0.858042616	-1.3815005904	 0.135924
78.0385	119.4545	153.3911	219.3968	270.9549	366.9605	416.035	425.2325	536.2871	620.9834	693.1812	716.5962	796.404	850.7021	876.7843	932.8482	957.3668	995.0655	1023.6424	1051.2416	1116.9041	1128.2301	1147.7093	1161.933	1167.1759	1236.0246	1253.6687	1302.9825	1310.486	1337.8891	1391.6883	1435.8961	1508.332	1511.3434	1924.2576	3026.9124	3073.5435	3076.6842	3120.5613	3141.6391	3531.3368	3795.2165
OC1CNC11COC1=O	O[C@H]1CN[C@]21COC2=O	
InChI=1S/C5H7NO3/c7-3-1-6-5(3)2-9-4(5)8/h3,6-7H,1-2H2	InChI=1S/C5H7NO3/c7-3-1-6-5(3)2-9-4(5)8/h3,6-7H,1-2H2/t3-,5-/m0/s1
