17
gdb 35900	2.8016	1.5421	1.22744	2.6665	73.46	-0.2527	0.0469	0.2996	1041.9696	0.136108	-421.767151	-421.759364	-421.75842	-421.79957	29.97	
C	-0.1051552964	-1.2398400632	-0.2597931099	-0.47566
C	-0.0358540109	-0.0512212588	-0.1004069383	 0.358608
C	 0.023871488	 1.3949496991	 0.086687029	-0.221738
C	-0.694087935	 1.8647221764	 1.3783865553	-0.090059
O	 0.1046185199	 1.7035929797	 2.5285991537	-0.230305
C	 1.2033188544	 2.5896020915	 2.5462892187	-0.115277
C	 2.0434199595	 2.5044216534	 1.2911667066	 0.039158
O	 2.4101741788	 1.1921105468	 0.8765139037	-0.229696
C	 1.4713644074	 1.9040543338	 0.0749739833	 0.036018
H	-0.1538701349	-2.2919594195	-0.3940810803	 0.198069
H	-0.4936804841	 1.8722430617	-0.7568973779	 0.106607
H	-0.9749467219	 2.9242514827	 1.2548471341	 0.086508
H	-1.6024693023	 1.2809911252	 1.5406474532	 0.124124
H	 0.8645179944	 3.6338611585	 2.6700477107	 0.091164
H	 1.8024035575	 2.3212757925	 3.4221851433	 0.125497
H	 2.8265698192	 3.2587619673	 1.2003500046	 0.094966
H	 1.8554794263	 2.2003810529	-0.90030117	 0.102017
74.7051	133.0073	208.7517	291.7997	348.5484	360.7855	431.0567	458.5109	567.1403	622.9289	641.3145	679.407	769.2341	776.3212	828.5857	871.7236	924.0738	961.1892	970.0549	1034.5279	1063.0267	1089.6932	1109.1905	1161.7622	1171.933	1259.3043	1277.9179	1291.5988	1317.1824	1347.9741	1362.3561	1389.7572	1422.1042	1469.7817	1481.2248	1493.8722	2240.4007	2952.7148	2963.328	3014.0054	3080.1921	3099.2775	3109.3583	3117.5083	3505.4996
C#CC1COCC2OC12	C#C[C@H]1COC[C@H]2O[C@@H]12	
InChI=1S/C7H8O2/c1-2-5-3-8-4-6-7(5)9-6/h1,5-7H,3-4H2	InChI=1S/C7H8O2/c1-2-5-3-8-4-6-7(5)9-6/h1,5-7H,3-4H2/t5-,6+,7-/m0/s1
