16
gdb 126097	3.16547	1.61965	1.13914	0.8703	70.46	-0.2468	-0.0146	0.2322	1033.3008	0.127071	-434.062447	-434.055075	-434.05413	-434.09466	27.516	
C	 0.0994423283	 1.5700586301	-0.0860113929	-0.386398
C	-0.0375610937	 0.0620323971	 0.0878139899	 0.022958
O	 0.5441801332	-0.6124927996	-1.0587664487	-0.301082
C	 1.4748448957	-1.654545107	-0.7088216002	-0.184527
C	 1.5958293245	-1.5170460726	 0.7711743399	 0.271766
N	 2.2612070266	-2.0364713483	 1.7942777494	-0.306335
N	 1.7580975157	-1.3417704754	 2.8225931638	-0.096715
N	 0.8275669554	-0.4205106623	 2.5449763632	-0.317109
C	 0.7239499604	-0.5334994781	 1.2271731475	 0.276246
H	 1.153618616	 1.8569140703	-0.1275453253	 0.123005
H	-0.3867245085	 1.8852544139	-1.0129421144	 0.12843
H	-0.3739912132	 2.089620689	 0.7528640253	 0.127348
H	-1.103875229	-0.2046457501	 0.138675276	 0.099162
H	 1.0766928255	-2.6319096115	-1.0157570519	 0.122065
H	 2.4152559499	-1.4880652255	-1.2481819291	 0.127434
H	 2.0744051331	-1.4998423102	 3.7658146378	 0.293751
68.6102	160.8789	226.1193	239.2399	308.6667	451.7849	478.1438	491.2513	612.7581	681.0609	701.4288	754.1598	791.1909	854.6144	990.6925	1009.3495	1037.8705	1051.5013	1081.5742	1116.4258	1159.943	1163.0241	1189.6703	1203.3359	1307.2659	1348.0088	1369.4941	1403.7386	1446.9323	1450.4225	1482.512	1494.3488	1518.5425	1531.3597	1602.359	2988.1059	3004.4151	3043.5819	3044.3511	3120.9741	3128.3735	3669.5626
CC1OCC2=NNN=C12	C[C@H]1OCc2n[nH]nc12	
InChI=1S/C5H7N3O/c1-3-5-4(2-9-3)6-8-7-5/h3H,2H2,1H3,(H,6,7,8)	InChI=1S/C5H7N3O/c1-3-5-4(2-9-3)6-8-7-5/h3H,2H2,1H3,(H,6,7,8)/t3-/m1/s1
