20
gdb 105691	2.31958	1.15952	0.95489	4.7954	76.14	-0.2589	0.0137	0.2726	1320.2354	0.169692	-440.282941	-440.273165	-440.272221	-440.318583	34.902	
C	-1.0005581669	 0.6395851172	-0.2931780016	-0.383248
C	-0.3412086949	-0.685055286	 0.11769305	-0.273492
C	 0.6885782058	-0.5781324855	 1.2334036181	 0.338213
C	 0.188822671	-0.2344644468	 2.6229123468	-0.149777
O	-0.32325024	 1.1028294745	 2.6994887646	-0.181687
C	 0.5528860023	 2.0820452986	 3.0169125166	 0.17989
O	 0.2448064285	 3.2357259346	 3.016677507	-0.280953
C	 1.9126948421	-1.4213411374	 1.1516275294	-0.289763
N	 2.0000596435	 0.0353955712	 0.9501425278	-0.345085
H	-0.2518707905	 1.3727843419	-0.6114124211	 0.118806
H	-1.6841195312	 0.4761491238	-1.131812008	 0.11249
H	-1.562742636	 1.0837174794	 0.5298263352	 0.150132
H	-1.115361809	-1.4008681807	 0.4242143587	 0.105006
H	 0.1502429767	-1.1300686005	-0.7567905918	 0.094676
H	-0.6395673077	-0.8855628915	 2.9154495978	 0.122258
H	 1.0012671512	-0.3590888072	 3.3476861268	 0.11484
H	 1.5525912115	 1.693830897	 3.2803583205	 0.093978
H	 2.3941966582	-1.7886566702	 2.0543438846	 0.119125
H	 2.0159362721	-2.0762065323	 0.290703436	 0.118147
H	 2.0794861635	 0.2495111299	-0.0412048773	 0.236444
46.0349	67.7355	97.4139	151.7126	213.1252	243.8897	278.5823	319.0295	340.8109	402.8296	441.034	508.4788	675.3501	730.5148	788.3856	858.298	902.9541	931.614	969.1552	1000.3974	1008.3359	1028.01	1049.1853	1055.6401	1105.9453	1116.4348	1144.62	1154.6942	1255.6923	1278.381	1298.4538	1345.9814	1373.5332	1389.0622	1417.7124	1418.4242	1439.0283	1477.8658	1492.5349	1499.9315	1509.841	1516.5887	1862.9023	2987.5152	3015.6923	3040.5919	3042.0911	3051.0485	3101.4318	3104.545	3106.5809	3143.056	3190.2774	3497.3772
CCC1(COC=O)CN1	CC[C@@]1(COC=O)CN1	
InChI=1S/C6H11NO2/c1-2-6(3-7-6)4-9-5-8/h5,7H,2-4H2,1H3	InChI=1S/C6H11NO2/c1-2-6(3-7-6)4-9-5-8/h5,7H,2-4H2,1H3/t6-/m0/s1
