15
gdb 106095	3.15215	1.39123	1.22709	4.0828	65.66	-0.2321	-0.0087	0.2235	1036.2882	0.110909	-457.683434	-457.675775	-457.674831	-457.716024	28.399	
C	-0.2657317709	 1.3551197379	 0.0206786782	-0.258388
O	 0.146197714	-0.0130196083	 0.0627948261	-0.267487
C	 0.715387465	-0.4427593584	-1.0821449004	 0.358992
C	 0.2942040388	-0.8500801592	-2.4481162143	-0.005804
O	 1.350845875	-0.1808148843	-3.133050155	-0.27272
C	 2.0772665153	-0.1429552094	-1.8793720861	-0.161981
C	 2.3926023171	-1.6353789743	-1.5991462303	 0.479412
O	 3.3884052813	-2.2369421482	-1.3217443828	-0.327365
C	 0.9217440579	-1.9190545688	-1.5224959909	-0.313641
H	 0.5915671838	 2.0177893238	-0.1480758088	 0.129439
H	-1.0072748031	 1.5170064463	-0.7705225291	 0.128791
H	-0.7094814538	 1.5736435448	 0.9927769856	 0.142896
H	-0.6611639762	-0.9891214292	-2.9364560538	 0.131242
H	 2.7997256592	 0.6633083984	-1.7882604779	 0.110634
H	 0.3858776564	-2.793793421	-1.1825503105	 0.12598
81.2675	124.1792	163.4813	198.8408	359.9231	419.7786	430.11	522.9443	593.9333	624.977	750.4141	763.4244	793.3539	869.6531	884.1017	943.5043	962.7928	997.8453	1042.4179	1044.9615	1079.9996	1103.6555	1135.8977	1176.3587	1199.6147	1208.0589	1231.477	1293.3365	1431.4436	1486.5864	1500.594	1508.6145	1893.8008	3017.2178	3082.4682	3145.2551	3172.2394	3211.7268	3233.3459
COC12C3OC1C(=O)C23	CO[C@@]12[C@H]3O[C@@H]1C(=O)[C@@H]23	
InChI=1S/C6H6O3/c1-8-6-2-3(7)5(6)9-4(2)6/h2,4-5H,1H3	InChI=1S/C6H6O3/c1-8-6-2-3(7)5(6)9-4(2)6/h2,4-5H,1H3/t2-,4+,5-,6+/m1/s1
