16
gdb 31892	3.53919	1.10058	0.84766	2.6293	88.45	-0.1776	-0.0011	0.1764	1320.3101	0.123482	-400.742154	-400.733336	-400.732392	-400.775958	32.328	
C	-0.2354080583	 1.4695083159	 0.0968385808	-0.332138
N	-0.0994969727	 0.057158362	-0.2365866641	-0.404064
C	-1.1646137378	-0.7940133416	-0.0744506734	 0.419346
C	-1.2514520349	-2.1581801191	 0.0617924794	-0.270471
C	-2.6437225755	-2.4497460649	 0.1031664037	-0.273547
C	-3.3184825863	-1.2655357209	-0.0018928467	 0.196456
O	-2.3889434617	-0.2333621004	-0.1111545609	-0.209189
C	-4.6754392671	-0.9249045704	-0.0109501204	 0.248372
C	-5.8480613652	-0.6406285012	-0.0187395305	-0.433066
H	 0.6948837585	 1.9777495736	-0.1650774928	 0.127897
H	-1.0436125486	 1.9073645236	-0.4919054201	 0.157089
H	-0.4515551413	 1.6481642488	 1.1600934599	 0.123186
H	 0.777150214	-0.3593406594	 0.0374095187	 0.248727
H	-0.4290625252	-2.8523888768	 0.1211960875	 0.100669
H	-3.1036161521	-3.4203354518	 0.2030796131	 0.114786
H	-6.8802014158	-0.3936061173	-0.0243518943	 0.185947
68.2356	122.6738	135.2419	158.3697	226.8757	295.5284	424.0537	436.4669	472.5051	534.393	544.4534	584.8672	648.8431	691.8128	700.0886	731.5867	740.2578	845.8213	965.0358	988.5848	1037.3996	1079.5929	1147.3712	1160.2387	1210.9182	1244.6119	1328.218	1390.9475	1449.6725	1487.2026	1489.8646	1516.2791	1588.6035	1648.1044	2217.8722	3000.0016	3099.1519	3141.0425	3255.529	3268.8963	3505.4686	3619.743
CNC1=CC=C(O1)C#C	CNc1ccc(o1)C#C	
InChI=1S/C7H7NO/c1-3-6-4-5-7(8-2)9-6/h1,4-5,8H,2H3	InChI=1S/C7H7NO/c1-3-6-4-5-7(8-2)9-6/h1,4-5,8H,2H3
