20
gdb 103229	3.62828	1.19585	1.10217	2.6018	78.78	-0.218	0.0573	0.2753	1170.7179	0.170278	-403.037806	-403.029154	-403.02821	-403.070858	33.676	
C	-0.0801389763	 1.6370768248	-0.0538462361	-0.488808
C	 0.0184484878	 0.1099001944	-0.0887340433	 0.329389
C	-1.1652342304	-0.5340813688	 0.6240816565	-0.139841
O	-1.1518578806	-0.1068336201	 1.9789815341	-0.424512
C	 0.4636315307	-0.7605981422	-1.2397046863	-0.145402
C	 1.8021711341	-0.361586074	-1.8904936589	-0.054245
C	 2.5432177864	 0.7749871988	-1.2964681776	-0.254104
N	 2.5564909198	-0.5228427386	-0.5964958233	-0.153049
C	 1.2251803306	-0.8066012228	 0.0687624657	-0.043962
H	 0.0920484255	 2.0870064894	-1.0338996511	 0.124777
H	-1.0836700739	 1.9268362801	 0.2706282029	 0.115821
H	 0.615981084	 2.0803838683	 0.6636040626	 0.13662
H	-2.0946134795	-0.2218327788	 0.1207771581	 0.087352
H	-1.1024902461	-1.63088253	 0.5523930117	 0.086694
H	-1.9678753655	-0.4008839344	 2.3943022062	 0.287545
H	-0.1741192077	-1.5133223472	-1.6884280341	 0.085948
H	 2.154019998	-0.8618903674	-2.7875733404	 0.099655
H	 3.5111832867	 0.9853466172	-1.7456819781	 0.119332
H	 2.0637965592	 1.6376246744	-0.8636302086	 0.126389
H	 1.2457037372	-1.557317143	 0.8490403801	 0.104399
91.3482	111.1846	200.4012	244.7921	255.4433	289.661	352.401	390.7572	426.5754	501.317	624.7604	670.8412	701.3118	743.2525	796.1064	844.3234	874.3814	927.966	967.3177	983.3969	997.3814	1012.5759	1053.5376	1063.6533	1073.8062	1077.0252	1102.247	1116.633	1135.1527	1178.4947	1223.388	1243.5883	1249.1869	1274.795	1307.6645	1348.8557	1409.5104	1415.4186	1456.3738	1492.481	1497.8322	1515.7615	1523.6262	2963.9066	2998.3353	3044.0744	3104.4841	3121.175	3129.069	3152.742	3172.5346	3187.5174	3273.6613	3829.577
CC1(CO)C2C3CN3C12	C[C@@]1(CO)[C@H]2[C@H]3CN3[C@@H]12	
InChI=1S/C7H11NO/c1-7(3-9)5-4-2-8(4)6(5)7/h4-6,9H,2-3H2,1H3	InChI=1S/C7H11NO/c1-7(3-9)5-4-2-8(4)6(5)7/h4-6,9H,2-3H2,1H3/t4-,5+,6-,7-,8?/m1/s1
