20
gdb 110442	3.57861	1.18261	1.07318	2.7988	77.86	-0.2445	0.0723	0.3168	1199.0439	0.171674	-403.07422	-403.066017	-403.065073	-403.106917	32.087	
C	-0.1353056109	 1.4331152057	-0.025930245	-0.41218
C	 0.0372067261	-0.0821082005	 0.0182845378	-0.002152
C	 0.9100157614	-0.6155984528	-1.1211098052	-0.036967
C	 2.1432625406	-0.499242371	-0.3108795034	-0.053812
C	 1.1923033521	-0.5527315661	 0.9511511292	-0.119441
C	 1.253289574	-2.0788249577	 0.748736547	 0.054002
C	 0.0873724589	-3.0342675895	 0.9434270055	-0.090031
O	 0.4348110718	-4.3223549033	 0.4608149111	-0.424046
N	 1.6583453468	-1.8553552653	-0.6877155076	-0.185179
H	 0.8282192792	 1.9397665696	-0.1485373859	 0.119449
H	-0.7791139102	 1.7328853743	-0.859803535	 0.117446
H	-0.5963710044	 1.7996332879	 0.8972568404	 0.117217
H	-0.9363603104	-0.5597236042	 0.1716080983	 0.069217
H	 0.7801322651	-0.4955152466	-2.1893436885	 0.096846
H	 3.1420194329	-0.1325826878	-0.506618289	 0.099997
H	 1.343332401	-0.0848161005	 1.9230507789	 0.071931
H	 2.1320978743	-2.5031847662	 1.2464853805	 0.088733
H	-0.1393020049	-3.1446971109	 2.0102607685	 0.105934
H	-0.8208405885	-2.6615103603	 0.4484416577	 0.088415
H	 0.8108673751	-4.1895661549	-0.4179598354	 0.294622
85.4562	150.9649	214.5388	245.2578	254.1584	278.3294	397.3657	410.5102	535.237	585.5042	712.5938	744.9759	785.5231	816.0412	840.886	876.7729	905.538	941.0517	985.5259	1001.2505	1029.6692	1037.313	1057.2079	1068.9518	1092.3546	1121.0762	1130.8242	1150.5019	1172.2138	1199.2518	1220.0953	1237.6078	1274.3329	1280.2924	1326.2177	1353.9968	1378.3489	1405.8787	1412.6401	1442.5445	1494.1124	1499.7518	1506.8113	2998.5533	3028.5715	3045.1412	3049.938	3067.1141	3095.6134	3100.6761	3125.1177	3193.1171	3208.5582	3784.1183
CC1C2C3C1C(CO)N23	C[C@H]1[C@H]2[C@H]3[C@@H]1[C@@H](CO)N23	
InChI=1S/C7H11NO/c1-3-5-4(2-9)8-6(3)7(5)8/h3-7,9H,2H2,1H3	InChI=1S/C7H11NO/c1-3-5-4(2-9)8-6(3)7(5)8/h3-7,9H,2H2,1H3/t3-,4-,5+,6+,7-,8?/m1/s1
