12
gdb 47959	6.6117	0.57768	0.54389	4.1355	73.05	-0.3001	-0.1042	0.1958	1850.2766	0.074054	-435.476754	-435.467418	-435.466474	-435.513192	29.816	
O	-0.3430878214	 0.349335564	 0.8510759399	-0.204375
C	 0.0117438751	 1.1102214239	-0.0150757481	 0.022991
C	 1.2221707578	 1.9013534032	 0.0652035688	 0.126377
C	 2.2239582563	 2.5774223352	 0.1175466833	 0.016108
C	 3.4247452772	 3.3874263344	 0.1943294343	 0.226061
O	 3.3970378881	 4.5505316695	 0.5063157135	-0.238587
C	 4.7112819013	 2.6241378479	-0.1501758842	-0.445858
C	 5.9032122648	 3.4614943232	-0.1092037671	 0.274429
N	 6.8616552085	 4.1038954919	-0.085947585	-0.282793
H	-0.5666723421	 1.262483922	-0.9467941547	 0.124445
H	 4.8147726304	 1.785750372	 0.5500738806	 0.193396
H	 4.6000242639	 2.1747579027	-1.1446326612	 0.187807
37.055	44.9397	81.3039	105.7997	159.2833	259.0267	265.0867	363.1864	371.5676	441.9611	563.7196	571.9947	683.1226	820.4618	928.6773	941.1992	999.7423	1015.4323	1148.1145	1214.7129	1335.3861	1415.3057	1430.924	1774.7471	1791.2418	2299.3352	2379.7855	2944.6915	3041.2992	3076.7857
O=CC#CC(=O)CC#N	O=CC#CC(=O)CC#N	
InChI=1S/C6H3NO2/c7-4-3-6(9)2-1-5-8/h5H,3H2	InChI=1S/C6H3NO2/c7-4-3-6(9)2-1-5-8/h5H,3H2
