16
gdb 84612	2.677	1.56297	1.24744	2.3749	76.52	-0.2351	-0.0086	0.2265	1027.4	0.124404	-400.688111	-400.68031	-400.679366	-400.720155	30.83	
O	 0.0627455963	 1.3937198809	-0.0904810819	-0.432763
C	 0.0829764424	-0.0176222913	-0.0400171577	 0.042048
C	 0.7000082215	-0.553437492	 1.2451778737	-0.123459
C	-0.1522466637	-1.2873835662	 1.9603284673	-0.051155
C	-1.4790839095	-1.3705768103	 1.2770328492	-0.130016
N	-2.1209114903	-0.037161918	 1.1138835299	-0.376867
C	-1.3385973199	-0.6305741796	-0.0112303924	 0.14366
C	-1.9987861518	-1.0135319619	-1.2178506532	 0.139862
C	-2.5434240934	-1.318453795	-2.2465596572	-0.364932
H	-0.5718975623	 1.6618413542	 0.5892643777	 0.289354
H	 0.6274447091	-0.3449761603	-0.9314687152	 0.101542
H	 1.7047486825	-0.2729507924	 1.538611947	 0.110901
H	 0.0424817863	-1.7396589153	 2.9253624416	 0.1102
H	-2.1153356806	-2.2443386517	 1.3605522597	 0.109624
H	-3.1108847815	-0.1628010639	 0.9058980151	 0.240997
H	-3.022386545	-1.5902428273	-3.1544152235	 0.191002
111.2241	149.7597	192.8358	274.6984	393.1022	417.276	479.7343	508.5535	539.2556	575.6592	593.0606	623.209	660.7221	707.2644	777.893	823.7378	882.8981	905.4176	927.1381	966.2063	991.0655	1040.4685	1054.4324	1083.1599	1125.9854	1172.2528	1240.3402	1259.5547	1288.948	1328.4451	1362.1489	1410.5113	1443.0977	1670.6851	2235.7629	3065.3113	3181.7771	3196.078	3219.7145	3480.9022	3502.6595	3743.9711
OC1C=CC2NC12C#C	O[C@H]1C=C[C@H]2N[C@@]12C#C	
InChI=1S/C7H7NO/c1-2-7-5(8-7)3-4-6(7)9/h1,3-6,8-9H	InChI=1S/C7H7NO/c1-2-7-5(8-7)3-4-6(7)9/h1,3-6,8-9H/t5-,6+,7-/m1/s1
