17
gdb 61211	4.47949	0.80305	0.76353	1.8658	71.59	-0.2591	-0.0465	0.2126	1472.7429	0.132029	-458.931376	-458.921554	-458.92061	-458.966571	35.306	
O	-0.0083349736	 1.4933464257	-0.0565986031	-0.42809
C	 0.0357407889	 0.0842685321	-0.0304661459	 0.118246
C	 0.6533143039	-0.5103139061	-1.3172727925	-0.385286
C	-0.0779085752	-0.1362409121	-2.5191031663	 0.305585
C	-0.6956103336	 0.1629277228	-3.5051769775	-0.431208
C	 0.8251307145	-0.3722885495	 1.2129118061	 0.012199
O	 2.1157595573	 0.1849477543	 1.170778079	-0.443376
C	 0.1197026972	 0.0720989945	 2.4811972225	 0.145532
O	 0.6901432176	 0.7251436974	 3.3199108496	-0.259002
H	 0.9036662653	 1.7872471406	 0.073633781	 0.287889
H	-1.0026151322	-0.2574410824	 0.0538700339	 0.101105
H	 1.6962769084	-0.1774084888	-1.3842713015	 0.147303
H	 0.682474529	-1.6042849754	-1.2262005636	 0.126898
H	-1.2347280974	 0.4349720143	-4.3783618925	 0.195714
H	 0.8667202433	-1.4765807753	 1.2341585266	 0.097537
H	 2.2433868744	 0.6039493264	 2.0386332123	 0.301121
H	-0.9352706877	-0.2450027484	 2.599362442	 0.107831
58.9788	84.8792	93.0601	154.662	231.6619	273.0232	286.7096	337.5835	346.5057	393.8253	445.3606	542.2614	561.4017	619.1297	640.2743	707.2773	746.9287	845.9285	868.567	932.0887	962.7611	1007.6137	1056.4224	1104.7322	1157.2345	1194.7952	1246.5919	1264.8923	1323.3068	1346.6873	1370.6417	1395.6136	1430.8246	1434.6284	1467.5528	1816.3358	2243.0911	2940.2038	2955.3359	3020.9426	3046.0231	3066.6011	3507.4078	3663.6977	3760.0562
OC(CC#C)C(O)C=O	O[C@@H](CC#C)[C@@H](O)C=O	
InChI=1S/C6H8O3/c1-2-3-5(8)6(9)4-7/h1,4-6,8-9H,3H2	InChI=1S/C6H8O3/c1-2-3-5(8)6(9)4-7/h1,4-6,8-9H,3H2/t5-,6-/m0/s1
