19
gdb 66172	3.86551	0.83707	0.79628	3.3001	72.97	-0.2577	0.0022	0.2599	1463.8406	0.157261	-460.161004	-460.151443	-460.150499	-460.196978	33.245	
C	-0.310656054	 1.529164953	-0.0565583196	-0.482899
C	-0.0236325871	 0.0344414074	-0.0321517449	 0.279322
C	-1.2774474528	-0.8054186353	-0.2500545196	-0.13382
O	-1.8145484503	-0.5574479941	-1.5561277894	-0.186067
C	-3.1157774669	-0.2288394121	-1.6690769344	 0.17433
O	-3.6412380418	-0.0220691544	-2.7201908493	-0.271521
C	 1.1726410599	-0.4791341845	-0.8746456656	-0.108368
O	 1.7274984937	-1.1715312736	 0.2639593964	-0.272778
C	 0.8033727655	-0.522097598	 1.1557537293	-0.12065
H	 0.6047098707	 2.1046713726	 0.1091526483	 0.125435
H	-0.7293511409	 1.8327250612	-1.0207400851	 0.142322
H	-1.0273794441	 1.8076523761	 0.7250737951	 0.116657
H	-1.0347830283	-1.8718385645	-0.1901708951	 0.130208
H	-2.0325820014	-0.5784999032	 0.5152182506	 0.108484
H	-3.6293827774	-0.1725837852	-0.6889008301	 0.07841
H	 0.9426058385	-1.155913425	-1.7040833068	 0.119093
H	 1.8379403807	 0.317698577	-1.2327613084	 0.10038
H	 1.2878386885	 0.2560797196	 1.7615466913	 0.0998
H	 0.3037848677	-1.2334605171	 1.8259710473	 0.101662
32.5651	67.1085	89.575	139.2484	204.118	235.8455	296.9896	309.229	373.2869	386.9291	465.2716	667.0942	690.8639	849.0974	890.8049	923.3485	944.3666	986.3701	1007.5323	1018.6319	1033.2024	1045.0949	1062.1235	1148.4919	1157.5652	1165.5098	1193.0568	1250.51	1296.4729	1309.3092	1331.7129	1389.0657	1396.4494	1416.5476	1436.0122	1489.5835	1500.6796	1502.0669	1514.9664	1538.8071	1868.3714	2943.2083	2998.1456	3010.6492	3014.7507	3031.6407	3044.8263	3072.9292	3077.6341	3097.7124	3114.2725
CC1(COC=O)COC1	CC1(COC=O)COC1	
InChI=1S/C6H10O3/c1-6(2-8-3-6)4-9-5-7/h5H,2-4H2,1H3	InChI=1S/C6H10O3/c1-6(2-8-3-6)4-9-5-7/h5H,2-4H2,1H3
