25
gdb 87986	2.42601	1.24546	1.18695	0.0787	92.81	-0.2509	0.0829	0.3339	1280.3618	0.227296	-352.347195	-352.336977	-352.336033	-352.381776	39.631	
C	-0.0565401224	 1.3385729755	-0.3205660432	-0.408381
C	 0.2776175817	-0.1215604689	-0.1073473968	-0.057107
C	 1.7046951154	-0.5642715292	 0.1292313817	-0.36144
C	 0.6952999952	-0.631166776	 1.2430907013	 0.350599
C	 0.7839669965	 0.1486440822	 2.5617241667	-0.307339
C	 0.6102456915	-1.1957474145	 3.3230342721	-0.258567
C	 0.2205316558	-1.9107403899	 1.9858713556	 0.265426
C	-1.2908326783	-2.1271964358	 1.8646083725	-0.432802
C	 0.9808898976	-3.1989449871	 1.6859638819	-0.449813
H	 0.5747904829	 1.982462847	 0.3002944681	 0.115068
H	 0.0964707029	 1.6333550408	-1.3648299149	 0.11458
H	-1.1003938579	 1.5532684069	-0.0639485589	 0.113515
H	-0.3255080498	-0.8089569029	-0.6980119934	 0.075781
H	 2.0411927354	-1.4890205929	-0.3292115783	 0.105175
H	 2.4709491486	 0.2043997031	 0.1905972449	 0.101529
H	 1.7143856939	 0.6918162123	 2.74798698	 0.095322
H	-0.0504302115	 0.8406271611	 2.7155554053	 0.098571
H	 1.5522253263	-1.5699272556	 3.7331607056	 0.095312
H	-0.1440720729	-1.216389868	 4.1142156471	 0.09087
H	-1.8459330054	-1.2098735045	 2.0870159615	 0.109966
H	-1.5669972845	-2.444481576	 0.8526093054	 0.108697
H	-1.6307272916	-2.9028112281	 2.5609668062	 0.106986
H	 0.6959554423	-3.990402498	 2.3891434103	 0.108868
H	 0.7657968877	-3.5665919468	 0.6751820868	 0.107581
H	 2.0624218806	-3.0513089046	 1.7657768424	 0.111602
55.424	134.6693	168.8027	187.9492	231.6805	246.6138	260.673	287.5605	340.1254	354.7213	413.2719	451.3498	492.0481	554.6567	645.874	751.1804	795.4939	864.2488	866.5762	897.4741	921.7541	940.1561	949.9556	974.6217	980.1691	994.6868	1027.0258	1045.6774	1083.1384	1124.8647	1143.2605	1173.9723	1186.7644	1196.133	1222.5981	1238.0848	1257.1034	1274.2082	1303.0522	1329.2925	1397.8412	1407.7989	1416.2678	1424.9182	1476.9596	1481.9405	1485.1183	1489.8791	1492.2451	1498.4577	1501.1883	1506.0405	1506.7626	3017.1045	3022.2123	3024.2908	3042.7259	3054.5518	3078.9758	3083.4506	3085.7472	3086.647	3093.2463	3094.2838	3098.0583	3109.3136	3112.2372	3119.7717	3196.3383
CC1CC11CCC1(C)C	C[C@H]1C[C@]21CCC2(C)C	
InChI=1S/C9H16/c1-7-6-9(7)5-4-8(9,2)3/h7H,4-6H2,1-3H3	InChI=1S/C9H16/c1-7-6-9(7)5-4-8(9,2)3/h7H,4-6H2,1-3H3/t7-,9-/m0/s1
