14
gdb 28970	2.97806	1.58218	1.03986	3.8079	77.92	-0.272	-0.0828	0.1892	1067.4815	0.102313	-395.79665	-395.788986	-395.788042	-395.829476	27.42	
C	-0.0385486663	 1.5117099836	-0.0275914271	-0.496783
C	-0.0112022339	 0.0105726997	-0.008864633	 0.288174
N	-0.0309812123	-0.6371663211	-1.1779408724	-0.283765
C	-0.0060299055	-1.9691412178	-1.1448093704	-0.006169
C	 0.0391121925	-2.6812375363	 0.0525918415	-0.028953
N	 0.0595298107	-2.0622684906	 1.2289572394	-0.293304
C	 0.0344225685	-0.7255850468	 1.1939306214	 0.173044
C	 0.0562539834	-0.034460068	 2.45502002	 0.252631
N	 0.071849918	 0.5642746474	 3.4449262816	-0.329984
H	 0.847277387	 1.9277755784	 0.4637146036	 0.156362
H	-0.0743149316	 1.8591764656	-1.0602852177	 0.149822
H	-0.9088840166	 1.8965294595	 0.5142210501	 0.156368
H	-0.0225164627	-2.4856015975	-2.1009870939	 0.131367
H	 0.0589880688	-3.7670834263	 0.0636716971	 0.131192
62.6434	115.1868	150.3114	222.0984	347.9551	403.4391	483.2775	486.9909	561.3341	610.5216	614.3456	719.4005	806.9187	885.1995	892.9425	995.5352	997.7341	1063.7418	1094.7282	1159.5149	1239.0202	1272.7368	1298.06	1405.9251	1420.2904	1459.9881	1480.3603	1493.019	1585.2718	1588.3249	2347.2715	3044.5066	3100.1027	3154.8781	3163.4688	3182.9656
CC1=NC=CN=C1C#N	Cc1nccnc1C#N	
InChI=1S/C6H5N3/c1-5-6(4-7)9-3-2-8-5/h2-3H,1H3	InChI=1S/C6H5N3/c1-5-6(4-7)9-3-2-8-5/h2-3H,1H3
