18
gdb 47140	3.3001	1.30685	1.01568	3.8552	81.18	-0.2298	-0.0489	0.1809	1180.6116	0.149377	-401.96467	-401.956686	-401.955742	-401.997701	30.005	
O	 0.015672405	 0.0245582241	 0.3047804747	-0.352268
C	 0.0041241329	 1.2340108206	 0.19552572	 0.321795
C	-1.2493115443	 2.1102431669	 0.1210875132	-0.318268
C	-0.7293318877	 3.5416576979	-0.1037504813	-0.267878
C	 0.7688468696	 3.388837056	-0.0906593507	-0.175792
C	 1.1921152002	 2.1257564737	 0.0909539936	 0.257997
C	 2.5893667448	 1.6557028363	 0.1535491671	-0.118952
C	 3.0068005471	 0.5959190911	 1.1214665808	-0.242862
N	 2.9679524967	 0.3026119122	-0.3113195884	-0.325746
H	-1.8981833944	 1.7500937437	-0.6820897361	 0.137897
H	-1.8142671233	 2.0030584528	 1.0522418317	 0.138217
H	-1.0719781734	 3.9658536045	-1.0556969515	 0.124753
H	-1.0624697739	 4.2404879732	 0.6731370367	 0.122591
H	 1.4288089306	 4.2413762356	-0.219676977	 0.11112
H	 3.325106841	 2.416460406	-0.0989299279	 0.088237
H	 3.9989936942	 0.6542377846	 1.5607804283	 0.117477
H	 2.2409971109	 0.1578876838	 1.7536294734	 0.12885
H	 2.1149497139	-0.223084413	-0.4947543565	 0.252832
77.1217	92.7217	176.591	196.7567	282.2394	376.9709	448.1825	462.7744	636.3746	645.5875	672.1182	770.5544	805.0899	827.5347	876.7265	895.472	936.8155	971.5721	990.5037	1023.7199	1028.4331	1057.9892	1119.7226	1145.7238	1153.2762	1191.9274	1219.0799	1230.1597	1272.0298	1292.1601	1319.2429	1324.9007	1362.8165	1411.1294	1449.7928	1483.976	1499.7845	1678.9589	1784.2681	3029.2825	3052.7364	3066.02	3106.5197	3114.1185	3124.2724	3181.4068	3207.7506	3495.8567
O=C1CCC=C1C1CN1	O=C1CCC=C1[C@H]1CN1	
InChI=1S/C7H9NO/c9-7-3-1-2-5(7)6-4-8-6/h2,6,8H,1,3-4H2	InChI=1S/C7H9NO/c9-7-3-1-2-5(7)6-4-8-6/h2,6,8H,1,3-4H2/t6-/m1/s1
