17
gdb 71179	2.64734	1.65854	1.3439	5.5688	75.85	-0.2309	0.0257	0.2566	997.2471	0.136907	-380.816913	-380.809368	-380.808424	-380.848746	29.628	
C	-0.0356984762	 1.5393291288	 0.0371774127	-0.522932
C	 0.0791715393	 0.0462437044	 0.0962306497	 0.30009
N	-1.1897180004	-0.7652494077	 0.1402844946	-0.340909
C	-0.3852292062	-1.7881725647	 0.8415752729	-0.011787
C	 0.9442666097	-1.868308809	 0.0924378442	-0.084876
C	 0.7380758341	-0.8701197108	 1.2208246624	-0.181512
C	 0.9093220296	-0.7607127117	-0.9618355203	-0.165841
C	 0.3254162686	-0.9957325165	-2.2778944784	 0.284761
N	-0.1042196816	-1.1702512357	-3.3367116307	-0.337221
H	 0.9517767229	 2.0091006008	-0.0015641702	 0.130018
H	-0.5952431705	 1.8365657512	-0.856370724	 0.152097
H	-0.560849478	 1.9290553815	 0.9157003713	 0.126156
H	-1.797406961	-0.329066801	 0.8340857988	 0.216788
H	-0.8137482595	-2.6398596135	 1.3525856661	 0.106787
H	 1.5572738651	-2.7591549195	 0.0885472209	 0.107445
H	 1.3062758537	-0.6795504984	 2.1211542534	 0.101629
H	 1.9029407704	-0.3185195181	-1.0778006733	 0.119309
122.9373	145.5894	215.3345	274.544	303.2905	397.2789	460.1819	541.5802	583.2055	654.0292	754.7043	765.4448	773.265	813.2384	833.9558	899.4139	933.5629	955.2719	982.7698	1010.2038	1025.8243	1036.3222	1052.949	1095.1347	1124.2658	1152.0955	1181.1562	1184.1236	1267.0482	1295.574	1331.8612	1378.9826	1391.8665	1419.7333	1485.2313	1490.6862	2355.5587	3033.1979	3077.1504	3102.0401	3110.9568	3200.1114	3208.1837	3221.0818	3454.49
CC12NC3C(C13)C2C#N	C[C@]12N[C@H]3[C@H]([C@@H]13)[C@H]2C#N	
InChI=1S/C7H8N2/c1-7-3(2-8)4-5(7)6(4)9-7/h3-6,9H,1H3	InChI=1S/C7H8N2/c1-7-3(2-8)4-5(7)6(4)9-7/h3-6,9H,1H3/t3-,4+,5-,6+,7-/m1/s1
