19
gdb 97623	3.07685	0.67837	0.58709	1.6446	87.41	-0.2476	0.0335	0.2811	1925.1926	0.15611	-385.826339	-385.815509	-385.814564	-385.864313	37.863	
C	-0.4835894787	 1.4194569082	 0.0956279988	-0.364915
C	 0.338713434	 0.1412677349	-0.1510093962	-0.316144
C	 0.9881070395	-0.3622175185	 1.0550085824	 0.103905
C	 1.5206147869	-0.7451178264	 2.0646632869	 0.051504
C	 2.1412652601	-1.2684439195	 3.282320998	-0.355268
C	 1.8088299924	-2.7806831615	 3.473122427	-0.056139
O	 2.3479631163	-3.2904804359	 4.667549815	-0.414466
C	 3.5972493427	-1.0871603924	 3.2959380554	 0.31528
C	 4.7963412429	-1.0097150967	 3.3383168043	-0.458787
H	 0.1529401848	 2.2227997384	 0.4759378204	 0.130341
H	-0.9490184431	 1.7582434983	-0.834649581	 0.11566
H	-1.272806036	 1.2379680254	 0.8301413156	 0.128475
H	-0.3114333987	-0.6395265322	-0.5660010845	 0.130365
H	 1.1006277205	 0.3362795725	-0.9164174415	 0.132555
H	 1.7262897304	-0.7467458889	 4.1562488877	 0.139885
H	 0.7233869341	-2.8903809139	 3.5386858377	 0.12153
H	 2.1581481961	-3.3275936486	 2.5859608667	 0.105272
H	 3.3041869015	-3.1668112954	 4.6247885992	 0.28777
H	 5.8530365844	-0.9039774879	 3.3604026583	 0.203176
13.0217	78.2379	79.6014	125.1462	152.6914	201.4746	207.4212	293.8835	328.2525	373.6915	421.9326	464.423	508.9801	541.4987	560.0898	631.1768	661.8734	785.3158	788.8638	835.3413	969.5045	1030.6791	1034.5601	1080.0587	1089.7838	1105.0516	1167.6699	1201.4334	1270.4284	1286.222	1329.5274	1350.9753	1380.1613	1408.7386	1421.1454	1474.5977	1494.713	1504.5586	1505.5247	2232.2688	2369.7081	3002.1249	3015.7289	3021.9914	3045.2885	3049.6143	3103.1959	3118.9034	3125.1843	3501.5062	3780.5497
CCC#CC(CO)C#C	CCC#C[C@@H](CO)C#C	
InChI=1S/C8H10O/c1-3-5-6-8(4-2)7-9/h2,8-9H,3,7H2,1H3	InChI=1S/C8H10O/c1-3-5-6-8(4-2)7-9/h2,8-9H,3,7H2,1H3/t8-/m0/s1
