20
gdb 11792	3.99195	1.70705	1.56918	1.0691	74.29	-0.2409	0.0871	0.3281	917.7532	0.178923	-348.989704	-348.982358	-348.981413	-349.021123	29.162	
C	-0.1234759733	 1.3531206652	 0.0176677774	-0.261293
O	 0.1220441323	-0.036775112	-0.0329083792	-0.298031
C	 0.7185989976	-0.5677701565	 1.1043245253	 0.462234
C	 0.0120167025	-0.6122441636	 2.5030254303	-0.286561
C	 1.0082447817	-1.7871087261	 2.716455644	-0.021071
C	 0.8122461234	-2.1088818638	 1.2074010858	-0.276622
C	 2.3710107171	-1.061410488	 2.7132707125	-0.20834
C	 2.154308856	-0.124423539	 1.4822162298	-0.272416
H	 0.8052516951	 1.9399356543	 0.0536090772	 0.109504
H	-0.6656214697	 1.6142454346	-0.8942037095	 0.125932
H	-0.7407830351	 1.6262695707	 0.8860088383	 0.108851
H	 0.0909630884	 0.2553520614	 3.1651427768	 0.083622
H	-1.0253424797	-0.9444403495	 2.4231534123	 0.098701
H	 0.8411375983	-2.5395910974	 3.4856398299	 0.062469
H	-0.146012783	-2.5865160729	 0.9936863325	 0.100212
H	 1.6221261382	-2.6123537885	 0.6712717542	 0.087797
H	 2.547451042	-0.5058995679	 3.6390267809	 0.094586
H	 3.2070570275	-1.7524017214	 2.5717517963	 0.096998
H	 2.8584129493	-0.3119886745	 0.6666487858	 0.099647
H	 2.2138310117	 0.9349490549	 1.7459067893	 0.093782
85.5564	188.153	214.1965	291.2417	369.6698	408.2565	469.9613	521.7847	582.5826	667.5752	820.0685	830.043	836.1506	886.7566	914.6994	942.0927	966.9219	982.414	1000.9747	1015.8884	1071.2826	1085.9048	1114.9853	1137.0125	1176.7071	1181.5791	1198.0047	1208.7835	1234.6071	1243.6681	1255.4884	1276.822	1278.4327	1323.9489	1339.9585	1481.7822	1485.3689	1491.9181	1493.6339	1501.0543	1508.6787	1535.2076	2988.1793	3037.2748	3048.58	3050.1202	3055.6091	3061.6675	3086.4888	3106.1829	3115.4411	3118.6639	3122.5676	3127.5387
COC12CC(C1)CC2	CO[C@@]12C[C@@H](C1)CC2	
InChI=1S/C7H12O/c1-8-7-3-2-6(4-7)5-7/h6H,2-5H2,1H3	InChI=1S/C7H12O/c1-8-7-3-2-6(4-7)5-7/h6H,2-5H2,1H3/t6-,7-
