18
gdb 56792	3.03285	1.0444	0.96058	4.1004	78.7	-0.2425	-0.0061	0.2364	1295.3047	0.147434	-401.966089	-401.957054	-401.956109	-402.000827	31.951	
C	-0.0062681858	 1.5521323569	-0.0228472605	-0.392796
C	-0.0209802123	 0.0046910658	 0.0234120545	-0.253451
C	 0.7386887654	-0.4727190634	 1.1898965028	 0.272131
N	 1.3287109169	-0.8375932138	 2.114241001	-0.325753
C	-1.4191951667	-0.5639076459	 0.030606902	 0.332093
C	-2.0047233205	-1.276869092	-0.9260744033	-0.229318
C	-3.4089899181	-1.6216570736	-0.524398806	-0.100125
O	-3.5859326863	-1.0300864508	 0.7599692186	-0.263486
C	-2.3912906496	-0.3767882479	 1.1717420325	-0.156537
H	 1.0202047434	 1.9238208644	-0.067318095	 0.141097
H	-0.5461679554	 1.8926903236	-0.9096679853	 0.133982
H	-0.4852865677	 1.9768939934	 0.8623642368	 0.14439
H	 0.4944457751	-0.3715296452	-0.867851715	 0.13371
H	-1.5604659258	-1.5870588401	-1.8640094785	 0.108153
H	-4.1587209164	-1.2233712036	-1.2261792104	 0.109636
H	-3.5691192487	-2.709992507	-0.4645685902	 0.112518
H	-2.0158522073	-0.820750672	 2.106809917	 0.126535
H	-2.6020449602	 0.6840870613	 1.3793344389	 0.10722
47.0579	91.1615	112.7658	176.429	200.7371	222.1267	298.8386	355.9522	449.9652	518.758	578.6115	673.2087	772.2565	831.8081	844.8384	906.5502	925.4318	969.7613	992.6523	1026.7201	1060.1521	1080.6948	1094.6315	1122.7453	1177.1375	1211.5574	1228.279	1272.3007	1314.0817	1336.7568	1372.4234	1399.2311	1408.5358	1491.4163	1497.5506	1516.9564	1528.9547	1728.509	2356.3212	2972.1801	2979.4008	2990.4309	2997.5968	3047.0499	3053.8544	3134.3002	3136.2718	3211.0646
CC(C#N)C1=CCOC1	C[C@@H](C#N)C1=CCOC1	
InChI=1S/C7H9NO/c1-6(4-8)7-2-3-9-5-7/h2,6H,3,5H2,1H3	InChI=1S/C7H9NO/c1-6(4-8)7-2-3-9-5-7/h2,6H,3,5H2,1H3/t6-/m0/s1
