17
gdb 74297	2.90108	1.20168	1.14294	4.2795	74.2	-0.2696	-0.0006	0.269	1167.6959	0.13526	-418.049975	-418.040984	-418.04004	-418.08422	32.225	
C	 0.0145550101	 1.4825179766	-0.0262020616	-0.476401
C	-0.0442141696	-0.0049563097	-0.0531910643	 0.412356
N	-1.0585537823	-0.7219006244	 0.2262902524	-0.317368
C	-0.6493404852	-2.1314423157	 0.0506425338	 0.104791
C	-1.5438999875	-2.8239143619	-0.989708783	-0.419474
C	 0.8500591635	-2.0318220849	-0.3971343734	-0.149173
O	 1.1129986162	-0.6192965009	-0.4166619344	-0.245516
C	-0.7615493917	-2.83383989	 1.3425048223	 0.277859
N	-0.8276802503	-3.4060940241	 2.3440734302	-0.340711
H	 0.7821981493	 1.8125549104	 0.6804140312	 0.155624
H	 0.2910815847	 1.8674885277	-1.0123810775	 0.150992
H	-0.953817074	 1.883432923	 0.2695006444	 0.160196
H	-1.4576491335	-2.2974245011	-1.9440908882	 0.128329
H	-1.2451439297	-3.8670195155	-1.1278204193	 0.133701
H	-2.5864765959	-2.7940811552	-0.667445608	 0.152809
H	 1.5435307353	-2.5103147125	 0.2966539806	 0.144796
H	 1.0038286606	-2.4323772618	-1.4029284952	 0.12719
41.2281	136.3543	144.9351	181.664	214.1083	243.1993	305.91	371.827	405.359	503.1743	565.136	595.242	653.5135	678.7428	818.386	903.019	909.0149	949.0207	980.2332	1029.6316	1058.5871	1067.6819	1150.5367	1154.8369	1196.5868	1254.029	1289.6555	1380.5159	1405.716	1416.9187	1473.2776	1474.396	1482.6457	1491.3991	1518.6262	1728.0116	2357.8373	3047.2666	3054.9086	3063.1656	3114.1312	3122.0467	3125.1057	3142.6254	3171.8526
CC1=NC(C)(CO1)C#N	CC1=N[C@@](C)(CO1)C#N	
InChI=1S/C6H8N2O/c1-5-8-6(2,3-7)4-9-5/h4H2,1-2H3	InChI=1S/C6H8N2O/c1-5-8-6(2,3-7)4-9-5/h4H2,1-2H3/t6-/m1/s1
