17
gdb 97262	1.98955	1.24806	1.03698	2.5875	84.86	-0.2341	0.0207	0.2548	1271.3898	0.131768	-380.796691	-380.786385	-380.785441	-380.831534	38.126	
C	-0.0635628715	 1.6766721487	-0.3261192161	-0.384939
C	-0.2700353085	 0.2100488066	 0.1337986501	-0.095703
N	 0.0773623055	 0.1545218094	 1.5628815773	-0.260516
C	 0.8537848205	-0.7590638442	 1.9896902932	 0.108993
N	 1.1328291821	-0.9022798437	 3.3221300515	-0.506305
C	-1.695644731	-0.1448022259	-0.0080701188	 0.403264
C	-2.8612270825	-0.4106452212	-0.1231115931	-0.505503
C	 0.5247060036	-0.6800916527	-0.7376078071	 0.34443
C	 1.2044410115	-1.3887994351	-1.431615094	-0.501804
H	 0.9941648	 1.9357121699	-0.236284793	 0.120417
H	-0.3812640606	 1.8034703172	-1.3632305937	 0.126572
H	-0.6495664686	 2.3317006371	 0.3213038854	 0.133485
H	 1.3260948608	-1.514652233	 1.3532008605	 0.108638
H	 0.8601030923	-0.1353762227	 3.9187948963	 0.25836
H	 1.9844820378	-1.3743172441	 3.5760675588	 0.256217
H	-3.8894171717	-0.6574767436	-0.2200312545	 0.195683
H	 1.7844701403	-2.0154356925	-2.0634394026	 0.198712
63.4863	130.1984	143.5508	166.1043	206.0181	225.9352	248.682	309.2542	396.0995	406.6307	462.3847	475.1086	506.8349	558.7455	586.7645	624.764	629.4728	633.7638	642.464	652.8555	738.112	908.5759	938.4039	1021.0698	1061.7508	1134.0091	1168.9566	1197.3994	1302.437	1392.8914	1406.0197	1480.8835	1483.6606	1627.6174	1746.5153	2222.9848	2237.8319	3052.6717	3072.4673	3137.1506	3146.3691	3498.9825	3502.902	3582.7609	3708.081
CC(N=CN)(C#C)C#C	CC(N=CN)(C#C)C#C	
InChI=1S/C7H8N2/c1-4-7(3,5-2)9-6-8/h1-2,6H,3H3,(H2,8,9)	InChI=1S/C7H8N2/c1-4-7(3,5-2)9-6-8/h1-2,6H,3H3,(H2,8,9)
