14
gdb 48667	3.81816	1.23116	1.08474	1.6623	70.17	-0.2538	-0.0766	0.1773	1074.8175	0.100798	-436.687877	-436.68058	-436.679636	-436.719888	27.321	
O	-0.1894587208	 0.046228223	 0.2345484846	-0.253041
C	-0.0317221901	 1.2048908855	-0.0579579346	 0.081194
C	 1.2811051298	 1.8816088571	-0.0928388408	 0.199499
N	 1.3509794823	 3.3409660008	 0.2377911609	-0.343463
C	 1.606521991	 2.9021342303	-1.1380688728	-0.230388
C	 3.099241854	 2.7195510726	-1.4322981585	 0.439388
O	 3.7216884699	 3.305045828	-2.281760444	-0.314821
C	 3.5791683758	 1.6622688781	-0.499292014	-0.209408
C	 2.5619672428	 1.1718542544	 0.2198654154	-0.090809
H	-0.8885625845	 1.8683918899	-0.3220188845	 0.071424
H	 0.4037353802	 3.7240398207	 0.2905409322	 0.244784
H	 0.9288076562	 3.1793388484	-1.9379228873	 0.126406
H	 4.6195390339	 1.3708568168	-0.444468206	 0.132695
H	 2.6082142895	 0.3840829445	 0.9605365794	 0.146541
87.6571	170.9465	198.0491	268.6958	367.9258	402.1556	473.255	485.8145	620.6999	694.7993	740.4952	784.0845	829.9859	836.6205	867.6135	930.2121	977.2959	995.575	1032.6384	1083.2823	1106.6948	1126.4993	1177.8672	1269.4789	1316.6208	1356.3573	1397.6552	1430.2225	1638.2271	1812.7692	1831.313	2857.96	3185.3147	3219.7982	3240.9397	3429.7078
O=CC12NC1C(=O)C=C2	O=C[C@]12N[C@H]1C(=O)C=C2	
InChI=1S/C6H5NO2/c8-3-6-2-1-4(9)5(6)7-6/h1-3,5,7H	InChI=1S/C6H5NO2/c8-3-6-2-1-4(9)5(6)7-6/h1-3,5,7H/t5-,6-/m0/s1
