16
gdb 104570	3.12606	1.16957	1.00733	0.9698	67.43	-0.2665	-0.0609	0.2056	1178.9018	0.122485	-475.023038	-475.014392	-475.013447	-475.056774	31.451	
O	 0.6277941626	 0.4053855867	-1.1658666526	-0.418374
C	 0.1694919067	 0.3756447972	 0.1669589107	-0.132885
C	-1.1854538767	-0.324456271	 0.2557008644	 0.283232
C	-1.1926582874	-1.847213461	-0.0510904137	-0.403888
C	-1.5651587056	-1.9783101008	 1.4097987259	 0.429159
N	-1.798389245	-2.9326916796	 2.1817201629	-0.529879
O	-1.5793273601	-0.6076451284	 1.6394062788	-0.288697
C	-2.2905765094	 0.4432356589	-0.4413385359	 0.123756
O	-2.0988962897	 1.2490606767	-1.3194450028	-0.254978
H	-0.0021253415	 0.952150531	-1.6541207663	 0.301398
H	 0.8988772911	-0.1894186859	 0.7555294951	 0.122341
H	 0.0888035494	 1.3801036945	 0.6080175077	 0.109874
H	-1.9571451924	-2.2020633853	-0.7455186275	 0.147124
H	-0.2226918196	-2.2511925408	-0.3420994473	 0.164661
H	-2.030994307	-2.613479797	 3.1233500996	 0.236166
H	-3.3134779554	 0.2009216249	-0.082232089	 0.11099
79.8377	92.8918	127.6757	204.7653	276.2393	292.5478	378.0575	401.7486	463.7581	496.8544	502.3194	558.1328	774.1457	780.718	866.02	897.6209	928.9545	957.403	971.1399	995.9412	1051.365	1075.1725	1092.294	1137.8892	1209.3433	1248.632	1266.5424	1303.9874	1375.6374	1411.047	1439.6025	1460.7778	1504.6686	1812.8841	1839.0495	2917.6398	3001.9469	3085.2324	3087.7451	3147.6972	3484.3489	3764.4225
OCC1(CC(=N)O1)C=O	OC[C@]1(C[C]([NH])O1)C=O	
InChI=1S/C5H7NO3/c6-4-1-5(2-7,3-8)9-4/h2,6,8H,1,3H2	InChI=1S/C5H7NO3/c6-4-1-5(2-7,3-8)9-4/h2,6,8H,1,3H2/t5-/m0/s1
