20
gdb 7276	3.78733	1.12983	0.93526	1.5315	77.14	-0.254	0.0579	0.312	1268.5124	0.173638	-348.978599	-348.96862	-348.967676	-349.013129	36.671	
C	 0.0862780995	 1.5490809398	 0.048081696	-0.419464
C	-0.0143939414	 0.0230016801	 0.0444492997	 0.136776
O	 0.6613333494	-0.5202225664	 1.1801098746	-0.431072
C	-1.4620657677	-0.5040370851	-0.0460211094	 0.019557
C	-2.2070450985	 0.0151171542	-1.2819187135	-0.408033
C	-1.4537112137	-2.0535373708	-0.0107116088	-0.36214
C	-2.7789116968	-2.6378068779	 0.1473620801	 0.300939
C	-3.8818649255	-3.0968174415	 0.2863338155	-0.449006
H	 1.1266770753	 1.8453386588	 0.2059989646	 0.126237
H	-0.2565079333	 1.9863592711	-0.8930888945	 0.124079
H	-0.5189271256	 1.978335125	 0.8571945139	 0.107349
H	 0.5487136766	-0.3684408777	-0.8137468995	 0.087328
H	 0.2605485633	-0.1354987292	 1.9680596999	 0.276748
H	-1.9938700763	-0.1572861421	 0.8526858467	 0.071738
H	-3.1886732998	-0.4600809184	-1.3593386496	 0.134094
H	-2.3603835546	 1.09651512	-1.2441510999	 0.11596
H	-1.650919615	-0.2152801693	-2.19897809	 0.112787
H	-0.9962040251	-2.4288708881	-0.9370248823	 0.121938
H	-0.8017899005	-2.3788598171	 0.8059727005	 0.143313
H	-4.8485575805	-3.5181201153	 0.4088196659	 0.190871
67.4815	78.8599	136.8297	208.8097	220.6285	265.8254	300.1198	337.1499	345.9552	360.0469	373.2936	461.8148	491.54	555.2233	609.5873	633.8455	818.7591	869.9772	892.7427	933.7092	972.316	981.5358	1072.7211	1076.4995	1105.1049	1144.4492	1168.1267	1230.3076	1256.9056	1313.0829	1342.7743	1356.7908	1382.5927	1401.4417	1410.6232	1417.5733	1476.7147	1491.8631	1493.0555	1498.8013	1510.4145	2234.5659	2993.3563	3013.3793	3020.8362	3028.593	3032.6734	3079.6441	3100.5841	3102.0109	3119.2724	3127.4562	3507.056	3792.8743
CC(O)C(C)CC#C	C[C@@H](O)[C@@H](C)CC#C	
InChI=1S/C7H12O/c1-4-5-6(2)7(3)8/h1,6-8H,5H2,2-3H3	InChI=1S/C7H12O/c1-4-5-6(2)7(3)8/h1,6-8H,5H2,2-3H3/t6-,7+/m0/s1
