17
gdb 91636	3.08306	1.75461	1.55671	2.3685	65.26	-0.2561	0.0743	0.3304	904.7459	0.137493	-458.935969	-458.929292	-458.928347	-458.9668	27.264	
C	-0.1985065493	 1.5514208102	-0.0547144304	-0.415513
C	 0.0403991323	 0.0524851391	 0.0202518489	 0.14146
O	 0.8694528576	-0.3984121554	-1.0822568349	-0.29792
C	 1.8799667082	-1.2016463221	-0.4638419028	 0.142149
O	 1.2615564342	-1.7549169583	 0.6731963722	-0.226836
C	 0.8351812339	-0.5070920157	 1.2364015583	-0.042657
C	 2.1542313318	 0.2789217055	 1.3154305684	 0.036975
O	 3.3113033095	-0.5442171155	 1.4574409817	-0.237584
C	 2.8840290818	-0.2003061117	 0.1392763418	 0.005769
H	 0.7383358306	 2.1131602022	-0.033448487	 0.124456
H	-0.7167309149	 1.7992008094	-0.9849486384	 0.135903
H	-0.8278101283	 1.8805779819	 0.7793046367	 0.119058
H	-0.9167777631	-0.4806720356	-0.0378484554	 0.091711
H	 2.2295386096	-1.9733348938	-1.1473636898	 0.099916
H	 0.270511454	-0.6719307907	 2.1521018779	 0.09806
H	 2.2132674159	 1.2862237004	 1.7103953881	 0.112998
H	 3.5448623661	 0.4005468102	-0.4749202651	 0.112052
158.4672	223.7479	268.5158	365.3252	391.8373	475.2147	528.2147	607.522	676.0878	794.5246	822.5724	841.9159	861.556	884.9641	890.0292	927.4994	937.0341	963.9605	989.5983	1032.7155	1067.1368	1085.6415	1103.0121	1110.2464	1146.0321	1233.6883	1248.6792	1260.2329	1285.0862	1310.7792	1327.9709	1353.5959	1385.8383	1411.1055	1414.826	1485.9339	1503.5342	3025.5443	3043.3959	3112.3828	3129.1062	3143.4072	3147.1726	3182.1147	3194.5465
CC1OC2OC1C1OC21	C[C@H]1O[C@@H]2O[C@H]1[C@H]1O[C@@H]21	
InChI=1S/C6H8O3/c1-2-3-4-5(8-4)6(7-2)9-3/h2-6H,1H3	InChI=1S/C6H8O3/c1-2-3-4-5(8-4)6(7-2)9-3/h2-6H,1H3/t2-,3-,4-,5-,6-/m1/s1
