23
gdb 76682	3.23406	0.91527	0.85792	1.9576	87.72	-0.2102	0.0834	0.2936	1497.6306	0.204739	-384.400891	-384.390836	-384.389892	-384.436268	36.969	
C	 0.0775648486	 1.5608937368	 0.7887469331	-0.415618
C	-0.0010191419	 0.1574509063	 0.2230380012	-0.009448
C	 0.2948006366	-0.1851049885	-1.2059211233	 0.000402
C	 0.7113026603	 0.8434299518	-2.2347186276	-0.183111
N	 1.5982337814	 0.2406058177	-3.2298878511	-0.055815
C	 0.9499580406	-0.4262153486	-4.354528808	-0.216369
C	 1.6331106622	 0.8842444521	-4.5373357447	-0.220921
N	 1.1686934753	-0.6494969286	-0.1290647329	-0.098051
C	 2.5182462879	-0.1209997811	 0.0079307494	-0.309766
H	 0.8075029337	 2.1980174674	 0.2872341207	 0.12087
H	-0.8994744759	 2.0494600447	 0.7073121051	 0.12129
H	 0.3401972779	 1.5292368248	 1.852093322	 0.123267
H	-0.7776837103	-0.4358834958	 0.7077973828	 0.083789
H	-0.2837154002	-0.9952923074	-1.6531382431	 0.081319
H	-0.2013760671	 1.2626885173	-2.7002652777	 0.080331
H	 1.2484075273	 1.6814988839	-1.7836223863	 0.10097
H	 1.4150716872	-1.3471755701	-4.6935809139	 0.118888
H	-0.138808972	-0.425198001	-4.3920062552	 0.10789
H	 0.9984460049	 1.7555915977	-4.6948117217	 0.106675
H	 2.6082463612	 0.9401112584	-5.0126436915	 0.116598
H	 2.6264509591	 0.9650832277	-0.1218260987	 0.094869
H	 2.8922263532	-0.3754268303	 1.005292611	 0.114902
H	 3.15573527	-0.6064814252	-0.7356528196	 0.137039
62.9541	91.5154	110.9892	148.5171	161.4295	217.532	260.2068	277.1642	372.8709	399.7451	464.3236	527.4501	551.3507	735.0739	766.2984	775.1175	836.4081	852.3445	907.8063	982.3721	1014.7228	1027.1996	1036.7935	1056.332	1097.2979	1112.1793	1117.9632	1138.602	1151.195	1166.939	1172.9022	1179.0804	1191.8797	1207.4146	1282.4008	1319.2557	1354.7553	1356.5949	1401.1956	1414.0103	1440.2283	1461.5273	1481.7207	1484.5115	1492.207	1500.3537	1506.8262	1511.8751	1524.0777	2917.7721	2997.6369	3037.2015	3066.833	3074.6066	3086.1481	3090.3779	3090.9335	3094.1834	3095.9116	3113.5231	3135.5851	3175.6552	3189.9643
CC1C(CN2CC2)N1C	C[C@H]1[C@@H](CN2CC2)N1C	
InChI=1S/C7H14N2/c1-6-7(8(6)2)5-9-3-4-9/h6-7H,3-5H2,1-2H3	InChI=1S/C7H14N2/c1-6-7(8(6)2)5-9-3-4-9/h6-7H,3-5H2,1-2H3/t6-,7+,8?/m0/s1
