18
gdb 63901	2.52041	1.68281	1.34832	2.8899	71.33	-0.2414	-0.0163	0.2251	1013.8563	0.147249	-439.092044	-439.08368	-439.082736	-439.124892	32.163	
C	-0.377646074	 1.5937668537	-0.0156559637	-0.441969
C	 0.0482806602	 0.1344787121	-0.0346435324	 0.311176
O	-1.0851627417	-0.7430927938	-0.0282046641	-0.468639
C	 0.9197443155	-0.3095660894	-1.2204566638	-0.288124
C	 1.8554245016	-1.3644669463	-0.621169347	-0.022345
C	 3.0237719679	-0.9149705302	 0.1762905736	-0.247588
N	 1.7715167926	-1.3292765609	 0.8494372461	-0.117796
C	 0.9079556556	-0.2543830365	 1.1996586257	 0.327378
O	 0.8146973755	 0.2247866318	 2.2980367117	-0.328162
H	 0.4850937311	 2.2619265917	-0.098986248	 0.118162
H	-1.0627237223	 1.7960805941	-0.8436014168	 0.124183
H	-0.8801627446	 1.8225100896	 0.9293141102	 0.132135
H	-1.5666265134	-0.5908257908	 0.7940240091	 0.289744
H	 0.287644112	-0.7290865343	-2.0049362721	 0.130309
H	 1.4749219904	 0.5327847429	-1.6429533758	 0.111187
H	 1.8648514443	-2.3578883704	-1.0576125866	 0.1081
H	 3.8672382042	-1.5757758895	 0.3516066453	 0.134144
H	 3.269329845	 0.1449622663	 0.1785987685	 0.128105
58.3576	187.2847	219.3261	235.8754	291.9538	320.487	359.6322	381.5815	415.0582	519.202	587.7958	683.8748	696.5818	791.2075	809.0653	862.4631	880.3828	908.94	945.9173	971.5706	1014.6957	1068.8878	1092.8463	1120.4696	1139.1593	1150.5841	1167.5308	1197.1153	1248.0148	1294.0827	1323.3059	1366.2448	1389.0769	1407.6914	1478.2761	1483.6166	1491.5275	1512.6627	1843.8844	3039.1724	3065.3978	3106.6509	3110.616	3121.7447	3124.0011	3163.9851	3197.7143	3789.5176
CC1(O)CC2CN2C1=O	C[C@@]1(O)C[C@H]2CN2C1=O	
InChI=1S/C6H9NO2/c1-6(9)2-4-3-7(4)5(6)8/h4,9H,2-3H2,1H3	InChI=1S/C6H9NO2/c1-6(9)2-4-3-7(4)5(6)8/h4,9H,2-3H2,1H3/t4-,6+,7?/m0/s1
