18
gdb 79591	2.66862	1.65302	1.23723	2.7071	76.73	-0.2389	-0.0331	0.2058	1038.7707	0.146834	-401.894781	-401.886679	-401.885735	-401.927331	30.947	
C	 0.8663499345	 2.2496931699	-1.8945002802	-0.434296
C	 0.4381220113	 0.8174692692	-1.6743569174	 0.020872
C	 1.1838900221	-0.3908853901	-2.0947469017	-0.066274
C	 2.6779360557	-0.2610398499	-1.9585028224	-0.13204
C	 3.1522793784	-1.1275710401	-0.8361569492	-0.31418
C	 2.4083053678	 0.1406979432	-0.4912097837	 0.257318
C	 3.0189139721	 1.2100879242	 0.3191056254	 0.070323
O	 4.2054443464	 1.440782576	 0.3580396521	-0.276353
N	 0.9504766356	-0.0768589357	-0.6020811804	-0.198861
H	 1.9499504803	 2.3740965015	-1.9244038564	 0.138839
H	 0.4644123105	 2.6059909683	-2.8488883301	 0.128773
H	 0.4662222396	 2.8961672138	-1.1061782644	 0.130612
H	-0.6413420779	 0.6862621623	-1.7366384401	 0.101005
H	 0.6878652367	-1.2373054482	-2.5612082086	 0.105254
H	 3.3588602599	 0.2014315827	-2.663485003	 0.115106
H	 2.660112124	-2.0724135143	-0.6249532892	 0.127252
H	 4.2159461106	-1.0844936373	-0.6274224562	 0.144407
H	 2.2890701824	 1.8048955944	 0.9115578257	 0.082243
95.8137	161.9944	177.7199	216.6682	243.9096	314.8267	386.4934	472.9394	515.7759	630.5499	704.4191	708.8862	771.2808	801.9516	826.419	911.5351	923.2852	967.5092	991.5698	1009.7067	1042.9446	1065.172	1080.5954	1086.4448	1101.4133	1122.9199	1161.7536	1194.3111	1258.6178	1271.4607	1347.415	1366.3832	1411.6051	1423.6357	1440.2692	1472.7682	1497.8882	1500.0026	1799.223	2889.2335	3041.1887	3098.4079	3119.607	3124.2217	3141.1166	3155.5107	3180.1237	3225.374
CC1C2C3CC3(C=O)N12	C[C@H]1[C@H]2[C@@H]3C[C@]3(C=O)N12	
InChI=1S/C7H9NO/c1-4-6-5-2-7(5,3-9)8(4)6/h3-6H,2H2,1H3	InChI=1S/C7H9NO/c1-4-6-5-2-7(5,3-9)8(4)6/h3-6H,2H2,1H3/t4-,5-,6-,7+,8?/m0/s1
