20
gdb 98566	3.92592	0.9616	0.7901	3.5246	85.14	-0.2394	-0.0179	0.2215	1473.4539	0.1718	-403.202713	-403.193264	-403.19232	-403.237848	33.779	
C	-0.0609712403	 1.4402240054	 0.0441261576	-0.334975
N	 0.0915166058	 0.001395992	-0.0130525832	-0.328855
C	 0.5059211236	-0.6488197404	-1.1447907583	 0.323727
O	 0.7657069868	-0.0603100958	-2.1844019664	-0.389721
C	 0.6179888923	-2.128531906	-1.011621582	 0.237242
C	 1.0799384802	-2.9009583415	-1.9999434666	-0.121918
C	 1.1527697041	-4.3527179276	-1.6150788998	-0.257297
C	 0.3436624474	-4.4095663497	-0.2923742842	-0.214078
C	 0.2978828932	-2.9480807145	 0.2269977378	-0.343351
H	 0.6020406505	 1.8846061983	 0.7955703217	 0.12213
H	 0.2022751837	 1.8312877997	-0.9392836541	 0.172428
H	-1.0932252809	 1.7251339551	 0.2784753286	 0.122369
H	-0.0966731612	-0.538120912	 0.8142580687	 0.245293
H	 1.400069369	-2.5088033495	-2.9577064089	 0.119905
H	 0.7500575034	-5.0191740396	-2.3860023447	 0.110537
H	 2.200313015	-4.6550582351	-1.4712747539	 0.113757
H	-0.6743443539	-4.7497461617	-0.504854838	 0.110863
H	 0.7690005393	-5.102204392	 0.4376635421	 0.101312
H	 1.0465359799	-2.7744356992	 1.0135570274	 0.108378
H	-0.6778858477	-2.705707146	 0.6655394361	 0.102255
56.2577	83.8086	102.6578	142.9594	159.4327	213.1381	322.0206	378.2181	391.975	472.4381	480.9504	639.6378	748.9542	776.9149	818.8974	860.7668	888.0451	913.2503	931.3196	962.8398	1013.1187	1047.067	1069.5602	1140.1377	1153.0719	1154.3925	1168.51	1227.355	1232.8712	1268.1292	1278.4808	1320.9604	1327.4874	1356.7487	1436.8164	1479.9645	1488.7556	1492.562	1501.3234	1508.1026	1560.8861	1693.2603	1754.0776	2999.9009	3005.5525	3022.7875	3037.7872	3052.464	3065.152	3072.0244	3106.0181	3153.6801	3216.7798	3661.3978
CNC(=O)C1=CCCC1	CNC(=O)C1=CCCC1	
InChI=1S/C7H11NO/c1-8-7(9)6-4-2-3-5-6/h4H,2-3,5H2,1H3,(H,8,9)	InChI=1S/C7H11NO/c1-8-7(9)6-4-2-3-5-6/h4H,2-3,5H2,1H3,(H,8,9)
