18
gdb 27288	3.07992	1.5563	1.06058	1.5081	79.66	-0.1765	0.0519	0.2284	1109.89	0.150555	-401.991375	-401.983633	-401.982689	-402.023472	30.072	
O	 0.0017244469	 1.4006975086	-0.0686984501	-0.451676
C	 0.0021830668	 0.0314789521	-0.0346282567	 0.137508
C	 0.1254481386	-0.7713613822	-1.14572101	 0.291235
C	 0.347203345	-0.7258892403	-2.6244509906	-0.354665
C	 0.0326296216	-2.1933515078	-3.0391576759	-0.207859
C	 0.2989444318	-3.043317847	-1.7724417836	-0.177379
N	 0.0732655317	-2.0789690771	-0.709971082	 0.004486
C	-0.0659869963	-2.1297588665	 0.6430855632	-0.129022
C	-0.1225850451	-0.8228156438	 1.0990344084	-0.284248
H	-0.1197623973	 1.7228565811	 0.8285697926	 0.292511
H	-0.2972228595	-0.0093451503	-3.1419137696	 0.118838
H	 1.3830624815	-0.4600257671	-2.8762098258	 0.111566
H	-1.023538264	-2.2761816174	-3.3114675951	 0.117011
H	 0.6244710556	-2.5325623089	-3.8920667108	 0.105182
H	-0.3748955445	-3.9007938273	-1.6852197439	 0.116737
H	 1.330727531	-3.4189343668	-1.7448013089	 0.114036
H	-0.1296140804	-3.0645384019	 1.1762152481	 0.112099
H	-0.2592302035	-0.5140815974	 2.1257120508	 0.083637
124.9473	173.1841	193.2765	224.3898	265.4879	333.8158	514.4427	578.4429	604.1986	619.496	657.9027	682.3678	727.914	746.2777	788.0909	868.8173	897.6595	919.7022	1001.7822	1041.4606	1074.5291	1093.7137	1117.7747	1179.357	1223.1152	1225.6604	1254.3512	1281.2536	1314.527	1329.4741	1342.011	1379.1986	1441.3623	1477.449	1490.7407	1502.3533	1509.9071	1531.8972	1670.2455	3007.2711	3010.529	3058.9006	3075.1565	3079.7461	3114.9838	3226.3559	3264.4068	3846.2211
OC1=C2CCCN2C=C1	Oc1c2CCCn2cc1	
InChI=1S/C7H9NO/c9-7-3-5-8-4-1-2-6(7)8/h3,5,9H,1-2,4H2	InChI=1S/C7H9NO/c9-7-3-5-8-4-1-2-6(7)8/h3,5,9H,1-2,4H2
