20
gdb 72179	2.98673	2.00374	1.59607	1.6402	81.03	-0.2176	0.0823	0.2999	919.452	0.173474	-365.968889	-365.962093	-365.961149	-365.999452	29.188	
C	 0.0165193756	 1.5060042204	-0.0615302674	-0.473411
C	-0.0255753275	 0.0077119891	 0.0863489677	 0.381778
C	-1.3431014514	-0.7328458985	 0.3631224051	-0.272762
C	-0.504815855	-1.8279737071	 1.0786796895	-0.056559
C	-0.0585228794	-2.8602260148	 0.0369958228	-0.232525
C	 1.0002308226	-2.109055881	-0.7443399788	-0.024656
C	 1.7467553541	-1.1926775501	 0.1326090528	-0.053526
C	 0.7060986169	-0.8007715983	 1.1905263093	-0.115115
N	 0.8756537678	-0.6356707978	-0.9775967579	-0.204715
H	 1.0494458967	 1.8670062309	-0.0899302614	 0.120919
H	-0.4667166715	 1.8087056717	-0.9974020999	 0.123543
H	-0.5018339018	 1.9949241879	 0.7700287024	 0.107352
H	-1.9634290948	-0.1568021516	 1.0576164228	 0.094506
H	-1.9546736217	-1.0449396311	-0.489894763	 0.09349
H	-0.9088623269	-2.2575269915	 1.9955692643	 0.066454
H	 0.4015875503	-3.7450667404	 0.4946395297	 0.098661
H	-0.8977822986	-3.2033417618	-0.5777630854	 0.101904
H	 1.5004820298	-2.596891627	-1.5756108314	 0.091761
H	 2.8215839042	-1.0502912057	 0.1570593546	 0.0884
H	 0.9818568706	-0.3982600834	 2.1629720043	 0.064502
219.1176	220.1763	270.9315	336.117	423.0808	469.6981	538.562	652.8033	673.7878	729.079	771.4272	778.475	834.3563	841.5863	872.7531	895.5687	919.0437	934.7869	949.7889	971.646	1002.6432	1026.5482	1044.2592	1056.248	1101.6787	1112.1053	1148.9375	1180.062	1195.4699	1203.4206	1232.4074	1244.4658	1251.5375	1290.4906	1309.9358	1332.911	1341.7893	1396.7345	1410.4055	1475.9061	1481.7982	1488.5079	1497.0632	3025.4713	3028.0233	3037.0371	3070.7062	3088.8282	3097.2146	3103.7383	3106.0272	3133.9681	3156.1357	3171.009
CC12CC3CC4C(C13)N24	C[C@]12C[C@H]3C[C@@H]4[C@H]([C@@H]13)N24	
InChI=1S/C8H11N/c1-8-3-4-2-5-7(6(4)8)9(5)8/h4-7H,2-3H2,1H3	InChI=1S/C8H11N/c1-8-3-4-2-5-7(6(4)8)9(5)8/h4-7H,2-3H2,1H3/t4-,5-,6+,7-,8+,9?/m1/s1
