17
gdb 22709	3.37236	1.08468	0.94372	0.9358	73.29	-0.2441	0.0196	0.2638	1249.2283	0.135085	-455.005573	-454.99689	-454.995946	-455.03929	32.251	
O	 0.5413009885	 0.3043117027	 0.9920259215	-0.411829
C	-0.0790761218	 0.2559118435	-0.2842712979	-0.214763
C	-1.4587581908	-0.3350036012	-0.210432691	 0.209067
C	-1.9258239411	-1.7644672023	 0.2337990756	-0.272469
C	-3.2240286011	-0.925712776	 0.0047383285	-0.128861
N	-2.5537898061	 0.2733937057	 0.6908859119	-0.371065
C	-2.551694517	-0.4217681898	-1.2598153257	 0.529688
N	-2.6737991094	-0.20305602	-2.4906500825	-0.327199
O	-3.9770532639	-0.5187822018	-2.9424135795	-0.396364
H	 0.1213616425	 1.0140130168	 1.4887845816	 0.292331
H	-0.1360125292	 1.2499046017	-0.7493778049	 0.116463
H	 0.5544085777	-0.3721416792	-0.9189144096	 0.127359
H	-1.7222733206	-2.6083713568	-0.431815594	 0.113147
H	-1.7153460347	-2.0019312724	 1.2806657441	 0.110259
H	-4.2624450732	-1.191369069	 0.1840400115	 0.108212
H	-2.3446243129	-0.0158676648	 1.6540783751	 0.209066
H	-3.9244706568	-0.2826700071	-3.8747452147	 0.306957
60.5768	115.0197	155.036	221.2534	262.3988	315.7641	341.2723	344.1538	409.4977	533.8186	636.7546	679.0965	722.2322	733.1978	759.7432	848.6904	892.8314	933.1006	954.8476	1007.969	1032.2238	1062.0394	1075.9245	1078.9806	1144.4702	1165.7974	1192.7008	1234.6967	1271.4998	1302.4853	1336.3629	1391.7144	1405.9286	1429.4171	1486.1563	1500.882	1844.5352	3012.7815	3042.9857	3084.2728	3117.7581	3161.6262	3356.2014	3817.9406	3818.6908
OCC12CC(N1)C2=NO	OC[C@@]12C[C@@H](N1)C2=NO	
InChI=1S/C5H8N2O2/c8-2-5-1-3(6-5)4(5)7-9/h3,6,8-9H,1-2H2	InChI=1S/C5H8N2O2/c8-2-5-1-3(6-5)4(5)7-9/h3,6,8-9H,1-2H2/t3-,5-/m1/s1
