19
gdb 99718	1.98002	1.32777	1.15584	3.4673	72.21	-0.2393	0.0111	0.2504	1201.2103	0.158588	-456.424323	-456.413969	-456.413024	-456.46027	37.032	
C	-1.4794108303	-2.2099944461	 0.7550198626	-0.385092
C	-0.6645174976	-1.1054309582	 0.0767415844	-0.189634
C	 0.4119059899	-0.4236583246	 0.9744104191	-0.209267
C	-0.286710175	 0.3531708225	 2.1100121145	 0.388872
N	-0.3260535335	-0.2532279609	 3.3175499362	-0.51549
O	-0.79774433	 1.4316756355	 1.8656848207	-0.382175
C	 1.4734555458	-1.4365739656	 1.3948412799	 0.42088
N	 2.5559649864	-1.4958913953	 0.5756134162	-0.514047
O	 1.3694168105	-2.1810186664	 2.3627593075	-0.387665
H	-2.0445735904	-1.8208624103	 1.6065259421	 0.131453
H	-2.1942219102	-2.6371314521	 0.0451848128	 0.113237
H	-0.8400655369	-3.017067827	 1.1228777788	 0.134381
H	-0.1616631809	-1.5071974288	-0.8109939533	 0.094391
H	-1.3281337571	-0.3056134627	-0.2664477724	 0.129567
H	 0.8808063805	 0.3566455253	 0.3673378257	 0.100776
H	 0.1499105978	-1.1375325075	 3.446878022	 0.28285
H	-0.7788768232	 0.2274199297	 4.0771538635	 0.25426
H	 2.6704785886	-0.8863560411	-0.2143722729	 0.267432
H	 3.2721779456	-2.1748688567	 0.7769348128	 0.265271
50.8134	55.4263	100.7206	179.9266	190.9018	220.566	256.1267	277.1396	357.1867	373.7873	401.0071	439.3898	565.2329	589.7802	653.7024	692.5186	754.7846	772.8517	792.6938	851.1975	911.3056	923.3252	1055.5557	1075.4694	1089.5221	1143.5198	1145.2227	1253.8353	1272.9678	1307.5481	1355.3381	1377.2052	1417.3793	1424.6564	1487.3832	1497.3654	1507.2383	1599.5912	1618.4118	1757.0911	1794.2183	3032.5021	3046.4384	3065.8277	3082.3835	3114.161	3125.7398	3512.9605	3602.6963	3698.117	3741.3545
CCC(C(N)=O)C(N)=O	CCC(C(=O)N)C(=O)N	
InChI=1S/C5H10N2O2/c1-2-3(4(6)8)5(7)9/h3H,2H2,1H3,(H2,6,8)(H2,7,9)	InChI=1S/C5H10N2O2/c1-2-3(4(6)8)5(7)9/h3H,2H2,1H3,(H2,6,8)(H2,7,9)
