19
gdb 33235	6.32343	0.68431	0.62649	1.7741	78.6	-0.197	0.0147	0.2117	1771.7955	0.160183	-419.236471	-419.227437	-419.226493	-419.271339	32.516	
C	 0.0506876153	 1.5167553106	 0.0999620833	-0.380701
C	-0.0104667296	 0.0010399948	-0.1013524426	-0.192426
C	-1.423842749	-0.5564699117	 0.0572098427	-0.116783
N	-1.4504393064	-1.9911862488	-0.1717396656	-0.395305
C	-2.6511827098	-2.6577308035	-0.0542681083	 0.315351
C	-3.9341693481	-2.1971132025	-0.0708454965	-0.131792
O	-4.7659688317	-3.2980779665	 0.0212398089	-0.144178
C	-3.9289200838	-4.3415214344	 0.1014928998	 0.082943
N	-2.6699176247	-4.0435098092	 0.064309884	-0.326699
H	 1.0736927421	 1.887685407	-0.0103450347	 0.118568
H	-0.5732519224	 2.0393222166	-0.6332027434	 0.119114
H	-0.3007931961	 1.8010561935	 1.0977400992	 0.118702
H	 0.3636996245	-0.2657115816	-1.096440909	 0.113253
H	 0.6522540762	-0.4924153115	 0.6227735786	 0.097769
H	-1.8243475135	-0.2916979763	 1.0521556205	 0.092108
H	-2.0867910819	-0.0833198317	-0.6799521581	 0.109659
H	-0.6877029973	-2.5048842612	 0.2479921572	 0.240299
H	-4.4103788639	-1.2376311071	-0.1441618383	 0.133468
H	-4.3731068197	-5.3207586163	 0.1902648222	 0.14665
57.1274	69.8468	97.0232	147.6302	236.5452	275.6778	330.9637	341.216	473.8657	576.144	631.275	634.1551	735.0112	760.7106	765.7878	843.6729	900.0302	914.582	937.9408	1008.1336	1049.1216	1075.6669	1106.5792	1147.8661	1161.248	1181.8091	1245.6538	1268.2312	1285.7968	1320.8299	1338.5041	1352.2588	1411.0234	1417.4442	1490.3557	1492.0538	1500.0518	1506.1309	1525.9251	1568.2598	1663.3364	2943.3351	3013.348	3026.3092	3034.1411	3064.4362	3100.6997	3109.6758	3272.5835	3314.685	3587.5751
CCCNC1=COC=N1	CCCNc1cocn1	
InChI=1S/C6H10N2O/c1-2-3-7-6-4-9-5-8-6/h4-5,7H,2-3H2,1H3	InChI=1S/C6H10N2O/c1-2-3-7-6-4-9-5-8-6/h4-5,7H,2-3H2,1H3
