25
gdb 117722	2.02456	0.93788	0.76879	2.0559	85.87	-0.2458	0.0773	0.3231	1657.7638	0.225078	-426.624916	-426.612907	-426.611962	-426.66295	43.098	
C	 0.1548489503	 1.5601904128	-0.1809600282	-0.378403
C	 0.0282126945	 0.0525303659	-0.0216315857	-0.045155
O	 0.700441895	-0.5500281753	-1.1110621653	-0.288869
C	 0.7333604724	-1.9840173036	-1.1921375584	 0.352939
C	 1.3984251843	-2.6032117583	 0.0501900852	-0.424875
C	-0.6829357812	-2.5542003784	-1.378055191	-0.419748
C	 1.5567598782	-2.2587572434	-2.4654819809	-0.207483
C	 2.9893432108	-1.717332207	-2.4533648672	-0.075371
O	 3.6571446941	-1.9591272477	-3.6855701079	-0.421475
H	 1.2070668263	 1.8589204767	-0.178499715	 0.123919
H	-0.2896004145	 1.8842430078	-1.1263321387	 0.123187
H	-0.3552185295	 2.0753544526	 0.6387448995	 0.111932
H	 0.466390688	-0.2608213378	 0.9374733634	 0.087485
H	-1.0339816492	-0.2340101547	-0.0028220745	 0.086809
H	 0.756280277	-2.5275908528	 0.9324289075	 0.113987
H	 1.5977637022	-3.6660237664	-0.1184170422	 0.117595
H	 2.3464179219	-2.1082646075	 0.2769772788	 0.125233
H	-1.1803327541	-2.0678568351	-2.2225387132	 0.117925
H	-0.6373134474	-3.6291684988	-1.5780515223	 0.115462
H	-1.3001854947	-2.4138570362	-0.4859723063	 0.113061
H	 1.5852734486	-3.3373765603	-2.6554710352	 0.097943
H	 1.0219423934	-1.7987678663	-3.3073031364	 0.086054
H	 2.978478351	-0.6493719416	-2.2001578751	 0.103984
H	 3.5914492138	-2.2298524512	-1.6967073409	 0.10544
H	 3.1968389491	-1.4590459134	-4.3670336801	 0.278426
32.7978	74.2667	85.8634	97.0772	167.7863	212.6864	233.8564	252.9515	258.3319	293.147	331.5976	335.8699	345.9376	366.4147	452.932	477.9381	574.5184	757.3046	775.3081	823.92	880.2202	917.7385	929.9137	972.295	985.876	1034.5221	1065.8413	1075.4515	1098.5852	1133.2339	1146.3771	1184.893	1191.3465	1236.2941	1269.0512	1301.1475	1320.2126	1337.5963	1392.4068	1396.0121	1398.8575	1411.9346	1422.8993	1427.7474	1469.0363	1482.6168	1483.4383	1493.1439	1497.1826	1502.4621	1511.4819	1518.6784	1531.8528	2983.4978	3012.3578	3017.3434	3024.3975	3038.7111	3043.064	3044.4367	3066.7244	3090.0492	3106.0195	3112.6061	3115.0677	3117.2469	3120.4216	3120.9205	3814.2363
CCOC(C)(C)CCO	CCOC(C)(C)CCO	
InChI=1S/C7H16O2/c1-4-9-7(2,3)5-6-8/h8H,4-6H2,1-3H3	InChI=1S/C7H16O2/c1-4-9-7(2,3)5-6-8/h8H,4-6H2,1-3H3
