19
gdb 74385	3.03796	1.60812	1.23595	1.431	80.86	-0.2147	0.0097	0.2243	1068.4459	0.158709	-385.855118	-385.847182	-385.846238	-385.887046	31.639	
C	-0.0121729157	 1.5163120999	 0.1072396923	-0.501363
C	-0.1053696156	 0.0292004058	 0.0004860946	 0.323673
C	-0.0502898837	-0.7496697443	-1.092158715	-0.243493
C	-0.0498922636	-2.1887181426	-0.7189250573	 0.27576
C	-0.3664785426	-3.2808514954	-1.7086812398	-0.498173
C	 0.9108898246	-2.5526896757	 0.4801975713	 0.062248
O	 1.3800011238	-1.4183990139	 1.1705296585	-0.301883
C	-0.0204929728	-0.8968618797	 1.1942033965	-0.033278
C	-0.533684746	-2.2819841858	 0.7137319557	-0.193464
H	 0.9130105518	 1.8208108371	 0.612839106	 0.136671
H	-0.0260438702	 1.9879272468	-0.8792432138	 0.123943
H	-0.8423015282	 1.9313043934	 0.6932647111	 0.120915
H	 0.0792646325	-0.4013259082	-2.1112142774	 0.091672
H	 0.3313803054	-3.2680455274	-2.5530738186	 0.122646
H	-0.3003530029	-4.2697485812	-1.2419441338	 0.115681
H	-1.3807571574	-3.1735380449	-2.1103316407	 0.12213
H	 1.5302683279	-3.4424079607	 0.4809899438	 0.106248
H	-0.2668604398	-0.5122498248	 2.1837448817	 0.076227
H	-1.3605249874	-2.8767101283	 1.0827109651	 0.09384
155.8286	178.2075	199.8054	239.1835	260.3624	332.0231	420.7107	488.051	544.1591	591.92	619.672	701.4158	783.2711	819.715	855.1292	859.5029	870.4551	894.7793	928.135	953.8954	1008.9704	1010.1575	1057.9429	1062.013	1095.0511	1113.3638	1135.0446	1198.851	1204.788	1230.2525	1270.6847	1325.0899	1345.1888	1382.3856	1412.1245	1419.977	1479.3985	1489.0134	1490.4793	1501.7397	1682.5281	3015.4356	3023.21	3061.152	3084.3673	3092.5874	3108.4447	3118.6376	3174.1103	3187.1909	3188.9884
CC1=CC2(C)C3OC1C23	CC1=C[C@@]2(C)[C@H]3O[C@@H]1[C@@H]23	
InChI=1S/C8H10O/c1-4-3-8(2)5-6(4)9-7(5)8/h3,5-7H,1-2H3	InChI=1S/C8H10O/c1-4-3-8(2)5-6(4)9-7(5)8/h3,5-7H,1-2H3/t5-,6+,7+,8-/m1/s1
