20
gdb 29784	2.39863	1.50225	0.93998	2.0063	84.27	-0.1749	0.0536	0.2285	1266.0782	0.168873	-403.189764	-403.179089	-403.178145	-403.226424	37.183	
C	-0.0296336809	 1.4529892232	 0.0399264238	-0.334436
N	 0.0110252191	 0.0086860806	 0.0196110633	-0.043828
C	 0.0457141274	-0.7611875979	-1.1294988933	-0.210814
C	 0.0827097689	-2.0751269365	-0.7383025863	 0.232374
O	 0.122634336	-3.1396667584	-1.597629203	-0.451705
C	 0.0711810893	-2.1237523121	 0.6862875055	 0.071206
C	 0.1017699931	-3.3797652757	 1.503126091	-0.536415
C	 0.0265997241	-0.8089785682	 1.1248204564	 0.22435
C	-0.0027752227	-0.2488388993	 2.5090464075	-0.506437
H	 0.8485874433	 1.875684543	 0.5418505906	 0.132264
H	-0.0443691114	 1.8194824638	-0.9877544136	 0.139922
H	-0.926698651	 1.8244093462	 0.5486570622	 0.132478
H	 0.0410717516	-0.3141504927	-2.1090977783	 0.112349
H	 0.1455667361	-3.9461352395	-1.0746483186	 0.292377
H	 1.0041575572	-3.977243433	 1.312543249	 0.11983
H	 0.0884315955	-3.1647712692	 2.5747834836	 0.125608
H	-0.7618969625	-4.0283025637	 1.3005435618	 0.120051
H	 0.8573456751	 0.4012185809	 2.716414647	 0.124816
H	-0.9063115334	 0.3442534298	 2.7021510629	 0.124877
H	 0.0172770953	-1.0559722013	 3.2442957085	 0.131135
30.161	58.4474	116.1885	138.4001	172.3733	188.1579	252.027	270.7961	280.2161	305.4401	335.0105	548.3205	568.1885	605.5304	610.4494	646.764	698.7502	719.214	848.3458	956.0579	1053.8825	1060.2244	1072.8041	1112.152	1147.4463	1149.8563	1182.8531	1217.5257	1281.5752	1408.879	1414.4154	1416.5034	1428.9292	1468.3579	1473.7542	1483.6778	1485.5086	1489.6162	1493.7779	1506.9971	1520.6911	1583.3041	1660.8526	3000.0165	3008.9843	3022.4684	3037.0659	3048.3882	3071.1659	3105.7915	3121.3513	3135.6114	3273.2433	3839.9522
CN1C=C(O)C(C)=C1C	Cn1cc(O)c(C)c1C	
InChI=1S/C7H11NO/c1-5-6(2)8(3)4-7(5)9/h4,9H,1-3H3	InChI=1S/C7H11NO/c1-5-6(2)8(3)4-7(5)9/h4,9H,1-3H3
