18
gdb 79329	2.50289	1.98973	1.8491	1.3098	74.17	-0.2342	0.	0.2342	867.4454	0.151671	-401.942923	-401.936449	-401.935504	-401.973276	27.787	
O	 0.0858924211	 1.3704451225	 0.2256942062	-0.443383
C	 0.0219519145	-0.0165751409	-0.0071275989	 0.14963
C	-1.3869016639	-0.5758411956	-0.1577036495	-0.091837
C	-1.9435679661	-0.4994967585	-1.5544076573	-0.060928
C	-1.1868910047	 0.2586527079	-2.5727978668	-0.057837
C	 0.1504787062	 0.2554612818	-2.4773656103	-0.12306
C	 0.6926234381	-0.5337072393	-1.3232705853	-0.145813
C	 0.0497329827	-1.9491001056	-1.393815615	-0.161723
N	-1.3607323808	-1.7720276824	-1.0025789822	-0.121123
H	-0.2868388336	 1.7992633125	-0.5548542467	 0.280919
H	 0.5155441712	-0.4846898173	 0.8510923822	 0.095795
H	-2.0600760358	-0.5635497601	 0.693713319	 0.094759
H	-3.0205011722	-0.5584777501	-1.6689896834	 0.094164
H	-1.7301024917	 0.7552612176	-3.3695144107	 0.096567
H	 0.8004377826	 0.754634384	-3.1867950815	 0.096924
H	 1.7808747365	-0.5402566068	-1.2655834495	 0.074642
H	 0.1234058611	-2.4041402944	-2.3846237153	 0.110594
H	 0.5081198847	-2.6225445952	-0.6622859952	 0.111709
189.4593	287.2288	364.9522	397.0544	433.8131	501.6932	554.0235	588.2187	658.5065	708.9917	753.6658	769.799	801.0978	837.9808	877.8054	936.928	955.3338	964.394	966.9776	1014.4006	1030.8001	1083.276	1094.653	1115.1857	1120.5664	1147.4236	1192.4145	1221.2745	1239.9545	1250.5306	1298.249	1306.7211	1330.0235	1356.6836	1389.632	1413.6056	1442.3575	1495.7345	1665.7109	3051.6591	3060.6742	3105.3911	3115.1186	3160.1708	3168.7911	3181.2575	3202.0674	3773.4141
OC1C2C3C=CC1CN23	O[C@H]1[C@H]2[C@H]3C=C[C@@H]1CN23	
InChI=1S/C7H9NO/c9-7-4-1-2-5-6(7)8(5)3-4/h1-2,4-7,9H,3H2	InChI=1S/C7H9NO/c9-7-4-1-2-5-6(7)8(5)3-4/h1-2,4-7,9H,3H2/t4-,5-,6-,7-,8?/m1/s1
