19
gdb 83012	2.80585	1.31673	1.12511	0.8071	90.38	-0.2187	-0.0174	0.2012	1167.6246	0.159109	-348.728891	-348.720489	-348.719545	-348.76157	33.019	
C	-0.099668202	 1.5592161229	 0.0418256263	-0.417249
C	 0.0676785485	 0.0585167368	-0.0273513236	 0.001975
C	 0.7178596401	-0.6750606785	-1.17660336	-0.076285
C	 1.6405470925	 0.0900772021	-2.128173597	-0.267576
C	 2.7773236424	 0.5484367938	-1.2472501277	-0.191302
C	 2.6480453692	 0.111188023	 0.0192262732	 0.221134
C	 3.5468831533	 0.3481340716	 1.0879720857	 0.211392
C	 4.2901780162	 0.516695939	 2.0216530897	-0.433068
C	 1.3825039488	-0.6756218539	 0.1948557089	-0.182292
H	 0.7918008849	 2.0916940705	-0.2973158437	 0.125548
H	-0.9418837221	 1.8829428748	-0.5802783015	 0.114115
H	-0.303930246	 1.8783485008	 1.069431632	 0.119386
H	-0.7803830542	-0.4828808671	 0.3869459115	 0.085602
H	 0.2266768774	-1.5655110257	-1.5514925073	 0.083745
H	 2.0020244304	-0.5554196616	-2.939930084	 0.113121
H	 1.1379243747	 0.9365039456	-2.6164391426	 0.113707
H	 3.5838720516	 1.1800137968	-1.6004624556	 0.098525
H	 4.9520263005	 0.6768509561	 2.8361079351	 0.190187
H	 1.395085054	-1.541282237	 0.8474049504	 0.089335
99.551	154.8376	185.1916	218.7332	232.6984	345.2687	428.8629	499.849	507.8939	536.6309	583.9788	632.5552	673.0737	719.4763	743.1486	794.2544	835.1668	849.3955	933.9218	940.6636	975.7173	992.8646	1024.0354	1064.6795	1089.6768	1117.1469	1135.9004	1169.8004	1185.0462	1225.7018	1259.7389	1315.2441	1352.8677	1362.6141	1412.5397	1428.0623	1474.1309	1498.8716	1501.4976	1651.9833	2221.3824	3010.4674	3032.4195	3033.2719	3089.034	3115.2866	3131.314	3167.7625	3177.5985	3205.1531	3503.8203
CC1C2CC=C(C#C)C12	C[C@H]1[C@H]2CC=C(C#C)[C@@H]12	
InChI=1S/C9H10/c1-3-7-4-5-8-6(2)9(7)8/h1,4,6,8-9H,5H2,2H3	InChI=1S/C9H10/c1-3-7-4-5-8-6(2)9(7)8/h1,4,6,8-9H,5H2,2H3/t6-,8+,9+/m0/s1
