20
gdb 72915	2.66407	1.79002	1.40771	2.5769	76.78	-0.2225	0.0723	0.2948	989.6799	0.1726	-403.112944	-403.105391	-403.104447	-403.14444	31.307	
O	 0.0253383403	 1.2789262262	-0.3199554713	-0.482105
C	 0.0426420021	-0.0873502493	 0.0433401953	 0.416364
C	 0.361601566	-1.0466548261	-1.1501223015	-0.293204
C	-1.1340622295	-1.4768639954	-1.1927351688	-0.229677
C	-1.3985875842	-0.6793817364	 0.1137203144	-0.017665
N	-1.5440994682	-1.4325320405	 1.367594982	-0.104087
C	-0.6267289633	-2.5650763297	 1.5661767238	-0.253
C	-0.3040397981	-1.2464717705	 2.1612474373	-0.008277
C	 0.6844957097	-0.349633836	 1.4247814614	-0.326401
H	 0.9227865479	 1.5367359745	-0.5573180427	 0.275659
H	 0.7224900358	-0.5263636371	-2.0407952533	 0.096366
H	 1.0622538654	-1.8510249122	-0.9075693021	 0.096479
H	-1.6720148236	-1.0645232581	-2.0484511317	 0.10914
H	-1.3392109931	-2.5477904454	-1.1404591044	 0.10646
H	-2.1959660499	 0.0649722313	 0.0609122349	 0.087681
H	-1.031616295	-3.3615813917	 2.1847922192	 0.11434
H	-0.0141716663	-2.9186709539	 0.7405946052	 0.110076
H	-0.4371164881	-1.087663787	 3.2278279983	 0.09033
H	 1.6826722202	-0.7957433811	 1.3560186986	 0.09983
H	 0.7783232019	 0.6093965886	 1.9429468353	 0.11169
122.5386	252.6104	259.9051	268.8583	361.7231	366.2363	413.2187	468.144	601.983	634.769	683.479	716.0343	758.9634	820.6361	851.607	867.1938	882.9173	947.8403	948.5213	964.8512	1011.0026	1030.3312	1045.169	1106.52	1109.8841	1130.2883	1137.0974	1166.0081	1183.1448	1206.1158	1221.0897	1254.3777	1265.2572	1271.5414	1286.5517	1296.6456	1332.85	1372.6888	1386.5064	1462.9218	1483.5892	1486.05	1514.7473	3042.5529	3050.8768	3074.258	3084.9478	3090.8809	3103.6327	3106.408	3129.4811	3143.0731	3184.606	3799.4198
OC12CCC1N1CC1C2	O[C@]12CC[C@H]1N1C[C@H]1C2	
InChI=1S/C7H11NO/c9-7-2-1-6(7)8-4-5(8)3-7/h5-6,9H,1-4H2	InChI=1S/C7H11NO/c9-7-2-1-6(7)8-4-5(8)3-7/h5-6,9H,1-4H2/t5-,6-,7+,8?/m1/s1
