15
gdb 31305	2.46712	1.51097	0.94263	2.0798	80.72	-0.1946	-0.0032	0.1915	1186.5215	0.112606	-416.808836	-416.800336	-416.799392	-416.842214	30.893	
C	 0.0118020072	 1.4606868858	-0.0414301894	-0.238649
O	 0.0044133761	 0.0355669209	-0.0086859514	-0.26665
C	 0.5940799009	-0.5795007561	-1.0410034286	 0.272089
C	 0.6871631511	-1.9586391092	-1.18830507	 0.072702
N	 1.3730935329	-2.1062184722	-2.3944747332	-0.324654
C	 1.6367549881	-0.8737700594	-2.8761312571	 0.008441
N	 1.1779513507	 0.076337479	-2.0787217161	-0.341833
C	 0.2502270644	-3.0339045245	-0.4046830653	 0.277324
C	-0.1199464311	-3.9701193787	 0.2598402765	-0.454913
H	 1.0345467246	 1.850315681	-0.0494649012	 0.133432
H	-0.5115537348	 1.8381780993	-0.9254590943	 0.13339
H	-0.5044957547	 1.7784384261	 0.8653739773	 0.12891
H	 1.6164844326	-2.9887620637	-2.8121146003	 0.273726
H	 2.1622636394	-0.7117462342	-3.8047811214	 0.138663
H	-0.4519645674	-4.7830029741	 0.8560592347	 0.18802
80.4635	121.4628	161.219	169.4572	252.2557	321.4902	415.4963	423.9489	488.5191	514.5305	555.0646	620.8949	667.9196	686.1031	743.0028	748.6856	797.8827	951.1507	1048.1213	1129.7159	1176.8847	1179.6016	1205.6963	1254.6041	1315.5244	1387.091	1454.3893	1481.1271	1491.4291	1500.9999	1529.6657	1618.2803	2221.9269	3035.9251	3103.6699	3145.5167	3257.3143	3503.0575	3668.0913
COC1=C(NC=N1)C#C	COc1c([nH]cn1)C#C	
InChI=1S/C6H6N2O/c1-3-5-6(9-2)8-4-7-5/h1,4H,2H3,(H,7,8)	InChI=1S/C6H6N2O/c1-3-5-6(9-2)8-4-7-5/h1,4H,2H3,(H,7,8)
