20
gdb 71254	2.24978	2.04648	1.61309	1.3796	77.73	-0.2243	0.0733	0.2977	959.9766	0.171596	-403.105503	-403.097688	-403.096744	-403.137134	31.905	
C	-0.1163891551	 1.5051362823	 0.0140196545	-0.516623
C	-0.011708815	 0.0046439524	 0.0208715942	 0.229857
C	 0.553100785	-0.7494142488	-1.2005564032	-0.21746
C	 0.7746157367	-2.0422383837	-0.3998411486	 0.064591
O	 1.7986794072	-1.6162732885	 0.551016737	-0.332918
C	 0.739821091	-0.8707248256	 1.170825525	 0.423547
C	 1.0107064019	-0.3233998739	 2.5380083804	-0.517387
C	-0.3408818137	-1.8618425469	 0.7071949344	-0.107781
N	-1.2717077579	-0.8104436541	 0.2244925243	-0.355091
H	 0.8642266009	 1.9597012841	-0.1602172563	 0.12697
H	-0.7916661654	 1.8428382779	-0.7798087103	 0.131701
H	-0.4999997344	 1.8892522951	 0.9659824909	 0.112586
H	-0.1897849049	-0.8173037029	-1.9972753352	 0.106509
H	 1.5030685557	-0.3651975512	-1.5771599146	 0.100861
H	 0.9995585858	-2.9828586134	-0.8986468308	 0.081503
H	 1.7970001755	 0.438167739	 2.5015711608	 0.132845
H	 0.1097889836	 0.1413322062	 2.9520128235	 0.118424
H	 1.3335788475	-1.1175573778	 3.2174744378	 0.13241
H	-0.71379169	-2.7248967793	 1.2572479449	 0.076117
H	-1.7598757644	-0.446370861	 1.0444057912	 0.209339
186.8448	194.6424	204.9469	221.5118	303.6019	336.3344	465.2317	512.5056	522.9354	602.154	643.7264	690.6641	739.9922	809.9738	838.8455	863.1919	885.0421	906.934	928.5495	946.0794	980.0909	990.079	1029.2129	1082.0027	1102.161	1137.0679	1142.1232	1160.9657	1167.5207	1216.3366	1256.9983	1282.8354	1288.4986	1314.74	1351.4232	1371.9534	1414.9525	1415.5292	1466.0882	1474.6809	1485.5828	1494.0337	1494.8461	3027.6466	3034.9761	3076.2668	3090.7747	3101.6437	3103.5332	3111.8394	3126.4728	3139.0102	3144.7656	3441.4861
CC12CC3OC1(C)C3N2	C[C@@]12C[C@H]3O[C@]1(C)[C@H]3N2	
InChI=1S/C7H11NO/c1-6-3-4-5(8-6)7(6,2)9-4/h4-5,8H,3H2,1-2H3	InChI=1S/C7H11NO/c1-6-3-4-5(8-6)7(6,2)9-4/h4-5,8H,3H2,1-2H3/t4-,5+,6-,7-/m1/s1
