18
gdb 5840	3.25284	1.41043	1.26077	3.8748	64.48	-0.263	-0.0254	0.2376	1046.2523	0.149467	-422.09598	-422.086229	-422.085284	-422.130619	35.094	
C	 0.2048263011	 1.5660807641	 0.174834851	-0.412757
C	-0.0137903531	 0.0582800805	-0.0267588232	 0.251489
C	 0.5870583292	-0.7560261769	 1.1297848578	-0.412754
O	-1.3994150688	-0.2373126118	-0.1910783386	-0.463967
C	 0.6717442351	-0.3645508704	-1.3302884281	 0.346944
O	 1.8692439541	-0.2302928842	-1.4773366319	-0.351112
C	-0.1584223121	-0.9599564731	-2.4528240857	-0.128878
O	 0.6407238659	-1.277868246	-3.5536819878	-0.42834
H	 1.2718577395	 1.7996743758	 0.1833591528	 0.144979
H	-0.2746916172	 2.1328972295	-0.6280952991	 0.12966
H	-0.230363397	 1.8833672051	 1.1290541814	 0.109139
H	 0.1516434338	-0.4323365654	 2.0817452622	 0.109092
H	 0.3753712777	-1.8208283475	 0.9982827457	 0.129615
H	 1.6691867783	-0.6141688669	 1.1750491771	 0.145003
H	-1.8569064704	 0.0193036505	 0.6156923998	 0.28436
H	-0.6844451685	-1.8429063108	-2.0576816653	 0.12763
H	-0.9494342615	-0.2401707217	-2.7139112114	 0.127856
H	 1.5422567641	-1.0288085007	-3.2945527467	 0.292041
28.07	126.78	206.0575	209.3704	219.9776	238.9401	268.0072	299.6781	349.1905	363.343	406.2537	443.4546	499.8037	570.654	589.6886	798.8991	848.1723	924.6153	974.2391	976.509	1034.0535	1070.6171	1136.9668	1153.3667	1182.4482	1223.1703	1235.1855	1302.5777	1378.6271	1386.9206	1408.6872	1446.6219	1476.1984	1477.3449	1482.5789	1495.5887	1512.1676	1789.8729	2995.3047	3009.9682	3033.2909	3037.7618	3105.9553	3109.6326	3133.7592	3138.2029	3686.1118	3823.7521
CC(C)(O)C(=O)CO	CC(C)(O)C(=O)CO	
InChI=1S/C5H10O3/c1-5(2,8)4(7)3-6/h6,8H,3H2,1-2H3	InChI=1S/C5H10O3/c1-5(2,8)4(7)3-6/h6,8H,3H2,1-2H3
