17
gdb 94486	4.10321	0.75093	0.66728	3.4397	73.48	-0.2406	-0.0215	0.2191	1623.2698	0.133453	-455.128845	-455.119141	-455.118196	-455.165494	33.056	
O	 0.171852887	 1.3966871279	 0.0922614896	-0.432086
C	 0.0025938511	 0.0049742542	 0.0693868698	 0.02775
C	-1.4751530418	-0.4822199697	-0.0507664722	-0.178237
N	-1.0510569781	-1.2371874513	-1.2474134765	-0.352406
C	 0.199203388	-0.6497146181	-1.2974601864	 0.40772
N	 1.1482681792	-0.548519689	-2.1260178196	-0.366528
C	 0.9985690087	-1.1607387691	-3.4313015359	-0.249853
C	 2.0376960501	-0.6084602558	-4.3963341101	 0.156861
O	 1.9680942848	-0.7101423106	-5.5925262278	-0.243842
H	 0.9020986445	 1.5944466285	-0.5067785719	 0.299314
H	 0.5537303074	-0.4884767299	 0.8805090443	 0.0975
H	-1.8644718296	-1.1064833505	 0.757254239	 0.116464
H	-2.1539363741	 0.3502635518	-0.2570243998	 0.126921
H	-1.6246458641	-1.5527767428	-2.0159173795	 0.251848
H	 1.1664532811	-2.2499242219	-3.3800514582	 0.136326
H	 0.0045874967	-1.0238236277	-3.8861432035	 0.11312
H	 2.8887586289	-0.1035355959	-3.8875439813	 0.089128
22.2975	67.166	91.6082	122.418	167.5778	202.7647	279.7261	316.2162	379.3489	457.9216	474.5571	589.4392	680.3218	727.3997	786.5134	873.9878	916.9113	989.1474	1049.656	1057.8312	1073.3562	1082.4915	1146.7618	1177.4757	1194.0336	1212.3579	1233.6569	1293.9443	1329.5617	1357.9661	1369.8272	1397.6243	1402.484	1437.2651	1514.6709	1815.5212	1842.8732	2895.9417	2964.1074	2999.8674	3022.4919	3054.6738	3113.6561	3604.1827	3789.4398
OC1CNC1=NCC=O	O[C@H]1CNC1=NCC=O	
InChI=1S/C5H8N2O2/c8-2-1-6-5-4(9)3-7-5/h2,4,9H,1,3H2,(H,6,7)	InChI=1S/C5H8N2O2/c8-2-1-6-5-4(9)3-7-5/h2,4,9H,1,3H2,(H,6,7)/t4-/m0/s1
