18
gdb 66473	3.6112	1.5708	1.45264	0.3192	74.09	-0.2395	0.0672	0.3067	976.0464	0.14712	-401.86732	-401.859844	-401.8589	-401.898759	29.905	
C	 0.0023104053	 1.4457561936	 0.0249640274	-0.523327
C	-0.0779645671	-0.0441874069	-0.0472119838	 0.353689
C	 0.502555026	-0.9269802783	-1.0937049784	-0.170295
N	 1.0683164759	-0.9589555344	 0.3028120779	-0.222539
C	-0.0025352569	-2.0184119048	 0.5867700702	-0.094323
C	-1.1747358506	-1.0170852316	 0.4776416956	 0.004702
O	-1.7427745338	-1.6945064423	-0.6629081763	-0.325483
C	-0.3951199114	-2.1832736632	-0.9130952344	 0.438841
C	-0.2973971971	-3.3859398813	-1.7981946851	-0.520831
H	 0.9604908892	 1.7979959185	-0.3685629019	 0.134311
H	-0.8002810072	 1.9052811494	-0.5625356405	 0.129434
H	-0.0855456724	 1.7984112486	 1.0580389706	 0.126939
H	 1.0813961326	-0.592264815	-1.9464591137	 0.093986
H	 0.1517076919	-2.8006112366	 1.3271229821	 0.087534
H	-1.8926531109	-0.717796919	 1.2388492888	 0.085861
H	-0.6516864546	-3.1457873058	-2.8065060894	 0.134868
H	 0.74174176	-3.7207360607	-1.8704231978	 0.13351
H	-0.905699729	-4.2056286503	-1.4064283914	 0.133124
181.0952	190.3474	208.8704	222.8907	302.0328	330.5157	532.1628	568.803	594.9462	667.8581	757.5362	765.2007	811.7737	829.1711	858.1512	866.5173	877.1857	915.6987	950.9892	980.3815	997.4694	1014.2172	1086.6245	1124.5142	1131.7608	1150.3434	1164.0722	1203.1284	1221.3991	1259.8998	1272.9574	1362.6882	1400.1006	1421.3315	1434.7248	1479.061	1482.4007	1491.5112	1492.8374	3031.2095	3039.0468	3095.4074	3108.4732	3110.2007	3121.6815	3135.7794	3147.4377	3185.7086
CC12C3N1C1C2OC31C	C[C@@]12[C@H]3N1[C@H]1[C@@H]2O[C@@]31C	
InChI=1S/C7H9NO/c1-6-4-3-7(2,9-4)5(6)8(3)6/h3-5H,1-2H3	InChI=1S/C7H9NO/c1-6-4-3-7(2,9-4)5(6)8(3)6/h3-5H,1-2H3/t3-,4-,5+,6+,7+,8?/m0/s1
