16
gdb 25901	2.63847	1.50059	0.97526	2.6974	72.18	-0.232	-0.0187	0.2132	1153.6804	0.124899	-437.954562	-437.946099	-437.945154	-437.987995	31.237	
C	 0.0472074314	 1.4935705471	 0.069528929	-0.48544
C	-0.00621312	-0.0012735141	 0.0486800897	 0.140884
C	 0.0013340418	-0.8116430103	-1.0399784689	-0.088806
O	-0.0666393901	-2.1292643571	-0.6799503627	-0.14692
C	-0.1110889031	-2.1601718298	 0.6671001397	-0.102225
C	-0.0727139522	-0.8965933775	 1.1835022384	 0.081278
C	-0.1369707147	-0.488512044	 2.6047479952	 0.303094
N	 0.1291121103	-1.4841022473	 3.5195365551	-0.537554
O	-0.4399857127	 0.6400082436	 2.9504002897	-0.363713
H	 0.9240796095	 1.8519367873	 0.6178861326	 0.136352
H	 0.0893979192	 1.8937592933	-0.947406106	 0.111535
H	-0.8248496062	 1.9076744028	 0.581093799	 0.153739
H	 0.0470665475	-0.6209698095	-2.0995517837	 0.141121
H	-0.207567983	-3.1375322125	 1.1120110888	 0.144551
H	 0.7117184247	-2.2598712895	 3.2506558703	 0.253501
H	 0.2102707476	-1.1746580924	 4.4762565136	 0.258605
58.5546	128.452	173.247	192.1181	272.8717	304.6335	406.3781	417.4858	496.6855	536.2689	621.7834	636.1405	671.4939	688.6406	748.3963	777.0015	815.994	897.048	1019.8607	1069.0297	1084.1376	1087.1785	1130.3159	1183.825	1256.4222	1280.8353	1360.8447	1410.7743	1424.5075	1474.1764	1486.6877	1569.6865	1618.8046	1635.0156	1776.3368	3044.7064	3105.4197	3125.6762	3266.441	3277.8123	3583.2754	3709.346
CC1=COC=C1C(N)=O	Cc1cocc1C(=O)N	
InChI=1S/C6H7NO2/c1-4-2-9-3-5(4)6(7)8/h2-3H,1H3,(H2,7,8)	InChI=1S/C6H7NO2/c1-4-2-9-3-5(4)6(7)8/h2-3H,1H3,(H2,7,8)
