16
gdb 124069	5.10008	0.96664	0.92166	3.8184	70.3	-0.2565	-0.0064	0.2501	1247.8426	0.12682	-434.036128	-434.028659	-434.027715	-434.069844	26.731	
C	 0.0866035634	 1.5727666896	-0.0456700981	-0.07854
O	 1.5181224469	 1.4947834333	 0.0742846449	-0.265939
C	 1.4645589267	 0.0833196725	 0.3474381959	-0.078537
C	-0.0504758665	 0.0257873709	 0.0067378085	-0.172699
C	-0.9860266999	-0.5808964501	 0.9875157994	 0.351907
C	-1.187468488	-0.4094152895	 2.3418534797	-0.152884
N	-2.1922066198	-1.2297654774	 2.75519149	-0.181941
N	-2.6346577614	-1.9088603154	 1.7363382107	-0.115159
N	-1.911489077	-1.5222247629	 0.6682769048	-0.251401
H	-0.3754776944	 2.0861315633	 0.8073299492	 0.11242
H	-0.2272183093	 2.0601880201	-0.9750546679	 0.1134
H	 2.1337950897	-0.491861246	-0.3014913907	 0.113395
H	 1.69019285	-0.1467102317	 1.3966489351	 0.112418
H	-0.2218342426	-0.3950547357	-0.9871404588	 0.086232
H	-0.6762295019	 0.245478965	 3.029035141	 0.127985
H	-2.1020033958	-1.9364759062	-0.2308933937	 0.279343
29.0725	76.9203	146.086	217.2226	373.1837	393.2683	588.2568	606.7658	713.1396	729.1527	833.07	852.5995	888.2027	926.9309	995.5657	1008.4632	1029.4612	1043.7354	1074.4257	1084.4522	1103.9357	1147.6693	1158.1637	1168.1984	1214.3512	1245.4158	1305.9884	1308.1778	1343.5478	1371.4626	1412.3512	1454.8786	1513.437	1539.3329	1602.4203	3012.2724	3022.9033	3061.4139	3070.2208	3084.5547	3268.325	3648.4383
C1OCC1C1=CN=NN1	C1OCC1c1cnn[nH]1	
InChI=1S/C5H7N3O/c1-5(7-8-6-1)4-2-9-3-4/h1,4H,2-3H2,(H,6,7,8)	InChI=1S/C5H7N3O/c1-5(7-8-6-1)4-2-9-3-4/h1,4H,2-3H2,(H,6,7,8)
