14
gdb 33564	2.22262	1.62436	1.21822	5.1458	71.95	-0.269	-0.0324	0.2366	1036.7455	0.101722	-395.736825	-395.728844	-395.7279	-395.76965	28.976	
N	-0.0079228486	-1.1430400759	-0.046030077	-0.323334
C	-0.0356893626	 0.0111404366	-0.0434009527	 0.305346
C	-0.039945478	 1.4946799468	-0.0327662406	-0.034151
N	-0.5926803602	 2.0089147532	 1.2225764702	-0.324433
C	 0.233832129	 3.1235966201	 1.7117698104	-0.215368
C	 1.5046274429	 2.9664544671	 0.9289432053	-0.057948
C	 1.377981755	 2.0649608572	-0.0353356302	-0.08252
C	-0.780223396	 1.9722588983	-1.2313421042	 0.26498
N	-1.3738357086	 2.3963152519	-2.1276362384	-0.322363
H	-1.5811841928	 2.2106068686	 1.1639477566	 0.251243
H	-0.2161994602	 4.1128929503	 1.5322687825	 0.126316
H	 0.3966139144	 3.034163276	 2.7934520969	 0.134881
H	 2.3979555662	 3.5397649035	 1.1408251337	 0.132563
H	 2.1076584195	 1.7470209364	-0.7658002725	 0.144788
88.2128	129.9584	157.7966	179.8885	259.4502	383.8317	478.8044	508.5428	521.4734	581.5913	593.4644	615.8652	746.8312	796.6835	852.6064	948.9929	962.4615	996.4723	1042.0984	1065.6954	1101.4206	1133.4042	1162.545	1202.7773	1330.1815	1352.9878	1450.5201	1513.6243	1691.7059	2348.0322	2365.2211	2981.9087	3034.9312	3222.127	3254.2785	3594.5226
N#CC1(NCC=C1)C#N	N#CC1(NCC=C1)C#N	
InChI=1S/C6H5N3/c7-4-6(5-8)2-1-3-9-6/h1-2,9H,3H2	InChI=1S/C6H5N3/c7-4-6(5-8)2-1-3-9-6/h1-2,9H,3H2
