14
gdb 48527	3.28117	1.53905	1.32612	1.1999	68.01	-0.2356	-0.081	0.1546	945.7816	0.098751	-436.545075	-436.537827	-436.536882	-436.577403	26.865	
O	-0.8239763682	 0.9256495269	 0.7450062895	-0.258245
C	 0.0823092805	 0.8424536481	-0.0481483685	 0.035626
C	 1.2933566818	 1.6822186728	 0.0275763695	 0.132215
C	 1.9114360048	 2.4715954571	 1.1439422882	-0.147377
C	 3.299169784	 1.8019053214	 1.3321106888	-0.17633
N	 3.7578892592	 1.5926530618	-0.0919306354	-0.218166
C	 2.6698592255	 1.7317437491	-0.7199006514	 0.206717
O	 2.384523868	 2.9195084967	-1.424447159	-0.256615
C	 1.4927062922	 3.1217255571	-0.2467196011	 0.037892
H	 0.0444870823	 0.1345472384	-0.9021464396	 0.095883
H	 1.3094546368	 2.7892130902	 1.9916968899	 0.126129
H	 4.0521826106	 2.4603055466	 1.7734429612	 0.145072
H	 3.2199755807	 0.8957658098	 1.9490136082	 0.126441
H	 0.7722573916	 3.924623994	-0.3476766302	 0.150758
51.6694	153.4036	176.1386	269.985	371.5549	435.9692	520.3081	637.4952	657.0521	688.8681	720.8333	796.7474	871.635	883.579	921.9799	939.2546	961.1776	995.1603	1025.3821	1045.1459	1101.3631	1103.9841	1174.3958	1186.1066	1257.6089	1293.7478	1397.7782	1435.9231	1481.0877	1614.7174	1796.5909	2912.5898	3008.7544	3093.7953	3162.0275	3203.0585
O=CC12C3CN=C1OC23	O=C[C@@]12[C@H]3C[N][C]1O[C@@H]23	
InChI=1S/C6H5NO2/c8-2-6-3-1-7-5(6)9-4(3)6/h2-4H,1H2	InChI=1S/C6H5NO2/c8-2-6-3-1-7-5(6)9-4(3)6/h2-4H,1H2/t3-,4+,6-/m0/s1
