18
gdb 52252	4.39559	0.8675	0.86417	2.5867	72.36	-0.2491	0.0286	0.2777	1372.0383	0.147598	-439.06654	-439.057969	-439.057025	-439.101012	31.054	
O	 0.3798062549	 1.3774150871	-1.2870866379	-0.328391
C	 0.1982389691	 1.5390420425	-0.0972598524	 0.150534
N	 1.1079039851	 1.2528561317	 0.8677066278	-0.265503
C	 2.4238738555	 0.7066933792	 0.5580720352	-0.186337
C	 3.3945783952	 1.7514994198	 0.0138967047	-0.006319
C	 3.8681644467	 2.912988425	 0.9671631989	-0.274571
C	 5.304051445	 2.4041433528	 0.7910433617	 0.041604
O	 5.3279913447	 1.0419778286	 1.2364164504	-0.249253
C	 4.8668178908	 1.3138263128	-0.0946532902	 0.006077
H	-0.7466702439	 1.9375266081	 0.3240113105	 0.074288
H	 0.8679294038	 1.4460221103	 1.8260153388	 0.250775
H	 2.8344771481	 0.2657744784	 1.4693268508	 0.122172
H	 2.2946932589	-0.0898747616	-0.1822814479	 0.132151
H	 3.0171149389	 2.1475680447	-0.9311806177	 0.10988
H	 3.6971817343	 3.9023402114	 0.5375351683	 0.112602
H	 3.4973992211	 2.8938859809	 1.9958812285	 0.098517
H	 6.2385997066	 2.9513592032	 0.8286394758	 0.106448
H	 5.3746345852	 0.8067242052	-0.9069620553	 0.105327
41.8431	71.463	135.9982	160.8878	250.7954	287.386	386.456	441.5534	507.5098	553.4096	727.4815	758.5462	817.1486	841.0546	867.2324	892.0694	934.4945	965.4202	975.1554	1003.1829	1032.8857	1048.1479	1079.056	1112.2311	1169.4276	1213.3383	1225.0316	1238.2706	1246.4493	1279.2756	1282.8822	1352.7349	1378.962	1406.6088	1428.3839	1468.4498	1477.5016	1524.903	1799.9117	2932.4599	3053.2819	3060.8184	3094.1293	3115.6585	3123.2077	3180.9509	3196.5033	3647.5758
O=CNCC1CC2OC12	O=CNC[C@H]1C[C@H]2O[C@@H]12	
InChI=1S/C6H9NO2/c8-3-7-2-4-1-5-6(4)9-5/h3-6H,1-2H2,(H,7,8)	InChI=1S/C6H9NO2/c8-3-7-2-4-1-5-6(4)9-5/h3-6H,1-2H2,(H,7,8)/t4-,5-,6+/m1/s1
