17
gdb 28884	2.39842	1.84036	1.05062	3.7472	79.46	-0.2177	0.0041	0.2218	1099.0639	0.139009	-414.27103	-414.262709	-414.261765	-414.303483	32.259	
C	-0.1427894283	 1.55817381	 0.0112608838	-0.545981
C	-0.0469192063	 0.0554963672	 0.0025717286	 0.169321
C	-0.0203399202	-0.6910106413	-1.184095661	 0.31156
N	-0.0526560749	-0.0846008925	-2.4213426007	-0.568697
N	-0.0117104826	-2.0367702632	-1.2014862212	-0.341362
C	-0.0187096471	-2.6261348858	-0.0120905991	 0.061218
N	 0.0022135256	-2.0496725419	 1.1834434878	-0.341363
C	-0.0065376211	-0.7037990876	 1.1807214975	 0.311635
N	-0.0243038605	-0.1108403852	 2.4247069782	-0.568702
H	 0.8382740096	 2.0544374548	 0.0084295767	 0.122531
H	-0.6948542222	 1.9206465569	-0.86172703	 0.133936
H	-0.6849630011	 1.9111377717	 0.8942926321	 0.133921
H	 0.3656054669	 0.8267635115	-2.5099115518	 0.252031
H	 0.1510028571	-0.7178894245	-3.1801033093	 0.256348
H	-0.0267213116	-3.7147445354	-0.0179323701	 0.105197
H	 0.1880827303	-0.7521746097	 3.1742432835	 0.256363
H	 0.3944719964	 0.7997740551	 2.5182523951	 0.252044
119.7355	131.3747	225.8814	272.098	318.1728	341.2948	417.6907	422.1067	507.5732	522.8601	527.8147	539.8421	572.0787	575.8452	702.4836	721.2406	826.0827	901.7459	951.2388	1000.6064	1046.2253	1057.0774	1059.1542	1204.8619	1216.7698	1322.414	1352.4153	1364.1	1409.4258	1473.4808	1483.8109	1503.6286	1508.3308	1615.592	1619.2285	1643.0157	1643.8763	3003.6317	3069.5923	3100.0984	3148.1384	3585.1656	3585.9321	3701.9564	3702.1694
CC1=C(N)N=CN=C1N	Cc1c(N)ncnc1N	
InChI=1S/C5H8N4/c1-3-4(6)8-2-9-5(3)7/h2H,1H3,(H4,6,7,8,9)	InChI=1S/C5H8N4/c1-3-4(6)8-2-9-5(3)7/h2H,1H3,(H4,6,7,8,9)
