21
gdb 90774	2.46707	1.5721	1.37284	2.3007	77.14	-0.2494	0.068	0.3173	1065.1043	0.184266	-424.225816	-424.217689	-424.216745	-424.258481	32.511	
C	 0.3352811594	 1.5757541383	-0.1424746911	-0.4156
C	 0.3036269185	 0.0608178438	-0.0549574353	 0.136932
O	 1.2247215925	-0.486812083	-1.0109712632	-0.279514
C	 1.3363347378	-1.8756392899	-0.6877455306	-0.117602
C	 1.4285144044	-1.90231083	 0.8342067368	-0.068593
C	 2.7687697421	-1.3092463289	 1.4000118321	 0.139897
O	 3.7598784737	-1.0023116477	 0.4486992881	-0.435923
C	 1.9791243137	-0.1043982011	 1.9844782252	-0.271394
C	 0.6819177395	-0.6001243124	 1.2876460556	-0.052151
H	 1.3325497174	 1.9700862515	 0.0684171546	 0.124531
H	 0.0486150604	 1.9015949338	-1.1460720257	 0.128566
H	-0.367450357	 2.0114013834	 0.574326898	 0.118908
H	-0.7099612498	-0.2882305549	-0.318128915	 0.067443
H	 0.4516010853	-2.4248097523	-1.0446371194	 0.093051
H	 2.2259057418	-2.2653960381	-1.187368815	 0.121466
H	 1.1147302389	-2.848891246	 1.2768084586	 0.068
H	 3.2583096216	-1.9389369431	 2.1467213922	 0.08502
H	 3.340841034	-0.4522783757	-0.2277825477	 0.28662
H	 1.9103965106	-0.1142516028	 3.0754238796	 0.100677
H	 2.3652945148	 0.871560835	 1.6786030185	 0.101023
H	-0.1885364195	-0.7114019799	 1.9363681438	 0.068644
58.8342	172.6954	219.3006	258.7612	316.9865	339.8244	398.3816	493.0057	515.366	566.204	580.7815	700.4344	740.2137	798.1075	806.6278	859.8678	890.8261	925.4339	965.977	978.9045	1012.4608	1026.3454	1048.8554	1070.8199	1103.3144	1118.4781	1148.749	1167.9209	1177.0566	1230.8565	1242.5737	1257.2813	1274.3021	1287.9062	1325.5828	1333.4119	1353.1096	1381.2187	1394.0598	1412.8264	1449.8664	1468.6051	1483.2746	1501.8661	1507.388	2947.9212	2988.3644	3047.0989	3057.1031	3078.3187	3089.9114	3102.8066	3109.6463	3111.3469	3118.6895	3126.3496	3741.3055
CC1OCC2C(O)CC12	C[C@H]1OC[C@H]2[C@@H](O)C[C@@H]12	
InChI=1S/C7H12O2/c1-4-5-2-7(8)6(5)3-9-4/h4-8H,2-3H2,1H3	InChI=1S/C7H12O2/c1-4-5-2-7(8)6(5)3-9-4/h4-8H,2-3H2,1H3/t4-,5+,6-,7+/m1/s1
