19
gdb 69355	3.12003	1.20374	1.04019	3.6093	76.12	-0.2443	-0.0187	0.2256	1193.0328	0.156827	-423.004562	-422.995491	-422.994547	-423.038074	34.461	
C	-0.0711168034	 1.6099045145	 0.1157731725	-0.456645
C	 0.0218140098	 0.0916554279	 0.1161352799	 0.222866
C	 1.0500772514	-0.6022369426	-0.8707696506	-0.366475
C	 1.7170307891	-1.2853873123	 0.326112378	 0.417144
O	 2.1174089586	-2.6081549055	 0.33358364	-0.463344
C	 2.2248567916	-0.269596663	 1.303074376	-0.359623
C	 0.7488507344	-0.6135832047	 1.2878964172	-0.147969
C	-1.3342631758	-0.552779093	-0.0773411531	 0.129895
O	-2.3725160867	 0.0420600459	-0.2130200249	-0.263515
H	 0.9101906499	 2.0698289651	 0.2596123044	 0.109119
H	-0.4850558971	 1.9710928275	-0.830012107	 0.129129
H	-0.7346399153	 1.9558736121	 0.9133734748	 0.130419
H	 0.5695910702	-1.3198469343	-1.5411989412	 0.118003
H	 1.667105878	 0.0814000449	-1.4621442788	 0.10166
H	 3.0503111838	-2.6467732925	 0.0955199979	 0.288257
H	 2.7547287252	-0.696533523	 2.1489634889	 0.119615
H	 2.5886584937	 0.7043424744	 0.9854788969	 0.109376
H	 0.2623118221	-1.0121088373	 2.1702828808	 0.1007
H	-1.3052314595	-1.6675715443	-0.0850249218	 0.081388
88.3476	111.8097	191.3079	217.5477	249.1127	277.7915	351.8303	376.7417	397.4907	413.8502	429.8383	513.0352	652.9593	730.5548	780.6035	824.1546	872.3992	897.6816	940.4375	961.9758	981.7869	1013.2142	1030.3609	1051.2167	1076.174	1108.1013	1149.3872	1160.0448	1219.4739	1256.1092	1276.5279	1296.0416	1321.531	1401.3373	1412.1736	1433.2426	1475.9785	1486.1181	1489.6716	1505.4111	1826.6936	2861.0136	3046.0072	3049.1797	3104.9891	3109.6068	3116.5787	3120.9684	3182.7319	3203.1962	3794.7804
CC1(CC2(O)CC12)C=O	C[C@]1(C[C@@]2(O)C[C@@H]12)C=O	
InChI=1S/C7H10O2/c1-6(4-8)3-7(9)2-5(6)7/h4-5,9H,2-3H2,1H3	InChI=1S/C7H10O2/c1-6(4-8)3-7(9)2-5(6)7/h4-5,9H,2-3H2,1H3/t5-,6-,7-/m0/s1
