17
gdb 40555	4.07518	1.19922	1.05238	3.17	73.68	-0.2436	-0.0129	0.2307	1149.4112	0.137301	-417.960521	-417.953077	-417.952133	-417.993377	28.014	
C	-0.2540229694	 1.3811059072	-0.1284119413	-0.165541
O	 1.0786817157	 1.076400453	 0.2490424395	-0.212988
C	 0.1622196499	-0.011173426	 0.1336882769	-0.01345
C	-0.2372975124	-0.6998352813	 1.3884744354	 0.330831
N	-0.297022088	-0.1471711497	 2.5338840418	-0.269567
C	-0.7199924397	-1.1729893406	 3.4995517191	-0.191267
C	-1.003083303	-2.4183449953	 2.659350395	-0.032917
C	-2.0054343231	-2.3149204094	 1.5754658961	-0.251015
N	-0.5606760011	-2.0972549065	 1.2787664485	-0.160784
H	-0.8454353918	 1.8904658622	 0.6296995594	 0.131702
H	-0.394296413	 1.7099884476	-1.1575687441	 0.118267
H	 0.3398406418	-0.6779918802	-0.7070125634	 0.111315
H	 0.0881658605	-1.3524638428	 4.2184728648	 0.124148
H	-1.5842136733	-0.8168539442	 4.0716902287	 0.119722
H	-0.7190896246	-3.3962826605	 3.0329225625	 0.106316
H	-2.4234111099	-3.213839527	 1.1337516519	 0.127373
H	-2.6514447485	-1.4409142765	 1.5516370294	 0.127856
35.9561	147.2552	190.0955	279.2917	336.4876	386.1942	405.8982	663.5591	718.2347	753.6511	783.5207	823.9216	868.49	873.2851	911.5125	931.5549	979.6157	988.8208	1043.7666	1078.9278	1086.5158	1100.4126	1110.4194	1153.2817	1163.0328	1170.8087	1192.6193	1204.1324	1259.6854	1281.7198	1328.7299	1371.26	1436.9175	1485.1554	1503.4762	1512.2442	1705.2798	3035.1846	3065.7696	3084.3408	3112.6557	3144.2978	3169.9804	3183.5842	3206.5907
C1OC1C1=NCC2CN12	C1O[C@H]1C1=NC[C@H]2CN12	
InChI=1S/C6H8N2O/c1-4-2-8(4)6(7-1)5-3-9-5/h4-5H,1-3H2	InChI=1S/C6H8N2O/c1-4-2-8(4)6(7-1)5-3-9-5/h4-5H,1-3H2/t4-,5+,8?/m0/s1
