21
gdb 113250	3.90817	0.85137	0.82841	1.1369	85.24	-0.2392	0.0514	0.2905	1485.7955	0.178893	-387.034071	-387.02362	-387.022676	-387.069529	38.26	
C	-0.2117941611	 1.1329554018	-0.1497812662	-0.237579
O	 0.6130977427	 0.0080438477	 0.0847319006	-0.232212
C	 0.9218790927	-0.6894308358	-1.0790760891	 0.073026
C	 1.4063425559	-2.0957929589	-0.9105476627	-0.352783
C	 0.0493330964	-1.8421187515	-1.5435254468	 0.307024
C	-1.1853522496	-2.2020116417	-0.743922498	-0.463015
C	-0.0674979175	-2.0478543788	-3.0538734754	-0.432012
C	-0.2287041971	-3.4483150592	-3.4373014768	 0.326537
C	-0.3607139975	-4.606856356	-3.7297739972	-0.460517
H	 0.2705989772	 1.8493391239	-0.83216486	 0.107236
H	-1.1830326113	 0.8471698351	-0.5770645035	 0.110559
H	-0.3745768246	 1.6192951588	 0.8147651793	 0.128499
H	 1.3887077115	-0.072990775	-1.8513578097	 0.076382
H	 2.2240612169	-2.4441853429	-1.532358258	 0.114479
H	 1.4122432049	-2.481269172	 0.1032120532	 0.122609
H	-1.0553520498	-1.9379028851	 0.3077612096	 0.129188
H	-2.0691368318	-1.6719355207	-1.1195053696	 0.108225
H	-1.3900103674	-3.2752282618	-0.8120081346	 0.12993
H	-0.9196222706	-1.4681482587	-3.4356266492	 0.125858
H	 0.8231692335	-1.6416210527	-3.550409982	 0.124054
H	-0.4762986832	-5.6277701566	-3.9972546238	 0.19451
57.3789	97.9776	115.2435	161.963	177.6532	217.547	250.567	317.8605	346.0206	350.2468	379.0106	440.0363	467.8074	612.91	618.8005	638.1247	730.024	812.4972	870.7404	906.2936	947.3759	968.4241	984.6911	1028.8167	1068.262	1079.1965	1120.5679	1128.663	1176.5124	1183.7518	1217.8489	1245.9703	1270.71	1328.5348	1357.891	1406.1746	1415.5957	1462.652	1473.6154	1485.5599	1493.5847	1497.18	1506.076	1508.4985	2235.8498	2983.8348	3006.8911	3027.7733	3037.8071	3042.1867	3067.243	3089.2409	3119.7037	3128.0647	3133.5915	3221.4737	3506.6038
COC1CC1(C)CC#C	CO[C@H]1C[C@]1(C)CC#C	
InChI=1S/C8H12O/c1-4-5-8(2)6-7(8)9-3/h1,7H,5-6H2,2-3H3	InChI=1S/C8H12O/c1-4-5-8(2)6-7(8)9-3/h1,7H,5-6H2,2-3H3/t7-,8-/m0/s1
