17
gdb 82748	2.32014	2.21964	1.57368	1.2476	66.12	-0.2348	0.0497	0.2845	893.1862	0.136205	-458.91009	-458.903019	-458.902075	-458.941179	28.875	
C	 0.0185022207	 1.4808392046	 0.019136713	-0.520199
C	 0.0090368647	-0.0140628224	 0.0680951496	 0.327372
O	 0.8282601474	-0.7022143593	-0.9375059427	-0.323987
C	 0.8265825668	-1.8065843764	-0.0332681649	 0.072439
C	-0.6694081259	-2.1265743965	 0.3872428315	-0.036905
O	-0.3605806181	-1.7705977829	 1.7766741373	-0.314224
C	 0.6604607019	-0.9306505903	 1.2072401709	 0.002556
C	-1.3223156316	-0.8062580919	-0.0849779684	 0.154206
O	-2.3865128817	-0.3861430143	 0.7233825912	-0.447744
H	 1.0081893294	 1.8868294372	 0.2463991465	 0.125408
H	-0.2768903449	 1.8292228166	-0.9760494553	 0.137144
H	-0.7041602047	 1.870709541	 0.7420538313	 0.139352
H	 1.5538170734	-2.5929225088	-0.2236696674	 0.101408
H	-1.181390429	-3.0802919903	 0.2805855009	 0.092743
H	 1.4134132986	-0.554677213	 1.8973754131	 0.101111
H	-1.6463223076	-0.8098008877	-1.1272452488	 0.100087
H	-2.1433616592	-0.6487257057	 1.6233514525	 0.289234
176.5292	211.0303	225.2195	291.8071	374.9163	498.1022	531.8577	555.4288	565.0478	678.7528	725.6185	759.4548	813.8782	841.8263	857.6053	870.7695	891.6056	930.5534	972.3554	1007.6536	1027.695	1092.9101	1116.7992	1138.0563	1145.2932	1167.7603	1204.1526	1237.8707	1256.0763	1275.5582	1295.3977	1312.3755	1366.7383	1414.6702	1431.7702	1477.6971	1489.8409	3040.3462	3107.8743	3110.186	3121.6167	3139.4849	3148.6642	3157.7597	3730.3453
CC12OC3C(OC13)C2O	C[C@@]12O[C@@H]3[C@@H](O[C@H]13)[C@H]2O	
InChI=1S/C6H8O3/c1-6-4(7)2-3(9-6)5(6)8-2/h2-5,7H,1H3	InChI=1S/C6H8O3/c1-6-4(7)2-3(9-6)5(6)8-2/h2-5,7H,1H3/t2-,3-,4-,5+,6+/m1/s1
