23
gdb 91621	2.12193	1.86551	1.35259	0.2418	89.82	-0.2207	0.0305	0.2512	1097.3573	0.208141	-351.181333	-351.173043	-351.172099	-351.213558	33.893	
C	-0.2120298917	 1.5336101047	-0.0046452611	-0.415901
C	 0.0260269837	 0.0249265989	 0.0117016915	 0.063077
C	 0.8692929419	-0.5133758108	-1.1911882573	-0.222835
C	 2.0029300025	-1.3318162821	-0.4896390467	-0.046753
C	 1.224682962	-1.9202507246	 0.7124424708	-0.215521
C	 0.8248458475	-0.527190783	 1.2496017795	-0.11445
C	 2.189196223	 0.1608552015	 1.2755041619	 0.357918
C	 2.5790207129	 1.219557594	 2.2547832022	-0.514347
C	 2.8810145986	-0.3243433519	 0.2363469496	-0.19291
H	 0.7340766705	 2.0835300622	-0.0360022467	 0.118052
H	-0.7913930571	 1.8270843285	-0.8868643904	 0.109954
H	-0.7692568684	 1.8630369211	 0.8799687048	 0.105171
H	-0.9498872087	-0.4746193467	 0.0128203627	 0.065447
H	 0.2679021457	-1.1540141851	-1.8441326797	 0.089584
H	 1.2764075008	 0.2946218528	-1.8058258689	 0.091724
H	 2.5209039837	-2.0355735062	-1.1427279142	 0.05255
H	 0.3684148002	-2.5395057149	 0.4217678	 0.081999
H	 1.8651868463	-2.4764956013	 1.4015530491	 0.089718
H	 0.2602734047	-0.4921971868	 2.1842225506	 0.047103
H	 2.5382569565	 0.8417064242	 3.2847783832	 0.122371
H	 3.5940143568	 1.5829620213	 2.0679812371	 0.120661
H	 1.8987579157	 2.0794468284	 2.2150509693	 0.125876
H	 3.8569917527	 0.0032498557	-0.1033802775	 0.081512
139.1951	162.1377	184.7236	249.5742	303.2383	308.7187	397.3611	463.7566	466.4274	534.8614	601.6871	668.3948	791.5461	800.8463	831.0449	839.2648	869.3479	909.472	934.5924	942.4562	947.9396	973.463	1010.6414	1026.7437	1046.209	1068.363	1082.0719	1123.0302	1140.4427	1170.6256	1175.8265	1222.3986	1229.1708	1260.5728	1281.9604	1288.3592	1306.2852	1332.2007	1356.254	1377.271	1404.4519	1412.192	1477.7764	1487.7984	1489.5947	1496.5193	1502.9934	1505.0507	1694.1794	3014.65	3023.0427	3025.2524	3039.7068	3047.0406	3060.5295	3085.1895	3086.2269	3090.3002	3099.7176	3101.88	3102.7508	3105.3648	3192.5257
CC1CC2CC1C(C)=C2	C[C@H]1C[C@@H]2C[C@H]1C(=C2)C	
InChI=1S/C9H14/c1-6-3-8-4-7(2)9(6)5-8/h3,7-9H,4-5H2,1-2H3	InChI=1S/C9H14/c1-6-3-8-4-7(2)9(6)5-8/h3,7-9H,4-5H2,1-2H3/t7-,8+,9-/m0/s1
