13
gdb 25341	3.20515	1.34248	0.94618	6.2635	72.08	-0.2482	-0.1116	0.1365	1132.034	0.088919	-452.765966	-452.758462	-452.757518	-452.79896	26.811	
N	-0.0052349308	 1.3263668066	 0.009529431	-0.501319
C	-0.0321416714	 0.0640535101	 0.0033793922	 0.430109
O	 1.2080475803	-0.6529368096	-0.0071389286	-0.222958
C	 1.2110363698	-1.9866151846	-0.0142495673	 0.106737
C	 0.0759257009	-2.7105758783	-0.0120266769	-0.245468
C	-1.1501180483	-1.9565948905	-0.0015328088	 0.208016
C	-2.4583171077	-2.7203547616	 0.0013295373	 0.119326
O	-3.5424815807	-2.2087734091	 0.0095574479	-0.212043
N	-1.2023520115	-0.6634701141	 0.005588444	-0.28591
H	 0.9551115349	 1.6675774686	 0.0061458812	 0.233565
H	 2.2164167165	-2.3945296017	-0.0217854024	 0.155771
H	 0.0934973899	-3.7913828789	-0.0178563873	 0.127736
H	-2.328519962	-3.825699897	-0.0054210323	 0.086439
55.6266	99.0013	192.2701	193.7971	381.9539	407.4961	483.7834	576.1578	612.3163	653.3838	714.7251	768.9305	789.7468	842.4496	855.9478	960.1197	967.3905	1025.2657	1076.5257	1111.7604	1157.0981	1248.1621	1302.1099	1428.8115	1455.2316	1583.9372	1680.3457	1736.9304	1840.2541	2885.6537	3196.8179	3234.5022	3512.4654
N=C1OC=CC(C=O)=N1	[NH]C1=NC(=CCO1)C=O	
InChI=1S/C5H4N2O2/c6-5-7-4(3-8)1-2-9-5/h1-3,6H	InChI=1S/C5H5N2O2/c6-5-7-4(3-8)1-2-9-5/h1,3,6H,2H2
