17
gdb 81321	3.96933	1.14488	1.06445	4.9997	81.67	-0.2293	-0.0514	0.1779	1164.9066	0.136992	-380.826858	-380.819281	-380.818336	-380.858828	29.583	
C	-0.2394127707	 1.4357113122	 0.0348934971	-0.334376
N	 0.0298467621	 0.0023551592	 0.0519711495	-0.090919
C	 1.1935616095	-0.4810583558	-0.8109092562	-0.051422
C	 2.1803902275	-0.0464766696	 0.3238183527	-0.231919
C	 0.9424587917	-0.5015127263	 1.1584830313	-0.120132
C	 0.9097057293	-2.0035061039	 0.8032974388	 0.293993
C	 1.0795715567	-1.9785191321	-0.529138476	-0.171984
C	 0.7234746747	-3.0779095763	 1.6950072106	 0.159144
N	 0.5761386198	-3.9404891506	 2.4555994747	-0.350108
H	 0.6314349916	 2.1016253838	 0.1481068149	 0.098594
H	-0.7317334951	 1.6828894301	-0.911266716	 0.128547
H	-0.9443053346	 1.662696737	 0.8412949377	 0.131174
H	 1.2575102885	-0.1351262932	-1.8413894772	 0.083403
H	 3.1163813028	-0.5974045037	 0.4396477595	 0.111371
H	 2.3629651313	 1.0286480115	 0.3576758988	 0.114472
H	 0.7441137385	-0.1992681136	 2.1853734526	 0.092068
H	 1.1099791562	-2.7915046188	-1.2385000727	 0.138095
113.0719	152.8313	202.4153	296.4527	304.0312	445.957	462.6956	490.6177	575.3517	595.2665	621.5197	746.5833	781.4687	831.0705	857.3564	867.5326	905.9976	926.097	1000.8955	1034.8737	1080.0105	1113.147	1141.3697	1143.6834	1176.5291	1196.143	1221.4157	1236.879	1257.4571	1279.1346	1295.7578	1441.2869	1476.8659	1499.4615	1511.3333	1641.909	2333.8855	2964.4279	3063.7312	3073.6587	3101.7993	3134.6957	3137.6954	3143.1794	3255.1279
CN1C2CC1C(=C2)C#N	CN1[C@H]2C[C@@H]1C(=C2)C#N	
InChI=1S/C7H8N2/c1-9-6-2-5(4-8)7(9)3-6/h2,6-7H,3H2,1H3	InChI=1S/C7H8N2/c1-9-6-2-5(4-8)7(9)3-6/h2,6-7H,3H2,1H3/t6-,7-/m1/s1
