19
gdb 112937	2.8084	1.03448	0.92024	1.5144	71.66	-0.2419	-0.0243	0.2177	1339.951	0.156796	-460.159422	-460.149663	-460.148719	-460.196106	34.35	
C	 0.6603872019	-0.1086950246	 0.6155110436	-0.47659
C	-0.249262831	 0.1066480643	-0.5733836392	 0.350255
O	 0.0948688578	 0.6745134547	-1.583860083	-0.291431
C	-1.6771608606	-0.41891335	-0.4304029833	 0.055268
C	-2.3666105831	-0.9403727321	-1.7018518334	-0.329288
C	-2.434853235	-2.2843614959	-0.9483910673	 0.129914
C	-1.6448254692	-3.4571572655	-1.4978836112	-0.065183
O	-1.4919543222	-4.4634639802	-0.5174056954	-0.419505
O	-1.7460839869	-1.7183291904	 0.2091316085	-0.32812
H	 1.6530378865	 0.2887049091	 0.4025523905	 0.142592
H	 0.2433845759	 0.3859995387	 1.5006941723	 0.14317
H	 0.712798097	-1.1752872217	 0.8515684704	 0.153152
H	-2.2538127834	 0.3269445378	 0.1379599559	 0.103282
H	-3.3253634229	-0.4823067928	-1.941992374	 0.117856
H	-1.7239826732	-0.9257054334	-2.58379413	 0.132964
H	-3.4407477965	-2.6100562044	-0.6591838699	 0.089633
H	-2.1775784494	-3.906598103	-2.3437109748	 0.112743
H	-0.6702567773	-3.0970022694	-1.8675576912	 0.087095
H	-1.1242948586	-4.0266236211	 0.2603086614	 0.292191
21.8547	42.2163	106.8095	116.7159	193.9721	234.0616	283.5874	372.3905	419.618	441.1913	489.3226	511.6281	592.5574	704.8535	793.5851	875.0633	888.3429	944.3632	968.5632	1003.6295	1022.9935	1042.9647	1071.8632	1101.0715	1115.8381	1159.281	1206.8614	1218.9675	1254.4218	1263.2475	1306.5791	1343.8389	1354.7088	1378.5545	1398.2289	1434.1152	1462.0872	1467.3373	1493.387	1498.467	1813.4249	2968.3178	2988.7926	3042.4254	3042.6716	3070.4181	3091.1245	3109.0687	3148.751	3160.0172	3791.4118
CC(=O)C1CC(CO)O1	CC(=O)[C@H]1C[C@@H](CO)O1	
InChI=1S/C6H10O3/c1-4(8)6-2-5(3-7)9-6/h5-7H,2-3H2,1H3	InChI=1S/C6H10O3/c1-4(8)6-2-5(3-7)9-6/h5-7H,2-3H2,1H3/t5-,6+/m0/s1
