19
gdb 98538	3.55295	1.07701	0.9033	1.806	77.03	-0.2426	-0.0187	0.224	1321.9338	0.157546	-423.004958	-422.995979	-422.995035	-423.039358	32.874	
C	-0.165099202	 1.545549322	-0.0347077806	-0.379167
C	-0.2780491644	 0.0631861699	-0.3805109972	-0.29721
C	 0.9663186688	-0.4926918631	-1.0611133452	 0.281175
O	 1.9103176125	 0.2155667138	-1.3519560001	-0.335125
C	 0.9732550198	-1.9416324683	-1.3701773489	 0.173569
C	 2.2662477076	-2.6651389313	-1.7349262432	-0.337499
C	 1.1907890128	-2.6018304678	-2.7458672638	 0.083159
O	 0.1811944323	-3.5757158506	-2.5167893016	-0.277504
C	-0.1425024464	-2.9771261044	-1.2318802205	-0.153344
H	 0.6731933989	 1.7248946567	 0.6432763804	 0.1316
H	 0.0132981737	 2.1408006238	-0.9332923496	 0.13438
H	-1.0815735564	 1.9015683849	 0.4439061822	 0.108801
H	-0.4754718856	-0.5427118826	 0.515300504	 0.120435
H	-1.1354833069	-0.1211444813	-1.0427617782	 0.126354
H	 3.0921981224	-1.9773452544	-1.8801548565	 0.149478
H	 2.4963079207	-3.6133866898	-1.2576246754	 0.120767
H	 1.262359349	-2.1534554199	-3.7302062004	 0.124093
H	-0.0636175668	-3.6951356997	-0.4073144047	 0.111778
H	-1.15200505	-2.5537784579	-1.2586592005	 0.114262
56.5811	74.0016	155.7436	164.9733	201.3508	286.3497	320.5989	383.5517	449.7195	498.8229	566.3603	699.467	755.6128	780.3594	833.8485	857.1733	934.7569	964.1875	978.6492	987.4335	1009.7199	1052.0518	1058.2126	1084.6573	1092.4864	1107.1686	1127.1323	1164.8919	1230.9836	1279.0403	1306.4322	1308.4166	1363.3447	1407.3648	1413.2885	1452.5012	1462.273	1490.819	1497.3547	1517.2942	1771.8511	3012.9194	3029.0027	3040.5701	3052.5493	3080.9482	3122.3699	3123.3862	3130.3184	3187.0766	3228.8884
CCC(=O)C12CC1OC2	CCC(=O)[C@]12C[C@H]1OC2	
InChI=1S/C7H10O2/c1-2-5(8)7-3-6(7)9-4-7/h6H,2-4H2,1H3	InChI=1S/C7H10O2/c1-2-5(8)7-3-6(7)9-4-7/h6H,2-4H2,1H3/t6-,7-/m1/s1
