12
gdb 7880	4.09501	1.91385	1.30469	3.7137	63.48	-0.2391	-0.068	0.1711	849.5702	0.085133	-414.725133	-414.71838	-414.717436	-414.755886	25.363	
N	 0.050780783	 1.343366702	 0.1012037738	-0.598766
C	-0.0923822743	 0.0020849489	 0.0378016017	 0.263845
C	-1.1464145946	-0.8439354689	 0.0248366815	-0.32049
C	-0.630203097	-2.2008878526	-0.0081073399	 0.422133
N	-1.2652927002	-3.2904528154	-0.0275542299	-0.530567
O	 0.7810968173	-2.1395425355	-0.0182610036	-0.229579
C	 1.1524646353	-0.827520996	 0.0012788975	 0.417802
O	 2.2867604612	-0.4418539224	-0.0192023453	-0.344203
H	 0.9786901276	 1.7064865036	-0.0521384553	 0.280589
H	-0.7271514234	 1.9559264017	-0.0700646998	 0.272595
H	-2.2026771454	-0.6263250258	 0.0377513243	 0.128906
H	-0.6256703895	-4.0853504297	-0.0484432949	 0.237735
168.1818	185.8763	264.3936	295.8532	376.5318	446.9751	515.2144	580.5594	619.9189	657.9691	686.0228	798.4236	811.3933	826.453	883.2824	915.3455	1051.8225	1070.6342	1137.9429	1267.7943	1344.2648	1394.4952	1619.0446	1722.7609	1769.8143	1879.2155	3261.8498	3493.9659	3597.6525	3725.6119
NC1=CC(=N)OC1=O	N[C]1C=C([NH])OC1=O	
InChI=1S/C4H4N2O2/c5-2-1-3(6)8-4(2)7/h1,6H,5H2	InChI=1S/C4H4N2O2/c5-2-1-3(6)8-4(2)7/h1,6H,5H2
