15
gdb 124265	2.84204	1.52314	0.99782	5.4362	70.16	-0.2335	-0.0458	0.1877	1113.871	0.11364	-454.000254	-453.992292	-453.991348	-454.033158	29.295	
C	-0.0224321775	 1.4651134462	 0.1140664575	-0.491869
C	 0.017945533	-0.0443838567	 0.0110765785	 0.323119
O	 0.0489420748	-0.7463327701	 1.0228336759	-0.379007
C	 0.0202209041	-0.6722324539	-1.2941499671	 0.004266
C	-0.0084589875	-0.1738079223	-2.5927004299	-0.135072
N	 0.0115898374	-1.2403015548	-3.4029470205	-0.182015
N	 0.052200164	-2.4412197252	-2.7520127643	-0.307124
C	 0.0573232648	-2.0949007027	-1.4761908375	 0.387662
O	 0.0933458113	-2.9946016278	-0.4983829647	-0.404048
H	 0.8426947173	 1.9066976338	-0.3924602399	 0.141646
H	-0.9217675446	 1.8581644009	-0.3724651097	 0.141634
H	-0.018580524	 1.7581196455	 1.1643319419	 0.148459
H	-0.0406524789	 0.8345362743	-2.9751441953	 0.150241
H	 0.0002189702	-1.2476612373	-4.4085403098	 0.284837
H	 0.0883236956	-2.4677664598	 0.3299389649	 0.317272
79.0947	116.6089	176.6208	194.8955	330.9118	336.3505	467.8162	507.4081	532.9903	590.5634	643.8036	649.9059	733.9357	756.9788	766.3043	805.0233	935.7087	954.5578	1045.8697	1066.5364	1089.5688	1197.6191	1272.0224	1325.5888	1368.6803	1398.6052	1465.7132	1476.172	1485.0609	1499.4013	1534.9819	1638.7932	1718.3739	3039.4265	3101.3428	3154.9735	3258.3601	3485.1923	3680.4479
CC(=O)C1=CNN=C1O	CC(=O)c1c[nH]nc1O	
InChI=1S/C5H6N2O2/c1-3(8)4-2-6-7-5(4)9/h2H,1H3,(H2,6,7,9)	InChI=1S/C5H6N2O2/c1-3(8)4-2-6-7-5(4)9/h2H,1H3,(H2,6,7,9)
