21
gdb 110213	2.28249	1.33942	1.11646	1.773	79.43	-0.2246	0.0702	0.2948	1216.9518	0.180194	-424.185048	-424.175056	-424.174112	-424.219676	36.717	
C	 1.3573409411	 0.7277186499	 1.2919957918	-0.500693
C	 0.6190873314	-0.4868284837	 0.8048392334	 0.176838
C	 1.0671309303	-1.343043831	-0.3760892899	-0.128658
O	 0.586825615	-2.5562754638	 0.2572649617	-0.329211
C	 0.2163739284	-1.8128690158	 1.4312830679	 0.429043
C	 0.4095340453	-2.4918346913	 2.7472423801	-0.487
C	-0.8534026414	-0.8194517643	 1.0561737522	-0.160009
C	-1.6074649418	-0.0947102636	 2.1475421959	-0.100722
O	-2.554980073	-0.9245587626	 2.8099935421	-0.417044
H	 2.4348255769	 0.5337410506	 1.3385976923	 0.122275
H	 1.2043892643	 1.5812546933	 0.6199326227	 0.123537
H	 1.0377635915	 1.0379594016	 2.2902755776	 0.127255
H	 0.5954430805	-1.1627150122	-1.3504210343	 0.097903
H	 2.1575270726	-1.3759542047	-0.4965362724	 0.101816
H	 1.4590545385	-2.7626433871	 2.899629411	 0.120929
H	 0.0808430738	-1.8597457839	 3.5748009906	 0.13495
H	-0.1860848989	-3.4109921274	 2.7782976957	 0.135218
H	-1.4640926865	-1.0736505684	 0.1868901692	 0.073514
H	-0.9303587261	 0.2487959417	 2.9346243357	 0.104437
H	-2.0923795457	 0.8025229097	 1.731397805	 0.093079
H	-3.1267337162	-1.3098610569	 2.1381694015	 0.282544
84.2284	131.6717	146.8268	156.9534	171.1602	235.5734	250.7507	281.8497	315.8845	372.496	425.3706	475.3005	518.917	660.0171	687.3341	761.2909	813.7956	915.3834	938.8597	982.545	994.4647	1014.8338	1042.1159	1070.8494	1092.8991	1116.3413	1121.6438	1153.7874	1183.6619	1203.0044	1233.0621	1266.7722	1328.9926	1364.9088	1374.7901	1412.3614	1417.7162	1430.3249	1463.6372	1471.2066	1487.2373	1495.3285	1507.257	1510.0732	1518.8326	2978.9725	3007.6723	3023.7407	3037.5862	3054.7712	3070.5033	3078.4492	3086.2986	3097.2854	3111.2629	3132.4126	3814.947
CC12COC1(C)C2CO	C[C@@]12CO[C@]1(C)[C@H]2CO	
InChI=1S/C7H12O2/c1-6-4-9-7(6,2)5(6)3-8/h5,8H,3-4H2,1-2H3	InChI=1S/C7H12O2/c1-6-4-9-7(6,2)5(6)3-8/h5,8H,3-4H2,1-2H3/t5-,6-,7+/m0/s1
