18
gdb 70493	2.63765	1.51938	1.11973	4.447	83.88	-0.2489	-0.0412	0.2077	1113.0714	0.148489	-364.839105	-364.830992	-364.830048	-364.87153	31.327	
C	-0.0311350325	 1.5484782687	-0.0102045931	-0.491467
C	 0.0380791774	 0.0408756494	-0.0018023663	 0.238032
C	-0.8257881246	-0.7877704163	 0.9288917755	-0.316134
C	 0.6731842867	-0.7960263685	 1.1014271491	-0.085441
C	 1.4660568598	-1.929597146	 0.4537637063	-0.274871
C	 1.1620240439	-1.7814383702	-1.0165069462	-0.171482
C	 0.4094464684	-0.6968490968	-1.2625064778	 0.16472
C	-0.0305882928	-0.2747881453	-2.547571478	 0.203926
N	-0.400973652	 0.1032958672	-3.5783524599	-0.34803
H	 0.9156532293	 1.9909096225	-0.3383873253	 0.125757
H	-0.8169206955	 1.9041909052	-0.6853178033	 0.140118
H	-0.2531069026	 1.929388249	 0.9908312323	 0.119414
H	-1.4005563753	-0.2493610736	 1.6756868304	 0.116192
H	-1.3172796126	-1.6700824109	 0.5312718754	 0.116892
H	 1.084036114	-0.3108082667	 1.9791333308	 0.093905
H	 2.5445091799	-1.8349905374	 0.6396274352	 0.12306
H	 1.1775420894	-2.919917653	 0.8294135575	 0.124371
H	 1.4982930191	-2.4835351972	-1.7698565627	 0.12104
117.2992	139.1209	201.2827	236.0869	273.3462	322.5557	409.8865	433.8167	516.8453	537.8953	646.1718	676.7695	731.2238	814.9169	819.6756	842.6419	883.1965	948.6529	969.4362	975.7008	1030.5785	1061.1005	1083.5621	1102.3641	1121.6533	1137.8009	1190.2194	1244.3762	1277.3634	1318.529	1340.2546	1392.6674	1421.4425	1467.3716	1485.3921	1488.1901	1500.5774	1659.7273	2335.5215	3016.9185	3032.1494	3044.586	3094.8985	3110.1095	3123.3576	3177.2318	3211.5882	3213.2417
CC12CC1CC=C2C#N	C[C@]12C[C@H]1CC=C2C#N	
InChI=1S/C8H9N/c1-8-4-6(8)2-3-7(8)5-9/h3,6H,2,4H2,1H3	InChI=1S/C8H9N/c1-8-4-6(8)2-3-7(8)5-9/h3,6H,2,4H2,1H3/t6-,8+/m1/s1
