14
gdb 132155	3.21472	1.39004	0.9763	4.285	69.53	-0.2382	-0.0347	0.2035	1118.8941	0.100545	-477.999052	-477.991311	-477.990367	-478.031657	28.393	
C	 0.034400979	 1.4845661664	-0.0879106221	-0.470902
C	-0.0538123138	-0.0031176388	 0.0287530066	 0.404338
N	-1.1238235662	-0.6589123704	-0.1938719679	-0.350671
C	-1.1536114605	-2.0651690342	-0.06934895	 0.247567
N	-2.1888451765	-2.7787111116	-0.2772667695	-0.519572
C	 0.1196174405	-2.6632216601	 0.3254037662	 0.185043
F	 0.1924592335	-3.9775963888	 0.4686489091	-0.043632
C	 1.1957647473	-1.9002435404	 0.5395778511	-0.087443
O	 1.1447740376	-0.5402864794	 0.3979448368	-0.211843
H	 0.7909950568	 1.761363406	-0.8288571425	 0.153734
H	-0.9344964743	 1.8836216717	-0.3827804041	 0.160363
H	 0.3404281366	 1.9211464472	 0.8680118462	 0.153729
H	-2.9619891458	-2.1637314966	-0.5406873508	 0.22471
H	 2.1701281359	-2.2635330911	 0.832814061	 0.154578
94.8653	107.7819	190.5326	305.2041	306.9654	367.2076	394.9873	463.7726	526.2359	570.4261	619.0376	751.4782	770.6965	779.6359	870.0694	906.0775	919.0449	1013.33	1063.6305	1111.2751	1194.4843	1234.6735	1273.7327	1327.2683	1408.1752	1437.7335	1470.651	1474.6603	1684.6517	1712.1416	1737.4435	3051.7264	3109.9807	3175.4423	3246.6294	3462.4292
CC1=NC(=N)C(F)=CO1	C[C@@H]1N=C([NH])C(=CO1)F	
InChI=1S/C5H5FN2O/c1-3-8-5(7)4(6)2-9-3/h2,7H,1H3	InChI=1S/C5H6FN2O/c1-3-8-5(7)4(6)2-9-3/h2-3,7H,1H3/t3-/m1/s1
