18
gdb 9340	5.30389	0.91171	0.81601	1.7601	65.43	-0.2726	0.0118	0.2844	1412.4566	0.15159	-422.113795	-422.104185	-422.10324	-422.149942	32.581	
C	 0.1479531781	 1.3785247783	-0.1104547342	-0.370161
C	-0.0964908899	-0.1202720196	 0.0462253594	-0.304183
C	-1.5621202114	-0.4889344576	-0.0596415238	 0.452252
O	-2.4748147464	 0.2833122257	-0.2030428258	-0.347067
O	-1.7288515493	-1.8290526423	 0.026782768	-0.264893
C	-3.0886555106	-2.3059270608	-0.0370806358	-0.074989
C	-3.0112377523	-3.8196432061	 0.0399891635	-0.068807
O	-2.4352144931	-4.2645087412	 1.2519064161	-0.41834
H	 1.2138242834	 1.6035922841	-0.0172465025	 0.113326
H	-0.1958999401	 1.7313946961	-1.0860288569	 0.132921
H	-0.3944050796	 1.9443471407	 0.6508657365	 0.13518
H	 0.4499717197	-0.7000268879	-0.7068649746	 0.132036
H	 0.2675508816	-0.4854250365	 1.0144347652	 0.131114
H	-3.6523041074	-1.8938827869	 0.8053281046	 0.128168
H	-3.5552070963	-1.9674829501	-0.9675398916	 0.121093
H	-4.0250601991	-4.2311044246	-0.0003995735	 0.116937
H	-2.460275719	-4.200341569	-0.8346185541	 0.095911
H	-1.5755158582	-3.8348435622	 1.3203451895	 0.289504
28.8518	48.0835	85.9923	136.7571	184.8331	212.3771	280.8925	305.4776	385.6513	435.8372	508.5879	579.0609	668.6748	810.7029	843.7667	887.7137	931.3336	1015.2688	1033.5841	1092.6092	1105.0387	1107.4784	1127.0385	1205.8573	1234.4377	1263.466	1278.2666	1368.6831	1388.5154	1403.8008	1417.1885	1434.4513	1459.1378	1493.2248	1495.7459	1498.6984	1501.3728	1824.7973	2984.7764	3040.036	3053.1483	3053.585	3070.422	3082.9039	3107.0704	3125.1951	3130.6115	3809.3784
CCC(=O)OCCO	CCC(=O)OCCO	
InChI=1S/C5H10O3/c1-2-5(7)8-4-3-6/h6H,2-4H2,1H3	InChI=1S/C5H10O3/c1-2-5(7)8-4-3-6/h6H,2-4H2,1H3
