23
gdb 113757	2.78505	0.84534	0.77005	2.8272	87.37	-0.2406	-0.0163	0.2244	1623.1973	0.203167	-388.295915	-388.285154	-388.28421	-388.332809	38.456	
C	-0.463533025	 1.5783737025	 0.7469015637	-0.375773
C	-0.3264585655	 0.054223909	 0.8490708786	-0.198108
C	-1.5596824619	-0.6670129754	 0.3416764685	 0.005714
C	-1.733609928	-0.9727984653	-1.1270667933	-0.307682
C	-1.5594579681	-2.1034418736	-0.1389865328	-0.025261
C	-0.3123083322	-2.9777061409	-0.148240798	-0.08269
C	-0.1315162705	-3.7182275666	 1.1887421455	-0.414366
C	-0.4407256403	-3.9834077231	-1.2784878897	 0.174611
O	 0.3018044307	-4.0701622142	-2.2216372807	-0.253777
H	 0.432439016	 2.082886222	 1.1214602863	 0.111864
H	-0.618402785	 1.8893605957	-0.2913523841	 0.121026
H	-1.3177612413	 1.9379985428	 1.3309937807	 0.114145
H	 0.5559372296	-0.2654990798	 0.283750658	 0.101173
H	-0.1391368949	-0.2242018769	 1.8946401864	 0.096932
H	-2.4690936351	-0.3744792494	 0.8632815357	 0.08279
H	-2.7022316194	-0.8273637031	-1.5923445682	 0.111839
H	-0.8924509209	-0.7564353272	-1.7796255247	 0.120168
H	-2.4634030954	-2.6620615751	 0.0975568311	 0.08341
H	 0.5751379484	-2.3775173189	-0.3676386605	 0.092491
H	-0.9771345289	-4.3880041327	 1.3834020342	 0.119771
H	 0.782780854	-4.3193824681	 1.1922429459	 0.126501
H	-0.0773442784	-3.0036630329	 2.0146386839	 0.130677
H	-1.3177276877	-4.6682006589	-1.1740212166	 0.064546
41.8707	62.6453	85.7294	113.821	183.2842	207.902	232.5547	263.1099	289.7087	323.0083	383.4211	446.7689	512.2087	574.3149	758.7278	793.58	812.3265	858.3218	889.1772	935.4221	953.2961	963.2406	986.5168	1041.1054	1051.2998	1071.588	1106.4981	1114.9956	1147.2177	1158.8747	1193.7756	1200.7061	1247.7208	1274.5963	1297.5461	1315.0133	1343.1492	1397.8788	1403.1522	1411.9079	1428.3132	1433.947	1483.2479	1494.9804	1496.3556	1497.7376	1498.1787	1507.8754	1835.243	2833.4923	3018.2924	3032.5472	3032.9214	3058.7627	3076.4336	3100.4888	3102.2718	3107.236	3114.7214	3116.9126	3124.7287	3127.2699	3210.0278
CCC1CC1C(C)C=O	CC[C@H]1C[C@H]1[C@@H](C)C=O	
InChI=1S/C8H14O/c1-3-7-4-8(7)6(2)5-9/h5-8H,3-4H2,1-2H3	InChI=1S/C8H14O/c1-3-7-4-8(7)6(2)5-9/h5-8H,3-4H2,1-2H3/t6-,7-,8-/m0/s1
