19
gdb 29711	2.40578	1.54691	0.95427	1.1023	80.7	-0.1554	0.0697	0.225	1223.782	0.158246	-419.236855	-419.226499	-419.225554	-419.272055	36.89	
C	-0.0344842753	 1.4352413171	 0.0235349429	-0.345906
N	 0.0338378637	-0.0081665734	 0.0112972487	-0.097788
C	 0.0404959587	-0.7895726622	-1.1041216443	 0.371348
O	 0.0041036771	-0.1723025899	-2.3168513875	-0.44571
C	 0.0817249805	-2.1148790056	-0.7459959966	-0.386727
C	 0.0935355932	-2.1402856649	 0.6856113583	 0.187394
N	 0.2156034528	-3.3201678796	 1.4534583493	-0.609043
C	 0.0522406608	-0.8425233857	 1.1417162693	 0.215383
C	 0.0533481259	-0.2867050019	 2.5248194697	-0.510374
H	 0.767713346	 1.8580812259	 0.6373293159	 0.131326
H	 0.0788914434	 1.799323044	-0.9974562659	 0.157264
H	-0.994190999	 1.7931175685	 0.4161877851	 0.127996
H	 0.1010862983	-0.8469495388	-2.994793537	 0.305546
H	 0.1211919191	-2.9633074345	-1.411918746	 0.077304
H	-0.398012807	-4.0514425234	 1.112188564	 0.234598
H	-0.000879528	-3.1618198017	 2.4302013819	 0.229563
H	 0.994127441	 0.2139209126	 2.7961637255	 0.121821
H	-0.7542707685	 0.439112682	 2.6887169338	 0.118827
H	-0.0944339326	-1.0906401985	 3.252549593	 0.117179
77.0429	102.7403	115.3557	160.2245	189.5914	204.2322	238.6	273.4215	293.4565	319.1843	349.5183	545.6514	596.4263	602.411	637.9487	645.4491	683.6681	734.8241	802.5069	860.6355	1000.2102	1054.9264	1061.0607	1138.7905	1149.1434	1152.7111	1209.9732	1236.9497	1296.7459	1363.129	1419.4327	1459.1411	1465.937	1472.5725	1490.6366	1497.6338	1515.7231	1574.176	1586.8772	1640.8038	1667.5639	2992.086	3021.3385	3032.6341	3075.1481	3092.5796	3153.9908	3240.1611	3512.2235	3600.585	3854.0099
CN1C(O)=CC(N)=C1C	Cn1c(O)cc(N)c1C	
InChI=1S/C6H10N2O/c1-4-5(7)3-6(9)8(4)2/h3,9H,7H2,1-2H3	InChI=1S/C6H10N2O/c1-4-5(7)3-6(9)8(4)2/h3,9H,7H2,1-2H3
