19
gdb 6296	4.06112	1.09089	0.94647	4.7574	70.14	-0.2351	0.0314	0.2665	1254.5575	0.163498	-402.223251	-402.213546	-402.212602	-402.258186	34.019	
C	 0.022932148	 1.5169885567	-0.0854512509	-0.405757
C	 0.0621821083	 0.0046233227	 0.134627152	 0.13672
O	 0.6596194559	-0.3214795761	 1.3862278554	-0.420551
C	-1.3369802193	-0.620995275	-0.020086401	-0.190948
N	-1.3646338988	-2.0705166777	-0.0148018175	-0.027585
C	-1.2293558058	-2.7904516651	 1.2446380409	-0.352662
C	-1.5824530292	-2.767096208	-1.168044052	 0.152636
O	-1.6370112001	-3.9744770463	-1.2700705047	-0.342496
H	 1.0184727923	 1.9413369349	 0.0661944396	 0.133687
H	-0.3111845381	 1.767539061	-1.0971862042	 0.123268
H	-0.6651714753	 1.9985257082	 0.6214820285	 0.111
H	 0.7209320462	-0.45780264	-0.6097941741	 0.101686
H	 0.1824051918	 0.1549721373	 2.0753400719	 0.278507
H	-1.9890512152	-0.2418587263	 0.7818608832	 0.095596
H	-1.7675338137	-0.2773817356	-0.9674693438	 0.115893
H	-2.0075711556	-2.469678077	 1.9491730474	 0.112613
H	-1.3525688219	-3.8518059423	 1.0294761306	 0.163735
H	-0.2524402693	-2.6061815696	 1.6955470296	 0.149826
H	-1.7104695303	-2.0881701717	-2.0353211909	 0.064832
47.4909	81.8338	113.4971	175.1004	226.7273	267.9266	297.6633	309.6952	341.159	364.0363	370.8504	460.0587	492.9101	714.9006	836.7715	878.335	912.1033	942.9614	1027.8663	1066.166	1082.6456	1102.8785	1153.8936	1167.9463	1215.596	1278.777	1319.2399	1331.597	1397.6085	1405.7276	1422.6931	1431.1957	1441.272	1445.7322	1470.6586	1492.1136	1494.772	1496.2066	1528.5314	1797.2412	2923.6293	2988.8844	3022.402	3024.1255	3049.5796	3067.9287	3096.1033	3109.3333	3124.7892	3163.4681	3792.5073
CC(O)CN(C)C=O	C[C@@H](O)CN(C)C=O	
InChI=1S/C5H11NO2/c1-5(8)3-6(2)4-7/h4-5,8H,3H2,1-2H3	InChI=1S/C5H11NO2/c1-5(8)3-6(2)4-7/h4-5,8H,3H2,1-2H3/t5-/m1/s1
