20
gdb 96898	3.28364	1.2947	1.09706	2.727	82.99	-0.2396	0.0383	0.2779	1191.936	0.171056	-403.149994	-403.141437	-403.140493	-403.183275	32.788	
C	-0.1301188408	 1.3924841379	 0.0848479922	-0.336795
N	-0.05644044	-0.0613198381	 0.0949364106	-0.373753
C	-1.1185078479	-0.7290491481	 0.0510818341	 0.492907
O	-2.41822706	-0.2482571618	-0.0087213769	-0.310556
C	-3.2004200474	-1.4904302615	-0.0375015727	 0.431188
C	-4.6674059379	-1.1818114983	-0.1039058588	-0.492193
C	-2.4993044061	-2.323402869	 1.0679682304	-0.269135
C	-1.3114394197	-2.2234720081	 0.0495995237	-0.158432
C	-2.4046792633	-2.3334654118	-1.0687969822	-0.269135
H	 0.438074092	 1.7728196175	-0.7717710685	 0.122515
H	-1.148818594	 1.7938591981	 0.0374526172	 0.122361
H	 0.3595726479	 1.781031869	 0.9851391273	 0.122521
H	-4.8995859426	-0.6054022517	-1.0044387061	 0.133493
H	-5.2476946436	-2.1085605284	-0.1250317505	 0.122497
H	-4.9779239191	-0.5967296654	 0.7669403835	 0.133498
H	-2.3816057515	-1.8568850398	 2.0486104432	 0.111264
H	-2.8940722593	-3.3372533285	 1.1568393184	 0.106132
H	-0.4192027713	-2.8407264444	 0.0920137889	 0.094227
H	-2.7904630536	-3.3482720105	-1.1826698924	 0.106131
H	-2.2005673921	-1.876131437	-2.0395354215	 0.111265
65.1643	122.3579	187.4316	205.9978	243.3433	316.2046	334.1124	458.332	495.1823	537.25	586.7093	676.3081	732.1084	798.1654	833.3546	856.5124	876.5312	907.9287	946.8441	984.6105	1022.3159	1035.8767	1042.6098	1061.2917	1110.4508	1124.5221	1134.669	1172.4091	1191.9967	1210.2043	1236.4258	1247.3019	1302.1699	1337.1262	1418.1796	1438.4348	1476.6594	1480.8581	1492.1656	1495.3365	1496.4263	1514.9925	1832.3488	3016.0663	3042.8817	3067.4389	3073.6649	3076.1527	3086.8612	3115.2135	3120.2938	3134.9866	3140.2555	3171.8694
CN=C1OC2(C)CC1C2	CN=C1O[C@]2(C)C[C@H]1C2	
InChI=1S/C7H11NO/c1-7-3-5(4-7)6(8-2)9-7/h5H,3-4H2,1-2H3	InChI=1S/C7H11NO/c1-7-3-5(4-7)6(8-2)9-7/h5H,3-4H2,1-2H3/t5-,7+
