21
gdb 111113	3.27003	1.26927	1.16214	1.7976	80.91	-0.2508	0.0916	0.3425	1168.0635	0.18424	-387.043523	-387.035846	-387.034902	-387.075704	31.234	
C	-0.0107133298	 1.5723045071	 0.0882278907	-0.378467
C	 0.0022384327	 0.0412312812	 0.1762815222	-0.232844
C	-1.3983185735	-0.5574467651	 0.0709272365	 0.077885
C	-2.0654660071	-0.6205223969	-1.341461955	-0.094163
C	-1.2405320745	-1.9352233506	-1.5755588607	-0.231508
C	-1.5116508424	-2.1099609207	-0.0386143453	-0.1084
C	-3.0436459921	-2.3240769419	-0.097707412	 0.038692
O	-3.8583617603	-1.227988944	 0.3498434322	-0.252863
C	-3.438325389	-1.262766429	-1.0244034582	 0.039298
H	 0.9966582173	 1.9837901106	 0.2046089907	 0.110821
H	-0.3996365125	 1.9138981689	-0.8769911862	 0.115959
H	-0.6424634444	 2.006998667	 0.8704265208	 0.118215
H	 0.6785012681	-0.3589388938	-0.5867869053	 0.094072
H	 0.4279347465	-0.2601141829	 1.1427095114	 0.096414
H	-2.0310032525	-0.1165807448	 0.8424569826	 0.09228
H	-2.0448834736	 0.2165420898	-2.0393428808	 0.061886
H	-1.6720168145	-2.68315314	-2.2483305672	 0.090367
H	-0.1933612836	-1.7715595692	-1.8327761038	 0.102409
H	-0.9239754331	-2.7811936029	 0.5884973693	 0.059881
H	-3.4933123887	-3.3094414832	-0.0378841097	 0.100254
H	-4.2291126328	-1.3322235396	-1.7636961521	 0.099811
82.706	159.9985	199.8077	294.6308	363.9155	401.7454	435.9928	509.5339	604.5462	681.492	749.6024	800.7219	818.8375	846.549	866.5339	873.7327	897.5543	929.3979	939.4043	955.274	985.2298	1012.2457	1043.5879	1064.4244	1083.4338	1095.3981	1109.0105	1122.6179	1134.481	1213.7021	1222.2384	1244.4469	1259.1585	1260.8301	1271.7638	1290.7551	1304.3838	1347.6864	1392.1689	1411.3769	1412.5748	1487.2314	1498.3863	1504.3578	1519.0627	3020.748	3032.2202	3053.657	3061.3654	3095.5948	3102.2346	3105.4583	3109.2592	3113.4797	3129.9609	3166.6358	3178.7652
CCC1C2CC1C1OC21	CC[C@H]1[C@H]2C[C@@H]1[C@H]1O[C@@H]21	
InChI=1S/C8H12O/c1-2-4-5-3-6(4)8-7(5)9-8/h4-8H,2-3H2,1H3	InChI=1S/C8H12O/c1-2-4-5-3-6(4)8-7(5)9-8/h4-8H,2-3H2,1H3/t4-,5+,6-,7-,8+
