22
gdb 104996	2.2721	1.25886	1.03282	3.998	85.62	-0.2818	0.0364	0.3182	1293.1068	0.193078	-367.226005	-367.215867	-367.214923	-367.261132	37.683	
C	-1.4837755823	-0.196849713	-0.2004440027	-0.388873
C	 0.0322196647	-0.211830521	 0.0336943906	-0.259646
C	 0.8520718787	-0.7296854584	-1.1439695544	 0.371644
C	 2.1867267217	-1.3607869543	-0.8292371569	-0.315613
C	 1.0203041001	-2.2277775713	-1.2418468867	-0.316597
C	 0.7174776364	 0.0995182276	-2.435142438	-0.211292
C	 1.2220333453	 1.5511190941	-2.2764523751	-0.395614
C	 1.4044937108	-0.5293656646	-3.5687363996	 0.272371
N	 1.9525121492	-1.0112025883	-4.4654798798	-0.340856
H	-1.773790709	 0.513671836	-0.9815337522	 0.117852
H	-1.8470380622	-1.1859311258	-0.4981103915	 0.124502
H	-2.0120880386	 0.0950503455	 0.7121056713	 0.117968
H	 0.3713340588	 0.7920210106	 0.3176870536	 0.101698
H	 0.2524497802	-0.8520831012	 0.8955959353	 0.100504
H	 2.9941731064	-1.2449372331	-1.5443108377	 0.131702
H	 2.5072716195	-1.378546732	 0.206944654	 0.110972
H	 0.5358789685	-2.8338525978	-0.4835649469	 0.109691
H	 1.0633053416	-2.6885653334	-2.2220197226	 0.137609
H	-0.3447002074	 0.1327089841	-2.710525441	 0.127766
H	 2.2683354282	 1.5608606873	-1.9600474489	 0.139142
H	 1.1418225666	 2.093484744	-3.2215477673	 0.136091
H	 0.6285814428	 2.0811355852	-1.5282883535	 0.128981
46.8312	94.0879	156.0626	189.2746	204.6381	233.9136	244.9192	285.9102	344.2119	363.8693	401.1226	480.9722	557.1653	581.8462	693.7956	776.4217	790.7965	838.8742	900.2432	912.78	936.5349	949.0244	1016.9509	1030.7181	1056.7629	1079.7596	1088.1094	1094.8311	1112.8005	1144.1196	1190.5755	1256.5419	1272.5029	1317.0654	1345.4091	1350.421	1385.5705	1409.0459	1411.9342	1467.5613	1483.5992	1496.3464	1499.9992	1501.6998	1504.7831	1511.513	2353.184	3027.622	3028.9605	3036.5277	3053.6591	3059.9172	3102.1844	3108.9053	3130.4813	3131.0953	3133.6822	3135.9669	3211.8892	3225.5279
CCC1(CC1)C(C)C#N	CCC1(CC1)[C@@H](C)C#N	
InChI=1S/C8H13N/c1-3-8(4-5-8)7(2)6-9/h7H,3-5H2,1-2H3	InChI=1S/C8H13N/c1-3-8(4-5-8)7(2)6-9/h7H,3-5H2,1-2H3/t7-/m0/s1
