17
gdb 72113	2.75399	1.84246	1.48327	2.4158	71.56	-0.237	-0.01	0.227	922.1157	0.137445	-421.808351	-421.801369	-421.800425	-421.839446	28.432	
O	 0.2074447695	 1.3944231953	-0.1046471583	-0.484954
C	 0.0881512234	 0.0237102645	-0.0572680886	 0.299668
C	 0.8629088465	-0.8044366456	-1.0978397404	-0.263973
C	 0.0385437022	-2.0982419153	-0.899183972	-0.043055
C	-1.3753028033	-1.6386791774	-1.3478087769	-0.240517
C	-1.3118917713	-0.7936326347	-0.0699687606	-0.095985
C	-0.4198454488	-1.9194215307	 0.6107421015	-0.17378
C	 0.3531347778	-0.7706571344	 1.2211941971	 0.364894
O	 0.7041171632	-0.4413850763	 2.3216129755	-0.348349
H	 0.2160483999	 1.716093312	 0.806199821	 0.295598
H	 0.7729925707	-0.4041248697	-2.1113784405	 0.111581
H	 1.9236902206	-0.8946500397	-0.8460649542	 0.109282
H	 0.4733398888	-3.0358435596	-1.2422002101	 0.07732
H	-1.4676896305	-1.1374470728	-2.3165204017	 0.101582
H	-2.1238386118	-2.4313576649	-1.2684395216	 0.10698
H	-2.1560034715	-0.3257980452	 0.4324055322	 0.087815
H	-0.8218250652	-2.7632657654	 1.1633043978	 0.095892
142.9101	188.301	288.7995	334.9049	376.761	441.0742	517.6853	568.0205	637.2688	693.954	765.3916	790.9296	810.3884	841.1888	846.5543	913.2715	946.0588	980.2883	997.1593	1002.2214	1037.648	1056.6809	1090.1454	1109.7882	1131.9419	1178.7602	1187.0157	1197.2786	1248.2245	1268.4628	1283.4657	1295.7591	1356.9424	1403.7481	1496.2747	1517.9425	1870.7683	3046.6094	3055.3852	3102.8365	3106.1354	3126.0253	3142.0771	3170.8401	3767.6158
OC12CC3CC1C3C2=O	O[C@]12C[C@@H]3C[C@H]1[C@@H]3C2=O	
InChI=1S/C7H8O2/c8-6-5-3-1-4(5)7(6,9)2-3/h3-5,9H,1-2H2	InChI=1S/C7H8O2/c8-6-5-3-1-4(5)7(6,9)2-3/h3-5,9H,1-2H2/t3-,4-,5+,7+/m0/s1
