21
gdb 70312	3.01378	1.45044	1.1806	1.9198	80.53	-0.2458	0.0778	0.3236	1123.2887	0.183827	-387.077298	-387.069317	-387.068372	-387.109453	32.457	
C	 0.0922473624	 1.5421241913	-0.0462763572	-0.473433
C	-0.0166711457	 0.0402886846	 0.0623862131	 0.424446
C	-1.2917554198	-0.6154132243	-0.4799619564	-0.320569
C	-2.1710535237	-1.1655674058	 0.6439362705	-0.007306
C	-2.3738354794	-2.6506704488	 0.8137799414	-0.29981
C	-1.4527144159	-1.908330844	 1.749079787	-0.007372
C	 0.0679985779	-2.0136155943	 1.6133317188	-0.276753
C	 0.6786224042	-0.7020033189	 1.1273257015	-0.007443
O	 1.2003227848	-0.6790850558	-0.2102368709	-0.299747
H	 1.0247733185	 1.8981764541	 0.3989226586	 0.124011
H	 0.0725278279	 1.854924603	-1.0965009955	 0.123869
H	-0.7473737728	 2.0298290521	 0.4617974636	 0.118547
H	-1.8578744657	 0.1003176054	-1.0835790752	 0.099818
H	-0.9842760334	-1.4209142491	-1.1540006551	 0.117324
H	-2.9971242186	-0.5269807735	 0.9412095284	 0.081352
H	-3.325609797	-3.0038415028	 1.1962994366	 0.108001
H	-1.9206058588	-3.3077581624	 0.076547853	 0.110829
H	-1.8156357726	-1.7492026405	 2.7596280988	 0.08174
H	 0.5108411955	-2.3050139489	 2.5699143451	 0.102633
H	 0.3388260196	-2.7915382082	 0.8920788007	 0.117611
H	 1.2844374926	-0.1441431431	 1.8419825732	 0.082252
90.3595	195.1129	229.862	261.1975	340.5564	386.55	411.4138	456.0535	484.9053	497.6809	618.3572	742.1162	782.9389	806.7775	826.8094	854.6601	889.7909	899.9688	937.22	965.34	980.9815	1042.8578	1052.0536	1070.4736	1078.7858	1115.2615	1126.1528	1132.1362	1144.4812	1218.476	1231.5929	1237.0441	1267.6417	1316.3338	1332.0568	1341.1591	1373.7175	1406.2792	1411.137	1458.6113	1475.6662	1478.6809	1487.887	1494.4231	1499.2684	3029.0677	3047.7051	3049.7647	3087.0428	3090.2129	3090.5652	3105.0265	3118.1787	3119.7053	3143.904	3153.6292	3204.9159
CC12CC3CC3CC1O2	C[C@]12C[C@H]3C[C@H]3C[C@H]1O2	
InChI=1S/C8H12O/c1-8-4-6-2-5(6)3-7(8)9-8/h5-7H,2-4H2,1H3	InChI=1S/C8H12O/c1-8-4-6-2-5(6)3-7(8)9-8/h5-7H,2-4H2,1H3/t5-,6+,7+,8-/m0/s1
