17
gdb 53108	2.23496	1.0349	0.85326	4.0681	79.83	-0.24	-0.0211	0.2189	1419.8309	0.13246	-421.793278	-421.783199	-421.782255	-421.829623	34.596	
C	 0.1158905281	 1.5012162406	 0.1167841194	-0.501372
C	 0.0585856269	 0.0476528761	 0.055737687	 0.109375
C	 0.0032708923	-1.1541213218	-0.0377008725	 0.034044
C	-0.0281070076	-2.5877764155	-0.0713535041	-0.273137
C	-0.4390734827	-3.3099442985	 1.1845948021	 0.105494
O	-0.7979358391	-2.5782689954	 2.3060742092	-0.417786
C	-1.3687508782	-3.3656950772	-0.0210620052	-0.169874
C	-2.6596742147	-2.6374617839	-0.0052216587	 0.176945
O	-3.6511456703	-3.0359342408	-0.567723864	-0.272169
H	 0.9097154291	 1.8443146297	 0.7889656675	 0.153747
H	 0.3109120854	 1.9256811823	-0.8738923423	 0.159283
H	-0.8307387752	 1.9190415391	 0.4758901849	 0.157634
H	 0.7353973965	-3.0586529278	-0.6831021656	 0.129115
H	 0.0810116136	-4.2333519488	 1.426655081	 0.11856
H	-0.466802772	-1.6765461225	 2.192767786	 0.292808
H	-1.3923371296	-4.2910338169	-0.5859918042	 0.114479
H	-2.6623654824	-1.6908437287	 0.5702501895	 0.082853
44.0422	63.7522	92.104	109.5198	179.7073	217.8945	260.2337	275.1197	347.0644	401.1482	453.6796	484.4505	569.1856	633.1898	745.9242	787.0668	844.6316	948.5492	983.6785	1033.4381	1050.485	1051.1775	1055.3173	1117.4452	1160.0981	1185.9191	1237.0844	1329.4167	1354.5604	1366.4487	1410.8759	1420.2386	1442.8916	1475.1957	1477.6471	1811.1904	2357.2323	2936.7122	3030.9578	3093.2716	3095.4952	3139.0204	3153.3853	3182.8062	3734.0608
CC#CC1C(O)C1C=O	CC#C[C@H]1[C@@H](O)[C@H]1C=O	
InChI=1S/C7H8O2/c1-2-3-5-6(4-8)7(5)9/h4-7,9H,1H3	InChI=1S/C7H8O2/c1-2-3-5-6(4-8)7(5)9/h4-7,9H,1H3/t5-,6+,7-/m1/s1
