19
gdb 69466	4.72965	0.87213	0.81663	2.6438	78.44	-0.2488	0.0263	0.275	1433.5749	0.159466	-419.195914	-419.186996	-419.186052	-419.230497	32.867	
C	 0.0953854837	 1.5866197214	 0.1212292093	-0.484105
C	-0.0186689217	 0.0941634427	 0.0596680848	 0.351746
C	-1.311773157	-0.7111224054	-0.1667961878	-0.328814
C	-0.7715703926	-1.7855083124	 0.8441666542	 0.048556
N	-0.6786776008	-3.1740636471	 0.4531369075	-0.289517
C	-1.4140064441	-4.1642171103	 1.0322942038	 0.153106
O	-2.2409340925	-4.0030539342	 1.9037954206	-0.32043
C	 0.5294577361	-0.9849928477	 0.9609295586	-0.121089
N	 1.135898419	-0.7016215173	-0.3417693515	-0.359854
H	 1.0968952456	 1.8794656664	 0.4461893211	 0.135105
H	-0.0824730735	 2.0328572837	-0.8643714724	 0.123683
H	-0.638152881	 2.008953897	 0.8159574284	 0.120884
H	-2.2221229386	-0.226836475	 0.1940848546	 0.118552
H	-1.4760926784	-1.0471690618	-1.1964181142	 0.094664
H	-1.3507537651	-1.7682836591	 1.7676178135	 0.129499
H	-0.0051284995	-3.4404341928	-0.248299853	 0.242114
H	-1.1678880874	-5.1582379029	 0.6085034348	 0.074842
H	 1.1664009999	-0.9235628992	 1.8367797162	 0.09727
H	 0.9217285979	-1.391712666	-1.0604868985	 0.21379
29.5447	95.8062	160.9704	202.7731	222.8313	281.8786	320.6515	415.2737	430.5083	515.0948	546.53	634.6679	696.0886	790.4101	805.6892	879.1844	929.898	959.6896	977.1473	996.4767	1029.5897	1039.6987	1062.6023	1102.5614	1133.2694	1140.5355	1192.7461	1213.1211	1219.3628	1245.4193	1279.8448	1303.1103	1364.2995	1402.1078	1431.9865	1449.6781	1484.6148	1486.1499	1495.0919	1527.1406	1806.3516	2934.9657	3030.6747	3044.1461	3090.5969	3107.0999	3122.4772	3126.1074	3172.3127	3446.6342	3621.9926
CC12CC(NC=O)C1N2	C[C@]12C[C@@H](NC=O)[C@H]1N2	
InChI=1S/C6H10N2O/c1-6-2-4(7-3-9)5(6)8-6/h3-5,8H,2H2,1H3,(H,7,9)	InChI=1S/C6H10N2O/c1-6-2-4(7-3-9)5(6)8-6/h3-5,8H,2H2,1H3,(H,7,9)/t4-,5-,6+/m1/s1
