15
gdb 42270	3.54192	1.18815	1.09122	3.9976	72.29	-0.2494	-0.0634	0.1859	1122.4846	0.110344	-420.546744	-420.53867	-420.537726	-420.580125	29.717	
O	 0.0982878334	-0.0674899894	 0.2990360417	-0.283882
C	 0.037962144	 1.1270656151	 0.1194007904	 0.238659
C	 1.2211772274	 1.949223907	-0.0866337661	 0.264415
C	 2.1822702003	 2.6517510973	-0.2659587109	-0.429819
C	-1.25767858	 1.9212340299	 0.14715703	 0.007298
O	-2.454696881	 1.1237098042	 0.1355277711	-0.27936
C	-2.8941472862	 1.7349142763	 1.3553657565	 0.111637
C	-1.961791883	 1.4196898353	 2.4764274632	-0.298901
C	-1.6242704075	 2.5396323448	 1.5084779911	-0.146532
H	 3.0437295951	 3.2553830377	-0.4210070202	 0.218606
H	-1.2678297551	 2.6566189934	-0.6667533677	 0.107003
H	-3.9419131907	 1.9962200201	 1.4374859558	 0.111927
H	-2.2729623942	 1.7681806375	 3.4562860935	 0.120577
H	-1.4093050959	 0.4852203214	 2.463292798	 0.147123
H	-1.4563090667	 3.5659872394	 1.8008946236	 0.111251
45.124	124.6678	135.4984	220.9926	259.848	369.0678	443.6144	480.3325	599.6365	657.9773	701.8559	713.497	742.8243	777.596	813.4371	896.309	942.4332	966.2778	999.9839	1010.7766	1046.8766	1053.1868	1059.6867	1094.8888	1140.744	1191.7499	1235.6456	1264.0949	1346.9272	1362.88	1469.4031	1774.9834	2209.1187	3035.5153	3125.5618	3192.2114	3215.048	3222.7886	3492.3113
O=C(C#C)C1OC2CC12	O=C(C#C)[C@H]1O[C@H]2C[C@@H]12	
InChI=1S/C7H6O2/c1-2-5(8)7-4-3-6(4)9-7/h1,4,6-7H,3H2	InChI=1S/C7H6O2/c1-2-5(8)7-4-3-6(4)9-7/h1,4,6-7H,3H2/t4-,6+,7+/m1/s1
