15
gdb 57231	3.02989	0.82636	0.7447	0.9797	90.17	-0.2511	-0.0292	0.2218	1534.3001	0.107573	-383.39128	-383.381292	-383.380348	-383.426054	36.569	
C	 0.0002980886	 1.5428261161	 0.0615030262	-0.388465
C	-0.0052519698	 0.0040125913	 0.0012234323	-0.104861
O	 0.7035036639	-0.4258380738	 1.1655493061	-0.412184
C	-1.3867061155	-0.5120285808	 0.0128673314	 0.349895
C	-2.5076659062	-0.9428455539	 0.0464971527	-0.482597
C	 0.6731121096	-0.4679180046	-1.2190326367	 0.604241
C	 1.2495191562	-0.8672646355	-2.2051041602	-0.417541
C	 1.896704953	-1.3114227598	-3.316252085	 0.307396
C	 2.4714756003	-1.7070299249	-4.3015496005	-0.56576
H	 1.0341309562	 1.8941172592	 0.0685213994	 0.139448
H	-0.5219746568	 1.9603374504	-0.8007031685	 0.137876
H	-0.4980144009	 1.860621541	 0.9797079794	 0.139068
H	 0.697484643	-1.3901578577	 1.1727213891	 0.290983
H	-3.4990235957	-1.3239439667	 0.0716420703	 0.20668
H	 2.9765332141	-2.0520203304	-5.1695162159	 0.195821
69.8881	89.0033	171.788	178.3916	235.6808	240.9542	275.916	325.4703	368.285	439.4523	472.0269	503.9037	545.2888	559.0347	588.9803	601.9768	623.6285	642.9819	651.2822	670.3508	864.363	938.6774	1024.2364	1082.3309	1158.8119	1233.6706	1358.6676	1398.5761	1479.3742	1485.1387	2180.9195	2234.8958	2359.9813	3060.1605	3146.6335	3153.0444	3499.4491	3503.8612	3802.0915
CC(O)(C#C)C#CC#C	C[C@@](O)(C#C)C#CC#C	
InChI=1S/C8H6O/c1-4-6-7-8(3,9)5-2/h1-2,9H,3H3	InChI=1S/C8H6O/c1-4-6-7-8(3,9)5-2/h1-2,9H,3H3/t8-/m1/s1
