16
gdb 51035	2.1294	1.58609	1.15856	5.0078	69.83	-0.2511	0.0021	0.2533	1088.1874	0.124671	-434.066894	-434.058182	-434.057238	-434.100789	30.981	
O	-0.1637219562	 0.0791377775	-0.4592926766	-0.314846
C	-0.0645845972	 1.2218795292	-0.0730906007	 0.157701
N	 1.1224564198	 1.8437573719	 0.1853548639	-0.330675
C	 2.3921780412	 1.1506466204	 0.0847931828	 0.176017
C	 2.743445768	 0.6918183801	-1.3677142563	-0.184183
N	 3.5300888523	 1.9355866106	-1.5414580512	-0.314205
C	 3.5844744595	 2.1428058256	-0.0825407951	-0.21835
C	 2.5527216975	 0.1468796498	 1.1404663233	 0.276806
N	 2.7203689403	-0.6239752496	 1.9848485845	-0.340577
H	-0.9292373732	 1.8916567284	 0.0977772752	 0.094338
H	 1.1148077313	 2.7670266507	 0.590090346	 0.258181
H	 3.3306006214	-0.2339835139	-1.3565376878	 0.120593
H	 1.8931523261	 0.5791057516	-2.0405149196	 0.147314
H	 4.4301309621	 1.818639751	-1.9916061557	 0.232111
H	 3.3994852692	 3.1723145861	 0.2468559602	 0.113814
H	 4.4845736279	 1.7659683707	 0.4179761871	 0.12596
63.2875	120.7014	137.3555	175.471	195.3185	266.5779	343.5501	385.2061	480.5126	539.7863	558.4749	601.3393	687.2875	820.7274	907.7762	936.0496	937.5751	1007.5455	1030.5865	1034.9232	1083.4551	1126.0573	1131.0038	1183.8844	1199.9543	1270.7739	1274.8369	1358.0898	1380.8709	1423.8759	1489.9113	1506.007	1526.6402	1805.5483	2356.905	2952.5903	3016.8127	3038.4535	3062.9351	3131.378	3546.2346	3628.18
O=CNC1(CNC1)C#N	O=CNC1(CNC1)C#N	
InChI=1S/C5H7N3O/c6-1-5(8-4-9)2-7-3-5/h4,7H,2-3H2,(H,8,9)	InChI=1S/C5H7N3O/c6-1-5(8-4-9)2-7-3-5/h4,7H,2-3H2,(H,8,9)
