17
gdb 71461	4.56235	1.1918	1.09821	1.5078	80.8	-0.2253	0.036	0.2614	1128.9223	0.133941	-384.598922	-384.590972	-384.590028	-384.630922	31.618	
C	-0.0375463271	 1.5470985614	 0.0987925348	-0.506555
C	-0.1084196491	 0.0613535942	-0.0505800892	 0.3987
C	 0.4107688844	-0.7195721595	-1.2880368728	-0.320638
C	-0.4780362936	-1.8676035482	-0.7960279838	 0.177439
C	-0.8411414762	-3.0691829235	-1.4551359415	 0.130887
C	-1.1450855668	-4.0928621531	-2.0123095263	-0.394929
C	-0.4264020355	-1.7231412064	 0.7581919766	 0.057995
O	 0.4870392216	-0.6857274957	 1.0653632396	-0.323739
C	-1.3741054861	-0.8879108417	-0.0123006151	-0.24738
H	 1.0086714063	 1.869490001	 0.1341286112	 0.137604
H	-0.5216534851	 2.0411016623	-0.7488280324	 0.126902
H	-0.5277321234	 1.8691790439	 1.0216118833	 0.13511
H	 0.0299980292	-0.3026959362	-2.2235092841	 0.110991
H	 1.491750612	-0.8796515182	-1.3422395581	 0.106944
H	-1.4110772792	-4.9944118151	-2.5054721331	 0.178964
H	-0.5536129858	-2.5542879695	 1.438251008	 0.121538
H	-2.4454561956	-0.7433119158	-0.0045719972	 0.110169
130.684	139.9574	200.1059	275.8211	299.777	431.508	482.0533	493.5103	512.7887	561.9199	576.5213	638.4189	651.5259	736.0271	774.8204	814.8806	842.6636	876.91	924.215	969.6089	989.7716	1011.0431	1040.622	1085.0811	1107.3837	1149.7158	1160.9574	1189.6353	1231.6129	1285.2387	1346.299	1377.1971	1420.3042	1477.6426	1487.2628	1489.183	2229.0544	3039.4095	3053.6902	3110.0567	3119.0895	3122.0916	3208.7633	3224.1117	3504.2164
CC12CC3(C#C)C(O1)C23	C[C@@]12C[C@@]3(C#C)[C@@H](O1)[C@@H]23	
InChI=1S/C8H8O/c1-3-8-4-7(2)5(8)6(8)9-7/h1,5-6H,4H2,2H3	InChI=1S/C8H8O/c1-3-8-4-7(2)5(8)6(8)9-7/h1,5-6H,4H2,2H3/t5-,6-,7-,8+/m0/s1
