21
gdb 39107	3.0172	1.63144	1.52687	1.8595	80.63	-0.2402	0.0781	0.3184	988.2309	0.186327	-387.05742	-387.050451	-387.049507	-387.088431	29.653	
C	-0.0678176589	 1.5545643083	-0.166511219	-0.193361
C	 1.4085777979	 2.138794101	-0.05645859	-0.298417
C	 2.2089836302	 0.8451507694	-0.1503142975	 0.034646
C	 3.3174959181	 0.0457340935	 0.6012492324	-0.005545
C	 3.1288054002	 0.3707040421	 2.0907203784	-0.21346
C	 1.5847365344	 0.1857753545	 2.1229874928	-0.2624
C	 1.3730698202	-0.1470678655	 0.6243142746	 0.463771
C	-0.0192288856	-0.0188775247	 0.0532071205	-0.353792
O	 2.4515010638	-1.1436822	 0.4294828268	-0.372351
H	-0.721727751	 2.0259937628	 0.5712620663	 0.10786
H	-0.4928055572	 1.7779538566	-1.1480239274	 0.109516
H	 1.6163733788	 2.8538428327	-0.8557414377	 0.098464
H	 1.5461001653	 2.6617169786	 0.893841765	 0.104738
H	 2.2395695921	 0.504995611	-1.1900843674	 0.085573
H	 4.3217993323	-0.0949479946	 0.2022949445	 0.075117
H	 3.6599784675	-0.3400808279	 2.7268699125	 0.106444
H	 3.4568879089	 1.3819698819	 2.348620782	 0.096632
H	 1.2706987381	-0.66194565	 2.7363574611	 0.105734
H	 1.0401193437	 1.0713164568	 2.4598219034	 0.098434
H	-0.8251250559	-0.3641857912	 0.7064336146	 0.098364
H	-0.1025210129	-0.5450831954	-0.9013947361	 0.114034
133.5736	225.9014	277.7242	310.506	434.059	503.0349	529.2761	622.966	673.5906	735.7854	762.951	787.9864	827.4734	832.8718	847.693	896.3806	908.9431	915.6658	945.2341	951.6227	971.9122	999.5077	1055.05	1066.6219	1117.1921	1150.6958	1158.0674	1190.725	1199.2347	1231.9399	1240.6544	1250.3088	1260.248	1266.5442	1270.9625	1302.5543	1311.3061	1325.0568	1367.1481	1403.7312	1476.0954	1485.3985	1494.7081	1504.2487	1516.3038	3056.41	3056.8248	3059.631	3063.0713	3068.3139	3072.7081	3093.9351	3103.7071	3106.0079	3119.2913	3122.3065	3126.3557
C1CC2C3CCC2(C1)O3	C1C[C@H]2[C@H]3CC[C@]2(C1)O3	
InChI=1S/C8H12O/c1-2-6-7-3-5-8(6,4-1)9-7/h6-7H,1-5H2	InChI=1S/C8H12O/c1-2-6-7-3-5-8(6,4-1)9-7/h6-7H,1-5H2/t6-,7+,8-/m0/s1
