20
gdb 82162	2.74008	1.65231	1.30441	1.0894	77.73	-0.2256	0.0598	0.2854	1043.8723	0.171347	-403.105365	-403.097217	-403.096272	-403.13745	32.901	
C	 0.0410483203	 1.5142687405	 0.0027553378	-0.453144
C	 0.0134622491	 0.0069073773	 0.035754056	 0.337987
C	-0.8856123811	-0.718895216	 1.006001175	-0.328542
C	 0.6169876635	-0.8173783869	 1.1490134385	-0.072085
C	 1.2926515929	-2.0324020096	 0.5170318544	 0.06427
O	 0.685365277	-3.2304449191	 0.9932519728	-0.427118
C	 1.1550552679	-1.8092670064	-0.9991129732	-0.060008
C	-0.1944926609	-1.9024022287	-1.6127575949	-0.259156
N	 0.3695719881	-0.5928054161	-1.2666180011	-0.145794
H	 1.0009610316	 1.874325868	-0.3808433077	 0.120703
H	-0.7461458237	 1.9025106243	-0.6522937781	 0.122107
H	-0.112431734	 1.9314580031	 1.0028351656	 0.108587
H	-1.403899337	-0.1006792198	 1.732033117	 0.108079
H	-1.4377521117	-1.6049415564	 0.7216194579	 0.127267
H	 1.0938091317	-0.3581085072	 2.0077923014	 0.084417
H	 2.3607456644	-2.0284695409	 0.7791087864	 0.068287
H	 1.0824265061	-3.9694317592	 0.5208661017	 0.282093
H	 2.0425301495	-1.9549055252	-1.6117427677	 0.083192
H	-0.2877257025	-2.0796213331	-2.6812603231	 0.112271
H	-0.9997882212	-2.3206472384	-1.0200239586	 0.126587
134.645	178.1935	207.9632	257.7655	287.7771	326.4205	394.9641	435.3722	498.5248	550.3666	601.2683	663.6155	717.5959	795.4629	810.814	841.3654	874.788	908.5977	960.9683	963.6925	1003.41	1009.6464	1044.0161	1074.7543	1087.9714	1089.766	1107.926	1124.1991	1128.0847	1159.0129	1213.9292	1244.0897	1272.3761	1294.3606	1338.9843	1381.3946	1394.8333	1411.0411	1421.7692	1479.0684	1480.6789	1498.6574	1517.6115	2991.4944	3032.5445	3098.5577	3108.5805	3114.5374	3122.7312	3139.9266	3167.4155	3207.1148	3228.7029	3813.1793
CC12CC1C(O)C1CN21	C[C@]12C[C@H]1[C@@H](O)[C@H]1CN21	
InChI=1S/C7H11NO/c1-7-2-4(7)6(9)5-3-8(5)7/h4-6,9H,2-3H2,1H3	InChI=1S/C7H11NO/c1-7-2-4(7)6(9)5-3-8(5)7/h4-6,9H,2-3H2,1H3/t4-,5+,6+,7-,8?/m0/s1
