16
gdb 123599	4.17926	1.65132	1.42372	3.4924	74.17	-0.2236	0.0278	0.2514	905.1714	0.129162	-396.871287	-396.865196	-396.864252	-396.901537	25.281	
C	-0.0336012967	 1.4994590066	-0.0706095647	-0.173234
C	 1.5280299909	 1.3719172397	 0.0281991737	-0.209359
C	 1.1453013206	 0.149815674	 0.9363444203	-0.173235
N	-0.0655719925	-0.0413020038	-0.0002483964	-0.222128
C	 0.6878215581	-0.2917557757	-1.2179872423	 0.404712
N	 0.6161034117	-1.1138611791	-2.2355400483	-0.369537
N	 1.6955537434	-0.7264397303	-2.979628541	-0.200381
C	 2.4138450749	 0.3130172261	-2.4275894524	-0.284407
C	 1.7689521337	 0.6181623895	-1.2641126791	 0.28977
H	-0.5061373185	 1.9178043082	 0.8219752018	 0.111094
H	-0.4672113523	 1.9197950817	-0.9798488267	 0.117317
H	 2.1807773828	 2.1819268484	 0.349663889	 0.075996
H	 1.8244088967	-0.7037262152	 0.9775194126	 0.117324
H	 0.7971601431	 0.4257574106	 1.9351774048	 0.11109
H	 1.8809866921	-1.2068515029	-3.8420736419	 0.271861
H	 3.287130982	 0.7035325122	-2.9261895492	 0.133114
147.2587	309.7434	333.39	456.7209	506.9526	572.2196	628.7188	679.9251	714.9954	768.7753	786.3949	816.0602	829.2011	844.7017	908.9799	963.4909	998.4276	1026.1793	1034.1766	1037.2055	1093.0078	1114.1066	1153.9826	1175.5405	1196.9962	1234.1904	1238.0594	1285.7647	1297.0166	1404.0363	1444.2921	1490.1416	1519.6004	1553.3923	1656.9008	3057.7333	3066.3725	3131.3689	3132.788	3137.0213	3255.1123	3694.4273
C1C2CN1C1=NNC=C21	C1[C@H]2CN1c1n[nH]cc21	
InChI=1S/C6H7N3/c1-5-4-2-9(3-4)6(5)8-7-1/h1,4H,2-3H2,(H,7,8)	InChI=1S/C6H7N3/c1-5-4-2-9(3-4)6(5)8-7-1/h1,4H,2-3H2,(H,7,8)
