17
gdb 56310	4.15892	0.61571	0.60142	5.2388	69.78	-0.264	0.0065	0.2705	1800.13	0.136042	-455.183993	-455.174595	-455.173651	-455.21996	32.49	
O	-0.7883577098	 0.1863962765	 1.0995613292	-0.359898
C	-0.4415077821	 1.4296095267	 0.7301500331	 0.425436
O	 0.42278394	 2.0621316666	 1.2688029639	-0.322002
C	-1.2365174492	 1.9497969166	-0.4792428579	-0.315837
N	-2.4612166102	 1.1741631833	-0.6917104775	-0.325318
H	-2.6702398205	 1.1100161961	-1.6818359211	 0.23783
H	-1.5114553344	-0.0710610018	 0.491335785	 0.300556
C	-3.6223681287	 1.6925339424	 0.032458727	-0.140606
C	-4.8192543146	 0.7431688446	-0.1474472291	-0.349666
C	-6.012009426	 1.2262628328	 0.5425211993	 0.260885
N	-6.9471791891	 1.6235864431	 1.0919136016	-0.292129
H	-1.406149065	 3.0248575273	-0.3384259917	 0.138524
H	-0.5870786652	 1.8376777856	-1.3535548791	 0.146949
H	-3.3658481098	 1.7526719732	 1.095145216	 0.150566
H	-3.90256152	 2.7075757093	-0.2883289946	 0.125993
H	-5.0563752744	 0.6317154943	-1.212751577	 0.153388
H	-4.5628597909	-0.2534612466	 0.2270439128	 0.165328
45.7385	71.7802	77.8271	131.1817	139.1016	292.8636	311.9267	352.9457	397.6068	531.5639	542.938	564.571	659.1474	763.5635	794.3248	836.9458	877.9702	940.9667	962.963	1031.2024	1069.0065	1105.3499	1136.5525	1203.5188	1225.2694	1267.034	1307.9823	1319.0019	1358.3572	1393.2479	1417.0347	1469.3007	1469.7326	1486.4372	1517.1958	1885.1622	2368.5377	2993.3691	3031.1571	3039.7818	3074.8056	3088.7247	3092.9486	3529.0127	3539.73
[O-]C(=O)C[NH2+]CCC#N	OC(=O)CNCCC#N	
InChI=1S/C5H8N2O2/c6-2-1-3-7-4-5(8)9/h7H,1,3-4H2,(H,8,9)	InChI=1S/C5H8N2O2/c6-2-1-3-7-4-5(8)9/h7H,1,3-4H2,(H,8,9)
