21
gdb 88754	3.28692	1.19775	1.13453	2.3205	82.96	-0.2083	0.0782	0.2865	1195.8027	0.183144	-383.186182	-383.177676	-383.176731	-383.219661	33.048	
C	 1.3339301193	 1.1359069705	-0.4841864862	-0.415507
C	 0.1774990295	 0.2204576405	-0.1439475454	 0.025889
C	 0.4007563294	-1.0992654737	 0.5152376862	-0.244539
N	-0.2737494157	-0.0192756609	 1.2269751973	-0.104238
C	 0.3365991437	 0.6379841342	 2.3601606772	 0.075545
C	-0.1021361324	 0.1248882019	 3.7807872623	-0.243471
C	 1.3753016573	 0.081466538	 4.1758187391	-0.052038
N	 2.0037093412	-0.9176004671	 3.2826362954	-0.324061
C	 1.8122463189	 0.4791815002	 2.8083651334	-0.095197
H	 2.205986228	 0.9515396955	 0.1476718771	 0.121305
H	 1.6388263364	 0.9809177515	-1.5248892875	 0.120007
H	 1.0530896202	 2.1904616635	-0.3806498761	 0.117844
H	-0.6539650957	 0.2965107731	-0.8451200022	 0.08358
H	-0.2186934123	-1.9582498188	 0.2673620463	 0.106034
H	 1.4171831066	-1.3442009375	 0.8084578699	 0.127226
H	 0.1115352691	 1.7068587526	 2.2833742212	 0.082274
H	-0.7033865761	 0.8536403809	 4.3274656171	 0.100424
H	-0.5981676624	-0.8476440127	 3.7852432891	 0.113544
H	 1.8188877097	 0.3251755102	 5.1327620215	 0.092818
H	 2.9821858164	-0.9960307555	 3.5597618368	 0.226425
H	 2.6654919387	 1.0754748436	 2.5057716175	 0.086136
44.3921	145.2627	162.4824	206.7087	279.1378	284.9062	386.5664	429.6352	492.3171	594.9213	672.6672	742.9265	786.7155	805.4303	837.2692	873.1196	897.3805	912.2256	959.9505	973.1348	974.9774	1001.0754	1035.3532	1055.9385	1088.886	1107.1087	1116.7775	1127.7042	1154.2068	1160.3686	1167.3118	1191.2002	1215.4505	1250.8091	1289.2761	1323.5428	1346.4487	1372.9033	1384.398	1402.7677	1421.9093	1475.4209	1490.3362	1499.8965	1514.482	3031.1979	3051.2516	3075.1824	3086.8313	3092.7217	3105.6225	3125.4924	3134.8198	3171.0682	3196.2533	3197.8377	3467.0053
CC1CN1C1CC2NC12	C[C@H]1CN1[C@H]1C[C@H]2N[C@@H]12	
InChI=1S/C7H12N2/c1-4-3-9(4)6-2-5-7(6)8-5/h4-8H,2-3H2,1H3	InChI=1S/C7H12N2/c1-4-3-9(4)6-2-5-7(6)8-5/h4-8H,2-3H2,1H3/t4-,5+,6-,7+,9?/m0/s1
