18
gdb 95930	2.27147	1.52415	1.30828	4.2511	71.57	-0.247	0.0222	0.2692	1057.7927	0.149426	-435.261681	-435.252791	-435.251847	-435.295103	33.316	
N	-0.1832468511	 1.4660312529	 0.6023553257	-0.525509
C	-0.0732399674	 0.1506238846	-0.0210078476	-0.033347
C	 0.729039891	-0.8582222147	 0.801764547	-0.105845
O	-0.1275649125	-1.1415246046	 1.9048564218	-0.262671
C	-1.4636772821	-1.2269519597	 1.4162841309	-0.098491
C	-1.4984999457	-0.5448626044	 0.0050422131	 0.115638
N	-2.6511444822	 0.3413741013	-0.1340332	-0.564805
C	-1.5388682697	-1.5614314283	-1.0526283482	 0.276408
N	-1.5455366503	-2.3512738664	-1.8967625063	-0.346816
H	-0.0945397772	 1.3772663456	 1.611034936	 0.246336
H	 0.5555191162	 2.0806775972	 0.2824350925	 0.243219
H	 0.2849993308	 0.2622113507	-1.0461192166	 0.096674
H	 0.9501697474	-1.7666040657	 0.2200650794	 0.116008
H	 1.6650073395	-0.4533153996	 1.1953854485	 0.110248
H	-1.7918353644	-2.2714855423	 1.3635800557	 0.123435
H	-2.1277404271	-0.6840065519	 2.0939200505	 0.124416
H	-2.353134706	 1.2472728861	 0.2313952767	 0.246324
H	-2.8599247195	 0.4856398694	-1.117683089	 0.238777
71.695	153.3765	185.2439	193.0603	232.2269	289.3074	319.7473	366.8193	413.3371	475.282	518.8829	562.1444	644.2583	715.4194	783.193	845.7613	889.8739	914.481	942.3312	945.3889	1007.5156	1021.392	1069.0472	1098.8511	1147.9266	1185.6061	1206.5747	1237.8112	1257.5271	1262.744	1345.1379	1369.2246	1392.4155	1417.3649	1506.6962	1520.3809	1652.2831	1666.9852	2353.3432	2990.3209	3035.0435	3095.7951	3097.5059	3101.7984	3443.0466	3501.0092	3550.0492	3595.376
NC1COCC1(N)C#N	N[C@H]1COC[C@]1(N)C#N	
InChI=1S/C5H9N3O/c6-2-5(8)3-9-1-4(5)7/h4H,1,3,7-8H2	InChI=1S/C5H9N3O/c6-2-5(8)3-9-1-4(5)7/h4H,1,3,7-8H2/t4-,5+/m0/s1
