15
gdb 43545	2.5496	1.46969	1.08334	2.3637	73.03	-0.252	0.0092	0.2612	1097.5361	0.111785	-416.75843	-416.750047	-416.749103	-416.791744	30.826	
O	 0.0503166603	 0.0034456697	-0.0643962794	-0.368841
C	 0.0406229295	 1.2032464006	 0.0003430544	 0.397802
N	-0.9614809318	 2.1490754331	 0.0427610729	-0.355781
C	-0.073855049	 3.3309727508	 0.0870256612	-0.215526
C	-0.1814361221	 4.1664326797	 1.2706485818	 0.332991
C	-0.2649486953	 4.8668549151	 2.2437525192	-0.439607
C	 1.0931091322	 2.303068596	 0.0382108233	 0.176898
C	 2.4033888728	 2.264072523	 0.7140848243	-0.291903
N	 2.3039038352	 2.4056611205	-0.7487678528	-0.36222
H	-1.9552178595	 2.0706955531	 0.1966914527	 0.26123
H	-0.1333453809	 3.9372414032	-0.8231267016	 0.128681
H	-0.3409461941	 5.4841341966	 3.1049363343	 0.20667
H	 2.7567250663	 3.1488121505	 1.2351746553	 0.138648
H	 2.7159547426	 1.3114859219	 1.1334726364	 0.138013
H	 2.4834003538	 1.5156272262	-1.2110615519	 0.252945
63.5683	114.1072	195.2819	219.3565	224.5351	291.8947	402.458	420.2052	513.2305	597.2423	634.5033	637.2989	667.1286	734.2752	778.3689	841.3425	929.5688	954.6555	954.7991	996.5783	1035.9955	1066.6494	1121.7872	1152.2219	1217.1198	1260.5209	1277.8721	1346.8741	1364.9743	1423.8539	1509.2553	1895.0836	2238.5277	3052.3158	3114.1782	3207.2986	3483.5113	3500.5256	3628.9133
O=C1NC(C#C)C11CN1	O=C1N[C@@H](C#C)[C@]21CN2	
InChI=1S/C6H6N2O/c1-2-4-6(3-7-6)5(9)8-4/h1,4,7H,3H2,(H,8,9)	InChI=1S/C6H6N2O/c1-2-4-6(3-7-6)5(9)8-4/h1,4,7H,3H2,(H,8,9)/t4-,6-/m0/s1
