15
gdb 10264	2.19674	2.00432	1.10239	3.3365	62.79	-0.2788	-0.0592	0.2196	1022.984	0.115786	-399.814492	-399.805429	-399.804485	-399.848983	30.986	
C	 0.1014024147	 1.5732510163	-0.017504236	-0.418465
C	-0.0531601872	 0.0567361008	 0.0475253511	 0.130023
O	 0.3047140386	-0.5705963865	-1.1632768031	-0.408792
C	 0.7663474716	-0.552167119	 1.2471747675	-0.272408
C	 0.1462078699	-0.1341794425	 2.5880062842	 0.159106
O	 0.4346824814	 0.8853221179	 3.1521882724	-0.233449
C	 0.8198423481	-2.0094097971	 1.1622719179	 0.281003
N	 0.8478414539	-3.1643437296	 1.1552486868	-0.308042
H	 1.1465179937	 1.8438994355	-0.2125912872	 0.118226
H	-0.5128290776	 1.9648841807	-0.8318540676	 0.138196
H	-0.1939972233	 2.0562920485	 0.9163461412	 0.151508
H	-1.1057919635	-0.208599449	 0.1972146522	 0.116417
H	 1.1790252196	-0.259105909	-1.4248460231	 0.287719
H	 1.7831194487	-0.1440707231	 1.2113335991	 0.140632
H	-0.6203639885	-0.8331075239	 2.9826632645	 0.118325
40.9463	73.6524	145.2356	184.7068	231.2112	247.1967	310.3174	348.5982	371.7281	450.0526	510.7793	540.7143	565.3659	822.7896	913.1402	947.2552	1025.7165	1042.77	1073.3651	1113.1362	1137.9605	1204.6381	1287.6989	1316.1272	1357.4028	1414.0597	1420.6597	1430.7064	1491.2083	1492.6235	1833.5121	2362.5519	2922.0439	3034.2596	3048.3469	3062.8334	3111.7056	3142.3259	3794.6759
CC(O)C(C=O)C#N	C[C@@H](O)[C@@H](C=O)C#N	
InChI=1S/C5H7NO2/c1-4(8)5(2-6)3-7/h3-5,8H,1H3	InChI=1S/C5H7NO2/c1-4(8)5(2-6)3-7/h3-5,8H,1H3/t4-,5-/m1/s1
