23
gdb 95082	2.2129	1.9149	1.28036	1.2128	85.08	-0.2431	0.0827	0.3258	1094.5373	0.206936	-388.293209	-388.284723	-388.283779	-388.32551	34.607	
C	 0.055575005	 1.5393311437	-0.1074442844	-0.405463
C	 0.0101798018	 0.0252777397	 0.065826559	 0.111598
O	 0.5568714216	-0.5067631332	-1.1441572775	-0.276799
C	 1.0710414568	-1.8292683713	-1.0872530055	-0.067992
C	 1.6819985823	-2.1327851353	 0.2818412874	-0.036467
C	 2.2431198992	-0.8115962807	 0.8767801135	-0.260517
C	 0.7710692793	-0.5130545303	 1.3063197206	 0.313694
C	 0.4999296249	 0.2716305134	 2.5791375258	-0.489103
C	 0.5601019388	-2.0552642184	 1.3449335352	-0.260005
H	 1.0874783734	 1.9043543624	-0.0908235403	 0.118287
H	-0.3808663224	 1.8033222945	-1.0742837777	 0.124458
H	-0.5104379126	 2.0477599757	 0.6771856179	 0.113112
H	-1.0449016472	-0.2897137244	 0.1602998677	 0.060452
H	 0.2842608767	-2.5673797485	-1.3182547183	 0.084018
H	 1.8255620848	-1.8865410017	-1.880637167	 0.101123
H	 2.3163562188	-3.0216888721	 0.24670659	 0.061039
H	 2.8797621709	-0.9941387001	 1.7467443473	 0.090377
H	 2.735970521	-0.1108121523	 0.1980995865	 0.100903
H	 0.8838641687	 1.2951113324	 2.5225725803	 0.119554
H	-0.5746688637	 0.3296391307	 2.7915011296	 0.113955
H	 0.9789195015	-0.2167330548	 3.4343268223	 0.109563
H	-0.4281109748	-2.4455437185	 1.0761676894	 0.085899
H	 0.8662234054	-2.4781978008	 2.3065718983	 0.088315
121.1337	202.8754	230.685	245.0238	300.1094	315.2127	360.6723	391.9739	430.7565	447.2622	533.5302	598.5442	661.6808	803.8245	827.0925	848.4625	875.7739	884.6526	910.8561	939.3977	1001.6515	1002.626	1025.4246	1052.3552	1057.5717	1094.2458	1106.6219	1142.166	1155.883	1166.4835	1208.0726	1220.2205	1239.864	1282.7508	1283.6332	1300.388	1336.9558	1358.6214	1376.6334	1403.9281	1407.6825	1413.4593	1473.8501	1483.7358	1489.6739	1499.2024	1500.4877	1505.8101	1514.4679	2931.7065	2960.1604	3022.8599	3032.0546	3043.275	3049.5015	3054.4412	3079.4323	3085.771	3089.7437	3099.2836	3110.6658	3115.9987	3125.6891
CC1OCC2CC1(C)C2	C[C@H]1OC[C@H]2C[C@]1(C)C2	
InChI=1S/C8H14O/c1-6-8(2)3-7(4-8)5-9-6/h6-7H,3-5H2,1-2H3	InChI=1S/C8H14O/c1-6-8(2)3-7(4-8)5-9-6/h6-7H,3-5H2,1-2H3/t6-,7-,8+/m1/s1
