18
gdb 110680	2.70728	1.70208	1.62623	1.6942	69.32	-0.2357	0.0656	0.3013	925.4578	0.149732	-439.021031	-439.013669	-439.012725	-439.053004	28.815	
O	 0.761217783	 0.22338477	-1.0580506619	-0.413243
C	 0.1417363617	-0.2876203643	 0.1126587236	-0.10678
C	-1.3902871178	-0.3995329053	-0.0172078212	 0.005382
C	-2.3558775588	 0.6118644194	 0.6602824087	 0.050274
O	-1.7804187354	 1.8979880914	 0.7820039196	-0.262589
C	-1.4597663965	 2.3347248354	-0.5515870608	-0.11349
C	-2.2091699897	 1.3845029017	-1.4692038268	-0.042517
C	-3.140055707	 0.5780623529	-0.6710613641	-0.067262
N	-1.9799459433	-0.0947054511	-1.3775297536	-0.189897
H	 0.3250432995	-0.1921139235	-1.8112131525	 0.294778
H	 0.5601731808	-1.2719517698	 0.3688567332	 0.092756
H	 0.3932986817	 0.4033092554	 0.9236345763	 0.125234
H	-1.7157375646	-1.417857088	 0.2191270019	 0.088142
H	-2.828817188	 0.3434325849	 1.604063533	 0.086795
H	-1.814314107	 3.3643520844	-0.6803965855	 0.107795
H	-0.3791857806	 2.2983382783	-0.7186814405	 0.13715
H	-2.4548738919	 1.6980911579	-2.4771900734	 0.105823
H	-4.1793373161	 0.3518279304	-0.8711918361	 0.101649
70.9347	181.476	208.2264	259.1234	334.7207	410.9141	513.6058	617.2625	658.4966	676.9148	783.5066	804.8006	812.8915	846.78	901.2239	927.6834	951.2719	989.6084	1005.8931	1036.2524	1049.7655	1066.9329	1091.168	1111.3858	1130.0927	1188.9812	1206.2965	1235.5905	1237.8137	1268.1444	1293.0992	1327.1526	1357.4575	1366.9677	1380.2316	1405.3877	1438.3555	1511.4017	1517.8931	2989.2256	3033.0146	3051.3644	3078.2862	3089.6295	3127.8591	3185.5552	3201.9437	3792.3815
OCC1C2OCC3C2N13	OC[C@H]1[C@H]2OC[C@@H]3[C@H]2N13	
InChI=1S/C6H9NO2/c8-1-3-6-5-4(2-9-6)7(3)5/h3-6,8H,1-2H2	InChI=1S/C6H9NO2/c8-1-3-6-5-4(2-9-6)7(3)5/h3-6,8H,1-2H2/t3-,4+,5+,6+,7?/m0/s1
