15
gdb 28471	3.14233	1.4306	0.98906	1.2399	73.57	-0.2214	-0.0338	0.1875	1135.1556	0.113585	-454.020169	-454.012344	-454.011399	-454.052526	29.653	
C	-0.0334349924	 1.4752572903	 0.0480769717	-0.470533
C	 0.0079463609	-0.0255541564	-0.0046777344	 0.300318
C	-0.0987005577	-0.7399822083	-1.1843600034	-0.09547
N	-0.0592546554	-2.0864871851	-1.212091528	-0.332644
C	 0.08534829	-2.716032024	-0.071816883	 0.347121
O	 0.131084901	-4.0617575147	-0.0422370158	-0.406311
C	 0.1957217512	-1.99570988	 1.1454732855	 0.341059
O	 0.3430008171	-2.6805402963	 2.2945166327	-0.404579
N	 0.1568727484	-0.6855928407	 1.1670162238	-0.388533
H	 0.8881903256	 1.8740582339	 0.4848702657	 0.137806
H	-0.1564079911	 1.902701083	-0.9500086829	 0.124346
H	-0.8614786728	 1.8190480064	 0.6768687131	 0.137806
H	-0.2188899697	-0.2375916218	-2.1387679541	 0.108817
H	 0.0396281164	-4.3525325009	-0.9607538981	 0.300602
H	 0.3989598086	-2.0162183953	 2.9963121971	 0.300194
100.2571	130.0453	227.1959	290.7924	308.4444	385.7977	453.9531	499.888	518.2056	529.5049	574.0625	596.9044	640.1193	720.3229	805.8245	809.0847	902.0792	999.3299	1026.8208	1060.8143	1148.922	1196.4687	1259.8569	1309.7918	1366.5912	1386.5912	1413.5593	1467.0211	1475.3497	1495.271	1532.6995	1612.6601	1656.6828	3037.6702	3094.6447	3124.4327	3179.084	3758.8495	3762.6017
CC1=CN=C(O)C(O)=N1	Cc1cnc(O)c(O)n1	
InChI=1S/C5H6N2O2/c1-3-2-6-4(8)5(9)7-3/h2H,1H3,(H,6,8)(H,7,9)	InChI=1S/C5H6N2O2/c1-3-2-6-4(8)5(9)7-3/h2H,1H3,(H,6,8)(H,7,9)
