15
gdb 130923	4.22795	1.21702	1.06856	3.0433	72.87	-0.2426	-0.0409	0.2017	1096.7641	0.114158	-416.7936	-416.786294	-416.78535	-416.826317	26.378	
O	-0.4965036472	 0.6209003955	-0.6460151346	-0.228381
C	 0.2213781708	 0.9103701234	 0.274557457	 0.159126
C	 1.3745356955	 1.8876043163	 0.1874737798	-0.270838
C	 1.463831538	 2.739308176	-1.1379572399	-0.185381
N	 1.1756911492	 3.8937090246	-0.2706776661	 0.092225
N	 1.0965968497	 5.2235783716	-0.1768141349	-0.299163
C	 0.9597552248	 5.3881351539	 1.1515875827	 0.018666
C	 0.9820535302	 4.1723209168	 1.8915448149	-0.403446
C	 1.1317221513	 3.2290626799	 0.8929658212	 0.372969
H	 0.0716116828	 0.4754640734	 1.2874465954	 0.092605
H	 2.3041067505	 1.3853700893	 0.4780161521	 0.123232
H	 2.4517390303	 2.7725387885	-1.602214338	 0.138952
H	 0.6894853141	 2.5195089199	-1.8739124327	 0.160098
H	 0.8428460554	 6.3873368678	 1.5457986018	 0.116731
H	 0.9001017147	 4.0485728832	 2.9578587514	 0.112605
56.0408	112.5974	149.2996	223.3378	329.2127	457.2805	627.9556	650.7938	681.3742	741.9656	757.7206	781.0418	858.0341	874.5567	942.6932	974.9146	1031.4622	1051.1456	1065.0799	1094.0656	1141.9346	1170.742	1192.6455	1266.1704	1296.1892	1308.7357	1361.1662	1405.3055	1416.6328	1478.317	1516.3298	1559.6503	1831.7414	2892.1918	3056.0266	3079.8734	3147.4626	3245.0175	3282.7053
O=CC1CN2N=CC=C12	O=C[C@H]1Cn2nccc12	
InChI=1S/C6H6N2O/c9-4-5-3-8-6(5)1-2-7-8/h1-2,4-5H,3H2	InChI=1S/C6H6N2O/c9-4-5-3-8-6(5)1-2-7-8/h1-2,4-5H,3H2/t5-/m1/s1
