20
gdb 117257	4.0924	0.85219	0.75622	2.4399	76.89	-0.2565	0.0302	0.2866	1559.0406	0.170427	-440.276775	-440.267167	-440.266223	-440.312585	33.734	
C	 0.9129440142	 1.373815077	 0.1322271867	-0.38963
C	 0.2001932767	 0.0356940586	 0.0838256967	-0.031936
O	 0.5829761963	-0.6161076531	-1.1389524258	-0.254538
C	 0.0526333037	-1.8322735484	-1.362327676	 0.374018
N	-0.7429617313	-2.4064027344	-0.5624650621	-0.537985
C	 0.5578084723	-2.3759376764	-2.6809028217	 0.057268
C	 2.0132064642	-2.9076361275	-2.7019659377	-0.283304
C	 1.3528027668	-4.2661888903	-3.0102137944	-0.063114
O	 0.0276023203	-3.6835884058	-2.9614784537	-0.286182
H	 1.9984775863	 1.2398583294	 0.1162460752	 0.125014
H	 0.6315563368	 1.9976675426	-0.7210171248	 0.126891
H	 0.644929846	 1.9046932797	 1.0505523249	 0.121145
H	 0.4698139329	-0.6057286084	 0.9294641501	 0.119361
H	-0.8889474725	 0.1478535737	 0.10001818	 0.121458
H	-0.9987994451	-3.3105255283	-0.9621983322	 0.234665
H	 0.3235761281	-1.6601439521	-3.4787475412	 0.100343
H	 2.6441451864	-2.4988375735	-3.4911973216	 0.119325
H	 2.5375041444	-2.8430111003	-1.7481690721	 0.123931
H	 1.5695063859	-4.6866432899	-3.9985011065	 0.11036
H	 1.4797037273	-5.0472504925	-2.2523960636	 0.11291
48.285	72.9932	95.6751	111.1267	146.9104	239.315	270.3669	316.6859	357.8664	433.28	619.9419	717.0436	784.2139	807.4173	815.973	872.6414	889.6049	920.0896	956.8987	984.9374	1033.0524	1042.0988	1092.0971	1102.1147	1131.0449	1138.6666	1166.1046	1183.4628	1212.7844	1252.9925	1261.4303	1288.7779	1320.4994	1356.8237	1378.0439	1410.4793	1445.4258	1485.6768	1493.1435	1496.7838	1521.3446	1529.852	1734.8953	3026.479	3032.6099	3044.6694	3047.3558	3073.069	3083.1575	3091.7133	3119.3331	3122.7622	3148.4484	3480.2786
CCOC(=N)C1CCO1	CCO[C]([NH])[C@H]1CCO1	
InChI=1S/C6H11NO2/c1-2-8-6(7)5-3-4-9-5/h5,7H,2-4H2,1H3	InChI=1S/C6H11NO2/c1-2-8-6(7)5-3-4-9-5/h5,7H,2-4H2,1H3/t5-/m1/s1
