14
gdb 128310	6.89056	0.89946	0.80125	3.8034	73.98	-0.2261	-0.0534	0.1727	1347.1821	0.103169	-429.080962	-429.072778	-429.071833	-429.114052	28.89	
C	-0.061703762	 1.4257298037	 0.124329983	-0.322659
N	-0.0540708464	-0.0008938402	-0.1430875121	-0.385731
C	-1.2060807948	-0.7235661542	-0.0586957167	 0.441437
N	-2.4207501877	-0.1641199767	-0.0257209282	-0.27819
N	-3.2278419875	-1.2510989619	 0.0005377979	-0.250318
C	-2.4904592435	-2.3812170616	-0.0035163987	 0.28616
N	-1.1992119897	-2.0887181632	-0.0397013229	-0.376079
C	-3.0729318339	-3.6765325175	 0.0281961865	 0.248495
N	-3.5866031664	-4.7127967681	 0.0555477549	-0.324327
H	 0.9375913017	 1.8230977058	-0.0635444633	 0.129487
H	-0.764120909	 1.9217431911	-0.5502849308	 0.153192
H	-0.3554074602	 1.6691540454	 1.1551268268	 0.124798
H	 0.7685864728	-0.5196418269	 0.1194419342	 0.258321
H	-4.2288175833	-1.1438110757	 0.0288500293	 0.295413
83.8957	130.8823	147.2435	176.2997	227.4234	344.73	415.9615	470.6507	473.0219	539.572	571.6412	644.4024	722.0088	764.8388	774.8956	995.4827	1066.4748	1108.6473	1157.8293	1171.2432	1195.1881	1272.2314	1349.6908	1434.8932	1459.1414	1482.2161	1490.8861	1517.1411	1568.281	1627.6928	2357.6813	3006.6745	3092.6653	3136.407	3642.8373	3665.1625
CNC1=NNC(=N1)C#N	CNc1n[nH]c(n1)C#N	
InChI=1S/C4H5N5/c1-6-4-7-3(2-5)8-9-4/h1H3,(H2,6,7,8,9)	InChI=1S/C4H5N5/c1-6-4-7-3(2-5)8-9-4/h1H3,(H2,6,7,8,9)
