17
gdb 36364	3.82532	0.94089	0.85557	2.4073	74.91	-0.2587	0.0491	0.3078	1362.3601	0.133386	-421.740119	-421.731248	-421.730304	-421.774562	32.174	
C	-0.0205651004	-0.8754011202	-0.8155346942	-0.440949
C	-0.0485913924	 0.2239684147	-0.3313698317	 0.299149
C	-0.0569193933	 1.5553685984	 0.2654255003	-0.398034
C	 1.348484645	 2.1090846927	 0.4361011875	 0.06396
O	 1.9269348914	 2.801998242	-0.6750610383	-0.247384
C	 1.6710310367	 3.5458924757	 0.5123067873	 0.016011
C	 0.6915594751	 4.678708036	 0.4332105373	 0.044448
C	 0.4793814383	 5.4087181385	-0.82568296	-0.172463
O	-0.5081956376	 4.5086888529	-0.3152034299	-0.224645
H	-0.0065305942	-1.8426497125	-1.2529165104	 0.19581
H	-0.639255655	 2.2521518205	-0.3416390901	 0.173165
H	-0.5375830046	 1.5113079387	 1.2522712835	 0.131795
H	 2.0411433909	 1.4224698896	 0.9254927433	 0.103495
H	 2.5676893259	 3.8217376269	 1.0743863225	 0.094921
H	 0.5639261741	 5.2172848927	 1.3736314141	 0.101708
H	 0.2054513023	 6.4616383648	-0.8026124508	 0.119982
H	 0.9956382977	 5.0617491586	-1.7174744505	 0.139031
50.2136	86.5067	110.4675	190.0142	216.3806	307.3296	338.1402	367.4338	501.9981	554.4621	614.493	643.3225	657.5477	740.4647	824.2386	860.3353	911.5751	926.1203	970.5325	979.7632	1012.8216	1076.2634	1099.8842	1138.5513	1149.6148	1167.8295	1170.8296	1239.208	1277.3243	1298.7799	1318.7121	1399.406	1429.0659	1462.2683	1488.5129	1517.302	2241.4714	3023.26	3068.7114	3096.2896	3097.3892	3105.0085	3115.6858	3196.2906	3507.8689
C#CCC1OC1C1CO1	C#CC[C@H]1O[C@H]1[C@H]1CO1	
InChI=1S/C7H8O2/c1-2-3-5-7(9-5)6-4-8-6/h1,5-7H,3-4H2	InChI=1S/C7H8O2/c1-2-3-5-7(9-5)6-4-8-6/h1,5-7H,3-4H2/t5-,6-,7-/m1/s1
