15
gdb 19749	3.7288	2.34078	2.21623	2.5413	63.15	-0.24	-0.0214	0.2187	692.5573	0.122369	-362.670115	-362.664623	-362.663679	-362.699523	22.566	
O	-0.0017700281	 0.0083719027	 0.0088713481	-0.334317
C	-0.0194259292	 1.2081227454	 0.0096047451	 0.449929
C	-1.1866215647	 2.1602393672	 0.0328574871	-0.163426
C	-0.6864426961	 3.3532509533	 0.797911991	-0.02519
C	 0.7549525242	 3.0754612066	 1.2336868691	-0.246439
C	 1.1433723642	 2.2246762836	 0.0005962243	-0.178102
C	 0.641170114	 3.1319638437	-1.1353974209	-0.165681
N	-0.7562038347	 3.4022106351	-0.6687059354	-0.118926
H	-2.220560333	 1.8510566784	-0.0353802606	 0.112554
H	-1.3567011525	 4.0011970276	 1.3493851923	 0.106785
H	 1.3482599649	 3.9903339984	 1.3265577937	 0.112561
H	 0.8139483772	 2.5186917581	 2.1730955505	 0.120503
H	 2.1442853978	 1.8074023559	-0.0526337375	 0.093835
H	 1.1840310593	 4.0774545564	-1.2207827301	 0.11404
H	 0.6149266168	 2.6429105377	-2.1132051267	 0.121875
163.9333	381.9072	426.8528	466.7723	585.1959	673.1332	716.6047	777.5735	798.6045	832.0471	861.9409	908.2792	926.8553	931.8299	941.8801	994.6796	1027.7621	1045.8926	1080.9039	1132.7975	1156.5797	1178.1075	1205.0791	1212.0562	1254.2085	1273.5633	1294.7521	1310.8009	1364.9955	1492.1316	1510.8659	1875.3324	3054.2204	3058.9153	3104.3008	3110.0959	3173.7559	3191.4179	3217.2669
O=C1C2C3CC1CN23	O=C1[C@H]2[C@H]3C[C@@H]1CN23	
InChI=1S/C6H7NO/c8-6-3-1-4-5(6)7(4)2-3/h3-5H,1-2H2	InChI=1S/C6H7NO/c8-6-3-1-4-5(6)7(4)2-3/h3-5H,1-2H2/t3-,4-,5-,7?/m1/s1
