17
gdb 29315	3.31586	1.26318	0.92109	1.3388	89.37	-0.1764	0.0129	0.1893	1238.6816	0.135518	-380.883584	-380.87418	-380.873236	-380.917235	35.115	
C	-0.045997209	 1.5270143006	 0.0040149531	-0.518117
C	-0.0143587697	 0.0300192498	 0.0011033492	 0.256216
C	-0.0103076786	-0.8084880804	-1.0972192421	-0.17806
N	 0.0059858637	-2.1003632167	-0.6709035997	-0.341997
C	 0.0222235897	-2.1333231161	 0.7195442856	 0.148142
C	 0.0508054676	-3.3184317619	 1.4673217736	 0.230902
C	 0.0879634393	-4.3271743698	 2.1316992711	-0.456539
C	 0.003298451	-0.8087844488	 1.1515129758	 0.060037
N	-0.0679638731	-0.3747602112	 2.4778150225	-0.622103
H	 0.8588461204	 1.9608091155	 0.4509713204	 0.116153
H	-0.1228779122	 1.9215731185	-1.01308356	 0.121431
H	-0.89911259	 1.9109529683	 0.5763115802	 0.13188
H	-0.0217032125	-0.5670427724	-2.1487274577	 0.117279
H	 0.0081266548	-2.917918202	-1.2533807795	 0.263784
H	 0.1010016729	-5.2145230763	 2.7135778167	 0.181943
H	 0.1747134856	-1.1027764094	 3.1381395547	 0.247069
H	 0.4825705801	 0.4548248422	 2.6581718161	 0.241981
108.8377	123.2845	127.372	233.6803	238.426	270.5553	292.1314	382.8604	386.5177	390.8162	485.9339	513.8481	567.6479	633.3148	684.2369	690.0485	712.0539	744.7036	747.2477	773.7317	973.6938	1004.1673	1064.9606	1115.2088	1215.8728	1233.2739	1260.5863	1348.1931	1419.7343	1440.4022	1481.9369	1492.5952	1507.7389	1549.6075	1624.063	1655.8759	2206.2419	3009.9722	3057.5068	3105.5599	3254.2632	3503.6881	3530.3666	3624.0656	3698.7423
CC1=CNC(C#C)=C1N	Cc1c[nH]c(C#C)c1N	
InChI=1S/C7H8N2/c1-3-6-7(8)5(2)4-9-6/h1,4,9H,8H2,2H3	InChI=1S/C7H8N2/c1-3-6-7(8)5(2)4-9-6/h1,4,9H,8H2,2H3
