19
gdb 115565	2.93763	1.04063	0.97217	1.8193	72.02	-0.2538	-0.0331	0.2206	1288.0477	0.15705	-460.14592	-460.136303	-460.135359	-460.18092	34.387	
C	-0.2588214263	 1.6342828777	-0.0749655397	-0.470425
C	-0.0587787651	 0.1323423787	 0.0507870845	 0.129977
C	 1.2373826139	-0.5020570331	-0.5297162058	-0.117051
O	 1.5120428765	-1.2052359051	 0.6975318733	-0.302525
C	 0.457203205	-0.4899353846	 1.3908677569	 0.074747
C	 1.0620031647	 0.4208464083	 2.4493490345	-0.079032
O	 1.7877109675	-0.3597748734	 3.3776728758	-0.418156
C	-1.2713323234	-0.6416854857	-0.4265266224	 0.137356
O	-2.2867583814	-0.1457867098	-0.8395689939	-0.258098
H	 0.6335157218	 2.1875686328	 0.2265700593	 0.119624
H	-0.4927008258	 1.8965954378	-1.1105602774	 0.136753
H	-1.1018841552	 1.969439058	 0.535290949	 0.138166
H	 1.1193733402	-1.1895976242	-1.3754011568	 0.115815
H	 2.0117361138	 0.2359065716	-0.7736418712	 0.111917
H	-0.2258418822	-1.1974986485	 1.8785465635	 0.092081
H	 1.7036739887	 1.1801394052	 1.9776093023	 0.08865
H	 0.2749784309	 0.9407552959	 3.0057423156	 0.116497
H	 2.4032213661	-0.8895714749	 2.8553970768	 0.294315
H	-1.1518871497	-1.7484535267	-0.3652300542	 0.08939
60.161	88.9096	117.2493	159.0964	187.4829	265.7206	279.5131	318.2105	340.3681	444.4286	465.2803	485.6239	559.3981	734.554	838.1022	855.4078	905.2808	922.184	975.9838	1024.4863	1029.0006	1049.1247	1083.2147	1097.1683	1158.4795	1169.8021	1201.7681	1216.7969	1257.9179	1306.0753	1335.8474	1364.0733	1400.5103	1415.4089	1431.4915	1435.046	1488.1367	1492.3763	1499.4123	1523.8122	1831.2314	2867.9613	2989.8554	3015.5741	3025.5702	3052.0382	3063.4179	3079.0386	3119.4405	3129.3007	3780.4389
CC1(COC1CO)C=O	C[C@]1(CO[C@H]1CO)C=O	
InChI=1S/C6H10O3/c1-6(3-8)4-9-5(6)2-7/h3,5,7H,2,4H2,1H3	InChI=1S/C6H10O3/c1-6(3-8)4-9-5(6)2-7/h3,5,7H,2,4H2,1H3/t5-,6+/m0/s1
