16
gdb 69900	3.06129	1.50114	1.15276	3.3406	70.92	-0.2341	-0.041	0.1932	1047.2114	0.122038	-437.798584	-437.79064	-437.789696	-437.830853	30.177	
C	-0.1343032867	 1.5636364117	 0.2601280602	-0.514473
C	 0.0742956169	 0.0957215752	 0.0944489583	 0.378343
O	-0.73967186	-0.8285231093	 0.8118348619	-0.254411
C	 0.6788815179	-0.9425177549	 0.9330921563	-0.063947
C	 1.2338292608	-1.685783615	-0.3269064823	-0.123652
N	 0.1382746209	-2.0420905798	-1.1991519336	-0.334941
C	 0.592015848	-0.627887132	-1.2099025873	 0.149785
C	 1.2376171689	-0.0750370648	-2.3987967441	 0.05883
O	 1.6228202716	-0.7580692601	-3.3264695588	-0.294637
H	 0.7425027471	 2.1259602736	-0.0776179246	 0.131357
H	-0.997881629	 1.900835974	-0.3236516078	 0.142794
H	-0.3155730509	 1.7977458235	 1.3120676402	 0.143862
H	 1.1196142361	-0.9138765791	 1.922046917	 0.11842
H	 2.2345322093	-2.0840365939	-0.4391384209	 0.126689
H	 0.542841633	-2.4444067562	-2.0492743479	 0.257812
H	 1.3697855661	 1.027434157	-2.4033485766	 0.07817
131.6553	171.8445	182.5519	210.9682	288.1949	297.4376	419.14	438.2932	502.5125	582.1985	687.9539	732.7543	787.6243	792.9791	851.6905	881.4676	885.9818	949.4775	991.9009	1015.3672	1024.8116	1072.6397	1101.5836	1136.9201	1175.2527	1232.8394	1272.1998	1325.8305	1366.4564	1406.254	1434.842	1463.9169	1484.7645	1495.9404	1765.6035	2907.2239	3036.1124	3098.7119	3126.2236	3193.596	3204.6678	3440.2652
CC12OC1C1NC21C=O	C[C@]12O[C@H]1[C@H]1N[C@@]21C=O	
InChI=1S/C6H7NO2/c1-5-4(9-5)3-6(5,2-8)7-3/h2-4,7H,1H3	InChI=1S/C6H7NO2/c1-5-4(9-5)3-6(5,2-8)7-3/h2-4,7H,1H3/t3-,4+,5+,6-/m1/s1
