18
gdb 86333	2.27329	1.63165	1.18411	4.923	67.59	-0.2564	0.0167	0.2731	1072.502	0.14869	-476.243243	-476.234831	-476.233887	-476.276548	32.159	
N	-0.3254781294	 0.5199906699	 0.0663325333	-0.538901
H	-0.8033436913	-0.3645151596	 0.2250539687	 0.256435
H	 1.2762908552	 0.1097970399	 0.7826469774	 0.317034
H	-0.6203210835	 0.867921016	-0.8398510598	 0.245701
C	-0.6693768361	 1.4677369828	 1.131906067	-0.013937
C	-2.0928367772	 1.3655714122	 1.7612238382	-0.244061
C	-1.5040445523	 0.5954448002	 2.9660006319	 0.11662
O	-1.6995131687	-0.7912924993	 2.7759598347	-0.442217
C	-0.0798913687	 1.0510212648	 2.5186185306	-0.170786
C	 0.991857866	-0.0209142718	 2.6498534777	 0.401662
O	 1.1339311256	-0.6269989558	 3.68630377	-0.363178
O	 1.7456211115	-0.2591388409	 1.5751940957	-0.371632
H	-0.3746572385	 2.4632807968	 0.7930057656	 0.089873
H	-2.4972327283	 2.3407153622	 2.0435077133	 0.110084
H	-2.8427535376	 0.8148459695	 1.1883302879	 0.111478
H	-1.8247373998	 0.9138908686	 3.9644021728	 0.0778
H	-1.0674694522	-1.2400503232	 3.3553206997	 0.302928
H	 0.2575386554	 1.9256135076	 3.0823978754	 0.115095
65.9854	94.5918	178.0741	255.0959	326.7602	371.3003	372.2496	419.803	450.289	549.3203	554.7541	600.4945	732.8583	782.8683	802.902	863.4541	879.9391	899.0074	943.4622	975.2586	1005.6442	1020.4723	1030.5815	1123.087	1152.029	1177.2989	1214.3249	1241.9744	1260.6992	1266.6973	1272.1865	1323.988	1344.9634	1418.5793	1426.4869	1462.0335	1474.6907	1648.6137	1822.4979	3034.299	3065.1457	3073.8334	3087.7628	3125.3108	3267.6525	3485.4005	3574.9583	3747.6852
[NH3+]C1CC(O)C1C([O-])=O	N[C@H]1C[C@@H](O)[C@H]1C(=O)O	
InChI=1S/C5H9NO3/c6-2-1-3(7)4(2)5(8)9/h2-4,7H,1,6H2,(H,8,9)	InChI=1S/C5H9NO3/c6-2-1-3(7)4(2)5(8)9/h2-4,7H,1,6H2,(H,8,9)/t2-,3+,4-/m0/s1
