17
gdb 19588	4.25139	1.99168	1.84044	1.4666	66.61	-0.2334	0.079	0.3124	789.8373	0.144183	-363.791373	-363.785134	-363.78419	-363.821296	25.847	
C	-0.0680128947	 1.5509758292	 0.0068377102	-0.431339
C	-0.0591532266	 0.0298951169	-0.0031115562	 0.029518
C	 1.1436116644	-0.615337229	-0.7429802427	 0.050758
O	 1.9736231962	-0.3080830351	 0.4359667088	-0.308978
C	 0.7302180945	-0.6301874672	 1.1594533636	 0.050759
C	 0.6355538742	-2.1502340593	 0.8881183395	-0.047671
N	-0.4011770635	-2.5422941803	-0.0975099254	-0.333269
C	 0.9498090152	-2.1389450017	-0.5580871372	-0.047671
H	 0.9250258272	 1.9497894939	 0.2257211391	 0.132619
H	-0.3927930707	 1.9411494635	-0.9639894096	 0.112173
H	-0.7676167879	 1.9276824255	 0.7610723882	 0.112173
H	-1.042449614	-0.3848694956	-0.2200169857	 0.103314
H	 1.5548512016	-0.2416554908	-1.6806969428	 0.0743
H	 0.7140357481	-0.2718595044	 2.1887287506	 0.0743
H	 1.0323055838	-2.873947549	 1.5893978491	 0.098921
H	-0.4553283332	-3.5599160423	-0.1172204775	 0.231173
H	 1.6041407855	-2.8534055344	-1.0421967921	 0.098921
229.4002	251.8257	272.174	375.2623	412.8092	584.7951	608.861	694.1756	771.6605	793.9602	843.3894	843.6511	874.2866	898.1809	905.8942	915.1158	928.4276	1039.4031	1039.5406	1071.6399	1084.656	1097.442	1115.482	1155.1284	1191.9752	1204.8085	1232.035	1261.504	1289.6641	1303.858	1331.6188	1372.2252	1403.5401	1408.5828	1494.9515	1508.329	3033.5699	3090.7422	3116.134	3121.5985	3124.9343	3135.3721	3185.5527	3195.7596	3475.0967
CC1C2OC1C1NC21	C[C@H]1[C@H]2O[C@@H]1[C@H]1N[C@@H]21	
InChI=1S/C6H9NO/c1-2-5-3-4(7-3)6(2)8-5/h2-7H,1H3	InChI=1S/C6H9NO/c1-2-5-3-4(7-3)6(2)8-5/h2-7H,1H3/t2-,3+,4-,5+,6-
