15
gdb 127369	2.48852	1.88721	1.0805	4.1596	73.01	-0.2198	-0.0366	0.1832	1046.8223	0.114374	-450.14977	-450.141671	-450.140727	-450.182984	29.303	
C	 0.0332317146	 1.4440596577	 0.0136392659	-0.340021
N	-0.058170149	-0.0139553542	-0.0128124653	-0.148225
C	-0.3623692782	-0.6857709772	-1.1825939499	 0.115701
N	-0.4628718636	-1.9569208276	-1.2976045818	-0.23666
N	-0.2462986149	-2.6725686429	-0.1558858209	-0.324586
C	 0.0673983492	-2.18782768	 1.1041174974	 0.279769
N	 0.2660545033	-2.8757610911	 2.1593951231	-0.501244
C	 0.1743489555	-0.6820665687	 1.1869669549	 0.422906
O	 0.4389583642	-0.0804800082	 2.1999909287	-0.338907
H	 1.0308636337	 1.7532905484	 0.333765084	 0.161164
H	-0.1697677997	 1.8300615359	-0.9858036129	 0.134356
H	-0.6900089418	 1.8541662087	 0.7222421642	 0.161127
H	-0.5259201168	-0.0768329608	-2.0624959372	 0.143324
H	-0.3333626917	-3.669329068	-0.282552748	 0.263055
H	 0.1665629853	-3.8773196822	 1.9790488378	 0.208241
69.9442	95.081	133.2801	218.63	319.7924	361.4546	478.6705	482.7764	519.2524	535.1975	579.7049	615.0247	689.4714	795.5297	849.5999	872.7877	887.8866	1013.8691	1070.5167	1122.3652	1153.8504	1160.8601	1262.1395	1357.3361	1377.4061	1408.1489	1460.5982	1470.3891	1477.0999	1512.8498	1703.1777	1712.1792	1806.9064	3058.8289	3127.3258	3154.0165	3218.1321	3449.952	3622.3553	69.9394	95.0795	133.2794	218.6295	319.7924	361.4547	478.6704	482.7766	519.2521	535.1977	579.705	615.0248	689.4714	795.5298	849.5996	872.7891	887.8868	1013.8694	1070.517	1122.3653	1153.8511	1160.8603	1262.1396	1357.3362	1377.4062	1408.15	1460.5985	1470.3904	1477.1003	1512.8509	1703.1777	1712.1794	1806.9069	3058.8289	3127.3257	3154.0164	3218.1324	3449.9522	3622.3555
CN1C=NNC(=N)C1=O	CN1C=NN[C]([NH])C1=O	
InChI=1S/C4H6N4O/c1-8-2-6-7-3(5)4(8)9/h2H,1H3,(H2,5,7)	InChI=1S/C4H6N4O/c1-8-2-6-7-3(5)4(8)9/h2H,1H3,(H2,5,7)
