16
gdb 133812	3.87796	2.89343	2.16287	1.4299	74.02	-0.2031	-0.0535	0.1496	674.6492	0.131068	-309.315799	-309.310015	-309.309071	-309.344989	24.754	
C	-4.5026831101	-0.2441846937	 0.1416660563	-0.373327
C	-3.5049906785	-0.4877137285	-0.9959876322	-0.067
C	-2.104948458	-0.7316890756	 0.570256085	-0.091238
C	-1.1551257211	-0.37069041	-0.5390099497	-0.020969
C	-1.1757370947	 0.9687547025	-0.7377402571	-0.06907
C	-2.3002421146	 1.6191853422	 0.1011600692	-0.338838
C	-3.140264554	 0.332450561	 0.2814493683	 0.254721
C	-2.2930698764	-1.3946623737	-0.7627050112	-0.121985
H	-4.8257423255	-1.0235884049	 0.8282510981	 0.114124
H	-5.3086803829	 0.4133326971	-0.1772331948	 0.119422
H	-3.7269000904	-0.0188347485	-1.950094741	 0.085645
H	-1.7721776119	-1.1537732332	 1.5112582663	 0.084338
H	-0.748564911	 1.4910815258	-1.5908678851	 0.100844
H	-2.7757447311	 2.4167527203	-0.4817602515	 0.111247
H	-2.0025088885	 2.0527591396	 1.0653769421	 0.117382
H	-2.1606086413	-2.4293045104	-1.0599735228	 0.094703
296.2039	315.2721	331.302	428.2661	559.8565	605.7993	654.2192	715.1047	739.6909	783.5734	836.3621	846.	857.7815	906.4528	916.2115	950.2539	970.3602	995.3912	1015.2845	1025.9025	1082.5461	1101.2447	1102.0678	1124.5777	1180.8884	1228.4746	1233.2437	1248.758	1291.5353	1321.3778	1360.6961	1460.3553	1480.2031	1558.0591	3015.1466	3067.9829	3100.1308	3147.1173	3151.0175	3163.1856	3181.5991	3182.7144
C1C2C3C4=CCC13C24	C1[C@H]2[C@@]31[C@@H]1[C]([CH]C3)[C@H]21	
InChI=1S/C8H8/c1-2-8-3-5-6(8)4(1)7(5)8/h1,5-7H,2-3H2	InChI=1S/C8H8/c1-2-8-3-5(8)6-4(1)7(6)8/h1,5-7H,2-3H2/t5-,6-,7-,8-/m1/s1
