20
gdb 14125	3.56598	1.56205	1.41649	1.7754	74.48	-0.2441	0.0814	0.3255	1000.6743	0.175862	-348.978939	-348.970507	-348.969563	-349.011713	31.944	
C	 0.0180789458	 1.4489571129	-0.2223333963	-0.394418
C	 0.0330805191	-0.0535479128	 0.1037508909	-0.084963
C	 0.8729222193	-0.353386305	 1.3540005098	-0.395853
C	-1.3697104174	-0.5767675642	 0.2373212563	 0.456099
C	-2.4137581223	-0.3191947962	 1.3472659376	-0.296377
C	-3.0480827782	-1.7149344898	 1.0109086072	-0.235198
C	-1.9857743398	-1.8793845765	-0.0822878591	-0.054948
O	-2.1263661373	-0.7614623949	-0.9715868772	-0.304059
H	 1.0345645279	 1.822476911	-0.3816171642	 0.110435
H	-0.5658909224	 1.64527909	-1.1258227833	 0.132189
H	-0.4231867383	 2.0248482551	 0.5992516471	 0.114769
H	 0.4754373702	-0.5840354455	-0.7492642064	 0.084096
H	 0.48089915	 0.1706265859	 2.232749944	 0.117279
H	 0.8875613593	-1.4246028594	 1.5788585599	 0.11358
H	 1.906562409	-0.0239737122	 1.2095025361	 0.115044
H	-1.9896983915	-0.2860766482	 2.3533833176	 0.10579
H	-3.0444101109	 0.5582381429	 1.1875175716	 0.10756
H	-2.9413612536	-2.4309098378	 1.8295168967	 0.103082
H	-4.0814614472	-1.7163072616	 0.6562108492	 0.109841
H	-1.5613074618	-2.7866199735	-0.4990983775	 0.096055
60.8428	145.0506	200.323	227.3403	260.6655	268.5627	309.2898	461.439	469.9859	494.9219	619.0709	737.2277	775.4357	876.3274	878.4628	921.136	924.7019	930.6435	951.3846	968.3346	1005.9574	1036.7238	1055.9991	1128.8859	1155.1153	1185.7838	1209.5842	1212.8569	1218.7236	1263.5834	1290.7672	1328.5932	1343.6605	1396.6337	1416.8068	1452.9202	1463.4745	1489.141	1490.4451	1492.6416	1503.352	1516.0968	3024.4301	3029.7391	3033.8511	3062.2551	3069.9104	3095.4704	3101.3759	3105.3641	3113.4773	3115.7953	3129.9812	3174.0495
CC(C)C12CCC1O2	CC(C)[C@]12CC[C@H]1O2	
InChI=1S/C7H12O/c1-5(2)7-4-3-6(7)8-7/h5-6H,3-4H2,1-2H3	InChI=1S/C7H12O/c1-5(2)7-4-3-6(7)8-7/h5-6H,3-4H2,1-2H3/t6-,7-/m1/s1
