27
gdb 104983	2.24431	1.24616	1.0729	0.1974	94.85	-0.2597	0.0787	0.3384	1363.5866	0.250297	-353.552375	-353.541429	-353.540485	-353.587358	43.186	
C	 0.2047705195	 1.5382707101	 0.2860582871	-0.406969
C	 0.0412166472	 0.0507669228	-0.0478333727	-0.248111
C	 0.6790904633	-0.4564308316	-1.351812705	 0.378164
C	 0.3607417883	 0.3291288328	-2.6047884784	-0.323466
C	 1.7449171191	 0.394010161	-2.0066157463	-0.312109
C	 0.8232769681	-2.0041269879	-1.4244319945	 0.197381
C	-0.4943593523	-2.6869874421	-0.9977016754	-0.41109
C	 1.1561456966	-2.5128064633	-2.8426911661	-0.426219
C	 1.9615855421	-2.4535921851	-0.4829562915	-0.400032
H	 1.2483460118	 1.8000098904	 0.4847342001	 0.120051
H	-0.1594992669	 2.1911758412	-0.5137217321	 0.118468
H	-0.3688693664	 1.779938332	 1.1863419146	 0.111265
H	 0.4422028755	-0.5230983136	 0.7957124833	 0.097297
H	-1.0308204228	-0.1788654876	-0.0792584928	 0.100998
H	 0.2363755835	-0.1945062574	-3.5442275122	 0.106934
H	-0.2755113242	 1.202816937	-2.5096521152	 0.102691
H	 2.0508453621	 1.3135910323	-1.5228155634	 0.106407
H	 2.5499382659	-0.1004589031	-2.5381919336	 0.104288
H	-1.3342902073	-2.3351984569	-1.6068354937	 0.11081
H	-0.4181489149	-3.7716055553	-1.130199322	 0.103893
H	-0.7379079389	-2.5030782246	 0.051862618	 0.111041
H	 2.0482143657	-2.0410744763	-3.2649744254	 0.111941
H	 1.3495788671	-3.5899389306	-2.8053638765	 0.108367
H	 0.3253659164	-2.3578111382	-3.5369708558	 0.1134
H	 1.7892325996	-2.1417103369	 0.5512748609	 0.110064
H	 2.0534630517	-3.5452430386	-0.4838149446	 0.10416
H	 2.9221705502	-2.0355252005	-0.8010029769	 0.110377
64.1634	94.6459	204.9671	217.194	243.539	259.8053	291.686	293.6729	319.7173	333.7378	358.8318	368.5943	384.5567	442.0929	482.6384	509.8618	616.8437	767.8118	782.5413	800.8979	880.1171	906.684	921.4815	933.4203	941.4519	948.5268	959.6503	1030.7677	1039.2366	1050.1479	1053.976	1082.6176	1087.0061	1137.8227	1187.8875	1193.0277	1223.8571	1237.7322	1287.254	1320.3698	1325.2136	1383.4604	1397.6491	1400.4652	1414.2799	1430.9209	1463.8753	1480.5738	1484.3653	1488.2473	1494.5271	1500.0672	1505.5518	1511.3559	1516.0751	1518.5698	1521.8242	3022.9364	3028.2535	3032.0499	3037.8124	3039.9182	3054.343	3091.7471	3094.2205	3101.083	3101.8254	3106.1304	3108.5357	3110.6159	3111.7529	3139.6868	3145.1386	3215.5741	3228.1485
CCC1(CC1)C(C)(C)C	CCC1(CC1)C(C)(C)C	
InChI=1S/C9H18/c1-5-9(6-7-9)8(2,3)4/h5-7H2,1-4H3	InChI=1S/C9H18/c1-5-9(6-7-9)8(2,3)4/h5-7H2,1-4H3
