14
gdb 20526	4.87757	1.74876	1.29747	1.5086	65.71	-0.2621	-0.0432	0.2189	888.6133	0.108302	-378.775458	-378.768468	-378.767523	-378.807022	25.193	
C	-0.0871529972	 1.4955800763	 0.0097943191	-0.485123
C	 0.0508934935	-0.0042253342	 0.0029170548	 0.430265
O	 1.0944296233	-0.6081943634	-0.008276987	-0.311575
N	-1.1696490424	-0.7243243862	 0.0109189235	-0.028823
C	-1.2949575602	-2.0899946067	 0.0070225332	 0.004677
C	-2.6356246559	-2.3592759786	 0.0176905107	-0.241678
C	-3.2596988095	-1.0813795088	 0.0278877282	 0.010343
N	-2.3796750865	-0.0975743401	 0.0238053726	-0.257174
H	 0.9123564434	 1.9287761099	 0.0025265574	 0.144658
H	-0.6573938218	 1.8312568361	-0.8599099891	 0.162942
H	-0.6417326075	 1.8246361359	 0.8920739846	 0.162948
H	-0.4178302868	-2.7142947086	-0.0029220086	 0.164254
H	-3.1074975774	-3.3283473941	 0.0182144418	 0.118503
H	-4.3161006049	-0.8533713773	 0.0379513588	 0.125784
96.6667	126.0578	165.3392	227.5873	395.6038	530.0245	571.4912	633.587	648.3413	671.2556	794.7406	881.1478	914.5322	926.8405	939.6696	989.76	1059.2381	1061.9089	1070.5091	1159.7305	1236.0777	1290.2401	1368.5541	1398.719	1422.658	1449.4975	1459.826	1467.7959	1578.1424	1823.4023	3065.2256	3132.1821	3171.9189	3241.5392	3271.2969	3297.9669
CC(=O)N1C=CC=N1	CC(=O)n1cccn1	
InChI=1S/C5H6N2O/c1-5(8)7-4-2-3-6-7/h2-4H,1H3	InChI=1S/C5H6N2O/c1-5(8)7-4-2-3-6-7/h2-4H,1H3
