17
gdb 44755	3.05361	1.65164	1.28709	4.9853	74.39	-0.2628	-0.049	0.2138	987.5827	0.138391	-421.849861	-421.842956	-421.842011	-421.881166	27.745	
O	 0.0063631514	 0.4014736266	 1.0960857743	-0.328467
C	-0.0177483706	 1.2188255046	 0.2092346611	 0.391731
O	-1.2296896067	 1.5153558319	-0.3382997397	-0.254614
C	-1.4736832191	 2.4474375743	-1.3909561643	 0.132249
C	-0.5823449442	 2.2837880104	-2.6451839866	-0.246406
C	 0.3607637061	 3.3831289279	-2.0571309578	-0.081487
C	-0.8550040745	 3.8519275285	-1.1934319136	-0.246394
C	 1.434087203	 2.7793206249	-1.2033279298	-0.071163
C	 1.2427883484	 1.8624720948	-0.2490624828	-0.171417
H	-2.5530977873	 2.3914832191	-1.5332528875	 0.099302
H	-0.1555892094	 1.2974711502	-2.834401946	 0.119724
H	-1.1073869037	 2.6366829625	-3.5362523519	 0.11352
H	 0.7753665845	 4.1061567791	-2.7602616876	 0.0763
H	-1.4501960065	 4.6083156966	-1.7109545407	 0.113518
H	-0.6559254298	 4.1750701972	-0.1703538822	 0.11972
H	 2.452396272	 3.118096778	-1.3778661294	 0.11087
H	 2.0879480865	 1.4859988833	 0.3162868444	 0.123015
92.7821	226.8044	313.2047	365.0277	366.4599	451.8267	461.7935	560.7048	693.3033	708.7789	780.2755	783.2539	837.034	837.0414	870.9533	922.2351	923.118	995.2433	999.1597	1028.7165	1077.9073	1089.9503	1123.0651	1159.9736	1182.4141	1216.8106	1254.5191	1267.9125	1275.6011	1277.4069	1365.9743	1406.1376	1416.1554	1463.1602	1487.1276	1694.0257	1796.1113	3067.1209	3070.9384	3099.8429	3109.5621	3133.3575	3134.4558	3157.9097	3201.5565
O=C1OC2CC(C2)C=C1	O=C1O[C@@H]2C[C@@H](C2)C=C1	
InChI=1S/C7H8O2/c8-7-2-1-5-3-6(4-5)9-7/h1-2,5-6H,3-4H2	InChI=1S/C7H8O2/c8-7-2-1-5-3-6(4-5)9-7/h1-2,5-6H,3-4H2/t5-,6+
