19
gdb 53148	3.46266	0.93908	0.85318	2.2373	85.73	-0.2316	0.0429	0.2744	1443.1462	0.156864	-385.808087	-385.798704	-385.79776	-385.843836	34.073	
C	 0.1024775089	 1.5832076841	-0.0297926945	-0.500983
C	 0.0599248344	 0.1285059798	 0.0044755623	 0.102188
C	 0.0293863748	-1.0763049613	 0.0331836585	 0.027927
C	-0.0033977968	-2.5219620542	 0.0535822125	-0.213898
C	-0.1619932339	-3.3273743163	 1.3817713616	 0.045451
C	-1.6257270916	-2.8599494853	 1.5087952239	-0.276892
C	-1.3653383503	-3.3124439453	 0.0461459779	 0.412219
C	-2.3167107313	-3.5257839631	-1.0870431676	-0.514769
O	-0.619729384	-4.4812911498	 0.5843172207	-0.342568
H	 0.8600179379	 1.9416723824	-0.735499979	 0.15032
H	-0.8615161295	 2.0036677828	-0.3373438622	 0.148172
H	 0.3450461553	 1.9979821479	 0.9549563478	 0.149227
H	 0.7320247251	-2.9777084331	-0.6142792284	 0.100091
H	 0.5847123103	-3.5105842557	 2.1538800403	 0.096717
H	-2.2709701634	-3.5259710986	 2.0830102535	 0.103622
H	-1.8159034312	-1.8012274414	 1.6921539667	 0.110495
H	-2.74669006	-2.5685518839	-1.3975224124	 0.134426
H	-1.7996641084	-3.9691931821	-1.9433000096	 0.134481
H	-3.1302711864	-4.1930050768	-0.7866209019	 0.133775
17.1659	82.0762	102.2611	184.7273	227.3271	280.8814	304.5861	341.6571	438.8765	473.6319	504.4497	579.5282	643.0405	703.9686	821.2183	857.5573	876.9425	910.0938	917.0063	986.8933	1014.8479	1045.1652	1052.9433	1054.6749	1076.5814	1142.0874	1173.3114	1189.6996	1202.6808	1228.8154	1248.4915	1303.9208	1366.6514	1411.2133	1414.9208	1476.2702	1477.9035	1477.9441	1486.5777	1489.5225	2361.8568	3025.6071	3039.5299	3075.9372	3081.4388	3085.6097	3087.1815	3114.8255	3116.5392	3124.187	3154.448
CC#CC1C2CC1(C)O2	CC#C[C@H]1[C@H]2C[C@]1(C)O2	
InChI=1S/C8H10O/c1-3-4-6-7-5-8(6,2)9-7/h6-7H,5H2,1-2H3	InChI=1S/C8H10O/c1-3-4-6-7-5-8(6,2)9-7/h6-7H,5H2,1-2H3/t6-,7+,8-/m0/s1
