16
gdb 10100	2.30209	1.67496	1.09177	3.8265	66.8	-0.2744	0.0012	0.2755	1083.5428	0.129652	-379.963752	-379.954796	-379.953852	-379.998324	30.606	
C	 0.0434148934	 1.5464399879	-0.1915369247	-0.393944
C	 0.016617715	 0.0233898908	-0.0610489043	-0.178091
C	 0.7677626604	-0.6877852681	-1.2089101724	-0.118883
N	 2.1842230109	-0.3539024718	-1.2631061737	-0.278405
C	 2.7319092557	 0.2979391398	-2.3313171579	 0.163721
O	 2.1080571046	 0.7086014009	-3.283825083	-0.31143
C	 0.5972634316	-2.1470486631	-1.1088879112	 0.274962
N	 0.4673405853	-3.2893420742	-0.9934812445	-0.31437
H	 1.0669917883	 1.9305308904	-0.167824119	 0.127801
H	-0.413902419	 1.8731208877	-1.1307247117	 0.136604
H	-0.508177072	 2.0077028469	 0.6321324874	 0.125016
H	 0.4536487611	-0.2908487193	 0.8943348312	 0.112493
H	-1.015597987	-0.3429195861	-0.0638710759	 0.128825
H	 0.3606746887	-0.3562979659	-2.1706533822	 0.170305
H	 2.7929600976	-0.706866532	-0.5407490811	 0.262101
H	 3.8255865854	 0.4206407562	-2.2190678169	 0.093295
35.5574	94.3421	141.7824	158.715	196.5118	246.6769	299.5156	326.5612	447.4783	518.5352	539.1206	573.5604	734.1974	789.3849	904.5479	974.8593	981.137	1032.4652	1065.2673	1118.1665	1142.1069	1198.2727	1286.111	1310.4406	1346.4698	1376.5627	1416.1538	1426.2678	1480.1231	1497.0139	1504.165	1519.3195	1806.7608	2358.9331	2961.2732	3037.5742	3046.0667	3067.6953	3082.1686	3117.5507	3121.7031	3629.5997
CCC(NC=O)C#N	CC[C@@H](NC=O)C#N	
InChI=1S/C5H8N2O/c1-2-5(3-6)7-4-8/h4-5H,2H2,1H3,(H,7,8)	InChI=1S/C5H8N2O/c1-2-5(3-6)7-4-8/h4-5H,2H2,1H3,(H,7,8)/t5-/m1/s1
