20
gdb 106247	2.70367	1.25536	1.04129	4.2515	79.73	-0.2398	-0.0054	0.2344	1242.8663	0.169361	-403.144884	-403.135594	-403.13465	-403.179005	34.64	
C	 0.3247722188	 1.2737616348	 0.5790861812	-0.381413
C	-0.0827138007	 0.1554755854	-0.3906492707	-0.280829
C	-1.4696953839	-0.3571709791	-0.1228502271	 0.329529
C	-1.8183323629	-1.3227986657	 1.0155645819	-0.445313
C	-2.5968241823	-2.1013251303	-0.0544248731	 0.40728
O	-3.2250030213	-3.1137951498	-0.0790824512	-0.301987
N	-2.2085779244	-1.2470250136	-1.1593154681	-0.239795
C	-2.6746015184	 0.1429078584	-0.8080070829	-0.030345
C	-4.0296550462	 0.4165563	-0.1980242695	-0.425091
H	 1.3397355424	 1.6214322859	 0.366859759	 0.122125
H	-0.3497831788	 2.1324425657	 0.4989587954	 0.120113
H	 0.3012146921	 0.9279320852	 1.6179610263	 0.122394
H	-0.033389766	 0.5172987139	-1.4238409604	 0.11391
H	 0.628046688	-0.6772276607	-0.3180484973	 0.107846
H	-0.9561274049	-1.8959893164	 1.3682340627	 0.139138
H	-2.3728910172	-0.9473901028	 1.878747591	 0.129787
H	-2.452646391	 0.7970829965	-1.6498708037	 0.107081
H	-4.2430906931	-0.2050475592	 0.6741512591	 0.13492
H	-4.0913430308	 1.4656124695	 0.1098161426	 0.127518
H	-4.8167036292	 0.2362579922	-0.9368900854	 0.143135
69.7334	106.0171	147.013	195.8485	202.9455	262.5266	301.0587	349.5604	403.3699	485.0844	498.1447	596.1475	625.8306	666.2569	737.508	789.6729	838.1849	880.2524	951.3402	976.9255	992.7562	1031.0737	1054.1506	1078.186	1081.5103	1124.9333	1150.5042	1178.7871	1213.1092	1255.7917	1306.5315	1352.0381	1361.4417	1410.9369	1415.3636	1445.9021	1469.1271	1485.4854	1492.2081	1498.2453	1504.0559	1508.9644	1910.6543	3028.8519	3036.4497	3043.1749	3065.9953	3068.1851	3104.9789	3106.1255	3112.7316	3115.7923	3118.1877	3135.4163
CCC12CC(=O)N1C2C	CC[C@]12CC(=O)N1[C@H]2C	
InChI=1S/C7H11NO/c1-3-7-4-6(9)8(7)5(7)2/h5H,3-4H2,1-2H3	InChI=1S/C7H11NO/c1-3-7-4-6(9)8(7)5(7)2/h5H,3-4H2,1-2H3/t5-,7+,8?/m0/s1
