20
gdb 107933	3.88827	1.1638	1.0679	2.5731	79.14	-0.228	0.0614	0.2895	1201.8992	0.17052	-403.080827	-403.0722	-403.071256	-403.113901	33.239	
C	-0.1163516784	 1.4838730963	-0.0164568292	-0.496371
C	 0.0017317435	-0.0060251487	-0.0675819208	 0.351937
C	 0.896125651	-0.8577349333	-0.9715889882	-0.318771
C	 0.0918316892	-2.0780065113	-0.4424148819	 0.332146
C	-0.0501365433	-3.3381883809	-1.2450950219	-0.218749
O	 1.2468027159	-3.9077857795	-1.3742891655	-0.422106
C	 0.4715604594	-2.0669544113	 1.0487791586	-0.180114
N	-0.2544902588	-0.7651932063	 1.2162713701	-0.187068
C	-1.0419049108	-1.0603914683	-0.0187556927	-0.181266
H	 0.8119093969	 1.9369763192	 0.3498121152	 0.123464
H	-0.3239185611	 1.895762157	-1.0100331701	 0.115189
H	-0.9230626825	 1.7806460127	 0.659245581	 0.132173
H	 0.6812182889	-0.6548901126	-2.0250750796	 0.09706
H	 1.9788071225	-0.8588688383	-0.8073689378	 0.098368
H	-0.7409792499	-4.0289741583	-0.7337700666	 0.087101
H	-0.4873829972	-3.1076619864	-2.2307695252	 0.086175
H	 1.1686848657	-4.7251256315	-1.8748657599	 0.290262
H	-0.0489298828	-2.8304461282	 1.6346246854	 0.100541
H	 1.5346521096	-2.054064196	 1.3134679238	 0.099921
H	-2.1237827777	-1.0519220344	-0.0709084547	 0.090109
77.9492	142.4316	191.7856	223.6738	254.5185	283.7949	354.5719	374.6769	453.9974	471.0013	599.3978	666.5258	719.811	753.8223	838.3117	902.8523	927.1452	936.8665	965.8692	983.4205	1001.9352	1019.8226	1025.8352	1063.1566	1098.4714	1133.8843	1154.0655	1162.6182	1176.8417	1193.1518	1231.6802	1264.302	1276.7491	1298.7655	1356.6685	1393.3639	1432.3908	1469.5552	1484.7154	1491.501	1495.3131	1514.5363	1522.1702	2956.3345	2983.1495	3030.2248	3034.7882	3043.7887	3090.4064	3094.2856	3098.841	3116.2122	3187.5939	3830.2385
CC12CC3(CO)CN1C23	C[C@@]12C[C@@]3(CO)CN1[C@@H]23	
InChI=1S/C7H11NO/c1-6-2-7(4-9)3-8(6)5(6)7/h5,9H,2-4H2,1H3	InChI=1S/C7H11NO/c1-6-2-7(4-9)3-8(6)5(6)7/h5,9H,2-4H2,1H3/t5-,6-,7-,8?/m0/s1
