18
gdb 90381	2.53745	1.37565	1.18092	3.3986	76.8	-0.2634	0.0299	0.2933	1116.8901	0.14702	-401.937383	-401.928594	-401.92765	-401.970555	33.067	
C	 8.7382*^-6	 1.5599412837	-0.0154105735	-0.502312
C	 0.0793285863	 0.0621657591	-0.0279704059	 0.3314
C	 0.6248950147	-0.9206299712	-1.0581512251	-0.109155
C	 1.2455488244	-1.7844518488	 0.0423683769	-0.277524
C	 0.6721301422	-0.7876763243	 1.109754083	 0.054402
O	 1.6558520599	-0.0335751113	 1.7833798472	-0.436466
C	-0.8745443183	-0.7973458144	-0.8430027343	-0.244262
C	-1.6660272264	-1.8562678343	-0.2743466555	 0.304563
N	-2.2880021285	-2.7093348856	 0.2001901927	-0.358753
H	 0.9503026773	 1.984380886	 0.3182006114	 0.147522
H	-0.2248992031	 1.951459186	-1.0126283452	 0.118362
H	-0.7823162685	 1.9086689104	 0.6680029342	 0.131123
H	 1.0398707787	-0.7307095087	-2.0412380253	 0.099699
H	 0.922624489	-2.8280869154	 0.0908662178	 0.119029
H	 2.3357404594	-1.7288124389	 0.0435954943	 0.113064
H	-0.0589629532	-1.2077583116	 1.8132035787	 0.087952
H	 2.0474559157	-0.5911383758	 2.4630292002	 0.289455
H	-1.3899586677	-0.2435035351	-1.6221997017	 0.131901
110.4565	133.6194	172.8826	203.861	244.1959	254.1925	344.4684	367.0848	412.1052	457.0278	566.2684	608.7666	642.5915	767.9908	788.7089	848.4821	883.5018	918.8831	962.5627	974.9695	1020.1985	1029.4836	1090.8139	1105.3211	1142.7251	1179.6918	1213.5725	1237.4437	1246.5354	1256.8229	1308.667	1335.8945	1406.0282	1426.7441	1446.0506	1480.7053	1481.8104	1500.3115	2345.2505	3013.6884	3034.8314	3061.7157	3097.1192	3122.4636	3126.7971	3158.471	3179.7817	3822.7282
CC12C(CC1O)C2C#N	C[C@@]12[C@@H](C[C@H]1O)[C@H]2C#N	
InChI=1S/C7H9NO/c1-7-4(2-6(7)9)5(7)3-8/h4-6,9H,2H2,1H3	InChI=1S/C7H9NO/c1-7-4(2-6(7)9)5(7)3-8/h4-6,9H,2H2,1H3/t4-,5+,6+,7-/m0/s1
