18
gdb 79753	2.45098	1.76363	1.37352	3.0467	70.54	-0.2172	0.0582	0.2753	986.6614	0.148037	-439.025441	-439.017519	-439.016575	-439.057306	31.612	
O	 0.1264335205	 1.3874546769	 0.1202543016	-0.401871
C	 0.0107490029	 0.0029151422	-0.0406942769	 0.001522
C	-1.3379457922	-0.691270027	-0.0291181339	-0.132201
C	-2.6439666791	-0.0078741777	-0.352464425	-0.031676
C	-2.7189136499	 1.4380836957	-0.6948807798	-0.259286
N	-2.6501435487	 0.4331543883	-1.7668802225	-0.096208
C	-1.303895331	 0.1599711315	-2.3141590329	-0.242994
C	-0.4962236406	-0.6640931055	-1.2923849952	 0.302657
O	 0.1271961641	-1.8312675647	-1.7425175479	-0.453605
H	 0.9162269754	 1.676918281	-0.3494975098	 0.288968
H	 0.7843617708	-0.5701661441	 0.4743321095	 0.093985
H	-1.3919718431	-1.5954703667	 0.566130306	 0.10145
H	-3.5349299911	-0.5249105598	-0.0061431551	 0.09093
H	-3.6784524229	 1.945870688	-0.6331288172	 0.105715
H	-1.8526420484	 2.0541930058	-0.4940041408	 0.140402
H	-1.4084502896	-0.4581506348	-3.2110626061	 0.117409
H	-0.810077724	 1.0957667848	-2.6025939164	 0.093409
H	 0.989565017	-1.5980509539	-2.1031969678	 0.281395
150.0438	208.0809	236.1745	272.252	281.5302	314.0277	375.1467	408.3087	509.6727	569.7421	648.7449	685.0465	709.5535	765.0771	814.7873	858.4314	891.3101	948.8533	975.2059	991.6515	1045.3457	1066.4864	1086.6189	1113.3129	1131.6923	1144.9405	1163.7459	1218.4693	1232.6419	1272.7741	1281.6284	1285.557	1310.749	1343.1965	1360.5957	1383.2504	1469.5798	1489.0039	1507.8876	3030.507	3080.74	3082.282	3115.5539	3138.4403	3182.2152	3236.7133	3794.2648	3798.8538
OC1C2C3CN3CC12O	O[C@H]1[C@H]2[C@H]3CN3C[C@@]12O	
InChI=1S/C6H9NO2/c8-5-4-3-1-7(3)2-6(4,5)9/h3-5,8-9H,1-2H2	InChI=1S/C6H9NO2/c8-5-4-3-1-7(3)2-6(4,5)9/h3-5,8-9H,1-2H2/t3-,4-,5+,6+,7?/m1/s1
