18
gdb 121428	2.33298	0.90495	0.6731	4.2884	73.86	-0.2631	-0.0272	0.2359	1621.0372	0.144502	-476.245105	-476.234799	-476.233854	-476.282127	34.974	
C	-0.0577759064	 1.4532150155	 0.2790887972	-0.478841
C	 0.16753933	 0.0153038699	-0.0917899084	 0.40766
O	 0.2767876819	-0.7357658909	 1.0675438792	-0.216164
C	-0.0438922124	-2.0682149463	 1.0403147238	 0.177111
O	 0.1917321535	-2.775222188	 1.9689133987	-0.25437
N	 0.2783776685	-0.5522642617	-1.2105095683	-0.293836
C	 0.180675549	 0.1544934329	-2.4759320701	-0.169956
C	 1.2026161783	-0.4483348041	-3.445592477	-0.040415
O	 0.9995887005	-1.8325398729	-3.618971435	-0.41734
H	 0.6649401207	 1.7479351662	 1.0446363085	 0.162891
H	 0.0278929737	 2.1205111258	-0.5771236674	 0.144199
H	-1.0553246769	 1.5660048369	 0.7164499942	 0.158497
H	-0.542177147	-2.3614426901	 0.1070492506	 0.118074
H	-0.8237224484	-0.0141844323	-2.8849079855	 0.123809
H	 0.3359486152	 1.2392013	-2.396492125	 0.094561
H	 1.0964388344	 0.0207392028	-4.42938338	 0.10801
H	 2.218725218	-0.2289978836	-3.0779723724	 0.088232
H	 0.9377725374	-2.19963007	-2.7284057831	 0.287879
36.9418	76.5829	91.5411	104.9082	129.9775	185.6989	207.2278	278.2628	363.5633	415.1347	444.1976	500.5773	544.6176	582.7187	667.2569	808.4934	902.5656	954.8371	1001.2415	1040.7028	1058.6391	1086.7939	1092.2431	1113.5389	1137.7331	1214.5223	1240.489	1272.4434	1371.1524	1388.8856	1398.2948	1412.4387	1436.5517	1468.1451	1474.0048	1483.4988	1508.2086	1773.64	1871.6184	2969.9654	3004.3307	3053.5611	3056.6305	3064.4806	3076.5488	3116.0302	3166.0615	3781.5898
CC(OC=O)=NCCO	CC(=NCCO)OC=O	
InChI=1S/C5H9NO3/c1-5(9-4-8)6-2-3-7/h4,7H,2-3H2,1H3	InChI=1S/C5H9NO3/c1-5(9-4-8)6-2-3-7/h4,7H,2-3H2,1H3
