18
gdb 66777	3.36494	2.01843	1.73766	1.9457	75.93	-0.2172	0.0677	0.2849	851.3308	0.150057	-364.742538	-364.736353	-364.735409	-364.772638	26.719	
C	-0.0091427775	 1.4408049169	 0.0149302558	-0.514726
C	-0.0049641495	-0.0661588067	 0.0254575252	 0.357068
C	 0.2261484856	-0.8608540861	 1.2957777544	-0.133678
C	 1.2746610879	-0.8608147818	 0.1839060353	-0.123029
C	 0.8025309946	-2.2534965866	-0.265172905	-0.019552
C	-0.250717954	-2.2753304197	 0.8783409517	-0.089959
C	-1.3165918402	-2.1412647323	-0.2336875159	-0.051092
C	-0.9319802855	-0.8682729483	-0.8812325734	-0.129582
N	-0.2817508099	-2.1303238809	-1.3346711027	-0.161693
H	 0.7238284366	 1.8403557653	 0.7224465489	 0.120738
H	 0.2397205463	 1.8323263948	-0.9776238248	 0.125181
H	-0.9904726026	 1.8390205461	 0.2958326753	 0.122432
H	 0.2634478918	-0.4242506404	 2.2872153215	 0.083927
H	 2.268797576	-0.4316406664	 0.1454284011	 0.084939
H	 1.5131141693	-3.0566606744	-0.4444107447	 0.077455
H	-0.3030845873	-3.0755497133	 1.6114122122	 0.073888
H	-2.2647870141	-2.6587510061	-0.3342006038	 0.089718
H	-1.5579201075	-0.3765886802	-1.6169314611	 0.087966
200.4918	236.7814	279.954	553.2719	560.004	572.2857	689.9593	728.1757	761.635	780.7805	795.6241	802.7205	854.7138	881.3917	896.6563	905.1274	914.2352	927.0125	947.7437	969.8197	1000.2833	1045.8406	1049.1723	1060.9513	1110.0519	1115.1402	1163.4384	1187.1068	1201.7581	1216.4472	1236.7143	1246.8409	1285.0504	1310.6061	1334.0789	1413.662	1420.5528	1489.8433	1502.1626	3027.7834	3087.6192	3102.0557	3143.8361	3153.1271	3164.2597	3171.6863	3182.3788	3186.5768
CC12C3C1C1C3C3C2N13	C[C@]12[C@@H]3[C@H]1[C@H]1[C@@H]3[C@H]3[C@@H]2N13	
InChI=1S/C8H9N/c1-8-3-2-5(4(3)8)9-6(2)7(8)9/h2-7H,1H3	InChI=1S/C8H9N/c1-8-3-2-5(4(3)8)9-6(2)7(8)9/h2-7H,1H3/t2-,3+,4+,5-,6+,7+,8+,9?/m1/s1
