19
gdb 41861	2.55978	2.07439	1.62007	1.5853	78.56	-0.2197	0.0211	0.2408	910.573	0.163101	-385.889976	-385.883303	-385.882359	-385.920893	27.726	
C	 0.0645438189	 1.5594361841	 0.1027794386	-0.075853
O	 1.4062066094	 1.9739664612	-0.1663604283	-0.249441
C	 2.0400333231	 0.9712536678	-0.9040459507	 0.089354
C	 2.5796202462	-0.241709622	-0.1468646163	-0.119577
C	 2.598296515	-0.2990756402	 1.3318476565	-0.035546
C	 1.4937056456	-0.4844849992	 2.0549097992	-0.071995
C	 0.1314455503	-0.6511929225	 1.4259492457	-0.2704
C	 0.0322381607	 0.0113574779	 0.0380342301	-0.050599
C	 1.2411089037	-0.2947540798	-0.8631034902	-0.133524
H	-0.2166092688	 1.953402337	 1.0842822802	 0.105341
H	-0.6106590316	 1.9903433806	-0.6517357426	 0.089913
H	 2.5607553659	 1.3265915285	-1.7878685637	 0.094465
H	 3.4065053488	-0.7395498713	-0.6474446709	 0.086453
H	 3.5616721243	-0.1803896669	 1.8205537962	 0.086141
H	 1.5544834388	-0.5347648005	 3.1386153221	 0.084901
H	-0.1071668357	-1.7218681213	 1.3426767232	 0.108117
H	-0.6391355366	-0.2308280832	 2.0838487028	 0.101047
H	-0.8899980798	-0.3188462947	-0.449297583	 0.074826
H	 1.1118932719	-0.9322054454	-1.7292284787	 0.086379
111.1454	190.3365	329.6408	357.8708	477.1087	528.0074	568.2491	697.5694	711.8339	744.4124	755.3976	801.4265	806.564	886.0223	903.3584	924.2481	972.0029	989.3112	999.2431	1017.1474	1020.5912	1042.8075	1066.1219	1099.7348	1107.2641	1125.9038	1182.8608	1194.2566	1218.3812	1234.3054	1296.7216	1306.1041	1314.6222	1338.0009	1378.8163	1391.268	1418.4222	1425.7084	1476.0816	1512.4508	1714.1312	2986.388	2998.6102	3041.1821	3060.4086	3078.708	3133.2065	3151.0281	3154.8412	3173.6231	3179.4658
C1OC2C3C=CCC1C23	C1O[C@H]2[C@H]3C=CC[C@@H]1[C@@H]23	
InChI=1S/C8H10O/c1-2-5-4-9-8-6(3-1)7(5)8/h1,3,5-8H,2,4H2	InChI=1S/C8H10O/c1-2-5-4-9-8-6(3-1)7(5)8/h1,3,5-8H,2,4H2/t5-,6-,7+,8-/m0/s1
