14
gdb 13048	4.15104	1.44154	1.12946	3.6351	61.11	-0.2512	0.0071	0.2583	1002.7058	0.107175	-415.864587	-415.856831	-415.855887	-415.897615	26.646	
N	-0.0219637182	 1.2240388249	 0.0196640945	-0.435469
C	-0.1196348186	-0.008418531	-0.2234350918	 0.120742
O	-1.0512190808	-0.7391147216	 0.443958964	-0.197504
C	-1.0416453555	-2.1259001492	 0.1931350794	-0.035145
C	-2.3414608604	-2.8331686383	 0.654626592	-0.184096
N	-2.515088955	-3.2675220982	-0.7380546853	-0.329179
C	-1.4448961182	-2.5810008016	-1.2469483627	 0.421429
O	-1.016362527	-2.4002290461	-2.3545714225	-0.355517
H	 0.7054056158	 1.6339361897	-0.562848313	 0.233804
H	 0.4618680598	-0.59182912	-0.9451492242	 0.121194
H	-0.1198355056	-2.5937058976	 0.5561805853	 0.114934
H	-2.2144268895	-3.6488015394	 1.3710675846	 0.123892
H	-3.0990105237	-2.1280777988	 1.0060755882	 0.140363
H	-3.2591370229	-3.7734291928	-1.1954318387	 0.260552
74.9055	90.0642	114.3197	187.0161	248.1175	366.0714	446.9329	514.3036	584.5935	744.6067	770.7713	826.0665	869.7575	936.2098	986.182	1031.2069	1043.6229	1092.889	1156.5224	1183.7274	1188.1807	1214.5129	1285.0349	1303.1615	1356.2096	1402.4685	1429.2891	1521.1198	1746.9962	1896.9746	3049.4876	3060.5254	3074.709	3116.2033	3518.5371	3613.1811
N=COC1CNC1=O	[NH][CH]O[C@H]1CNC1=O	
InChI=1S/C4H6N2O2/c5-2-8-3-1-6-4(3)7/h2-3,5H,1H2,(H,6,7)	InChI=1S/C4H6N2O2/c5-2-8-3-1-6-4(3)7/h2-3,5H,1H2,(H,6,7)/t3-/m0/s1
