17
gdb 24150	4.8479	0.96079	0.8647	2.2548	73.72	-0.2377	0.001	0.2387	1319.6569	0.138186	-418.007745	-418.000023	-417.999079	-418.041246	28.377	
C	 0.7056333046	 0.4538055628	 0.6780834649	-0.3659
C	-0.1826165562	 0.0070482838	-0.4737396396	 0.039874
C	-1.6440447922	-0.1514057287	-0.2689925764	-0.246328
N	-1.1203170326	 0.9503538346	-1.092671521	-0.305828
C	 1.735903538	 1.4552512751	 0.2610936879	 0.269883
C	 3.074472006	 1.331249501	 0.0926736455	-0.117121
O	 3.5717871492	 2.5371567942	-0.3242609579	-0.138597
C	 2.4866012721	 3.3376234713	-0.3858954087	 0.079726
N	 1.3761166966	 2.768539445	-0.0539186209	-0.300446
H	 0.081054038	 0.9026643213	 1.4602036117	 0.114853
H	 1.1964944961	-0.4201422643	 1.1211690634	 0.110931
H	 0.3146416977	-0.6396919246	-1.1950446208	 0.091093
H	-2.1979619452	-0.9094548485	-0.8158740276	 0.115773
H	-2.0410229735	 0.0707713595	 0.7191481155	 0.10752
H	-1.1147159327	 1.8259586854	-0.5743986795	 0.24302
H	 3.7868333945	 0.5336321097	 0.2130583216	 0.147796
H	 2.6516959998	 4.3573300624	-0.6966571881	 0.153752
53.0578	68.386	121.8005	297.9239	313.1018	361.8608	444.7958	638.1091	674.5763	746.4805	780.666	803.0819	829.556	850.0297	916.1348	936.1931	939.5871	965.1655	998.8025	1054.2485	1094.8398	1118.7452	1130.4796	1145.669	1165.0926	1241.138	1245.893	1259.9191	1286.3937	1317.8796	1330.075	1357.2534	1418.2987	1465.7205	1513.6026	1559.2984	1631.8612	3028.3016	3073.2627	3102.2062	3118.3013	3186.0988	3275.473	3294.6382	3502.4711
C(C1CN1)C1=COC=N1	C([C@H]1CN1)c1cocn1	
InChI=1S/C6H8N2O/c1(5-2-7-5)6-3-9-4-8-6/h3-5,7H,1-2H2	InChI=1S/C6H8N2O/c1(5-2-7-5)6-3-9-4-8-6/h3-5,7H,1-2H2/t5-/m0/s1
