15
gdb 129645	2.36486	1.89867	1.05625	4.252	76.81	-0.1972	-0.0443	0.1529	1057.7262	0.114293	-450.115221	-450.107247	-450.106303	-450.147391	30.814	
N	-0.0470079519	 1.4141122127	 0.0449632504	-0.606722
C	-0.0268665581	 0.0149064368	-0.0186329869	 0.185129
C	-1.1727626839	-0.718780078	 0.0484214258	 0.206461
N	-2.4348029386	-0.1652407638	 0.1252944486	-0.598925
C	-1.0871265218	-2.1677606049	-0.0078570067	 0.380487
N	-2.1378022275	-2.8886694887	 0.0477372303	-0.56613
O	 0.1619060769	-2.7322603853	-0.1185219497	-0.28776
N	 1.3445695097	-1.9901452363	-0.1519592704	-0.105906
C	 1.2059046522	-0.7084227249	-0.1073973139	 0.003028
H	 0.8247668752	 1.8468607557	-0.2293665914	 0.251964
H	-0.8141749018	 1.8167451029	-0.4822337388	 0.256932
H	-2.5085698171	 0.64963832	 0.7201491144	 0.254336
H	-3.1385847736	-0.8714715203	 0.3095893492	 0.275558
H	-1.9106204841	-3.8808683554	 0.0029316206	 0.227329
H	 2.1506555243	-0.1698346206	-0.1428113815	 0.124218
125.7847	166.0946	222.8076	273.382	282.3643	335.6332	464.3148	490.8422	518.488	529.0172	549.6066	622.2695	678.387	690.2172	734.0005	787.9894	813.6353	882.1773	912.5979	924.5361	999.1264	1065.8451	1121.9763	1266.7858	1276.7064	1328.1837	1402.3135	1432.4616	1603.2649	1634.03	1654.8432	1699.2089	1720.9475	3158.0336	3507.8905	3517.5456	3520.9874	3624.1974	3630.1882
NC1=C(N)C(=N)ON=C1	N[C]1C(=C([NH])ON=C1)N	
InChI=1S/C4H6N4O/c5-2-1-8-9-4(7)3(2)6/h1,7H,5-6H2	InChI=1S/C4H6N4O/c5-2-1-8-9-4(7)3(2)6/h1,7H,5-6H2
