23
gdb 82173	2.60653	1.56246	1.23714	0.3572	88.22	-0.2365	0.0826	0.3191	1143.0626	0.206939	-351.145221	-351.136702	-351.135758	-351.177552	34.953	
C	 0.0192796439	 1.6062344633	 0.0012498706	-0.38598
C	 0.0448111196	 0.0726817343	 0.0028157389	-0.008621
C	 0.716009641	-0.5649626354	-1.2245178367	-0.038113
C	 2.1841333276	-0.3489504938	-1.5008960556	-0.309007
C	 1.734317375	-1.5791535468	-0.7502832173	-0.096552
C	 1.7283011178	-1.5984568936	 0.7756773979	 0.36624
C	 1.8735095396	-2.9513551314	 1.4334796181	-0.491043
C	 2.1884058418	-0.3558444395	 1.5024858643	-0.347991
C	 0.7154557976	-0.5648743887	 1.2289884249	-0.083023
H	 1.0316013909	 2.0222528953	 0.0037144649	 0.111832
H	-0.4954831033	 1.9901203311	-0.8859060595	 0.109351
H	-0.5007173638	 1.9922640889	 0.8843509918	 0.10958
H	-0.9964834781	-0.2758162738	 0.0021562938	 0.071827
H	 0.0800784158	-0.7679350357	-2.0804295271	 0.077486
H	 2.5078609501	-0.4928858714	-2.5270273691	 0.104573
H	 2.7327411963	 0.4318662341	-0.988107123	 0.1098
H	 1.8421763569	-2.5412888146	-1.2398157908	 0.075535
H	 2.8688645193	-3.3767749816	 1.2576183412	 0.116438
H	 1.7308973942	-2.8815648293	 2.5164166012	 0.11141
H	 1.1357723427	-3.6641282536	 1.0456364971	 0.11369
H	 2.5093522669	-0.4833826464	 2.5322164206	 0.101467
H	 2.7396468025	 0.4163597768	 0.9794878382	 0.106446
H	 0.0822045857	-0.7550641682	 2.0908987557	 0.074655
140.1595	183.1372	219.2212	227.3857	245.5656	309.3323	374.8052	391.2723	471.2043	523.9368	586.3296	644.5309	691.54	763.62	798.9213	814.5185	846.7632	900.9829	943.1152	946.6692	964.5789	986.5529	1016.607	1031.0652	1053.1613	1057.5347	1061.8535	1073.323	1101.0939	1109.7419	1121.0796	1146.4762	1160.9907	1212.8562	1233.0862	1287.7974	1318.2971	1348.1033	1351.1368	1382.4457	1406.7048	1413.6312	1420.8425	1481.96	1489.5437	1494.5891	1498.1287	1501.8563	1510.8071	3011.8049	3018.7968	3032.2022	3075.8428	3096.8092	3097.1563	3104.9286	3125.9579	3134.7263	3142.0004	3149.7725	3163.0772	3206.0147	3217.6084
CC1C2CC2C2(C)CC12	C[C@H]1[C@H]2C[C@H]2[C@@]2(C)C[C@@H]12	
InChI=1S/C9H14/c1-5-6-3-7(6)9(2)4-8(5)9/h5-8H,3-4H2,1-2H3	InChI=1S/C9H14/c1-5-6-3-7(6)9(2)4-8(5)9/h5-8H,3-4H2,1-2H3/t5-,6+,7+,8-,9+/m0/s1
