17
gdb 32270	2.54534	1.47334	0.94564	2.6351	78.56	-0.2161	-0.014	0.2022	1188.5554	0.138401	-418.05834	-418.050177	-418.049233	-418.091026	31.202	
N	 0.012187692	 1.4087818655	 0.1360389716	-0.598178
C	 0.0393026098	 0.0129883457	 0.0295986278	 0.19575
C	-1.1398842839	-0.7386864352	 0.1116370183	-0.045116
N	-1.1898159176	-2.0677367083	 0.0761929656	-0.272231
C	-0.0334036869	-2.7210952025	-0.0597638553	-0.016594
C	 1.1955463569	-2.0743593832	-0.1472926859	-0.195572
C	 1.2526257752	-0.6856524385	-0.0915813578	 0.187546
C	 2.567855108	 0.0619291562	-0.1385840469	-0.172769
O	 3.7078756042	-0.75995133	 0.0163990405	-0.405209
H	 0.6633447979	 1.8984028332	-0.4615250664	 0.252847
H	-0.9142229958	 1.8027279572	 0.0422856553	 0.249241
H	-2.0928155419	-0.2193781453	 0.216640973	 0.090249
H	-0.0910733818	-3.8055473114	-0.1000249385	 0.101447
H	 2.1135536877	-2.6399829732	-0.2579001473	 0.104182
H	 2.6922649196	 0.5480437134	-1.1165627826	 0.123882
H	 2.5464242624	 0.8707659743	 0.6099785582	 0.112635
H	 3.6782002242	-1.1364786582	 0.9024280704	 0.287891
86.855	170.6548	203.5974	255.2877	297.406	324.8215	352.2259	449.5753	490.8024	536.2469	570.3517	631.931	673.6911	758.2824	793.4217	858.017	866.18	934.7382	973.3333	1000.119	1067.9877	1087.9534	1100.6637	1201.0108	1214.3436	1231.9763	1282.8567	1314.7141	1348.395	1393.9845	1414.6567	1455.8335	1498.1931	1528.2181	1607.9164	1629.5262	1664.9285	2972.2236	3022.0324	3119.791	3160.1915	3200.9206	3551.1965	3643.2118	3810.9085
NC1=CN=CC=C1CO	Nc1cnccc1CO	
InChI=1S/C6H8N2O/c7-6-3-8-2-1-5(6)4-9/h1-3,9H,4,7H2	InChI=1S/C6H8N2O/c7-6-3-8-2-1-5(6)4-9/h1-3,9H,4,7H2
