14
gdb 35648	4.07703	0.98903	0.87809	4.3087	78.22	-0.2599	-0.0509	0.209	1270.6269	0.100101	-399.525662	-399.517511	-399.516566	-399.558974	29.421	
C	 0.0653781542	-1.2147777465	 0.0364418699	-0.4003
C	-0.0102992795	-0.012947931	 0.0329586983	 0.214916
C	-0.0320434046	 1.3983847102	 0.0374712389	 0.182059
C	-1.0854562361	 2.2151112924	-0.0553648461	-0.224406
C	-0.6108299047	 3.6486431768	-0.0287641783	-0.05049
O	 0.7841875912	 3.5794216604	 0.2239568443	-0.256155
C	 1.2322070841	 2.2275602621	 0.1378707408	-0.173283
C	-0.8891033581	 4.3425120125	-1.3097680894	 0.269028
N	-1.1227260659	 4.8797176403	-2.3054757678	-0.315132
H	 0.1140467053	-2.276006157	 0.0353868141	 0.206948
H	-2.1237726113	 1.9367958965	-0.1624747132	 0.139512
H	-1.0873066746	 4.2361699807	 0.7692416954	 0.141093
H	 1.8190951872	 1.9903086667	 1.0331156095	 0.13325
H	 1.8767500427	 2.0840316658	-0.7410094764	 0.132959
66.3063	107.983	151.2644	197.6619	251.1886	362.8423	479.049	503.4324	533.9453	549.6058	591.9805	631.5446	652.4691	790.4539	850.1843	900.3894	916.2782	965.6026	1006.641	1043.5914	1097.3275	1199.4767	1200.7633	1266.0255	1294.1347	1350.4872	1374.3371	1517.6119	1684.4592	2230.7078	2355.7688	3004.7762	3007.9426	3055.0923	3247.7038	3500.1679
C#CC1=CC(OC1)C#N	C#CC1=C[C@@H](OC1)C#N	
InChI=1S/C7H5NO/c1-2-6-3-7(4-8)9-5-6/h1,3,7H,5H2	InChI=1S/C7H5NO/c1-2-6-3-7(4-8)9-5-6/h1,3,7H,5H2/t7-/m1/s1
