17
gdb 7997	3.17263	1.85029	1.36772	3.2876	65.59	-0.236	0.0364	0.2724	930.0245	0.142831	-401.044455	-401.036412	-401.035468	-401.076939	29.256	
C	-0.0209925061	 1.4176341794	-0.0269074363	-0.344478
N	 0.0019519284	-0.0230841935	-0.0928043248	-0.065561
C	-1.2035128387	-0.8279926638	-0.0870367602	-0.165958
C	-0.7128408709	-2.2353567569	-0.4769542703	 0.113232
O	-0.8750148986	-2.3397343525	-1.8848588042	-0.436771
C	 0.7653219698	-2.2251335409	-0.0618592387	-0.368735
C	 1.1639693535	-0.7476053181	-0.0811955276	 0.418459
O	 2.2882691458	-0.291023385	-0.0615898248	-0.396564
H	 1.0142312358	 1.7632772032	-0.0369321143	 0.165237
H	-0.5552370512	 1.8432286121	-0.8850396041	 0.125925
H	-0.509560968	 1.7692369121	 0.8913118506	 0.120005
H	-1.6865283086	-0.8255208587	 0.9013229882	 0.100982
H	-1.9299196607	-0.4696931047	-0.8241728482	 0.125507
H	-1.2913149738	-3.0129855066	 0.0384253502	 0.073694
H	-0.4452226418	-3.1501730422	-2.1764191686	 0.285466
H	 0.9039000392	-2.6077088877	 0.9560047894	 0.127516
H	 1.4064745457	-2.8108604565	-0.7248232263	 0.122045
88.6682	135.0862	163.6837	201.0763	293.7407	305.8913	389.7293	396.6709	503.2415	578.164	647.5971	709.0759	818.3764	866.7451	908.6422	976.3345	1004.7361	1028.9329	1098.0754	1126.5348	1157.1908	1187.4052	1218.0661	1243.3441	1279.1663	1303.3619	1327.413	1360.6265	1415.5563	1435.0526	1452.494	1456.5854	1493.9211	1505.1172	1536.5756	1810.3164	2991.3408	3011.1585	3016.4211	3053.2887	3060.5746	3068.4453	3110.5779	3142.159	3818.203
CN1CC(O)CC1=O	CN1C[C@@H](O)CC1=O	
InChI=1S/C5H9NO2/c1-6-3-4(7)2-5(6)8/h4,7H,2-3H2,1H3	InChI=1S/C5H9NO2/c1-6-3-4(7)2-5(6)8/h4,7H,2-3H2,1H3/t4-/m0/s1
