17
gdb 121054	3.55591	0.97183	0.85577	5.0013	65.68	-0.2875	0.0413	0.3289	1374.4991	0.13563	-496.153103	-496.14447	-496.143526	-496.187759	30.216	
C	-0.1178064674	 1.4599145947	-0.1175421253	-0.387756
C	-0.0204105944	-0.0528621453	-0.0582155097	-0.054247
O	-1.3494579407	-0.5853191498	-0.0719297332	-0.242468
C	-1.4203760145	-1.9574855919	 0.0551561932	 0.185537
C	-2.8926339026	-2.3871861136	 0.0694932776	-0.124088
O	-3.1171295483	-2.8958737001	-1.2445609473	-0.237754
C	-1.935622909	-3.0570117118	-1.8897288851	 0.491736
O	-1.8101519571	-3.518846295	-2.9765185652	-0.36783
O	-0.9078171372	-2.6282782573	-1.102632226	-0.24737
H	 0.8833552135	 1.9002195573	-0.107045711	 0.124525
H	-0.6251907768	 1.7761245716	-1.0329441567	 0.136885
H	-0.6772938093	 1.8469247599	 0.7386380416	 0.128555
H	 0.5416768467	-0.4474848252	-0.9128724831	 0.126243
H	 0.4901200416	-0.3810894585	 0.8606018792	 0.096994
H	-0.8308758746	-2.3143249984	 0.9092848443	 0.094363
H	-3.0910712134	-3.174699157	 0.8021559192	 0.129619
H	-3.5464540467	-1.5322358596	 0.2452352575	 0.147056
47.6769	81.2248	120.9955	158.2689	200.024	251.066	357.4251	403.3019	514.4567	581.1598	732.6924	769.7905	810.3663	823.0195	859.4581	900.8997	944.5533	1010.7825	1044.1375	1081.8345	1092.874	1139.3979	1152.2549	1178.4391	1189.8918	1251.2601	1299.5884	1365.3527	1373.9165	1402.401	1411.7769	1449.0372	1484.1585	1500.0028	1510.1258	1526.637	1933.2458	2988.2604	3031.698	3048.5656	3056.6771	3066.7008	3124.3629	3127.0754	3137.8183
CCOC1COC(=O)O1	CCO[C@H]1COC(=O)O1	
InChI=1S/C5H8O4/c1-2-7-4-3-8-5(6)9-4/h4H,2-3H2,1H3	InChI=1S/C5H8O4/c1-2-7-4-3-8-5(6)9-4/h4H,2-3H2,1H3/t4-/m1/s1
