26
gdb 60535	2.37646	1.23152	1.02687	0.966	92.64	-0.2291	0.0792	0.3083	1355.7078	0.238119	-369.592231	-369.581326	-369.580382	-369.627451	42.075	
C	 0.0309599054	 1.6621895867	-0.0225303029	-0.406039
C	 0.0146566771	 0.1286410906	 0.0027380141	 0.05036
N	 0.6163271112	-0.3500599153	-1.2496519577	-0.063404
C	 0.0288487954	-1.5157044735	-1.8992822747	-0.221476
C	-0.1573605313	-0.1567917268	-2.4712610612	-0.227386
C	 0.7490058648	-0.4903102969	 1.2358201458	 0.273876
C	 0.0243005696	-0.0718917847	 2.5302496219	-0.417456
C	 0.7128164111	-2.0293381326	 1.1515848872	-0.410859
C	 2.2190082309	-0.0342954216	 1.292935614	-0.407373
H	 1.0501600828	 2.0401112235	-0.1375607165	 0.127048
H	-0.5565424327	 2.0329648106	-0.8672521887	 0.111322
H	-0.3986024079	 2.0862395188	 0.8874898001	 0.115133
H	-1.0422088059	-0.1986130019	 0.0634210551	 0.045029
H	 0.7293627078	-2.2179411282	-2.3432055626	 0.113646
H	-0.8417029047	-1.9762529549	-1.4352241985	 0.109602
H	-1.1532811416	 0.2767565882	-2.3864232867	 0.107065
H	 0.4024218409	 0.1648714997	-3.3451496107	 0.113479
H	-1.0344502023	-0.3553665947	 2.5051745017	 0.105318
H	 0.4779012511	-0.5694004987	 3.3941595944	 0.108627
H	 0.0810633222	 1.0053559044	 2.7095930474	 0.111662
H	 1.2895826029	-2.402064573	 0.3021354813	 0.124257
H	 1.1405809251	-2.4652556612	 2.0609094891	 0.103558
H	-0.3135256378	-2.4031645738	 1.0596070937	 0.099216
H	 2.3067865175	 1.0355911114	 1.5052098902	 0.105557
H	 2.7525981557	-0.56884217	 2.0862901462	 0.101129
H	 2.7206088126	-0.235494926	 0.3428132579	 0.12811
50.7942	117.2507	180.8412	199.225	216.0127	253.5837	272.6337	293.2091	301.2412	325.8214	346.2543	372.7359	395.4671	431.5142	510.0963	536.7862	720.5991	764.6232	833.0954	870.5435	906.9684	933.8802	936.4392	956.7751	970.14	1006.2915	1021.1091	1029.2396	1066.6836	1104.2899	1114.1359	1121.1179	1127.4118	1175.4112	1191.5891	1234.5234	1245.2619	1272.0175	1315.2453	1353.359	1366.6286	1393.4864	1396.9335	1404.2581	1430.0028	1477.4984	1486.3557	1489.6977	1491.1975	1492.597	1501.5945	1506.3406	1514.9909	1519.2425	1523.4994	2895.4228	3025.0637	3029.0055	3036.309	3053.3396	3085.1275	3089.7498	3091.5591	3095.5503	3096.1413	3106.1231	3116.8991	3120.1097	3123.0136	3134.4796	3170.3888	3185.1932
CC(N1CC1)C(C)(C)C	C[C@@H](N1CC1)C(C)(C)C	
InChI=1S/C8H17N/c1-7(8(2,3)4)9-5-6-9/h7H,5-6H2,1-4H3	InChI=1S/C8H17N/c1-7(8(2,3)4)9-5-6-9/h7H,5-6H2,1-4H3/t7-/m1/s1
