15
gdb 80252	2.49025	1.66954	1.30362	3.319	60.68	-0.2684	-0.0015	0.2669	973.1228	0.112986	-494.901448	-494.894065	-494.89312	-494.933081	28.82	
O	 0.1100202853	 1.4793221125	-0.107369457	-0.439706
C	 0.0526446606	 0.096994833	-0.0257166807	 0.175773
C	 0.1227957721	-0.6120058514	 1.3509541912	 0.010646
O	-0.992119561	-0.0007169834	 2.0622855195	-0.261829
C	-2.0104366115	-0.0480934107	 1.1180751598	 0.429291
O	-3.1159473581	 0.348418227	 1.3210079916	-0.338753
C	-1.3299433313	-0.6782189695	-0.0768516755	-0.304147
C	-0.5612982931	-1.8297869521	 0.6944163726	 0.124205
O	 0.3324114059	-2.5961119307	-0.0613347396	-0.433951
H	-0.3715388365	 1.855369098	 0.6402326766	 0.300488
H	 0.7562774825	-0.3167319621	-0.7446869229	 0.127621
H	 0.9972974661	-0.6640635821	 1.9949002819	 0.107843
H	-1.9260398573	-0.8258285221	-0.9730296075	 0.100986
H	-1.1726207619	-2.4359240222	 1.3726359138	 0.103311
H	-0.1679128219	-3.2560345842	-0.5519642838	 0.298222
145.2219	207.8464	267.1349	268.3428	310.1322	375.2328	419.2204	483.2636	526.3347	607.198	690.9259	758.4387	781.4158	851.57	879.0595	896.8056	924.1456	970.527	1021.7294	1082.5317	1102.6142	1137.3229	1154.098	1171.9885	1184.6028	1230.8754	1270.9345	1300.2945	1317.8412	1331.1961	1428.623	1450.1269	1914.1766	3046.5785	3153.9733	3161.4818	3169.3994	3780.7173	3821.2632
OC1C2OC(=O)C1C2O	O[C@H]1[C@H]2OC(=O)[C@@H]1[C@H]2O	
InChI=1S/C5H6O4/c6-2-1-3(7)4(2)9-5(1)8/h1-4,6-7H	InChI=1S/C5H6O4/c6-2-1-3(7)4(2)9-5(1)8/h1-4,6-7H/t1-,2-,3-,4+/m1/s1
