19
gdb 14211	2.78849	2.39024	1.84508	1.7666	75.36	-0.216	0.0891	0.3051	842.793	0.165769	-327.862975	-327.855422	-327.854478	-327.894195	29.542	
C	-0.0917429565	 1.4652491647	 0.0414103615	-0.510114
C	 0.0418624017	-0.0278110472	-0.0007069666	 0.278238
C	 0.9196255697	-0.8921741387	-0.8892882755	-0.224766
N	 0.0754413404	-2.0970632858	-0.5249081644	-0.204078
C	 0.409648141	-2.2538590555	 0.9458531844	-0.180952
C	-0.2850942593	-0.9341008871	 1.2160096039	-0.178263
C	-1.0255020144	-1.0865013847	-0.0869404103	 0.338477
C	-2.4538445419	-1.1315935826	-0.502068358	-0.527793
H	 0.7966173837	 1.9345229502	 0.4802537478	 0.122303
H	-0.2251865327	 1.8808971698	-0.9640699354	 0.119453
H	-0.9544942274	 1.7722930515	 0.6427892582	 0.118471
H	 0.7907819923	-0.6654987483	-1.9523243259	 0.100019
H	 1.9886971404	-1.0007893472	-0.667685903	 0.089565
H	-0.1324767116	-3.112441903	 1.3522520864	 0.104308
H	 1.4795898776	-2.3641908405	 1.1588559807	 0.0926
H	-0.6452907142	-0.5085033715	 2.1456446942	 0.082428
H	-3.0038615406	-0.2900422871	-0.0673431798	 0.123284
H	-2.5528423004	-1.073530475	-1.5918145102	 0.12796
H	-2.9379714878	-2.0571747421	-0.1711938779	 0.12886
170.3514	193.2556	197.5631	220.3765	290.8286	310.3632	467.2005	499.8353	593.0115	644.7601	707.319	783.1104	836.8948	854.0714	897.7978	927.5392	936.2119	966.0464	994.9249	1035.3455	1075.0303	1119.6298	1129.7588	1138.789	1158.5867	1183.8165	1219.9801	1231.7467	1250.7673	1298.9191	1342.965	1407.4828	1415.9976	1472.4201	1475.8705	1488.4094	1493.9724	1501.7922	1506.9385	1527.4605	3018.2839	3020.9258	3024.638	3031.9917	3079.5183	3080.9881	3086.5679	3088.7161	3089.8447	3097.5269	3178.1052
CC12CN3CC1C23C	C[C@@]12CN3C[C@@H]1[C@@]23C	
InChI=1S/C7H11N/c1-6-4-8-3-5(6)7(6,8)2/h5H,3-4H2,1-2H3	InChI=1S/C7H11N/c1-6-4-8-3-5(6)7(6,8)2/h5H,3-4H2,1-2H3/t5-,6+,7-/m0/s1
