21
gdb 71123	2.7445	1.83561	1.55537	1.26	79.96	-0.2188	0.0798	0.2986	971.616	0.185555	-387.10775	-387.100396	-387.099452	-387.139001	30.821	
C	-0.1424809392	 1.4966326736	 0.0328088788	-0.453675
C	 0.0447355044	-0.0091965019	-0.0144082107	 0.349473
C	 0.624547237	-0.5561400222	-1.3450372065	-0.254824
C	 0.0805776686	-1.9739196887	-1.3586145925	-0.116071
C	 0.1298277787	-2.6741302101	-0.0050888491	-0.075956
C	 1.0074139972	-2.0916166458	 1.0921108039	-0.237331
C	 0.8763841761	-0.5448752478	 1.1652898775	-0.219865
C	-1.1070836931	-1.9267385931	-0.4319386441	 0.097443
O	-1.2597580121	-0.624651456	 0.0757533562	-0.291828
H	 0.8202757662	 2.0081519893	-0.0621914556	 0.113642
H	-0.7937512642	 1.8250867309	-0.7820355329	 0.120103
H	-0.5993748255	 1.7984753127	 0.9800937257	 0.121985
H	 0.2407072807	 0.0089676854	-2.2016267733	 0.098402
H	 1.7176805885	-0.4944724493	-1.3588278617	 0.097017
H	 0.0841168158	-2.55114331	-2.2754431185	 0.081714
H	 0.0664117627	-3.7581169854	-0.0329384267	 0.079148
H	 0.7344127477	-2.5370049212	 2.0545854824	 0.103923
H	 2.0488555918	-2.3807455433	 0.9091417176	 0.099642
H	 1.86318249	-0.0693186902	 1.1693908503	 0.091423
H	 0.3709083166	-0.2456524018	 2.0885461013	 0.102137
H	-2.0551989978	-2.4188541455	-0.6112653621	 0.093496
135.4427	207.6541	271.0551	292.7296	391.6551	407.7533	473.8137	509.4887	594.3413	679.8954	703.5505	764.8381	777.8945	807.3582	846.684	879.305	891.8271	928.0447	955.1108	998.3546	1018.1751	1026.6402	1046.84	1065.8235	1083.9565	1106.9853	1141.5902	1155.2864	1175.3483	1200.9744	1251.3124	1262.4929	1271.1252	1294.069	1323.4942	1348.2231	1350.4433	1382.539	1409.6723	1434.1362	1476.4184	1485.9972	1491.5825	1498.0262	1509.0799	3027.3435	3036.6776	3039.158	3046.1229	3059.1637	3080.2572	3089.2013	3113.3057	3117.1805	3146.4714	3176.884	3190.4488
CC12CC3C(CC1)C3O2	C[C@@]12C[C@H]3[C@@H](CC1)[C@H]3O2	
InChI=1S/C8H12O/c1-8-3-2-5-6(4-8)7(5)9-8/h5-7H,2-4H2,1H3	InChI=1S/C8H12O/c1-8-3-2-5-6(4-8)7(5)9-8/h5-7H,2-4H2,1H3/t5-,6+,7-,8+/m1/s1
