16
gdb 82352	2.47244	1.68898	1.34488	4.1822	67.46	-0.2613	0.0082	0.2695	980.105	0.124612	-437.869764	-437.861876	-437.860932	-437.902466	29.732	
O	 0.2482609729	 1.1405661794	 0.6089456656	-0.410636
C	-0.0384855666	-0.1639318621	 0.1634581949	 0.079552
C	-1.4927731687	-0.2945317621	-0.2301332474	-0.073492
C	-1.9239531338	 0.489068394	-1.4600993592	-0.327286
C	-1.5089645802	-0.9476510903	-1.5769388182	 0.105156
O	-0.194521484	-1.2476862201	-2.002960283	-0.243399
C	 0.7261172087	-0.5797965269	-1.1580568402	-0.113802
C	 1.3346778831	 0.5843297828	-1.8313647327	 0.302616
N	 1.8521575984	 1.4685996959	-2.3655436613	-0.332773
H	 1.174200766	 1.1939847896	 0.8693859736	 0.293838
H	 0.199545605	-0.9038620461	 0.9400591533	 0.08887
H	-2.2113647573	-0.5339056743	 0.5432489834	 0.103738
H	-2.9821942716	 0.7066725141	-1.5528473755	 0.124299
H	-1.2693638319	 1.2658247325	-1.8378867822	 0.155718
H	-2.2044440009	-1.7231836657	-1.8719719063	 0.113303
H	 1.5383659707	-1.2826150508	-0.9395006147	 0.134299
57.7626	152.7282	185.8173	265.782	290.0698	352.8175	405.0745	488.1659	520.9712	605.6615	672.4744	744.4478	773.1318	800.2469	853.3245	927.7974	969.1568	991.168	1013.5324	1055.7968	1062.4758	1085.1681	1104.339	1126.3786	1158.6731	1203.5696	1243.3595	1265.7816	1323.0129	1343.8699	1360.135	1393.2557	1430.3604	1486.5854	2355.5599	3004.2239	3047.4845	3143.7675	3190.2575	3199.5892	3233.6412	3811.0907
OC1C2CC2OC1C#N	O[C@H]1[C@H]2C[C@H]2O[C@H]1C#N	
InChI=1S/C6H7NO2/c7-2-5-6(8)3-1-4(3)9-5/h3-6,8H,1H2	InChI=1S/C6H7NO2/c7-2-5-6(8)3-1-4(3)9-5/h3-6,8H,1H2/t3-,4+,5-,6-/m0/s1
