19
gdb 74801	2.68839	1.58915	1.14592	3.0393	82.44	-0.2336	-0.044	0.1896	1120.4822	0.158672	-385.927445	-385.918643	-385.917699	-385.960684	33.122	
C	 0.0376274521	 1.5085362859	 0.0216053987	-0.489333
C	-0.0222015155	 0.0183965345	-0.0542334108	 0.193628
C	-0.0413910331	-0.787885072	-1.128655798	-0.176568
C	-0.0269445407	-2.2361829269	-0.7610023644	-0.12973
C	 1.2248263586	-2.6768115769	-0.024573687	-0.310746
C	-0.0304773633	-2.2817107953	 0.7443833826	 0.222197
C	-0.7633978294	-3.2878806252	 1.5950748802	-0.480038
C	-0.0550964845	-0.8269256384	 1.1794104485	 0.283938
O	-0.1196391499	-0.42772459	 2.3213263187	-0.340496
H	 0.9538334216	 1.8380157507	 0.5250115866	 0.138919
H	 0.003492788	 1.9663152633	-0.9703090311	 0.119504
H	-0.7951163442	 1.8964218016	 0.6179161486	 0.143104
H	-0.0104992933	-0.4522893505	-2.1603028428	 0.108682
H	-0.5707387637	-2.9590050707	-1.3585042711	 0.097815
H	 1.4690504315	-3.7352146097	-0.0195406693	 0.118807
H	 2.0808006411	-2.0103009437	-0.0351330061	 0.12211
H	-0.6452267114	-4.3027377868	 1.2041570869	 0.111567
H	-0.3789365586	-3.2641691698	 2.6192614451	 0.141369
H	-1.8341437255	-3.0630649401	 1.6399110046	 0.125271
101.087	119.278	159.7311	198.4984	249.811	273.2716	288.4892	382.8217	451.1995	499.5613	551.3947	658.2418	691.3484	790.5575	829.5196	845.5671	868.8944	901.8596	941.3066	976.0549	1004.9365	1033.6859	1060.6529	1066.8146	1073.0536	1090.5922	1116.6417	1211.1312	1248.0523	1304.519	1342.8129	1389.7056	1413.6026	1414.8102	1473.4761	1481.8174	1484.1687	1488.4094	1499.6402	1684.7003	1800.3796	3034.261	3036.1949	3087.3371	3101.7161	3112.5208	3119.6152	3120.5903	3174.5046	3187.2394	3212.7098
CC1=CC2CC2(C)C1=O	CC1=C[C@H]2C[C@@]2(C)C1=O	
InChI=1S/C8H10O/c1-5-3-6-4-8(6,2)7(5)9/h3,6H,4H2,1-2H3	InChI=1S/C8H10O/c1-5-3-6-4-8(6,2)7(5)9/h3,6H,4H2,1-2H3/t6-,8+/m0/s1
