19
gdb 69508	2.50195	1.63099	1.34278	0.9054	74.97	-0.2344	0.0735	0.3078	1052.3809	0.156858	-422.977744	-422.968811	-422.967867	-423.010641	34.429	
C	-0.0418940169	 1.5311244443	 0.1470337806	-0.499707
C	-0.0304582132	 0.0353781048	 0.0241075653	 0.225524
C	 1.1753657948	-0.776888021	-0.4263889999	-0.380428
C	 0.6440912809	-0.9981810052	 0.9573563376	 0.322663
O	 1.4513307609	-0.7823184878	 2.0556079509	-0.460481
C	-0.6110458102	-1.852230595	 0.9172711287	 0.327235
C	-0.7432280486	-3.335905445	 1.0417335025	-0.508604
O	-1.709306905	-1.0262229693	 1.3756082322	-0.306099
C	-1.2473105903	-0.8673974746	 0.0203877446	-0.110178
H	 0.919962318	 1.8954055233	 0.5231013818	 0.124994
H	-0.2282159842	 2.0208261502	-0.8156930106	 0.120961
H	-0.8208814765	 1.8534251217	 0.846022856	 0.128046
H	 1.0884054984	-1.5413230311	-1.1947651861	 0.107031
H	 2.1078813495	-0.2204661067	-0.4579008953	 0.123361
H	 0.8823130605	-0.4923381763	 2.778906782	 0.292775
H	-0.5642543593	-3.6550615662	 2.0744281964	 0.132041
H	-1.7467946427	-3.6599418951	 0.7551207257	 0.13377
H	-0.0107007903	-3.8424499061	 0.4052357852	 0.129072
H	-1.9691183756	-1.0480582748	-0.7690545877	 0.098023
144.7961	173.1801	184.4649	192.3858	209.8998	240.7684	304.2417	396.9697	432.7388	467.4655	534.7263	576.9346	620.5449	666.066	753.2015	775.7762	810.7876	878.527	918.983	966.0813	983.3337	992.5455	1018.8346	1072.8994	1084.4186	1102.3839	1115.4299	1205.831	1208.9672	1256.4525	1327.9302	1356.3544	1401.4568	1406.907	1417.0545	1455.3832	1482.7413	1488.809	1492.1423	1498.4612	1503.7614	3025.3095	3036.7219	3086.1102	3098.097	3099.532	3107.599	3123.4685	3176.1935	3196.1033	3783.0263
CC12CC1(O)C1(C)OC21	C[C@@]12C[C@]1(O)[C@@]1(C)O[C@@H]21	
InChI=1S/C7H10O2/c1-5-3-7(5,8)6(2)4(5)9-6/h4,8H,3H2,1-2H3	InChI=1S/C7H10O2/c1-5-3-7(5,8)6(2)4(5)9-6/h4,8H,3H2,1-2H3/t4-,5-,6-,7+/m0/s1
