16
gdb 25804	4.15764	1.08931	0.86891	3.9556	79.44	-0.2061	-0.0385	0.1676	1283.8689	0.125026	-434.134071	-434.125237	-434.124293	-434.169363	31.541	
C	 0.0268964372	 1.4922373449	 0.0218619263	-0.477769
C	 0.0130203447	-0.0194774662	-0.0091905643	 0.308708
O	 1.03053748	-0.6968842591	-0.0383653619	-0.35857
C	-1.2917051012	-0.6760385632	-0.0065081837	 0.244135
N	-2.497444073	-0.1370703581	 0.0303831862	-0.292097
C	-3.3738778622	-1.1806695833	 0.0284660864	-0.160295
C	-2.6880348212	-2.3887446617	-0.0165268832	 0.329038
N	-3.1228450726	-3.7051029927	-0.1142888158	-0.606954
N	-1.3703828693	-2.0515580969	-0.0409630492	-0.316209
H	 1.0596487484	 1.8420895379	 0.0241641501	 0.132467
H	-0.5062568971	 1.8943928166	-0.8450251358	 0.149584
H	-0.5000319144	 1.8593791396	 0.9077745954	 0.14891
H	-4.4434768163	-1.0349687756	 0.0593658774	 0.104637
H	-4.1193521882	-3.7899174216	 0.0331592525	 0.261136
H	-2.6311800193	-4.3512729148	 0.4912500231	 0.255894
H	-0.5621203954	-2.6502632257	-0.1076963735	 0.277384
12.2853	107.301	156.0481	156.4932	208.0673	319.1114	332.1475	401.0171	539.4637	569.717	609.7799	615.0751	669.0038	709.0741	728.3512	746.882	808.7433	941.4305	1001.4843	1042.584	1042.9625	1097.2294	1123.2014	1194.9804	1274.0489	1322.2852	1381.7058	1429.7589	1459.6376	1467.2871	1488.1716	1521.1525	1617.069	1660.1652	1741.4849	3050.728	3113.9785	3157.8108	3241.7169	3536.2115	3634.3753	3649.885
CC(=O)C1=NC=C(N)N1	CC(=O)c1ncc(N)[nH]1	
InChI=1S/C5H7N3O/c1-3(9)5-7-2-4(6)8-5/h2H,6H2,1H3,(H,7,8)	InChI=1S/C5H7N3O/c1-3(9)5-7-2-4(6)8-5/h2H,6H2,1H3,(H,7,8)
