17
gdb 25771	3.90686	1.09792	0.86621	2.3123	80.54	-0.2301	-0.0472	0.1829	1316.2275	0.135812	-418.088442	-418.079445	-418.078501	-418.123082	31.778	
C	-0.0135802318	 1.483432606	-0.0773205013	-0.478727
C	 0.001502604	-0.0244987183	 0.0035743777	 0.316392
O	 1.0261393168	-0.6846542447	 0.0467323488	-0.345158
C	-1.3005955212	-0.7066940094	 0.030236227	 0.242334
N	-2.5129723799	-0.1751287721	-0.0074863017	-0.344003
C	-3.3866124589	-1.2269042188	 0.0422547482	 0.268308
C	-4.8683006489	-1.0313064441	 0.0205249241	-0.490836
C	-2.680015547	-2.4152921772	 0.1113399634	-0.16351
N	-1.3618111896	-2.0671709942	 0.1027089536	-0.258823
H	 1.0110235459	 1.8559084528	-0.0897222726	 0.135112
H	-0.5476026218	 1.8075352777	-0.9758896257	 0.152412
H	-0.5604454449	 1.9012237787	 0.7735904025	 0.152409
H	-5.1828420542	-0.51386515	-0.8917871667	 0.137898
H	-5.392628733	-1.9894217812	 0.0677403164	 0.11986
H	-5.1962187492	-0.419848776	 0.8676247665	 0.137897
H	-3.0050952221	-3.441656092	 0.1638925822	 0.137233
H	-0.5460287043	-2.6579624774	 0.1405965175	 0.281202
51.606	90.52	111.7989	150.2676	154.6645	300.1859	330.7346	364.891	514.81	558.1287	623.5251	643.8826	680.8412	700.87	738.636	772.2972	951.222	990.0618	1005.4499	1020.35	1044.0701	1064.286	1107.463	1149.3929	1268.0657	1306.653	1377.7565	1408.0497	1420.875	1456.866	1457.8328	1465.44	1476.9121	1494.9595	1525.2058	1584.772	1757.2802	3037.6404	3050.1281	3094.0448	3113.1728	3118.4137	3159.1251	3268.5111	3653.0655
CC(=O)C1=NC(C)=CN1	CC(=O)c1nc(C)c[nH]1	
InChI=1S/C6H8N2O/c1-4-3-7-6(8-4)5(2)9/h3H,1-2H3,(H,7,8)	InChI=1S/C6H8N2O/c1-4-3-7-6(8-4)5(2)9/h3H,1-2H3,(H,7,8)
