17
gdb 112144	3.03802	1.16757	0.92178	4.8387	71.76	-0.2317	-0.0573	0.1744	1243.7586	0.136546	-455.173921	-455.165187	-455.164243	-455.208393	31.887	
O	-0.0801211612	 1.3877946276	 0.2124833637	-0.42326
C	 0.0162634871	-0.0170062817	 0.0481105267	-0.078365
C	-1.4137425111	-0.5460153957	-0.0604851342	 0.020815
C	-1.4810637798	-2.0851079507	-0.1344095447	-0.374471
C	-2.074874404	-2.5183275378	 1.2024191007	 0.351878
O	-2.2029449583	-3.6382904343	 1.6212325416	-0.304966
C	-2.4815618355	-1.2633364411	 1.9563579541	 0.27393
N	-2.9858080452	-1.197222637	 3.1247137487	-0.539885
N	-2.1960588347	-0.2145925641	 1.1261032443	-0.302365
H	 0.7914027537	 1.7371770772	 0.4183602889	 0.297036
H	 0.5749948641	-0.2827051717	-0.8634457073	 0.095271
H	 0.5156128274	-0.4929432734	 0.9069597278	 0.096499
H	-1.8705627991	-0.0805716875	-0.941667961	 0.100759
H	-2.1337933712	-2.4315781814	-0.9412514954	 0.151148
H	-0.5046345036	-2.5534840961	-0.2875211713	 0.141834
H	-3.1023242346	-2.1521895908	 3.4708334624	 0.230242
H	-2.197740004	 0.7339680486	 1.4670512951	 0.2639
29.808	96.8366	139.5364	230.1446	251.6967	314.265	361.5575	388.4097	462.8033	527.2834	571.4641	631.1264	658.3709	718.6189	757.6896	840.1751	875.6291	930.5267	1023.1114	1052.2568	1080.6034	1090.828	1123.6677	1166.5465	1179.2033	1242.7167	1254.8468	1262.8758	1317.9511	1375.863	1404.507	1440.2562	1448.6323	1456.1119	1512.4522	1740.4047	1853.3756	2968.5368	3003.9913	3038.4119	3065.476	3107.2379	3458.0186	3642.8141	3840.1434
OCC1CC(=O)C(=N)N1	OC[C@H]1CC(=O)[C]([NH])N1	
InChI=1S/C5H8N2O2/c6-5-4(9)1-3(2-8)7-5/h3,8H,1-2H2,(H2,6,7)	InChI=1S/C5H8N2O2/c6-5-4(9)1-3(2-8)7-5/h3,8H,1-2H2,(H2,6,7)/t3-/m1/s1
