19
gdb 45586	2.68392	1.54216	1.21183	1.9286	74.67	-0.2418	-0.0211	0.2207	1066.55	0.161234	-423.039532	-423.031987	-423.031043	-423.071715	29.713	
O	-0.1269178086	-0.056037037	-0.0369111683	-0.299257
C	-0.1180147867	 1.1395919968	 0.0110473394	 0.382423
C	-1.2012690725	 2.2201260113	 0.1978493698	-0.356696
C	-0.0619708975	 3.1503755686	 0.7211785512	-0.054466
C	 0.0542325552	 3.1366716403	 2.2527174114	-0.086089
O	 1.3954002554	 3.2024225016	 2.6990964304	-0.240803
C	 2.1133688497	 2.033225372	 2.3353596928	-0.082619
C	 2.3119502045	 1.9438705868	 0.8185990412	-0.241572
C	 1.0005022729	 2.195523597	 0.0780566457	-0.095405
H	-1.6044051094	 2.5442350478	-0.7668354805	 0.129755
H	-2.0324669109	 1.9819269563	 0.8664932283	 0.126067
H	-0.0596613949	 4.1710273752	 0.3367348729	 0.079471
H	-0.4649351562	 3.9936304023	 2.6912612899	 0.111642
H	-0.418072256	 2.2221478477	 2.653852652	 0.089645
H	 3.076873198	 2.0887338711	 2.8490332758	 0.109143
H	 1.5817432431	 1.1404870085	 2.7055691019	 0.098472
H	 3.0481874292	 2.6961963251	 0.5153848356	 0.108355
H	 2.714788575	 0.961612585	 0.5465340891	 0.117682
H	 1.1952174996	 2.5114264935	-0.9548722283	 0.104251
86.7062	129.996	211.5713	339.7084	383.0681	404.7998	457.9058	469.0924	541.1983	648.9511	705.8762	713.1678	795.1182	848.151	881.2149	927.1216	947.4304	972.6098	1022.1684	1041.197	1053.9082	1064.3091	1119.9855	1130.804	1150.8533	1190.5289	1223.0451	1240.6571	1248.5812	1288.4409	1325.6056	1336.5029	1349.0322	1380.6813	1398.3574	1425.3061	1449.9368	1473.049	1491.3882	1503.6331	1887.5418	2946.94	2969.2162	3025.9362	3041.1314	3058.6742	3079.7789	3081.0862	3092.6119	3102.7526	3116.1638
O=C1CC2COCCC12	O=C1C[C@H]2COCC[C@@H]12	
InChI=1S/C7H10O2/c8-7-3-5-4-9-2-1-6(5)7/h5-6H,1-4H2	InChI=1S/C7H10O2/c8-7-3-5-4-9-2-1-6(5)7/h5-6H,1-4H2/t5-,6+/m0/s1
