21
gdb 114815	2.63076	1.31121	1.16912	1.3117	78.48	-0.2418	0.0638	0.3056	1201.3722	0.181133	-424.198157	-424.189014	-424.18807	-424.231987	34.343	
C	-0.3827715722	 1.3862163278	 0.2037035701	-0.383939
C	 0.003349498	-0.0845682536	 0.0154190148	-0.194644
C	 0.8914134583	-0.5949427998	 1.1322529836	 0.10525
O	 0.2807694821	-0.5009845955	 2.4575942833	-0.321408
C	 0.5201615652	-1.8898330024	 2.7316063901	 0.022636
C	-0.6317021728	-2.7954546503	 2.2831948226	-0.102514
O	-0.0843155219	-2.8824191186	 0.9414611987	-0.327104
C	 1.0923766442	-2.1215759444	 1.3133927505	 0.368686
C	 2.3761084	-2.7825267932	 0.8946481007	-0.4851
H	 0.5001850238	 2.0350964269	 0.2025928577	 0.110699
H	-1.0463165255	 1.7228830705	-0.5982506664	 0.111396
H	-0.8994254404	 1.5265288499	 1.1572135211	 0.135648
H	-0.8890417189	-0.7154234652	-0.0363929508	 0.11405
H	 0.5403895049	-0.2175257606	-0.9333893246	 0.095213
H	 1.8511127264	-0.0553694539	 1.1405310445	 0.066878
H	 1.0179766534	-2.06451095	 3.6874850493	 0.085107
H	-0.66257023	-3.7836424931	 2.7601620931	 0.101927
H	-1.6236982684	-2.3329491744	 2.3098079371	 0.111849
H	 2.4343813852	-2.8303418978	-0.198772435	 0.134086
H	 3.2421330931	-2.2213430635	 1.2586506468	 0.123686
H	 2.4318657554	-3.8052663888	 1.2779121725	 0.1276
83.8524	115.6588	160.2317	193.9427	212.7693	238.49	300.0218	321.6686	403.4361	467.0102	531.4973	639.2092	708.0945	778.4434	836.2674	849.249	893.6	914.4931	925.6087	967.4277	997.2885	1033.684	1048.8259	1075.8531	1111.5623	1130.8162	1154.852	1175.4317	1178.5864	1203.9526	1248.5977	1278.6529	1306.3244	1328.7724	1343.9274	1366.4962	1403.3317	1408.7485	1413.4002	1480.1218	1481.0794	1489.0532	1498.8981	1503.0156	1509.9818	2982.1274	3015.0601	3025.6636	3034.6976	3036.0183	3080.5258	3084.3875	3092.2641	3102.2135	3105.6274	3117.5663	3119.8385
CCC1OC2COC12C	CC[C@H]1O[C@H]2CO[C@@]12C	
InChI=1S/C7H12O2/c1-3-5-7(2)6(9-5)4-8-7/h5-6H,3-4H2,1-2H3	InChI=1S/C7H12O2/c1-3-5-7(2)6(9-5)4-8-7/h5-6H,3-4H2,1-2H3/t5-,6+,7+/m1/s1
