20
gdb 94907	2.04936	1.6942	1.37109	4.1713	82.11	-0.2798	0.0311	0.3109	1072.4268	0.173122	-366.03949	-366.031231	-366.030287	-366.072137	32.107	
C	-0.096938661	 1.5608913682	-0.0371759281	-0.410713
C	-0.0060968611	 0.0337695785	 0.0144861683	 0.026254
C	 0.6456960815	-0.6107564009	-1.2367884245	-0.252069
C	 1.2752548088	-1.940437695	-0.7552143321	-0.229278
C	 1.5364654295	-1.7495017206	 0.7334424461	-0.060905
C	 2.3072592197	-0.5127855	 1.1858823764	-0.187696
C	 3.1097745663	 0.2816337585	 0.2991384819	 0.305904
N	 3.7844292528	 0.9183739763	-0.3938734985	-0.364299
C	 0.7791583725	-0.5355514798	 1.1929339189	-0.058882
H	 0.8957015512	 2.0125554569	-0.1255457658	 0.141662
H	-0.6901386959	 1.8849799113	-0.8985340919	 0.115997
H	-0.5738828151	 1.9616608542	 0.8635304183	 0.1103
H	-1.0234847379	-0.3682839615	 0.1199040475	 0.078412
H	-0.0838660793	-0.7678037039	-2.035589041	 0.099478
H	 1.4159981303	 0.0518194906	-1.6381685014	 0.137734
H	 0.5694836051	-2.7706035323	-0.8718877822	 0.106483
H	 2.1766396581	-2.2023234731	-1.317965242	 0.116771
H	 1.6447610853	-2.6276202906	 1.3604138533	 0.097147
H	 2.7551936573	-0.5978535205	 2.1714470565	 0.132649
H	 0.3258577218	-0.4903126164	 2.1776317304	 0.09505
101.4221	136.849	187.1346	228.6555	247.7094	331.1397	358.3506	458.2976	545.5196	557.9748	664.4709	692.4534	748.4086	773.3483	829.7871	841.8275	915.384	946.8387	954.0585	989.747	1006.1663	1023.9432	1050.0531	1068.9884	1116.7904	1137.0057	1152.574	1202.0114	1211.8857	1237.6585	1310.0761	1319.7183	1338.1946	1342.3437	1358.5298	1382.4582	1412.2298	1417.3174	1491.339	1498.569	1500.4844	1510.0363	2342.5152	3003.8873	3034.052	3041.772	3069.929	3082.7334	3098.4752	3111.7251	3116.4703	3153.541	3162.7707	3176.0049
CC1CCC2C(C#N)C12	C[C@H]1CC[C@H]2[C@@H](C#N)[C@@H]12	
InChI=1S/C8H11N/c1-5-2-3-6-7(4-9)8(5)6/h5-8H,2-3H2,1H3	InChI=1S/C8H11N/c1-5-2-3-6-7(4-9)8(5)6/h5-8H,2-3H2,1H3/t5-,6-,7+,8-/m0/s1
