14
gdb 67191	3.08887	1.56824	1.51142	2.9789	60.9	-0.2426	-0.008	0.2345	899.6364	0.102335	-473.795617	-473.788999	-473.788055	-473.826512	26.273	
O	-0.1974867413	 1.4174650739	-0.0302652752	-0.453405
C	 0.0107918077	 0.0666499371	-0.0072689586	 0.347042
C	-0.9744719045	-1.0754933503	 0.0568676543	-0.106412
N	-0.392579012	-1.7141846213	-1.1144428277	-0.296084
C	 0.8152090218	-0.8224017383	-1.0098506695	-0.234622
C	 1.8268595823	-1.5513671157	-0.1362768341	 0.429704
O	 2.8824653982	-2.0401586821	-0.4109069518	-0.338492
O	 1.2569977668	-1.6651397547	 1.1166492697	-0.224742
C	 0.0926906462	-0.8668286876	 1.1562880673	-0.015916
H	 0.5173076771	 1.8559422439	 0.4463319664	 0.298778
H	-2.0359308917	-1.1080525148	 0.2721752609	 0.117122
H	-0.1870689103	-2.7076790588	-1.0030486894	 0.236353
H	 1.195894556	-0.4342831496	-1.9514998136	 0.112866
H	-0.2065694661	-0.5781291215	 2.1551572213	 0.127807
140.2999	250.2856	324.6718	332.9828	354.5012	471.839	539.325	593.0804	654.3774	735.9879	755.3448	808.4331	828.6815	860.2703	926.2156	931.4788	968.8504	1027.1848	1062.3225	1078.1221	1114.0449	1120.1937	1165.2037	1193.1303	1233.3384	1264.4097	1316.9924	1325.0588	1369.6567	1495.9521	1881.6331	3153.4499	3190.88	3216.2792	3449.4676	3786.0115
OC12C3NC1C(=O)OC23	O[C@@]12[C@H]3N[C@@H]1C(=O)O[C@@H]23	
InChI=1S/C5H5NO3/c7-4-2-5(8)1(6-2)3(5)9-4/h1-3,6,8H	InChI=1S/C5H5NO3/c7-4-2-5(8)1(6-2)3(5)9-4/h1-3,6,8H/t1-,2+,3+,5-/m0/s1
