21
gdb 115589	2.7188	1.03182	0.95017	3.6732	74.5	-0.2477	0.0499	0.2976	1362.8742	0.180247	-461.337127	-461.326863	-461.325919	-461.372826	37.275	
C	 0.1408890991	 1.6667194944	 0.0740033669	-0.418244
C	-0.1397331681	 0.1663664631	-0.0797145747	-0.228903
C	 0.6104153481	-0.4756283619	-1.2487088898	 0.3099
O	 0.2642306595	 0.108087167	-2.4883452992	-0.48238
C	 2.1305677478	-0.7096680414	-1.0166111264	-0.112913
O	 1.9479253238	-2.1397637874	-0.984581424	-0.312423
C	 0.5541511802	-2.0202255432	-1.3745079785	 0.099757
C	-0.3126316671	-2.8881904696	-0.4802774274	-0.083083
O	 0.097546521	-4.240016541	-0.5835565335	-0.423154
H	 1.2119731834	 1.8686988866	 0.1875118777	 0.124299
H	-0.2247461447	 2.2428669203	-0.7837055861	 0.115613
H	-0.3644206662	 2.0658714098	 0.9576540032	 0.12818
H	 0.141796905	-0.3466632488	 0.8458841875	 0.110721
H	-1.2151574595	 0.0061883364	-0.2202924353	 0.110321
H	 0.3847254629	 1.0611911091	-2.4242045177	 0.280874
H	 2.7494762357	-0.3922732085	-1.8646708157	 0.101243
H	 2.560506918	-0.3327583685	-0.0808727323	 0.096679
H	 0.4192787023	-2.3172954991	-2.4221113465	 0.093007
H	-0.2605410142	-2.5382768909	 0.5614218142	 0.08253
H	-1.3587958171	-2.8446289156	-0.8022067069	 0.112659
H	 1.04759029	-4.2435712407	-0.4147554358	 0.295315
46.9434	88.4864	111.7918	138.9896	212.5899	239.9099	257.4967	305.0933	311.1665	372.2536	417.1279	440.0156	496.1602	581.3752	664.7611	786.1951	805.8424	867.8251	918.3282	982.0419	1001.5219	1018.1293	1031.6241	1052.1586	1070.2586	1090.8792	1134.4016	1159.9659	1197.3883	1207.1869	1220.9771	1292.7453	1307.386	1310.1465	1345.9066	1362.3591	1391.0572	1404.391	1413.4821	1437.0364	1476.9363	1496.8273	1500.063	1509.626	1512.7417	2990.5462	3013.3955	3028.1761	3035.2114	3037.4992	3065.3966	3071.3137	3076.6977	3096.8494	3110.2884	3790.5732	3813.8355
CCC1(O)COC1CO	CC[C@@]1(O)CO[C@H]1CO	
InChI=1S/C6H12O3/c1-2-6(8)4-9-5(6)3-7/h5,7-8H,2-4H2,1H3	InChI=1S/C6H12O3/c1-2-6(8)4-9-5(6)3-7/h5,7-8H,2-4H2,1H3/t5-,6+/m0/s1
