18
gdb 91610	2.21031	2.00919	1.45612	4.766	70.25	-0.2275	-0.0083	0.2192	954.8078	0.150013	-439.101601	-439.09418	-439.093235	-439.133444	29.697	
O	-0.0337112086	 1.4465311948	-0.0402458697	-0.422921
C	 0.0368166937	 0.033980738	 0.0083721236	 0.113874
C	 0.642682723	-0.5492669703	 1.325516269	-0.259298
C	-0.5609473384	-1.3187192871	 1.9244144071	-0.011948
C	-1.6099532088	-0.3152783258	 2.4387882461	-0.315008
C	-2.1813198642	 0.2214656857	 1.1130806411	 0.478358
O	-3.0534889445	 1.0291443984	 0.9632503315	-0.323554
C	-1.4067005807	-0.5530107919	 0.0331666106	-0.150522
N	-1.2778805306	-1.8487492716	 0.7323602298	-0.311836
H	 0.8606762328	 1.7969228987	-0.0909203898	 0.288646
H	 0.5691022733	-0.35616687	-0.8709578239	 0.071264
H	 1.4727263507	-1.2316712975	 1.1183452441	 0.094893
H	 1.0151526169	 0.2514820743	 1.9713346527	 0.103312
H	-0.2993930535	-2.1030262591	 2.6353657781	 0.075581
H	-2.4042242991	-0.814582798	 3.0010185156	 0.134967
H	-1.2086988837	 0.4964343897	 3.050098635	 0.126103
H	-1.9115948609	-0.5959082483	-0.9297261776	 0.088891
H	-0.6795649074	-2.4819943099	 0.2057486666	 0.2192
90.5525	137.9951	284.4414	330.6858	394.5406	428.9111	449.4447	501.014	543.8687	607.0636	680.4463	774.0674	807.3799	831.5687	873.2817	899.799	918.3855	964.5601	974.869	1017.6235	1031.0755	1056.5311	1079.8862	1109.5875	1154.5395	1179.8433	1194.6803	1207.9085	1243.0801	1258.5382	1284.9475	1323.5439	1341.6259	1353.9617	1399.2731	1419.4202	1446.5198	1486.5224	1878.8305	2989.8369	3048.8182	3068.3849	3096.0967	3109.2485	3120.8688	3146.6351	3481.4102	3825.979
OC1CC2CC(=O)C1N2	O[C@H]1C[C@H]2CC(=O)[C@@H]1N2	
InChI=1S/C6H9NO2/c8-4-1-3-2-5(9)6(4)7-3/h3-4,6-8H,1-2H2	InChI=1S/C6H9NO2/c8-4-1-3-2-5(9)6(4)7-3/h3-4,6-8H,1-2H2/t3-,4-,6+/m0/s1
