18
gdb 97337	6.43421	0.67804	0.64679	0.9924	80.52	-0.2598	-0.0184	0.2414	1764.8732	0.145919	-439.10808	-439.098649	-439.097705	-439.143346	33.011	
C	-0.2191379295	 1.3606577742	 0.0130659638	-0.318038
N	-0.119874747	-0.0859370793	 0.0078798776	-0.192544
C	 0.5727914783	-0.6137760205	 0.9097843045	 0.110933
O	 0.6848616134	-1.9833705455	 0.9295467105	-0.230301
C	 1.4468694369	-2.5510153161	 1.9218360493	 0.476866
O	 2.0208516736	-1.9205272867	 2.7730262341	-0.365787
C	 1.4499662498	-4.0222054678	 1.7822727281	-0.141822
C	 2.7217179436	-4.7513116891	 2.1915221823	-0.249746
C	 1.5190366816	-4.8368123456	 3.0660472694	-0.249741
H	 0.1483048518	 1.7501834914	-0.9425778682	 0.13465
H	-1.273157872	 1.6489207363	 0.0901905617	 0.134647
H	 0.3384173503	 1.8471187019	 0.8281706539	 0.105954
H	 1.1204854331	-0.1156628929	 1.7124896034	 0.132462
H	 0.8750654377	-4.4126818702	 0.9534648235	 0.115108
H	 3.0013016459	-5.6107900735	 1.5938598606	 0.126219
H	 3.5413654079	-4.1253802922	 2.5237995188	 0.142459
H	 1.5269339083	-4.2685877528	 3.9885865301	 0.142461
H	 0.9470501862	-5.7568325815	 3.0876088365	 0.12622
51.5446	79.7491	110.4501	121.9392	213.8027	250.3024	262.3543	326.4018	346.5353	388.8261	572.5402	685.0001	752.12	794.8092	833.2607	864.6789	917.9197	958.5998	993.3459	1059.1632	1068.7225	1098.8522	1111.2318	1122.4267	1131.4705	1141.4531	1174.159	1185.077	1209.9755	1227.8353	1366.8182	1413.6688	1447.9883	1457.3867	1480.7628	1490.2893	1501.8016	1777.5554	1820.0951	2983.7815	3069.7789	3087.5864	3115.056	3146.4519	3148.4661	3207.1284	3233.6654	3248.2287
CN=COC(=O)C1CC1	CN=COC(=O)C1CC1	
InChI=1S/C6H9NO2/c1-7-4-9-6(8)5-2-3-5/h4-5H,2-3H2,1H3	InChI=1S/C6H9NO2/c1-7-4-9-6(8)5-2-3-5/h4-5H,2-3H2,1H3
