22
gdb 57804	3.04294	0.7454	0.73141	1.6476	91.36	-0.2328	0.0433	0.2761	1730.3501	0.192606	-367.158399	-367.14792	-367.146976	-367.195266	37.673	
C	-0.6736764922	 1.1752559719	-1.2100599671	-0.374655
C	-0.0288160988	 0.030894668	-0.4030517308	-0.125621
C	-1.0880383453	-0.9757922567	 0.0881558284	-0.374655
C	 1.0202976681	-0.6373599244	-1.1754435572	 0.086199
C	 1.8912228569	-1.1852255762	-1.805362188	 0.022608
C	 2.9281713341	-1.8605771823	-2.5937546046	-0.279489
N	 2.507357741	-2.5282478452	-3.8341338453	-0.073616
C	 1.2027348134	-3.1789652395	-3.8671227435	-0.217731
C	 1.4450824192	-1.9201481686	-4.62681692	-0.217734
H	 0.0773210162	 1.9008459011	-1.5330154593	 0.123933
H	-1.1726577592	 0.7833766877	-2.10197102	 0.122823
H	-1.4198616789	 1.6959762844	-0.60138115	 0.112529
H	 0.4469353228	 0.4741579924	 0.4832562175	 0.106942
H	-1.6008748529	-1.4394294815	-0.76042959	 0.122823
H	-0.6298831399	-1.7704190388	 0.6826645259	 0.123933
H	-1.836844125	-0.4688034082	 0.7051493248	 0.112528
H	 3.7049622601	-1.1362576761	-2.8687950501	 0.133112
H	 3.4194710989	-2.6202530733	-1.9731014853	 0.133106
H	 1.1756281487	-4.1390396506	-4.374761861	 0.112856
H	 0.5676299571	-3.0983595821	-2.9877625393	 0.118629
H	 0.9672736556	-1.0226292762	-4.2404299895	 0.118627
H	 1.5990328103	-1.9397139459	-5.7020325858	 0.112853
26.6086	66.8611	79.6058	135.1065	196.6713	228.2062	273.1923	304.8676	320.2847	354.089	364.4234	463.0256	536.5051	590.6514	717.8085	755.411	825.8789	874.3565	881.7275	932.1295	964.0511	984.4083	1021.5026	1056.8428	1064.1026	1116.9931	1121.9972	1124.3037	1144.8845	1174.5809	1186.3345	1205.7104	1289.6491	1310.7639	1325.846	1347.5969	1362.507	1395.8864	1418.2721	1470.168	1483.1011	1486.2998	1488.6967	1498.7439	1510.5634	1510.675	2347.5009	3005.273	3023.4555	3035.8798	3039.2418	3054.2357	3102.8895	3105.0268	3106.194	3111.4691	3118.8669	3120.5939	3184.128	3197.4936
CC(C)C#CCN1CC1	CC(C)C#CCN1CC1	
InChI=1S/C8H13N/c1-8(2)4-3-5-9-6-7-9/h8H,5-7H2,1-2H3	InChI=1S/C8H13N/c1-8(2)4-3-5-9-6-7-9/h8H,5-7H2,1-2H3
