17
gdb 47181	2.23652	1.7067	1.01063	2.08	79.75	-0.2518	-0.0468	0.2049	1138.9025	0.138935	-418.061484	-418.053698	-418.052754	-418.094242	29.636	
N	-0.085599434	 0.8614642127	 1.1388816914	-0.501087
C	-0.0152076429	-0.0055090583	 0.1959039569	 0.345289
N	 1.2159349101	-0.4193696516	-0.339752308	-0.392607
C	 1.6379432869	-1.5229439261	-1.0690318438	 0.382742
O	 2.8127689017	-1.6191267974	-1.3591286698	-0.3458
C	 0.621997551	-2.5833066022	-1.4359066308	-0.311874
C	-0.599965472	-2.0746779365	-2.2130310565	-0.272591
C	-1.5647112486	-1.2744370828	-1.3875054621	-0.094173
C	-1.2982047034	-0.4625466264	-0.3609011375	-0.021111
H	 0.841669119	 1.1484140861	 1.459313165	 0.209732
H	 2.0077203391	 0.1486107511	-0.0639891553	 0.249009
H	 1.1717547579	-3.3194409052	-2.0246275634	 0.135401
H	 0.281293105	-3.0738013472	-0.5157113681	 0.13158
H	-0.2743158932	-1.4933199494	-3.0875680382	 0.135002
H	-1.1297263854	-2.9415016214	-2.6223709888	 0.121093
H	-2.6125996679	-1.3888582811	-1.6551867697	 0.108272
H	-2.1215222434	 0.0164452357	 0.1573853388	 0.121121
66.9205	118.4249	183.2146	312.066	339.5517	361.3637	427.4963	541.483	554.9239	622.9	642.9165	684.4651	745.4	819.0088	828.5351	868.4337	888.9587	914.721	975.2058	1023.6321	1041.9814	1076.1301	1152.3516	1181.144	1240.4366	1261.4937	1332.2291	1353.362	1394.0296	1400.6919	1434.755	1445.5448	1473.1102	1476.9722	1661.5	1729.272	1790.873	3012.4518	3042.4096	3065.1736	3123.6325	3153.3418	3200.0403	3449.7984	3573.047
N=C1NC(=O)CCC=C1	[NH]C1=C[CH]CCC(=O)N1	
InChI=1S/C6H8N2O/c7-5-3-1-2-4-6(9)8-5/h1,3H,2,4H2,(H2,7,8,9)	InChI=1S/C6H8N2O/c7-5-3-1-2-4-6(9)8-5/h1,3H,2,4H2,(H2,7,8,9)
