20
gdb 63519	3.33413	1.12175	1.02603	2.7959	82.03	-0.245	0.0289	0.2738	1261.2473	0.169267	-403.143601	-403.134475	-403.133531	-403.177097	34.978	
C	 0.1428713926	 1.5454827175	-0.2601544122	-0.452998
C	 0.001017849	 0.0483939108	-0.0607429458	 0.242808
C	-1.2532490323	-0.5635406158	-0.6553196005	-0.449615
C	 1.2778526651	-0.798313094	-0.0695959929	-0.402145
C	 0.5403516418	-0.5445751402	 1.2004589058	 0.417159
C	 0.9702209764	 0.0759857539	 2.5258800377	-0.444609
C	 0.2150421992	-1.0961927773	 3.1209566197	 0.427406
N	-0.0270904635	-1.4996126044	 4.2821566202	-0.542661
O	-0.1466722652	-1.6216854159	 1.8928916669	-0.270582
H	 1.054020318	 1.9340115592	 0.2052245543	 0.1164
H	 0.1863599885	 1.7902849807	-1.3275738076	 0.122294
H	-0.7098399713	 2.083837797	 0.1695479142	 0.120603
H	-1.2630385076	-0.4425678552	-1.7442700683	 0.116866
H	-1.3278515434	-1.629143005	-0.4266238681	 0.132674
H	-2.1501958145	-0.0758270766	-0.2569561957	 0.119516
H	 1.2125547771	-1.7986563606	-0.4851957284	 0.125421
H	 2.2335811121	-0.3050686932	-0.2191996537	 0.115234
H	 2.0420193782	 0.07673119	 2.7331733264	 0.13933
H	 0.5497522394	 1.055989365	 2.7601433668	 0.139178
H	-0.5838979997	-2.3558040658	 4.2677766112	 0.227721
85.5262	145.6797	176.8555	197.3837	221.627	270.5821	354.3594	357.7453	412.4512	475.2062	501.6561	510.74	542.307	700.7226	781.0116	864.2439	873.8537	885.7286	907.703	957.3259	974.8825	990.7914	1014.8638	1035.0101	1035.9303	1051.2829	1123.0159	1146.6221	1164.1607	1206.1185	1245.1796	1270.9682	1315.7091	1408.3043	1411.65	1425.5434	1464.391	1481.8414	1486.7078	1491.1812	1501.5081	1519.5548	1830.6598	3024.2076	3030.8522	3080.9171	3085.8895	3089.0891	3101.0156	3121.9507	3124.5788	3133.3428	3212.3319	3476.9308
CC1(C)CC11CC(=N)O1	CC1(C)C[C@]21C[C]([NH])O2	
InChI=1S/C7H11NO/c1-6(2)4-7(6)3-5(8)9-7/h8H,3-4H2,1-2H3	InChI=1S/C7H11NO/c1-6(2)4-7(6)3-5(8)9-7/h8H,3-4H2,1-2H3/t7-/m0/s1
