21
gdb 46320	2.76181	1.34897	1.21928	2.5696	82.27	-0.2328	-0.0142	0.2186	1147.8797	0.183812	-387.120984	-387.112545	-387.111601	-387.154828	32.332	
O	-0.0035403345	 0.2356582268	-0.7846240895	-0.310485
C	-0.0138016224	 1.2862366309	-0.2076244154	 0.36395
C	-1.0589926084	 2.0398652496	 0.6290136362	-0.34201
C	-0.1693687352	 3.3105942489	 0.4673362465	-0.316364
C	 0.9902195163	 2.4528738131	-0.1363206852	 0.263092
C	 2.1618100833	 2.1354048537	 0.8309361972	-0.260945
C	 3.2872183992	 1.6627204427	-0.0984232696	-0.203411
C	 3.1892864619	 2.6448362883	-1.2762432852	-0.195575
C	 1.6679429746	 2.8445468184	-1.4772245462	-0.29102
H	-2.0691202156	 2.060967489	 0.2124029932	 0.12797
H	-1.1174636461	 1.665823608	 1.6560494987	 0.131146
H	-0.5834142197	 4.0219310433	-0.2513918877	 0.108617
H	 0.0732329281	 3.8427384033	 1.3895192963	 0.102468
H	 2.4569273839	 3.0604110315	 1.3430996825	 0.098711
H	 1.8968029543	 1.4066035508	 1.603598676	 0.098768
H	 4.2683048422	 1.6578627925	 0.385235506	 0.093369
H	 3.0764316857	 0.6427224138	-0.4401561175	 0.119007
H	 3.6620142051	 3.5952818021	-1.0017932356	 0.096575
H	 3.6892037267	 2.2854142251	-2.179616447	 0.09862
H	 1.2970420298	 2.1881842519	-2.2714450694	 0.118434
H	 1.4188627905	 3.8705966664	-1.7631257942	 0.099083
47.808	64.0015	157.7216	231.686	288.624	302.5438	432.7257	502.6629	527.3766	567.8736	707.5921	712.4751	740.7434	817.046	846.1269	867.3843	898.071	914.7215	930.4304	980.061	986.4733	1023.127	1031.8134	1058.291	1089.3958	1135.2641	1163.1817	1186.6838	1207.3665	1225.7615	1231.1065	1254.6607	1262.222	1289.2521	1318.9032	1340.533	1345.8481	1355.8348	1439.5323	1481.8853	1488.1762	1490.2153	1490.8952	1510.3151	1877.1523	3022.2511	3034.9599	3042.9023	3046.5408	3058.4541	3067.2546	3077.7418	3084.1316	3092.8116	3101.8433	3108.7834	3124.9302
O=C1CCC11CCCC1	O=C1CCC21CCCC2	
InChI=1S/C8H12O/c9-7-3-6-8(7)4-1-2-5-8/h1-6H2	InChI=1S/C8H12O/c9-7-3-6-8(7)4-1-2-5-8/h1-6H2
