21
gdb 94593	3.20021	0.94136	0.79051	3.1823	78.88	-0.24	-0.0157	0.2243	1497.426	0.179867	-424.23439	-424.224191	-424.223246	-424.271113	35.827	
C	-0.3002735609	 1.5283731518	-0.0987292395	-0.402701
C	 0.1462795646	 0.079858535	-0.0700442602	 0.133205
O	 1.4123638257	-0.1227688545	-0.7401441879	-0.294309
C	 1.9163939884	-0.9168170144	 0.355378844	-0.071131
C	 0.6929277238	-0.5771248214	 1.2306759936	-0.037653
C	 0.9680563521	 0.3204568024	 2.428245664	-0.329863
C	 1.69692	-0.4094840027	 3.5526397808	 0.380183
C	 1.9057693874	 0.3692200459	 4.8388944135	-0.473074
O	 2.0893323238	-1.5470618608	 3.4221732202	-0.289926
H	 0.4427746264	 2.190848368	 0.3533407503	 0.116235
H	-0.4461920633	 1.84581579	-1.1360476324	 0.128889
H	-1.2523346167	 1.6521320185	 0.4291572877	 0.112978
H	-0.6314396896	-0.5459814759	-0.534060013	 0.069599
H	 2.0115227172	-1.9765662321	 0.0898588847	 0.103586
H	 2.8877203598	-0.5544453278	 0.7113677255	 0.099006
H	 0.1264025952	-1.4508618631	 1.5572330621	 0.085454
H	 1.5839727273	 1.1856909922	 2.1454412848	 0.128553
H	 0.041331642	 0.7482383373	 2.8349766644	 0.117846
H	 0.9381268426	 0.6148919298	 5.2914802373	 0.14041
H	 2.4950568544	-0.2228387102	 5.5399150069	 0.144645
H	 2.4113115398	 1.3202071019	 4.6379622534	 0.138069
34.3792	65.7445	83.7132	110.2257	128.6838	207.4211	240.6402	313.9632	374.0308	402.488	482.3744	505.7938	585.9984	738.4692	807.7457	833.01	864.6351	880.9635	906.4354	961.5109	991.7376	1012.726	1021.9883	1090.8031	1109.1322	1153.1617	1156.4164	1173.4421	1180.4381	1234.4234	1249.4969	1294.6929	1340.5716	1360.5334	1384.6223	1389.7484	1399.6804	1411.1715	1447.4141	1464.4709	1477.2517	1483.0409	1498.3782	1527.4697	1806.8944	2977.9564	3014.5236	3021.1476	3036.2838	3037.5994	3045.0348	3062.3223	3096.0962	3097.5349	3104.8318	3118.4917	3152.6721
CC1OCC1CC(C)=O	C[C@H]1OC[C@H]1CC(=O)C	
InChI=1S/C7H12O2/c1-5(8)3-7-4-9-6(7)2/h6-7H,3-4H2,1-2H3	InChI=1S/C7H12O2/c1-5(8)3-7-4-9-6(7)2/h6-7H,3-4H2,1-2H3/t6-,7-/m1/s1
