21
gdb 114613	2.40938	1.23648	0.95277	2.7159	78.2	-0.2392	0.0621	0.3013	1313.9548	0.181455	-424.182346	-424.172954	-424.17201	-424.216844	35.186	
C	 0.1610611918	 1.4867477825	 0.3771219768	-0.37414
C	 0.0235957068	 0.0354938429	-0.105145534	-0.298038
C	-1.3964919446	-0.4585327236	-0.0973818893	 0.262055
C	-2.092883626	-1.0247399545	 1.1324329864	-0.355637
C	-1.9930492772	-1.8482058312	-0.1117184613	 0.04764
O	-3.0203614289	-1.4944535442	-1.0450286986	-0.323261
C	-2.4481392763	-0.1542856978	-1.1735199774	 0.073656
C	-3.5122414907	 0.9141171063	-0.9963231397	-0.083746
O	-4.5711076119	 0.708075825	-1.913737109	-0.420604
H	 1.206968309	 1.8081206861	 0.3659801177	 0.11483
H	-0.4036879776	 2.1733127491	-0.2627739839	 0.120296
H	-0.2175294382	 1.5979289209	 1.3982151514	 0.12136
H	 0.4343659961	-0.0556131063	-1.119330191	 0.102021
H	 0.6324724847	-0.619362582	 0.5303699106	 0.100636
H	-1.4084136668	-1.3035408127	 1.9288363901	 0.114412
H	-3.0631535316	-0.6728461187	 1.4688418788	 0.115812
H	-1.5561514391	-2.8370440707	-0.1929358711	 0.106239
H	-1.9908867265	-0.0633742455	-2.1677778911	 0.08581
H	-3.8755191838	 0.9229137989	 0.0419019632	 0.08735
H	-3.0896301498	 1.9022309457	-1.210580395	 0.108433
H	-4.8458795795	-0.2098556004	-1.7985019737	 0.294876
69.0768	90.5804	125.1531	188.5926	210.6985	247.8613	313.9618	365.6885	430.4476	441.6989	482.3474	528.1618	665.7959	745.2399	784.2233	837.3383	870.9987	879.6567	977.9773	989.5799	1000.1519	1008.1325	1033.0644	1049.3757	1073.9261	1080.3913	1093.4377	1118.6764	1141.5392	1217.3176	1227.4639	1239.5659	1277.7488	1330.3424	1343.0489	1357.6544	1393.8312	1407.0173	1411.7834	1439.9415	1477.3351	1486.6741	1497.7056	1500.2362	1506.581	2994.4312	3016.762	3023.0541	3034.4481	3051.8406	3069.3486	3102.6138	3109.1896	3118.3635	3178.1344	3205.9841	3787.153
CCC12CC1OC2CO	CC[C@]12C[C@H]1O[C@H]2CO	
InChI=1S/C7H12O2/c1-2-7-3-5(7)9-6(7)4-8/h5-6,8H,2-4H2,1H3	InChI=1S/C7H12O2/c1-2-7-3-5(7)9-6(7)4-8/h5-6,8H,2-4H2,1H3/t5-,6+,7+/m1/s1
