21
gdb 53949	2.34935	1.27556	1.16136	2.7014	78.57	-0.2363	-0.0093	0.227	1217.2056	0.17887	-424.233427	-424.222961	-424.222016	-424.269275	38.514	
C	 0.6650969836	 1.1504902202	 0.2719813628	-0.47315
C	-0.2793581768	 0.0067305762	-0.0267082612	 0.384184
O	-1.0792319369	-0.4043260671	 0.7816410854	-0.316993
C	-0.1738786996	-0.6633254169	-1.4183743323	 0.22318
C	-1.5846930238	-0.948425655	-1.9440822657	-0.438502
O	 0.5000669864	 0.2625663967	-2.2757298815	-0.468205
C	 0.7094618955	-1.8981133239	-1.2385241535	-0.002137
C	 0.185093992	-3.251909581	-0.8538198742	-0.256679
C	 0.7377830486	-3.0343999932	-2.240538125	-0.30703
H	 1.6997178071	 0.871546893	 0.0513027866	 0.139278
H	 0.4356494167	 1.9959440413	-0.3840367933	 0.155054
H	 0.5594329684	 1.4427297412	 1.3173003534	 0.130753
H	-2.0881121835	 0.0025949659	-2.1359944923	 0.127389
H	-1.5545597773	-1.5055868113	-2.8851020933	 0.10645
H	-2.170936904	-1.5034755401	-1.2104249743	 0.146111
H	 0.8008260936	-0.2331978476	-3.0447499683	 0.28017
H	 1.6805893256	-1.6379564184	-0.8245525338	 0.091072
H	 0.7628549399	-3.8389592705	-0.1490495584	 0.116925
H	-0.886801011	-3.3736701105	-0.7564755921	 0.127456
H	 0.0332524161	-3.0272799914	-3.0649060057	 0.117651
H	 1.7033499895	-3.4607044875	-2.4893472632	 0.117022
43.9863	47.5312	153.1139	168.7258	216.7179	250.7493	259.6363	279.486	310.7981	342.2989	406.5199	432.7676	521.7277	568.475	591.0643	673.0051	782.5495	804.8428	843.3517	910.3615	944.4917	950.608	967.8887	1032.3036	1051.2652	1059.2243	1086.888	1104.614	1144.3752	1160.9979	1179.5279	1198.4798	1228.2682	1258.2591	1356.9234	1380.8979	1391.1437	1404.8519	1453.591	1466.3379	1467.7938	1486.1811	1501.8654	1508.146	1810.0761	3049.6981	3050.7257	3112.8553	3117.3838	3133.6784	3137.0194	3146.7546	3149.2813	3156.2564	3215.4299	3234.3099	3808.647
CC(=O)C(C)(O)C1CC1	CC(=O)[C@@](C)(O)C1CC1	
InChI=1S/C7H12O2/c1-5(8)7(2,9)6-3-4-6/h6,9H,3-4H2,1-2H3	InChI=1S/C7H12O2/c1-5(8)7(2,9)6-3-4-6/h6,9H,3-4H2,1-2H3/t7-/m1/s1
