16
gdb 31987	3.26348	1.09008	0.86799	1.9907	69.52	-0.213	0.0046	0.2175	1308.5959	0.123771	-475.03408	-475.025135	-475.024191	-475.069741	30.797	
C	 0.1637622002	 1.4079037172	 0.1019896461	-0.249886
O	 0.0086775142	-0.0132480613	 0.0859682654	-0.266649
C	 0.5847883679	-0.701325694	 1.0676500962	 0.405554
C	 0.7202378329	-2.0370217212	 1.2797093979	-0.237991
N	 1.3881209438	-2.2163820191	 2.4843711196	-0.291225
C	 1.6211455427	-1.0275273906	 2.9356008658	 0.3416
C	 2.3771749038	-0.6239124899	 4.1535217949	-0.164475
O	 3.7024847851	-0.1884729286	 3.8686002348	-0.411752
O	 1.1497202362	-0.0331600856	 2.1067615014	-0.213143
H	 1.2212692916	 1.6881083339	 0.0679501956	 0.141703
H	-0.3461420442	 1.7678942535	-0.7914661056	 0.144146
H	-0.2951853773	 1.8433961705	 0.9946919861	 0.140942
H	 0.3868303263	-2.8555224212	 0.6656044834	 0.124282
H	 1.8880905572	 0.2240834948	 4.6415149219	 0.126277
H	 2.3621439493	-1.4775091784	 4.8429236133	 0.122618
H	 4.1619395803	-0.9288616901	 3.4572945133	 0.287998
24.4271	49.7194	119.7437	168.9117	193.992	290.6462	317.7934	380.6371	438.0578	515.637	632.701	689.9305	710.4488	785.5993	795.4334	938.3478	969.9378	999.2116	1046.1021	1067.318	1122.9855	1176.9925	1198.8515	1208.9319	1264.0953	1305.4095	1369.6308	1373.999	1424.0926	1479.3927	1483.0458	1487.046	1500.616	1615.1112	1663.1855	3031.1963	3037.7815	3096.5	3108.276	3156.2896	3284.4628	3806.4965
COC1=CN=C(CO)O1	COc1cnc(CO)o1	
InChI=1S/C5H7NO3/c1-8-5-2-6-4(3-7)9-5/h2,7H,3H2,1H3	InChI=1S/C5H7NO3/c1-8-5-2-6-4(3-7)9-5/h2,7H,3H2,1H3
