18
gdb 101076	2.30164	1.19088	1.03293	2.9974	72.53	-0.2671	0.014	0.2811	1240.2658	0.146582	-439.078705	-439.069267	-439.068323	-439.113199	34.604	
O	-0.0430365647	 1.4660552149	 0.1054425742	-0.419959
C	-0.0174133787	 0.0693690094	 0.2940162353	-0.074518
C	-1.3675455991	-0.5462270728	-0.0895101999	 0.008939
O	-1.7105127699	-0.1531061009	-1.4153177174	-0.441797
C	-1.4187086671	-2.060774117	 0.0901301303	 0.175582
C	-1.7229922883	-2.634174167	 1.4672618313	-0.295682
C	-2.7571001945	-2.7209365416	 0.3883866315	-0.297895
C	-0.5080970798	-2.7835461415	-0.7622787716	 0.227118
N	 0.2208939828	-3.3215906938	-1.4830975152	-0.350162
H	-0.4675721909	 1.6061721444	-0.7509045889	 0.28729
H	 0.7807719079	-0.4103007934	-0.2987874368	 0.101129
H	 0.1999810514	-0.1172601943	 1.3509861601	 0.111867
H	-2.1423062591	-0.101769138	 0.5449068968	 0.101071
H	-1.1256535393	-0.6201749867	-2.0265713415	 0.297402
H	-1.2020333618	-3.5376869911	 1.7596187906	 0.145362
H	-1.8632844819	-1.9140357781	 2.2659795334	 0.137577
H	-3.6140122281	-2.05838769	 0.4291023198	 0.141301
H	-2.9485196588	-3.6869765225	-0.062651092	 0.145375
62.8509	103.5235	145.108	164.3634	226.7498	253.0697	288.7391	368.4024	392.4513	439.7313	496.6718	515.7228	583.0442	600.2464	752.399	791.2468	870.5828	903.5251	950.9135	963.1223	973.4517	1066.8869	1076.9648	1086.2325	1097.5073	1112.7285	1193.9694	1200.5902	1243.6638	1287.1204	1305.4285	1351.9168	1387.1769	1426.5814	1442.462	1469.6176	1496.9386	1506.9732	2341.4009	2960.8737	3058.6841	3075.9774	3144.6316	3148.357	3230.2168	3243.9198	3766.9873	3772.2017
OCC(O)C1(CC1)C#N	OC[C@@H](O)C1(CC1)C#N	
InChI=1S/C6H9NO2/c7-4-6(1-2-6)5(9)3-8/h5,8-9H,1-3H2	InChI=1S/C6H9NO2/c7-4-6(1-2-6)5(9)3-8/h5,8-9H,1-3H2/t5-/m1/s1
