19
gdb 92575	3.83591	1.19585	1.00546	2.6307	77.91	-0.2271	0.0146	0.2417	1193.0026	0.160743	-423.031032	-423.023147	-423.022203	-423.063799	30.623	
O	-0.1069916544	 1.4439283661	-0.1292930801	-0.427734
C	 0.0025669085	 0.0351798556	-0.038074382	 0.126757
C	-1.4130522263	-0.5831050369	-0.0641010838	-0.253425
C	-1.1530550984	-1.9979735328	-0.6018613064	 0.073699
O	-2.2207680032	-2.6671524174	-1.2510442967	-0.284197
C	-1.7711666252	-3.0988351261	-2.5416632468	-0.111391
C	-0.4836741785	-2.3451301717	-2.7904276776	-0.270479
C	-0.1254152212	-1.7302242137	-1.6708322976	 0.335198
C	 0.7854565687	-0.6217703467	-1.2366042988	-0.372603
H	 0.7599051911	 1.8258575016	 0.0396874394	 0.282951
H	 0.5004515925	-0.2422532209	 0.9032682685	 0.070232
H	-1.9042163005	-0.5442680864	 0.9105753522	 0.101609
H	-2.022454885	-0.0316149807	-0.7877506007	 0.119504
H	-0.7570122571	-2.6346474431	 0.2103492227	 0.07115
H	-1.6364889026	-4.1939419254	-2.5519906859	 0.09922
H	-2.543812482	-2.8609403402	-3.2858642158	 0.109796
H	-0.0077208098	-2.2942111123	-3.7617230594	 0.100402
H	 0.9370737073	 0.1185319327	-2.0280144638	 0.121366
H	 1.7737397262	-0.9734063715	-0.9182594075	 0.107946
55.0088	135.1715	225.5115	287.1251	316.8737	338.575	436.1062	458.8707	520.6341	619.2759	657.1948	767.7642	796.278	836.9063	843.3044	913.1047	936.882	967.1741	1008.6742	1030.9265	1040.8384	1045.2078	1094.4876	1118.7159	1150.0999	1180.8442	1196.0809	1198.3072	1234.8399	1255.8845	1281.1975	1290.2411	1339.4843	1346.8643	1368.5611	1390.2547	1435.0175	1471.0937	1493.0402	1520.1122	1745.1681	2927.8032	2957.1856	2978.1492	3017.2366	3035.1756	3059.3147	3086.3658	3117.6303	3212.2133	3819.1523
OC1CC2OCC=C2C1	O[C@H]1C[C@H]2OCC=C2C1	
InChI=1S/C7H10O2/c8-6-3-5-1-2-9-7(5)4-6/h1,6-8H,2-4H2	InChI=1S/C7H10O2/c8-6-3-5-1-2-9-7(5)4-6/h1,6-8H,2-4H2/t6-,7-/m1/s1
