15
gdb 133816	3.0711	2.37481	1.6604	2.1354	78.01	-0.1648	-0.0469	0.1179	793.5666	0.114794	-416.726083	-416.720091	-416.719147	-416.756053	25.163	
N	 1.4097492582	-0.59015748	-0.032755418	-0.116948
C	 1.8027929055	 0.6216186141	-0.4626352794	-0.127691
C	 0.6988824752	 1.5775835643	-0.1431818485	 0.073766
O	-0.4787991671	 1.3985681899	-1.0384139656	-0.335923
C	-1.3377607268	 0.9808792054	 0.1103003203	 0.064732
C	-0.0892506308	 0.9092245958	 0.9723244645	-0.161031
C	 0.2633464102	-0.5760242269	 0.7006710214	 0.079908
N	-0.8258977371	-1.3121856873	 0.2636662668	-0.19296
C	-1.7790650965	-0.4629825271	 0.0097733103	-0.041649
H	 1.8028783277	-1.4605075782	-0.3709927564	 0.280917
H	 2.8027144333	 0.807210759	-0.8235961327	 0.124864
H	 0.9957273833	 2.6245382252	-0.0593408388	 0.081592
H	-2.1215815258	 1.7148539621	 0.3116732248	 0.076195
H	-0.0611868363	 1.2178446218	 2.0188266587	 0.083452
H	-2.764829133	-0.798651648	-0.2985588674	 0.110777
190.7859	316.0979	354.3867	486.179	526.3018	534.9024	625.6951	673.934	711.0304	775.6028	783.7859	810.4735	841.8975	861.7513	878.2287	895.1004	944.4054	952.0099	983.0868	999.0262	1129.1505	1198.1376	1206.9874	1236.9456	1249.1382	1256.5225	1284.2874	1301.9725	1325.0581	1336.1109	1428.9531	1491.8137	1537.5087	3080.6474	3088.9086	3102.2093	3177.8859	3248.3259	3563.5066
N1C2C3OC4C3C1=NC24	N1[CH][C@H]2O[C@@H]3[C@H]2[C]1[N][CH]3	
InChI=1S/C6H6N2O/c7-2-3-5-1(4(2)9-5)6(7)8-3/h1-5H,(H,7,8)	InChI=1S/C6H6N2O/c1-3-5-4(9-3)2-8-6(5)7-1/h1-5H,(H,7,8)/t3-,4+,5+
