21
gdb 68076	2.7357	1.64303	1.25715	1.5933	78.29	-0.2393	0.0854	0.3247	1081.6054	0.182158	-424.221945	-424.213578	-424.212634	-424.253984	34.011	
C	-0.1722052312	 1.525741843	-0.0090945776	-0.466539
C	 0.0759507422	 0.0404222704	-0.1050781398	 0.415201
C	 1.3114552882	-0.5307487	-0.8618523973	-0.277393
C	 1.1474453565	-1.7675559674	 0.0702545969	 0.415201
C	 2.3132105266	-2.6680023807	 0.3976018888	-0.466539
C	 0.5496690963	-0.7893896227	 1.1265503644	-0.336694
O	 0.1033261394	-2.5829697262	-0.4899830867	-0.311343
C	-1.1562474001	-1.9520390426	-0.4371245494	 0.018949
O	-1.0921208106	-0.5658422999	-0.6855982302	-0.311343
H	 0.7166549893	 2.0387556512	 0.3696063214	 0.11126
H	-0.4159016618	 1.9337084859	-0.9949497666	 0.128674
H	-1.0113360275	 1.735250753	 0.6615483627	 0.122614
H	 1.1946796196	-0.703842658	-1.9330982539	 0.100488
H	 2.2258402013	 0.0316050327	-0.6510290429	 0.089291
H	 3.1580735187	-2.0807716501	 0.7691346238	 0.11126
H	 2.0331482628	-3.4018681864	 1.1597058136	 0.122614
H	 2.6340280987	-3.2125048938	-0.4958903482	 0.128674
H	 1.3484425938	-0.2646876803	 1.6556510428	 0.102352
H	-0.1822317408	-1.1529057198	 1.8508669269	 0.104266
H	-1.7806214856	-2.3976698139	-1.2166547386	 0.115531
H	-1.6231619259	-2.1335423845	 0.54468278	 0.083477
209.0197	211.156	229.4539	234.7289	248.2948	308.7439	354.9566	427.1849	452.5026	475.5683	494.2533	562.5038	687.2191	689.578	830.7572	843.3935	847.7963	853.3357	924.6295	957.7463	999.9642	1001.2349	1027.86	1051.9676	1111.8703	1130.6246	1139.5611	1162.0029	1197.0118	1215.9065	1239.3651	1243.4184	1271.156	1317.8096	1332.46	1410.079	1416.9871	1441.391	1458.4322	1479.0302	1480.6321	1492.9471	1493.9332	1494.4396	1546.5257	2959.3662	3038.4655	3038.4718	3056.0566	3072.1886	3084.2027	3110.7069	3110.7828	3115.5694	3116.2709	3125.3581	3131.3926
CC12CC(C)(C1)OCO2	C[C@@]12C[C@@](C)(C1)OCO2	
InChI=1S/C7H12O2/c1-6-3-7(2,4-6)9-5-8-6/h3-5H2,1-2H3	InChI=1S/C7H12O2/c1-6-3-7(2,4-6)9-5-8-6/h3-5H2,1-2H3/t6-,7+
