16
gdb 16288	3.27339	1.88999	1.49593	4.587	70.54	-0.2326	0.0073	0.2399	882.453	0.130772	-342.749994	-342.742567	-342.741623	-342.781505	27.84	
C	-0.1969810608	 1.4567046951	 0.0710771734	-0.341056
N	 0.109920509	 0.03842341	 0.012918048	-0.12591
C	 1.1891475588	-0.4490875839	-0.8933292695	-0.178912
C	 1.8552599965	-1.1751584635	 0.2778623231	-0.129998
C	 2.2041769567	-0.1907120328	 1.3550160159	-0.323973
C	 0.7513874703	-0.5883374908	 1.1661212535	 0.233899
C	-0.0228867158	-1.1886570012	 2.2096935814	 0.230988
N	-0.6461078989	-1.6634703934	 3.0613901403	-0.351185
H	 0.6731155356	 2.1015634252	 0.2827059867	 0.098989
H	-0.6271272861	 1.768940131	-0.8854730953	 0.129558
H	-0.9475774723	 1.6278551942	 0.8487233432	 0.140123
H	 0.7944581307	-1.1026334349	-1.6766070508	 0.123735
H	 1.7997728871	 0.3384756146	-1.3534775212	 0.105651
H	 2.2160898573	-2.1941588693	 0.2731039649	 0.122399
H	 2.6821843746	-0.6084028561	 2.2345261912	 0.141493
H	 2.5165910473	 0.8183224357	 1.1011544153	 0.124198
122.9638	162.4183	208.3803	210.41	322.3305	386.641	453.0972	506.9145	567.8468	632.9783	679.0594	830.6316	850.4114	886.3994	933.0928	959.3595	1013.8951	1032.8953	1076.5144	1095.4994	1116.921	1162.2054	1190.2685	1227.8428	1230.936	1287.0642	1325.1143	1353.906	1449.475	1477.7752	1487.9749	1500.5851	1512.6628	2347.6318	2955.3863	3019.3826	3069.77	3081.4556	3111.8147	3124.0702	3214.9078	3223.2352
CN1CC2CC12C#N	CN1C[C@H]2C[C@@]12C#N	
InChI=1S/C6H8N2/c1-8-3-5-2-6(5,8)4-7/h5H,2-3H2,1H3	InChI=1S/C6H8N2/c1-8-3-5-2-6(5,8)4-7/h5H,2-3H2,1H3/t5-,6+/m1/s1
