17
gdb 34214	3.79949	1.40771	1.39712	1.9217	78.47	-0.2271	0.0347	0.2618	987.6143	0.137588	-384.65668	-384.649893	-384.648948	-384.687577	28.378	
C	-0.000532688	-1.1281003748	 0.0029730971	-0.335921
C	-0.0151553534	 0.0741896014	 0.0156356251	 0.107094
C	-0.0163677594	 1.4964124865	 0.0176949119	 0.375292
O	-1.0020316995	 2.1421154194	 0.8135595059	-0.307974
C	-0.6630420935	 3.5114030984	 0.5410534627	 0.038565
C	 0.8439045819	 3.564513795	 0.8763667537	-0.230424
C	 1.2259176807	 2.3827556681	-0.004965035	-0.161543
C	 0.2688808902	 2.3836507782	-1.1909508212	-0.16154
C	-0.6723674347	 3.5659525532	-1.0026700074	-0.230426
H	 0.0075786319	-2.1896544678	-0.0044303393	 0.18117
H	-1.3359993519	 4.1704609993	 1.0845933757	 0.084704
H	 1.3121468143	 4.5050722517	 0.572412602	 0.104095
H	 1.0362939217	 3.3848388046	 1.9371446454	 0.112782
H	 2.2191047115	 1.9593461759	-0.0542030184	 0.103624
H	 0.5265146562	 1.960932443	-2.1517082993	 0.103624
H	-1.6686894769	 3.3874138078	-1.4149946074	 0.112781
H	-0.2756309512	 4.5065707502	-1.3952612814	 0.104097
141.6023	159.8007	407.4337	412.6606	478.6457	494.6706	527.0765	567.7983	600.4715	686.8506	698.3254	713.3694	803.9772	873.7059	880.0838	896.7198	916.5423	941.595	950.8853	972.326	992.1509	1009.1793	1032.8014	1087.743	1133.8419	1143.5857	1165.6501	1194.0706	1215.5847	1269.0053	1316.6016	1318.4168	1325.0455	1398.6864	1475.4975	1494.0683	2244.4093	3059.0668	3064.2562	3112.6356	3116.2172	3154.9214	3216.5031	3224.8551	3504.599
C#CC12OC3CC1C2C3	C#C[C@@]12O[C@H]3C[C@@H]1[C@@H]2C3	
InChI=1S/C8H8O/c1-2-8-6-3-5(9-8)4-7(6)8/h1,5-7H,3-4H2	InChI=1S/C8H8O/c1-2-8-6-3-5(9-8)4-7(6)8/h1,5-7H,3-4H2/t5-,6+,7-,8+
