18
gdb 74056	2.61794	1.38641	1.11752	5.635	77.31	-0.2226	-0.0179	0.2047	1137.182	0.147109	-439.139112	-439.130071	-439.129127	-439.172468	34.715	
C	 0.0848494875	 1.5427347434	-0.0059048155	-0.429174
C	-0.0252509344	 0.0134512399	-0.033044096	 0.310917
O	-1.3865003519	-0.3850292586	-0.0392946169	-0.483254
C	 0.7393483848	-0.6210047329	-1.208647588	-0.364352
C	 1.9503914052	-1.2562932548	-0.5605824712	 0.400803
N	 2.9350037146	-1.7589742899	-1.3390489647	-0.577124
C	 1.890718549	-1.2302551337	 0.800812348	-0.339414
C	 0.6666287031	-0.5880779477	 1.2177923594	 0.360476
O	 0.152314034	-0.5072852149	 2.3204605034	-0.401628
H	 1.1281412345	 1.8716339167	-0.0635731079	 0.110414
H	-0.469277412	 1.9696720187	-0.8472691438	 0.117882
H	-0.3430089707	 1.9230695454	 0.9262682432	 0.129659
H	-1.6413188659	-0.4060212412	 0.8951953021	 0.285266
H	 0.1133353069	-1.3853200526	-1.6820664519	 0.137525
H	 1.0302097781	 0.0992493413	-1.9817120004	 0.112262
H	 2.7826673761	-1.8782506352	-2.3257158465	 0.266925
H	 3.6808570429	-2.296789487	-0.9303191078	 0.267823
H	 2.6079586581	-1.6710141068	 1.4809207447	 0.094993
65.7574	156.2745	230.4745	256.9112	262.1278	299.5672	311.9147	352.6189	409.3649	457.1639	468.2782	553.7053	566.8345	578.5673	639.2037	737.2124	754.4756	852.3075	889.3988	916.5191	931.9747	977.6896	1069.5655	1100.5078	1123.1891	1161.9976	1217.7766	1233.5251	1279.9244	1333.8427	1391.5736	1394.6994	1417.9501	1467.0211	1486.1514	1495.2466	1629.5503	1674.3032	1782.7474	3031.6959	3038.9617	3081.7645	3106.5442	3117.5506	3214.185	3607.138	3723.6326	3724.0841
CC1(O)CC(N)=CC1=O	C[C@@]1(O)CC(=CC1=O)N	
InChI=1S/C6H9NO2/c1-6(9)3-4(7)2-5(6)8/h2,9H,3,7H2,1H3	InChI=1S/C6H9NO2/c1-6(9)3-4(7)2-5(6)8/h2,9H,3,7H2,1H3/t6-/m1/s1
