16
gdb 43294	3.00237	1.81163	1.38265	4.0071	75.35	-0.2354	-0.062	0.1734	926.0879	0.126453	-400.664566	-400.658136	-400.657192	-400.69521	26.404	
O	 0.0463139648	 0.0353807999	 0.2945889199	-0.31206
C	 0.0082034219	 1.2146545731	 0.0566040852	 0.251783
C	-1.2313840405	 2.0841929421	-0.0655094708	-0.143656
C	-0.9761081674	 3.3063516265	-0.5738811829	-0.156936
C	 0.4709714067	 3.3674663934	-1.0052854705	-0.044149
C	 1.8096847713	 3.9194474439	-0.3727325428	-0.076846
C	 1.4035239954	 3.3071426994	 0.9693224214	-0.215722
C	 1.0928906532	 2.253286051	-0.1574438528	 0.220822
N	 2.4909238497	 2.5710057289	-0.6830113353	-0.390765
H	-2.2014488369	 1.6996457984	 0.2270179355	 0.124265
H	-1.7243982363	 4.0736328859	-0.7472582581	 0.11613
H	 0.5569737642	 3.2188275983	-2.0891517868	 0.09179
H	 2.3296540784	 4.8574490805	-0.5739448047	 0.089928
H	 2.2258156321	 3.0282723791	 1.626457003	 0.121976
H	 0.5502545193	 3.7374783862	 1.4903750972	 0.110268
H	 2.502608854	 2.4198259134	-1.6971148774	 0.21317
142.1446	253.8936	306.8296	359.4226	493.027	565.117	590.1103	608.8433	684.7345	737.6743	744.8354	809.0501	858.1171	884.4503	915.5033	951.0034	980.2751	990.3124	1028.445	1048.7718	1062.3605	1090.2005	1113.3814	1139.6149	1166.4032	1197.1159	1202.905	1247.4143	1259.4508	1286.0974	1336.2105	1356.194	1491.4666	1591.8132	1831.6601	3023.1511	3095.4673	3106.5811	3174.4353	3181.709	3213.8051	3386.4505
O=C1C=CC2C3CC12N3	O=C1C=C[C@H]2[C@H]3C[C@@]12N3	
InChI=1S/C7H7NO/c9-6-2-1-4-5-3-7(4,6)8-5/h1-2,4-5,8H,3H2	InChI=1S/C7H7NO/c9-6-2-1-4-5-3-7(4,6)8-5/h1-2,4-5,8H,3H2/t4-,5+,7-/m0/s1
