19
gdb 103231	3.67743	1.21152	1.113	1.1183	74.11	-0.2319	0.0493	0.2813	1139.8652	0.157494	-422.928181	-422.919616	-422.918672	-422.961215	33.095	
C	-0.1121750302	 1.6297604433	 0.1136653888	-0.467673
C	 0.0250090476	 0.1038307311	 0.0840447718	 0.320239
C	-1.2160021352	-0.5763385777	-0.4978451792	-0.13144
O	-1.406716318	-0.302682074	-1.8764819136	-0.423217
C	 1.27088992	-0.6844952135	-0.2588716134	-0.13004
C	 2.5875262484	-0.1395468786	 0.3724062474	-0.000574
O	 2.3191416049	 1.0614055131	 1.1100348561	-0.246969
C	 2.0144344018	-0.2055490941	 1.7112002857	 0.003014
C	 0.6687806457	-0.7608895613	 1.1474726656	-0.163262
H	 0.5951189428	 2.1197353861	-0.5577609288	 0.131126
H	-1.125295212	 1.9207934105	-0.1957844672	 0.084251
H	 0.0518405509	 2.0390107431	 1.1099418516	 0.136713
H	-1.1262392163	-1.66482954	-0.4267832428	 0.10253
H	-2.096597537	-0.2771099101	 0.0930426955	 0.090063
H	-1.5243558231	 0.6475784126	-1.9759083651	 0.285299
H	 1.265255735	-1.4427621326	-1.0318969952	 0.099402
H	 3.5963611689	-0.2911054027	 0.0083659958	 0.110507
H	 2.452707159	-0.4218133209	 2.677842971	 0.111031
H	 0.1562677768	-1.5973763142	 1.607962066	 0.089002
90.479	120.2939	168.0644	232.9189	269.3007	301.7232	348.3303	394.6369	451.7865	534.2812	649.9289	698.246	758.5368	765.032	797.2437	861.5143	878.1692	911.6451	924.5408	960.8533	990.5414	999.462	1014.3902	1032.6237	1045.3473	1070.982	1100.8107	1158.8153	1199.5564	1231.1629	1234.0433	1253.5599	1293.1907	1356.3562	1373.8726	1417.7301	1424.9563	1428.8967	1490.2721	1497.6554	1507.2848	2975.065	3015.3139	3076.665	3108.5308	3148.3175	3175.323	3185.314	3191.5165	3201.7483	3815.1784
CC1(CO)C2C3OC3C12	C[C@@]1(CO)[C@H]2[C@H]3O[C@H]3[C@@H]12	
InChI=1S/C7H10O2/c1-7(2-8)3-4(7)6-5(3)9-6/h3-6,8H,2H2,1H3	InChI=1S/C7H10O2/c1-7(2-8)3-4(7)6-5(3)9-6/h3-6,8H,2H2,1H3/t3-,4+,5-,6+,7-
