17
gdb 78282	2.5941	1.4194	1.14686	2.2084	68.24	-0.2063	0.0658	0.2722	1093.5586	0.133318	-458.860218	-458.8516	-458.850656	-458.892756	33.607	
O	-0.0548767505	 1.3686038844	-0.0307238251	-0.430036
C	 0.0243724313	-0.0318244593	-0.0283230024	 0.042219
C	-0.4535238829	-0.6825648206	 1.2588437081	-0.110167
C	-1.3375560292	-0.6549434326	 0.0218028123	-0.144528
C	-1.3691906855	-2.208521169	 0.0137819437	 0.339402
O	-2.5685280902	-2.87345425	-0.172396373	-0.451283
C	-0.0607778362	-2.9228040737	-0.0112621244	 0.003429
O	 1.0220853406	-2.6192164648	-0.8485863436	-0.415155
C	-0.4797346834	-2.2313964181	 1.2709400793	-0.201449
H	 0.7201788449	 1.7051881309	 0.4310318626	 0.286368
H	 0.8218961052	-0.4565145982	-0.626631023	 0.114142
H	-0.5736590846	-0.0911127832	 2.1571971101	 0.093254
H	-2.2339580097	-0.0707818585	-0.1368898279	 0.104631
H	-2.6894955449	-3.0143892623	-1.1191769012	 0.288162
H	-0.2458370334	-3.9965621854	 0.0803640815	 0.098981
H	 1.8290342706	-2.8626842823	-0.3809294599	 0.285678
H	-0.600656192	-2.7988442172	 2.1861111829	 0.096353
178.5749	196.7497	209.3685	236.9337	262.5065	290.3036	298.87	318.6328	393.2203	453.3949	514.4362	587.6294	658.1114	747.5379	780.8141	824.6269	866.9126	902.0708	913.6987	969.3108	996.9027	1003.9632	1063.3294	1086.4067	1109.6457	1126.1105	1170.1559	1188.331	1228.1392	1262.4812	1265.3173	1292.6809	1304.5186	1326.0134	1356.3611	1432.0155	1489.8106	3071.0139	3179.6295	3180.7111	3196.2847	3211.1798	3775.1054	3794.0625	3806.0457
OC1C2C1C1(O)C(O)C21	O[C@H]1[C@H]2[C@@H]1[C@@]1(O)[C@@H](O)[C@@H]21	
InChI=1S/C6H8O3/c7-4-1-2(4)6(9)3(1)5(6)8/h1-5,7-9H	InChI=1S/C6H8O3/c7-4-1-2(4)6(9)3(1)5(6)8/h1-5,7-9H/t1-,2-,3+,4-,5-,6-/m0/s1
