17
gdb 33767	3.69956	1.44117	1.23058	1.7702	78.7	-0.2388	-0.0053	0.2335	1026.3805	0.136219	-384.638897	-384.631544	-384.630599	-384.670288	29.992	
C	 0.0344529585	-1.2079534468	-0.0562460294	-0.340266
C	 0.0164763696	-0.0072914249	-0.0025620579	 0.162357
C	-0.039548545	 1.4384794357	 0.0564806894	 0.228027
C	-0.2597354262	 2.1322192588	 1.4309752829	-0.277077
C	 0.728016893	 3.15297471	 0.8235598738	 0.035473
O	 1.2728131677	 2.0870386216	-0.0206597708	-0.321681
C	-0.0281746634	 4.1224203344	-0.0604998359	-0.060759
C	-0.8338565359	 3.5718519665	-0.9677817924	-0.066468
C	-0.9349247736	 2.0630757249	-1.0403050474	-0.290475
H	 0.0618155922	-2.2688861716	-0.0986893012	 0.190374
H	-1.2642596191	 2.4681169358	 1.6915641202	 0.105868
H	 0.1857572331	 1.5434141298	 2.2331508028	 0.119023
H	 1.493706019	 3.6068721708	 1.4538314559	 0.080733
H	 0.0908424041	 5.193578975	 0.0596282307	 0.094382
H	-1.4174657301	 4.1620223069	-1.6679298429	 0.096637
H	-0.6069535543	 1.6972397145	-2.0209465502	 0.127059
H	-1.9721747995	 1.7279141785	-0.9127801476	 0.116793
142.5912	144.6302	275.2262	342.4187	418.1595	453.9689	494.2592	526.197	545.5559	622.6574	635.9092	677.7498	691.0536	736.624	866.644	872.7223	905.2647	927.4737	947.0274	948.5634	970.8951	1008.6347	1043.9732	1073.2828	1163.1378	1178.1778	1203.1514	1221.3805	1235.4611	1271.45	1333.5787	1356.3071	1386.4748	1461.6784	1485.0073	1696.2594	2238.4335	3026.6714	3060.1041	3081.4912	3106.7398	3151.4325	3167.7663	3196.0189	3501.1499
C#CC12CC(O1)C=CC2	C#C[C@@]12C[C@@H](O1)C=CC2	
InChI=1S/C8H8O/c1-2-8-5-3-4-7(6-8)9-8/h1,3-4,7H,5-6H2	InChI=1S/C8H8O/c1-2-8-5-3-4-7(6-8)9-8/h1,3-4,7H,5-6H2/t7-,8+/m0/s1
