21
gdb 64810	3.78995	0.96332	0.95075	2.9393	82.87	-0.2369	-0.0161	0.2208	1339.4647	0.180879	-387.088393	-387.079306	-387.078362	-387.122857	35.051	
C	-0.0545154746	 1.6868645127	-0.1069991615	-0.471488
C	 0.0201160642	 0.1592335123	-0.0720241553	 0.333141
C	 1.0918955348	-0.3798869343	-1.0902601984	-0.387404
C	 2.0476704839	-0.5829225106	 0.0924054183	 0.40715
O	 3.2236383492	-0.7870070311	 0.1834053434	-0.29306
C	 0.9288185728	-0.3372489815	 1.112837244	-0.387478
C	-1.3168183028	-0.5511620501	-0.1573875897	-0.032908
C	-2.5793971659	-0.0446903394	 0.495195833	-0.28139
C	-2.4668359899	-0.0749529057	-1.0101239264	-0.281349
H	 0.9502989876	 2.1176716361	-0.0410915996	 0.1211
H	-0.5026566306	 2.0502387419	-1.0370215105	 0.122437
H	-0.6333178591	 2.0842565476	 0.7325724368	 0.122453
H	 0.810545121	-1.3362881374	-1.5449393026	 0.1252
H	 1.4300095964	 0.2943900719	-1.8819514345	 0.123546
H	 1.1487719912	 0.3680398869	 1.9190287882	 0.123556
H	 0.5809613124	-1.2761766154	 1.5578020472	 0.125195
H	-1.201978061	-1.6333235192	-0.1270285427	 0.078199
H	-3.2266497716	-0.766347643	 0.9813166039	 0.112792
H	-2.562548633	 0.9251771315	 0.9793305228	 0.11376
H	-2.3751001089	 0.8748662286	-1.524653101	 0.113755
H	-3.0368437759	-0.8172858918	-1.5579076454	 0.112794
44.9108	48.0425	201.6023	259.185	267.8705	329.0472	347.8876	372.509	409.2483	420.9023	527.3389	605.8616	684.51	717.0141	785.1217	827.6274	853.3147	880.1306	880.9647	940.6353	947.0259	967.3753	1016.9354	1056.1503	1071.5793	1078.3457	1081.0843	1146.2908	1147.0541	1154.9467	1161.1799	1199.3188	1205.3263	1230.0852	1254.499	1325.7213	1401.4939	1421.4979	1426.2312	1448.6118	1468.6286	1502.337	1505.9689	1509.6171	1891.4117	3033.7731	3045.2706	3050.4627	3097.0314	3105.4266	3105.8416	3107.4559	3113.9307	3136.0333	3140.4604	3211.9304	3226.6459
CC1(CC(=O)C1)C1CC1	CC1(CC(=O)C1)C1CC1	
InChI=1S/C8H12O/c1-8(6-2-3-6)4-7(9)5-8/h6H,2-5H2,1H3	InChI=1S/C8H12O/c1-8(6-2-3-6)4-7(9)5-8/h6H,2-5H2,1H3
