19
gdb 111809	2.99524	1.42582	1.37328	2.015	70.24	-0.2453	0.0824	0.3277	1043.5929	0.160963	-460.151641	-460.143884	-460.142939	-460.184175	29.607	
C	-0.1222188209	 1.3322486692	-0.0391167687	-0.244298
O	 0.1816812298	-0.0435237728	 0.0587986732	-0.254537
C	 0.7076602421	-0.5933039252	-1.1145289913	 0.125572
C	 0.9441195064	-2.1072176764	-0.9692463807	-0.143004
C	-0.5132495227	-2.5806119067	-0.8038771949	-0.071092
O	-1.2476540585	-1.7139570679	-1.7000667364	-0.268796
C	-0.2820119293	-0.8615839734	-2.2734919498	 0.178396
O	 0.5247832494	-1.5582711343	-3.2066807691	-0.273674
C	 1.364089225	-2.4309887257	-2.411319419	-0.083117
H	 0.7593090199	 1.919640765	-0.338766279	 0.107235
H	-0.9315982641	 1.5276349527	-0.7562127221	 0.116667
H	-0.4449657936	 1.660401696	 0.9514024473	 0.13137
H	 1.5929626993	-0.0408885092	-1.4605633649	 0.074028
H	 1.6344318331	-2.4285834898	-0.1907253674	 0.085891
H	-0.6521492263	-3.6237281658	-1.1095306354	 0.10144
H	-0.8838887905	-2.4458958209	 0.2164958294	 0.115945
H	-0.7824547743	-0.0398860585	-2.7822639396	 0.090895
H	 2.4185072114	-2.2029943906	-2.6098015294	 0.103463
H	 1.1719436535	-3.4746863857	-2.6856433923	 0.107616
71.1812	168.0852	191.0649	210.9151	281.9431	356.1658	446.3843	479.2613	570.6079	632.8097	795.0382	853.7752	862.9132	911.8926	924.6216	944.4435	953.8305	972.9174	1011.1133	1022.591	1064.6639	1093.0994	1112.9688	1165.2414	1179.4011	1183.9861	1194.1999	1225.3621	1258.9294	1265.2772	1289.002	1312.1411	1321.0061	1368.263	1384.4357	1407.309	1483.2352	1491.0104	1505.6612	1513.9248	1531.0442	2983.0993	3009.2352	3020.5636	3036.349	3038.0729	3061.3843	3087.2832	3120.5955	3134.8093	3151.281
COC1C2COC1OC2	CO[C@H]1[C@H]2CO[C@@H]1OC2	
InChI=1S/C6H10O3/c1-7-5-4-2-8-6(5)9-3-4/h4-6H,2-3H2,1H3	InChI=1S/C6H10O3/c1-7-5-4-2-8-6(5)9-3-4/h4-6H,2-3H2,1H3/t4-,5-,6+/m0/s1
