17
gdb 47439	3.05138	1.24137	0.92706	0.5614	68.21	-0.249	-0.0344	0.2146	1216.5256	0.13541	-458.951577	-458.943439	-458.942495	-458.98535	29.499	
O	-0.3216140496	 0.1162293301	 0.59276276	-0.299633
C	-0.1942273774	 1.2507211344	 0.2189170887	 0.355182
C	-1.3052363329	 2.1945869672	-0.2474041289	-0.183869
O	-0.6591814145	 3.363566206	-0.7064476011	-0.247482
C	 0.5718441292	 3.4906060743	 0.0075224701	-0.11595
C	 1.112717026	 2.0605187079	 0.1439211655	-0.146359
C	 2.0410066547	 1.7950924475	 1.298768572	 0.091058
C	 3.0179481808	 0.7036590927	 1.2689803085	-0.171891
O	 3.4286331542	 2.0620204996	 1.0857030672	-0.244123
H	-1.9003165449	 1.7584397457	-1.0548794774	 0.143097
H	-1.9766791158	 2.3942058712	 0.6055059865	 0.123038
H	 1.2192971996	 4.1571943251	-0.5636584578	 0.133151
H	 0.4020628354	 3.9349057892	 1.0025876321	 0.098775
H	 1.6140543883	 1.771369438	-0.7889014603	 0.122294
H	 1.6702300211	 2.1191406958	 2.2728460131	 0.099105
H	 3.334613744	 0.2392996119	 2.2008651138	 0.122223
H	 3.0855846718	 0.0698327135	 0.3867177181	 0.121384
52.4654	83.9488	149.0293	193.4497	280.8624	320.1373	405.5638	493.9092	551.6576	597.5431	668.4024	766.9927	854.5986	881.7769	939.2024	941.1629	956.4629	1016.2132	1069.5055	1090.212	1106.8387	1133.0825	1155.5029	1161.2363	1185.7792	1208.9691	1228.3911	1260.19	1283.0002	1301.7699	1327.6638	1390.529	1446.6827	1475.0045	1516.3058	1532.1547	1857.7542	2964.6774	2971.5386	3036.3897	3090.1224	3091.9678	3097.0001	3121.3174	3181.0757
O=C1COCC1C1CO1	O=C1COC[C@H]1[C@H]1CO1	
InChI=1S/C6H8O3/c7-5-2-8-1-4(5)6-3-9-6/h4,6H,1-3H2	InChI=1S/C6H8O3/c7-5-2-8-1-4(5)6-3-9-6/h4,6H,1-3H2/t4-,6-/m1/s1
