14
gdb 51974	3.44459	0.86826	0.75875	2.3412	63.45	-0.2744	-0.0442	0.2301	1427.0219	0.097773	-473.866348	-473.857031	-473.856087	-473.903252	30.582	
O	-0.0846359652	 0.5426667457	-0.0348805998	-0.221848
C	 0.545996262	 1.3535233464	-0.6532783029	 0.152568
C	 1.9954628738	 1.6892219189	-0.319760608	-0.160687
O	 2.478496128	 2.8079487368	-1.0763826495	-0.222092
C	 1.965236676	 3.9979195785	-0.7288701304	 0.461383
O	 1.1500932131	 4.1670229001	 0.1373091068	-0.343919
C	 2.5787912568	 5.1418522806	-1.5356106878	-0.463893
C	 3.0876783883	 4.776851545	-2.852560718	 0.283489
N	 3.4853024639	 4.5101005877	-3.903015745	-0.296228
H	 0.1344645577	 1.8956568014	-1.5329087277	 0.10069
H	 2.0873563725	 1.8725672558	 0.7534167383	 0.164649
H	 2.6357179956	 0.8510469054	-0.6058299359	 0.160932
H	 1.8214339934	 5.9249499556	-1.6227815694	 0.192549
H	 3.3963323242	 5.5595703122	-0.9350184106	 0.192407
18.2577	43.6953	83.6458	130.1147	140.0118	276.5896	320.7057	373.5635	378.421	487.99	515.0127	617.6703	704.5277	742.0316	872.4782	952.8685	983.7485	1033.6892	1056.6351	1113.7193	1217.4176	1264.5008	1282.2555	1317.943	1357.5919	1409.3671	1439.4081	1450.	1832.1077	1850.6924	2375.3214	2898.002	3052.6162	3075.8381	3113.1837	3135.6925
O=CCOC(=O)CC#N	O=CCOC(=O)CC#N	
InChI=1S/C5H5NO3/c6-2-1-5(8)9-4-3-7/h3H,1,4H2	InChI=1S/C5H5NO3/c6-2-1-5(8)9-4-3-7/h3H,1,4H2
