16
gdb 44037	3.34945	1.7429	1.51579	3.4298	74.14	-0.2408	0.0067	0.2475	893.2872	0.125497	-400.628813	-400.622393	-400.621449	-400.659336	26.637	
O	-0.0673366223	 0.0337702209	-0.2639839812	-0.336505
C	 0.0081227773	 1.2041316992	-0.0374317031	 0.348424
N	-0.9788514147	 2.1910524329	 0.1677818726	-0.399601
C	-0.0372412378	 3.1884148827	 0.6293095016	 0.261732
C	 0.6054321509	 3.2615175379	 2.0264097332	-0.287873
C	 1.7861085501	 3.3262770714	 1.0461984924	-0.089525
C	 0.9852227828	 4.2106503707	-0.0187744754	-0.095362
C	 1.317804904	 3.2694984142	-1.1776895764	-0.273199
C	 1.1070570917	 2.3189580917	 0.0258227181	 0.037534
H	-1.9598882319	 2.057703292	 0.3793063152	 0.249766
H	 0.404053147	 4.1553420482	 2.6228606459	 0.098951
H	 0.5386936603	 2.3555063208	 2.6369776995	 0.105528
H	 2.8523784527	 3.4187886014	 1.261803529	 0.088771
H	 0.9248035049	 5.302638388	-0.0100418985	 0.07803
H	 0.5791160779	 3.2048259911	-1.9807997903	 0.10951
H	 2.3320702871	 3.3169788667	-1.5817405225	 0.103821
133.4308	315.581	325.7492	383.442	454.5143	497.4828	542.9403	642.6118	673.7644	735.7287	773.5719	816.2654	863.8038	891.4402	904.0871	938.5099	970.7617	1000.4551	1004.2899	1045.1248	1064.4093	1078.3297	1114.5942	1134.6934	1144.7471	1169.5463	1211.2724	1214.2518	1227.7601	1245.0487	1265.4102	1344.0643	1501.6668	1506.138	1887.5022	3047.2613	3056.3912	3070.7606	3097.5007	3109.683	3118.8599	3563.4126
O=C1NC23CC4C2CC134	O=C1N[C@]23C[C@@H]4[C@H]2C[C@]134	
InChI=1S/C7H7NO/c9-5-6-1-4-3(6)2-7(4,6)8-5/h3-4H,1-2H2,(H,8,9)	InChI=1S/C7H7NO/c9-5-6-1-4-3(6)2-7(4,6)8-5/h3-4H,1-2H2,(H,8,9)/t3-,4-,6+,7-/m1/s1
