20
gdb 100713	2.89086	0.92763	0.83142	3.7933	70.79	-0.2529	0.0142	0.267	1431.9909	0.169906	-477.451774	-477.441478	-477.440533	-477.487517	37.245	
C	 0.171350645	 1.5818719476	 0.0387974911	-0.414496
C	 0.0292386211	 0.0569877308	 0.1124380803	 0.006634
C	 0.8175195025	-0.5306339523	 1.2917806675	-0.072959
O	 2.1941748592	-0.1968024129	 1.2658330147	-0.414962
C	-1.4382566278	-0.4196619551	 0.146176147	-0.163734
N	-2.2864359576	 0.0895805576	 1.2382522373	-0.543193
H	-2.179952984	-0.4586800941	 2.0832685251	 0.250812
H	-2.0516510955	 1.0505592971	 1.4665320003	 0.248106
H	-3.598997983	 0.1722072776	-0.1153137512	 0.306843
C	-2.1402588928	-0.1500789717	-1.2064688055	 0.44849
O	-1.5798465916	-0.2362139805	-2.267306291	-0.346225
O	-3.4374416473	 0.1497985671	-1.0851779006	-0.370202
H	 1.2293710464	 1.852008465	 0.0345407926	 0.136077
H	-0.2940977123	 1.9801636738	-0.866579373	 0.138274
H	-0.2746576808	 2.0804807026	 0.9089368813	 0.101743
H	 0.4410342982	-0.3634211057	-0.813877002	 0.104403
H	 0.4408994056	-0.1272045441	 2.23978419	 0.098091
H	 0.6738504822	-1.6238474873	 1.3245044627	 0.08441
H	 2.5752619639	-0.5803093567	 0.4688762041	 0.285145
H	-1.4368543913	-1.5143696488	 0.2385273793	 0.116741
59.2608	66.8201	110.984	157.7431	228.9957	253.4952	265.9036	307.5931	321.3126	328.1986	362.18	451.1921	526.7782	544.347	643.0671	743.7983	819.7006	844.7734	870.8649	897.7614	910.9814	991.3753	1014.3018	1068.9091	1091.2726	1118.1141	1162.459	1185.3284	1222.8395	1237.6576	1280.2113	1325.2448	1373.2246	1388.6877	1401.1595	1408.1603	1422.7907	1428.5557	1490.782	1506.4236	1510.7066	1653.0267	1862.4848	2961.3018	3021.3728	3025.0578	3033.86	3055.2198	3100.5104	3134.6484	3465.0504	3514.1102	3598.5353	3810.9522
CC(CO)C([NH3+])C([O-])=O	C[C@@H](CO)[C@@H](N)C(=O)O	
InChI=1S/C5H11NO3/c1-3(2-7)4(6)5(8)9/h3-4,7H,2,6H2,1H3,(H,8,9)	InChI=1S/C5H11NO3/c1-3(2-7)4(6)5(8)9/h3-4,7H,2,6H2,1H3,(H,8,9)/t3-,4+/m0/s1
