18
gdb 71417	4.44082	1.1968	1.07826	1.8996	82.67	-0.2376	0.0393	0.2769	1154.6136	0.146775	-364.713435	-364.705457	-364.704513	-364.745565	31.531	
C	 0.0199972621	 1.4892406247	 0.0322489381	-0.496933
C	-0.0514754391	-0.0043168736	 0.0544287362	 0.344944
C	-1.2724917529	-0.8994084403	-0.1782042741	-0.304556
C	-0.3702791296	-2.0674237678	 0.2921847069	-0.074611
C	 0.561064248	-0.9965171504	 0.9727330175	-0.097194
N	 1.1960388378	-0.7582361899	-0.3585240493	-0.177204
C	 0.6990575096	-2.108344571	-0.8281531061	-0.156105
C	 1.7165023405	-3.1313580315	-0.6748221616	 0.334267
C	 2.5361053325	-4.0010080563	-0.5463211022	-0.428866
H	 1.0090149149	 1.8308215506	 0.3485722195	 0.136448
H	-0.1612042132	 1.8738981197	-0.9776765059	 0.125514
H	-0.7302678241	 1.9255851927	 0.7004051324	 0.118386
H	-2.0566877272	-0.6709774889	 0.5488493205	 0.106173
H	-1.707202799	-0.9633849807	-1.1827145147	 0.094034
H	-0.7807725587	-2.9759683441	 0.7265240843	 0.085158
H	 1.0823520574	-0.9254152767	 1.9181380483	 0.099798
H	 0.3204048603	-2.1038331008	-1.8583635993	 0.096003
H	 3.2684549708	-4.7624636958	-0.4390067504	 0.194746
123.0039	136.4872	195.9235	251.9854	302.2843	374.6751	440.5898	477.7948	507.0017	625.2106	629.1749	648.4139	735.0358	791.1842	814.9288	870.2312	894.9668	919.9638	937.8752	959.3081	997.4315	1013.2503	1029.9011	1050.2334	1092.6492	1141.8053	1155.3228	1168.9649	1222.8321	1232.3971	1251.3631	1284.1401	1352.6097	1394.8451	1433.5981	1485.1514	1491.1509	1501.857	2239.0221	3021.7213	3031.3203	3035.1639	3092.8092	3098.4503	3119.2981	3144.9058	3204.8124	3503.6491
CC12CC3C1N2C3C#C	C[C@]12C[C@@H]3[C@H]1N2[C@H]3C#C	
InChI=1S/C8H9N/c1-3-6-5-4-8(2)7(5)9(6)8/h1,5-7H,4H2,2H3	InChI=1S/C8H9N/c1-3-6-5-4-8(2)7(5)9(6)8/h1,5-7H,4H2,2H3/t5-,6-,7+,8-,9?/m0/s1
