16
gdb 73610	2.28992	1.66179	1.31955	3.6257	68.84	-0.2507	0.0242	0.275	1004.053	0.124693	-437.879439	-437.871472	-437.870528	-437.911936	30.02	
O	 0.0058736739	 1.4385991526	 0.1640622701	-0.458542
C	-0.0074035055	 0.0684439659	-0.040023089	 0.346982
C	 0.8267504585	-0.5318916648	-1.1655474512	-0.324988
C	 0.0244213648	-1.7821288636	-1.5934368115	-0.101322
O	-1.3077730011	-1.6375788355	-1.0560867493	-0.249093
C	-1.2909170014	-0.6757833394	-0.0639191881	 0.068822
C	-0.350334177	-0.8414040409	 1.1564242437	-0.327526
C	 0.3644710644	-2.0461304781	 1.4415228854	 0.317861
N	 0.9591190816	-3.0152987504	 1.6617606644	-0.356943
H	 0.8476652457	 1.6807670676	 0.5672158627	 0.293291
H	 0.8732835284	 0.216291948	-1.961921981	 0.128062
H	 1.8475137964	-0.7899062576	-0.8699834477	 0.126193
H	-0.0677187639	-1.8787785223	-2.6779801483	 0.12174
H	 0.4710706102	-2.6972145311	-1.1956769036	 0.143965
H	-2.2542491005	-0.2146038425	 0.1177378849	 0.132396
H	-0.6859293746	-0.291055628	 2.0299880084	 0.139101
114.528	128.0178	165.2707	237.6291	314.6206	372.9259	382.1279	405.799	558.7009	580.064	638.881	700.267	712.6268	811.9471	859.9857	905.6844	936.6728	957.3482	986.1968	1048.4499	1077.6737	1090.6808	1146.5986	1205.6251	1227.3079	1237.365	1253.4632	1304.2749	1319.7958	1328.2395	1402.1708	1465.9079	1497.6426	1524.6603	2341.0119	3058.746	3065.4863	3098.9315	3117.8479	3165.6419	3196.845	3790.4308
OC12CCOC1C2C#N	O[C@]12CCO[C@H]1[C@H]2C#N	
InChI=1S/C6H7NO2/c7-3-4-5-6(4,8)1-2-9-5/h4-5,8H,1-2H2	InChI=1S/C6H7NO2/c7-3-4-5-6(4,8)1-2-9-5/h4-5,8H,1-2H2/t4-,5+,6+/m1/s1
