18
gdb 36430	3.74046	1.10155	0.97155	2.6913	77.15	-0.2326	0.0544	0.287	1235.9778	0.147461	-401.86011	-401.851895	-401.85095	-401.893439	31.321	
C	-0.636843325	-0.3462412553	 0.9083790528	-0.45766
C	-0.1251856677	 0.2634057807	 0.0073899498	 0.297526
C	 0.5266061944	 1.0144083878	-1.0582161441	-0.343543
C	 1.7754175384	 1.7534495246	-0.5699434684	 0.006299
N	 2.5076952647	 2.496274392	-1.6408407819	-0.339233
C	 2.5407303615	 3.7326540543	-0.8174097428	-0.05639
C	 1.3559838176	 4.6544212292	-1.141358246	-0.060331
O	 0.4838789697	 3.8860261684	-0.2676996315	-0.291932
C	 1.5799057323	 3.0810461696	 0.2053454737	 0.101023
H	-1.1040594138	-0.8858717187	 1.6942148339	 0.193467
H	 0.812385981	 0.3413364673	-1.875959359	 0.126882
H	-0.1620075977	 1.7554847028	-1.4782913855	 0.147721
H	 2.4187848986	 1.070415578	 0.0000647514	 0.079522
H	 3.424344644	 2.1156991794	-1.8432097907	 0.221551
H	 3.5181048761	 4.1646295735	-0.6009595055	 0.079741
H	 1.4562783106	 5.6864525818	-0.7812247236	 0.099039
H	 1.0220867551	 4.6440440459	-2.1835716466	 0.111404
H	 1.6616905901	 3.0743480886	 1.2935206042	 0.084912
56.1944	100.1976	150.0967	234.4623	349.8239	349.9113	406.8776	452.0164	563.8044	617.7255	632.8352	645.038	749.0163	795.0651	812.2859	887.8704	933.8384	950.0902	967.7609	993.4925	1010.0762	1034.7202	1065.2465	1075.1614	1116.7499	1156.3091	1178.0248	1206.1901	1210.7279	1245.7259	1298.4629	1309.6266	1347.1603	1352.9604	1387.2269	1392.859	1462.0664	1504.0852	2237.8246	3015.2368	3016.59	3033.4769	3080.3836	3086.0899	3093.6136	3108.8702	3507.2802	3546.6878
C#CCC1NC2COC12	C#CC[C@H]1N[C@H]2CO[C@@H]12	
InChI=1S/C7H9NO/c1-2-3-5-7-6(8-5)4-9-7/h1,5-8H,3-4H2	InChI=1S/C7H9NO/c1-2-3-5-7-6(8-5)4-9-7/h1,5-8H,3-4H2/t5-,6+,7+/m1/s1
