22
gdb 113190	2.50237	1.01111	0.92196	3.3671	78.47	-0.2441	0.0626	0.3066	1413.6313	0.192153	-441.455315	-441.44454	-441.443596	-441.491524	39.529	
C	 0.0261202517	 1.3729465373	-0.4454865341	-0.425942
C	 0.0162701096	 0.0196212089	 0.2661352815	 0.092503
O	 0.5525797013	 0.106296567	 1.5848686721	-0.436848
C	-1.3677524411	-0.6326535486	 0.2811839756	 0.315201
C	-2.4414406038	 0.1336672729	 1.0314246101	-0.494832
N	-1.7322374473	-1.2786321377	-0.9961628222	-0.389107
C	-1.522438863	-2.1138164174	 0.2102435422	-0.07557
C	-0.4189688204	-3.1412320649	 0.0988405166	-0.077384
O	-0.7706183107	-4.1446988325	-0.8414783955	-0.422989
H	 1.046993798	 1.761464914	-0.4931178964	 0.124927
H	-0.3593535276	 1.2719359034	-1.4640272351	 0.134925
H	-0.591800369	 2.1111803	 0.0797628377	 0.106348
H	 0.6936159643	-0.6457009587	-0.2742589658	 0.094321
H	 0.1825620033	 0.8887802699	 2.0060124761	 0.279661
H	-2.6447002841	 1.1061323297	 0.569907505	 0.123718
H	-3.3799981758	-0.4282981701	 1.0527262559	 0.119327
H	-2.1400968127	 0.3071106028	 2.0699737	 0.124562
H	-2.7258127302	-1.1638254608	-1.180664774	 0.227985
H	-2.4227990207	-2.5086983895	 0.6798443103	 0.084669
H	 0.5363373752	-2.6707002389	-0.1664252605	 0.094285
H	-0.2809900369	-3.6489637776	 1.0588543098	 0.112211
H	-0.97017969	-3.6748920692	-1.6601368393	 0.28803
40.6222	57.8647	151.7228	174.6658	216.5944	237.0874	246.6876	272.2004	299.3052	308.8373	380.2919	435.0846	440.2229	495.4893	533.4322	594.6847	716.2343	803.9743	880.6621	904.7732	944.828	985.7106	1002.5163	1035.1007	1047.0618	1057.7349	1074.7869	1104.9947	1128.5642	1146.1329	1190.5957	1262.1451	1277.0521	1307.543	1343.5054	1369.4026	1383.1526	1397.6126	1408.4638	1411.8981	1423.0766	1475.1974	1486.3787	1495.1103	1499.466	1502.1016	1509.1018	3020.0342	3028.9221	3034.2512	3077.6531	3083.0134	3096.0286	3102.8689	3107.0612	3114.02	3124.1193	3493.9862	3788.5907	3815.3309
CC(O)C1(C)NC1CO	C[C@@H](O)[C@@]1(C)N[C@H]1CO	
InChI=1S/C6H13NO2/c1-4(9)6(2)5(3-8)7-6/h4-5,7-9H,3H2,1-2H3	InChI=1S/C6H13NO2/c1-4(9)6(2)5(3-8)7-6/h4-5,7-9H,3H2,1-2H3/t4-,5+,6-/m1/s1
