22
gdb 76388	2.33737	1.21205	1.12349	3.0018	83.84	-0.2197	-0.0075	0.2122	1275.7918	0.1901	-404.347017	-404.335875	-404.334931	-404.383444	39.608	
C	 1.4054768557	-3.8345276856	 1.4192054885	-0.422202
C	 0.8103178044	-2.5118579429	 0.9864049261	-0.027659
N	 0.2392821503	-1.5286456118	 1.8926574822	-0.131056
C	 0.2137244289	-1.7510433693	 3.3311058996	-0.318823
C	 1.4974817777	-1.1774405578	 1.2132987394	 0.170211
C	 2.8291708193	-1.0924441737	 1.9351528498	-0.46841
C	 1.3495653429	-0.1321190672	 0.1232945205	 0.351403
C	-0.0493465642	 0.2397399601	-0.3286098658	-0.478014
O	 2.3326415896	 0.390244994	-0.3582394094	-0.312623
H	 2.0051403357	-3.7732654069	 2.3276579314	 0.125264
H	 0.6072320821	-4.5644012953	 1.594484909	 0.127778
H	 2.0443691416	-4.2304962048	 0.6231784919	 0.132371
H	 0.2360554677	-2.6093858945	 0.0641814571	 0.086968
H	 1.0760596699	-2.2883792691	 3.7469667178	 0.105623
H	 0.1474487223	-0.7814462788	 3.8342242435	 0.128364
H	-0.6894666057	-2.3180883894	 3.5780103382	 0.127035
H	 3.6320451348	-1.0535434139	 1.1967413255	 0.149024
H	 2.8871409916	-0.1691628513	 2.5214094815	 0.125519
H	 3.0102725014	-1.9307015946	 2.6073251277	 0.111248
H	-0.6007511937	 0.6804724664	 0.5072794573	 0.147937
H	 0.024674904	 0.9510471795	-1.1518729281	 0.131105
H	-0.6251648363	-0.6358988232	-0.6420811238	 0.138941
48.1723	104.4509	109.5407	131.6229	148.9705	160.93	212.459	243.912	256.879	333.9145	362.766	410.3961	481.3162	534.8254	555.1696	591.6283	669.956	742.9769	786.8048	872.5467	959.6366	991.04	1027.7195	1049.1093	1089.6554	1112.1438	1121.0885	1152.2176	1160.8182	1186.9503	1188.7347	1311.6166	1360.7846	1385.4613	1401.5041	1412.3606	1420.7214	1449.8801	1462.1691	1469.6847	1477.907	1486.9696	1488.8213	1502.7079	1506.5417	1514.2773	1788.1895	3011.668	3039.9238	3052.3923	3053.5024	3076.3367	3085.184	3096.7957	3103.5049	3114.5379	3121.11	3138.4873	3155.6908	3157.1462
CC1N(C)C1(C)C(C)=O	C[C@H]1N(C)[C@]1(C)C(=O)C	
InChI=1S/C7H13NO/c1-5-7(3,6(2)9)8(5)4/h5H,1-4H3	InChI=1S/C7H13NO/c1-5-7(3,6(2)9)8(5)4/h5H,1-4H3/t5-,7+,8?/m1/s1
