15
gdb 65840	2.73491	1.34827	1.24164	4.8772	67.17	-0.275	-0.0039	0.2712	1063.7005	0.112355	-453.97546	-453.967281	-453.966337	-454.008506	29.792	
C	-0.0969763075	 1.5813383426	 0.0731642818	-0.438681
C	 0.078245425	 0.0684714402	-0.0106979776	 0.189586
C	 0.9089789638	-0.4177374377	-1.2218793606	-0.134189
O	 1.6675195638	-1.4941589289	-0.6829537163	-0.247361
C	 1.7131511163	-1.3753063123	 0.6768304887	 0.498219
N	 2.4026108995	-2.0406385591	 1.4823332721	-0.562918
O	 0.8727753951	-0.3836467712	 1.0909282788	-0.240891
C	-1.2373547112	-0.608965391	 0.0312167458	 0.274044
N	-2.273446213	-1.1191700243	 0.0383452103	-0.319353
H	 0.8862229728	 2.0573624638	 0.0831162223	 0.144701
H	-0.6675598917	 1.9437151774	-0.7862169093	 0.147937
H	-0.6324857614	 1.8503957153	 0.9854928943	 0.164015
H	 0.3008984686	-0.7844971373	-2.049119528	 0.154818
H	 1.5777982656	 0.3769058509	-1.5716389137	 0.128764
H	 2.9974924641	-2.6992299487	 0.9857175914	 0.241309
75.9545	129.8858	192.9867	201.4133	227.5832	297.4269	397.5867	471.7355	495.371	584.6186	629.0947	713.5896	725.2221	793.6237	810.5352	881.0366	938.229	965.4512	1008.559	1040.8323	1099.4931	1149.9006	1194.1991	1196.5545	1265.4669	1289.7495	1400.2365	1414.233	1478.9784	1491.937	1516.6437	1815.1999	2360.5395	3043.6814	3056.3805	3135.1201	3137.2977	3147.8568	3543.8007
CC1(COC(=N)O1)C#N	C[C@]1(CO[C]([NH])O1)C#N	
InChI=1S/C5H6N2O2/c1-5(2-6)3-8-4(7)9-5/h7H,3H2,1H3	InChI=1S/C5H6N2O2/c1-5(2-6)3-8-4(7)9-5/h7H,3H2,1H3/t5-/m1/s1
