14
gdb 11097	7.96108	1.08438	1.02028	1.732	64.5	-0.2519	-0.0372	0.2146	1093.1876	0.104481	-382.485567	-382.477642	-382.476697	-382.519007	27.569	
O	-0.8396865077	 1.5039752613	-0.4350591179	-0.233093
C	 0.101689024	 0.8086138924	-0.1551408232	 0.132305
C	 1.4736003774	 1.3393924253	 0.216078203	 0.06063
C	 1.5163813603	 2.6625908695	 0.9948268243	-0.309577
C	 2.0446211707	 1.788892779	 2.167239718	-0.0313
O	 2.0141866321	 0.5928660156	 1.3305119208	-0.302791
C	 3.3678069785	 2.0942901796	 2.678369844	 0.331458
C	 4.4598578729	 2.3624501262	 3.102462422	-0.449266
H	 0.0356617894	-0.3019974285	-0.1337182811	 0.09624
H	 2.1257545394	 1.2758290385	-0.6677023084	 0.111209
H	 2.2304987023	 3.3972654014	 0.6272183894	 0.13055
H	 0.5428874322	 3.1271527403	 1.1500940615	 0.139306
H	 1.3365755166	 1.684561797	 2.9984675647	 0.116665
H	 5.4252729519	 2.5935689223	 3.4806333229	 0.207663
36.0143	79.7086	125.8064	216.7585	250.1766	348.0862	505.1684	532.6523	602.113	625.1099	678.1966	731.6057	801.3613	896.6199	921.2352	962.126	1022.6803	1038.9525	1081.1009	1096.3176	1151.3997	1244.6167	1253.0104	1283.9239	1343.997	1373.3267	1402.7458	1491.4211	1832.7745	2237.607	2894.7677	2999.0126	3029.4992	3103.858	3166.8114	3501.4705
O=CC1CC(O1)C#C	O=C[C@H]1C[C@@H](O1)C#C	
InChI=1S/C6H6O2/c1-2-5-3-6(4-7)8-5/h1,4-6H,3H2	InChI=1S/C6H6O2/c1-2-5-3-6(4-7)8-5/h1,4-6H,3H2/t5-,6+/m0/s1
