17
gdb 124899	3.67995	1.27553	1.03203	2.6508	74.4	-0.2401	0.0181	0.2581	1147.1708	0.136972	-418.012105	-418.004108	-418.003164	-418.045015	30.195	
C	-0.3810517218	 1.2624831573	-0.9506461493	-0.466023
C	-0.0948137007	 0.0738741055	-0.0632705898	 0.318319
C	 1.1345639207	-0.7192489656	-0.2683961135	-0.217577
O	 1.0391884312	 0.2042998544	 0.8142836147	-0.274585
C	-1.2669760427	-0.5834673122	 0.5732434542	 0.312438
N	-2.484583014	-0.484699333	 0.0405426725	-0.313176
N	-3.2702465617	-1.1981767378	 0.8688455242	-0.178955
C	-2.5931719582	-1.7384590518	 1.9114693803	-0.025304
C	-1.2787598819	-1.3603453893	 1.7569205675	-0.293416
H	 0.5504316199	 1.6636686057	-1.3568447841	 0.117013
H	-1.0400057936	 0.9720405423	-1.7730362912	 0.139357
H	-0.8855044703	 2.0504179816	-0.3837842232	 0.13043
H	 1.1471844238	-1.7715573863	 0.0118630807	 0.110691
H	 1.8237849264	-0.4397890394	-1.0651788305	 0.11166
H	-4.253582713	-1.2643520564	 0.6690725656	 0.275359
H	-3.0902165282	-2.3284821999	 2.6652566921	 0.134995
H	-0.446302446	-1.5798732352	 2.4035075199	 0.118772
53.4288	163.9174	183.6517	196.4803	321.9905	358.1097	435.4238	477.6144	504.5663	560.3989	663.9646	738.1997	779.2508	802.6584	853.2124	869.2714	926.1619	947.671	979.001	1022.224	1062.1911	1097.2985	1100.9941	1138.7777	1162.9501	1185.6985	1212.6585	1326.0056	1362.28	1402.5712	1416.0432	1476.0461	1480.2373	1489.7056	1507.3825	1522.8016	1573.9729	3049.1375	3076.1373	3119.5485	3133.0943	3165.4172	3260.4753	3287.7118	3677.3336
CC1(CO1)C1=NNC=C1	C[C@]1(CO1)c1n[nH]cc1	
InChI=1S/C6H8N2O/c1-6(4-9-6)5-2-3-7-8-5/h2-3H,4H2,1H3,(H,7,8)	InChI=1S/C6H8N2O/c1-6(4-9-6)5-2-3-7-8-5/h2-3H,4H2,1H3,(H,7,8)/t6-/m0/s1
