20
gdb 13144	3.6746	1.19612	1.00631	1.4675	71.61	-0.2546	0.0669	0.3215	1219.2769	0.176241	-386.112585	-386.103612	-386.102668	-386.146482	32.479	
C	 0.3730010411	 1.35135588	 0.0000213499	-0.227404
O	 0.1763575533	-0.0411967275	 0.0238577239	-0.231373
C	 0.7224057179	-0.6541366309	 1.171810307	-0.065127
C	 0.4419188673	-2.1452318264	 1.1020050931	-0.055009
C	 1.2858846008	-2.8989286565	 0.0338366735	-0.221247
C	 2.2825002595	-3.3282827151	 1.1468933668	-0.261501
C	 1.1912512083	-2.9807744171	 2.1914380311	 0.14506
O	 1.5455849753	-2.3992992929	 3.4238117694	-0.429849
H	 1.443358735	 1.6145450567	-0.0051656282	 0.100387
H	-0.0871840526	 1.7325162757	-0.9149395496	 0.127076
H	-0.0948602392	 1.8461984036	 0.8661287849	 0.103685
H	 1.8100579485	-0.4542746002	 1.2192255503	 0.063949
H	 0.2793669145	-0.2287091594	 2.0877229117	 0.095396
H	-0.6407083652	-2.2897345754	 1.052327011	 0.075149
H	 0.7480499829	-3.7492145747	-0.3917724672	 0.103592
H	 1.6766039333	-2.2909831745	-0.7839530598	 0.109632
H	 2.6708501229	-4.3492121627	 1.1369404705	 0.101344
H	 3.1320572736	-2.6397899032	 1.2186551439	 0.092783
H	 0.6031170958	-3.8665281356	 2.4484539154	 0.093199
H	 2.2020739072	-1.715695174	 3.2564118723	 0.280256
79.5173	101.2312	128.734	144.8155	235.6127	262.8363	311.0964	337.7402	410.0111	473.9844	553.3257	652.6195	756.8168	861.3481	893.2522	925.3121	946.3349	962.9039	996.481	1063.4146	1085.0756	1136.4803	1149.781	1158.6293	1182.483	1200.2072	1224.8613	1232.6806	1254.8852	1255.2653	1270.9911	1304.5068	1316.122	1356.138	1428.2635	1433.5578	1481.2878	1482.7096	1485.9854	1497.7342	1505.4807	1530.2768	2920.2137	2965.5175	2976.8992	3008.6723	3044.1818	3063.5573	3069.6285	3078.7866	3105.1763	3112.704	3126.8535	3817.7687
COCC1CCC1O	COC[C@H]1CC[C@H]1O	
InChI=1S/C6H12O2/c1-8-4-5-2-3-6(5)7/h5-7H,2-4H2,1H3	InChI=1S/C6H12O2/c1-8-4-5-2-3-6(5)7/h5-7H,2-4H2,1H3/t5-,6-/m1/s1
