19
gdb 101410	3.05025	1.07464	0.94828	3.2014	71.16	-0.2757	0.0039	0.2796	1308.4136	0.158341	-460.191849	-460.182523	-460.181579	-460.226462	33.763	
C	-0.0487619939	 1.5345038358	 0.1453015417	-0.384487
C	-0.0081751253	 0.0104611379	 0.0125649842	-0.203995
C	 0.7140689884	-0.4610259537	-1.2560020762	 0.105304
O	 2.0506575671	 0.0244662721	-1.3321601079	-0.434733
C	 0.6912501122	-1.9894237082	-1.3877008823	-0.204377
C	 1.5054062331	-2.6432855356	-2.5199690857	-0.108173
O	 2.3438078324	-3.3319049026	-1.5295157232	-0.232826
C	 1.6907340664	-2.7323718557	-0.4908531143	 0.445055
O	 1.9471343724	-2.7986615825	 0.6710239851	-0.334701
H	 0.9599663339	 1.9552070614	 0.1271822977	 0.12783
H	-0.609730168	 1.9876647584	-0.6795992093	 0.115404
H	-0.5290352267	 1.833336317	 1.081283864	 0.11658
H	 0.4892650896	-0.4402598557	 0.8815334428	 0.124358
H	-1.0282279789	-0.393730926	 0.0039599334	 0.09932
H	 0.2159167322	-0.0329218812	-2.1357270595	 0.094408
H	 2.4907823528	-0.18883408	-0.4998690455	 0.294473
H	-0.3262547393	-2.3768755811	-1.2890380414	 0.114433
H	 0.9858584745	-3.3642401608	-3.1527108359	 0.123798
H	 2.1113003071	-1.9534959395	-3.1083600177	 0.142329
70.4624	94.7017	117.5362	152.9198	210.7844	233.9097	293.2475	361.3267	401.8183	464.3081	510.8466	533.7497	753.0434	762.396	787.0308	805.6997	909.3618	926.1352	966.3576	979.3942	1030.5372	1061.9901	1081.5665	1112.3601	1134.0256	1157.6313	1171.2246	1201.2093	1257.6979	1300.5652	1315.0123	1347.1102	1366.5695	1391.1588	1410.5208	1425.966	1488.5587	1496.9229	1505.2422	1508.8407	1916.8914	3021.9008	3029.2708	3039.0973	3061.1789	3083.1166	3088.8594	3105.8107	3122.911	3153.1797	3781.6128
CCC(O)C1COC1=O	CC[C@@H](O)[C@H]1COC1=O	
InChI=1S/C6H10O3/c1-2-5(7)4-3-9-6(4)8/h4-5,7H,2-3H2,1H3	InChI=1S/C6H10O3/c1-2-5(7)4-3-9-6(4)8/h4-5,7H,2-3H2,1H3/t4-,5-/m1/s1
