21
gdb 61524	3.17022	0.88394	0.85964	4.8558	82.96	-0.2565	0.0243	0.2808	1456.8598	0.181987	-383.267523	-383.257471	-383.256527	-383.302667	37.291	
C	 0.2642574496	 1.408590206	-0.1219583219	-0.469574
C	 0.1043472805	-0.0988340037	-0.0261186637	 0.371499
C	-1.2287286717	-0.6539909712	-0.5059865098	-0.270092
C	-1.5388155002	-0.3693824779	-2.0014659488	-0.138862
N	-0.6060532329	-0.9251931702	-2.9867248881	-0.50589
C	-2.896432249	-0.8456170644	-2.3113257647	 0.297547
N	-3.963237193	-1.2386763508	-2.5168318521	-0.320524
C	 1.3460843554	-0.952084692	-0.1971651949	-0.300766
C	 0.7284852774	-0.780745603	 1.1687821146	-0.321225
H	 1.2181480675	 1.7271792398	 0.3087703425	 0.120291
H	 0.2441860361	 1.7655907256	-1.1583255431	 0.118238
H	-0.5352083557	 1.9255282363	 0.4218232982	 0.123033
H	-1.2582549441	-1.7389294495	-0.3497485019	 0.10584
H	-2.0397254765	-0.2284124913	 0.0994205856	 0.117359
H	-1.5504868229	 0.7173829678	-2.1521736175	 0.13577
H	 0.3299000888	-0.5957587196	-2.7718420229	 0.245527
H	-0.5833226785	-1.9382328474	-2.90568337	 0.237192
H	 1.2500101149	-1.9206450637	-0.6759514931	 0.1084
H	 2.2878088665	-0.4518867979	-0.3986287142	 0.114669
H	 1.2487221058	-0.1614062819	 1.891449288	 0.115444
H	 0.2113987122	-1.629380031	 1.6039034978	 0.116123
48.5593	101.6002	127.9154	191.2899	221.1919	231.5962	285.4064	307.4116	342.2902	367.6192	379.5409	474.6419	549.509	582.4685	727.4123	791.2923	826.6836	864.6015	870.5444	906.4491	944.0187	949.4224	956.8334	1025.0526	1050.4546	1076.3246	1082.9209	1101.9612	1144.1798	1172.3652	1190.564	1242.7473	1303.7177	1323.473	1343.098	1382.5312	1412.1155	1423.6639	1468.1885	1474.365	1496.2532	1501.0093	1510.9131	1657.7994	2361.784	3019.4469	3024.6981	3036.4454	3067.7454	3081.765	3102.3886	3127.8275	3133.2691	3205.918	3220.5673	3491.9728	3577.4157
CC1(CC(N)C#N)CC1	CC1(C[C@@H](N)C#N)CC1	
InChI=1S/C7H12N2/c1-7(2-3-7)4-6(9)5-8/h6H,2-4,9H2,1H3	InChI=1S/C7H12N2/c1-7(2-3-7)4-6(9)5-8/h6H,2-4,9H2,1H3/t6-/m1/s1
