21
gdb 95876	2.11597	1.53939	1.13009	2.6191	78.91	-0.2359	-0.0244	0.2115	1186.1656	0.182476	-424.252924	-424.244034	-424.24309	-424.28641	33.847	
C	 0.0715443946	 1.5886784417	 0.0219259841	-0.401083
C	 0.0300879306	 0.0725494484	-0.0837250565	 0.140806
C	 0.7707155593	-0.4716654482	-1.3084858694	-0.190642
C	 0.8054891017	-2.0055709943	-1.2802922259	-0.222523
C	 1.4093566088	-2.4898332273	 0.0443329944	-0.230751
C	 0.6984878615	-1.823201708	 1.2429248228	 0.022074
O	 0.6240296951	-0.425590098	 1.1274172236	-0.268491
C	-0.6434263972	-2.4926805364	 1.5216558738	 0.154551
O	-1.7148462035	-1.9466655977	 1.5352875266	-0.243234
H	 1.1060025119	 1.9421496724	 0.0805400776	 0.117864
H	-0.4042492766	 2.045885583	-0.8509674594	 0.112239
H	-0.4563679057	 1.9205255756	 0.9196491656	 0.127799
H	-1.0155102394	-0.2602337042	-0.1221619197	 0.094978
H	 0.2797359131	-0.1115979639	-2.2195216645	 0.095995
H	 1.7950516515	-0.0757568826	-1.31130066	 0.09609
H	-0.2156049622	-2.3950878429	-1.3894024595	 0.106456
H	 1.3828049657	-2.398805774	-2.1234004673	 0.099287
H	 1.3544975717	-3.5808474156	 0.1348855596	 0.100658
H	 2.4694624511	-2.2169550908	 0.0885954472	 0.111659
H	 1.2963620142	-2.0161086382	 2.1474463214	 0.103287
H	-0.5471154265	-3.5852452189	 1.7366872552	 0.07298
82.5921	138.6699	154.824	221.3872	254.2111	278.1405	308.7336	365.146	436.8371	472.4909	482.9114	588.2747	724.6549	789.9335	830.4191	856.6013	872.5746	887.6	931.5637	970.4967	984.8489	1020.2331	1069.187	1101.6637	1131.2351	1153.1781	1166.6628	1216.9363	1237.6978	1282.2323	1289.8263	1345.7823	1364.2114	1369.2921	1380.1658	1383.6669	1403.9574	1414.9517	1421.2075	1473.3805	1481.7056	1486.2377	1496.7383	1501.2297	1838.2307	2833.1643	2993.9884	3017.3553	3020.9282	3029.5482	3036.8779	3041.6817	3069.6117	3072.9967	3081.6043	3114.068	3123.2421
CC1CCCC(O1)C=O	C[C@H]1CCC[C@@H](O1)C=O	
InChI=1S/C7H12O2/c1-6-3-2-4-7(5-8)9-6/h5-7H,2-4H2,1H3	InChI=1S/C7H12O2/c1-6-3-2-4-7(5-8)9-6/h5-7H,2-4H2,1H3/t6-,7+/m0/s1
