19
gdb 91102	3.15156	1.74366	1.38527	0.8886	80.36	-0.2185	-0.0178	0.2008	982.7583	0.160869	-385.838335	-385.831205	-385.830261	-385.869459	29.404	
C	 0.0061508032	 1.5114912786	 0.1937380448	-0.407555
C	-0.0410092323	 0.0032726382	 0.074003035	 0.103337
O	 0.9504379519	-0.4289634779	-0.9236750952	-0.289599
C	 1.2966969123	-1.7792211988	-0.634489219	 0.105248
C	 2.1465452437	-2.3290371745	 0.5718822368	-0.081521
C	 2.6879475146	-1.4962883576	 1.7350259922	-0.267
C	 1.5600869908	-0.4972951542	 1.9309943225	-0.09019
C	 0.4799601049	-0.8443152561	 1.2159413271	 0.06789
C	 0.6450909065	-2.2341442527	 0.6101997522	-0.171154
H	 0.9975887433	 1.8523264282	 0.5003450275	 0.125038
H	-0.2274208019	 1.969942694	-0.7710609795	 0.128697
H	-0.7321237768	 1.8558787237	 0.9243979937	 0.119966
H	-1.0323551669	-0.3199428408	-0.2718258429	 0.075618
H	 1.3570431604	-2.3802927871	-1.5363430393	 0.097292
H	 2.628563089	-3.2767317836	 0.3436851889	 0.077974
H	 2.9193582976	-2.1327478216	 2.6018582523	 0.107225
H	 3.60937552	-0.948467721	 1.496566389	 0.114662
H	 1.7518097047	 0.5020573798	 2.3069371545	 0.099056
H	-0.0827786949	-3.0283903365	 0.7361189394	 0.085016
161.8097	203.0692	232.6192	278.9593	374.941	455.9036	503.9344	630.6372	649.2172	691.4298	756.5795	768.2804	810.8316	822.5652	846.7974	857.5083	914.3595	963.8195	983.5473	996.6656	1011.5769	1043.5748	1070.0221	1084.0509	1091.136	1120.4144	1153.9876	1166.6662	1199.379	1242.7787	1285.2583	1306.8517	1312.8819	1345.2651	1380.598	1392.9769	1415.805	1474.402	1483.4165	1498.3867	1649.8542	2995.4479	3007.2768	3035.2692	3048.1688	3118.2557	3130.2861	3139.719	3153.8902	3165.8835	3186.4241
CC1OC2C3CC=C1C23	C[C@H]1O[C@H]2[C@H]3C[CH][C]1[C@@H]23	
InChI=1S/C8H10O/c1-4-5-2-3-6-7(5)8(6)9-4/h2,4,6-8H,3H2,1H3	InChI=1S/C8H10O/c1-4-5-2-3-6-7(5)8(6)9-4/h2,4,6-8H,3H2,1H3/t4-,6+,7-,8+/m1/s1
