19
gdb 40364	3.71715	1.24062	1.17733	2.2626	74.54	-0.2404	0.0854	0.3257	1105.7427	0.160716	-422.975143	-422.967768	-422.966823	-423.007372	29.291	
C	 0.1678737475	 1.4725273807	-0.0285522671	-0.187
O	 1.2114423459	 0.5068960699	-0.1602270384	-0.235144
C	-0.1307570399	 0.0328555411	 0.01497261	-0.061898
C	-0.4343906964	-0.7126197963	 1.2719706	 0.308237
C	-1.901027238	-0.9967874603	 1.7507862142	-0.279298
C	-1.153661036	-2.0456057789	 2.6099171708	 0.101873
C	-0.2151766049	-2.2621451107	 1.4009203878	-0.273869
O	-0.3643119007	-1.2451468661	 3.5031531357	-0.281086
C	 0.1896096007	-0.2592193383	 2.6032468942	-0.122295
H	 0.1835759689	 2.0557108286	 0.8901090715	 0.115999
H	-0.0633900379	 2.0379815875	-0.9303428869	 0.117165
H	-0.5558287481	-0.4111678878	-0.8874090384	 0.088593
H	-2.4344384078	-0.2019680144	 2.2779363866	 0.101902
H	-2.5221572598	-1.4357502105	 0.9677197055	 0.101706
H	-1.6413716567	-2.8454974877	 3.1638780863	 0.081636
H	-0.6747138229	-2.8175976595	 0.5809857653	 0.10002
H	 0.7943074999	-2.6245838813	 1.6068096068	 0.10855
H	 1.2826293102	-0.3101197274	 2.601550432	 0.117706
H	-0.1245256438	 0.7439626015	 2.9143534742	 0.097204
57.803	170.0244	197.4918	335.4441	371.6116	442.6662	498.0922	513.8705	599.8101	690.2691	823.1878	850.9379	857.8824	889.1232	898.9059	920.2739	951.9115	961.1693	981.3907	1000.2046	1023.658	1043.8222	1098.6644	1113.6739	1121.6717	1152.0754	1169.2789	1178.1607	1184.945	1206.2067	1237.0463	1240.3293	1264.1851	1294.4536	1328.4973	1380.8048	1444.3787	1472.6095	1505.4705	1531.1178	1534.037	3028.6929	3063.7727	3071.7653	3081.0069	3085.8288	3091.1837	3131.2631	3137.9679	3143.0896	3174.253
C1OC1C12CC(C1)OC2	C1O[C@H]1[C@@]12C[C@@H](C1)OC2	
InChI=1S/C7H10O2/c1-5-2-7(1,4-9-5)6-3-8-6/h5-6H,1-4H2	InChI=1S/C7H10O2/c1-5-2-7(1,4-9-5)6-3-8-6/h5-6H,1-4H2/t5-,6-,7-/m1/s1
