20
gdb 115614	2.97133	1.04936	0.9419	1.9389	75.47	-0.2446	0.0517	0.2963	1333.948	0.17013	-440.233462	-440.224138	-440.223194	-440.267912	34.335	
C	-0.0641741815	 1.5405925787	-0.0341239294	-0.394432
C	 0.0571198137	 0.0364681831	-0.0444871439	-0.073184
N	 1.42695617	-0.5203703046	-0.1066247749	-0.381172
C	 0.6254139953	-0.7259770791	 1.0892795293	 0.262121
C	 1.0437526437	-0.3031496822	 2.4926904723	-0.131849
O	 0.580490708	-1.5692721828	 3.0270002787	-0.312468
C	 0.1642638087	-2.0415038933	 1.7165982721	 0.030272
C	-1.3214357007	-2.3649439549	 1.7380053556	-0.067018
O	-1.5954784412	-3.3402039835	 2.7236951889	-0.419461
H	 0.7352079849	 1.9879061099	 0.5628608716	 0.12814
H	 0.0101026159	 1.943412727	-1.0495249145	 0.125942
H	-1.0274147183	 1.8519569516	 0.3842650702	 0.119813
H	-0.7058552774	-0.4802119522	-0.6269344492	 0.088928
H	 1.4539319766	-1.3657184591	-0.6727411908	 0.232408
H	 2.1227600961	-0.1692130088	 2.6296280688	 0.116002
H	 0.5079378459	 0.5473432241	 2.9311971715	 0.107695
H	 0.7429801311	-2.929231966	 1.4237866593	 0.084621
H	-1.8917054071	-1.4384006338	 1.9122271541	 0.084891
H	-1.63954563	-2.7809731078	 0.7750962159	 0.103883
H	-1.1992212637	-3.0074397862	 3.5388018743	 0.294866
82.1214	96.227	112.3897	187.3459	195.3081	228.9588	289.0101	392.6889	444.0183	462.0518	488.6116	533.1944	581.1817	785.0176	824.9777	861.3087	899.5044	951.8256	999.7806	1014.5302	1036.6949	1038.9486	1064.8546	1081.2349	1097.1248	1125.0156	1131.1352	1153.6522	1213.8248	1228.8874	1269.6091	1274.2677	1310.9925	1335.9602	1375.7761	1392.868	1412.9785	1433.2172	1478.6508	1491.2758	1497.7356	1511.9612	1518.5494	2975.7586	3007.4615	3022.3034	3035.7711	3065.1455	3071.2873	3100.2256	3101.3264	3123.2664	3489.1575	3781.5337
CC1NC11COC1CO	C[C@H]1N[C@]21CO[C@H]2CO	
InChI=1S/C6H11NO2/c1-4-6(7-4)3-9-5(6)2-8/h4-5,7-8H,2-3H2,1H3	InChI=1S/C6H11NO2/c1-4-6(7-4)3-9-5(6)2-8/h4-5,7-8H,2-3H2,1H3/t4-,5+,6+/m1/s1
