18
gdb 62549	2.53865	1.28308	1.0538	2.8013	74.63	-0.2536	-0.0427	0.2108	1189.9724	0.144574	-439.118971	-439.109263	-439.108319	-439.154971	34.134	
C	-0.2196707453	 1.4919261082	-0.0019619495	-0.422217
C	-0.0361279934	-0.0271457089	-0.0028899665	 0.150279
C	-1.3502250894	-0.7743651622	 0.2339521128	-0.422216
N	 0.7825332505	-0.5525857913	-1.1271894024	-0.07343
C	 1.9093067113	-1.0312858844	-0.3253566591	-0.292748
C	 1.1315434884	-0.5155381513	 0.9012969253	 0.358503
O	 1.3258496314	-0.4900732355	 2.0767812922	-0.28209
C	 0.6114156447	-0.6068544202	-2.4666154422	 0.126004
O	 1.4135966845	-1.0877703129	-3.2408660552	-0.328284
H	 0.7268011953	 2.0071655171	-0.1864302237	 0.130728
H	-0.9332342354	 1.794898159	-0.7748589433	 0.130343
H	-0.6077547344	 1.8171265451	 0.9677382739	 0.142834
H	-2.0854873004	-0.5150976168	-0.5344902012	 0.130346
H	-1.2009828954	-1.8572842795	 0.21598383	 0.130728
H	-1.7626673898	-0.4977378427	 1.2086573669	 0.142834
H	 2.0705090915	-2.1149308363	-0.3560943086	 0.153492
H	 2.8626228593	-0.5273267417	-0.5213846972	 0.153491
H	-0.3514809334	-0.1596848258	-2.7853369422	 0.071402
13.5061	105.8055	159.0231	172.9862	184.8991	210.6404	267.6826	317.4835	330.5984	402.5255	452.9594	549.7009	566.4979	661.6999	726.4631	840.0311	923.0243	954.3974	974.8476	1019.2447	1022.2392	1034.8546	1116.1103	1133.1424	1179.3606	1200.5231	1253.917	1286.5648	1395.6863	1396.2417	1415.7936	1444.2928	1475.7589	1476.4698	1479.8896	1497.4124	1503.7744	1787.2281	1926.9795	2932.3395	3036.2068	3038.1487	3041.5035	3080.1321	3110.9495	3114.39	3121.6453	3124.8869
CC1(C)N(CC1=O)C=O	CC1(C)N(CC1=O)C=O	
InChI=1S/C6H9NO2/c1-6(2)5(9)3-7(6)4-8/h4H,3H2,1-2H3	InChI=1S/C6H9NO2/c1-6(2)5(9)3-7(6)4-8/h4H,3H2,1-2H3
