15
gdb 50415	2.24759	1.72746	1.12346	1.9202	71.57	-0.2408	-0.0395	0.2013	1054.935	0.1123	-416.782863	-416.774753	-416.773809	-416.816168	29.631	
O	 0.2297626101	-0.2034605346	 0.1772722141	-0.25534
C	 0.0787345036	 0.98244221	 0.0250163088	 0.161025
C	 1.2424235395	 1.9638497173	-0.0235849788	-0.113622
N	 2.5277456225	 1.2732067372	 0.0028729238	-0.298824
C	 3.0415411304	 1.3787397947	-1.2843634719	 0.068753
N	 2.4975310745	 2.202443895	-2.091579578	-0.231108
C	 1.3629333311	 2.8071803422	-1.3581163158	-0.171816
C	 0.1421536154	 2.8591188905	-2.1563939806	 0.334487
C	-0.8723572002	 2.9067959827	-2.7983356865	-0.443497
H	-0.9264119577	 1.4405748951	-0.0541137809	 0.108614
H	 1.1192960488	 2.6405029129	 0.8317945324	 0.117177
H	 2.4795568182	 0.3349134434	 0.3872509808	 0.255415
H	 3.9155723545	 0.7888944876	-1.5451037128	 0.135922
H	 1.6449019133	 3.8342944285	-1.0923292463	 0.127068
H	-1.7597025741	 2.9470866976	-3.3809728281	 0.205745
57.5527	97.5031	162.5294	214.2995	274.0296	341.7809	448.6232	496.1182	562.4847	631.4701	640.4117	663.252	700.9487	764.044	804.56	875.6901	896.5648	963.8276	1020.7888	1038.0415	1070.6532	1091.2178	1154.4862	1223.6273	1271.9159	1309.1823	1343.1557	1353.4717	1408.048	1436.2776	1694.1716	1820.3779	2239.7863	2949.6284	3011.7038	3031.2362	3189.4874	3501.6824	3539.3678
O=CC1NC=NC1C#C	O=C[C@H]1N[CH][N][C@H]1C#C	
InChI=1S/C6H6N2O/c1-2-5-6(3-9)8-4-7-5/h1,3-6H,(H,7,8)	InChI=1S/C6H6N2O/c1-2-5-6(3-9)8-4-7-5/h1,3-6H,(H,7,8)/t5-,6+/m0/s1
