22
gdb 76807	2.69427	1.5279	1.2678	2.1663	87.45	-0.2028	0.0589	0.2616	1114.9304	0.194444	-367.058636	-367.050216	-367.049272	-367.091061	33.865	
C	-0.2234588852	 1.6308591767	 0.0133359526	-0.412232
C	-0.027945228	 0.1181523264	 0.0272494023	-0.051001
C	 0.9326194504	-0.5707514728	-1.083099248	-0.110914
C	 1.4466582304	 0.2410952329	-2.2617358956	-0.408924
C	 1.879809669	-0.8808297694	 0.1072028254	 0.249821
C	 2.5877346685	-1.7689239771	 1.186377333	-0.255143
N	 2.092381013	-0.5411435278	 2.0194588343	-0.182161
C	 2.6108221688	 0.2776487882	 0.836179679	-0.191249
C	 0.7906282403	-0.7068892269	 1.1193176638	 0.008176
H	 0.7021313757	 2.2001475819	-0.0880212819	 0.123402
H	-0.8692000135	 1.91641026	-0.8250095648	 0.115865
H	-0.7166873691	 1.9576660525	 0.934572486	 0.126428
H	-1.0256420224	-0.3309291556	-0.0086393429	 0.085035
H	 0.4378355026	-1.4798434382	-1.4410433778	 0.079122
H	 1.9884027407	 1.1336540479	-1.9330293962	 0.11798
H	 2.1322681324	-0.3561704628	-2.8725454973	 0.11911
H	 0.6257491824	 0.5683968282	-2.909359733	 0.11572
H	 2.1033089072	-2.7102291692	 1.4578953483	 0.10457
H	 3.6791239198	-1.8558716278	 1.1938684996	 0.10009
H	 3.7028920359	 0.302939236	 0.7670258261	 0.091479
H	 2.2047102537	 1.2865306759	 0.8052592392	 0.103807
H	 0.2213775873	-1.576076399	 1.4582367279	 0.071021
131.8438	172.2478	204.2168	218.3257	235.0366	269.8821	393.7836	480.0589	495.3569	540.3485	598.0303	656.4501	706.4779	748.4794	809.3377	842.1296	859.226	906.2063	950.5607	977.5748	990.3631	1001.9586	1041.2164	1055.48	1066.4147	1089.0327	1106.7209	1147.4128	1156.9551	1175.4566	1185.9192	1191.4636	1215.5724	1223.8763	1268.7589	1285.2272	1342.0272	1356.5959	1374.9847	1407.7005	1417.0947	1486.2775	1490.5139	1498.3709	1502.8473	1510.2353	1550.1326	3028.7526	3034.4402	3039.7724	3041.6927	3052.5325	3055.8019	3071.8325	3092.299	3095.0559	3101.2505	3118.7653	3123.2953	3161.3594
CC1C(C)C23CN(C2)C13	C[C@H]1[C@@H](C)[C@@]23CN(C2)[C@@H]13	
InChI=1S/C8H13N/c1-5-6(2)8-3-9(4-8)7(5)8/h5-7H,3-4H2,1-2H3	InChI=1S/C8H13N/c1-5-6(2)8-3-9(4-8)7(5)8/h5-7H,3-4H2,1-2H3/t5-,6+,7-/m0/s1
