21
gdb 84988	2.47685	1.32032	1.08621	2.6116	78.27	-0.243	-0.0258	0.2172	1225.0547	0.180914	-424.271683	-424.262149	-424.261205	-424.305682	36.521	
C	-0.0253558633	 1.5138536812	 0.0157147966	-0.405939
C	 0.0589821736	-0.0108497353	 0.0651809063	 0.02353
C	 0.7296762078	-0.6492479868	-1.1721320862	-0.339323
C	 1.4441418692	-1.8882468041	-0.6480670121	 0.36271
O	 2.136627554	-2.6574452889	-1.2687793349	-0.340814
C	 1.2441911242	-1.9941464217	 0.8757455464	 0.302677
C	 0.1072779114	-2.9912179603	 1.1691936363	-0.428877
O	 2.4414548386	-2.428758892	 1.4873996451	-0.485902
C	 0.8845749521	-0.5524190965	 1.259580347	-0.26018
H	 0.9728565373	 1.9579981911	-0.0723669957	 0.11755
H	-0.6197921063	 1.8539024088	-0.8387361104	 0.116351
H	-0.4882217259	 1.9126918294	 0.9244630496	 0.118141
H	-0.9609339986	-0.4068751464	 0.1466799597	 0.082104
H	 0.0461763083	-0.8929117486	-1.9906499045	 0.131784
H	 1.4982590004	 0.0118441045	-1.5945334694	 0.136873
H	 0.35815443	-3.9736151188	 0.7582996333	 0.126812
H	-0.0080638152	-3.085067409	 2.2527341844	 0.130589
H	-0.850392946	-2.6751557577	 0.7426651599	 0.114701
H	 2.8673530865	-3.013428978	 0.843604419	 0.285141
H	 1.8174141781	 0.0148509098	 1.3620591154	 0.10944
H	 0.3458213838	-0.4822345008	 2.2086820443	 0.10263
62.7426	121.5186	198.4009	237.691	240.7511	270.0437	299.8253	329.7262	384.5443	405.0338	434.8825	515.0336	523.3263	591.5142	617.3483	710.1606	836.7806	843.9844	904.333	932.6574	948.0713	975.7914	1020.2684	1055.5711	1072.6849	1106.1573	1149.7716	1163.0419	1209.7163	1223.0659	1253.6683	1270.6371	1319.1455	1345.7261	1378.3101	1396.4901	1399.1683	1412.992	1443.0336	1483.0117	1492.1072	1495.6081	1497.1034	1501.1927	1834.9132	3021.1787	3026.7087	3033.4688	3036.2116	3042.5449	3091.6904	3093.1543	3098.983	3099.9831	3109.839	3119.7222	3731.0219
CC1CC(=O)C(C)(O)C1	C[C@H]1CC(=O)[C@@](C)(O)C1	
InChI=1S/C7H12O2/c1-5-3-6(8)7(2,9)4-5/h5,9H,3-4H2,1-2H3	InChI=1S/C7H12O2/c1-5-3-6(8)7(2,9)4-5/h5,9H,3-4H2,1-2H3/t5-,7-/m0/s1
