17
gdb 32615	4.5586	1.0531	0.92991	7.5304	80.78	-0.2239	-0.0357	0.1882	1273.6423	0.138202	-414.221334	-414.213113	-414.212168	-414.255312	29.773	
C	-0.1321445964	 1.4691374579	-0.2021483361	-0.374742
C	 0.0008641967	-0.0404357398	 0.0068780409	-0.175722
N	 0.725831895	-0.3925218	 1.2255215815	-0.064913
C	 2.1022997447	-0.5243918737	 1.2530826591	 0.090713
N	 2.7914643684	-0.7651668279	 2.2982721422	-0.266597
C	 2.1079707194	-0.8921158391	 3.5295054447	 0.363113
N	 2.7870741433	-1.0872872487	 4.5895327229	-0.505249
N	 0.6880585345	-0.8052045022	 3.5406436407	-0.311073
C	 0.0922982305	-0.5607333116	 2.4379745561	 0.093492
H	 0.8510124546	 1.9435862605	-0.274264761	 0.13877
H	-0.6799569065	 1.6740024464	-1.126741757	 0.133023
H	-0.6735149416	 1.9340965884	 0.6271406982	 0.137154
H	-0.9862902973	-0.5105585526	 0.0597137465	 0.132007
H	 0.5249636803	-0.5011966944	-0.8365298706	 0.133189
H	 2.5911977572	-0.4182793263	 0.2848295248	 0.130055
H	 2.1365406402	-1.1568514857	 5.3735597583	 0.218352
H	-0.994482873	-0.4824285812	 2.4049220288	 0.128428
50.6668	56.8217	117.1072	216.7844	342.882	370.6379	438.8229	471.1135	491.2926	520.0779	681.2927	743.6898	790.9082	800.8709	834.0875	907.1901	964.9545	969.0216	971.5716	1006.8452	1057.6062	1100.4711	1125.2965	1245.0512	1262.0075	1313.8088	1391.3788	1412.413	1417.4146	1430.1918	1436.2345	1488.4581	1491.7192	1506.391	1621.2011	1703.0505	1742.8068	3043.1996	3050.9148	3089.0651	3120.6828	3122.8255	3129.847	3136.1027	3478.8864
CCN1C=NC(=N)N=C1	CCN1CN=C([NH])N=C1	
InChI=1S/C5H8N4/c1-2-9-3-7-5(6)8-4-9/h3-4,6H,2H2,1H3	InChI=1S/C5H9N4/c1-2-9-3-7-5(6)8-4-9/h3,6H,2,4H2,1H3
