17
gdb 57160	3.11135	1.21763	0.88463	1.2615	81.13	-0.2538	-0.0482	0.2057	1270.1407	0.13395	-418.002919	-417.993239	-417.992294	-418.038187	34.727	
C	-1.4687854448	 0.723615858	-0.3382205396	-0.329972
N	-0.2701327113	-0.0323486325	 0.0437068794	-0.160703
C	-0.1670919189	-0.3453592785	 1.4226018065	 0.36851
C	 1.0246054023	-1.1204541061	 1.9300051287	-0.440528
N	-1.1277485713	 0.0692542379	 2.1543838651	-0.508672
C	 0.6766237223	-0.399780798	-0.9019203294	 0.317418
O	 1.6935628652	-1.0247159826	-0.6669603155	-0.357223
C	 0.4065727851	 0.0075800649	-2.2754715615	 0.180515
C	 0.3211621086	 0.2719221896	-3.4460325785	-0.371653
H	-1.5003551938	 1.6692486128	 0.2060383166	 0.149163
H	-1.4463745894	 0.908238123	-1.4088979414	 0.146627
H	-2.3642462399	 0.1587746132	-0.0725607651	 0.149148
H	 1.9618607411	-0.6011852381	 1.7236523483	 0.157438
H	 0.9101569051	-1.2537051536	 3.008607067	 0.107593
H	 1.1066517116	-2.096114375	 1.4482822569	 0.157436
H	-0.9678532261	-0.2005969811	 3.1228502791	 0.221444
H	 0.2391301241	 0.5089476461	-4.4789704665	 0.213459
34.9011	61.4488	167.2053	168.7523	236.0752	253.9655	294.3771	304.2687	380.8665	424.6427	474.6177	561.1008	588.7183	623.1869	647.3126	694.9461	718.7123	760.6661	868.0123	918.3726	995.8212	1073.8051	1106.0855	1131.5051	1158.3676	1195.424	1368.7401	1385.9733	1421.0301	1465.6375	1468.7162	1469.8675	1474.1485	1513.252	1691.4683	1743.1701	2217.5492	3058.3434	3072.0663	3133.8183	3139.0488	3142.8278	3188.477	3494.496	3505.3297
CN(C(C)=N)C(=O)C#C	CN(C(=N)C)C(=O)C#C	
InChI=1S/C6H8N2O/c1-4-6(9)8(3)5(2)7/h1,7H,2-3H3	InChI=1S/C6H8N2O/c1-4-6(9)8(3)5(2)7/h1,7H,2-3H3
