21
gdb 57598	2.28648	1.33792	1.19228	2.0912	78.02	-0.2394	-0.0227	0.2167	1188.6461	0.179678	-424.222717	-424.212583	-424.211639	-424.258687	36.176	
C	 0.0959227004	 1.6608202394	-0.2392996131	-0.434067
C	-0.0058080917	 0.1361162414	-0.0251304928	 0.121653
C	 0.5352339613	-0.2829077641	 1.3455035155	-0.419776
C	-1.4736393067	-0.2524546459	-0.1707567931	 0.144805
O	-2.0978472176	-0.9018306631	 0.630835266	-0.263582
C	 0.8044048892	-0.5645587979	-1.1336503799	 0.148187
C	 0.6622757466	-2.0904815474	-1.3419947639	-0.31182
C	 0.2705970467	-1.710282973	-2.7832584388	-0.067798
O	 0.2983070824	-0.2999398479	-2.4648135643	-0.301534
H	 1.1385479256	 1.9840474289	-0.1533733128	 0.121388
H	-0.2633752482	 1.9413734577	-1.233263835	 0.142626
H	-0.4879146442	 2.2044597209	 0.5103217766	 0.122275
H	-0.0121947712	 0.2219537084	 2.1457149665	 0.127659
H	 0.4241290703	-1.3582648663	 1.5054069141	 0.130508
H	 1.5946489614	-0.0225645667	 1.4374941815	 0.10954
H	-1.9507862678	 0.1181437733	-1.1033861957	 0.093022
H	 1.8503520488	-0.2333055561	-1.0472817238	 0.075218
H	 1.5744805374	-2.676254786	-1.2255573716	 0.113086
H	-0.1382383133	-2.5513652405	-0.760427348	 0.130754
H	 1.0134451826	-1.9648029666	-3.5490830274	 0.106376
H	-0.719200092	-2.0308625986	-3.12666471	 0.111479
29.5783	81.1658	94.0078	179.1174	199.0642	229.9487	242.5901	277.796	308.7224	342.0244	434.3474	480.3321	586.4578	726.6575	784.3776	825.8697	874.6436	916.276	951.9447	954.406	977.5327	999.2547	1019.6539	1047.277	1058.304	1105.4759	1166.4272	1196.4661	1217.5663	1238.27	1249.424	1261.8271	1291.0432	1359.3836	1376.6536	1394.3588	1404.5047	1430.2138	1482.4115	1484.9298	1496.0443	1499.5031	1507.3863	1531.4279	1820.4185	2903.8246	2982.1965	3022.0244	3034.3186	3042.9509	3065.725	3084.5263	3102.9054	3113.5849	3118.8151	3123.3394	3140.3251
CC(C)(C=O)C1CCO1	CC(C)(C=O)[C@H]1CCO1	
InChI=1S/C7H12O2/c1-7(2,5-8)6-3-4-9-6/h5-6H,3-4H2,1-2H3	InChI=1S/C7H12O2/c1-7(2,5-8)6-3-4-9-6/h5-6H,3-4H2,1-2H3/t6-/m1/s1
