16
gdb 41607	4.30447	1.3229	1.18811	1.2169	69.53	-0.224	0.0134	0.2374	1026.5069	0.125823	-437.84289	-437.835976	-437.835032	-437.874524	26.55	
C	 0.0708443574	 1.4797955197	-0.0358771656	-0.099936
O	 1.5107770554	 1.3962095231	-0.2401190614	-0.288301
C	 1.4718808385	-0.011624615	 0.0029764377	 0.032156
C	-0.039572697	-0.0317537308	 0.1123507815	-0.199033
C	 0.6627807393	-0.6949383868	-1.0591793831	 0.311795
C	 0.6038173276	-0.262742803	-2.5273310035	-0.176221
O	 0.6214110293	-1.5294267372	-3.2339403967	-0.225607
C	 0.6553602277	-2.4809203618	-2.2718727818	 0.103198
N	 0.6730269146	-2.1408381371	-1.0483250872	-0.318259
H	-0.1503683579	 2.0245164184	 0.8884073692	 0.119539
H	-0.443409187	 1.9601469449	-0.877221312	 0.10758
H	 2.2692421246	-0.4719269448	 0.5735284316	 0.117089
H	-0.6952392658	-0.5818943371	 0.7719983956	 0.113785
H	-0.3143657456	 0.2667537945	-2.8017966163	 0.119881
H	 1.4672705549	 0.3304645144	-2.8387457507	 0.138325
H	 0.667537444	-3.4989270014	-2.6427954071	 0.144007
87.0925	179.9476	197.7352	294.7759	419.4401	442.7881	559.4985	585.1389	756.9999	793.6674	848.6039	893.2423	915.0672	942.3287	952.3315	961.0352	968.133	997.7	1019.2548	1062.9995	1082.9357	1100.5663	1122.5418	1149.6004	1159.3406	1202.0068	1230.0306	1247.0272	1315.7704	1332.9105	1371.0036	1431.7909	1517.4214	1518.5281	1690.4467	3023.6629	3045.7285	3073.5985	3099.3177	3191.8466	3220.0072	3225.9443
C1OC2C1C21COC=N1	C1O[C@H]2[C@@H]1[C@]12COC=N1	
InChI=1S/C6H7NO2/c1-4-5(9-1)6(4)2-8-3-7-6/h3-5H,1-2H2	InChI=1S/C6H7NO2/c1-4-5(9-1)6(4)2-8-3-7-6/h3-5H,1-2H2/t4-,5+,6+/m1/s1
