19
gdb 94475	3.77667	0.89944	0.7932	2.2398	82.38	-0.2191	0.0233	0.2424	1479.655	0.15892	-419.172913	-419.163737	-419.162792	-419.207932	33.477	
O	 0.1198424749	 0.8989035048	-0.7250489066	-0.437292
C	 0.1390909728	-0.2423137508	 0.0914585549	 0.036137
C	-0.0173810269	 0.0036266117	 1.6246768742	-0.182882
N	-1.1429189007	-0.9584926269	 1.5991943365	-0.356868
C	-1.1906515914	-0.9798439215	 0.20403778	 0.367945
N	-1.9978535279	-1.3305265139	-0.7012914534	-0.334141
C	-3.2687801479	-1.8762863161	-0.3577536752	 0.050456
C	-4.4312331561	-1.5483170045	-1.2679636884	-0.271435
C	-3.836984	-2.9306424444	-1.2807473408	-0.266036
H	-0.5588498001	 0.7394586995	-1.3926488976	 0.296196
H	 0.990307878	-0.891828726	-0.1503222106	 0.094707
H	 0.8108943732	-0.2969964324	 2.2712580197	 0.110926
H	-0.3091743863	 1.038178388	 1.8295782638	 0.119223
H	-1.9442938359	-0.9243641496	 2.2133231669	 0.245086
H	-3.5037285638	-1.9944167332	 0.7006350076	 0.066844
H	-5.4069655482	-1.4028128634	-0.8177358775	 0.109657
H	-4.213092534	-0.8998022906	-2.1082312617	 0.118454
H	-3.2204142124	-3.2051741956	-2.1283092525	 0.122682
H	-4.3994755573	-3.7454552049	-0.8387785092	 0.110341
37.0652	95.3598	117.2592	133.9807	222.6422	252.3285	341.4848	380.4217	449.4768	486.6027	531.8027	696.8167	756.9483	783.8118	815.2549	850.8411	873.1145	918.0134	932.8381	983.5967	1013.3585	1054.7226	1059.9883	1069.7896	1113.3193	1141.4135	1157.2102	1178.1632	1197.7338	1198.4015	1213.9736	1228.3557	1295.8278	1351.5728	1377.5276	1387.3364	1404.1084	1456.909	1494.3367	1513.0379	1815.7035	3022.2076	3049.5136	3083.0626	3108.627	3137.0492	3141.6963	3222.8033	3237.2694	3591.93	3781.3448
OC1CNC1=NC1CC1	O[C@H]1CNC1=NC1CC1	
InChI=1S/C6H10N2O/c9-5-3-7-6(5)8-4-1-2-4/h4-5,9H,1-3H2,(H,7,8)	InChI=1S/C6H10N2O/c9-5-3-7-6(5)8-4-1-2-4/h4-5,9H,1-3H2,(H,7,8)/t5-/m0/s1
