23
gdb 119053	1.67915	1.30267	0.84006	1.2126	82.13	-0.2512	0.0616	0.3128	1473.3466	0.203438	-425.406367	-425.395381	-425.394437	-425.442915	39.984	
C	-2.7561442696	 0.7867875555	-2.3602170523	-0.379904
C	-2.4631131954	-0.6385588175	-1.8833533664	-0.170467
C	-1.8536651379	-0.6728718897	-0.4738751848	-0.259961
C	-1.5579709847	-2.0692327989	 0.0570792835	 0.308673
C	-0.4758958851	-2.8518774273	-0.6684517733	-0.137787
O	 0.8257443681	-2.305552373	-0.5005616551	-0.419472
C	-1.658715591	-2.2911057802	 1.5563904992	-0.376199
C	-2.6976901066	-2.8703030086	 0.6282001786	 0.057029
O	-3.9750501901	-2.3006695711	 0.5635492141	-0.420775
H	-3.197336106	 0.7901267225	-3.3618179233	 0.110472
H	-3.4567660543	 1.2918802012	-1.6860620027	 0.116101
H	-1.8423449668	 1.3911826828	-2.3977935718	 0.107964
H	-3.3881981395	-1.2254982966	-1.876286272	 0.120017
H	-1.791482123	-1.1262283424	-2.6013684362	 0.088698
H	-0.9283349549	-0.0774969217	-0.453284219	 0.077784
H	-2.5438096219	-0.1738045297	 0.2129396636	 0.105202
H	-0.4182136112	-3.8662443938	-0.2599139572	 0.10128
H	-0.7266329397	-2.9500617361	-1.7357949648	 0.093055
H	 0.8421444787	-1.4435454266	-0.9270979237	 0.284431
H	-0.9487781421	-2.9589854156	 2.032971175	 0.11481
H	-1.961859919	-1.4422597115	 2.1608061632	 0.108947
H	-2.6808473886	-3.9487280284	 0.4643565702	 0.081122
H	-4.4367695092	-2.5128875334	 1.381219945	 0.288977
46.1911	74.7047	96.7933	153.3023	189.2774	233.3754	246.5176	275.7038	278.1569	306.3858	346.7338	388.8452	412.6592	478.4145	612.9912	739.4127	752.3208	821.7849	865.0344	896.5257	923.4041	937.8624	977.5815	1019.9354	1041.8632	1052.0361	1060.9448	1085.6059	1114.7122	1134.7206	1167.6517	1200.5488	1248.4202	1281.8393	1296.4267	1314.6476	1342.3564	1351.8035	1378.772	1393.857	1412.4829	1424.1336	1436.4313	1479.1277	1490.9573	1492.2213	1501.3242	1504.2166	1508.9674	2987.0016	2994.7681	3024.8837	3027.5339	3064.988	3067.8088	3080.4798	3087.0868	3097.5026	3101.5322	3127.2641	3215.2681	3807.4033	3825.6037
CCCC1(CO)CC1O	CCC[C@@]1(CO)C[C@H]1O	
InChI=1S/C7H14O2/c1-2-3-7(5-8)4-6(7)9/h6,8-9H,2-5H2,1H3	InChI=1S/C7H14O2/c1-2-3-7(5-8)4-6(7)9/h6,8-9H,2-5H2,1H3/t6-,7+/m1/s1
