19
gdb 75836	2.51513	1.61318	1.20969	4.2279	74.42	-0.266	0.0096	0.2757	1084.7808	0.158857	-423.067895	-423.059398	-423.058454	-423.100696	32.619	
C	 0.0753162028	 1.6288368086	-0.0213236882	-0.398111
C	 0.0821876955	 0.0996663947	 0.0518915003	-0.225758
C	 0.8005891855	-0.5258830536	-1.1536774432	 0.432224
O	 0.6897422411	-0.224726097	-2.3055457676	-0.337003
O	 1.6368101545	-1.5237576829	-0.7383353047	-0.219704
C	 1.6670339344	-1.5850063058	 0.6762467805	 0.04933
C	 2.2526408084	-0.3875390724	 1.366783283	-0.365177
C	 0.7424395887	-0.5513256631	 1.2588363051	 0.316403
C	-0.0785588784	-0.7967650155	 2.5016818725	-0.484516
H	 1.0845063441	 2.0360511105	 0.090997835	 0.123345
H	-0.3145612713	 1.9506525415	-0.9902044901	 0.145342
H	-0.5521041597	 2.0531651627	 0.7675299937	 0.118551
H	-0.9572028245	-0.2534265629	-0.0064402929	 0.110108
H	 1.7787453854	-2.5968865559	 1.045099198	 0.113902
H	 2.6918350435	-0.5354964894	 2.3476065922	 0.121589
H	 2.7640171546	 0.3432864433	 0.7481602923	 0.128051
H	-0.3521004811	 0.1458451908	 2.9891003774	 0.12775
H	-1.0049620529	-1.3320316489	 2.2641576957	 0.123253
H	 0.4756065094	-1.3944978148	 3.2321502211	 0.12042
92.0387	195.7773	207.1088	210.7879	233.6757	269.5547	304.5524	444.7042	473.8561	502.8076	562.7718	667.4813	704.5878	727.6611	804.9637	859.3753	894.216	919.7843	966.966	1022.3309	1037.5091	1048.0763	1078.5835	1097.6425	1113.4014	1131.8747	1137.8024	1177.354	1230.7076	1302.6739	1322.5705	1346.7707	1406.2026	1407.2242	1421.8708	1483.1521	1488.5589	1496.8062	1497.9544	1502.4109	1880.3471	3013.162	3025.5655	3045.3555	3087.4721	3100.0562	3115.1506	3128.2797	3129.0748	3193.3639	3218.3125
CC1C(=O)OC2CC12C	C[C@H]1C(=O)O[C@H]2C[C@@]12C	
InChI=1S/C7H10O2/c1-4-6(8)9-5-3-7(4,5)2/h4-5H,3H2,1-2H3	InChI=1S/C7H10O2/c1-4-6(8)9-5-3-7(4,5)2/h4-5H,3H2,1-2H3/t4-,5-,7-/m0/s1
