17
gdb 97171	2.99246	1.45303	1.00034	4.2642	81.74	-0.2211	-0.07	0.1511	1162.5359	0.136732	-418.033529	-418.025086	-418.024141	-418.067013	30.954	
C	 0.0952581089	 1.448435403	-0.2689362222	-0.299555
N	-0.0049854045	 0.0200402196	-0.0341411969	-0.309907
C	-1.1139307422	-0.5827363382	 0.1369445295	 0.257509
N	-1.0967704876	-1.9710221101	 0.225275021	-0.338259
C	-2.0708774556	-2.7580170148	 0.9462663965	-0.207214
C	-3.3978277079	-2.086119654	 1.0393383157	-0.053402
C	-3.5979222247	-0.817806918	 0.6700801898	-0.135824
C	-2.4997894592	 0.038803829	 0.1875609859	 0.321952
O	-2.6894096946	 1.1984545871	-0.1258417707	-0.329898
H	 1.1547919275	 1.721222505	-0.2458217607	 0.105055
H	-0.3094223444	 1.732220707	-1.2476760924	 0.127201
H	-0.4396051844	 2.0497236639	 0.4747625378	 0.12479
H	-0.1506468403	-2.3285119461	 0.2225559983	 0.241851
H	-2.1977258206	-3.7288500572	 0.4449028043	 0.131464
H	-1.737867147	-3.0013674646	 1.9733573376	 0.126911
H	-4.2109875908	-2.686878976	 1.4373953899	 0.120151
H	-4.5698936926	-0.3398135357	 0.7368306866	 0.117175
55.4688	114.7813	149.1596	238.0062	261.2957	312.4991	403.6176	411.3683	449.2618	523.379	590.5846	649.8251	676.7857	707.0457	861.7667	874.8171	919.9146	1000.6158	1033.202	1042.1811	1090.9768	1106.1992	1145.8153	1168.0066	1226.2235	1235.6102	1349.4964	1393.5817	1405.501	1438.9185	1473.8482	1481.436	1498.5956	1504.7688	1696.8677	1708.4394	1768.9967	2921.8763	3003.4543	3015.912	3073.1432	3088.4567	3169.637	3195.142	3581.7388
CN=C1NCC=CC1=O	CN=C1NCC=CC1=O	
InChI=1S/C6H8N2O/c1-7-6-5(9)3-2-4-8-6/h2-3H,4H2,1H3,(H,7,8)	InChI=1S/C6H8N2O/c1-7-6-5(9)3-2-4-8-6/h2-3H,4H2,1H3,(H,7,8)
