21
gdb 74517	3.67627	1.11808	1.00427	1.5836	86.84	-0.2204	0.0236	0.244	1291.0637	0.182408	-387.096617	-387.087924	-387.08698	-387.130014	33.362	
C	 0.058644324	 1.5334357733	-0.0412108001	-0.492654
C	 0.021289452	 0.0402425349	-0.0202749882	 0.287423
C	-1.0040378555	-0.7765003876	 0.2085259875	-0.264939
C	-0.5758038463	-2.2106905551	 0.1282530545	 0.427127
C	-0.9755795079	-3.11988314	 1.3321587022	-0.269659
C	-2.1500070253	-3.6719840358	 0.4813279143	-0.216101
C	-1.4340946943	-3.1381409397	-0.7877227337	-0.269659
O	 0.8139080531	-2.1507549677	-0.1728492354	-0.318211
C	 1.2461564266	-0.8004102845	-0.277962739	-0.173891
H	 0.7653506521	 1.9235623316	 0.7022398861	 0.129374
H	 0.3935992769	 1.908763552	-1.0165495288	 0.129374
H	-0.9245647837	 1.9624206073	 0.16775086	 0.12812
H	-2.0235179533	-0.480936091	 0.4264850332	 0.098976
H	-0.1982639746	-3.8723852455	 1.4889311445	 0.110673
H	-1.2007907627	-2.6320422294	 2.2839913219	 0.092197
H	-2.3428178077	-4.7451833195	 0.5322745672	 0.099484
H	-3.087132009	-3.1442433566	 0.6794761724	 0.099501
H	-2.0342327653	-2.6652296212	-1.5693130317	 0.092197
H	-0.7883573056	-3.895882426	-1.2392839327	 0.110673
H	 1.6729289872	-0.6166361614	-1.2776209888	 0.099998
H	 2.0472062689	-0.6017393982	 0.4528407629	 0.099998
82.0961	118.2416	152.6987	171.9468	269.4462	296.2414	380.8609	389.406	458.366	511.7128	605.4489	688.7323	782.2951	818.5122	847.668	879.3955	903.9187	921.4283	928.9837	964.1021	996.3978	1013.3839	1022.8922	1040.5213	1059.5921	1093.3287	1106.1245	1190.4662	1194.6453	1201.8438	1223.1222	1240.5845	1261.496	1268.6854	1291.0397	1345.5694	1385.9191	1414.0596	1466.8801	1479.2278	1484.0627	1490.2457	1504.5646	1518.3495	1732.1498	2964.7205	2980.1096	3018.8648	3055.86	3057.9811	3064.1735	3064.6898	3104.1395	3115.2126	3115.3109	3125.8702	3204.2984
CC1=CC2(CCC2)OC1	CC1=CC2(CCC2)OC1	
InChI=1S/C8H12O/c1-7-5-8(9-6-7)3-2-4-8/h5H,2-4,6H2,1H3	InChI=1S/C8H12O/c1-7-5-8(9-6-7)3-2-4-8/h5H,2-4,6H2,1H3
