20
gdb 104080	2.34136	1.47957	1.21319	4.5429	81.6	-0.2138	-0.0238	0.19	1140.0328	0.170456	-403.19553	-403.186217	-403.185273	-403.229259	35.179	
C	-0.0499160231	 1.558157707	 0.1231920855	-0.407256
C	 0.0591463278	 0.0387941623	-0.0391965053	-0.185367
C	 0.7260387619	-0.454652578	-1.3409817621	 0.140096
C	 0.0092207045	 0.0164447386	-2.6094733949	-0.417757
N	 2.1607795599	-0.1338436389	-1.377363676	-0.307804
C	 2.8874450628	-1.2751785256	-1.2099580911	 0.009373
C	 2.1371905075	-2.409949683	-1.2106429788	-0.283341
C	 0.7434090005	-2.0162397456	-1.3067722524	 0.386213
O	-0.2698162642	-2.6872450546	-1.3541427975	-0.384793
H	 0.9305384158	 2.0492906035	 0.1002086856	 0.101386
H	-0.6676518658	 2.0120443909	-0.6567951141	 0.127889
H	-0.505575517	 1.8031233363	 1.0873288581	 0.123919
H	 0.6170229407	-0.3811973799	 0.8067720121	 0.103514
H	-0.9363875887	-0.4172891669	-0.0071876657	 0.127657
H	-0.040654976	 1.1071337878	-2.6733248229	 0.109479
H	 0.5301893475	-0.3514846165	-3.4975420462	 0.125657
H	-1.0059251945	-0.3899715445	-2.6149021723	 0.141761
H	 2.5030158785	 0.7513957484	-1.0404462262	 0.248601
H	 3.9650824826	-1.2011051302	-1.1178167677	 0.130934
H	 2.5009703692	-3.4239668911	-1.1616447783	 0.109839
85.0129	115.2586	169.4946	215.6282	228.451	280.7588	293.164	328.5129	344.9951	418.2578	529.3596	563.0141	602.139	703.3165	737.911	781.7347	801.6806	807.4683	897.4917	929.0446	964.2528	1010.9411	1021.775	1064.4635	1093.6711	1118.7731	1158.1335	1188.4806	1209.1728	1239.306	1317.6385	1356.1603	1375.395	1400.0682	1414.2791	1454.5199	1479.1895	1487.6328	1496.369	1500.4092	1509.8576	1604.9752	1784.83	3029.0128	3032.1018	3044.4822	3074.1041	3095.8242	3111.9614	3118.6222	3127.1953	3204.4471	3263.5885	3637.4168
CCC1(C)NC=CC1=O	CC[C@@]1(C)NC=CC1=O	
InChI=1S/C7H11NO/c1-3-7(2)6(9)4-5-8-7/h4-5,8H,3H2,1-2H3	InChI=1S/C7H11NO/c1-3-7(2)6(9)4-5-8-7/h4-5,8H,3H2,1-2H3/t7-/m1/s1
