21
gdb 72540	2.55011	1.66611	1.64531	1.1054	76.97	-0.2387	0.0758	0.3145	988.7768	0.184738	-424.243558	-424.235635	-424.234691	-424.275678	31.749	
C	 0.0014896101	 1.521982839	 0.0634011409	-0.450369
C	 0.0022648504	 0.0054697104	-0.0348344997	 0.335649
C	 0.7076180784	-0.5180855361	-1.3004390276	-0.224429
C	 0.7042426423	-2.0709333688	-1.2536036016	-0.222902
C	-0.0421474795	-2.4895733302	 0.0187404751	 0.079801
C	 0.650041565	-1.8983962126	 1.245248514	-0.075087
O	 0.7196731329	-0.4753139723	 1.1153474493	-0.309314
O	-1.3826141847	-2.0016652025	-0.0381010092	-0.284267
C	-1.4198090847	-0.5720081195	 0.0173352246	-0.081662
H	 1.0293363651	 1.8942849177	 0.0926569071	 0.125784
H	-0.5055493705	 1.968107711	-0.7973084973	 0.114505
H	-0.503966139	 1.8476828187	 0.9770568249	 0.122914
H	 0.1943189383	-0.1457379159	-2.1930512822	 0.098254
H	 1.7263283995	-0.1205226532	-1.3207831749	 0.102321
H	 0.193744647	-2.4965375123	-2.1214253567	 0.105551
H	 1.7221251869	-2.4741847036	-1.2414193772	 0.099299
H	-0.1188847285	-3.5764106523	 0.1078868021	 0.076865
H	 0.0867864151	-2.1561503976	 2.1525568677	 0.099907
H	 1.6690978788	-2.2954195378	 1.3494261946	 0.095597
H	-1.9082464703	-0.2561480499	 0.9496485047	 0.09684
H	-2.0193029728	-0.2042414322	-0.8262918886	 0.094741
80.2258	198.3633	252.3337	263.1003	324.6847	344.1029	395.5936	434.0341	528.8331	553.6981	565.9079	734.8312	811.4304	829.3461	864.1738	886.3429	925.3206	937.1425	951.8331	962.0514	1024.2596	1054.7577	1065.4554	1094.5325	1121.3421	1153.4726	1192.6586	1205.4462	1232.9096	1259.0488	1272.0638	1289.6897	1297.6767	1343.7477	1358.4658	1367.9782	1399.6269	1409.1727	1414.7272	1473.2016	1483.8334	1494.5107	1496.8783	1512.4164	1520.0017	2996.5379	2999.9947	3033.495	3036.6076	3040.2283	3044.3646	3052.9673	3080.3494	3083.7353	3103.9261	3117.6494	3119.4164
CC12CCC(CO1)OC2	C[C@@]12CC[C@@H](CO1)OC2	
InChI=1S/C7H12O2/c1-7-3-2-6(4-9-7)8-5-7/h6H,2-5H2,1H3	InChI=1S/C7H12O2/c1-7-3-2-6(4-9-7)8-5-7/h6H,2-5H2,1H3/t6-,7-/m0/s1
