14
gdb 97526	3.95408	0.63122	0.54618	3.0326	74.56	-0.2807	-0.0584	0.2223	1904.3757	0.09806	-473.802547	-473.79279	-473.791846	-473.839296	31.829	
O	-0.0782927758	 1.4956330154	 0.0111032074	-0.400709
C	-0.0570995283	 0.079749994	 0.0030683772	-0.224035
C	-1.418531204	-0.4350649541	 0.0134417321	 0.281823
C	-2.5333899445	-0.8910192947	 0.0216445541	-0.07215
C	-3.8298679149	-1.5079834316	 0.0307064568	 0.279532
O	-4.029186833	-2.6946317628	 0.0262758301	-0.337846
O	-4.8091871048	-0.5503322928	 0.0452513563	-0.1864
C	-6.1182803126	-0.9746872562	 0.0555565442	 0.12523
N	-7.0157967356	-0.095012422	 0.068715761	-0.42357
H	 0.834999261	 1.8001811965	 0.0070399466	 0.298087
H	 0.4536500775	-0.3197425118	-0.8886558158	 0.135652
H	 0.4708487229	-0.3295664835	 0.8801734861	 0.135656
H	-6.2142981104	-2.0599757731	 0.0507808838	 0.14753
H	-7.9330325775	-0.5392511235	 0.0751519801	 0.2412
39.0157	61.495	85.3261	105.8344	174.0126	188.0134	222.2133	280.6399	389.7891	391.5227	502.3908	603.4348	623.2368	766.7205	851.8853	863.5414	975.8701	1011.9561	1055.3781	1071.2662	1101.3611	1228.8523	1246.2474	1259.1531	1271.6288	1390.1075	1457.701	1489.2341	1746.036	1803.2849	2356.9376	2966.8695	2987.1062	3145.4905	3507.1969	3822.4859
OCC#CC(=O)OC=N	OCC#CC(=O)O[CH][NH]	
InChI=1S/C5H5NO3/c6-4-9-5(8)2-1-3-7/h4,6-7H,3H2	InChI=1S/C5H5NO3/c6-4-9-5(8)2-1-3-7/h4,6-7H,3H2
