23
gdb 64271	2.714	1.43481	1.27949	1.3206	84.69	-0.2335	0.0775	0.311	1141.0338	0.20604	-388.294477	-388.28559	-388.284646	-388.327231	35.89	
C	-0.0111310143	 1.5280213154	 0.0444595166	-0.41116
C	-0.0352008093	 0.0018941055	-0.0437102845	 0.36417
C	-1.4744011064	-0.5160981323	 0.1053760564	-0.416119
C	 0.6328024217	-0.4720724312	-1.3480369478	-0.222441
C	 0.740088067	-2.0036785861	-1.4286314381	-0.247515
C	 1.1527247595	-2.6254392607	-0.1056829059	-0.03229
C	 2.419398227	-2.2293117704	 0.6231572404	-0.314187
C	 1.0757639981	-1.7915392165	 1.1487203424	 0.102887
O	 0.7681201563	-0.4288121391	 1.0722340993	-0.29497
H	 1.0146768943	 1.8984808259	-0.0350892838	 0.116376
H	-0.6069364019	 1.9725001105	-0.7586690967	 0.108217
H	-0.4191492936	 1.8586787823	 1.0038601851	 0.118359
H	-2.0996149906	-0.1764069862	-0.7269956713	 0.1092
H	-1.512128526	-1.6078114473	 0.1333986764	 0.119369
H	-1.9084721727	-0.1398970397	 1.0362981458	 0.117843
H	 0.0764258725	-0.0924409518	-2.2120850755	 0.093483
H	 1.6302034482	-0.0190151113	-1.3903876323	 0.099972
H	-0.235304443	-2.416725806	-1.7117376535	 0.101583
H	 1.4347760512	-2.2906344	-2.2270286651	 0.09861
H	 0.8638076357	-3.666676095	 0.007417895	 0.08349
H	 2.969341014	-3.0001516235	 1.1522153638	 0.105848
H	 3.0350324378	-1.4455428628	 0.1947272103	 0.114443
H	 0.6995552344	-2.2529173697	 2.0593290831	 0.084831
110.5984	169.1781	206.2044	239.1857	275.2753	304.4318	327.1129	382.1576	423.8085	462.4571	499.5759	513.3756	662.7741	718.8454	748.875	807.9757	835.8846	885.9326	914.6146	926.5594	943.052	958.7411	1001.5251	1005.3999	1037.3196	1052.2727	1075.2656	1111.1569	1127.4461	1170.9253	1182.7361	1201.7381	1240.1675	1248.8613	1276.1546	1279.9279	1365.6206	1367.8855	1387.1626	1394.2485	1411.0511	1413.4884	1472.1374	1478.8918	1480.6469	1490.2676	1493.0128	1501.5011	1513.7439	3025.0917	3033.082	3037.6956	3044.1404	3054.7598	3077.7235	3107.3436	3116.5424	3117.2243	3118.1004	3122.8179	3129.7924	3141.0261	3218.5778
CC1(C)CCC2CC2O1	CC1(C)CC[C@H]2C[C@H]2O1	
InChI=1S/C8H14O/c1-8(2)4-3-6-5-7(6)9-8/h6-7H,3-5H2,1-2H3	InChI=1S/C8H14O/c1-8(2)4-3-6-5-7(6)9-8/h6-7H,3-5H2,1-2H3/t6-,7+/m0/s1
