17
gdb 54459	3.55407	1.35635	1.13047	2.1564	73.11	-0.2392	-0.0296	0.2097	1094.9989	0.133677	-421.769178	-421.761057	-421.760113	-421.80214	30.79	
C	 0.975558771	 0.0869627091	 0.5853645163	-0.485159
C	-0.2756146353	 0.5124102867	-0.1524378919	 0.27944
O	-0.311470012	 1.4532063949	-0.9179379739	-0.309604
C	-1.5039487842	-0.2807698902	 0.0865561457	 0.3149
O	-1.5977247519	-1.1614271152	 1.2241904393	-0.273422
C	-1.7531631932	-1.7314525948	-0.0677087342	-0.049496
C	-3.18137689	-1.4576179662	-0.618726631	-0.088903
C	-3.9947866752	-0.6388723246	 0.3501789225	-0.290782
C	-2.9268296776	 0.0374772929	-0.4602820932	-0.129803
H	 1.8232456403	 0.6672931385	 0.2198068618	 0.14059
H	 0.845039356	 0.2544575869	 1.6597544707	 0.155168
H	 1.1666129696	-0.9832461536	 0.4587436029	 0.138886
H	-1.0794381074	-2.5314645605	-0.3522539896	 0.118319
H	-3.6013628097	-1.9839986584	-1.4643781745	 0.101897
H	-5.0075553823	-0.4340553944	 0.0186746422	 0.119836
H	-3.8768203353	-0.7739741516	 1.4179433483	 0.137933
H	-3.0987326729	 0.8326667705	-1.1703383216	 0.1202
78.2106	111.4389	152.9962	167.0078	325.8624	403.4505	420.0935	492.7862	577.1222	604.1686	630.4629	733.6772	760.5169	813.5342	839.6076	872.6955	899.217	931.2893	954.8684	993.1756	1007.9234	1043.9815	1052.4259	1060.3207	1083.9028	1104.4776	1171.6636	1218.096	1260.9682	1302.0126	1306.4369	1383.1528	1421.8153	1457.1716	1468.0847	1471.0698	1783.2342	3045.6762	3107.4339	3142.6414	3156.5707	3185.756	3213.296	3230.1306	3236.8201
CC(=O)C12OC1C1CC21	CC(=O)[C@]12O[C@H]1[C@H]1C[C@@H]21	
InChI=1S/C7H8O2/c1-3(8)7-5-2-4(5)6(7)9-7/h4-6H,2H2,1H3	InChI=1S/C7H8O2/c1-3(8)7-5-2-4(5)6(7)9-7/h4-6H,2H2,1H3/t4-,5+,6-,7+/m0/s1
