18
gdb 13428	3.61114	1.35577	1.17014	4.7296	72.53	-0.2392	0.0297	0.2689	1074.5636	0.152587	-343.967029	-343.958091	-343.957147	-344.000879	31.829	
C	-0.1277595856	 1.510173142	 0.628326121	-0.417739
C	 0.0621894225	 0.0597966322	 0.2382913088	-0.004219
C	 0.4141128238	-0.3884219038	-1.1467457791	 0.004669
C	 0.6225320509	 0.5577164812	-2.3095895141	-0.426195
N	 1.3738745888	-0.5458553215	-0.0422352824	-0.109056
C	 2.5714441089	 0.2816772401	 0.0069825788	-0.288103
C	 3.6491322482	-0.3372946944	-0.7750980629	 0.285525
N	 4.4985463671	-0.8047616054	-1.4027821302	-0.306291
H	 0.1647481651	 1.672824278	 1.6715612708	 0.128896
H	 0.4344910598	 2.2116311649	 0.0092024562	 0.121388
H	-1.1866661104	 1.7752647346	 0.5419916594	 0.131142
H	-0.5668044316	-0.6115049497	 0.8225494249	 0.097552
H	 0.0132371397	-1.351131905	-1.4616146262	 0.099289
H	 0.9256870125	 1.5634976891	-2.0123592316	 0.11883
H	 1.3833276447	 0.1651284395	-2.992325467	 0.146631
H	-0.3109299502	 0.6523414963	-2.8737843394	 0.129821
H	 2.4581533101	 1.3148583778	-0.3522347259	 0.131957
H	 2.9005332657	 0.3464701642	 1.050812759	 0.155904
47.0212	119.5784	151.8791	172.5757	228.0921	237.7774	294.1051	384.733	419.4186	501.0215	503.2636	565.5374	733.625	776.739	842.3621	936.6143	959.1609	1007.1674	1034.5686	1045.7234	1058.1782	1127.8848	1165.3021	1175.818	1200.3421	1262.3729	1346.4014	1366.6256	1384.5242	1416.0265	1421.7811	1439.325	1475.0942	1490.1358	1493.7562	1503.0816	1513.2242	2366.4777	2999.4562	3039.6496	3044.4269	3057.8587	3095.8679	3097.3029	3102.638	3108.9035	3126.8499	3137.6545
CC1C(C)N1CC#N	C[C@H]1[C@@H](C)N1CC#N	
InChI=1S/C6H10N2/c1-5-6(2)8(5)4-3-7/h5-6H,4H2,1-2H3	InChI=1S/C6H10N2/c1-5-6(2)8(5)4-3-7/h5-6H,4H2,1-2H3/t5-,6+,8?
