17
gdb 52956	4.41437	0.82228	0.77205	3.5614	86.18	-0.2374	-0.0163	0.2211	1509.1329	0.134163	-384.662735	-384.653773	-384.652829	-384.698224	32.209	
C	-0.0403088022	 1.4707269766	 0.0169099311	-0.50875
C	-0.021259092	 0.0160967484	 0.0008573892	 0.261921
C	-0.0090151409	-1.1894887404	-0.0139266081	-0.211807
C	 0.0327750802	-2.6108431902	-0.0132207451	 0.199675
C	-0.3450579275	-3.4659236832	-1.180362861	-0.318703
C	-1.1828131035	-3.6116081173	 0.0777116036	-0.219932
C	-0.4140928705	-4.3833632245	 1.1043164501	 0.433711
O	-0.7112165314	-5.2561031641	 1.869502749	-0.318517
C	 0.8375925004	-3.4756929657	 0.983949373	-0.416417
H	 0.7646424283	 1.8678801734	 0.6451132156	 0.152834
H	 0.0906332814	 1.8833963023	-0.9895674424	 0.150691
H	-0.9877196164	 1.8532542419	 0.4129829798	 0.151599
H	-0.856963731	-2.9587135589	-1.9907636854	 0.137478
H	 0.3121326965	-4.271708131	-1.4966118376	 0.1242
H	-2.2469134791	-3.4112096937	 0.0739403172	 0.119615
H	 1.7651818205	-3.9173421392	 0.6088282109	 0.120666
H	 1.0303496871	-2.9774825146	 1.93744475	 0.141735
18.7446	69.3289	98.7881	165.0749	291.5363	308.9188	365.1801	440.1039	453.0686	517.2827	541.1786	559.1119	646.4725	749.1608	808.619	895.8775	926.5938	955.4394	978.8496	1037.0826	1050.4114	1052.8497	1063.9471	1091.3864	1114.4495	1122.5968	1208.4644	1223.5013	1256.1224	1398.8127	1417.8184	1455.8103	1475.7225	1477.6082	1495.6009	1882.8941	2364.2433	3025.8316	3059.8239	3085.9063	3088.6772	3116.576	3120.5073	3200.506	3214.4571
CC#CC12CC1C(=O)C2	CC#C[C@]12C[C@H]1C(=O)C2	
InChI=1S/C8H8O/c1-2-3-8-4-6(8)7(9)5-8/h6H,4-5H2,1H3	InChI=1S/C8H8O/c1-2-3-8-4-6(8)7(9)5-8/h6H,4-5H2,1H3/t6-,8+/m0/s1
