18
gdb 48435	2.81953	0.95253	0.78315	5.6157	77.77	-0.2667	-0.034	0.2328	1442.5369	0.146377	-401.969669	-401.960439	-401.959495	-402.004365	33.153	
O	-0.7472286792	 0.7381209992	 0.5436506279	-0.269897
C	 0.0353266097	 1.1061516766	-0.2994122526	 0.117
C	 1.2363484137	 1.9365467628	-0.0361902259	 0.256559
C	 1.4712562073	 2.3643667444	 1.3993268199	-0.287997
C	 1.7924158021	 1.172447033	 2.3294621203	-0.344169
C	 2.1202814043	 1.6054088257	 3.6849275974	 0.257841
N	 2.3834167231	 1.9683949099	 4.7500919397	-0.306805
C	 2.4292321787	 1.6641962432	-0.9525402851	-0.30058
C	 1.6099869487	 2.8885006371	-1.1706390649	-0.317628
H	-0.1065927033	 0.8351042692	-1.3717803161	 0.074918
H	 2.2951729692	 3.0838478871	 1.4355366519	 0.117975
H	 0.5803694669	 2.8750893712	 1.7775961774	 0.139143
H	 0.9313970644	 0.4995751976	 2.3669798436	 0.181337
H	 2.6389456841	 0.5990756375	 1.9342730275	 0.145764
H	 3.4102870366	 1.7682932608	-0.5026032142	 0.135186
H	 2.3468989411	 0.8512354716	-1.6660901907	 0.131648
H	 0.9544331018	 2.9252191208	-2.0342914234	 0.132148
H	 2.0145443807	 3.8491527822	-0.8731496825	 0.137556
60.9652	106.6148	124.6083	142.3148	194.0587	276.7571	319.9247	332.4788	401.391	453.8683	514.8633	561.0871	748.1944	786.0766	816.0897	846.3511	919.5986	928.4313	971.0051	978.1891	1038.8005	1047.0863	1055.1173	1074.8158	1093.3619	1194.0865	1197.3156	1274.5149	1299.1289	1325.0463	1360.8667	1385.6371	1439.7621	1465.8731	1473.4936	1484.1017	1497.3669	1808.7686	2362.3188	2860.1277	3047.1196	3056.4141	3093.1736	3113.371	3135.6764	3138.4574	3216.596	3230.6376
O=CC1(CCC#N)CC1	O=CC1(CCC#N)CC1	
InChI=1S/C7H9NO/c8-5-1-2-7(6-9)3-4-7/h6H,1-4H2	InChI=1S/C7H9NO/c8-5-1-2-7(6-9)3-4-7/h6H,1-4H2
