19
gdb 85560	2.77312	1.34416	1.0305	4.5381	78.26	-0.2494	0.0076	0.2571	1202.7134	0.158463	-423.083674	-423.074638	-423.073694	-423.117986	33.325	
C	 0.4073622688	 1.4008699812	-0.2934329952	-0.39372
C	-0.0515380548	 0.0085157001	 0.1542970699	 0.051129
O	-0.001235609	-0.8751791173	-0.9854297883	-0.238543
C	 1.0052690071	-1.7470642818	-1.2144973562	 0.409636
O	 1.0186792224	-2.3728581685	-2.2395446338	-0.32932
C	 2.0713594252	-1.9047430542	-0.1413526142	-0.409573
C	 1.6770352105	-1.3844409266	 1.2075438198	-0.168234
C	 0.6966180729	-0.4989580692	 1.3623551838	 0.292254
C	 0.2719329083	 0.0516702597	 2.6951871373	-0.484074
H	 1.4729274712	 1.3929704895	-0.5418069926	 0.126223
H	-0.1570905993	 1.712139066	-1.175993135	 0.137223
H	 0.2447655922	 2.1361253584	 0.4999228371	 0.123644
H	-1.1212333199	 0.0553351172	 0.3934085826	 0.102376
H	 2.3269902554	-2.9683314606	-0.1120860205	 0.146861
H	 2.9773268142	-1.4023421761	-0.5113487026	 0.147087
H	 2.2271237656	-1.7537642536	 2.0692873232	 0.094412
H	 0.8771613504	-0.3661259448	 3.5034261446	 0.129781
H	 0.3672029973	 1.1436266048	 2.7341915059	 0.13085
H	-0.7806259186	-0.1789107041	 2.9022609942	 0.131987
41.8091	86.5349	165.9495	223.5092	243.8804	262.9133	310.9807	390.0934	434.3325	466.4685	553.4293	584.1873	596.3857	725.8648	750.1923	821.0696	859.9107	945.9087	981.6266	988.5551	1046.6951	1069.7565	1087.7561	1113.5181	1121.0365	1181.7227	1204.3445	1223.0369	1333.794	1344.401	1375.7076	1401.7405	1411.5897	1417.3378	1454.6434	1478.5196	1488.8878	1492.189	1493.8699	1759.2112	1842.5213	3009.7317	3020.5165	3030.9355	3044.3322	3069.3825	3081.5473	3117.3489	3120.5044	3128.1144	3158.8417
CC1OC(=O)CC=C1C	C[C@H]1OC(=O)CC=C1C	
InChI=1S/C7H10O2/c1-5-3-4-7(8)9-6(5)2/h3,6H,4H2,1-2H3	InChI=1S/C7H10O2/c1-5-3-4-7(8)9-6(5)2/h3,6H,4H2,1-2H3/t6-/m1/s1
