18
gdb 95988	2.3816	1.57154	1.22898	4.0553	67.97	-0.2411	0.0155	0.2566	1073.9167	0.147234	-476.252806	-476.243551	-476.242607	-476.287479	33.029	
C	 0.003001852	 1.5772391828	-0.3467384684	-0.41475
C	 0.0316415491	 0.078464377	-0.1027839152	 0.121875
O	 0.9010324646	-0.537061668	-1.0432190312	-0.263335
C	 1.4653241232	-1.6862853888	-0.4498603599	 0.030215
O	 1.0743069182	-1.7115909564	 0.914456826	-0.251604
C	 0.6017211727	-0.4234736121	 1.2473476048	-0.027913
C	 1.7455808504	 0.4533263435	 1.7813061352	 0.39402
N	 1.3943272814	 1.2986084504	 2.7954279659	-0.524803
O	 2.8594145662	 0.4234005958	 1.2989208465	-0.357733
H	 1.0088877837	 1.996703959	-0.2725259283	 0.148769
H	-0.3831310178	 1.7800125556	-1.3489044512	 0.131454
H	-0.6483127791	 2.0759218206	 0.3776968196	 0.111167
H	-0.9844527252	-0.3367028389	-0.2029445377	 0.074879
H	 1.0850363339	-2.6056259849	-0.9178834947	 0.097681
H	 2.5555138531	-1.6235366767	-0.5435784354	 0.12314
H	-0.1872423858	-0.5393843189	 1.998411988	 0.082956
H	 0.5325455875	 1.1919710635	 3.3016149845	 0.260163
H	 2.1207715118	 1.8608773464	 3.2101432815	 0.263819
47.6433	89.234	117.9581	166.0565	239.271	252.7126	281.3521	327.9379	384.1714	461.8612	572.3164	577.5104	702.2655	727.4589	777.7554	864.8271	879.5506	930.6488	979.7949	1055.7391	1062.6055	1104.7178	1130.0406	1145.778	1152.1067	1174.7089	1215.4688	1262.4667	1300.5281	1339.5989	1375.6018	1407.688	1426.3445	1438.5101	1480.6408	1505.9128	1544.0907	1618.2307	1804.0412	2964.3507	2997.8186	3048.0613	3052.2429	3060.3366	3120.15	3137.6113	3594.0012	3728.4822
CC1OCOC1C(N)=O	C[C@H]1OCO[C@H]1C(=O)N	
InChI=1S/C5H9NO3/c1-3-4(5(6)7)9-2-8-3/h3-4H,2H2,1H3,(H2,6,7)	InChI=1S/C5H9NO3/c1-3-4(5(6)7)9-2-8-3/h3-4H,2H2,1H3,(H2,6,7)/t3-,4-/m1/s1
