18
gdb 40304	4.92516	0.65019	0.64249	1.4873	84.28	-0.2409	0.0175	0.2583	1794.0477	0.147864	-401.861697	-401.852796	-401.851852	-401.897615	31.202	
C	-0.1462565559	 1.1573015118	-0.5788426117	-0.21922
N	 0.9362425146	 1.4123853285	 0.3729979154	-0.29544
C	 0.5042744867	 0.012094187	 0.1288942427	-0.229089
C	-0.1464242574	-0.6798417072	 1.2051347709	 0.13742
C	-0.7007966635	-1.282446449	 2.089951149	 0.111183
C	-1.3571808373	-1.9902886293	 3.172846028	-0.035313
C	-1.4285804718	-1.2855407068	 4.5570898149	-0.28417
C	-2.9522037964	-1.443099652	 4.4000050433	-0.058927
O	-2.808233365	-2.0036119649	 3.0772896205	-0.279617
H	-1.1274584663	 1.4845883811	-0.2505518359	 0.13472
H	 0.0425891379	 1.259565968	-1.6443516554	 0.118016
H	 1.8068733896	 1.5781294754	-0.1261499353	 0.236499
H	 1.1628424131	-0.6047475191	-0.4791404631	 0.11046
H	-0.9726911443	-3.0180008351	 3.2294036547	 0.100005
H	-0.9641689868	-1.8284064376	 5.3808351911	 0.114401
H	-1.0681347531	-0.2573230316	 4.5437776781	 0.128572
H	-3.4237506818	-2.1515121416	 5.0926884884	 0.101292
H	-3.5363812224	-0.5159554576	 4.3882312244	 0.109208
30.7571	52.904	87.4988	101.56	212.2354	247.7532	373.0927	470.528	553.8698	573.4596	683.5525	780.7424	816.865	836.8759	875.5189	905.9589	937.4823	945.9427	975.9307	1006.4431	1027.0644	1086.6961	1097.6743	1123.0726	1152.0668	1163.9795	1214.6796	1217.0562	1242.7577	1257.0646	1261.3276	1290.3682	1352.1265	1368.7315	1424.881	1487.9421	1507.1933	1531.6896	2356.9713	3002.9092	3018.3062	3060.4657	3092.0048	3113.5656	3125.0421	3152.8489	3207.475	3499.9767
C1NC1C#CC1CCO1	C1N[C@H]1C#C[C@H]1CCO1	
InChI=1S/C7H9NO/c1(6-5-8-6)2-7-3-4-9-7/h6-8H,3-5H2	InChI=1S/C7H9NO/c1(6-5-8-6)2-7-3-4-9-7/h6-8H,3-5H2/t6-,7-/m0/s1
