15
gdb 27793	2.10738	1.81599	0.98136	7.0539	73.26	-0.2412	-0.0378	0.2033	1141.6088	0.112283	-454.031375	-454.022711	-454.021767	-454.065458	30.937	
C	 0.0666663739	 1.4906288188	 0.0024175232	-0.473648
C	-0.0619661385	 0.002478122	 0.0195546704	 0.424709
C	-1.2192713563	-0.6895269151	-0.0835028184	-0.322735
C	-1.1161496633	-2.12102574	-0.0438410014	 0.434253
N	-2.2349686673	-2.8697221435	-0.1473291373	-0.552211
N	 0.0255549203	-2.7623683876	 0.0853458246	-0.418891
C	 1.1871814974	-2.0720550461	 0.1873988712	 0.424788
O	 2.2938211726	-2.5076983507	 0.3075089976	-0.346246
O	 1.1081321119	-0.6209207848	 0.1503627941	-0.262555
H	 0.7148560692	 1.8002167812	-0.8237513015	 0.157963
H	-0.9078364153	 1.9696000914	-0.1054877053	 0.133752
H	 0.5383643543	 1.8356965591	 0.9281513426	 0.157849
H	-2.1681349992	-0.1824966614	-0.1909950921	 0.10012
H	-3.146939509	-2.4565983462	-0.2119155762	 0.267771
H	-2.1439895707	-3.8705681069	-0.0936238014	 0.275082
46.6903	109.9672	144.4735	177.6021	200.7242	283.5643	360.6435	499.5517	532.5374	551.3977	584.6251	589.222	647.9939	745.1353	762.7021	786.7235	798.1301	965.4169	1012.8532	1018.7753	1048.6294	1063.6291	1197.8569	1245.7661	1377.0399	1412.3515	1465.4407	1468.0818	1504.2188	1574.2026	1636.47	1698.892	1884.3588	3045.444	3105.9228	3143.5847	3221.3373	3617.3722	3757.1563
CC1=CC(N)=NC(=O)O1	Cc1cc(N)nc(=O)o1	
InChI=1S/C5H6N2O2/c1-3-2-4(6)7-5(8)9-3/h2H,1H3,(H2,6,7,8)	InChI=1S/C5H6N2O2/c1-3-2-4(6)7-5(8)9-3/h2H,1H3,(H2,6,7,8)
