21
gdb 79750	2.48326	1.71473	1.36972	2.2686	82.08	-0.2007	0.072	0.2726	1053.156	0.183266	-383.21787	-383.209437	-383.208493	-383.25027	33.496	
C	-0.3642278274	 1.452203597	-0.0806607982	-0.307312
N	 0.1022369341	 0.0767346329	 0.0213581943	-0.124707
C	 1.4117077533	-0.4539471888	-0.3117156202	-0.08135
C	 2.6816873616	 0.3754102291	-0.3204410225	-0.050147
N	 2.530324754	 1.8169533427	-0.0186632314	-0.334819
C	 2.927978794	 0.8849903484	 1.0543113794	-0.033389
C	 1.7929457847	 0.4088724747	 1.9615598859	-0.2969
C	 0.8778073305	-0.4948440389	 1.1048871585	 0.309019
C	 0.2952899464	-1.7210624923	 1.7728586894	-0.460809
H	-0.322932185	 1.7647828991	-1.1279387246	 0.118133
H	-1.4145430736	 1.4707575344	 0.23421588	 0.103324
H	 0.2026217298	 2.1825170763	 0.5012713739	 0.126851
H	 1.4032648724	-1.323929066	-0.9669866467	 0.077316
H	 3.4886684151	 0.0607310791	-0.9740928495	 0.080332
H	 3.3550051983	 2.3130282389	-0.348982893	 0.228979
H	 3.9282063265	 0.9781380886	 1.466625334	 0.084941
H	 2.2093853327	-0.1870025737	 2.7804163805	 0.101674
H	 1.2512121031	 1.2449390841	 2.417999433	 0.11198
H	-0.3720858709	-1.4415145895	 2.5973512859	 0.114698
H	-0.2889842753	-2.2982178088	 1.0522574736	 0.124656
H	 1.0821139156	-2.3623707672	 2.1865979178	 0.107529
131.5722	181.1182	190.2639	218.8288	263.0928	287.7575	350.0102	388.507	451.914	574.0031	621.7895	707.7698	714.5638	732.0565	796.0398	851.1	873.2147	887.0371	939.8586	945.3248	974.8463	1003.832	1056.7863	1072.1512	1105.8401	1131.0161	1145.1189	1145.4718	1165.8569	1190.1593	1215.0136	1227.3919	1246.7656	1318.3835	1328.0674	1366.7258	1403.2586	1420.9051	1425.7546	1459.7316	1474.0672	1487.2488	1490.6049	1494.2821	1497.9576	3021.6009	3023.5269	3043.771	3078.7747	3082.6484	3090.935	3108.4348	3114.2613	3121.5604	3149.5585	3165.6457	3490.8181
CN1C2C3NC3CC12C	CN1[C@H]2[C@H]3N[C@H]3C[C@@]12C	
InChI=1S/C7H12N2/c1-7-3-4-5(8-4)6(7)9(7)2/h4-6,8H,3H2,1-2H3	InChI=1S/C7H12N2/c1-7-3-4-5(8-4)6(7)9(7)2/h4-6,8H,3H2,1-2H3/t4-,5-,6-,7+,9?/m0/s1
