23
gdb 113820	4.04221	0.79903	0.72313	2.3895	88.28	-0.2185	0.0717	0.2902	1672.9675	0.205259	-384.412498	-384.402419	-384.401475	-384.448453	37.057	
C	-1.9315044089	-0.07896789	 3.0407461757	-0.378296
C	-1.3583510431	-1.3961778968	 2.5056127009	-0.180676
C	-2.3841056235	-2.1708462731	 1.7071775653	-0.005765
N	-2.5894530433	-1.7689942426	 0.3067375949	-0.345565
C	-2.0768503407	-3.1234382194	 0.6005297442	-0.047913
C	-0.6902027181	-3.4377232549	 0.1367996866	 0.025531
C	-0.1621064609	-4.8312215368	 0.2367871845	-0.26119
N	-0.4155716993	-4.2323289512	-1.0657304465	-0.086068
C	-1.5139803639	-4.7620632557	-1.8591874124	-0.310441
H	-1.1824503792	 0.4770340802	 3.6125106648	 0.11143
H	-2.2685256835	 0.5547694458	 2.2145933392	 0.129584
H	-2.7890467096	-0.2566357033	 3.6997844005	 0.108892
H	-0.4878912233	-1.1847800539	 1.8779301929	 0.108564
H	-1.0082014112	-2.0197132737	 3.338375871	 0.095982
H	-3.2808392202	-2.4156283345	 2.2793191046	 0.076168
H	-3.5729324425	-1.8047448696	 0.0541823315	 0.228829
H	-2.7822016423	-3.9460653709	 0.5029439064	 0.07944
H	 0.0082179869	-2.6133106125	 0.2530102515	 0.094582
H	 0.8778229496	-5.0202438927	 0.4915548468	 0.112739
H	-0.8581370503	-5.594013508	 0.5889012112	 0.099419
H	-2.3416696651	-5.1954224634	-1.2752789463	 0.094454
H	-1.9196944433	-3.9668027092	-2.4924781258	 0.127958
H	-1.1228671044	-5.5498429937	-2.5111914415	 0.122342
32.7222	70.7291	113.0913	159.4067	209.9777	235.4059	240.1357	286.6572	363.4793	418.0167	432.075	490.8498	591.9186	742.281	758.4878	807.3154	844.499	876.8615	912.6245	943.3503	958.9276	1004.2463	1031.9545	1038.1188	1071.9381	1096.7142	1113.6613	1128.923	1135.4484	1159.4872	1166.4605	1202.0065	1227.0222	1255.0028	1275.5944	1303.3737	1331.4326	1339.6278	1350.6278	1406.0902	1440.0844	1450.3322	1475.4323	1486.1297	1493.493	1498.7207	1505.8427	1507.899	1516.2343	2972.2685	3029.0223	3031.8421	3064.6607	3076.2565	3076.8332	3087.9251	3102.5337	3104.4155	3112.2516	3123.9035	3142.6129	3166.2681	3506.8271
CCC1NC1C1CN1C	CC[C@H]1N[C@H]1[C@H]1CN1C	
InChI=1S/C7H14N2/c1-3-5-7(8-5)6-4-9(6)2/h5-8H,3-4H2,1-2H3	InChI=1S/C7H14N2/c1-3-5-7(8-5)6-4-9(6)2/h5-8H,3-4H2,1-2H3/t5-,6-,7-,9?/m1/s1
