15
gdb 44767	2.71562	1.71198	1.25378	6.5386	70.01	-0.2634	-0.0023	0.2611	976.1495	0.114832	-416.829316	-416.822251	-416.821307	-416.860753	27.647	
O	-0.0220148427	 0.0280823627	 0.0546613838	-0.350559
C	-0.0040672429	 1.2243593543	-0.0262388469	 0.424366
N	-1.0628182076	 2.1216082939	-0.1105038787	-0.326275
C	-0.4122857294	 3.4425093493	 0.0276407564	-0.024077
C	 0.7124631936	 3.2980359568	-1.0284769647	-0.244055
C	 1.2044652519	 2.2109492564	-0.0063524912	 0.040136
C	 0.6768348546	 3.1949105985	 1.1128877012	-0.257198
C	 2.5326605369	 1.6560206364	-0.0113443282	 0.189714
N	 3.6106543044	 1.2396380313	-0.0152686015	-0.335772
H	-1.9309835519	 1.9028593666	 0.3563533332	 0.260649
H	-1.1063151575	 4.2786907027	 0.0470491809	 0.102234
H	 0.4268574144	 2.9600039365	-2.0250734494	 0.132991
H	 1.3886564375	 4.1526609172	-1.0689672604	 0.130509
H	 1.3530853536	 4.0363654546	 1.2725345217	 0.130811
H	 0.3645135653	 2.752538813	 2.0610263938	 0.126527
139.2921	149.5613	216.5366	393.6602	414.7078	480.8744	498.6635	528.575	544.5466	623.33	669.6718	743.9541	781.9975	847.1453	927.8743	931.6902	949.2149	983.4961	1005.0294	1061.8397	1082.5961	1152.8922	1167.386	1181.5992	1219.5766	1231.6638	1290.3394	1323.9656	1377.1283	1480.375	1516.5536	1881.8542	2362.8441	3075.4172	3087.0366	3146.1862	3158.7656	3159.3011	3618.3417
O=C1NC2CC1(C2)C#N	O=C1N[C@@H]2C[C@]1(C2)C#N	
InChI=1S/C6H6N2O/c7-3-6-1-4(2-6)8-5(6)9/h4H,1-2H2,(H,8,9)	InChI=1S/C6H6N2O/c7-3-6-1-4(2-6)8-5(6)9/h4H,1-2H2,(H,8,9)/t4-,6+
