19
gdb 91854	2.96103	1.27106	1.02339	1.8349	77.08	-0.2479	-0.0207	0.2272	1203.3376	0.15857	-423.035145	-423.026725	-423.02578	-423.068285	32.054	
C	 0.2052851795	 1.5956147957	 0.1277404999	-0.403951
C	 0.0931122045	 0.0868055321	 0.0266164712	 0.156054
C	 0.7007864963	-0.5525249488	-1.2404605144	-0.340957
C	 1.1872973231	-1.9091790708	-0.7505713633	 0.221934
C	 2.4906912075	-1.9456098346	 0.052142285	-0.357283
C	 1.2039556116	-1.7956213295	 0.7801375705	 0.067181
O	 0.8095592989	-0.5071302911	 1.1330290172	-0.273936
C	 0.7091175303	-3.1483071941	-1.3913171286	 0.07874
O	-0.0439078471	-3.1940095092	-2.3347574842	-0.269027
H	 1.2509151788	 1.9101461206	 0.0530607732	 0.120973
H	-0.3611092234	 2.0712057383	-0.6788641682	 0.122361
H	-0.1939835636	 1.949097427	 1.0822363495	 0.129827
H	-0.9633673914	-0.2133920552	 0.106161584	 0.081087
H	-0.0383120291	-0.6848069589	-2.0335507253	 0.135904
H	 1.5215668173	 0.0577051233	-1.6326127046	 0.103904
H	 3.0006226987	-2.902942113	 0.1122333722	 0.122905
H	 3.1359585007	-1.0776849769	-0.0249074782	 0.130223
H	 0.8257757284	-2.5912555187	 1.4162341434	 0.108074
H	 1.0991827392	-4.0821769661	-0.9225909692	 0.065988
81.0341	115.6581	197.6566	227.8668	250.3929	330.2602	347.3329	437.5262	458.9678	504.0121	584.1563	688.275	779.3563	809.724	835.969	874.8028	907.9398	940.2619	951.2084	1017.6043	1032.8734	1048.3615	1072.4018	1092.5558	1121.702	1153.1694	1160.8587	1208.1802	1262.6535	1284.3981	1332.7363	1346.4686	1384.5526	1399.0585	1413.7969	1435.953	1464.975	1483.8033	1492.4516	1499.3397	1805.9443	2853.9169	2980.2442	3041.1371	3047.1255	3114.2778	3118.2442	3121.2003	3123.4247	3146.9177	3221.4371
CC1CC2(CC2O1)C=O	C[C@H]1C[C@]2(C[C@H]2O1)C=O	
InChI=1S/C7H10O2/c1-5-2-7(4-8)3-6(7)9-5/h4-6H,2-3H2,1H3	InChI=1S/C7H10O2/c1-5-2-7(4-8)3-6(7)9-5/h4-6H,2-3H2,1H3/t5-,6+,7-/m0/s1
