14
gdb 129077	2.69573	1.74051	1.05764	3.1479	80.27	-0.2412	-0.0731	0.1681	1041.1508	0.103726	-428.990226	-428.982916	-428.981972	-429.023514	27.064	
N	-0.0117611446	 1.0396448522	 0.9869290084	-0.436214
C	-0.0138113928	 0.0626423133	 0.1609119348	 0.23985
C	 1.2160217539	-0.331689144	-0.5423610257	-0.041608
N	 1.5227373809	-1.2391919067	-1.4042138134	-0.199807
N	 0.6853016101	-2.1412760119	-1.9173095716	-0.104351
N	-0.609820921	-2.4185646139	-1.7638451076	-0.199672
C	-1.4270262427	-1.7937240226	-0.9877835412	-0.041722
C	-1.3179214945	-0.6596263732	-0.058086033	 0.239845
N	-2.3370503198	-0.249363981	 0.5976316807	-0.43624
H	 0.9251035987	 1.4481250365	 1.0510549482	 0.225514
H	 2.0732944495	 0.286330389	-0.2758433345	 0.118167
H	 1.1362425605	-2.7559885878	-2.5747777316	 0.292569
H	-2.43427558	-2.2072707508	-1.0356090547	 0.118166
H	-3.1589699883	-0.8146435591	 0.3661192012	 0.225504
20.923	91.7729	347.5203	366.2224	375.385	418.3226	466.4662	507.9394	527.5559	655.7116	690.3006	768.3776	792.766	862.9407	881.118	885.7815	961.1019	961.8928	1047.2528	1065.4636	1153.4696	1179.941	1340.8408	1387.6436	1421.8796	1440.4545	1504.6724	1629.6385	1657.4489	1662.9258	1688.755	3128.6931	3129.4483	3426.742	3428.4611	3654.4668
N=C1C=NNN=CC1=N	[NH]C1=C[N]N[N]C=C1[NH]	
InChI=1S/C4H5N5/c5-3-1-7-9-8-2-4(3)6/h1-2,5-6,9H	InChI=1S/C4H5N5/c5-3-1-7-9-8-2-4(3)6/h1-2,5-6,9H
