15
gdb 16737	5.63496	1.44021	1.25573	4.1804	69.77	-0.2482	-0.0589	0.1892	939.3636	0.120168	-362.656871	-362.650257	-362.649313	-362.68776	25.187	
O	-0.0492771242	-0.0051348365	 0.1435553941	-0.273366
C	 0.0157826416	 1.2038568668	 0.0869769294	 0.077209
C	 1.2667377444	 1.9568451088	 0.0010827989	 0.225873
C	 1.3456677583	 3.2988389737	-0.0442858609	-0.130687
C	 2.7630596122	 3.7434320528	-0.0607190942	-0.084371
N	 3.4921817686	 3.3124587994	 1.1723951957	-0.326152
C	 3.585040173	 2.4941180482	-0.0494578251	-0.049302
C	 2.6350020348	 1.3013643401	-0.0528057924	-0.308174
H	-0.9035044763	 1.8316529411	 0.0870226968	 0.06672
H	 0.4971251003	 3.9740105366	-0.040827507	 0.114935
H	 3.0663401311	 4.6606711152	-0.5522781055	 0.098411
H	 4.3391894833	 3.8738600356	 1.2486909241	 0.233463
H	 4.5360746838	 2.4349999748	-0.5672926392	 0.095621
H	 2.8000784157	 0.6398692482	 0.8033271526	 0.138934
H	 2.7434696935	 0.6904425852	-0.9563349672	 0.120886
105.3222	191.0533	221.1949	370.8064	409.0347	461.9414	539.201	693.2789	723.4952	806.4859	834.8115	851.2308	883.3499	921.3178	952.3232	959.7129	989.5365	1043.767	1080.6364	1132.8555	1159.2039	1181.4237	1192.0731	1261.6491	1276.9473	1346.777	1382.5011	1402.0856	1422.4916	1462.65	1663.5105	1781.808	2878.4001	3047.2357	3089.6767	3169.3475	3180.1326	3200.5792	3478.0109
O=CC1=CC2NC2C1	O=CC1=C[C@H]2N[C@H]2C1	
InChI=1S/C6H7NO/c8-3-4-1-5-6(2-4)7-5/h1,3,5-7H,2H2	InChI=1S/C6H7NO/c8-3-4-1-5-6(2-4)7-5/h1,3,5-7H,2H2/t5-,6+/m1/s1
