21
gdb 60188	2.87405	0.89707	0.78047	2.1195	85.95	-0.2353	0.0546	0.2898	1541.9587	0.179723	-387.046645	-387.036358	-387.035414	-387.082321	38.29	
C	 0.1975469874	 1.4711208862	-0.0274739855	-0.404755
C	 0.0638681361	-0.0469211766	 0.1004319745	 0.137594
O	 0.2420647465	-0.4654558362	 1.452035732	-0.430015
C	-1.3173860992	-0.5389636602	-0.3394862675	-0.203209
C	-1.4391069854	-2.0460598597	-0.3719071451	 0.000657
C	-1.7562053061	-2.82549256	 0.8666708047	-0.268113
C	-2.7997050626	-2.7308451559	-0.2378712695	-0.217738
C	-3.9998756273	-1.9710519208	-0.0462314886	 0.34091
C	-5.0151452304	-1.3417312201	 0.1027872351	-0.48024
H	 1.1849915966	 1.8052393032	 0.312113348	 0.101742
H	 0.0788917572	 1.7935499122	-1.0671170148	 0.115316
H	-0.5597923667	 1.9734936062	 0.5828687245	 0.12578
H	 0.8262450365	-0.5241581512	-0.5401664599	 0.059736
H	 1.104131609	-0.1563736819	 1.7472392148	 0.279545
H	-2.0686635483	-0.1186502323	 0.3381571245	 0.115721
H	-1.5294153692	-0.1323125111	-1.3360386099	 0.097128
H	-0.7738595703	-2.5329230483	-1.0815764057	 0.08384
H	-1.2799267229	-3.7870597523	 1.0218145041	 0.111675
H	-1.9428224119	-2.2606351181	 1.7715214027	 0.135443
H	-2.9300338293	-3.6239368113	-0.842470357	 0.107942
H	-5.9111995898	-0.7896677018	 0.2404098587	 0.19104
42.1305	83.9908	107.6361	180.6549	207.3504	247.9717	282.325	308.691	319.2691	391.6916	458.5166	481.7733	525.029	567.8356	609.6631	643.0708	769.2296	814.3536	846.3829	871.3537	884.3132	940.6781	968.355	993.5879	1060.2845	1068.2878	1080.9852	1118.0558	1134.4138	1142.6438	1171.1656	1226.7939	1245.0463	1303.905	1319.8274	1375.3172	1385.2271	1406.7122	1417.7648	1432.1769	1470.0307	1490.701	1494.3575	1499.6864	2231.9522	2943.9537	3025.7818	3033.5524	3079.1238	3092.397	3111.5066	3128.8333	3142.04	3147.3746	3237.7757	3505.983	3819.8386
CC(O)CC1CC1C#C	C[C@@H](O)C[C@H]1C[C@H]1C#C	
InChI=1S/C8H12O/c1-3-7-5-8(7)4-6(2)9/h1,6-9H,4-5H2,2H3	InChI=1S/C8H12O/c1-3-7-5-8(7)4-6(2)9/h1,6-9H,4-5H2,2H3/t6-,7-,8+/m1/s1
