20
gdb 22068	2.55798	1.17692	1.00116	1.367	79.48	-0.2454	0.0005	0.2459	1279.0999	0.167782	-440.237072	-440.226968	-440.226023	-440.271647	37.697	
C	-0.1275717096	 1.4637946363	 0.1430474575	-0.438091
C	-0.0118093916	-0.0545637128	 0.01685473	 0.275361
C	-1.3549016255	-0.7034824085	-0.2937301623	-0.459137
C	 1.1971152482	-0.4740136611	-0.8967808707	-0.359511
C	 2.0027861249	-0.6498814131	 0.3711321966	 0.342064
N	 3.2119412091	-0.5134911181	 0.7235048331	-0.243279
O	 4.054866556	-0.3280225649	-0.3862765846	-0.388485
C	 0.7738284347	-0.6763987412	 1.2488223039	 0.048896
O	 0.7893353352	-0.0377598111	 2.4933987582	-0.422892
H	 0.8486333208	 1.9317779736	 0.312302874	 0.110002
H	-0.547209362	 1.8973120815	-0.7708903999	 0.114704
H	-0.7753222394	 1.734816928	 0.9821381695	 0.127553
H	-1.7619025894	-0.3388152343	-1.2438253238	 0.115593
H	-1.2642170069	-1.7928283036	-0.3658732738	 0.111012
H	-2.0871239922	-0.4792008642	 0.4901557898	 0.123698
H	 1.0292485309	-1.4132161618	-1.4334017034	 0.118463
H	 1.5790648963	 0.2694579221	-1.6001503576	 0.127273
H	 4.918958177	-0.2308399859	 0.0284832646	 0.307518
H	 0.4223663652	-1.7030332705	 1.4166927862	 0.098589
H	 1.5039175684	 0.6082513695	 2.4807105428	 0.290669
65.8851	131.3574	178.5097	214.0269	224.8763	248.4211	260.0257	277.2571	329.824	350.8342	377.9609	412.2363	491.9307	552.9554	571.4135	704.5755	763.2669	810.3792	871.2631	892.1925	960.0478	977.0675	990.849	1021.1461	1072.2029	1114.9378	1153.5374	1176.9151	1201.4208	1230.0366	1275.0878	1282.2412	1329.9548	1401.0578	1404.6041	1421.2618	1427.9398	1466.2438	1484.7372	1487.9918	1501.9313	1506.6796	1778.7876	3020.608	3023.6588	3030.0299	3055.826	3089.2704	3092.5702	3093.5854	3108.9444	3112.4341	3810.6286	3814.5757
CC1(C)CC(=NO)C1O	CC1(C)CC(=NO)[C@H]1O	
InChI=1S/C6H11NO2/c1-6(2)3-4(7-9)5(6)8/h5,8-9H,3H2,1-2H3	InChI=1S/C6H11NO2/c1-6(2)3-4(7-9)5(6)8/h5,8-9H,3H2,1-2H3/t5-/m1/s1
