16
gdb 97604	4.43252	0.58781	0.54358	4.4642	75.32	-0.2804	0.0032	0.2836	1937.1387	0.121717	-437.85294	-437.842578	-437.841634	-437.890694	34.836	
O	 0.3031293451	 0.922166752	 0.8007879124	-0.395767
C	-0.062943823	 0.1474603009	-0.3298010106	-0.202122
C	-1.3821428705	-0.4766369838	-0.2114433699	 0.108762
C	-2.4796878111	-0.9651287091	-0.1141642535	 0.008246
C	-3.7911092901	-1.5908391931	 0.0617897281	-0.053219
O	-3.7034136271	-2.9302009187	 0.510551039	-0.401744
C	-4.661429708	-0.7249407757	 1.0167967482	-0.347906
C	-6.0033635847	-1.2737109548	 1.18948966	 0.266818
N	-7.0713926375	-1.6940233993	 1.318921521	-0.298784
H	-0.3668171687	 1.6037044203	 0.9185553104	 0.289495
H	-0.0263548878	 0.7390349073	-1.258032565	 0.12749
H	 0.7045734001	-0.6287261275	-0.4214281811	 0.151019
H	-4.3053833447	-1.6474150785	-0.9043603846	 0.141461
H	-3.0548716364	-2.9655321027	 1.2229484452	 0.291964
H	-4.1682259336	-0.6592994062	 1.9928407475	 0.154324
H	-4.7362618621	 0.2940314987	 0.6227625929	 0.159962
17.1996	56.7618	65.9249	129.1145	150.5481	228.7924	273.6409	308.1326	340.4138	357.9662	396.4161	426.7613	544.735	553.1326	602.2636	801.4188	864.0517	957.8354	979.3583	1006.0453	1051.5142	1072.8444	1146.6419	1201.7537	1214.5812	1272.9899	1307.6748	1356.546	1365.3384	1412.9435	1423.4542	1457.5328	1485.3452	2354.9888	2368.0709	2984.8672	3046.9603	3055.9531	3069.5574	3096.1258	3804.3774	3816.9732
OCC#CC(O)CC#N	OCC#C[C@@H](O)CC#N	
InChI=1S/C6H7NO2/c7-4-3-6(9)2-1-5-8/h6,8-9H,3,5H2	InChI=1S/C6H7NO2/c7-4-3-6(9)2-1-5-8/h6,8-9H,3,5H2/t6-/m1/s1
