16
gdb 64745	3.15718	1.09967	1.0451	3.0145	69.79	-0.2741	-0.0516	0.2225	1184.0744	0.121674	-437.898952	-437.889906	-437.888962	-437.933345	31.942	
C	-0.1427961283	 1.6248022661	 0.1627250388	-0.437744
C	 0.0089537458	 0.1152095067	 0.0496829582	 0.26444
C	-1.3021890328	-0.6116981619	-0.3120950012	-0.36866
C	-1.9000254381	-0.117978048	-1.5500189927	 0.273041
N	-2.3691905608	 0.2859525323	-2.5254562664	-0.304336
O	 1.0953299134	-0.2673872756	-0.8357619728	-0.314596
C	 1.8721239985	-0.8986827519	 0.2030317523	-0.195248
C	 0.7669295485	-0.5689583197	 1.2097123267	 0.310235
O	 0.5525228981	-0.7601130482	 2.3659029021	-0.27455
H	 0.8094555566	 2.0852024565	 0.4367024754	 0.133093
H	-0.4670607907	 2.0410091129	-0.7952424334	 0.163306
H	-0.8850575316	 1.8776904568	 0.9258868023	 0.138563
H	-1.1108002648	-1.6845014478	-0.4157607479	 0.158693
H	-2.0167841343	-0.4839521432	 0.5088140164	 0.169021
H	 2.0433354234	-1.9677635678	 0.0264407577	 0.141668
H	 2.8340880271	-0.4029242672	 0.3824451844	 0.143074
55.1851	101.8707	120.3998	177.5694	198.7471	261.2784	330.6547	375.6994	393.9479	461.6777	529.1154	583.2955	673.7345	760.1899	856.4239	898.3869	917.3591	971.1284	981.6586	1009.3809	1043.4268	1117.2989	1137.7307	1190.7087	1207.6206	1266.6745	1302.1671	1343.0606	1407.4449	1449.7163	1480.3036	1482.0943	1492.8171	1924.5481	2364.1903	3023.3391	3045.9332	3052.016	3070.0671	3095.759	3124.2663	3129.6078
CC1(CC#N)OCC1=O	C[C@@]1(CC#N)OCC1=O	
InChI=1S/C6H7NO2/c1-6(2-3-7)5(8)4-9-6/h2,4H2,1H3	InChI=1S/C6H7NO2/c1-6(2-3-7)5(8)4-9-6/h2,4H2,1H3/t6-/m0/s1
