15
gdb 131647	3.60584	1.1507	0.91167	1.2123	74.5	-0.2443	-0.0607	0.1836	1222.7031	0.11301	-453.912055	-453.904109	-453.903165	-453.945099	29.223	
O	 0.102547529	 1.4037963774	-0.0218611753	-0.405709
C	 0.0355315504	-0.0085669871	-0.0137912508	-0.147882
C	-1.3784444523	-0.5163184729	-0.1077648973	 0.399414
C	-1.883973441	-1.3310099907	-1.0472536275	-0.269625
C	-3.2738920246	-1.7302622636	-0.9783401717	 0.285836
N	-3.8170940792	-2.5213048476	-1.8322416795	-0.52113
C	-3.9643982686	-1.1142039104	 0.166495866	-0.019595
N	-3.4653674091	-0.3307921754	 1.0513130129	-0.060131
O	-2.1117027798	-0.0248218572	 0.9301051788	-0.296065
H	-0.41096046	 1.7220605403	 0.7287340303	 0.299682
H	 0.5971140584	-0.3624063866	-0.8814894953	 0.134455
H	 0.5045362064	-0.4310814832	 0.8892392995	 0.116471
H	-1.263790725	-1.6896958527	-1.858701221	 0.128949
H	-4.8039960314	-2.6704484442	-1.6090511196	 0.215006
H	-5.0232339733	-1.3181071861	 0.3180641104	 0.140324
66.2583	125.9897	148.1716	251.3459	333.3869	359.3727	418.8021	450.6034	515.3447	530.3802	681.7025	727.6026	743.3832	848.9037	893.8173	905.731	937.9474	959.8623	995.1147	1002.7483	1069.2436	1155.1837	1174.7361	1206.5049	1303.1583	1341.4373	1374.8447	1423.3973	1425.6904	1488.1545	1636.8081	1671.0463	1719.9117	2981.6781	3108.8363	3154.8602	3219.8335	3439.8772	3814.064
OCC1=CC(=N)C=NO1	OC[C]1C=C([NH])C=NO1	
InChI=1S/C5H6N2O2/c6-4-1-5(3-8)9-7-2-4/h1-2,6,8H,3H2	InChI=1S/C5H6N2O2/c6-4-1-5(3-8)9-7-2-4/h1-2,6,8H,3H2
