21
gdb 90959	2.65494	1.65638	1.40719	1.2688	81.94	-0.2547	0.079	0.3337	1037.671	0.184009	-387.065322	-387.057448	-387.056504	-387.097128	32.331	
C	-0.1338302521	 1.5543159127	-0.0366642981	-0.410091
C	 0.022972899	 0.0318836434	-0.0012702198	 0.008352
C	 0.9310579119	-0.5514094547	-1.1299802159	-0.262295
C	 1.9755172569	-1.2818818725	-0.2895224916	-0.070767
C	 1.2838957864	-1.9435475187	 0.9443800972	-0.079302
C	 2.5433716593	-1.6765390942	 1.8044283104	-0.305503
C	 2.3171516716	-0.3978461753	 0.9612174669	 0.39493
O	 3.0144175185	 0.8007964457	 0.9898394202	-0.479686
C	 0.7875752969	-0.4880567923	 1.2216900306	-0.032571
H	 0.8431681913	 2.044671651	 0.0129055437	 0.135318
H	-0.6338668816	 1.8775311523	-0.9561083306	 0.105886
H	-0.7321807763	 1.9113869807	 0.8090098213	 0.1064
H	-0.9721013846	-0.4283225903	-0.0382896721	 0.062299
H	 0.3914285602	-1.2218515731	-1.8064635369	 0.091894
H	 1.3814979073	 0.239367644	-1.7401657038	 0.095582
H	 2.782190362	-1.8233734917	-0.7902211252	 0.052349
H	 0.6708422922	-2.8425906125	 0.9331973863	 0.074503
H	 2.3947778702	-1.5876834667	 2.8841928118	 0.091332
H	 3.4300572635	-2.275272341	 1.5720441296	 0.081525
H	 3.9226053149	 0.632704184	 0.7157873523	 0.281083
H	 0.4130555723	-0.2416464408	 2.2179465037	 0.058762
128.5759	196.2001	245.7521	262.9707	293.897	367.1289	409.069	456.8907	466.8725	646.2751	672.9753	709.7593	760.7129	834.3063	847.2133	883.3554	921.431	929.273	951.7498	986.0939	995.1143	1020.3221	1026.7928	1050.1312	1056.823	1092.5337	1113.5966	1135.0985	1143.7657	1194.1066	1200.3831	1208.5535	1245.5251	1260.4668	1284.7056	1291.8899	1312.0901	1331.0585	1370.0129	1402.9821	1411.344	1494.0712	1498.6001	1505.5942	1519.4454	3020.66	3028.6773	3039.8506	3041.0307	3079.2829	3084.1258	3090.3182	3093.4151	3104.6522	3112.6251	3135.4071	3805.0289
CC1CC2C3CC2(O)C13	C[C@H]1C[C@@H]2[C@H]3C[C@]2(O)[C@@H]13	
InChI=1S/C8H12O/c1-4-2-6-5-3-8(6,9)7(4)5/h4-7,9H,2-3H2,1H3	InChI=1S/C8H12O/c1-4-2-6-5-3-8(6,9)7(4)5/h4-7,9H,2-3H2,1H3/t4-,5+,6+,7-,8+/m0/s1
