20
gdb 69833	3.01244	1.58306	1.26908	1.3279	77.71	-0.2271	0.0686	0.2957	1053.839	0.172279	-403.116444	-403.108674	-403.10773	-403.148227	31.454	
C	 0.1330121717	 1.5488791358	-0.0073661973	-0.473477
C	-0.0488593494	 0.0512353802	 0.0512246971	 0.397226
C	-1.3502403752	-0.5192872777	-0.5036989739	-0.306624
C	-2.1221871002	-1.3570131053	 0.5394665417	-0.147504
N	-1.3647586247	-2.3402783896	 1.3106311654	-0.097906
C	-0.3242241989	-3.1245212802	 0.6567777668	-0.259006
C	 0.0448321563	-2.0268487534	 1.5978635025	-0.031339
C	 0.6515251614	-0.7560868955	 1.0728417171	-0.016221
O	 1.1211288736	-0.716521833	-0.2814824796	-0.290788
H	 1.1014607179	 1.8398243179	 0.4073741958	 0.126499
H	 0.0832261944	 1.901444283	-1.0437968566	 0.126961
H	-0.6566387273	 2.0577512771	 0.556389292	 0.121691
H	-2.0043749816	 0.2906405756	-0.8430563782	 0.101835
H	-1.1132613574	-1.1190723175	-1.3883249557	 0.121428
H	-2.5749244064	-0.6780612738	 1.2731419718	 0.105697
H	-2.9464407455	-1.884414804	 0.0474247849	 0.109276
H	-0.2537614417	-4.1598025685	 0.979314223	 0.114133
H	-0.0972784463	-2.9532679466	-0.3916124347	 0.128574
H	 0.3516190225	-2.2814604151	 2.6097220567	 0.085791
H	 1.3052262968	-0.2422756894	 1.7775530213	 0.083756
135.6888	177.9457	222.5903	296.5855	342.5934	349.6713	424.6541	464.2511	482.1155	592.1649	660.4036	716.6615	725.2238	784.327	847.8372	885.5775	899.3044	937.5948	963.204	1001.1243	1033.2633	1047.649	1068.1768	1091.5823	1113.9287	1126.5078	1146.1194	1166.6853	1213.2838	1262.6005	1277.5102	1314.2502	1344.2264	1367.2186	1386.9942	1402.8017	1412.8245	1455.9073	1479.0176	1486.2661	1488.7433	1497.0346	1512.572	3024.3652	3030.6205	3045.3422	3069.9806	3088.0149	3093.6172	3103.9094	3110.3098	3120.5987	3132.2157	3198.0908
CC12CCN3CC3C1O2	C[C@]12CCN3C[C@H]3[C@H]1O2	
InChI=1S/C7H11NO/c1-7-2-3-8-4-5(8)6(7)9-7/h5-6H,2-4H2,1H3	InChI=1S/C7H11NO/c1-7-2-3-8-4-5(8)6(7)9-7/h5-6H,2-4H2,1H3/t5-,6+,7-,8?/m0/s1
