13
gdb 131916	4.14826	1.28042	0.97842	1.8921	69.37	-0.2818	-0.1042	0.1776	1091.1887	0.091284	-452.721537	-452.714871	-452.713927	-452.753359	24.627	
O	-0.0561873083	-0.0074573786	 0.003930225	-0.349696
N	-0.0149776074	 1.2140866809	 0.0067467286	 0.387523
O	 1.0043532891	 1.8884838964	 0.0014029674	-0.349695
C	-1.306774531	 1.9366986475	 0.0175127363	 0.362002
C	-1.312713007	 3.3224860641	 0.0207953705	-0.20065
C	-2.5583936224	 3.9461148052	 0.0309973463	 0.023433
N	-3.7195784864	 3.2863862005	 0.0376233019	-0.256088
C	-3.6740479301	 1.9516392151	 0.0341905018	 0.023433
C	-2.4907308298	 1.2165213142	 0.0241471134	-0.200651
H	-0.3857181689	 3.8786901772	 0.015594059	 0.150445
H	-2.6209911202	 5.0308938051	 0.0339536068	 0.129749
H	-4.6311626335	 1.43727204	 0.0397332874	 0.129749
H	-2.4795477943	 0.1355137125	 0.0215272456	 0.150445
60.0868	171.0261	252.5672	389.4366	395.0081	472.7512	527.8657	672.2553	693.5735	722.994	770.101	870.7016	886.8497	897.2888	1004.5619	1009.2758	1009.7758	1077.3715	1093.7535	1140.1505	1239.9672	1297.4959	1345.683	1400.138	1437.5913	1510.902	1609.1524	1618.5387	1667.0129	3169.2049	3172.2596	3241.6164	3242.0456
O=N(=O)C1=CC=NC=C1	O=N(=O)c1ccncc1	
InChI=1S/C5H4N2O2/c8-7(9)5-1-3-6-4-2-5/h1-4H	InChI=1S/C5H4N2O2/c8-7(9)5-1-3-6-4-2-5/h1-4H
