15
gdb 44517	4.65398	1.47936	1.29744	5.5082	64.73	-0.2852	0.0346	0.3199	941.7249	0.115135	-457.763924	-457.757887	-457.756942	-457.794391	24.5	
O	 0.0025518134	 0.0846642489	 0.543737464	-0.35989
C	-0.0153232026	 1.1707016307	 0.054539874	 0.469647
O	-1.170205734	 1.8175841394	-0.2286353051	-0.274335
C	-1.0909200099	 3.1122198192	-0.8125528586	 0.158251
C	-0.0632818929	 3.311864499	-1.958188414	-0.135403
C	-0.0753569296	 4.8181601858	-1.5885201534	-0.244251
C	-0.0507721202	 4.0971029539	-0.2154947805	-0.135403
C	 0.995984704	 3.1351633256	-0.8378715408	 0.158251
O	 1.1178512687	 1.8427392769	-0.2563941835	-0.274335
H	-2.1167311944	 3.4502735453	-0.9575130695	 0.105112
H	-0.0702087115	 2.8527136401	-2.9451521861	 0.099388
H	 0.8180356671	 5.3878387147	-1.8516244014	 0.114234
H	-0.9871757323	 5.3679922625	-1.8297232965	 0.114234
H	-0.0434516772	 4.5322524119	 0.7822808313	 0.099387
H	 2.0102985614	 3.495646056	-1.0075829699	 0.105112
119.9562	290.4987	376.726	450.9172	472.5868	503.7204	649.8858	773.0317	778.1197	786.7271	825.4953	881.3553	886.489	909.3648	911.4004	1003.5844	1013.5877	1022.9216	1091.7325	1095.6292	1098.7553	1130.7964	1151.4719	1176.8985	1192.3932	1207.1506	1245.8004	1259.4318	1267.2016	1404.6641	1408.3562	1514.8458	1903.5884	3070.1605	3122.5439	3124.1584	3136.0073	3136.8482	3143.4656
O=C1OC2C3CC2C3O1	O=C1O[C@@H]2[C@H]3C[C@@H]2[C@H]3O1	
InChI=1S/C6H6O3/c7-6-8-4-2-1-3(4)5(2)9-6/h2-5H,1H2	InChI=1S/C6H6O3/c7-6-8-4-2-1-3(4)5(2)9-6/h2-5H,1H2/t2-,3+,4-,5+
