15
gdb 44498	4.66325	1.47919	1.28856	3.263	66.49	-0.2514	0.0399	0.2913	943.9467	0.115457	-453.885948	-453.87978	-453.878836	-453.916645	24.974	
N	-0.0631233771	 1.2369062241	 0.4925684521	-0.552189
C	-0.0113674733	 0.0796560655	 0.0006562809	 0.471052
O	 1.1505831204	-0.5719372286	-0.2991703043	-0.280793
C	 1.0701590315	-1.8709021654	-0.848406292	 0.165917
C	 0.0031966119	-2.1229343341	-1.943460326	-0.120867
N	 0.087768409	-3.5806351473	-1.553575502	-0.323065
C	 0.0378616843	-2.8485958122	-0.2323331133	-0.120865
C	-1.0366072213	-1.8877154942	-0.8128558015	 0.131744
O	-1.1572529072	-0.5918346816	-0.2608529485	-0.251141
H	 0.8793883971	 1.5965916396	 0.6260621508	 0.23072
H	 2.0809560366	-2.2334210283	-1.0226163256	 0.117695
H	-0.0090740461	-1.7845144623	-2.9785614855	 0.102993
H	-0.8177950485	-4.0288896744	-1.7253283836	 0.22247
H	 0.0660603556	-3.3573467483	 0.7302106537	 0.102992
H	-2.0470759328	-2.2738613125	-0.9561385653	 0.103338
91.0968	284.7394	399.0928	442.7747	448.5922	502.1619	645.7115	717.9679	765.9022	787.7396	816.4904	864.3918	865.0598	891.1198	906.9682	921.7396	1016.705	1023.8443	1032.6638	1084.8678	1124.2998	1138.6665	1161.112	1166.8304	1207.1249	1213.0418	1252.1014	1259.1826	1296.7613	1303.1046	1397.4011	1409.5359	1780.3209	3112.5125	3132.5095	3134.902	3155.739	3392.865	3532.1788
N=C1OC2C3NC2C3O1	[NH][C]1O[C@@H]2[C@H]3N[C@@H]2[C@H]3O1	
InChI=1S/C5H6N2O2/c6-5-8-3-1-4(9-5)2(3)7-1/h1-4,6-7H	InChI=1S/C5H6N2O2/c6-5-8-3-1-4(9-5)2(3)7-1/h1-4,6-7H/t1-,2+,3-,4+
