19
gdb 22499	3.23665	0.86984	0.7141	7.5115	80.58	-0.2225	-0.0681	0.1544	1573.0006	0.158024	-456.283565	-456.273752	-456.272808	-456.318953	34.441	
C	 0.9211868655	 1.0509536197	 0.2881849797	-0.323831
N	 0.7148872299	-0.2923702701	-0.2518301054	-0.281241
H	 2.0562770483	-1.3943087621	-1.1735915603	 0.269736
H	 0.3238899092	-0.8884820044	 0.4728517281	 0.22971
C	-0.1719146451	-0.3259685164	-1.4207149597	-0.143168
C	-0.251335186	-1.7401193559	-2.0127752144	-0.314073
C	 1.0268560452	-2.2640422276	-2.6309662937	 0.179793
C	 0.9704506073	-3.0679308311	-3.8518532295	 0.088043
O	 1.898306423	-3.5864895757	-4.4315288803	-0.265085
N	 2.1769444094	-1.9945566091	-2.0201745863	 0.05658
O	 3.33630193	-2.3249138041	-2.3357287711	-0.400412
H	 1.4570641163	 1.6589356263	-0.4474388721	 0.13908
H	-0.017592904	 1.5710454298	 0.5383345701	 0.110028
H	 1.5362959454	 0.9919369924	 1.1895743027	 0.133112
H	-1.1879826379	 0.0311049338	-1.1819955325	 0.09723
H	 0.2398837038	 0.3619473106	-2.1689727593	 0.123008
H	-0.623046689	-2.4257859407	-1.2347621345	 0.117187
H	-1.0222078065	-1.7445759686	-2.7909502457	 0.12609
H	-0.0727673148	-3.1691218567	-4.2360563858	 0.058216
45.6392	100.5469	151.1839	169.0279	220.0779	224.3425	247.5951	266.472	306.1848	348.607	419.0907	502.9183	532.9211	658.2698	801.6983	879.8499	933.5854	966.7727	995.9847	1011.5368	1047.0847	1115.844	1128.0206	1149.6201	1166.4798	1206.418	1275.1897	1285.3297	1370.9104	1391.0239	1426.9831	1448.605	1459.3491	1469.1438	1487.1978	1491.0122	1508.213	1512.9706	1517.5806	1661.5706	1786.4147	2838.2631	2960.1912	2977.3151	2981.9397	3056.267	3070.0885	3076.458	3097.3573	3120.8896	3498.3083
C[NH2+]CCC(C=O)=N[O-]	CNCC[C](C=O)N[O]	
InChI=1S/C5H10N2O2/c1-6-3-2-5(4-8)7-9/h4,6,9H,2-3H2,1H3	InChI=1S/C5H10N2O2/c1-6-3-2-5(4-8)7-9/h4,6-7H,2-3H2,1H3
