19
gdb 108939	3.53676	1.04247	0.87023	2.3541	81.1	-0.2048	0.0237	0.2285	1353.7959	0.158041	-423.006301	-422.997368	-422.996423	-423.04044	33.095	
O	 0.0148215834	 1.4072157167	 0.0768224853	-0.41174
C	-0.0082668886	-0.0011106261	-0.0644513836	-0.180459
C	-1.4178294199	-0.4827208087	-0.0067100196	 0.269212
C	-2.5321296805	 0.2280300606	 0.1497189675	-0.27637
C	-3.7013290765	-0.6740865318	 0.1466062764	 0.44915
C	-4.9162883745	-0.5006254784	 1.020955231	-0.32448
C	-5.0301956087	-0.347809326	-0.4845425233	-0.32448
O	-3.2011961674	-1.988724007	-0.0246843053	-0.311364
C	-1.781501866	-1.9423281288	-0.1273440437	-0.171527
H	 0.9304791323	 1.6970015217	 0.036909524	 0.2911
H	 0.4464152377	-0.3177751444	-1.0206618599	 0.097954
H	 0.5789191673	-0.4956186058	 0.730548876	 0.097952
H	-2.5976716455	 1.300502306	 0.2635355109	 0.121474
H	-5.3215230681	-1.4052794444	 1.4603672647	 0.122948
H	-4.9867814254	 0.3838017259	 1.6453861422	 0.112608
H	-5.1795248003	 0.64238066	-0.9020582414	 0.112608
H	-5.5099836318	-1.1524434103	-1.0304953382	 0.122948
H	-1.4621470222	-2.3775612124	-1.0887799619	 0.101232
H	-1.3291831152	-2.5559807266	 0.6692826289	 0.101231
74.1925	79.4009	149.6406	155.6846	234.4395	306.4949	313.1651	395.8576	417.8121	521.1273	542.7131	671.9806	764.8118	828.0894	834.662	902.087	905.392	917.4641	931.1689	974.0945	998.2838	1049.4457	1062.5925	1062.6793	1079.5501	1096.8795	1147.7337	1191.8353	1198.5603	1214.7751	1249.2811	1252.2185	1293.2419	1385.4367	1394.5014	1447.4379	1468.9001	1490.7548	1509.2757	1524.2767	1730.079	2934.9807	2946.1241	2960.8692	2973.6463	3129.199	3131.6635	3214.9343	3229.7278	3243.9336	3838.7643
OCC1=CC2(CC2)OC1	OCC1=CC2(CC2)OC1	
InChI=1S/C7H10O2/c8-4-6-3-7(1-2-7)9-5-6/h3,8H,1-2,4-5H2	InChI=1S/C7H10O2/c8-4-6-3-7(1-2-7)9-5-6/h3,8H,1-2,4-5H2
