15
gdb 98373	1.94401	1.29725	1.00232	3.2167	69.51	-0.2588	-0.0442	0.2147	1242.7655	0.108182	-457.758293	-457.748293	-457.747349	-457.794965	33.251	
C	-0.3092216785	 1.3459275548	-0.7333804792	-0.243422
O	-0.2244110857	-0.0471532011	-1.0776662946	-0.226433
C	 0.902051153	-0.6684906327	-0.6949289973	 0.440456
O	 1.8016167984	-0.1563791216	-0.089193111	-0.346311
C	 0.8666488548	-2.1462587019	-1.1249774676	-0.333523
C	-0.4466559303	-2.7949995124	-0.6321579832	 0.168897
O	-0.4944564803	-3.5284649954	 0.3140390709	-0.235688
C	 0.9667465824	-2.2750354987	-2.5717080567	 0.305823
C	 1.0116738652	-2.4066030334	-3.7649357892	-0.450087
H	-0.2331350222	 1.4765757428	 0.3483788618	 0.150525
H	 0.4940988915	 1.9056708403	-1.217708632	 0.149841
H	-1.2812672726	 1.6790935451	-1.0950477832	 0.142229
H	 1.6987864399	-2.6397356759	-0.6177448364	 0.153174
H	-1.3377672338	-2.5185778478	-1.2286211089	 0.113941
H	 1.0695544983	-2.5191266522	-4.8196430936	 0.210579
33.1303	54.6886	97.8413	117.5276	148.7365	178.0527	231.1236	303.3764	374.0465	424.1506	480.0575	505.4844	640.8628	650.8503	685.4487	774.715	860.0782	964.1487	1008.5171	1035.4096	1072.4579	1178.8846	1208.5848	1215.2224	1253.5645	1297.562	1408.0163	1472.436	1482.3884	1495.603	1828.7663	1852.214	2239.3521	2947.384	3058.4422	3099.0234	3137.3059	3169.0984	3502.0594
COC(=O)C(C=O)C#C	COC(=O)[C@@H](C=O)C#C	
InChI=1S/C6H6O3/c1-3-5(4-7)6(8)9-2/h1,4-5H,2H3	InChI=1S/C6H6O3/c1-3-5(4-7)6(8)9-2/h1,4-5H,2H3/t5-/m1/s1
