16
gdb 22638	5.21167	0.88132	0.79885	0.7302	83.6	-0.2267	-0.034	0.1927	1384.4345	0.123277	-400.687668	-400.679178	-400.678234	-400.721216	31.884	
O	-0.0798296947	 1.3786868926	 0.3153378796	-0.395982
N	 0.0564256017	-0.0143635212	 0.1759935716	-0.232852
C	-1.075873283	-0.5793896797	-0.0025748375	 0.37152
C	-1.1936817385	-2.081326553	-0.1908538749	-0.313475
C	-2.7283311419	-2.3610058248	-0.0847858469	-0.210711
C	-3.3396926951	-0.9674316602	-0.1256582306	-0.06996
C	-2.4178601456	-0.0006715598	-0.0634496592	-0.148716
C	-3.2479914295	-3.2521159795	-1.1169378416	 0.31755
C	-3.6790125839	-3.9786447277	-1.971963762	-0.46671
H	 0.8331967391	 1.6586151334	 0.4363520381	 0.30691
H	-0.8323016875	-2.367831469	-1.1823503347	 0.141327
H	-0.612999175	-2.6397685807	 0.5453297322	 0.130793
H	-2.9533423645	-2.811117423	 0.8934020324	 0.122277
H	-4.4124116786	-0.8249686002	-0.1768658827	 0.120719
H	-2.6009157839	 1.0637463586	-0.0380252469	 0.127831
H	-4.0581362593	-4.6231460858	-2.7259280967	 0.199479
40.5034	133.9609	191.6833	242.4267	264.4572	305.6564	394.6714	418.1117	501.9321	544.4508	609.5892	624.0742	641.4761	699.4837	731.8363	809.6342	846.3844	868.1871	968.3396	978.2526	987.4288	1036.9996	1049.4645	1123.9579	1175.5948	1235.7687	1255.9555	1282.3929	1320.0274	1364.8612	1403.546	1473.9902	1648.1885	1728.6926	2237.368	2992.6164	3070.2837	3120.8305	3209.4363	3250.8344	3503.8783	3824.964
ON=C1CC(C=C1)C#C	ON=C1C[C@@H](C=C1)C#C	
InChI=1S/C7H7NO/c1-2-6-3-4-7(5-6)8-9/h1,3-4,6,9H,5H2	InChI=1S/C7H7NO/c1-2-6-3-4-7(5-6)8-9/h1,3-4,6,9H,5H2/t6-/m1/s1
