20
gdb 59375	4.10081	0.87912	0.82701	4.4839	79.85	-0.2757	0.003	0.2787	1452.5367	0.169764	-403.150758	-403.141131	-403.140187	-403.186093	34.775	
C	 0.1630972471	 1.5348160417	 0.1073844729	-0.392755
C	 0.1299661332	-0.0016605207	 0.0988277622	 0.007379
C	 0.6643242778	-0.5684039919	 1.4208611146	-0.400071
C	-1.2809641482	-0.4802179349	-0.2355756292	 0.165479
C	-1.6297119085	-1.9865542784	-0.2064918192	-0.338461
C	-2.6801859299	-1.5774067417	 0.8567539715	 0.007856
O	-2.2390682628	-0.2106220363	 0.8351185277	-0.295204
C	-4.084519144	-1.7262399807	 0.4558240466	 0.274926
N	-5.1868518771	-1.8592028292	 0.1353665897	-0.316085
H	 1.1723300857	 1.9029780993	 0.3143131438	 0.114407
H	-0.1557181898	 1.9469173203	-0.8556278077	 0.114246
H	-0.5058283266	 1.9288519486	 0.879399097	 0.137479
H	 0.76908545	-0.3578771613	-0.7230106258	 0.079931
H	 0.021470099	-0.268957982	 2.2538527594	 0.133813
H	 0.726871092	-1.6611541206	 1.4127963402	 0.109081
H	 1.6708883852	-0.1882558144	 1.6181425774	 0.118117
H	-1.6183302738	 0.0086811332	-1.1588561692	 0.089114
H	-2.0327538885	-2.3990198248	-1.1305072088	 0.135947
H	-0.8504662685	-2.6428623301	 0.1796850767	 0.126492
H	-2.5512996421	-2.0284991862	 1.8473386301	 0.12831
33.6088	80.6488	123.6786	194.5191	209.69	238.1831	265.7183	300.7434	358.3919	425.5533	516.8959	546.6071	618.8295	714.958	771.4293	860.5236	915.1057	926.6451	938.2383	966.0008	1003.6251	1013.8794	1025.8194	1085.2038	1108.0429	1133.6795	1175.494	1207.1108	1254.4702	1260.1712	1299.2	1324.5178	1355.9253	1369.1331	1389.1455	1402.3164	1425.6232	1481.293	1490.8425	1497.6549	1508.0115	1515.0138	2355.3716	2997.9169	3018.5602	3034.644	3040.1962	3042.1268	3099.3438	3103.8116	3105.459	3110.1099	3117.8526	3160.1969
CC(C)C1CC(O1)C#N	CC(C)[C@H]1C[C@@H](O1)C#N	
InChI=1S/C7H11NO/c1-5(2)7-3-6(4-8)9-7/h5-7H,3H2,1-2H3	InChI=1S/C7H11NO/c1-5(2)7-3-6(4-8)9-7/h5-7H,3H2,1-2H3/t6-,7-/m1/s1
