16
gdb 60723	3.26943	1.0955	0.89865	5.2665	69.5	-0.2501	-0.0506	0.1995	1260.8048	0.123544	-471.257328	-471.247686	-471.246742	-471.29248	33.625	
C	-0.40249089	 1.4431812724	 0.0194123613	-0.355478
N	-0.0645650423	 0.0166492644	 0.0015331847	-0.122403
C	 0.2628062673	-0.597626538	 1.2096031947	 0.171469
O	 0.2341444022	-0.0309294934	 2.2757337241	-0.318418
C	-0.0739542079	-0.7293765809	-1.1724006787	 0.289033
N	-0.1055018721	-2.0069488899	-1.1468230671	-0.500018
C	 0.0433624628	 0.0711854051	-2.4719853059	 0.319953
N	-0.7760437678	-0.3809497134	-3.4619504351	-0.521355
O	 0.8416887219	 0.9740661925	-2.6123503185	-0.342155
H	 0.4033328368	 2.041832741	-0.4060111556	 0.166636
H	-1.3191536267	 1.6232895919	-0.5478490038	 0.128501
H	-0.5621766387	 1.7123172801	 1.0625549264	 0.168605
H	 0.5552462375	-1.6460314261	 1.0696280792	 0.13776
H	-0.0195033744	-2.3858852075	-2.0880105154	 0.231072
H	-1.5246594266	-1.0249034804	-3.272321	 0.272386
H	-0.7550245319	 0.0955400219	-4.3494926603	 0.274414
52.2068	72.1653	115.3869	175.1842	212.3264	274.7906	298.8952	324.5761	341.8965	377.2098	388.2702	529.5774	601.3189	632.5648	692.2213	808.3668	814.849	877.6846	941.4814	1046.5551	1077.329	1089.1226	1155.4036	1233.5979	1286.2094	1329.7983	1415.3052	1429.4412	1461.0463	1496.117	1515.5812	1607.8079	1676.4451	1798.4658	1803.19	3062.0527	3068.3738	3138.3772	3173.1794	3504.7306	3597.0978	3733.1577
CN(C=O)C(=N)C(N)=O	CN(C=O)C(=N)C(=O)N	
InChI=1S/C4H7N3O2/c1-7(2-8)3(5)4(6)9/h2,5H,1H3,(H2,6,9)	InChI=1S/C4H7N3O2/c1-7(2-8)3(5)4(6)9/h2,5H,1H3,(H2,6,9)
