14
gdb 27384	2.05372	1.81337	0.96391	6.76	68.99	-0.2196	-0.009	0.2106	1122.585	0.101425	-473.878416	-473.870572	-473.869628	-473.910567	29.988	
N	 0.1496332508	 1.3460971741	 0.1683771065	-0.567134
C	-0.0301394631	-0.0143221457	 0.0513861437	 0.437181
C	-1.1908093891	-0.6986270328	 0.0213431194	-0.361154
C	-1.2148830078	-2.1616743066	-0.0116367847	 0.412866
O	-2.2503605943	-2.8143269182	-0.033408918	-0.395765
C	 0.1177522188	-2.7724889656	-0.0236799909	-0.406672
C	 1.2152570116	-2.0025161749	-0.0083818595	 0.483115
O	 2.4747673813	-2.4578167907	-0.0312224837	-0.404641
O	 1.1853844813	-0.6422696104	 0.0298155036	-0.265927
H	 0.9942498662	 1.699808958	-0.2583164849	 0.260835
H	-0.6667019349	 1.8956682894	-0.053002879	 0.269843
H	-2.1344760386	-0.1681043767	 0.026637343	 0.10431
H	 0.2161119665	-3.8486146101	-0.0496329776	 0.124662
H	 3.0761537312	-1.7054817098	 0.0312001823	 0.308481
163.3503	180.4623	190.0667	287.5635	305.634	330.723	368.4761	504.0755	507.7106	569.8773	574.3098	632.204	656.1833	685.8695	724.5066	833.4607	859.3629	931.2421	940.2272	1028.7398	1121.8684	1185.9087	1248.7162	1257.0239	1288.5542	1411.6267	1422.3898	1625.6975	1676.8257	1738.9458	1760.4677	3214.2761	3236.9895	3571.0122	3680.8171	3805.0551
NC1=CC(=O)C=C(O)O1	Nc1cc(=O)cc(O)o1	
InChI=1S/C5H5NO3/c6-4-1-3(7)2-5(8)9-4/h1-2,8H,6H2	InChI=1S/C5H5NO3/c6-4-1-3(7)2-5(8)9-4/h1-2,8H,6H2
