19
gdb 32585	3.33884	1.0494	0.86397	3.1653	80.01	-0.1798	0.0451	0.2249	1376.5936	0.159921	-419.232165	-419.222725	-419.221781	-419.266854	35.009	
C	 0.0360685443	 1.5208087384	-0.0006602313	-0.366595
C	-0.0070553718	-0.0101810308	 0.0388887094	-0.152448
N	-1.3526794217	-0.553057521	 0.0159034663	 0.028933
C	-2.0977953211	-0.870940353	 1.1183510818	-0.159186
C	-3.3635594448	-1.2302769465	 0.6940221284	 0.045349
N	-4.5256638043	-1.6766138518	 1.3949740493	-0.625975
C	-3.3716388153	-1.1138057162	-0.7238242298	 0.302076
O	-4.4455791501	-1.4015544674	-1.5022194699	-0.45521
C	-2.1269971969	-0.6903690068	-1.1254232795	-0.211594
H	 1.0726864393	 1.8726213422	 0.0166711667	 0.11587
H	-0.4406057352	 1.8999771741	-0.9089123437	 0.131958
H	-0.4876912623	 1.9456965906	 0.8605594319	 0.12665
H	 0.5425166451	-0.4250247973	-0.8133526899	 0.117516
H	 0.4844946677	-0.3798476182	 0.9444518569	 0.114056
H	-1.6709517148	-0.8185361782	 2.1081916172	 0.107554
H	-4.8656084725	-0.9835189013	 2.0536162375	 0.239325
H	-4.3535209058	-2.5286324419	 1.9185996101	 0.239616
H	-5.1321089269	-1.6790903048	-0.8763017189	 0.289868
H	-1.7247975429	-0.4880166501	-2.1037415324	 0.112238
43.1266	88.9006	145.2605	205.668	250.786	254.2887	303.4508	310.8542	394.1921	523.9326	551.719	588.4786	613.6565	630.1759	659.5613	709.5192	733.0874	792.72	823.6378	837.2723	945.7568	1024.9551	1095.7523	1119.1728	1165.9032	1190.7943	1202.2054	1230.9523	1275.9747	1302.2322	1386.8624	1404.3644	1415.0716	1451.3024	1465.513	1485.9489	1488.2562	1506.622	1583.6326	1638.4967	1665.5628	3040.6517	3041.2189	3081.941	3113.8772	3124.5658	3246.81	3270.3218	3496.1224	3562.5962	3713.6075
CCN1C=C(N)C(O)=C1	CCn1cc(N)c(O)c1	
InChI=1S/C6H10N2O/c1-2-8-3-5(7)6(9)4-8/h3-4,9H,2,7H2,1H3	InChI=1S/C6H10N2O/c1-2-8-3-5(7)6(9)4-8/h3-4,9H,2,7H2,1H3
