20
gdb 75754	2.35997	1.53856	0.95341	3.6162	84.1	-0.1955	0.0083	0.2037	1253.5573	0.169574	-403.214864	-403.205058	-403.204114	-403.24923	35.571	
C	 0.0473448282	 1.4624519771	 0.0007249462	-0.353471
N	 0.0046039619	 0.0185119268	 0.048456993	-0.127136
C	-0.0993289137	-0.7552209675	-1.0928668647	 0.401996
O	-0.1649182441	-0.3343208262	-2.2287800553	-0.390566
C	-0.1118470055	-2.2064595791	-0.6094431025	-0.4478
C	-0.0039915104	-2.0966056645	 0.8912936438	 0.176503
C	 0.0204848918	-3.2897339311	 1.789250791	-0.494544
C	 0.0598534611	-0.7932411173	 1.2130536092	 0.261509
C	 0.1737093479	-0.1343667894	 2.5479305358	-0.502904
H	 0.9814516222	 1.8562851775	 0.4169083729	 0.126575
H	-0.0176479667	 1.7422283212	-1.0523310192	 0.168363
H	-0.7926759807	 1.9128258787	 0.5414342104	 0.126574
H	-1.0317064363	-2.6990480447	-0.9482330653	 0.138412
H	 0.7193297669	-2.7546930176	-1.0700378237	 0.138416
H	 0.8650220266	-3.9517737046	 1.555627035	 0.124136
H	 0.1023184937	-3.0136247259	 2.843737653	 0.121039
H	-0.8882640065	-3.8961292452	 1.6771508085	 0.124137
H	 1.0820796034	 0.4754493337	 2.620126291	 0.135957
H	-0.67572091	 0.531067759	 2.7426270072	 0.135957
H	 0.2057014503	-0.8786295809	 3.3446896139	 0.136848
103.5187	133.0919	141.5667	156.5575	187.6585	221.7415	275.5156	285.1643	294.0527	337.0547	527.4723	529.518	564.3876	601.8976	607.7284	711.8781	832.8909	925.7968	955.6116	995.1114	1054.382	1066.6919	1095.9822	1107.7565	1153.3703	1154.4135	1172.0057	1217.6831	1298.2928	1360.0339	1388.2303	1415.9738	1428.8949	1438.1899	1451.1136	1475.045	1478.6294	1489.2797	1495.5329	1500.3094	1513.9927	1735.8768	1812.3594	3008.3181	3021.5334	3030.0199	3034.0754	3046.5461	3064.1222	3071.6298	3078.1182	3107.9412	3139.0546	3140.9535
CN1C(=O)CC(C)=C1C	CN1C(=O)CC(=C1C)C	
InChI=1S/C7H11NO/c1-5-4-7(9)8(3)6(5)2/h4H2,1-3H3	InChI=1S/C7H11NO/c1-5-4-7(9)8(3)6(5)2/h4H2,1-3H3
