23
gdb 115604	2.7434	1.03115	0.9351	1.4075	82.19	-0.2432	0.0712	0.3144	1401.0598	0.203617	-425.404227	-425.393649	-425.392705	-425.439843	38.701	
C	 0.0002312768	 1.3639911949	-0.310333865	-0.238397
O	-0.0190217585	 0.0826503377	 0.2765683272	-0.24304
C	-1.2636748592	-0.5564362883	 0.1773871153	 0.125886
C	-1.7104269844	-1.1519377466	-1.1857059559	-0.270311
C	-2.1806088063	-2.4198758711	-0.4201456004	-0.254976
C	-1.3260388328	-1.9773342087	 0.8104196469	 0.266739
C	 0.0384436164	-2.6687197775	 0.8501657084	-0.453029
C	-2.0222008735	-2.0307540122	 2.1705509674	-0.129653
O	-2.3236379258	-3.3490531406	 2.6056908844	-0.425181
H	 1.0005245672	 1.7772469372	-0.1596901694	 0.126164
H	-0.2079787381	 1.326703693	-1.3900876475	 0.109013
H	-0.7367182022	 2.0357725529	 0.1581681672	 0.103713
H	-2.0528643901	 0.0920906003	 0.5949009421	 0.056237
H	-2.4558004536	-0.6007854883	-1.7634350267	 0.095085
H	-0.8452887335	-1.3518143913	-1.8239885658	 0.108165
H	-3.2517405294	-2.4088888788	-0.2023124827	 0.103308
H	-1.9301513532	-3.3856593269	-0.8639604185	 0.100293
H	 0.5437544449	-2.6212673443	-0.1177978625	 0.122153
H	 0.7001507597	-2.2002328917	 1.5854636859	 0.121882
H	-0.0812735079	-3.7280730487	 1.1043617043	 0.102376
H	-1.4149212859	-1.4910619958	 2.9162525058	 0.089222
H	-2.988929465	-1.5184925778	 2.1075026276	 0.099619
H	-1.4958811555	-3.7823877375	 2.8333232818	 0.284731
69.1709	87.0295	109.8028	175.7099	188.7106	212.9611	229.8273	297.6942	316.6518	326.9896	354.9129	376.1009	479.1664	549.3644	652.897	743.5172	802.0534	884.3007	909.0404	941.8201	955.4775	975.6433	998.1041	1038.5778	1065.1802	1111.1318	1139.3866	1150.5777	1175.682	1184.6761	1196.3781	1223.4435	1244.326	1253.9605	1267.8898	1305.3883	1325.6085	1376.4582	1392.5792	1406.917	1421.7667	1477.602	1480.8992	1486.5769	1490.0368	1495.3924	1499.1606	1507.8744	1510.1359	2950.0477	2968.8778	2973.8472	3021.4281	3030.9609	3058.3665	3060.2919	3064.9582	3097.4147	3106.1107	3113.2511	3114.9439	3122.3912	3830.1712
COC1CCC1(C)CO	CO[C@H]1CC[C@]1(C)CO	
InChI=1S/C7H14O2/c1-7(5-8)4-3-6(7)9-2/h6,8H,3-5H2,1-2H3	InChI=1S/C7H14O2/c1-7(5-8)4-3-6(7)9-2/h6,8H,3-5H2,1-2H3/t6-,7+/m0/s1
