25
gdb 77499	1.81761	1.67382	1.22231	0.1274	94.	-0.2755	0.0879	0.3634	1241.3753	0.2272	-352.328345	-352.317958	-352.317014	-352.362595	40.042	
C	-0.130230871	 1.6405367538	 0.1614651747	-0.44797
C	 0.0041572331	 0.1229898466	 0.115228138	-0.021837
C	 1.1335401768	-0.5844946973	-0.7122372563	 0.317508
C	 1.3526987396	-0.5218742723	-2.2015913097	-0.518343
C	 2.130114904	-0.1596753373	 0.4095461566	-0.314302
C	 0.8629149301	-0.6655944632	 1.1646893426	 0.317543
C	 0.6523821903	-0.7318818031	 2.6551286924	-0.518353
C	 0.8762643885	-1.8665819995	 0.1549861685	-0.012374
C	-0.3252409488	-2.7781458286	-0.0576442146	-0.452538
H	 0.8146170602	 2.1663657926	 0.3188049343	 0.115322
H	-0.5615118742	 2.0139647358	-0.7746113974	 0.11387
H	-0.8099758007	 1.9389319204	 0.9680742882	 0.113879
H	-0.990936133	-0.3012967951	-0.0465675041	 0.051859
H	 1.5031398715	 0.5099718941	-2.5385905496	 0.116702
H	 2.2365759431	-1.0993208204	-2.4955586007	 0.115363
H	 0.4924351179	-0.9274784078	-2.7464116711	 0.115169
H	 3.0298683502	-0.775206271	 0.5126790174	 0.078921
H	 2.3800837578	 0.899005777	 0.4913334648	 0.083478
H	 0.6878405641	 0.2659408697	 3.1067921638	 0.116696
H	-0.3210747638	-1.1727503028	 2.8988801546	 0.115172
H	 1.425172265	-1.3418683751	 3.1365939352	 0.115366
H	 1.7767889961	-2.4860645327	 0.2580509116	 0.050808
H	-1.2739723115	-2.2481967436	-0.1714842496	 0.117936
H	-0.1833437279	-3.3915941145	-0.9548793818	 0.115062
H	-0.4345787975	-3.4670011156	 0.7879320822	 0.115061
142.8494	173.1105	175.425	186.4486	193.3128	197.1417	198.395	208.3582	281.4555	390.5881	406.5852	453.5146	553.04	582.601	599.2035	650.5859	735.542	763.963	775.9165	815.915	907.8482	1002.9491	1004.6078	1013.6863	1015.1723	1041.2302	1084.9555	1098.8611	1111.3814	1142.2331	1142.3725	1155.6948	1180.0171	1198.9813	1209.6866	1225.2824	1299.7971	1338.1256	1397.7162	1403.9362	1405.3203	1412.5038	1424.8898	1436.9606	1487.4666	1488.5743	1490.019	1490.8143	1495.9136	1498.8946	1501.438	1506.0221	1537.689	3011.3897	3021.2718	3021.5309	3028.9483	3031.3359	3048.6587	3062.338	3081.1535	3082.3868	3087.1471	3087.2602	3088.1372	3088.318	3109.6794	3118.552	3125.9816
CC1C2(C)CC1(C)C2C	C[C@H]1[C@@]2(C)C[C@]1(C)[C@H]2C	
InChI=1S/C9H16/c1-6-8(3)5-9(6,4)7(8)2/h6-7H,5H2,1-4H3	InChI=1S/C9H16/c1-6-8(3)5-9(6,4)7(8)2/h6-7H,5H2,1-4H3/t6-,7-,8-,9+
