18
gdb 6127	2.87213	1.77885	1.52362	1.0343	68.62	-0.2461	-0.0267	0.2194	949.9109	0.150336	-384.957182	-384.948093	-384.947148	-384.990606	32.627	
C	-0.2201919487	 1.1620522955	-1.4483159166	-0.407078
C	 0.3170493904	-0.1329810771	-0.8638843528	 0.036306
O	 1.7107020781	-0.3876544916	-1.1659457554	-0.347185
C	 2.1156033967	-0.4987688856	 0.2345228598	 0.293956
C	 2.5481416857	-1.9195660157	 0.5818481354	-0.425218
C	 3.1564764435	 0.5483863505	 0.6099691153	-0.424404
C	 0.6656994622	-0.1603515249	 0.6299414292	 0.291595
O	 0.0819572534	 0.03117742	 1.653832728	-0.290707
H	 0.3813115746	 2.0178434392	-1.1299671383	 0.12682
H	-0.2059717955	 1.116668361	-2.5411483482	 0.134542
H	-1.2526863875	 1.3179100066	-1.1205610822	 0.13452
H	-0.3151490888	-0.9820433941	-1.1634374949	 0.10309
H	 3.4729592509	-2.1658437079	 0.0504556403	 0.130247
H	 2.7280860191	-2.0123535791	 1.6571215775	 0.131974
H	 1.7840088175	-2.6465043189	 0.2935421417	 0.124014
H	 2.8238869064	 1.551809696	 0.3325898618	 0.124762
H	 3.341904919	 0.5282655115	 1.6880671731	 0.132989
H	 4.0977904429	 0.3424773847	 0.0904801964	 0.129777
71.1538	157.1987	169.0274	194.1192	201.3636	207.1034	275.2176	316.7503	360.0689	428.0067	527.0535	621.2668	696.7394	737.2805	840.4988	869.8352	935.436	957.0586	987.8181	1008.9847	1056.1968	1077.5299	1122.2742	1184.2461	1211.4819	1275.0041	1278.1321	1355.1464	1392.1904	1400.4037	1410.3996	1470.1582	1478.2553	1481.2594	1492.5483	1494.9552	1502.0224	1914.321	2997.0518	3037.6425	3041.4984	3042.5041	3111.2078	3115.7176	3118.6974	3119.9399	3122.1648	3125.096
CC1OC(C)(C)C1=O	C[C@H]1OC(C)(C)C1=O	
InChI=1S/C6H10O2/c1-4-5(7)6(2,3)8-4/h4H,1-3H3	InChI=1S/C6H10O2/c1-4-5(7)6(2,3)8-4/h4H,1-3H3/t4-/m1/s1
