15
gdb 45677	3.1818	1.685	1.15838	2.8272	71.95	-0.217	-0.0227	0.1943	993.2129	0.11491	-416.837444	-416.830685	-416.829741	-416.868646	26.655	
O	-0.2399660395	-0.0310657602	 0.0901815733	-0.286105
C	-0.1046968048	 1.1570608854	 0.0741557017	 0.353147
C	-1.219031699	 2.2439741668	 0.0316086619	-0.268893
N	-0.6391767418	 3.4475560445	 0.642273298	-0.313909
C	 0.6249546582	 3.2744813307	 0.6308422582	 0.387502
N	 1.6349216803	 3.9510842044	 1.2923779776	-0.364943
C	 2.6460827741	 2.9902660083	 1.5524815354	-0.022842
C	 2.4413858622	 1.8300088177	 0.9095604	-0.182722
C	 1.1958378217	 1.9933730434	 0.077801938	-0.214689
H	-1.5056130726	 2.4039379555	-1.018584573	 0.131054
H	-2.1180964371	 1.9209852148	 0.5652510919	 0.135913
H	 1.3881335418	 4.6403208054	 1.9882035181	 0.259716
H	 3.4739800547	 3.273768734	 2.1873763447	 0.131202
H	 3.1163002272	 0.9889963875	 0.881551553	 0.118964
H	 1.4499919546	 2.0976423916	-0.9919760188	 0.136604
108.2172	199.5644	288.7276	326.7937	449.0446	517.7132	552.8462	592.0366	646.0328	663.1224	718.254	742.4821	800.3081	865.226	910.2877	924.6651	945.5285	1015.1544	1047.9641	1055.33	1100.2752	1136.7938	1176.3336	1186.6809	1242.0138	1278.8883	1297.015	1372.9699	1403.8288	1465.8792	1641.5682	1736.9241	1877.4868	2957.121	3004.4843	3085.2449	3234.469	3263.5785	3608.9531
O=C1CN=C2NC=CC12	O=C1C[N][C]2NC=C[C@@H]12	
InChI=1S/C6H6N2O/c9-5-3-8-6-4(5)1-2-7-6/h1-2,4H,3H2,(H,7,8)	InChI=1S/C6H6N2O/c9-5-3-8-6-4(5)1-2-7-6/h1-2,4H,3H2,(H,7,8)/t4-/m0/s1
