15
gdb 5694	4.77697	2.07493	1.48168	1.5175	67.28	-0.1758	0.0367	0.2126	812.4951	0.122559	-362.677774	-362.671658	-362.670714	-362.707919	23.979	
C	 0.0035120581	 1.4093477619	 0.0620658041	-0.164713
C	 1.4815895401	 1.9231649876	-0.0780174008	-0.349063
C	 2.2424377172	 0.6306168165	 0.0356197094	 0.207256
C	 1.3571244123	-0.3861628766	-0.0720232331	 0.377309
N	 0.0232291899	-0.0498906647	-0.2809252988	-0.404837
O	 1.9309804714	-1.5964132562	-0.0995481949	-0.20703
C	 3.2932242328	-1.3385475399	-0.0004693412	-0.03129
C	 3.530229363	 0.0018431463	 0.0680891443	-0.345508
H	-0.3350467942	 1.5482595893	 1.0965916248	 0.10723
H	-0.6879412177	 1.938239566	-0.5976390697	 0.114543
H	 1.6340221825	 2.4067579644	-1.0519926806	 0.113335
H	 1.7079937177	 2.6714609521	 0.6882656124	 0.108689
H	-0.6469265035	-0.5923447169	 0.2523996249	 0.238267
H	 3.9201818873	-2.2125110519	 0.0320253662	 0.128607
H	 4.5041959132	 0.4598970321	 0.1498760333	 0.107205
140.926	210.8228	280.9652	432.7336	577.6354	600.4107	637.0409	676.0406	709.0363	718.2959	819.8983	833.4717	855.9041	918.5414	940.9124	1013.4377	1028.9466	1075.0888	1097.6206	1154.526	1196.5785	1241.2785	1256.2473	1303.7395	1312.5921	1359.3952	1416.429	1493.4722	1502.8407	1516.0566	1540.4166	1668.8467	3012.0912	3018.5829	3062.131	3098.121	3247.5998	3295.2499	3533.1064
C1CC2=C(N1)OC=C2	C1Cc2c(N1)occ2	
InChI=1S/C6H7NO/c1-3-7-6-5(1)2-4-8-6/h2,4,7H,1,3H2	InChI=1S/C6H7NO/c1-3-7-6-5(1)2-4-8-6/h2,4,7H,1,3H2
