18
gdb 27888	1.94265	1.73621	0.92732	1.401	83.66	-0.2246	-0.0121	0.2125	1256.2171	0.147925	-402.041132	-402.032263	-402.031318	-402.076045	32.482	
C	 0.0804394391	 1.5456760152	 0.0084028435	-0.492207
C	 0.044344984	 0.0394610721	-0.0168406058	 0.348054
C	-0.057919634	-0.6602955312	-1.2089266922	-0.315344
C	-0.0886792172	-2.058247094	-1.1494669208	 0.436206
O	-0.1884116178	-2.7492371181	-2.3062818123	-0.420918
N	-0.0260836615	-2.7601082959	-0.0287743854	-0.429734
C	 0.0737024844	-2.0852561001	 1.1318139893	 0.334807
C	 0.142706699	-2.9240473701	 2.3802743603	-0.46591
C	 0.1113029169	-0.6980796104	 1.1752947998	-0.266654
H	 0.9860174762	 1.9080016105	 0.5069994569	 0.136495
H	 0.0557252602	 1.9652330833	-1.0001345989	 0.127817
H	-0.77329845	 1.9482397895	 0.5648912975	 0.137539
H	-0.1134125491	-0.1595907971	-2.167989312	 0.100874
H	-0.1933802968	-3.6826437062	-2.0516978921	 0.29409
H	 0.2223389253	-2.3063082668	 3.2777269138	 0.117615
H	-0.7486387169	-3.5541222034	 2.4665860766	 0.136848
H	 1.0053596254	-3.5972502181	 2.3406384571	 0.13685
H	 0.1925940028	-0.1875098191	 2.1289376449	 0.083573
20.0764	80.4319	182.6226	209.6474	240.245	271.9173	308.5575	498.0672	518.5365	539.83	553.4082	554.1379	607.4624	644.1675	771.0471	857.9168	883.632	959.0773	970.7374	1002.83	1037.2805	1059.0602	1060.5633	1070.0951	1174.1469	1192.5493	1276.222	1323.006	1384.588	1407.8564	1416.1843	1450.8031	1475.5902	1482.6492	1487.4967	1503.4618	1518.1952	1618.3841	1660.7002	3034.7564	3039.4842	3089.878	3097.8901	3121.3251	3126.45	3181.7892	3202.7431	3763.9982
CC1=CC(O)=NC(C)=C1	Cc1cc(O)nc(C)c1	
InChI=1S/C7H9NO/c1-5-3-6(2)8-7(9)4-5/h3-4H,1-2H3,(H,8,9)	InChI=1S/C7H9NO/c1-5-3-6(2)8-7(9)4-5/h3-4H,1-2H3,(H,8,9)
