17
gdb 18738	3.02723	2.25065	1.56672	3.6313	67.96	-0.2419	0.027	0.2689	847.199	0.143279	-363.873996	-363.866763	-363.865819	-363.905434	27.722	
C	-0.1715947009	 1.5721705612	 0.0111855119	-0.405273
C	 0.0407279919	 0.0647585998	 0.0026478756	 0.031054
C	 1.1466691772	-0.5423181724	-0.9213111864	-0.259565
C	 1.779778418	-1.2611257891	 0.3035406638	 0.023109
N	 2.7939079693	-0.4869865461	 1.0219274815	-0.320913
C	 1.8942502579	 0.1926959025	 1.8265214304	 0.422927
O	 2.0326306141	 1.08817518	 2.6160154947	-0.36519
C	 0.7125614814	-0.6129165142	 1.2461764516	-0.207913
H	 0.7570013278	 2.1103503168	 0.2239158297	 0.132293
H	-0.5465700646	 1.9128867221	-0.9601418936	 0.112361
H	-0.9007002715	 1.8635818059	 0.7743355457	 0.124973
H	-0.9126667536	-0.435236496	-0.1924415542	 0.083227
H	 0.7593872974	-1.2197678796	-1.6859485247	 0.106374
H	 1.8106412544	 0.1817304479	-1.4015686641	 0.099688
H	 1.973770434	-2.3323931103	 0.2453116864	 0.086406
H	 3.7151955379	-0.1943164956	 0.7227800754	 0.243098
H	 0.0856192293	-1.1622235429	 1.9460999462	 0.093344
94.5626	141.8479	216.3814	313.5745	382.6517	388.6008	472.595	521.1631	632.2796	713.3676	759.7763	812.1274	857.0191	866.8325	908.1193	944.4655	967.4954	998.9795	1067.7626	1104.0109	1122.6315	1134.7513	1152.4884	1182.0925	1216.2422	1233.9515	1267.8175	1306.9824	1330.8195	1362.4714	1366.3718	1418.0214	1477.3683	1492.0197	1495.9022	1882.7085	3032.7337	3052.8411	3059.595	3098.6678	3103.5673	3109.9147	3117.2525	3136.5113	3574.8737
CC1CC2NC(=O)C12	C[C@H]1C[C@H]2NC(=O)[C@@H]12	
InChI=1S/C6H9NO/c1-3-2-4-5(3)6(8)7-4/h3-5H,2H2,1H3,(H,7,8)	InChI=1S/C6H9NO/c1-3-2-4-5(3)6(8)7-4/h3-5H,2H2,1H3,(H,7,8)/t3-,4+,5-/m0/s1
