18
gdb 126260	3.15924	1.21297	0.93999	4.1653	75.84	-0.2225	0.0169	0.2395	1276.573	0.147092	-435.27243	-435.262899	-435.261955	-435.307709	33.386	
C	-0.2539410086	 1.6319181193	 0.0766630752	-0.362973
C	 0.1218749528	 0.1454711557	-0.0357278194	-0.300534
C	 0.8829232661	-0.3632811876	 1.1478291513	 0.195895
C	 2.1970134834	-0.769279127	 1.2504724773	 0.29242
O	 3.2308402021	-0.8776592377	 0.3881633674	-0.431285
N	 2.3749048936	-1.1157054145	 2.5428258498	 0.012347
C	 3.5662278837	-1.6163187881	 3.1914318415	-0.330156
N	 1.2154138685	-0.9339977828	 3.2324831651	-0.169064
N	 0.3326169493	-0.4853958869	 2.391756587	-0.252533
H	 0.6395192227	 2.2611681889	 0.1417021517	 0.112097
H	-0.8394211259	 1.9555668869	-0.789539718	 0.109566
H	-0.8477176466	 1.8013712166	 0.9786296871	 0.145471
H	-0.7900326479	-0.4505516468	-0.158515016	 0.127408
H	 0.7115175397	-0.0193217956	-0.9488803329	 0.07406
H	 2.9327620876	-0.6047018979	-0.4861117451	 0.313914
H	 4.3792970747	-0.8880600006	 3.1247588016	 0.148037
H	 3.3105110724	-1.7873883466	 4.2369368874	 0.167103
H	 3.8918472924	-2.5541913554	 2.7329140589	 0.148228
33.7974	89.0864	110.4262	190.9887	210.2191	259.7001	266.2102	284.574	304.9627	415.3127	519.9286	594.2388	686.778	727.1575	756.2622	769.4659	801.9694	970.5828	1018.6396	1058.6484	1065.1555	1090.2119	1154.4185	1224.1144	1249.5764	1287.4892	1312.0483	1337.5497	1355.4054	1391.6765	1409.5905	1443.8506	1477.41	1481.7451	1495.6753	1506.9422	1507.5276	1584.0293	1639.7642	3004.3142	3038.3582	3050.1936	3054.0839	3107.3336	3114.1286	3124.8951	3164.5216	3824.9649
CCC1=C(O)N(C)N=N1	CCc1c(O)n(C)nn1	
InChI=1S/C5H9N3O/c1-3-4-5(9)8(2)7-6-4/h9H,3H2,1-2H3	InChI=1S/C5H9N3O/c1-3-4-5(9)8(2)7-6-4/h9H,3H2,1-2H3
