17
gdb 36255	5.4105	1.01087	0.97624	1.1078	78.15	-0.2229	0.0383	0.2611	1220.648	0.135378	-380.70044	-380.692915	-380.691971	-380.732802	29.521	
C	 0.0186865637	-1.2858580847	 0.0070320801	-0.442909
C	-0.0087534954	-0.0880729188	-0.08261223	 0.319355
C	-0.0428118865	 1.3686775105	-0.1650111883	-0.31767
N	 1.307568343	 1.9412211587	-0.0618268863	-0.124444
C	 1.8886021375	 1.9660716209	 1.3148335519	-0.031838
C	 2.720771247	 3.2452222345	 0.9850221384	-0.03112
N	 2.2727579719	 4.0424605184	 2.170773675	-0.347861
C	 1.070746203	 3.2227159153	 1.8145380224	-0.04704
C	 1.3479876817	 3.3965559233	 0.277777264	-0.003441
H	 0.0410235576	-2.3453421506	 0.0738020471	 0.197552
H	-0.4587256137	 1.6723723232	-1.1341969662	 0.134294
H	-0.7346731439	 1.7519928552	 0.6067392032	 0.112953
H	 2.1845115901	 1.0661627239	 1.8565187443	 0.092464
H	 3.7118835001	 3.3097624901	 0.538007126	 0.094728
H	 2.7056482742	 3.6770553637	 3.0232419941	 0.210629
H	 0.1365053841	 3.2854193459	 2.3729198492	 0.090339
H	 1.0135232555	 4.1888318806	-0.392079185	 0.094007
59.6637	123.313	231.3072	287.7853	343.5132	441.8713	507.0348	590.4174	612.9728	658.2537	744.3742	764.7697	791.2901	815.9804	842.0044	898.6979	906.0838	939.5774	970.7668	990.2026	1038.0658	1042.2131	1083.3562	1099.7366	1108.0361	1153.4923	1161.7864	1168.4219	1177.6041	1216.3755	1263.5674	1291.2606	1296.1645	1343.5981	1375.8978	1481.4999	2242.2679	2939.4006	3036.6465	3104.5035	3113.5619	3121.6036	3137.0149	3401.5723	3506.6281
C#CCN1C2C3NC2C13	C#CCN1[C@H]2[C@@H]3N[C@H]2[C@H]13	
InChI=1S/C7H8N2/c1-2-3-9-6-4-7(9)5(6)8-4/h1,4-8H,3H2	InChI=1S/C7H8N2/c1-2-3-9-6-4-7(9)5(6)8-4/h1,4-8H,3H2/t4-,5+,6-,7+
