20
gdb 100732	2.8381	1.02219	0.80385	3.3129	72.24	-0.2584	0.0211	0.2795	1441.5493	0.169346	-477.463924	-477.453715	-477.452771	-477.499201	37.839	
C	-0.0536831395	 1.6070905202	 0.0250916388	-0.387745
C	 0.1031445085	 0.0849456759	-0.0191711914	-0.190346
C	 0.6466469908	-0.5007059003	 1.2830413351	 0.087684
O	-0.2226229913	-0.2172984823	 2.392175073	-0.431544
C	 0.8870334238	-2.0260698267	 1.1779594309	 0.024792
O	 1.5939268833	-2.3389129327	 0.0114195415	-0.435755
C	 1.6776582534	-2.5957807245	 2.3768259738	 0.36914
N	 1.2040393118	-2.3120780692	 3.6095085503	-0.517491
O	 2.6604393108	-3.2902538442	 2.1588000483	-0.386112
H	 0.9155044612	 2.0965211527	 0.1702199286	 0.119721
H	-0.4805583465	 1.983439018	-0.9090116652	 0.11575
H	-0.7053935365	 1.9165924343	 0.8472614864	 0.118997
H	-0.8656019559	-0.3910337349	-0.2372207415	 0.084071
H	 0.7760719808	-0.2149769303	-0.8264272333	 0.137518
H	 1.5936210492	-0.0090442439	 1.5363943449	 0.100049
H	-1.1182457328	-0.4543533051	 2.1232016675	 0.286142
H	-0.1064844813	-2.5128834094	 1.1736652319	 0.07599
H	 2.3307402677	-2.8968143136	 0.324010852	 0.296154
H	 0.5278330018	-1.5654444476	 3.7027193389	 0.272063
H	 1.7590472605	-2.5948357662	 4.4017044495	 0.260924
70.1861	79.9582	109.3841	165.317	217.0735	283.6355	286.4426	339.1591	344.3064	398.3183	406.7187	473.5427	515.8119	524.2503	564.2519	631.0708	677.0093	743.964	782.6676	857.9488	907.8238	978.7773	1035.0641	1077.9556	1114.5756	1118.9735	1133.1938	1168.3399	1223.9866	1254.7147	1297.5247	1322.9108	1353.2117	1376.0078	1394.8738	1403.8412	1413.9322	1465.8731	1485.0149	1496.7267	1508.1478	1611.6996	1781.4627	2925.5064	2993.6198	3038.1927	3048.7169	3096.6684	3107.3685	3119.4586	3533.752	3597.8685	3688.5473	3789.1084
CCC(O)C(O)C(N)=O	CC[C@@H](O)[C@@H](O)C(=O)N	
InChI=1S/C5H11NO3/c1-2-3(7)4(8)5(6)9/h3-4,7-8H,2H2,1H3,(H2,6,9)	InChI=1S/C5H11NO3/c1-2-3(7)4(8)5(6)9/h3-4,7-8H,2H2,1H3,(H2,6,9)/t3-,4-/m1/s1
