18
gdb 131848	5.505	0.76468	0.69445	4.8474	75.79	-0.1933	0.0448	0.2381	1582.5629	0.149673	-435.269705	-435.260844	-435.2599	-435.304164	32.205	
O	-0.0501830784	 1.4168950112	-0.2259000018	-0.422157
C	 0.0052398368	 0.0156478731	 0.0202654054	-0.097394
C	-1.4278394706	-0.4877205126	 0.0595924393	-0.120193
N	-2.0725747812	-0.2022538115	-1.2133341075	-0.414839
C	-3.4026215059	-0.5681979003	-1.3522535124	 0.463228
C	-4.2374336899	-1.3585571439	-0.5785097505	-0.303453
C	-5.4515202351	-1.3984606073	-1.3027134227	-0.004516
N	-5.4007419828	-0.699044128	-2.4265129593	-0.236783
N	-4.1341071858	-0.200094418	-2.4369449696	-0.284713
H	 0.8398427239	 1.7326532927	-0.4048074347	 0.295035
H	 0.55355882	-0.5041108013	-0.7784816499	 0.102839
H	 0.496450268	-0.2046940565	 0.9792665234	 0.097183
H	-1.4248506918	-1.5704853658	 0.2266053889	 0.118302
H	-1.9547540619	-0.0218521179	 0.9081818132	 0.108816
H	-1.8731282835	 0.7492230963	-1.4985879285	 0.242918
H	-4.0079124288	-1.8213770208	 0.3662276853	 0.091508
H	-6.3652565305	-1.9101223263	-1.0354640691	 0.102015
H	-3.8249141024	 0.3369057368	-3.2284575695	 0.262205
58.1203	66.2822	128.1512	185.1481	267.8251	293.3048	303.4557	410.2047	443.7919	487.3325	635.2231	674.0721	700.0668	752.2893	776.6399	889.1583	897.3968	927.3286	933.5791	1040.7987	1064.8361	1094.138	1099.8764	1111.3289	1147.372	1206.8458	1254.4978	1264.0324	1289.9753	1310.4474	1377.2466	1386.8004	1438.2882	1459.3416	1475.9821	1505.767	1513.133	1551.8447	1629.4249	2974.0594	2990.2983	3031.0569	3067.131	3237.133	3275.8596	3553.1362	3678.4423	3840.4302
OCCNC1=CC=NN1	OCCNc1ccn[nH]1	
InChI=1S/C5H9N3O/c9-4-3-6-5-1-2-7-8-5/h1-2,9H,3-4H2,(H2,6,7,8)	InChI=1S/C5H9N3O/c9-4-3-6-5-1-2-7-8-5/h1-2,9H,3-4H2,(H2,6,7,8)
