23
gdb 102175	2.19794	1.06172	0.77695	0.7717	91.77	-0.2551	0.0573	0.3124	1540.3597	0.203677	-351.115809	-351.105365	-351.104421	-351.151494	38.978	
C	 0.6245525132	-0.2681716415	 1.4704732352	-0.387193
C	 0.021872317	-0.1238299578	 0.0701958833	-0.176511
C	-1.4115381584	-0.6668490607	-0.0764146587	 0.00868
C	-1.9996389994	-0.2985973705	-1.4657465171	-0.364865
C	-2.1368814894	 1.135199299	-1.6906832242	 0.301331
C	-2.2551628275	 2.3209879318	-1.8526858095	-0.447373
C	-1.4932904024	-2.1700546527	 0.1261315714	 0.035968
C	-1.7287959547	-2.7700659088	 1.4899061026	-0.276442
C	-2.813673389	-2.8292122936	 0.4446209008	-0.282269
H	 1.6224768611	 0.1799495911	 1.5101023103	 0.109942
H	 0.0061943471	 0.2374980599	 2.2209175874	 0.111217
H	 0.7174367309	-1.3161273842	 1.7682377044	 0.12282
H	 0.0186487434	 0.9342300698	-0.2143446406	 0.110302
H	 0.666147903	-0.6334671733	-0.6604519722	 0.088136
H	-2.0437931602	-0.184772698	 0.6825556305	 0.075747
H	-1.3633477401	-0.7325497804	-2.2494784004	 0.123406
H	-2.9808170127	-0.7761224634	-1.5735793711	 0.129535
H	-2.3608096763	 3.3658785453	-2.0078197618	 0.191493
H	-0.8334277929	-2.7364227447	-0.5291424493	 0.078762
H	-1.2096229212	-3.6863272086	 1.7492968108	 0.110744
H	-1.869426883	-2.0905614914	 2.3237157024	 0.114049
H	-3.6784947406	-2.1873985013	 0.5815294225	 0.111739
H	-3.0411939978	-3.7860202958	-0.0120259464	 0.110782
69.1231	80.128	105.3832	132.401	185.0717	234.5432	256.9167	308.5569	347.668	353.7359	414.8761	455.7807	558.4944	611.9006	634.6318	744.1252	787.7131	818.8889	827.4528	868.5655	916.3335	936.9001	973.5374	986.0401	1023.615	1038.2281	1058.6108	1078.5465	1105.0781	1122.2045	1139.5249	1188.0927	1200.2961	1226.8392	1233.5104	1281.9794	1305.412	1333.382	1355.5125	1382.7894	1410.159	1422.193	1468.8254	1471.5997	1488.9824	1499.8873	1503.9539	1510.345	2234.1826	3002.1249	3010.6778	3019.9628	3034.5368	3055.9291	3064.0695	3096.5691	3115.6351	3118.1084	3126.8933	3133.3862	3205.3405	3220.7826	3507.1649
CCC(CC#C)C1CC1	CC[C@@H](CC#C)C1CC1	
InChI=1S/C9H14/c1-3-5-8(4-2)9-6-7-9/h1,8-9H,4-7H2,2H3	InChI=1S/C9H14/c1-3-5-8(4-2)9-6-7-9/h1,8-9H,4-7H2,2H3/t8-/m0/s1
