22
gdb 88102	2.39306	1.45878	1.0535	1.5048	89.81	-0.2156	0.0249	0.2406	1242.7172	0.194463	-367.216848	-367.207535	-367.206591	-367.250813	35.475	
C	 0.0253253617	 1.4079741131	-0.3396071353	-0.397254
C	 0.1573775992	-0.0720282978	-0.0705814083	-0.055976
N	 1.5220206965	-0.6008361215	 0.0985152887	-0.382345
C	 0.5812317756	-0.6209578922	 1.2484301009	 0.267744
C	 0.9236199775	 0.2427838133	 2.4686146898	-0.291872
C	 0.8834019747	-0.7272737216	 3.6793978957	-0.270754
C	 0.2355692372	-1.966952541	 3.1163017726	-0.174876
C	 0.0640973834	-1.9181044159	 1.7918772963	 0.274418
C	-0.5334512717	-2.9872219245	 0.9286198321	-0.511433
H	 0.7572421136	 1.9768079319	 0.2386649681	 0.12743
H	 0.1945696373	 1.6241433049	-1.4000796485	 0.117785
H	-0.9771968173	 1.7654438749	-0.0791525609	 0.113139
H	-0.5355672398	-0.6908714255	-0.6405979048	 0.072716
H	 1.5984437874	-1.5278070443	-0.3148907343	 0.222243
H	 1.8934800164	 0.7274674225	 2.3425615152	 0.113863
H	 0.1742864206	 1.0315140181	 2.5933983369	 0.103127
H	 1.8877759223	-0.9497077045	 4.0646447191	 0.108096
H	 0.3218196689	-0.3104651866	 4.5236339353	 0.102345
H	-0.0379915456	-2.8142138121	 3.7370796781	 0.084896
H	-0.7303081909	-3.8942200375	 1.5056585318	 0.127032
H	-1.480314984	-2.6607898993	 0.4811692382	 0.130941
H	 0.127987877	-3.2620591645	 0.096692843	 0.118735
65.3003	147.2426	165.2951	176.238	198.755	235.2392	278.6776	356.372	444.0905	463.4815	517.6846	585.0058	641.4934	714.4934	767.89	824.1598	859.007	880.3775	923.6765	937.7801	986.521	1009.1608	1036.5153	1040.7781	1054.6356	1070.6535	1082.9669	1110.7072	1172.6251	1178.2781	1238.9714	1243.7758	1263.2182	1286.2276	1315.5733	1349.8631	1361.4339	1408.2978	1415.5514	1459.7432	1480.1599	1480.6208	1488.2841	1489.7784	1498.997	1501.7493	1713.2512	3013.9062	3016.4118	3032.8886	3041.8737	3056.5358	3061.5317	3092.774	3101.1263	3112.8031	3113.6896	3127.9657	3181.5161	3485.7808
CC1NC11CCC=C1C	C[C@H]1N[C@]21CCC=C2C	
InChI=1S/C8H13N/c1-6-4-3-5-8(6)7(2)9-8/h4,7,9H,3,5H2,1-2H3	InChI=1S/C8H13N/c1-6-4-3-5-8(6)7(2)9-8/h4,7,9H,3,5H2,1-2H3/t7-,8-/m1/s1
