14
gdb 27468	2.39939	1.75988	1.06465	4.1509	74.73	-0.2508	-0.0824	0.1684	1056.0799	0.102834	-436.741101	-436.733973	-436.733029	-436.772969	27.16	
O	-0.0728425043	 1.2898133757	-0.3435796822	-0.385814
C	 0.0317756837	-0.0245943028	-0.0546383505	 0.390526
N	 1.2043617542	-0.5453580661	-0.0654732823	-0.37157
C	 1.5463807844	-1.8584062424	 0.2398691824	 0.332822
O	 2.5871546828	-2.1131103742	 0.8106629274	-0.32751
C	 0.6808838119	-2.9712312905	-0.2224436588	-0.158572
C	-0.6665233788	-3.0052972542	-0.1908815872	-0.071843
C	-1.5573729739	-1.9243163518	 0.1532834795	-0.073779
C	-1.266417178	-0.608476569	 0.2342856672	-0.133358
H	 0.8321062725	 1.6031029954	-0.4919955041	 0.306333
H	 1.2311227639	-3.8740264787	-0.4711457645	 0.131772
H	-1.1512985487	-3.951189572	-0.4191334399	 0.114343
H	-2.593998607	-2.2069318221	 0.3177162529	 0.119613
H	-2.0584736128	 0.1040426425	 0.4369109901	 0.127035
80.8748	172.5047	256.7695	332.621	404.546	434.4035	459.1754	550.6497	595.1985	633.8185	665.1961	733.0908	807.1356	829.8824	854.1309	883.8726	974.9349	1010.2234	1013.7889	1029.3717	1185.4	1217.7363	1235.3787	1301.1998	1380.72	1424.0305	1484.9922	1606.04	1673.344	1695.9115	1764.3162	3152.7056	3167.5623	3184.3161	3196.5697	3746.5446
OC1=NC(=O)C=CC=C1	Oc1nc(=O)cccc1	
InChI=1S/C6H5NO2/c8-5-3-1-2-4-6(9)7-5/h1-4H,(H,7,8,9)	InChI=1S/C6H5NO2/c8-5-3-1-2-4-6(9)7-5/h1-4H,(H,7,8,9)
