15
gdb 126792	4.68395	1.08543	0.95009	5.5816	73.57	-0.2372	-0.0785	0.1587	1214.5357	0.112414	-450.090088	-450.082033	-450.081089	-450.123975	28.655	
C	-0.0260178873	 1.5589484032	 0.0885406451	-0.383592
C	-0.0158081774	 0.0397216577	-0.0622058312	-0.125424
N	-1.3664361733	-0.5310696733	-0.0107659855	 0.110176
N	-1.9645347154	-0.5797888263	 1.1858278375	-0.166157
C	-3.1706203109	-1.0533854425	 1.1914569225	-0.05915
C	-3.8541462552	-1.5035934092	-0.0177976255	 0.374307
O	-4.9776240142	-1.9547570413	-0.0383821504	-0.331071
N	-3.0919392014	-1.3738944445	-1.2162398291	-0.239681
N	-1.9102231807	-0.9051360641	-1.1767499908	-0.053649
H	 0.9999354142	 1.936906007	 0.0673943963	 0.134931
H	-0.583455508	 2.0275420477	-0.7272656671	 0.141624
H	-0.4809542298	 1.8497008428	 1.0389681983	 0.146426
H	 0.3971782713	-0.2660723102	-1.0240713968	 0.15303
H	 0.560214804	-0.4311404442	 0.7382359425	 0.141734
H	-3.6781839958	-1.1091930428	 2.1497601442	 0.156497
45.9922	54.1654	145.6401	219.0965	347.5927	383.6761	438.1448	470.3064	496.3208	544.3605	656.6491	751.1437	794.7905	795.7113	812.6193	948.1482	981.0358	1002.1722	1018.0354	1103.9359	1189.2748	1263.1607	1298.8973	1336.7854	1367.0864	1389.4396	1410.4538	1470.7472	1482.8637	1489.6	1504.0345	1617.4487	1798.067	3049.2465	3079.9928	3124.2182	3127.2981	3150.9099	3185.1734
CCN1N=CC(=O)N=N1	CCn1ncc(=O)nn1	
InChI=1S/C4H6N4O/c1-2-8-5-3-4(9)6-7-8/h3H,2H2,1H3	InChI=1S/C4H6N4O/c1-2-8-5-3-4(9)6-7-8/h3H,2H2,1H3
