19
gdb 89930	2.84672	1.36499	1.09019	3.5917	80.76	-0.243	0.0137	0.2567	1159.3425	0.160308	-382.053443	-382.045059	-382.044115	-382.086354	32.236	
C	-0.8335271286	 1.1331516275	-0.0001004511	-0.402495
C	 0.1137536845	-0.0514535478	 0.0413159737	 0.062199
N	 1.3524657678	 0.089069035	-0.780738765	-0.376353
C	 2.1862182769	-0.5483155337	 0.2763808133	 0.245037
C	 3.0432288095	 0.4866307439	 1.0489667436	-0.259002
C	 1.7884299674	 0.857119377	 1.8974531551	-0.235934
C	 0.9962046113	-0.3349833089	 1.2830271679	-0.113007
C	 2.742728455	-1.8453207928	-0.046393917	 0.188492
N	 3.1837555302	-2.8810149284	-0.3156844859	-0.345347
H	-0.3158586671	 2.0675603249	 0.2318114599	 0.125346
H	-1.2717978282	 1.2358339701	-0.9985621716	 0.122457
H	-1.6540611843	 0.9975853761	 0.7128715794	 0.118421
H	-0.4402303687	-0.9692981885	-0.204854319	 0.080403
H	 1.3469856858	-0.4005283914	-1.668691014	 0.231397
H	 3.8295984042	 0.0149680413	 1.643006009	 0.119122
H	 3.4735861816	 1.2675692296	 0.4203559562	 0.117614
H	 1.9371390057	 0.7809369802	 2.9757942711	 0.112902
H	 1.3660305574	 1.8393378371	 1.6796876561	 0.115788
H	 0.6630413196	-1.1081137509	 1.9723781083	 0.092962
85.4357	147.9125	172.5978	208.0736	248.2021	339.6412	374.7881	449.1212	536.5474	552.6705	571.7278	623.1595	727.115	755.8079	784.0362	857.4867	910.1486	945.9546	968.7924	982.2501	1034.6653	1038.7066	1090.8022	1108.636	1137.46	1140.3805	1185.46	1193.6897	1229.8791	1261.2953	1274.0968	1303.1123	1326.4746	1378.9701	1392.2179	1415.8221	1465.6374	1481.6375	1488.1456	1502.4419	2338.9786	2987.7865	3036.0028	3071.1171	3082.2061	3100.2688	3119.329	3123.479	3134.415	3143.0499	3539.449
CC1NC2(CCC12)C#N	C[C@H]1N[C@]2(CC[C@@H]12)C#N	
InChI=1S/C7H10N2/c1-5-6-2-3-7(6,4-8)9-5/h5-6,9H,2-3H2,1H3	InChI=1S/C7H10N2/c1-5-6-2-3-7(6,4-8)9-5/h5-6,9H,2-3H2,1H3/t5-,6+,7-/m1/s1
