18
gdb 46038	2.80128	1.42557	1.21483	3.6979	72.42	-0.2565	0.0315	0.2879	1082.1372	0.148896	-439.085376	-439.077472	-439.076528	-439.118387	29.774	
N	 0.2120158627	 1.1265851081	 0.0936425491	-0.541289
C	 0.1668236524	-0.1175107315	-0.1042222234	 0.427652
C	-0.7443530544	-1.1053185866	 0.5866579668	-0.295327
C	-0.7119467272	-2.3224693066	-0.3477004521	-0.24723
C	 0.6782121347	-2.1911025018	-1.0076527021	 0.053354
O	 0.9546981279	-0.7832020626	-1.0141459764	-0.247974
C	 1.7604332709	-2.9505158479	-0.2653666813	 0.077395
C	 3.0727239702	-2.3718655361	 0.0366990815	-0.176018
O	 2.067723045	-2.4975714285	 1.0518985943	-0.235512
H	 0.9264087248	 1.5585773768	-0.4951012181	 0.219289
H	-0.3156164189	-1.3459957563	 1.5633212975	 0.154459
H	-1.7359009109	-0.6798027181	 0.7411369425	 0.132786
H	-0.833958893	-3.2756574039	 0.1705934646	 0.116658
H	-1.491990386	-2.2477981351	-1.1106338176	 0.116114
H	 0.6751462321	-2.5266121028	-2.0504793595	 0.095753
H	 1.6795115266	-4.0353224724	-0.3641485116	 0.096576
H	 3.933177367	-3.028137721	 0.1542422633	 0.118268
H	 3.284189436	-1.3532475339	-0.2760680176	 0.135045
73.301	98.2591	147.006	239.6527	256.564	417.3364	466.3477	518.2176	562.1215	653.2921	749.3996	784.7851	814.2092	876.8499	889.1464	895.1791	920.1905	967.2316	984.5653	1022.8041	1049.1419	1076.2051	1103.053	1114.6569	1155.9054	1170.4531	1180.3608	1220.0749	1269.8052	1287.7571	1309.9718	1320.3253	1354.4188	1393.2332	1432.7098	1466.095	1497.0236	1522.7122	1784.1318	3049.6699	3066.4705	3078.2895	3089.3646	3102.058	3116.8995	3140.0154	3199.8787	3470.6307
N=C1CCC(O1)C1CO1	[NH][C]1CC[C@@H](O1)[C@H]1CO1	
InChI=1S/C6H9NO2/c7-6-2-1-4(9-6)5-3-8-5/h4-5,7H,1-3H2	InChI=1S/C6H9NO2/c7-6-2-1-4(9-6)5-3-8-5/h4-5,7H,1-3H2/t4-,5-/m1/s1
