23
gdb 109379	2.35821	1.31571	0.9876	1.1204	88.82	-0.2332	0.0268	0.26	1323.8984	0.206169	-388.310375	-388.300902	-388.299958	-388.344593	36.193	
C	 0.1634466421	 1.5451963972	-0.1567051695	-0.375137
C	-0.127319398	 0.0520575541	 0.0813123566	-0.279954
C	 0.6209318908	-0.5398071255	 1.2534957369	 0.308385
C	-0.0186392478	-0.9989652915	 2.3322536453	-0.175424
C	 0.693260088	-1.5092656095	 3.5548964724	-0.254416
C	 2.1490616203	-1.0492083035	 3.5173375851	-0.078811
O	 2.7207832346	-1.3213524563	 2.2525235987	-0.261045
C	 2.1419391887	-0.5730477131	 1.1908009377	 0.054807
C	 2.6821348916	-1.200452346	-0.0950279187	-0.402027
H	 1.2144936603	 1.7226022889	-0.4054907201	 0.120456
H	-0.440170029	 1.9281654655	-0.985396984	 0.113406
H	-0.0713542493	 2.1344714867	 0.7354429714	 0.119179
H	-1.2010691719	-0.0795349745	 0.2549390455	 0.099037
H	 0.1053905804	-0.5028290961	-0.8367378801	 0.104308
H	-1.1068641289	-0.9898883501	 2.3506017218	 0.076395
H	 0.2047342241	-1.1374903323	 4.4649891219	 0.098764
H	 0.6446267915	-2.6059327528	 3.6049904538	 0.11194
H	 2.2049854549	 0.0295153853	 3.7407796152	 0.085107
H	 2.7630334522	-1.5782011604	 4.2521492382	 0.101398
H	 2.5141845147	 0.4673838098	 1.2505115708	 0.069932
H	 2.2753181107	-2.2070727732	-0.2289770893	 0.123394
H	 2.4297454996	-0.5985942781	-0.9715425698	 0.115823
H	 3.7705623604	-1.2735047643	-0.02739078	 0.124483
72.14	88.1637	164.7931	214.8318	240.8457	280.9375	299.8536	324.093	385.1431	424.727	461.296	496.4956	630.8554	647.4254	755.8791	790.1907	858.5182	871.4291	891.9608	928.213	973.0985	1016.5174	1042.6064	1071.0623	1085.1041	1090.4814	1110.2474	1142.1362	1151.2595	1189.3571	1234.8297	1282.6555	1295.9778	1331.4155	1348.61	1356.3723	1368.6282	1387.6213	1403.9789	1408.8414	1415.7643	1471.4827	1477.1877	1490.8481	1497.2173	1500.4796	1502.1781	1508.1801	1728.7887	2915.5965	2965.5153	3009.4033	3021.263	3036.6524	3043.9915	3047.3297	3060.7972	3081.6801	3106.3577	3108.6529	3123.1279	3127.8758	3138.6694
CCC1=CCCOC1C	CCC1=CCCO[C@H]1C	
InChI=1S/C8H14O/c1-3-8-5-4-6-9-7(8)2/h5,7H,3-4,6H2,1-2H3	InChI=1S/C8H14O/c1-3-8-5-4-6-9-7(8)2/h5,7H,3-4,6H2,1-2H3/t7-/m0/s1
