18
gdb 39579	3.4502	1.56587	1.12891	2.1641	76.65	-0.2423	0.0086	0.2509	1049.5973	0.151397	-401.965526	-401.958736	-401.957791	-401.996568	27.596	
C	-0.051885577	 1.5466292274	-0.0186226165	-0.327715
C	 1.4311996578	 1.8906044897	-0.0081787533	-0.068597
C	 2.1722737046	 0.8961244272	 0.4917530193	-0.11579
C	 1.2780625373	-0.2359263306	 0.9448840038	-0.026075
C	 1.5988175544	-1.7211376291	 0.8280542777	-0.201966
N	 0.3723010076	-2.5108239638	 1.0188772634	-0.268807
C	-0.7627820926	-1.9578318459	 0.9293501286	 0.119403
O	-1.0878183888	-0.6770691657	 0.5807604262	-0.241956
C	 0.0453715704	 0.0238576434	 0.0744681099	 0.16616
H	-0.5656217648	 1.9615747507	 0.8603509999	 0.120433
H	-0.5830044822	 1.8992000162	-0.9073212287	 0.111225
H	 1.8094272154	 2.8485141924	-0.3457610475	 0.100532
H	 3.2470611166	 0.916675788	 0.6304495493	 0.099381
H	 0.9898373166	-0.0548744909	 1.99426407	 0.097265
H	 2.0335472964	-1.9678073525	-0.1495793857	 0.112817
H	 2.3220192944	-2.049990419	 1.5823388754	 0.110521
H	-1.6697634758	-2.5216713952	 1.1392427212	 0.121923
H	 0.2548571999	-0.3680604622	-0.9316030231	 0.091247
155.5812	181.0076	301.2489	366.3731	424.3394	465.9328	517.0868	551.0223	556.6942	725.7091	758.0494	822.1487	861.3971	924.6285	937.1275	960.1092	964.7004	970.0034	1036.7768	1055.8898	1091.3616	1098.8519	1134.223	1146.2741	1167.1445	1177.4156	1231.9793	1267.3253	1290.0874	1331.1301	1341.2373	1372.8441	1387.7419	1407.6604	1410.9201	1490.021	1494.2201	1653.9047	1716.3596	2961.1681	2998.6805	3016.836	3023.5087	3061.7625	3085.3829	3160.1771	3188.8037	3212.6905
C1C=CC2CN=COC12	C1C=C[C@@H]2CN=CO[C@@H]12	
InChI=1S/C7H9NO/c1-2-6-4-8-5-9-7(6)3-1/h1-2,5-7H,3-4H2	InChI=1S/C7H9NO/c1-2-6-4-8-5-9-7(6)3-1/h1-2,5-7H,3-4H2/t6-,7+/m1/s1
