18
gdb 38650	2.76183	2.15163	1.51031	1.2187	75.4	-0.2114	0.0033	0.2147	897.5933	0.150863	-401.906004	-401.89954	-401.898596	-401.936676	26.812	
C	 0.3020147599	 1.4557971227	 0.5975213718	-0.198292
C	 1.6062447804	 1.4741579279	-0.2342228918	 0.105004
O	 2.7433956699	 1.0013523457	 0.505435512	-0.314946
C	 2.4479681065	-0.3927792806	 0.1455741805	 0.083446
C	 2.1179195345	-1.2781657879	 1.3087614764	-0.086626
C	 0.8588765036	-1.5562098009	 1.647329558	-0.048217
C	-0.3399743408	-0.9758202253	 0.933890386	-0.23287
N	-0.0358303108	 0.1188540677	 0.0254811745	-0.092144
C	 1.2413052558	 0.0523217058	-0.7095788485	-0.084914
H	 0.5019107188	 1.4758967323	 1.675339517	 0.108363
H	-0.4497601909	 2.2136524745	 0.3486841602	 0.101492
H	 1.8345155292	 2.3357469097	-0.8629074137	 0.082426
H	 3.287223427	-0.7979595937	-0.4333283099	 0.079059
H	 2.9478606097	-1.7014730701	 1.8679094558	 0.094784
H	 0.6511937069	-2.237544928	 2.4699490744	 0.093967
H	-0.8574806513	-1.7769949522	 0.3831454705	 0.115654
H	-1.0678595019	-0.6130653748	 1.6708153853	 0.11806
H	 1.1812119334	-0.3067606428	-1.7389152087	 0.075753
117.7001	257.0144	332.9879	404.0051	469.9132	496.0639	546.4192	618.0075	714.0281	776.6872	811.4238	852.3685	875.1526	896.1961	910.8584	958.4817	967.8743	995.1853	1005.0087	1015.3757	1056.1368	1074.5216	1108.6976	1133.1266	1176.0872	1206.8903	1217.4268	1240.6262	1282.1563	1284.607	1307.9202	1322.7682	1334.8089	1360.2386	1370.5422	1410.9826	1467.4971	1496.833	1711.788	2984.9797	3018.375	3022.0123	3041.8595	3069.1915	3081.8023	3105.8288	3142.6238	3170.2725
C1C2OC3C=CCN1C23	C1[C@H]2O[C@H]3C=CCN1[C@@H]23	
InChI=1S/C7H9NO/c1-2-5-7-6(9-5)4-8(7)3-1/h1-2,5-7H,3-4H2	InChI=1S/C7H9NO/c1-2-5-7-6(9-5)4-8(7)3-1/h1-2,5-7H,3-4H2/t5-,6+,7+/m0/s1
