21
gdb 114000	4.24796	0.64064	0.63708	4.4344	80.96	-0.2732	0.0113	0.2845	1836.931	0.180891	-424.238495	-424.228371	-424.227426	-424.275204	35.599	
C	-0.223282618	 1.4221849474	-0.6722863369	-0.374353
C	-0.0866940237	 0.1546623733	 0.1798345592	-0.199613
C	-1.3746522053	-0.6466282631	 0.2226994396	 0.00993
C	-1.6945925702	-1.6735509763	-0.8365247022	-0.294584
C	-1.4448821396	-2.1131903324	 0.5883349959	-0.025732
C	-0.2235520671	-2.916126141	 0.9512415709	-0.116505
O	-0.4862220232	-4.3248952275	 0.8125690638	-0.174639
C	-0.0583870554	-4.936840185	-0.3047125367	 0.177408
O	-0.2853959657	-6.0846173013	-0.5446196088	-0.276686
H	 0.7109207512	 1.9916071394	-0.6879655018	 0.114141
H	-0.486943946	 1.1740322242	-1.7054700282	 0.121404
H	-1.0074525736	 2.0781071056	-0.2788687919	 0.117537
H	 0.7295359188	-0.4587290366	-0.2193637289	 0.094047
H	 0.2089416204	 0.431773298	 1.20024191	 0.101242
H	-2.2241473346	-0.0641854158	 0.573513762	 0.089134
H	-2.7017969506	-1.7393796629	-1.2318261588	 0.120537
H	-0.9185543018	-1.8854819406	-1.5671441459	 0.109808
H	-2.3215647802	-2.414229166	 1.1550094153	 0.101881
H	 0.6413652133	-2.6409825683	 0.3366651971	 0.108329
H	 0.0504323315	-2.7767552797	 2.0008865748	 0.126939
H	 0.5343292897	-4.2682241816	-0.9607214886	 0.069775
40.7335	49.8374	87.4981	120.6203	166.7281	212.9489	251.7995	291.7883	359.8656	368.9617	440.7453	528.3441	684.5737	759.597	799.4417	826.7485	878.7328	899.7173	953.1698	988.7914	1026.3074	1037.1344	1047.7648	1064.7562	1071.0269	1114.5613	1140.7755	1150.5144	1200.1431	1215.1236	1249.3252	1297.6674	1313.4983	1342.5671	1378.1317	1406.124	1413.4041	1426.5897	1446.1758	1483.4917	1489.6892	1498.2462	1504.6622	1507.8827	1865.8968	2935.495	3018.8992	3033.976	3038.053	3056.1038	3092.7127	3102.4317	3108.6667	3124.3848	3125.8689	3150.9357	3212.3421
CCC1CC1COC=O	CC[C@H]1C[C@H]1COC=O	
InChI=1S/C7H12O2/c1-2-6-3-7(6)4-9-5-8/h5-7H,2-4H2,1H3	InChI=1S/C7H12O2/c1-2-6-3-7(6)4-9-5-8/h5-7H,2-4H2,1H3/t6-,7-/m0/s1
