17
gdb 126846	5.11978	0.94325	0.84632	1.325	72.31	-0.2475	-0.0179	0.2295	1389.0735	0.13649	-451.311702	-451.302882	-451.301938	-451.346195	30.552	
C	-0.0841844451	 1.5206517347	-0.144310145	-0.382335
C	-0.0801032413	 0.0060863127	 0.0524122144	-0.133229
N	-1.4245878754	-0.5538904267	 0.0378782857	 0.153705
N	-1.9875756453	-1.0834348625	 1.1063693101	-0.140508
N	-3.1947155663	-1.4621760228	 0.739875328	-0.304216
C	-3.2951299739	-1.1284635639	-0.5666597924	 0.509065
O	-4.3593234358	-1.3378789477	-1.3323370651	-0.24679
C	-5.4675654193	-1.9733039781	-0.6880235418	-0.236482
N	-2.1975774508	-0.5512681979	-1.0486743605	-0.354066
H	 0.9439237723	 1.8933252672	-0.1392769984	 0.128715
H	-0.5453626482	 1.7828104202	-1.0991446034	 0.152988
H	-0.6362938512	 2.0154630394	 0.6593247211	 0.138075
H	 0.4918225993	-0.489677772	-0.7370413744	 0.141147
H	 0.3399947353	-0.2766165948	 1.0192262071	 0.150449
H	-5.8335464393	-1.3673902156	 0.1459739696	 0.142886
H	-6.2368173962	-2.0664293638	-1.454631638	 0.137373
H	-5.1854245291	-2.9604721984	-0.3106168271	 0.143223
52.8065	79.4672	133.5971	163.9097	195.6825	243.2249	306.5092	365.5421	444.6413	525.8167	664.7529	704.8556	756.8198	776.8983	802.1516	983.7113	1036.8846	1046.9346	1092.3401	1116.8195	1137.9125	1181.9059	1211.7675	1241.348	1256.8365	1366.8567	1388.5246	1399.3204	1414.6036	1443.3156	1473.708	1481.305	1482.6133	1488.965	1500.4602	1506.9755	1605.5849	3042.9544	3051.6351	3071.4436	3114.7399	3123.8855	3128.776	3147.0316	3156.4799
CCN1N=NC(OC)=N1	CCn1nnc(OC)n1	
InChI=1S/C4H8N4O/c1-3-8-6-4(9-2)5-7-8/h3H2,1-2H3	InChI=1S/C4H8N4O/c1-3-8-6-4(9-2)5-7-8/h3H2,1-2H3
