17
gdb 77112	3.10116	1.19322	0.97955	2.299	76.25	-0.2342	0.0188	0.253	1219.7007	0.133108	-421.74614	-421.737295	-421.736351	-421.779861	33.353	
O	 0.1282396146	 1.0988144815	-0.2346374973	-0.419344
C	-0.0192916194	-0.2871764972	-0.1107119893	-0.048685
C	-0.0434294838	-0.9002907217	 1.3311506941	-0.071363
O	-1.3422437949	-1.4983640846	 1.0646022593	-0.317273
C	-1.4570518872	-0.7729614132	-0.1625852345	 0.463703
C	-2.6674796946	 0.023472757	-0.5180251678	-0.328797
C	-2.3007124157	-1.233982955	-1.2975614879	-0.345093
C	 0.9801358664	-1.8597023683	 1.6907611909	 0.300958
C	 1.8541388497	-2.637576677	 1.9673045371	-0.435637
H	 1.0622608585	 1.3009911769	-0.3462906379	 0.294311
H	 0.6550338488	-0.8379506181	-0.7766972679	 0.094323
H	-0.1282168328	-0.1076708589	 2.0858470154	 0.110906
H	-3.5125163009	-0.03903333	 0.1588898085	 0.125153
H	-2.5155725402	 0.9909120579	-0.9837323897	 0.130195
H	-1.914110094	-1.1311908332	-2.3066676889	 0.116889
H	-2.9047556139	-2.1191374168	-1.1293500715	 0.127754
H	 2.6172560396	-3.3313501396	 2.2211097875	 0.201999
49.189	135.7288	191.2394	204.2025	246.6623	276.396	355.617	385.0624	450.5892	506.6685	555.8886	617.431	627.9071	674.1499	757.0018	783.4243	869.1085	904.1616	944.9486	978.0502	979.8508	1010.6549	1047.1771	1057.1278	1068.0246	1144.9141	1186.1592	1201.2491	1215.3628	1252.1908	1275.7971	1352.5953	1379.0039	1446.9575	1457.2478	1506.062	2234.9615	3022.2983	3038.5515	3127.8293	3136.2409	3213.6676	3231.0147	3502.7068	3826.6781
OC1C(OC11CC1)C#C	O[C@H]1[C@@H](OC21CC2)C#C	
InChI=1S/C7H8O2/c1-2-5-6(8)7(9-5)3-4-7/h1,5-6,8H,3-4H2	InChI=1S/C7H8O2/c1-2-5-6(8)7(9-5)3-4-7/h1,5-6,8H,3-4H2/t5-,6-/m0/s1
