18
gdb 46503	3.61126	1.27717	1.1325	4.8293	73.87	-0.2427	0.0553	0.2979	1116.3547	0.148947	-439.082726	-439.074761	-439.073817	-439.115977	30.121	
N	-0.0665191415	 1.3269407661	-0.821123263	-0.551062
C	 0.0372101868	 0.1099722029	-0.5040244266	 0.462582
O	 1.2078220604	-0.5833090235	-0.5755179075	-0.257414
C	 1.1983415579	-1.9409873593	-0.1136657281	-0.151071
C	 0.0069650262	-2.6348725338	-0.7112803503	 0.299827
C	 0.1089440288	-3.163083956	-2.1206572972	-0.293816
C	-0.0000804745	-4.117304439	-0.9560337741	-0.332841
C	-1.2487333729	-1.9405251274	-0.2392006336	-0.127585
O	-1.0362027309	-0.5388842357	-0.0029507535	-0.243324
H	 0.8506711646	 1.6875658259	-1.0777843775	 0.223227
H	 2.146024634	-2.3732300059	-0.442250853	 0.118957
H	 1.1664030209	-1.9582700647	 0.9844708985	 0.116728
H	-0.7541009895	-3.0489563967	-2.7678477273	 0.124784
H	 1.0630718107	-3.0785457373	-2.6295637268	 0.12579
H	 0.8785378193	-4.6864159851	-0.6704764897	 0.122134
H	-0.9353708671	-4.6495159647	-0.8142296949	 0.122541
H	-2.0693461836	-2.0475718534	-0.9585988916	 0.119024
H	-1.5824315796	-2.3441465724	 0.7235188361	 0.121518
55.381	71.5925	187.5429	252.0961	335.814	367.4306	440.7222	461.0602	558.1661	662.913	723.426	779.3706	811.524	816.0045	834.946	896.8547	946.8343	961.0659	982.1764	994.2643	1026.6979	1061.6788	1083.1094	1101.4452	1109.3241	1137.6032	1187.3875	1245.1586	1252.5249	1280.6714	1340.6805	1363.7547	1425.8473	1438.9904	1469.7721	1502.9934	1510.5664	1520.512	1761.2471	3014.2674	3025.3884	3065.8859	3105.154	3127.5035	3133.9624	3206.5237	3222.7132	3519.6526
N=C1OCC2(CC2)CO1	[NH][C]1OCC2(CC2)CO1	
InChI=1S/C6H9NO2/c7-5-8-3-6(1-2-6)4-9-5/h7H,1-4H2	InChI=1S/C6H9NO2/c7-5-8-3-6(1-2-6)4-9-5/h7H,1-4H2
