18
gdb 83905	2.74031	1.44091	1.23008	0.5545	79.37	-0.2299	0.0342	0.2641	1083.7265	0.146842	-401.881807	-401.873317	-401.872373	-401.914557	32.345	
C	-0.2892734427	 1.4732594939	-0.016453676	-0.337633
N	 0.0533981609	 0.0546809626	 0.0390006098	-0.130008
C	 1.3579246049	-0.4604681803	-0.3212068139	-0.108482
C	 2.5560424559	 0.4692067019	-0.3312193682	-0.109528
O	 2.5096604812	 1.1963239702	 0.8929960548	-0.256519
C	 1.8171690917	 0.4306837967	 1.8704935162	-0.160572
C	 0.8816592037	-0.5089284791	 1.1084914113	 0.11069
C	 0.405393955	-1.6793593788	 1.7908417793	 0.221427
C	 0.0270872618	-2.6443776372	 2.4000454997	-0.366851
H	 0.5145700037	 2.1582940325	 0.2756906607	 0.134997
H	-0.5966103293	 1.7056454921	-1.0409141314	 0.125725
H	-1.1537389919	 1.6405999623	 0.6329412701	 0.129373
H	 1.3726534881	-1.3398902821	-0.9593677921	 0.106595
H	 3.4796437858	-0.125353216	-0.4162433481	 0.104872
H	 2.5451300858	 1.2010777286	-1.146711527	 0.116211
H	 2.5057601887	-0.1705885878	 2.4823578091	 0.110765
H	 1.2917949943	 1.1308124754	 2.5287511046	 0.118844
H	-0.3187191974	-3.500449865	 2.9245803913	 0.190094
130.0218	151.5384	164.6535	213.0309	228.3064	257.215	381.7289	462.5509	508.5984	526.5913	557.8894	611.491	657.2282	710.8306	735.5703	798.7299	887.7761	936.9519	978.5987	1000.2316	1063.6191	1095.0408	1112.0513	1121.4765	1151.2912	1176.6853	1209.8928	1230.6126	1242.1969	1305.2535	1349.3641	1364.6691	1416.7497	1460.0587	1489.4861	1504.1395	1517.7366	1519.3325	2240.5292	2980.8224	2998.9055	3024.5971	3060.9817	3070.0554	3093.2226	3105.8937	3149.7821	3502.2233
CN1C2COCC12C#C	CN1[C@H]2COC[C@@]12C#C	
InChI=1S/C7H9NO/c1-3-7-5-9-4-6(7)8(7)2/h1,6H,4-5H2,2H3	InChI=1S/C7H9NO/c1-3-7-5-9-4-6(7)8(7)2/h1,6H,4-5H2,2H3/t6-,7+,8?/m0/s1
