14
gdb 77345	3.1395	1.28268	0.95371	1.8355	62.19	-0.297	-0.0245	0.2724	1134.4338	0.10136	-473.870114	-473.862171	-473.861227	-473.90304	28.591	
O	 0.3406351733	 0.9516409801	 0.7153842852	-0.426877
C	 0.1156251473	-0.2228803304	-0.0013687163	-0.000182
C	-1.3723742766	-0.5837514829	-0.1599763535	-0.192686
C	-1.3428571658	-1.3837639202	-1.4878970275	-0.101435
O	-0.2830211394	-0.7932087019	-2.2616649767	-0.209508
C	 0.5494287011	-0.0897863339	-1.4634233441	 0.413211
O	 1.4698056345	 0.5662157664	-1.8559787907	-0.341909
C	-1.9605823976	-1.3297015646	 0.943045946	 0.273453
N	-2.4287394023	-1.9417620473	 1.8037264127	-0.306477
H	 1.0872259651	 1.3950639514	 0.2867764817	 0.306073
H	 0.6542907043	-1.0810008962	 0.4350651836	 0.126094
H	-1.9261276874	 0.351307968	-0.298461155	 0.155433
H	-1.119291776	-2.4407110359	-1.3146468379	 0.148788
H	-2.2664864004	-1.2982921226	-2.0602467874	 0.156022
77.569	136.0723	177.0137	234.1082	256.9026	357.7875	390.597	465.6708	487.9245	571.7586	596.1972	651.0939	723.2566	881.4989	897.0794	1031.929	1041.2054	1056.7111	1090.1919	1140.4857	1194.3439	1219.712	1251.5733	1274.6345	1335.2278	1365.9816	1397.729	1429.6491	1520.0971	1885.7361	2366.949	2969.4107	3062.4123	3070.7286	3141.9013	3740.8962
OC1C(COC1=O)C#N	O[C@H]1[C@@H](COC1=O)C#N	
InChI=1S/C5H5NO3/c6-1-3-2-9-5(8)4(3)7/h3-4,7H,2H2	InChI=1S/C5H5NO3/c6-1-3-2-9-5(8)4(3)7/h3-4,7H,2H2/t3-,4+/m1/s1
