19
gdb 16462	3.10167	2.75337	1.79877	1.5931	74.76	-0.2267	0.0926	0.3193	798.2364	0.167768	-327.875043	-327.868488	-327.867544	-327.905189	27.209	
C	 0.0196055552	 1.5329172571	-0.0536543352	-0.50345
C	 0.0304258176	 0.0191752719	-0.0062062783	 0.372026
C	 0.425362419	-0.7140555719	-1.2889611093	-0.29644
C	 0.2957926439	-2.167409744	-0.7746318965	-0.168764
N	-0.1276945326	-2.0079024567	 0.6354592293	-0.126652
C	 0.6407416712	-0.8064027834	 1.1852507894	-0.061594
C	-0.5803994123	-0.4954697987	 2.0687573053	-0.243492
C	-1.1076756442	-0.8352007561	 0.6634055994	-0.061585
H	 1.0116027976	 1.9190788703	-0.3145303351	 0.119144
H	-0.6790804286	 1.8911899984	-0.818322977	 0.119148
H	-0.271673789	 1.9843296664	 0.8988599229	 0.117885
H	-0.2527879935	-0.4846890914	-2.1181314735	 0.095227
H	 1.4396886671	-0.4568059229	-1.6129748341	 0.095227
H	-0.4568292464	-2.7514204241	-1.3128532981	 0.101675
H	 1.2375377302	-2.723511672	-0.8071504219	 0.101675
H	 1.6918824518	-0.8936319137	 1.4733552546	 0.069848
H	-0.7992743696	-1.2316840539	 2.8427262245	 0.105789
H	-0.7031879331	 0.5277225768	 2.4236866247	 0.094485
H	-2.1416128645	-0.9567694421	 0.3291808289	 0.069847
207.0128	210.5114	310.4414	326.7507	381.3571	461.233	609.7244	698.4131	710.6899	730.2726	816.4759	826.81	866.1801	889.8226	919.2485	934.3926	967.3965	1008.5409	1019.9875	1037.9034	1065.9875	1113.1541	1118.46	1145.2951	1161.7452	1176.2451	1210.4833	1223.3947	1243.0617	1247.9001	1256.9411	1289.8075	1330.1049	1337.1253	1415.7425	1487.6656	1492.2496	1493.8923	1509.6464	1510.0469	3028.9247	3037.4003	3053.5639	3071.5913	3072.7748	3074.1924	3086.1853	3093.373	3098.6207	3107.9569	3154.9519
CC12CCN3C1CC23	C[C@@]12CCN3[C@@H]1C[C@@H]23	
InChI=1S/C7H11N/c1-7-2-3-8-5(7)4-6(7)8/h5-6H,2-4H2,1H3	InChI=1S/C7H11N/c1-7-2-3-8-5(7)4-6(7)8/h5-6H,2-4H2,1H3/t5-,6+,7-
