12
gdb 133482	5.49376	0.52387	0.52386	4.1177	73.32	-0.2643	-0.039	0.2253	2013.7301	0.071413	-529.807264	-529.797893	-529.796949	-529.844656	30.843	
C	-0.018139313	 1.486712424	 0.0102181041	-0.520076
C	 0.0020061654	 0.0368871177	 0.0022164012	 0.249004
C	 0.0184952181	-1.1729889286	-0.0044539716	-0.232573
C	 0.0361176923	-2.5303434756	-0.0119066854	-0.118589
C	 0.0518361546	-3.7379886532	-0.0184130508	 0.119173
C	 0.0723509812	-5.1959844086	-0.026472567	 0.215443
F	-1.1689260982	-5.7019560059	-0.0175774324	-0.071221
F	 0.6930546417	-5.6692960432	-1.1161998622	-0.071095
F	 0.7137901967	-5.6811160517	 1.0459615442	-0.071102
H	 0.9991451097	 1.8930916784	 0.0026109234	 0.167005
H	-0.5434612693	 1.8765656881	-0.8684850034	 0.167014
H	-0.5263726993	 1.8669856985	 0.9030569799	 0.167016
11.0202	60.8147	63.2181	152.1497	153.4373	331.3711	331.9089	361.8109	439.8047	440.6529	516.1198	516.8422	598.4368	599.1777	701.4944	861.1288	1046.2093	1046.5936	1165.0885	1177.0107	1177.4948	1339.6376	1412.6457	1467.6664	1467.8878	2291.4392	2394.6433	3029.7077	3095.4473	3095.606
CC#CC#CC(F)(F)F	CC#CC#CC(F)(F)F	
InChI=1S/C6H3F3/c1-2-3-4-5-6(7,8)9/h1H3	InChI=1S/C6H3F3/c1-2-3-4-5-6(7,8)9/h1H3
