16
gdb 129604	3.29599	1.24655	0.95808	2.8273	76.31	-0.2005	0.0372	0.2378	1184.1403	0.125318	-396.91241	-396.903801	-396.902856	-396.945798	32.158	
N	-0.1266816229	 1.3004018236	-0.4151113902	-0.609456
C	-0.09650337	-0.0647341284	-0.1443751556	 0.309235
C	-1.1199797049	-0.9923734291	-0.0037046828	 0.152634
C	-2.6033643795	-0.7731077541	-0.1516393329	-0.482177
C	-2.9707929348	 0.0903110029	-1.2756913767	 0.301696
C	-3.2544296231	 0.8253656041	-2.1850871187	-0.459484
C	-0.4509483273	-2.1886129484	 0.3472309525	-0.077432
N	 0.8631804241	-2.0428855197	 0.4234634237	-0.245199
N	 1.0555169343	-0.7303622289	 0.1191935092	-0.251845
H	 0.6550871078	 1.6175299076	-0.9756549759	 0.245218
H	-0.9954372934	 1.5642691666	-0.8669602849	 0.261166
H	-3.094981347	-1.7455818525	-0.2779507888	 0.143959
H	-3.0339397482	-0.3442882793	 0.7654648188	 0.143345
H	-3.5305046777	 1.4471271138	-3.0006810748	 0.200036
H	-0.8944700767	-3.1561695601	 0.5393892976	 0.103003
H	 1.9883858993	-0.3556105681	 0.1379060197	 0.265298
54.412	122.0631	212.8463	251.59	256.334	313.3546	335.2987	415.8303	441.7683	458.795	617.8932	640.2172	668.7885	673.218	718.4973	754.0691	796.057	881.9293	934.7893	948.6553	954.7023	1094.6195	1116.8533	1191.9524	1236.0549	1259.5011	1310.4838	1358.9381	1394.4388	1459.743	1465.8142	1566.8705	1636.0259	1670.1156	2228.8665	2993.7633	3046.3308	3228.9642	3502.3595	3515.5105	3605.1442	3674.9067
NC1=C(CC#C)C=NN1	Nc1c(CC#C)cn[nH]1	
InChI=1S/C6H7N3/c1-2-3-5-4-8-9-6(5)7/h1,4H,3H2,(H3,7,8,9)	InChI=1S/C6H7N3/c1-2-3-5-4-8-9-6(5)7/h1,4H,3H2,(H3,7,8,9)
