19
gdb 110618	3.00165	1.40575	1.23904	2.3853	75.3	-0.2322	0.087	0.3192	1090.0436	0.158869	-422.962726	-422.954452	-422.953507	-422.99554	32.135	
C	 0.1966436922	 0.93497136	-0.3339788346	-0.238951
O	-0.099668289	-0.1186312678	 0.5633462004	-0.24935
C	-1.3368133033	-0.7197837706	 0.3161777189	 0.107729
C	-1.5449100461	-1.7570855153	-0.7632384991	-0.118201
C	-0.3023920512	-2.5775451713	-0.9817877156	-0.14743
C	-0.4693663356	-4.0053283998	-0.4886555529	-0.325705
C	-0.2756034395	-2.9228236261	 0.5203554216	 0.439978
O	 0.7970403824	-2.9437608373	 1.3856710181	-0.470361
C	-1.5389017195	-2.1279333148	 0.753142974	-0.220322
H	 1.174722119	 1.3326471903	-0.0542102945	 0.128722
H	 0.2318319054	 0.5817734157	-1.3736506359	 0.116404
H	-0.5482170128	 1.7415843538	-0.265149305	 0.109982
H	-2.1861033239	-0.0497295224	 0.4684090729	 0.088732
H	-2.4166868575	-1.7308703166	-1.4089557561	 0.086678
H	 0.5415226882	-2.2935912161	-1.5985720083	 0.0888
H	-1.4196348024	-4.5237031934	-0.5890700395	 0.103537
H	 0.4058089444	-4.6322594157	-0.6317490302	 0.11858
H	 1.0345399378	-2.0184911111	 1.5322885037	 0.290974
H	-2.3723400686	-2.4298676217	 1.3779778222	 0.090204
86.8636	122.1189	166.9594	230.4862	287.9831	359.2469	398.1231	438.1446	507.8256	570.0524	636.0239	662.8953	754.6569	786.0624	836.3641	868.1596	907.5516	950.6475	972.7671	982.351	992.1331	1052.2372	1071.2177	1085.3048	1095.6383	1104.3724	1110.3048	1178.9773	1192.9352	1197.5171	1239.9834	1267.4828	1278.7532	1326.057	1365.1051	1412.8391	1427.3466	1483.7053	1487.206	1499.1933	1508.8845	2989.4134	3043.9204	3082.8996	3109.6182	3121.6394	3160.7224	3173.4719	3184.8557	3202.4279	3764.0498
COC1C2C3CC3(O)C12	CO[C@H]1[C@H]2[C@@H]3C[C@]3(O)[C@@H]12	
InChI=1S/C7H10O2/c1-9-6-4-3-2-7(3,8)5(4)6/h3-6,8H,2H2,1H3	InChI=1S/C7H10O2/c1-9-6-4-3-2-7(3,8)5(4)6/h3-6,8H,2H2,1H3/t3-,4-,5+,6-,7+/m0/s1
