19
gdb 109361	2.79674	1.30921	0.96831	2.9616	79.42	-0.2342	-0.0537	0.1804	1245.9136	0.15916	-423.056029	-423.04723	-423.046286	-423.089837	32.461	
C	-0.1982706682	 1.5070094078	 0.0206033355	-0.377482
C	 0.0546667906	-0.0106486089	 0.0252878266	-0.277268
C	 0.77247123	-0.4982401539	-1.2079803511	 0.203784
C	 2.0698319874	-0.8401307199	-1.2405995146	-0.162503
C	 2.7536549635	-1.3586518276	-2.4716820673	-0.127032
O	 1.8537640915	-1.8575505511	-3.4361382955	-0.239397
C	 0.8030566613	-0.9580042001	-3.7214540875	-0.186031
C	 0.0104342008	-0.5469539673	-2.4814951967	 0.310073
O	-1.157493893	-0.2222097722	-2.5662575323	-0.322057
H	 0.7439345512	 2.0625251034	-0.0305807339	 0.109905
H	-0.8144012089	 1.791792691	-0.8351521067	 0.14409
H	-0.7205192231	 1.8107806681	 0.9329397739	 0.114749
H	 0.6368515533	-0.2882075157	 0.9106565206	 0.097124
H	-0.9086032193	-0.5277402563	 0.0932295417	 0.123563
H	 2.6863507082	-0.7470223565	-0.3477823599	 0.105819
H	 3.3929859412	-0.562501428	-2.902158373	 0.106601
H	 3.4196599728	-2.1894014893	-2.2135580263	 0.128079
H	 1.1820382921	-0.0367625384	-4.2024566358	 0.10918
H	 0.1300849189	-1.4508427052	-4.4260079876	 0.1388
78.677	83.3946	159.7364	212.1197	239.3915	295.8155	305.6659	377.9788	447.1603	513.7904	530.5058	637.417	698.4399	765.6137	791.0917	851.0085	911.627	955.6021	1001.0635	1013.1637	1044.4589	1078.3897	1097.1577	1134.1768	1183.5714	1232.5089	1251.7823	1286.5958	1297.6369	1353.1129	1354.3089	1389.0392	1401.817	1407.1092	1466.1035	1475.61	1482.339	1496.1687	1511.7103	1701.4074	1775.3782	2914.1883	2938.0006	3039.2955	3040.4062	3063.0672	3080.1052	3106.9381	3114.9257	3133.7988	3142.8488
CCC1=CCOCC1=O	CCC1=CCOCC1=O	
InChI=1S/C7H10O2/c1-2-6-3-4-9-5-7(6)8/h3H,2,4-5H2,1H3	InChI=1S/C7H10O2/c1-2-6-3-4-9-5-7(6)8/h3H,2,4-5H2,1H3
