21
gdb 110938	2.50306	1.28761	1.07378	1.3304	78.92	-0.2275	0.0744	0.3019	1253.7681	0.181036	-424.170395	-424.160985	-424.160041	-424.204926	34.575	
C	 0.0536339711	 1.4595126294	-0.2412902433	-0.380259
C	 0.0019499073	 0.0371677361	 0.3262899897	-0.20687
C	-1.3160038196	-0.649060655	 0.0193040325	 0.163831
O	-1.5834407427	-0.8400976682	-1.4079860695	-0.304629
C	-1.9532944817	-2.1944845871	-1.1753492241	 0.031651
C	-0.7974524246	-3.0034674982	-0.6745604388	 0.11258
O	 0.5225108545	-2.7472119459	-1.0193313069	-0.233913
C	 0.7985487199	-3.0288267937	-2.3808416922	-0.238041
C	-1.5442986032	-2.1379752941	 0.3005423403	-0.241577
H	 1.0112998157	 1.9383660124	-0.0166838562	 0.109999
H	-0.0715403563	 1.4434607335	-1.3279333699	 0.133872
H	-0.7407251384	 2.088016164	 0.1776118019	 0.108788
H	 0.8186654018	-0.5684117067	-0.0708391186	 0.129095
H	 0.1159453879	 0.0614634333	 1.4185408733	 0.092608
H	-2.1498339121	-0.0653421927	 0.4354873123	 0.077874
H	-2.8314817852	-2.5767251347	-1.6850709299	 0.100459
H	-1.0376943904	-4.0651466747	-0.5656859673	 0.088556
H	 0.6095020561	-4.0856966577	-2.6212993333	 0.103372
H	 0.1944414722	-2.3987594937	-3.0457583433	 0.127549
H	 1.8575173665	-2.8147558085	-2.5418329897	 0.12656
H	-2.0168113288	-2.5333518777	 1.1900994031	 0.098493
68.5708	99.5588	147.1899	153.6968	189.3487	227.1816	264.0346	301.428	401.0896	451.3283	560.9325	668.8866	729.5954	749.3482	812.5404	830.5222	897.2898	923.8188	953.5318	979.7086	1010.2647	1040.9833	1053.2539	1074.005	1088.5916	1109.5751	1136.5599	1171.7092	1175.1279	1202.0256	1251.3708	1263.3393	1284.2725	1295.8158	1327.3354	1358.6568	1408.3729	1416.1877	1428.8322	1482.0891	1487.3107	1488.0889	1499.3762	1504.644	1509.5921	2990.1089	2996.9409	3026.6793	3033.5259	3055.8249	3064.8953	3093.9894	3114.6902	3122.125	3126.4486	3166.0302	3197.4764
CCC1OC2C(OC)C12	CC[C@H]1O[C@H]2[C@@H](OC)[C@@H]12	
InChI=1S/C7H12O2/c1-3-4-5-6(8-2)7(5)9-4/h4-7H,3H2,1-2H3	InChI=1S/C7H12O2/c1-3-4-5-6(8-2)7(5)9-4/h4-7H,3H2,1-2H3/t4-,5-,6+,7-/m1/s1
