19
gdb 50778	6.55635	0.52551	0.51112	2.8863	87.76	-0.2432	-0.0263	0.217	2135.6878	0.157604	-385.862962	-385.853304	-385.852359	-385.900472	33.495	
O	-0.5947324328	 0.0835843383	 0.3103352689	-0.232271
C	 0.0992714899	 0.6624373458	-0.4801124533	 0.173503
C	 1.1552516828	 1.6979916116	-0.0868304857	-0.416025
C	 1.2162091744	 2.8075786458	-1.0269485772	 0.066503
C	 1.2179580761	 3.7011059397	-1.8365793377	 0.056565
C	 1.2491845172	 4.8039467771	-2.7748879464	-0.140401
C	 0.7152266916	 6.2051494934	-2.3277724552	-0.214317
C	 1.8724885714	 6.8574508616	-3.1286803048	-0.21657
C	 2.6141393777	 5.4953037886	-3.1027341098	-0.214848
H	 0.0320186134	 0.4745737343	-1.5738681362	 0.09201
H	 0.9473519489	 2.0243300777	 0.9376483277	 0.152038
H	 2.1200479717	 1.167162605	-0.0612521823	 0.152611
H	 0.7578285891	 4.5098043343	-3.7092887844	 0.100469
H	-0.3122005198	 6.4551046163	-2.6002042265	 0.104411
H	 0.8394207823	 6.338942978	-1.2504116862	 0.113085
H	 1.5617326084	 7.1311145385	-4.1411266333	 0.105246
H	 2.3767755521	 7.7141378862	-2.6776851777	 0.102291
H	 3.2984692016	 5.4199028941	-2.254070989	 0.112367
H	 3.1324591138	 5.1677310736	-4.006382811	 0.103333
12.4018	47.2296	81.8744	111.7134	138.4845	219.4969	288.3265	414.6437	458.2803	505.2591	520.6884	585.9754	716.0036	753.649	786.9607	881.841	915.7615	935.3643	940.6415	1001.6094	1020.8705	1034.8424	1043.2639	1119.8457	1187.2676	1203.5946	1211.5857	1235.676	1244.7462	1255.0011	1276.2946	1279.5442	1289.9973	1361.4564	1414.3668	1441.7633	1478.9051	1488.3079	1509.629	1840.5523	2358.3215	2898.7899	2995.9722	3038.7979	3061.1449	3065.3062	3069.8916	3075.8781	3108.9595	3121.6456	3131.7285
O=CCC#CC1CCC1	O=CCC#CC1CCC1	
InChI=1S/C8H10O/c9-7-2-1-4-8-5-3-6-8/h7-8H,2-3,5-6H2	InChI=1S/C8H10O/c9-7-2-1-4-8-5-3-6-8/h7-8H,2-3,5-6H2
