20
gdb 117899	3.61747	0.75835	0.67691	3.8189	81.19	-0.2907	-0.0833	0.2074	1693.1435	0.168106	-403.182103	-403.171382	-403.170438	-403.219042	37.032	
C	 0.0183035524	 1.6133640132	 0.0544059239	-0.380611
C	 0.0104199399	 0.0826047916	 0.010449895	-0.188817
C	-1.4062376442	-0.496615223	 0.1035308164	-0.17137
C	-1.4643427046	-2.0263250286	-0.012466853	-0.105018
C	-0.8016877341	-2.7702822539	 1.1685540918	-0.416208
C	-2.8989209101	-2.500104755	-0.1623365501	 0.289944
O	-3.8835497546	-1.8150124023	-0.0528133095	-0.271365
C	-3.0486274765	-3.9452629588	-0.4733849514	 0.237426
N	-3.1584075297	-5.0680290436	-0.7279024721	-0.306612
H	 1.0367108329	 2.0071266621	-0.0152569942	 0.115737
H	-0.5612794214	 2.0363441335	-0.7732975896	 0.119322
H	-0.4199960448	 1.9842646527	 0.9872956317	 0.119023
H	 0.4825540295	-0.2596982955	-0.9203083862	 0.098007
H	 0.6305649922	-0.3044437906	 0.8276082278	 0.102193
H	-1.873566119	-0.1928668469	 1.0482875228	 0.111138
H	-2.0281625532	-0.0613748608	-0.6869353973	 0.112854
H	-0.94924877	-2.3464961251	-0.9316416969	 0.113164
H	-0.9007367566	-3.8547041729	 1.0682508538	 0.147404
H	 0.2641991103	-2.5372575764	 1.2109407154	 0.138996
H	-1.2563502284	-2.4695729096	 2.1180246617	 0.13479
39.0979	63.3176	97.2401	110.255	177.4773	196.7983	240.3142	252.4317	292.0589	323.6048	361.6788	381.9003	506.918	612.7769	721.0054	741.174	781.5777	851.4651	878.1146	934.2179	1002.0482	1025.1959	1040.6443	1080.568	1113.7924	1143.9589	1199.2495	1266.8937	1291.6408	1314.8324	1334.4945	1363.8423	1400.6747	1409.1161	1416.2407	1478.4512	1492.7094	1499.1549	1500.3183	1502.9611	1511.0862	1795.7675	2334.3753	2994.4125	3016.675	3031.8613	3037.253	3044.6974	3049.9152	3077.729	3100.9942	3106.7222	3116.9605	3131.1379
CCCC(C)C(=O)C#N	CCC[C@@H](C)C(=O)C#N	
InChI=1S/C7H11NO/c1-3-4-6(2)7(9)5-8/h6H,3-4H2,1-2H3	InChI=1S/C7H11NO/c1-3-4-6(2)7(9)5-8/h6H,3-4H2,1-2H3/t6-/m1/s1
