14
gdb 129719	3.53056	1.29011	0.94963	5.8031	67.83	-0.2334	-0.0369	0.1965	1142.9868	0.102143	-470.026374	-470.018394	-470.01745	-470.05894	29.166	
N	-0.2119895762	 1.4536861503	-0.0580223464	-0.627978
C	-0.0282858832	 0.0443196627	-0.012891329	-0.04686
C	-1.0890152461	-0.8203547835	-0.0801674037	 0.506158
O	-2.3976574934	-0.5646096587	-0.1915663386	-0.427248
N	-0.5981979571	-2.1000155413	-0.0129665898	-0.108648
C	-1.3514993057	-3.2813389484	-0.0485550916	 0.181162
O	-0.8905196787	-4.3845612683	 0.0124668969	-0.265748
N	 0.7772207331	-2.0953283092	 0.0982743747	-0.251703
C	 1.1032851954	-0.8197660875	 0.0971484085	-0.01685
H	 0.2645086332	 1.8768957889	-0.8482155962	 0.250056
H	 0.1319444902	 1.9117616906	 0.7800985737	 0.250058
H	-2.46671912	 0.4036443692	-0.2181453316	 0.314776
H	-2.4259812641	-3.0505775203	-0.1404486021	 0.120077
H	 2.1456592827	-0.5397274245	 0.1754479753	 0.122748
96.6161	200.1198	201.6129	235.8112	242.2596	302.1535	330.4709	413.2428	539.9888	541.5567	662.555	704.461	712.8168	754.3978	835.6674	857.9085	905.0822	1011.9763	1033.0249	1177.5825	1211.076	1214.591	1282.4665	1308.4997	1406.983	1437.7858	1475.8653	1556.248	1642.2008	1693.5758	1846.2266	3007.6666	3225.9991	3496.9153	3562.156	3707.8742
NC1=C(O)N(C=O)N=C1	Nc1c(O)n(C=O)nc1	
InChI=1S/C4H5N3O2/c5-3-1-6-7(2-8)4(3)9/h1-2,9H,5H2	InChI=1S/C4H5N3O2/c5-3-1-6-7(2-8)4(3)9/h1-2,9H,5H2
