16
gdb 48897	3.27194	1.55731	1.3914	3.2801	69.31	-0.2487	-0.0359	0.2127	943.7116	0.125426	-437.832028	-437.825291	-437.824346	-437.863405	26.665	
O	-0.6959199569	 0.9683563083	 0.5572450226	-0.256453
C	 0.270284189	 0.8884923454	-0.1623044903	 0.041525
C	 1.443884118	 1.8026902614	-0.0874010271	 0.185476
C	 1.828323575	 2.5196676203	 1.2223810878	-0.257008
C	 2.6392827358	 3.6045956565	 0.4968956284	 0.041253
O	 1.5870024395	 4.2826152616	-0.2582946605	-0.271338
C	 1.5706812573	 3.1268911628	-1.0630845733	 0.079088
C	 3.0443096805	 2.7865951416	-0.8299612969	-0.053003
N	 2.7325863827	 1.3647265388	-0.6870891534	-0.347023
H	 0.3382494491	 0.1297262806	-0.9729070922	 0.084247
H	 0.9822815237	 2.9461756462	 1.7620093117	 0.139346
H	 2.4091174789	 1.8696987507	 1.8832600102	 0.100599
H	 3.2951516717	 4.2806076248	 1.0411924742	 0.091464
H	 1.0177072622	 3.1755605157	-1.9977987506	 0.109078
H	 3.8855710146	 3.1138835516	-1.4388528097	 0.095023
H	 3.3317758588	 0.8469328238	-0.0441859606	 0.217726
86.0276	180.9483	230.7527	414.8199	482.9318	502.8708	528.2379	667.2196	679.5608	716.9981	776.3617	826.5214	860.1784	882.8952	933.7742	952.098	983.2753	1010.5373	1035.0514	1036.978	1044.5058	1081.3087	1122.1494	1158.1142	1165.9402	1208.6314	1233.6074	1265.4006	1283.9576	1321.4628	1326.4077	1355.9656	1412.5632	1474.0722	1809.5328	2892.6549	3068.2679	3133.2793	3143.9607	3151.502	3162.4474	3451.9539
O=CC12CC3OC1C3N2	O=C[C@]12C[C@@H]3O[C@H]1[C@@H]3N2	
InChI=1S/C6H7NO2/c8-2-6-1-3-4(7-6)5(6)9-3/h2-5,7H,1H2	InChI=1S/C6H7NO2/c8-2-6-1-3-4(7-6)5(6)9-3/h2-5,7H,1H2/t3-,4+,5-,6+/m0/s1
