19
gdb 79330	2.81206	1.82891	1.62693	0.8957	78.01	-0.2213	0.0204	0.2417	916.6919	0.163066	-385.903164	-385.896451	-385.895507	-385.933694	28.901	
O	-0.0827801982	 1.4253497591	-0.054381413	-0.446534
C	-0.0003038346	 0.004777495	-0.0207084804	 0.131947
C	-1.4112181198	-0.5305861269	-0.1404213627	-0.054439
C	-1.6792911754	-0.7683263216	-1.6028293388	-0.054547
C	-0.4274416941	-0.3783507806	-2.3667654966	-0.213636
C	 0.6837742238	-0.5853041442	-1.2937734672	-0.12984
C	 0.8732943843	-2.0662430486	-1.0841754423	-0.113336
C	-0.2359805394	-2.7400223394	-0.7666385969	-0.046733
C	-1.4946019887	-1.9634060456	-0.6586113293	-0.09442
H	 0.8132281886	 1.7709778412	 0.012052615	 0.278792
H	 0.5073959861	-0.3341253882	 0.8935928099	 0.060949
H	-2.1660039877	-0.1699174607	 0.5471165088	 0.089063
H	-2.6575199727	-0.6091990503	-2.0400175688	 0.08312
H	-0.2499061112	-0.9823915628	-3.2617162522	 0.093349
H	-0.4818482555	 0.6756290949	-2.6536234202	 0.108999
H	 1.6148874927	-0.066424509	-1.5331698011	 0.052041
H	 1.8441350445	-2.5342218738	-1.2007485949	 0.085115
H	-0.2541941816	-3.8127207663	-0.604810116	 0.088936
H	-2.3962955611	-2.504158622	-0.3955790135	 0.081174
192.1111	304.2844	318.5955	344.5241	379.6419	453.5637	545.2374	583.1925	680.275	742.4884	745.3929	785.8707	803.8453	833.2	861.8394	922.6734	928.4194	956.3127	973.8702	975.4132	1016.4938	1039.2131	1048.9743	1063.924	1094.7882	1099.9263	1135.3596	1151.6329	1187.1066	1205.964	1231.1989	1282.1302	1309.3874	1319.118	1330.1853	1353.4949	1399.7998	1410.3588	1432.1443	1480.0834	1682.1601	2999.7893	3052.6248	3081.3926	3100.9889	3168.4363	3178.5121	3183.286	3195.2973	3200.1199	3813.0963
OC1C2C3CC1C=CC23	O[C@H]1[C@H]2[C@H]3C[C@@H]1C=C[C@@H]23	
InChI=1S/C8H10O/c9-8-4-1-2-5-6(3-4)7(5)8/h1-2,4-9H,3H2	InChI=1S/C8H10O/c9-8-4-1-2-5-6(3-4)7(5)8/h1-2,4-9H,3H2/t4-,5+,6-,7+,8+/m0/s1
