17
gdb 12594	3.24313	2.12854	1.31678	1.4875	71.92	-0.2156	0.0044	0.22	925.1969	0.142896	-360.082566	-360.074374	-360.073429	-360.115244	29.412	
C	-0.0080713777	 1.4566748138	-0.0124328709	-0.351148
N	 0.0099526436	 0.0095943786	 0.0060201853	-0.097755
C	-0.0106099686	-0.7776450766	-1.1414700253	 0.337641
N	-0.0473435459	-0.2906404693	-2.3166473703	-0.556495
C	 0.0210187461	-2.2029585809	-0.5931845057	-0.275637
N	 0.0579446328	-2.0861200977	 0.8665823764	-0.300368
C	 0.0494226441	-0.829694687	 1.1221550656	 0.369859
C	 0.0785195407	-0.251084694	 2.4982138475	-0.491364
H	 0.8897447277	 1.8759609506	 0.4545067972	 0.129884
H	-0.0392760346	 1.7611805146	-1.059820017	 0.178046
H	-0.8900229958	 1.8543837931	 0.5012713728	 0.129885
H	-0.056659503	-1.032293956	-3.0142286973	 0.219095
H	-0.8618291669	-2.7688535194	-0.9140610977	 0.135486
H	 0.8991961825	-2.7475968265	-0.960314117	 0.135484
H	 0.1073780659	-1.0653750045	 3.2218211484	 0.157373
H	 0.957054652	 0.3877093631	 2.6401132217	 0.140007
H	-0.8065768128	 0.3663359481	 2.6864003265	 0.140007
82.1812	122.3239	158.2189	180.8018	258.396	279.879	330.543	503.8613	522.3151	594.7905	631.2847	710.1296	728.4886	815.8305	947.0372	981.7984	986.1955	1023.6615	1064.5117	1076.9932	1154.5295	1182.8229	1191.0919	1243.1216	1287.9219	1361.9646	1400.7336	1422.5363	1453.5702	1464.2406	1477.955	1480.836	1502.1309	1508.751	1701.332	1737.2444	3027.7023	3034.9117	3041.2697	3064.6792	3083.1529	3095.5833	3144.7331	3159.9642	3502.0849
CN1C(=N)CN=C1C	CN1[C]([NH])CN=C1C	
InChI=1S/C5H9N3/c1-4-7-3-5(6)8(4)2/h6H,3H2,1-2H3	InChI=1S/C5H9N3/c1-4-7-3-5(6)8(4)2/h6H,3H2,1-2H3
