21
gdb 84711	2.78244	1.55606	1.13668	1.5984	82.42	-0.2417	0.0201	0.2618	1125.6688	0.185391	-387.108138	-387.10025	-387.099306	-387.140582	31.208	
C	-0.1335650875	 1.6146346053	-0.0774362254	-0.405416
C	 0.0103701426	 0.0871519973	-0.0169690605	-0.039203
C	 0.5838926394	-0.5515199177	-1.2652690269	-0.06698
C	 1.4301676092	-1.542324031	-0.9903135921	-0.094266
C	 1.6259140178	-1.7374678554	 0.4948420128	-0.082573
C	 3.0919999375	-1.6422373614	 1.0030151755	-0.08994
O	 3.1302557114	-0.558286914	 1.9221447127	-0.246603
C	 2.1528423436	 0.3745631249	 1.4915253764	-0.095339
C	 0.9313477563	-0.4776833156	 1.1007743657	-0.032452
H	 0.8191784616	 2.1104343852	-0.2847783656	 0.121913
H	-0.8317669088	 1.9010994239	-0.8709379053	 0.113264
H	-0.5251773778	 2.0125940304	 0.8645987982	 0.11478
H	-1.0003415954	-0.3194207078	 0.1395096036	 0.083598
H	 0.290359873	-0.2357932867	-2.2616691887	 0.089296
H	 1.9303468497	-2.1616804729	-1.7280478868	 0.092631
H	 1.1674583747	-2.6736990857	 0.8333314457	 0.080783
H	 3.4290943623	-2.5377052124	 1.5328561165	 0.102824
H	 3.7798601736	-1.4596211433	 0.1623734942	 0.087191
H	 1.9676903422	 1.0685363879	 2.3151256546	 0.106677
H	 2.5231823076	 0.9486755979	 0.6269531005	 0.088425
H	 0.3665148372	-0.7194009188	 2.0044272848	 0.071391
70.2186	205.5608	216.8749	235.414	255.0033	327.0542	430.1314	499.3714	590.9285	651.4144	684.8777	744.1782	790.7856	833.0772	874.9286	899.9483	953.0268	973.5294	974.8232	1002.5368	1015.4546	1036.5671	1064.8198	1091.0365	1112.7543	1121.1352	1141.5699	1172.9073	1213.3304	1237.3674	1274.398	1279.4309	1305.2229	1307.8527	1335.186	1349.8892	1374.087	1376.8908	1405.1327	1412.8288	1497.5559	1503.9038	1508.3691	1519.9609	1681.8285	2972.542	2979.0343	2980.935	3031.5289	3034.642	3073.4612	3081.2373	3096.5906	3099.2532	3110.6047	3169.0756	3195.0028
CC1C=CC2COCC12	C[C@H]1C=C[C@H]2COC[C@@H]12	
InChI=1S/C8H12O/c1-6-2-3-7-4-9-5-8(6)7/h2-3,6-8H,4-5H2,1H3	InChI=1S/C8H12O/c1-6-2-3-7-4-9-5-8(6)7/h2-3,6-8H,4-5H2,1H3/t6-,7-,8-/m0/s1
