20
gdb 93867	2.25234	1.70394	1.11292	1.325	73.73	-0.2396	0.0633	0.303	1116.3853	0.172117	-440.263829	-440.255039	-440.254095	-440.297455	33.866	
O	 0.3971901153	 0.8557028893	-0.8458810244	-0.434272
C	 0.0446426037	-0.2724773833	-0.0692027114	 0.040578
C	 0.5547568285	-0.2682144629	 1.3993870825	-0.250596
C	-0.5476262481	-0.962323782	 2.2528239391	-0.225222
C	-1.5577603049	-1.513516768	 1.235356028	 0.082129
O	-2.846452924	-1.6360126782	 1.7947735955	-0.441827
C	-1.4499854043	-0.522295492	 0.088123532	 0.303481
C	-2.4532878272	 0.5455160356	-0.1254584169	-0.294558
N	-2.3923899341	-0.638044042	-1.0169500637	-0.405683
H	 0.1731474728	 1.6435004335	-0.3382099966	 0.279633
H	 0.4834277018	-1.1198844472	-0.6112121631	 0.096599
H	 1.5258613493	-0.7620686156	 1.4818175269	 0.110511
H	 0.7042637667	 0.7674174935	 1.7248521791	 0.096315
H	-0.1525104958	-1.7397776599	 2.9098994802	 0.105219
H	-1.069740868	-0.2363825867	 2.8831271317	 0.114335
H	-1.2108549529	-2.4942279121	 0.8647256342	 0.06614
H	-3.431132495	-1.9102900242	 1.0772897444	 0.291997
H	-3.3275688764	 0.5933419325	 0.5153254107	 0.124994
H	-2.1172276584	 1.4954253568	-0.5312838524	 0.102975
H	-1.935214369	-0.374370957	-1.8884795258	 0.237252
51.02	107.3587	209.3312	237.8647	276.4994	299.1829	338.881	422.11	445.881	475.9344	553.2746	586.2957	594.4316	692.5979	813.7285	851.2587	915.6145	933.9152	964.4853	979.0113	1007.7917	1023.466	1039.5671	1049.1174	1107.3174	1132.3612	1143.2543	1157.5769	1229.6324	1259.0395	1270.3309	1274.0915	1301.8177	1309.4826	1317.9439	1341.0207	1382.8758	1406.0795	1435.8751	1440.0514	1486.7196	1502.8597	1508.0283	2942.4688	3027.7085	3041.8267	3065.3736	3092.8828	3116.225	3118.7122	3209.4097	3478.4559	3783.0439	3799.5754
OC1CCC(O)C11CN1	O[C@H]1CC[C@@H](O)[C@]21CN2	
InChI=1S/C6H11NO2/c8-4-1-2-5(9)6(4)3-7-6/h4-5,7-9H,1-3H2	InChI=1S/C6H11NO2/c8-4-1-2-5(9)6(4)3-7-6/h4-5,7-9H,1-3H2/t4-,5+,6+
