17
gdb 90377	2.5209	1.41734	1.21357	2.1087	68.19	-0.2449	-0.0243	0.2206	1070.5933	0.133773	-458.946441	-458.937867	-458.936922	-458.979708	32.614	
O	 0.6023558829	 0.8012325381	-0.9098532404	-0.430142
C	 0.1324697585	-0.2354965471	-0.0886229754	 0.079514
C	 0.2151745859	-0.121496037	 1.4610456816	-0.299978
C	-1.2333841118	-0.7194137213	 1.5769347947	-0.19973
C	-2.2553941127	 0.3940140099	 1.7700936167	 0.428748
O	-2.834157	 0.8424752982	 2.7160006759	-0.302431
C	-2.309190855	 0.6978397991	 0.2551729235	-0.438568
C	-1.3810777383	-0.5380369489	 0.0168227747	 0.37467
O	-1.9144455096	-1.5741034709	-0.750648482	-0.479761
H	 0.2761193541	 1.6387871528	-0.564416021	 0.283633
H	 0.6353765975	-1.1443569863	-0.4332431271	 0.104924
H	 0.9972118592	-0.7123458475	 1.9389559439	 0.126952
H	 0.294815905	 0.9076763796	 1.8251740484	 0.111413
H	-1.3418026665	-1.6657499933	 2.1037878606	 0.101868
H	-3.3096973151	 0.540438948	-0.1580317278	 0.143812
H	-1.9558836632	 1.6860734222	-0.0564036179	 0.108229
H	-1.8990633611	-1.3038715856	-1.6761436183	 0.286846
55.7732	146.6613	212.5797	247.701	278.9765	283.444	353.5098	425.2373	433.4963	515.6643	529.0185	558.3382	657.1445	728.4415	765.9737	867.5809	899.6044	935.6704	940.136	986.9582	1032.1883	1082.3834	1098.3651	1120.4889	1130.5065	1159.137	1187.868	1223.4965	1241.8017	1248.1813	1295.7158	1320.2864	1361.9153	1429.1117	1432.2158	1484.8517	1890.714	3051.5178	3057.1294	3071.2931	3110.1138	3125.1949	3140.546	3792.8142	3809.6377
OC1CC2C(=O)CC12O	O[C@H]1C[C@H]2C(=O)C[C@@]12O	
InChI=1S/C6H8O3/c7-4-2-6(9)3(4)1-5(6)8/h3,5,8-9H,1-2H2	InChI=1S/C6H8O3/c7-4-2-6(9)3(4)1-5(6)8/h3,5,8-9H,1-2H2/t3-,5-,6-/m0/s1
