18
gdb 55410	2.48186	1.4819	0.96488	5.9761	79.04	-0.2028	-0.0066	0.1962	1202.4538	0.148807	-439.108603	-439.099914	-439.09897	-439.142399	31.684	
C	 0.1602886557	 1.4622207995	-0.244005514	-0.491988
C	-0.0097856054	-0.0092220803	 0.0567192076	 0.312156
O	 0.9526489554	-0.8023440269	 0.0456955966	-0.449902
C	-1.3095815765	-0.5018236853	 0.3342425259	-0.082643
N	-1.2859839431	-1.9671023602	 0.5475044041	-0.262758
H	-0.3870138583	-2.2660786526	 0.1217302528	 0.293231
H	-1.2181493519	-2.2104207219	 1.5391556258	 0.290797
C	-2.5691921019	-2.4990797593	-0.0396649813	-0.201468
C	-3.5480042816	-1.3414572324	 0.158548415	-0.316697
C	-2.6461104214	-0.0689767049	 0.1084619375	 0.315411
O	-3.0834138406	 1.051494254	-0.1078870204	-0.387679
H	 0.803304385	 1.5789240986	-1.1207421772	 0.131006
H	-0.8036258135	 1.9506333601	-0.3996959287	 0.160001
H	 0.6687902801	 1.9424215995	 0.5995386386	 0.136376
H	-2.3746200857	-2.6838731084	-1.0977261983	 0.156843
H	-2.8354609664	-3.439310563	 0.4478648065	 0.131389
H	-4.3125578663	-1.2950439745	-0.618135155	 0.139541
H	-4.0578267036	-1.399856002	 1.1274353644	 0.126384
87.4482	99.9718	134.9601	170.9719	188.7488	292.9418	371.2114	397.7463	545.4462	575.3606	594.1236	631.9379	650.7241	699.4201	838.2141	891.4828	936.5449	975.5909	987.2506	1016.5551	1052.9643	1054.2797	1069.3614	1147.8842	1202.259	1223.0223	1267.3989	1301.5075	1353.6122	1375.5152	1391.9259	1449.5048	1473.4772	1485.9078	1499.3286	1504.2618	1637.6415	1681.1052	1758.9018	3040.6877	3047.8912	3079.2424	3107.1577	3125.7917	3140.2558	3147.2702	3212.3138	3401.6227
CC(=O)[C-]1[NH2+]CCC1=O	CC(=O)[C]1[NH2]CCC1=O	
InChI=1S/C6H9NO2/c1-4(8)6-5(9)2-3-7-6/h2-3,7H2,1H3	InChI=1S/C6H9NO2/c1-4(8)6-5(9)2-3-7-6/h2-3,7H2,1H3
