20
gdb 33188	5.33786	0.68474	0.65171	1.4179	81.9	-0.2351	0.0092	0.2443	1778.4793	0.171615	-403.195347	-403.186231	-403.185287	-403.230722	32.66	
C	 0.0885011829	 1.5483966991	-0.1013316379	-0.383282
C	 0.026326055	 0.0227232548	 0.0086005787	-0.163823
C	 0.7506673953	-0.5168929702	 1.2456324506	-0.163857
C	 0.6834425867	-2.0527080705	 1.3502025418	-0.310892
C	 1.38600509	-2.5938001076	 2.5461917265	 0.387518
N	 0.8828775073	-3.1867202029	 3.5840443046	-0.30425
C	 1.9763892065	-3.4635593841	 4.3970130351	-0.114898
C	 3.0998382836	-3.0134265949	 3.79589952	-0.043134
O	 2.7390221113	-2.4502367026	 2.6030031107	-0.175443
H	 1.124649926	 1.8990154154	-0.1631810222	 0.115504
H	-0.4374781926	 1.9054109969	-0.9921169407	 0.113506
H	-0.370279193	 2.0271817501	 0.77074982	 0.116571
H	-1.0223018423	-0.3018380987	 0.0329910557	 0.098759
H	 0.4627429552	-0.4290528873	-0.8922007434	 0.096458
H	 1.8017649801	-0.2041909158	 1.2254058207	 0.10878
H	 0.3138555957	-0.077709214	 2.1513577603	 0.107251
H	-0.3559259653	-2.3859238061	 1.4125834542	 0.132797
H	 1.1168889941	-2.4965037551	 0.4448703022	 0.119181
H	 1.8678781594	-3.9638902836	 5.3460639884	 0.121592
H	 4.1488544841	-3.0051380028	 4.0359476746	 0.141663
37.8182	80.5901	89.4269	123.7336	236.8546	247.5932	314.9784	344.071	434.2779	631.7428	704.9098	737.7181	756.0869	774.4552	799.9383	863.4908	909.2284	925.1319	933.4358	955.9101	1011.6222	1061.9441	1082.9665	1117.0444	1123.1229	1152.1508	1166.6233	1228.9051	1261.7903	1280.7347	1317.2602	1332.9148	1358.3038	1391.1987	1396.5124	1414.3067	1470.7614	1486.0848	1498.2189	1500.2481	1512.1282	1558.5202	1619.6378	3013.3589	3024.0807	3030.8557	3035.2325	3040.3385	3068.8628	3098.05	3103.5434	3107.374	3263.5185	3300.5912
CCCCC1=NC=CO1	CCCCc1ncco1	
InChI=1S/C7H11NO/c1-2-3-4-7-8-5-6-9-7/h5-6H,2-4H2,1H3	InChI=1S/C7H11NO/c1-2-3-4-7-8-5-6-9-7/h5-6H,2-4H2,1H3
