19
gdb 91676	3.43844	1.23826	1.11482	1.1929	82.08	-0.2351	0.0468	0.2819	1157.6062	0.159195	-385.83773	-385.829686	-385.828741	-385.869924	32.194	
C	-0.070020048	 1.5247043542	-0.0187054438	-0.416116
C	 0.0715522297	 0.0140347702	 0.0585293681	 0.140253
O	 0.944669868	-0.4886979913	-0.993823553	-0.296559
C	 1.8811150786	-1.2795872044	-0.2579444392	 0.110308
C	 1.0102511656	-2.0426163685	 0.7648555158	-0.260729
C	 0.7805683167	-0.5891418429	 1.2834869622	-0.073099
C	 2.2918011632	-0.3163780152	 0.910834045	-0.200697
C	 3.2752396223	-0.7983829739	 1.8540598887	 0.305087
C	 4.1078370826	-1.1829278591	 2.6329548769	-0.441891
H	 0.8754693129	 2.0394748937	 0.1713930171	 0.121906
H	-0.4171838167	 1.8146088042	-1.0147271268	 0.131374
H	-0.8071825897	 1.8720883535	 0.7130062336	 0.115369
H	-0.9194699447	-0.4442550025	-0.0654664773	 0.075935
H	 2.6015784706	-1.7399236158	-0.9312713263	 0.089911
H	 0.1493383673	-2.588576575	 0.3722757802	 0.100085
H	 1.5891749046	-2.6538306906	 1.4559084945	 0.124124
H	 0.3811875623	-0.3641995671	 2.2710761682	 0.081907
H	 2.5353449659	 0.6974411489	 0.5835987118	 0.101159
H	 4.8427739388	-1.5221356583	 3.3200326442	 0.191673
129.9886	152.5403	206.8034	227.3068	287.7482	411.8405	464.2806	492.9189	501.9151	526.2838	608.6183	640.9647	644.4773	809.393	841.1662	853.508	884.3043	907.7478	914.2963	971.9063	1006.5156	1027.8747	1050.1827	1061.5844	1086.7367	1114.3246	1122.053	1154.4774	1195.5617	1232.7042	1240.654	1262.4189	1280.5311	1325.1705	1355.8968	1395.0638	1412.9956	1486.5389	1492.8902	1495.7607	2230.8088	3001.8286	3040.72	3075.783	3077.5305	3110.3434	3121.7839	3135.6735	3146.0075	3155.8681	3504.2728
CC1OC2CC1C2C#C	C[C@H]1O[C@@H]2C[C@H]1[C@H]2C#C	
InChI=1S/C8H10O/c1-3-6-7-4-8(6)9-5(7)2/h1,5-8H,4H2,2H3	InChI=1S/C8H10O/c1-3-6-7-4-8(6)9-5(7)2/h1,5-8H,4H2,2H3/t5-,6-,7-,8-/m1/s1
