14
gdb 23740	3.27315	2.28017	1.35517	1.3737	66.83	-0.2485	-0.0253	0.2232	848.7611	0.107901	-386.754771	-386.748023	-386.747079	-386.785906	25.098	
C	-0.0301775221	 1.5130670797	 0.0025616338	-0.484373
C	-0.0074752419	 0.0095100845	-0.0070970423	 0.209056
N	-0.0411167026	-0.62865741	-1.1806003139	-0.303579
C	-0.020894235	-1.9650843962	-1.1893976278	-0.0097
C	 0.0337044732	-2.741824804	-0.0378396737	-0.119045
C	 0.0693725677	-2.094341299	 1.1944224786	-0.19782
C	 0.0478806867	-0.7127484182	 1.1881734869	 0.228079
F	 0.0804977355	-0.0398894421	 2.3455304011	-0.077549
H	 0.8613500597	 1.9199505598	 0.4919427062	 0.13734
H	-0.0736731286	 1.8777486261	-1.0240540653	 0.141841
H	-0.8952573283	 1.8930009228	 0.5567799017	 0.137341
H	-0.0499559229	-2.435291267	-2.1688563847	 0.109763
H	 0.0480753062	-3.8239893967	-0.0991505887	 0.108045
H	 0.1124850024	-2.6307695698	 2.1353308181	 0.120601
88.6567	168.9424	275.9491	289.4134	450.4583	461.6148	540.3895	566.1404	584.7347	752.6433	757.0024	829.4086	872.1891	950.1708	980.6511	984.126	1060.7299	1079.1898	1134.192	1202.9162	1281.5224	1297.3644	1313.4916	1404.9993	1466.6181	1481.2079	1486.9261	1499.0659	1614.8069	1639.4987	3039.515	3092.1195	3151.3044	3161.4094	3194.3664	3209.3298
CC1=NC=CC=C1F	Cc1ncccc1F	
InChI=1S/C6H6FN/c1-5-6(7)3-2-4-8-5/h2-4H,1H3	InChI=1S/C6H6FN/c1-5-6(7)3-2-4-8-5/h2-4H,1H3
