19
gdb 40003	3.43798	1.41989	1.31775	2.6674	73.63	-0.2473	0.0802	0.3275	1024.6087	0.161302	-422.997939	-422.990908	-422.989964	-423.029275	28.932	
C	 0.172770708	 1.5409360803	 0.0090785801	-0.245335
O	 1.2580297703	 0.6110840393	-0.0067027953	-0.291698
C	-0.0715372771	 0.0879930806	 0.0035072875	 0.454188
C	-0.5033044105	-0.6205990184	 1.2897881385	-0.290475
C	-1.7977261731	-1.3948046899	 1.0233410576	 0.085979
C	-2.7230104202	-0.6635402948	 0.0254727455	-0.257296
C	-1.8176198402	-1.3837025045	-0.9983813901	 0.085978
C	-0.5286039882	-0.606483995	-1.2817295522	-0.290474
O	-1.5089890418	-2.3932836279	 0.0040285726	-0.293214
H	 0.0569240543	 2.1082091446	 0.9325678915	 0.110064
H	 0.0388384928	 2.1182996939	-0.9056700982	 0.110064
H	 0.2682552616	-1.3377983566	 1.5902642597	 0.125461
H	-0.6249854919	 0.0987480388	 2.1068369546	 0.098372
H	-2.2271744667	-1.8366675343	 1.9258368528	 0.080071
H	-3.7334649607	-1.0739191767	 0.0331606029	 0.111803
H	-2.7514152602	 0.4279659005	 0.0317463079	 0.102609
H	-2.2647942832	-1.815675678	-1.8970474992	 0.080071
H	-0.6662474931	 0.1217731839	-2.0882840472	 0.098372
H	 0.2368109799	-1.3202686059	-1.6051750791	 0.125461
92.3447	260.7053	334.9062	339.2665	385.6907	395.3684	443.0927	538.7471	571.737	725.8518	839.088	842.0803	849.7951	866.835	877.5293	932.0544	938.6387	951.7824	958.1623	999.4266	1029.317	1086.8056	1093.1054	1097.1128	1132.2037	1159.2919	1167.1401	1215.0295	1225.2466	1253.0428	1263.7278	1307.3284	1317.0862	1338.7614	1358.0937	1369.0398	1420.8689	1467.1506	1477.6817	1490.8836	1529.1419	3040.3235	3042.0497	3071.2581	3073.2776	3079.5141	3084.9816	3085.841	3088.3532	3140.2708	3156.5702
C1OC11CC2CC(C1)O2	C1O[C@]21C[C@H]1C[C@@H](C2)O1	
InChI=1S/C7H10O2/c1-5-2-7(4-8-7)3-6(1)9-5/h5-6H,1-4H2	InChI=1S/C7H10O2/c1-5-2-7(4-8-7)3-6(1)9-5/h5-6H,1-4H2/t5-,6+,7-
