17
gdb 96789	2.99224	1.38683	1.01248	1.0688	79.64	-0.237	-0.0111	0.2259	1166.8415	0.137716	-414.181337	-414.173207	-414.172263	-414.214325	30.548	
C	-0.0340169729	 1.3960589557	 0.0640818528	-0.342451
N	-0.0489956704	-0.0568894454	 0.0140512361	-0.328252
C	 0.5670648223	-0.6297267511	-0.9326344378	 0.474817
N	 1.2782105097	-0.0663312101	-1.9996483811	-0.402912
C	 1.6869938847	-0.9811561336	-2.9743547994	 0.435636
N	 2.2177313547	-0.7772448459	-4.108898802	-0.548474
C	 1.3346415786	-2.332732114	-2.4311165917	-0.105929
N	 2.0314935329	-2.5976354734	-1.148267148	-0.332906
C	 0.6302536785	-2.1101830989	-1.1415841402	-0.153558
H	 0.9506311788	 1.7800985897	 0.3686189217	 0.122078
H	-0.2919480298	 1.8621051798	-0.9005094291	 0.104802
H	-0.7611350224	 1.7407010038	 0.8031252825	 0.131335
H	 1.4911442447	 0.9157616753	-2.0593680596	 0.255824
H	 2.3566919897	 0.2184930067	-4.2919816434	 0.209186
H	 1.1192972812	-3.1381981513	-3.1200413725	 0.119522
H	 2.0173921622	-3.6030249602	-0.9844948688	 0.243727
H	-0.1694400825	-2.731509327	-0.7615769195	 0.117555
78.6028	120.3425	163.0576	205.8351	280.1837	369.2872	420.4012	469.3513	483.1874	615.0187	644.5136	725.2311	736.1371	853.9669	860.0869	867.8079	895.5709	897.4467	928.1892	1031.2297	1047.4243	1103.1902	1105.9659	1121.5706	1143.3167	1168.1783	1231.3378	1256.0569	1355.9261	1364.0799	1389.0159	1402.1425	1435.7954	1492.6621	1507.7381	1761.1353	1789.8912	2970.0642	3026.0075	3104.2366	3211.269	3219.1695	3452.747	3487.906	3657.8733
CN=C1NC(=N)C2NC12	CN=C1N[C]([NH])[C@H]2N[C@@H]12	
InChI=1S/C5H8N4/c1-7-5-3-2(8-3)4(6)9-5/h2-3,8H,1H3,(H2,6,7,9)	InChI=1S/C5H8N4/c1-7-5-3-2(8-3)4(6)9-5/h2-3,8H,1H3,(H2,6,7,9)/t2-,3+/m0/s1
