19
gdb 34224	3.24607	1.56894	1.35743	0.7634	86.15	-0.2422	0.0432	0.2854	1006.7583	0.161327	-348.694189	-348.687162	-348.686218	-348.725235	29.798	
C	 0.0101697177	-1.2123857291	 0.0542739561	-0.365128
C	-0.0279149683	-0.0089643832	 0.0358649368	 0.104964
C	-0.0776656225	 1.4224485414	 0.021727041	 0.255282
C	-1.119077756	 2.2637899666	 0.787165371	-0.295541
C	-0.6472080522	 3.4003750525	-0.1536107826	-0.075258
C	 0.7895930284	 3.6355612649	 0.3606825658	-0.210948
C	 1.3077389354	 2.2414058293	-0.0423417155	-0.089053
C	 1.1500871681	 2.2877912286	-1.5843386132	-0.241575
C	-0.3485078413	 2.3012541251	-1.2634936467	-0.061344
H	 0.0424836944	-2.2733379135	 0.0697504586	 0.17643
H	-2.1280832787	 1.9104098698	 0.558291124	 0.105049
H	-1.0077794937	 2.4037642685	 1.8670949852	 0.094164
H	-1.2746261433	 4.2659307656	-0.3597160853	 0.066946
H	 1.3273313292	 4.4358243876	-0.1562622508	 0.094532
H	 0.8175915705	 3.8351941246	 1.4355510771	 0.095032
H	 2.2053639334	 1.8518638811	 0.434977544	 0.071183
H	 1.5998044086	 3.1315377547	-2.1171251757	 0.088911
H	 1.4350591035	 1.3472506808	-2.0627853328	 0.110726
H	-1.1374337732	 2.0606465447	-1.9744611172	 0.07563
141.5248	151.3272	361.0402	403.0888	471.2744	507.6727	512.8898	534.3192	601.9564	633.5312	652.462	696.1866	796.0523	832.8274	875.8526	898.8675	907.0317	934.185	951.8885	976.0706	990.1035	1004.6285	1041.465	1057.1691	1090.6969	1109.4239	1138.7828	1148.0892	1191.1221	1200.931	1234.4975	1236.6779	1248.4314	1263.7991	1295.5068	1314.3011	1324.7578	1487.3572	1497.6667	1519.708	2226.4627	3045.5962	3047.1	3053.3233	3096.5736	3107.6501	3109.6592	3124.4689	3130.3252	3134.6676	3503.4749
C#CC12CC3CC1CC23	C#C[C@@]12C[C@H]3C[C@@H]1C[C@@H]23	
InChI=1S/C9H10/c1-2-9-5-6-3-7(9)4-8(6)9/h1,6-8H,3-5H2	InChI=1S/C9H10/c1-2-9-5-6-3-7(9)4-8(6)9/h1,6-8H,3-5H2/t6-,7-,8-,9-/m1/s1
