16
gdb 18809	3.12456	3.02368	2.38774	2.2208	62.4	-0.2271	0.0699	0.297	667.8612	0.133496	-383.693531	-383.688145	-383.687201	-383.722652	22.862	
C	-0.0049677043	 1.5295185246	 0.2035903238	-0.271827
C	 1.528374657	 1.411356303	-0.0316599471	 0.067744
O	 2.2194759175	 1.152730561	 1.1754563426	-0.257522
C	 1.588801593	 0.1121871229	 1.924804496	-0.085507
C	 0.8643719327	-0.8065948283	 0.9515951247	 0.063894
O	 1.8115043633	-1.0801966038	-0.1237155749	-0.289345
C	 1.2554369735	 0.0436287366	-0.8087836541	 0.116165
C	-0.0681174816	 0.0080358378	-0.0199101154	-0.091141
H	-0.3281233698	 1.9566565408	 1.1564485701	 0.106618
H	-0.5018936395	 2.0608142956	-0.6135561327	 0.106715
H	 2.0586542034	 2.2176311364	-0.5389332345	 0.083324
H	 2.3815688633	-0.4286608901	 2.4507276303	 0.118715
H	 0.8938630182	 0.5247872387	 2.672714735	 0.092374
H	 0.4730050059	-1.7173667665	 1.4112264972	 0.083944
H	 1.3770226995	 0.0226469994	-1.8930005898	 0.079749
H	-0.9741089521	-0.4980443881	-0.3525698712	 0.076102
285.7171	363.0216	402.5709	451.4693	595.1508	673.9552	720.5351	758.1655	812.5229	826.3645	857.6842	895.7087	937.433	960.5337	984.4434	1015.0914	1037.0288	1051.0104	1064.6543	1100.5388	1128.2278	1169.7562	1196.6178	1212.0839	1232.3998	1252.0156	1269.9105	1300.323	1325.0477	1342.4007	1346.6221	1400.3612	1482.492	1505.6711	2984.9071	3056.1796	3076.5296	3085.4055	3098.3531	3108.7103	3112.1227	3118.189
C1C2OCC3OC2C13	C1[C@H]2OC[C@@H]3O[C@H]2[C@H]13	
InChI=1S/C6H8O2/c1-3-5-2-7-4(1)6(3)8-5/h3-6H,1-2H2	InChI=1S/C6H8O2/c1-3-5-2-7-4(1)6(3)8-5/h3-6H,1-2H2/t3-,4-,5+,6+/m1/s1
