15
gdb 12722	3.01385	2.28445	1.7071	3.275	60.53	-0.243	0.0067	0.2497	794.6119	0.119793	-399.803911	-399.796808	-399.795864	-399.835185	26.618	
N	-0.0773682532	 1.4383207266	-0.2686798844	-0.597987
C	-0.046902078	 0.0282073278	-0.039755509	 0.146715
C	 0.4109930795	-0.8591681254	-1.2417421123	-0.277473
C	-0.8615286963	-1.7488454204	-1.0889493292	-0.233343
C	-1.2773070183	-0.9240875083	 0.1391560241	 0.087011
O	-0.6777918908	-1.4541135017	 1.3644677204	-0.261811
C	 0.3869658041	-0.5797773656	 1.3050995072	 0.394422
O	 1.2496790521	-0.428724519	 2.1101331052	-0.332784
H	-0.1877147681	 1.9564825069	 0.5975402729	 0.243329
H	 0.7914275736	 1.7477683952	-0.692647538	 0.242927
H	 0.4133820882	-0.27873955	-2.1667305272	 0.122285
H	 1.3796786796	-1.3480312525	-1.1250756932	 0.123207
H	-1.5534114773	-1.645925298	-1.9274532724	 0.118104
H	-0.7022024114	-2.8088202165	-0.8846376409	 0.124548
H	-2.3059120037	-0.609420479	 0.304780457	 0.10085
122.8951	143.6868	211.303	272.4067	322.0738	387.3504	523.0625	629.396	700.8418	726.5285	768.4747	801.5533	834.0876	881.6663	919.5911	956.3635	966.8458	987.9754	1064.4001	1117.2406	1152.1362	1184.5374	1228.3323	1245.1266	1267.9226	1299.7931	1320.792	1374.8567	1464.2629	1484.0235	1661.7946	1924.58	3073.2348	3079.3118	3124.5232	3137.6296	3142.7783	3500.5517	3579.0341
NC12CCC1OC2=O	N[C@]12CC[C@H]1OC2=O	
InChI=1S/C5H7NO2/c6-5-2-1-3(5)8-4(5)7/h3H,1-2,6H2	InChI=1S/C5H7NO2/c6-5-2-1-3(5)8-4(5)7/h3H,1-2,6H2/t3-,5-/m1/s1
