21
gdb 109171	4.1444	0.92585	0.78458	1.5151	81.9	-0.2314	0.0307	0.2621	1482.8576	0.181977	-424.232793	-424.223303	-424.222359	-424.267154	35.235	
C	-0.0466557041	 1.5185609482	 0.1108348851	-0.402309
C	 0.0247096219	 0.0058378975	-0.0251908035	 0.137777
C	 0.7755246979	-0.4601484742	-1.2780321182	-0.257393
C	 1.1083698894	-1.9252601147	-1.1911190672	-0.149145
C	 1.0352183606	-2.5964174682	-0.0437656691	 0.247346
C	 1.3254158586	-4.065233903	 0.0853533285	-0.154366
O	 1.5283269564	-4.6442796057	-1.1895666959	-0.412158
C	 0.643308143	-1.8961618163	 1.2359996173	-0.155805
O	 0.6756057072	-0.4888035868	 1.1424568529	-0.259242
H	 0.9609504994	 1.9386721796	 0.189912249	 0.123226
H	-0.5394736124	 1.9600328986	-0.7608415234	 0.112429
H	-0.6059413004	 1.7983080285	 1.0075812172	 0.119928
H	-0.9986203694	-0.4079271353	-0.0621293524	 0.062037
H	 0.162221816	-0.2624597971	-2.1668514215	 0.100991
H	 1.69316966	 0.1334661384	-1.4028925053	 0.106894
H	 1.4095396963	-2.4436439333	-2.0950179726	 0.104697
H	 2.2127245646	-4.2001337728	 0.7298824611	 0.095373
H	 0.4870631335	-4.553059597	 0.6160455874	 0.091237
H	 1.8048408371	-5.5557025292	-1.0619392104	 0.289789
H	-0.3597022172	-2.2403074207	 1.5547942976	 0.090734
H	 1.3353748316	-2.1613650465	 2.0461316535	 0.10796
64.8849	104.0391	186.3062	205.877	220.5649	234.4484	258.2868	309.6104	363.779	426.9069	470.1236	513.8691	551.152	701.3251	791.8842	823.1461	885.7573	922.8619	935.6508	1006.7672	1033.1094	1055.9943	1070.8332	1081.2488	1119.548	1147.8488	1160.7801	1170.596	1228.5926	1236.8511	1256.926	1280.422	1321.3285	1346.5095	1386.8171	1392.0753	1411.2424	1413.4808	1463.4365	1469.8153	1482.8793	1489.4742	1499.7572	1510.6981	1751.4914	2915.0762	2932.8489	2944.3193	2945.3782	3000.6195	3032.1395	3039.922	3041.6885	3113.8255	3120.3635	3191.5309	3842.1215
CC1CC=C(CO)CO1	C[C@H]1CC=C(CO)CO1	
InChI=1S/C7H12O2/c1-6-2-3-7(4-8)5-9-6/h3,6,8H,2,4-5H2,1H3	InChI=1S/C7H12O2/c1-6-2-3-7(4-8)5-9-6/h3,6,8H,2,4-5H2,1H3/t6-/m0/s1
