18
gdb 99502	2.52303	1.09999	0.8118	0.7603	75.35	-0.2639	0.0219	0.2858	1404.3283	0.145122	-439.048965	-439.038726	-439.037782	-439.084767	36.17	
C	-0.2224112835	 1.3194220518	-0.0065734616	-0.229098
O	-0.0940452892	-0.0964492234	-0.1570642024	-0.23871
C	 0.7413365859	-0.5165262784	-1.1274183777	 0.41121
N	 1.380413687	 0.2919842589	-1.8617454988	-0.538996
C	 0.7269908686	-2.0436732867	-1.1619281228	-0.288372
C	-0.6694330549	-2.5668386535	-1.6145569793	-0.062359
O	-0.7429548561	-3.9712080392	-1.5847852808	-0.416325
C	 1.7656399808	-2.5913893803	-2.0258034046	 0.296592
C	 2.5763311576	-3.0742911259	-2.7719290561	-0.44259
H	 0.7440353983	 1.7701957204	 0.2340778652	 0.14081
H	-0.5956468851	 1.7737289093	-0.9282448337	 0.139716
H	-0.9300899164	 1.4661630656	 0.8101606011	 0.128654
H	 1.9594802137	-0.2162954791	-2.5278381296	 0.232611
H	 0.8794551268	-2.4028266566	-0.1369523869	 0.136869
H	-1.420511788	-2.1923521562	-0.9167860756	 0.132982
H	-0.8886690387	-2.1603132478	-2.6132133701	 0.10118
H	-0.0732277166	-4.3089831014	-2.1912600514	 0.287879
H	 3.3166743298	-3.4905388874	-3.4103658449	 0.207947
46.5552	102.1228	118.7021	136.0212	174.1391	185.9199	236.1847	296.9318	355.2604	394.9665	410.7807	460.5571	544.3442	638.0287	657.1492	672.4629	739.108	837.6983	880.2402	931.4741	989.5957	1043.6672	1079.1103	1091.4312	1121.8342	1180.9006	1199.0017	1218.467	1246.1664	1320.6668	1383.447	1384.719	1419.7062	1476.3731	1477.1658	1499.3419	1509.4959	1733.2047	2231.6278	2994.7654	3045.1405	3048.1602	3121.0345	3121.9831	3152.7679	3498.214	3507.0169	3787.5525
COC(=N)C(CO)C#C	CO[C]([NH])[C@@H](CO)C#C	
InChI=1S/C6H9NO2/c1-3-5(4-8)6(7)9-2/h1,5,7-8H,4H2,2H3	InChI=1S/C6H9NO2/c1-3-5(4-8)6(7)9-2/h1,5,7-8H,4H2,2H3/t5-/m1/s1
