20
gdb 76177	2.049	1.43539	1.19735	4.6102	80.65	-0.2684	0.0344	0.3028	1177.988	0.167775	-403.162219	-403.151683	-403.150739	-403.19687	38.559	
C	-0.0863796922	 1.5183114247	-0.0425549398	-0.431074
C	 0.0352344554	 0.0123983021	 0.0029905608	-0.109443
C	 1.3438026367	-0.7012160094	-0.2390453966	 0.350884
C	 1.3981998406	-1.9660012144	-1.0637426994	-0.458314
O	 2.5023441572	 0.0847821016	-0.3280091199	-0.457128
C	 0.7494159927	-0.6995847435	 1.1714447524	 0.085885
C	 1.4186621329	 0.0903738556	 2.288754677	-0.461527
C	 0.1352478766	-1.9245123939	 1.6208574272	 0.250691
N	-0.3611867632	-2.9028403496	 1.9905008216	-0.361776
H	 0.8683029563	 2.0071748567	 0.1589327073	 0.13342
H	-0.4218865013	 1.8373084544	-1.0354445926	 0.122805
H	-0.8206991025	 1.8808218578	 0.6836739518	 0.130648
H	-0.8426052416	-0.5193385143	-0.3541023941	 0.104891
H	 1.4546865215	-1.7192713063	-2.1311008764	 0.110375
H	 2.2837893616	-2.5526532275	-0.8016040454	 0.137456
H	 0.5136213645	-2.5871214261	-0.9082501234	 0.146394
H	 2.5843583254	 0.3873361992	-1.2395053795	 0.289377
H	 1.9960514819	 0.9198285132	 1.884159628	 0.146571
H	 0.6718558349	 0.478523428	 2.9876383185	 0.131011
H	 2.1023889524	-0.5537471683	 2.8485101524	 0.138853
125.7895	141.6612	154.9478	157.5182	206.6166	210.4994	227.5465	250.2461	267.5945	292.2423	379.4096	423.6574	462.1606	531.4863	568.641	611.4082	672.8821	707.1965	788.9961	941.347	977.954	983.2966	1036.2795	1073.6256	1096.298	1120.5633	1129.2377	1166.4919	1210.5277	1268.7328	1287.1876	1355.2923	1405.1068	1416.3902	1422.6972	1441.8841	1485.3494	1486.0723	1492.591	1497.564	1502.9472	1514.4108	2342.2078	3029.8971	3039.6256	3053.2236	3095.8178	3097.7535	3114.0118	3130.9285	3134.3769	3150.4933	3167.2533	3796.7789
CC1C(C)(O)C1(C)C#N	C[C@H]1[C@@](C)(O)[C@]1(C)C#N	
InChI=1S/C7H11NO/c1-5-6(2,4-8)7(5,3)9/h5,9H,1-3H3	InChI=1S/C7H11NO/c1-5-6(2,4-8)7(5,3)9/h5,9H,1-3H3/t5-,6-,7-/m1/s1
