17
gdb 98781	4.02249	0.99895	0.99349	3.5324	68.65	-0.2533	-0.0356	0.2177	1244.4796	0.13422	-458.919432	-458.911075	-458.910131	-458.953215	30.798	
O	 0.2513336266	 1.3692346942	 0.000194459	-0.418766
C	 0.0986029668	-0.0024641964	 0.196586561	-0.133895
C	-1.3019744768	-0.4626386662	-0.1874859433	 0.346568
O	-2.1365509911	 0.3589568001	-0.4995759806	-0.32193
C	-1.5568230198	-1.955108934	-0.2016146253	 0.021799
O	-2.9424736979	-2.3412578793	-0.1226898583	-0.282025
C	-2.8256804646	-3.080809923	-1.3455364989	 0.111751
C	-2.5097284617	-2.1769557808	-2.4893078965	-0.296661
C	-1.3964586838	-2.6454110632	-1.5698979659	-0.154735
H	-0.6333098642	 1.6878304286	-0.2432909668	 0.295487
H	 0.8376445391	-0.5726847989	-0.390038252	 0.1184
H	 0.2613077372	-0.2863613015	 1.2519880964	 0.117716
H	-0.9739753785	-2.4532830867	 0.5838366013	 0.099706
H	-3.3154644147	-4.0451844977	-1.3986558112	 0.112777
H	-2.4954532979	-2.6492034309	-3.4666585144	 0.121994
H	-2.8520652319	-1.1475183577	-2.4662451022	 0.149986
H	-0.5244697368	-3.1924350966	-1.8990706623	 0.111828
48.8301	97.5718	139.5833	189.9351	291.1439	363.3864	375.8201	429.8535	467.4526	560.6202	717.58	749.5012	769.9213	803.4363	901.6502	937.9016	956.8404	984.3058	991.7802	1010.8434	1047.8863	1055.9772	1064.0366	1094.5328	1125.4187	1155.3134	1191.3465	1234.7173	1245.5495	1264.7885	1311.0982	1353.8763	1373.9812	1451.1952	1468.2919	1489.8816	1798.6688	2952.9138	2986.6212	3026.7052	3129.1628	3192.4323	3212.8861	3224.3986	3676.1264
OCC(=O)C1OC2CC12	OCC(=O)[C@H]1O[C@H]2C[C@@H]12	
InChI=1S/C6H8O3/c7-2-4(8)6-3-1-5(3)9-6/h3,5-7H,1-2H2	InChI=1S/C6H8O3/c7-2-4(8)6-3-1-5(3)9-6/h3,5-7H,1-2H2/t3-,5+,6+/m1/s1
