19
gdb 89934	2.98704	1.36246	1.11169	1.8264	82.51	-0.2427	0.0243	0.267	1154.6517	0.157769	-385.829138	-385.820492	-385.819548	-385.862352	33.415	
C	 0.2689667856	 1.6031253041	-0.1150065827	-0.415217
C	 0.0390567957	 0.1208736202	 0.0859417896	 0.152784
O	 0.7932975454	-0.6999263385	-0.8504400954	-0.341732
C	 1.2386585087	-1.5912189111	 0.2040392678	 0.281
C	 2.6706027415	-1.23181854	 0.6859182517	-0.278837
C	 2.0631695226	-0.2513175117	 1.7354194117	-0.235473
C	 0.6273915425	-0.6391649895	 1.2919896005	-0.164777
C	 0.8801030466	-2.972042845	-0.0044469392	 0.248896
C	 0.5943508427	-4.130627256	-0.1556503851	-0.419143
H	 1.3268973486	 1.8641827411	-0.0293151271	 0.122979
H	-0.0701645875	 1.8985076245	-1.1129466675	 0.131342
H	-0.2984523114	 2.1823791877	 0.6215438718	 0.118019
H	-1.0328646881	-0.1018279275	-0.019911039	 0.079552
H	 3.2033633043	-2.0757977631	 1.1290057272	 0.112594
H	 3.280630374	-0.7910919021	-0.1048499622	 0.115389
H	 2.2760588411	-0.5418016225	 2.7660380636	 0.109275
H	 2.328857941	 0.8015738704	 1.6217936	 0.106101
H	-0.0678425332	-0.9713394123	 2.0611412674	 0.083843
H	 0.3381800099	-5.1512822788	-0.2989040433	 0.193405
66.1033	139.3877	166.7095	200.8699	267.9755	322.9424	383.3029	435.0429	513.2016	528.9235	604.4977	616.1382	644.5138	660.459	736.0185	782.8627	857.394	896.8366	931.2826	946.5259	967.1636	1032.4935	1041.1698	1085.9899	1098.1371	1122.8504	1144.3909	1170.0843	1210.8488	1234.393	1266.0133	1288.086	1314.3894	1331.526	1389.3467	1410.1166	1462.212	1479.3852	1484.2786	1505.4868	2230.9912	2989.695	3038.6039	3070.1723	3076.2726	3106.5537	3113.7725	3121.957	3126.7308	3137.525	3501.0248
CC1OC2(CCC12)C#C	C[C@H]1O[C@]2(CC[C@@H]12)C#C	
InChI=1S/C8H10O/c1-3-8-5-4-7(8)6(2)9-8/h1,6-7H,4-5H2,2H3	InChI=1S/C8H10O/c1-3-8-5-4-7(8)6(2)9-8/h1,6-7H,4-5H2,2H3/t6-,7+,8+/m1/s1
