16
gdb 29309	3.23089	1.27861	0.92243	5.08	82.17	-0.2005	-0.0143	0.1862	1203.5521	0.125544	-396.987301	-396.978354	-396.977409	-397.020781	32.672	
C	 0.0221305894	 1.531530973	 0.0442097085	-0.531376
C	 0.0234867907	 0.036758949	 0.0189068711	 0.142365
C	-0.009137433	-0.7823917748	-1.1058555749	 0.156211
N	 0.0218129371	-2.0924248473	-0.6872078096	-0.333356
C	 0.0643651885	-2.1307588517	 0.6804560265	-0.154415
C	 0.0691996685	-0.8269809879	 1.1467675663	 0.189815
N	 0.1883760281	-0.396390419	 2.4783273233	-0.607482
C	-0.0621346194	-0.4350754629	-2.470428511	 0.2042
N	-0.1070244212	-0.1485014808	-3.5942597539	-0.364948
H	 0.8958102654	 1.9202385776	 0.5802736283	 0.139411
H	 0.0355396828	 1.9417481652	-0.968481453	 0.14742
H	-0.8683186515	 1.9302061906	 0.5478886392	 0.124368
H	 0.0077941721	-2.8894009887	-1.2984352314	 0.276232
H	 0.0960366798	-3.0674239125	 1.2132060266	 0.122824
H	-0.0784186381	-1.1054645889	 3.1487290701	 0.242851
H	-0.340988989	 0.4466276391	 2.6623258539	 0.245878
115.6257	117.4999	137.9353	191.8386	240.5963	252.5582	303.9737	405.0801	411.5411	515.2332	517.9961	594.488	635.4601	690.1389	695.3486	705.8826	742.6399	779.8987	948.1056	1061.9009	1087.4351	1097.9213	1155.9671	1235.9306	1283.3362	1355.7011	1418.1629	1448.3171	1482.6764	1489.1189	1497.599	1558.2874	1627.6021	1659.9	2325.2299	3016.8079	3066.5342	3120.1979	3263.5853	3534.8265	3624.6023	3693.8516
CC1=C(NC=C1N)C#N	Cc1c([nH]cc1N)C#N	
InChI=1S/C6H7N3/c1-4-5(8)3-9-6(4)2-7/h3,9H,8H2,1H3	InChI=1S/C6H7N3/c1-4-5(8)3-9-6(4)2-7/h3,9H,8H2,1H3
