20
gdb 104125	2.40519	1.38919	1.2169	2.289	76.17	-0.2649	0.0246	0.2895	1159.2827	0.16968	-440.319247	-440.309932	-440.308988	-440.353385	34.738	
C	-0.1678678653	 1.5910762699	 0.2787756849	-0.396904
C	 0.0100825979	 0.0855206445	 0.080786499	-0.205842
C	 0.7933762359	-0.6012015795	 1.1976331274	 0.441137
C	 0.9180354163	-2.1102069702	 0.9947266479	-0.418043
O	 2.071351623	 0.0064482651	 1.3173879358	-0.287246
C	 2.3945935757	 0.0834606013	 2.6939079608	-0.181084
C	 1.0568507264	-0.0013120259	 3.3961757694	 0.372171
N	 0.8455222413	 0.2206592106	 4.6184626438	-0.540535
O	 0.1345685936	-0.3593890674	 2.4628137088	-0.261557
H	 0.8017987082	 2.0902184436	 0.3479453457	 0.130862
H	-0.7160675566	 2.0244695339	-0.5623572587	 0.113177
H	-0.728245291	 1.8029906372	 1.1931873686	 0.129441
H	-0.9634339077	-0.4108438548	 0.0020066157	 0.1093
H	 0.5439979496	-0.1155549619	-0.8547768268	 0.112423
H	 1.4329277498	-2.3170862909	 0.0530782414	 0.130501
H	 1.4895994877	-2.5618312613	 1.8103652957	 0.124438
H	-0.0705859802	-2.575700608	 0.9686817766	 0.129847
H	 3.0494702138	-0.7399201055	 3.0129812155	 0.12735
H	 2.9018422373	 1.0287417721	 2.8992103741	 0.144804
H	-0.1385854158	 0.0800909373	 4.8507476345	 0.22576
72.6018	98.5276	133.8124	214.6545	227.5647	232.2597	306.6936	362.1668	373.9987	474.0423	523.5004	568.3667	603.0073	671.0946	773.8237	810.0936	878.6214	896.0563	905.4672	927.8918	999.5559	1031.1622	1042.0303	1053.6994	1073.9993	1120.8915	1167.801	1178.541	1208.6797	1270.7351	1295.5455	1343.7641	1358.4175	1384.6181	1407.1478	1408.9244	1469.97	1484.6366	1489.4313	1495.7492	1507.062	1513.2799	1794.0685	3007.9806	3043.0509	3050.1908	3050.8652	3082.1815	3104.238	3119.4209	3124.5278	3130.1132	3133.1569	3481.0158
CCC1(C)OCC(=N)O1	CC[C@@]1(C)OC[C]([NH])O1	
InChI=1S/C6H11NO2/c1-3-6(2)8-4-5(7)9-6/h7H,3-4H2,1-2H3	InChI=1S/C6H11NO2/c1-3-6(2)8-4-5(7)9-6/h7H,3-4H2,1-2H3/t6-/m0/s1
