19
gdb 39276	2.37482	2.21494	1.5426	1.2552	73.13	-0.2469	0.0723	0.3192	914.8933	0.16237	-422.994949	-422.988319	-422.987375	-423.025495	28.374	
C	 0.025281231	 1.561448224	 0.0761194432	-0.216331
C	 1.5222862765	 2.0348909574	-0.0547907114	-0.308094
C	 2.1658873132	 0.6861230683	 0.2032569095	 0.402556
C	 1.382194368	-0.2814608288	-0.6777301074	-0.300817
C	 0.0466704812	-0.012886691	 0.0170574514	 0.129678
O	 0.0478910561	-0.6281581404	 1.3225087093	-0.291489
C	 1.3477303699	-0.9261586576	 1.8739243467	-0.126027
C	 2.2299419342	 0.2746664255	 1.6080460499	-0.015211
O	 3.4056624126	 0.3017869146	 0.761754561	-0.318414
H	-0.4179320964	 1.8800865751	 1.0221348672	 0.114794
H	-0.5916444557	 1.9600867317	-0.7342331704	 0.102812
H	 1.7345876044	 2.4257818279	-1.0551794747	 0.100994
H	 1.7951690099	 2.7954142797	 0.6785877457	 0.109521
H	 1.3676342163	 0.0437481695	-1.7225024225	 0.099004
H	 1.7186957181	-1.3160871613	-0.6353638942	 0.114854
H	-0.8371240571	-0.4086766602	-0.4875224932	 0.079279
H	 1.1742388231	-1.0965699423	 2.9388415311	 0.112477
H	 1.7723961414	-1.8436243789	 1.4477804941	 0.109799
H	 2.2458267334	 1.0482389667	 2.3729661346	 0.100615
187.4516	282.387	350.8732	388.4552	423.9474	477.95	495.0088	558.3777	569.439	711.7778	767.2517	801.5511	843.4155	861.7345	879.1124	910.9358	937.3711	976.0935	988.1236	1004.3789	1035.3468	1052.4885	1074.4693	1102.5762	1151.2995	1157.5049	1214.2486	1217.9553	1228.1043	1251.4237	1274.7365	1308.4	1327.7783	1338.0652	1361.4477	1381.9507	1470.2168	1485.4368	1487.1674	1508.2225	1524.2276	3025.8029	3050.1246	3062.1172	3063.3737	3088.93	3100.3363	3109.4202	3124.1727	3133.642	3145.5397
C1CC23CC1OCC2O3	C1C[C@]23C[C@H]1OC[C@H]2O3	
InChI=1S/C7H10O2/c1-2-7-3-5(1)8-4-6(7)9-7/h5-6H,1-4H2	InChI=1S/C7H10O2/c1-2-7-3-5(1)8-4-6(7)9-7/h5-6H,1-4H2/t5-,6+,7-/m0/s1
