23
gdb 118412	2.22098	0.78159	0.60084	1.3108	92.59	-0.2466	0.0468	0.2934	1953.215	0.202118	-388.265618	-388.253688	-388.252744	-388.304511	40.587	
C	-1.1117515734	 1.9809444566	 0.7220382806	-0.386639
C	-0.6208254704	 0.5545396062	 0.4619006579	-0.168807
C	-1.7648275062	-0.4165862155	 0.155519958	-0.173942
C	-1.2875632624	-1.8567885525	-0.0799225745	-0.088616
O	-0.6795883227	-2.2994958725	 1.1276453579	-0.229886
C	 0.0007801926	-3.5293573837	 1.010250707	-0.233481
C	-2.3891720298	-2.7338512727	-0.5006352545	 0.083399
C	-3.3012602201	-3.4443812132	-0.8391607216	 0.076041
C	-4.4044217795	-4.3011077332	-1.2500188935	-0.500441
H	-0.2772257543	 2.6559431974	 0.9363212379	 0.110533
H	-1.6505692479	 2.3822059177	-0.1439072877	 0.110905
H	-1.7943321077	 2.0141691599	 1.5785237693	 0.115251
H	 0.0854799665	 0.5571207122	-0.3795555218	 0.088414
H	-0.065417098	 0.1841583561	 1.3292022198	 0.116233
H	-2.4832739231	-0.4319867511	 0.9834697163	 0.110345
H	-2.3136520303	-0.0905612824	-0.7355601155	 0.101078
H	-0.5246724871	-1.8494504627	-0.8799234427	 0.082088
H	 0.437884376	-3.7472310534	 1.9876671797	 0.124112
H	-0.6781022819	-4.345898164	 0.7288060996	 0.115403
H	 0.8085838079	-3.4755157049	 0.263016479	 0.099979
H	-4.0686992936	-5.0881988818	-1.9341949454	 0.147435
H	-4.8702676863	-4.7876801911	-0.3860683261	 0.15082
H	-5.1824327883	-3.7249256614	-1.76294355	 0.149777
33.7216	70.7416	78.5648	82.6995	99.5842	145.1631	203.7828	223.98	247.7988	269.5561	316.9169	330.9484	349.5875	448.0839	546.9175	575.293	742.6044	798.2281	843.4123	909.844	944.9256	1027.9681	1052.4585	1054.8891	1062.6262	1118.6484	1127.8045	1147.0261	1166.3154	1184.776	1223.3967	1264.9793	1285.6851	1325.6489	1353.4606	1363.3855	1395.1527	1412.6643	1414.6503	1473.322	1477.3897	1477.6692	1479.3381	1483.2837	1494.5893	1499.5986	1510.6235	1511.73	2363.9342	2931.6269	2977.2335	3016.7861	3027.3532	3027.6212	3037.6274	3039.1419	3068.7091	3082.3979	3088.	3089.5609	3100.2682	3101.9786	3115.8134
CCCC(OC)C#CC	CCC[C@@H](OC)C#CC	
InChI=1S/C8H14O/c1-4-6-8(9-3)7-5-2/h8H,4,6H2,1-3H3	InChI=1S/C8H14O/c1-4-6-8(9-3)7-5-2/h8H,4,6H2,1-3H3/t8-/m1/s1
