19
gdb 36446	3.70241	0.99017	0.8622	1.2851	81.48	-0.2288	0.0488	0.2776	1363.61	0.157271	-385.819181	-385.810151	-385.809207	-385.853694	33.726	
C	-0.0228671675	-1.1877388926	-0.2872518249	-0.436208
C	 0.006608812	-0.0254356648	 0.0179750762	 0.294167
C	 0.0825274878	 1.3878542933	 0.3700382389	-0.3759
C	 1.4657869114	 1.9873382699	 0.0840260629	-0.131942
C	 1.8350840646	 2.1760690675	-1.4043742453	-0.082423
O	 1.8691927995	 3.6158631815	-1.2598074198	-0.307049
C	 1.5747926672	 3.5116939219	 0.1332420347	 0.456933
C	 0.7373346282	 4.5293633626	 0.8366318595	-0.339071
C	 2.2260824168	 4.4006183876	 1.1389595997	-0.334281
H	-0.0639339882	-2.2152875221	-0.5514366658	 0.196843
H	-0.6770347875	 1.95072282	-0.1872054638	 0.138332
H	-0.1602886653	 1.5159128236	 1.4329315265	 0.130847
H	 2.2266790772	 1.4644035728	 0.6677894923	 0.093072
H	 2.808245558	 1.775042403	-1.7074975517	 0.107591
H	 1.0711727466	 1.8543800881	-2.1215298373	 0.109622
H	 0.4193330695	 5.386658233	 0.2529587403	 0.126745
H	 0.0241231152	 4.2017917601	 1.5865088745	 0.114065
H	 2.527572368	 3.9772915626	 2.092130418	 0.113674
H	 2.8812425066	 5.176067732	 0.7568709252	 0.124983
54.4462	65.0503	108.9256	196.7704	247.9801	341.0875	344.4008	362.465	482.8232	516.1045	571.2702	624.8285	643.1902	757.1316	819.5991	865.5297	877.0086	887.4883	910.2487	937.2788	979.7067	1012.2036	1014.5489	1047.118	1066.0405	1089.4246	1114.3224	1158.0241	1186.8926	1220.9177	1233.369	1240.563	1321.8545	1352.3727	1354.4485	1398.0948	1447.7932	1470.7071	1494.3347	1529.4292	2238.2431	3019.8613	3027.6657	3051.1891	3070.919	3088.8107	3125.0981	3128.2194	3208.755	3222.9509	3506.5655
C#CCC1COC11CC1	C#CC[C@H]1COC21CC2	
InChI=1S/C8H10O/c1-2-3-7-6-9-8(7)4-5-8/h1,7H,3-6H2	InChI=1S/C8H10O/c1-2-3-7-6-9-8(7)4-5-8/h1,7H,3-6H2/t7-/m0/s1
