17
gdb 126064	3.77759	1.1159	1.07958	2.7836	75.04	-0.2351	0.0128	0.2479	1175.4882	0.137705	-418.012396	-418.004516	-418.003572	-418.04528	29.417	
C	 0.0114003336	 1.51078866	-0.2575319849	-0.432975
C	 0.0337813091	 0.0292560442	 0.0015409283	 0.090544
O	 1.3070245706	-0.6308444066	 0.0260157121	-0.267201
C	 0.5487171374	-0.5942417961	 1.2431739391	-0.087098
C	 1.1650562685	 0.1625692242	 2.3505604002	 0.384985
C	 0.8047707648	 0.3561034273	 3.6716519756	-0.327877
C	 1.8308400707	 1.1654142404	 4.2038371456	 0.000064
N	 2.7633563711	 1.4502351817	 3.2980488557	-0.229485
N	 2.3307688343	 0.8367064126	 2.1815634697	-0.235228
H	 0.7325076768	 2.0425571559	 0.3663143526	 0.137858
H	 0.2414663392	 1.7147676491	-1.3083437829	 0.133424
H	-0.9866129728	 1.9106592787	-0.0495975212	 0.130505
H	-0.7275208306	-0.5424155373	-0.5329314614	 0.098216
H	 0.1122936282	-1.5502518658	 1.5337863687	 0.108864
H	-0.0703545034	-0.0277158742	 4.1705318766	 0.103062
H	 1.9277807459	 1.54850465	 5.2091591512	 0.112804
H	 2.8877613665	 0.8399004059	 1.342727815	 0.279537
71.9825	120.7988	165.7234	203.9118	276.986	384.4319	442.9219	513.0339	592.9963	666.1194	708.6019	740.9131	793.352	807.7828	860.8778	894.7865	940.0494	970.6091	1012.1673	1053.1651	1064.1994	1088.9666	1129.4866	1155.6295	1170.542	1243.9508	1275.0471	1308.9877	1333.5082	1386.0151	1412.0636	1435.2999	1465.8187	1488.6757	1496.5104	1500.2557	1604.8346	3042.6829	3089.2873	3104.686	3107.9989	3138.5037	3244.5102	3268.5998	3668.0894
CC1OC1C1=CC=NN1	C[C@H]1O[C@H]1c1ccn[nH]1	
InChI=1S/C6H8N2O/c1-4-6(9-4)5-2-3-7-8-5/h2-4,6H,1H3,(H,7,8)	InChI=1S/C6H8N2O/c1-4-6(9-4)5-2-3-7-8-5/h2-4,6H,1H3,(H,7,8)/t4-,6-/m1/s1
