20
gdb 121511	7.90541	0.43227	0.42569	3.8571	83.82	-0.2437	-0.0204	0.2234	2538.8963	0.167275	-440.291481	-440.280621	-440.279677	-440.329955	36.085	
C	 0.0217189768	 1.5446217387	-0.0532371015	-0.384895
C	 0.0698887163	 0.0291804407	-0.0113367602	-0.0559
O	 0.6597680745	-0.4248979914	-1.2358190522	-0.202039
C	 0.7822785965	-1.754829812	-1.3732736889	 0.130433
N	 1.2859513763	-2.2518947677	-2.4159104641	-0.212316
C	 1.3737186152	-3.6960500677	-2.4861749878	-0.165921
C	 0.5516698967	-4.2237407705	-3.6768083938	-0.255649
C	 0.8180040179	-5.685231243	-3.9444894317	 0.155113
O	-0.0220400786	-6.5464646309	-3.9935617848	-0.23694
H	 1.0284731326	 1.9584995601	-0.1541423745	 0.137554
H	-0.5778321355	 1.886797401	-0.9008728888	 0.137806
H	-0.4238768842	 1.9305822587	 0.8680814277	 0.122959
H	 0.6706061759	-0.3205073733	 0.8390435982	 0.110711
H	-0.9391130563	-0.3924479593	 0.0902992582	 0.111278
H	 0.4160285362	-2.3424907998	-0.5160076887	 0.076819
H	 2.4268741654	-3.9702516227	-2.6354322733	 0.111731
H	 1.0395199871	-4.1920851671	-1.5584156774	 0.093943
H	-0.5195530877	-4.0750693754	-3.517774984	 0.119636
H	 0.8510541935	-3.6527335651	-4.5663102262	 0.13566
H	 1.8960087715	-5.9309493332	-4.1005868062	 0.07002
31.7588	40.8636	72.1625	82.7405	111.0633	152.053	225.5382	250.2429	277.5941	335.4923	364.6896	487.4202	531.3933	602.7985	783.9035	817.8173	864.6329	919.7915	984.1628	999.7758	1055.0875	1064.5324	1098.6349	1133.3727	1154.2597	1182.3893	1214.6271	1261.4065	1267.5203	1302.8893	1312.2317	1378.3113	1397.8795	1413.4751	1430.8956	1437.6173	1464.0746	1483.6655	1498.7774	1503.0709	1522.4748	1770.1029	1836.4851	2844.7184	2951.4281	2984.4035	3007.385	3026.2742	3030.2775	3044.6292	3050.5374	3109.2099	3126.0421	3130.7248
CCOC=NCCC=O	CCOC=NCCC=O	
InChI=1S/C6H11NO2/c1-2-9-6-7-4-3-5-8/h5-6H,2-4H2,1H3	InChI=1S/C6H11NO2/c1-2-9-6-7-4-3-5-8/h5-6H,2-4H2,1H3
