14
gdb 17097	5.00753	1.60412	1.47011	3.4913	64.97	-0.253	-0.0718	0.1812	850.9195	0.107763	-382.500188	-382.493945	-382.493001	-382.530804	23.743	
O	-0.0182707876	-0.0132170831	-0.0277167291	-0.272584
C	 0.037376007	 1.1969259852	 0.0242155469	 0.037783
C	 1.2788195505	 1.9566675834	 0.0266044565	 0.293171
C	 1.4942236191	 3.2830350915	 0.0013002431	-0.179004
C	 3.0310364299	 3.3393494283	-0.0001591193	 0.025768
C	 3.3780196628	 2.2766476247	-1.0900590611	-0.220551
C	 2.7233334823	 1.419563306	 0.0346723624	-0.039908
O	 3.3538962899	 2.3244746721	 1.0035194257	-0.281561
H	-0.8850972843	 1.8162272445	 0.071294461	 0.074743
H	 0.795982288	 4.1078646179	-0.0236816248	 0.132982
H	 3.546510291	 4.2900451659	 0.1219460883	 0.093132
H	 2.8897674685	 2.3333976839	-2.0648945155	 0.107467
H	 4.4536749351	 2.1096609113	-1.1728430651	 0.120113
H	 2.9020887778	 0.3601580883	 0.1978733511	 0.108449
108.4727	172.7303	240.6281	476.9095	498.1811	554.8594	629.6768	704.3666	791.8071	814.7471	844.8708	852.6964	891.3234	917.3621	939.4727	1016.971	1036.1298	1056.0829	1089.3932	1160.1123	1204.4393	1214.3811	1235.7882	1252.5286	1294.1699	1322.5675	1413.552	1485.2811	1646.518	1774.8051	2889.3859	3071.4879	3144.7053	3147.2849	3170.3114	3238.4479
O=CC1=CC2CC1O2	O=CC1=C[C@@H]2C[C@H]1O2	
InChI=1S/C6H6O2/c7-3-4-1-5-2-6(4)8-5/h1,3,5-6H,2H2	InChI=1S/C6H6O2/c7-3-4-1-5-2-6(4)8-5/h1,3,5-6H,2H2/t5-,6-/m1/s1
