21
gdb 118296	2.0152	1.0413	0.78916	4.7052	76.96	-0.2645	0.0163	0.2808	1533.4188	0.179198	-461.383766	-461.372936	-461.371992	-461.421082	37.226	
C	-0.6846796693	 1.4646964655	-0.0617085882	-0.384302
C	-0.4391524398	 0.0105212451	 0.3047567195	-0.04058
O	-1.5729171915	-0.7417365143	-0.0925341326	-0.264898
C	-1.449046068	-2.1512141745	-0.0038796685	 0.138699
C	-1.3836956212	-2.6638538327	 1.4372298554	-0.407102
C	-2.6482563188	-2.7123331054	-0.766518554	-0.104915
O	-3.8794942889	-2.4249856832	-0.0988327994	-0.182944
C	-4.5004925332	-1.267068733	-0.4133268809	 0.182433
O	-5.4811223873	-0.8950501263	 0.156973746	-0.281624
H	 0.1680521644	 2.0811754978	 0.2377546638	 0.117696
H	-0.8304088023	 1.5711451127	-1.1403283428	 0.124496
H	-1.5784776186	 1.84018206	 0.4442963787	 0.135054
H	 0.4604515473	-0.3726787181	-0.2051100079	 0.086574
H	-0.2659801652	-0.0833564409	 1.3865960335	 0.098315
H	-0.5438493363	-2.4753794973	-0.5479859206	 0.0683
H	-2.2798443887	-2.3662353514	 1.9863877918	 0.148793
H	-1.318024094	-3.7565814371	 1.446060442	 0.118389
H	-0.5048374315	-2.2763063444	 1.958282052	 0.120565
H	-2.6609903048	-2.2969469915	-1.7810330493	 0.116993
H	-2.5849577152	-3.8012608267	-0.8318801963	 0.122768
H	-4.0149944572	-0.7331205043	-1.2490373623	 0.087289
48.4606	54.6785	84.4168	99.3722	167.7708	186.5623	215.9144	251.3959	277.9462	317.0119	366.953	419.0515	477.7323	588.4121	694.6669	815.4089	825.2637	884.0752	927.1878	980.6914	1007.8511	1038.2474	1067.4798	1109.5775	1126.2487	1145.6742	1172.0619	1184.388	1192.4644	1298.9056	1317.0549	1354.5167	1371.6035	1393.3035	1403.7535	1411.8617	1430.8571	1435.0295	1483.9438	1487.1968	1492.2244	1499.1804	1500.7268	1529.3845	1865.7835	2946.9423	2966.9232	2986.9501	3010.7169	3041.2715	3046.0809	3048.8045	3109.9715	3115.6888	3121.0124	3123.8963	3138.1501
CCOC(C)COC=O	CCO[C@@H](C)COC=O	
InChI=1S/C6H12O3/c1-3-9-6(2)4-8-5-7/h5-6H,3-4H2,1-2H3	InChI=1S/C6H12O3/c1-3-9-6(2)4-8-5-7/h5-6H,3-4H2,1-2H3/t6-/m0/s1
