12
gdb 129173	5.40883	1.35298	1.08226	0.9071	64.6	-0.2148	-0.0175	0.1974	995.2424	0.079257	-468.781302	-468.774698	-468.773753	-468.812466	24.937	
N	-0.094685702	 1.2887614942	 0.008373671	-0.576208
C	-0.0117911162	 0.0337047432	 0.0009877496	 0.452011
N	-1.1112704371	-0.8448143163	 0.0025819932	-0.484407
C	-0.6071928477	-2.1149805472	-0.0073136613	 0.505625
C	 0.7416529645	-2.0566575695	-0.0148768498	 0.157191
O	 1.1541068037	-0.7379656763	-0.0100891425	-0.255778
C	 1.1451787006	-3.3991637107	-0.0245716624	-0.098167
N	 0.0909627183	-4.2047549867	-0.0229130007	-0.160455
O	-1.0711075908	-3.346215518	-0.0113811651	-0.231975
H	 0.8224677083	 1.7259611249	 0.0054059742	 0.242264
H	-2.0616812144	-0.5194531768	 0.0100639534	 0.296792
H	 2.127801303	-3.8463959809	-0.0327635598	 0.153108
104.8338	169.7545	339.2424	344.8282	348.5492	548.0668	583.904	594.3157	703.4749	724.1248	758.1024	765.0024	786.0623	846.2956	892.2012	893.4585	970.4206	1013.2616	1156.8576	1186.6764	1280.273	1310.5321	1403.191	1491.1036	1589.388	1671.6742	1802.9139	3258.9353	3553.8784	3698.6978
N=C1NC2=C(O1)C=NO2	[NH][C@H]1Nc2c(O1)cno2	
InChI=1S/C4H3N3O2/c5-4-7-3-2(8-4)1-6-9-3/h1H,(H2,5,7)	InChI=1S/C4H4N3O2/c5-4-7-3-2(8-4)1-6-9-3/h1,4-5,7H/t4-/m0/s1
