20
gdb 99854	2.05679	1.26817	1.1955	3.5915	74.88	-0.2402	0.0193	0.2595	1212.6086	0.169927	-436.464155	-436.453498	-436.452554	-436.499149	39.378	
C	 0.0998171063	 1.5465466613	-0.0046818461	-0.431357
C	 0.0126737598	 0.0239869876	 0.0966751989	 0.104721
O	 0.6160885237	-0.4533163796	 1.2877967044	-0.426021
C	-1.442240294	-0.5420795376	-0.05260367	 0.051094
N	-2.1562390693	-0.1108311772	-1.2609620794	-0.537352
C	-1.3997335899	-2.1048970726	-0.0669745189	-0.159833
N	-2.684730669	-2.7758590101	-0.0726883939	-0.509432
C	-2.2119174765	-0.1037827018	 1.1254431112	 0.287301
N	-2.7552747652	 0.2441850237	 2.0851583912	-0.350765
H	 1.1384027859	 1.857560885	 0.1320925369	 0.137366
H	-0.2389236326	 1.9118622043	-0.9782293018	 0.113025
H	-0.5078362382	 2.0266718348	 0.7713821555	 0.135103
H	 0.5952397796	-0.4285671655	-0.7162043072	 0.091645
H	 0.1845544394	-0.0196726316	 2.0346028867	 0.294254
H	-2.3216951758	 0.8901467893	-1.2561512177	 0.245636
H	-1.5856693107	-0.3201105629	-2.0761327209	 0.237823
H	-0.8483235929	-2.3815675136	-0.9764007444	 0.101767
H	-0.8044770122	-2.4426332335	 0.7829081609	 0.137286
H	-3.1439579897	-2.6606086877	 0.8260035387	 0.238995
H	-3.2861461988	-2.3362918522	-0.7645029741	 0.238743
86.6758	117.36	141.009	154.0361	208.5951	239.2701	274.3391	291.8944	328.1411	340.7452	367.6546	390.9545	426.3723	453.1249	487.3012	602.3764	666.7728	685.5113	826.375	875.5691	901.7075	910.5529	959.1859	994.1888	1068.9793	1091.8403	1119.3122	1137.2327	1156.508	1220.0284	1278.8329	1322.1185	1345.9519	1384.1389	1401.3942	1407.3378	1420.8115	1488.2103	1495.9816	1496.5145	1649.4211	1671.4952	2346.2781	3014.5352	3031.849	3036.7076	3107.6012	3125.2447	3125.986	3490.1582	3491.5171	3569.3081	3582.6576	3781.4971
CC(O)C(N)(CN)C#N	C[C@@H](O)[C@@](N)(CN)C#N	
InChI=1S/C5H11N3O/c1-4(9)5(8,2-6)3-7/h4,9H,2,6,8H2,1H3	InChI=1S/C5H11N3O/c1-4(9)5(8,2-6)3-7/h4,9H,2,6,8H2,1H3/t4-,5-/m1/s1
