16
gdb 55516	3.39461	0.96651	0.78341	5.1222	69.45	-0.2441	-0.0706	0.1735	1394.0211	0.12353	-471.265222	-471.255736	-471.254791	-471.300731	34.228	
N	 0.726476823	 0.168986117	-0.4857388225	-0.511931
C	-0.1711233468	 0.1136987316	 0.5354122096	 0.37955
O	-0.0684437713	 0.7485010108	 1.5643903475	-0.349776
C	-1.4136750854	-0.7581633604	 0.2756730415	-0.408465
C	-1.1827018855	-2.0956392512	-0.3865110472	 0.373305
O	-0.3815218321	-2.2766998417	-1.2866188477	-0.347091
C	-2.033289252	-3.2716258678	 0.0814226345	 0.280913
N	-1.69702247	-4.4325623259	-0.5479844181	-0.535756
N	-2.9212588808	-3.0555634547	 0.9783992249	-0.497598
H	 1.590030828	 0.6562838237	-0.306356291	 0.257031
H	 0.695122834	-0.5389698485	-1.205117791	 0.272947
H	-1.9533510771	-0.8845417411	 1.2110451566	 0.180745
H	-2.0697176844	-0.1897810241	-0.3992861578	 0.162394
H	-1.0645553486	-4.3613140829	-1.3296543236	 0.273158
H	-2.2972818435	-5.2362928997	-0.4858067517	 0.257716
H	-3.4463857276	-3.9021339751	 1.2072118761	 0.212859
38.8588	52.8198	87.1454	195.4797	274.9316	286.1566	374.5554	385.6967	417.9943	462.4095	513.1183	530.4124	537.9827	575.1021	619.7214	686.0987	723.0327	836.253	874.1	895.8811	961.5536	1061.523	1101.7572	1134.1002	1144.4589	1176.3485	1317.4905	1349.798	1429.1493	1443.405	1600.0849	1616.5197	1716.1302	1764.5326	1811.8155	3028.9957	3173.9443	3451.4373	3554.7199	3593.4223	3698.3004	3726.0251
NC(=O)CC(=O)C(N)=N	NC(=O)CC(=O)C(=N)N	
InChI=1S/C4H7N3O2/c5-3(9)1-2(8)4(6)7/h1H2,(H2,5,9)(H3,6,7)	InChI=1S/C4H7N3O2/c5-3(9)1-2(8)4(6)7/h1H2,(H2,5,9)(H3,6,7)
