18
gdb 107858	3.59494	1.35784	1.29861	1.6142	70.21	-0.2382	0.0558	0.2939	1023.5517	0.149596	-439.01983	-439.01262	-439.011676	-439.051733	28.933	
O	 0.0678632457	 1.3793322031	-0.2080709506	-0.418164
C	 0.0082842661	 0.0024003532	 0.1464806231	-0.195965
C	-1.4041086203	-0.5216393441	 0.1260115807	 0.284876
C	-2.4651032735	-0.0228474486	 1.1365189764	-0.252064
C	-3.4032422039	-1.210258169	 0.8663973766	 0.045126
O	-2.5916215219	-2.326568697	 1.3422926765	-0.292301
C	-1.797417403	-2.0843702522	 0.1848690893	 0.057204
C	-2.9658151736	-1.5426557136	-0.6436128963	-0.052326
N	-2.1255187327	-0.4734207852	-1.1888159818	-0.360964
H	-0.1375416038	 1.4337030084	-1.1473874053	 0.288964
H	 0.6374677501	-0.604435897	-0.5209486717	 0.094969
H	 0.4203598472	-0.0752684143	 1.1582296256	 0.115299
H	-2.1402549369	-0.0198282469	 2.1792731716	 0.113314
H	-2.8553077949	 0.9616993404	 0.8657293984	 0.100177
H	-4.426494337	-1.21978683	 1.2372862921	 0.082241
H	-1.0791083732	-2.8554049612	-0.0855817441	 0.092563
H	-3.626238887	-2.1169784185	-1.2913029319	 0.086709
H	-2.6148038373	 0.4071481227	-1.3506156584	 0.210342
64.6451	162.2512	282.3261	325.4934	377.6736	448.7204	507.4294	557.2993	676.7521	695.7923	763.5579	790.1158	850.2933	854.9379	877.454	900.4277	937.6877	951.7782	985.9176	1028.3044	1033.0984	1050.1244	1059.7096	1086.3902	1112.17	1144.8011	1172.9438	1207.7083	1230.2486	1240.3996	1273.744	1281.0867	1317.2706	1336.8191	1353.0918	1393.2375	1416.9954	1477.2606	1493.0475	2998.4788	3066.8849	3077.246	3124.6451	3130.2253	3142.0944	3150.8021	3443.2116	3812.5509
OCC12CC3OC1C3N2	OC[C@]12C[C@@H]3O[C@H]1[C@@H]3N2	
InChI=1S/C6H9NO2/c8-2-6-1-3-4(7-6)5(6)9-3/h3-5,7-8H,1-2H2	InChI=1S/C6H9NO2/c8-2-6-1-3-4(7-6)5(6)9-3/h3-5,7-8H,1-2H2/t3-,4+,5-,6+/m0/s1
