16
gdb 115041	2.32001	1.60005	1.07368	4.4689	66.18	-0.2488	-0.0194	0.2294	1110.7281	0.123136	-475.028649	-475.020106	-475.019162	-475.062777	29.654	
C	-0.035244174	 1.4178432133	-0.0317997606	-0.249097
O	-0.0400736818	 0.0052597908	 0.127830076	-0.224687
C	-1.2806463444	-0.5880752437	-0.019309596	 0.192313
O	-1.7382309919	-0.5045197326	-1.3899267887	-0.229658
C	-1.6427045248	-1.7689532752	-1.8844332805	 0.114342
N	-1.3391563288	-2.7247811853	-1.1136502598	-0.237271
C	-1.1558844605	-2.1231105446	 0.2076922195	-0.145171
C	 0.1641768764	-2.5001501344	 0.8794031847	 0.175402
O	 0.9972917501	-3.2144877032	 0.3985398605	-0.226214
H	 0.9812970777	 1.7536687459	 0.1781115008	 0.142564
H	-0.3122810845	 1.701262316	-1.0526352169	 0.137886
H	-0.7286985864	 1.8956062111	 0.6748679489	 0.115672
H	-2.0386192787	-0.0810518107	 0.5908995908	 0.086899
H	-1.8590352119	-1.8546230356	-2.9431289835	 0.149764
H	-1.954647974	-2.4684264091	 0.8797757204	 0.115753
H	 0.2763592875	-2.0670900526	 1.8975292943	 0.081504
68.6284	87.3612	113.9291	174.5533	210.941	240.9484	322.0149	433.725	462.6434	576.2252	732.1787	744.0061	834.9167	884.394	915.0485	949.9939	962.5519	1021.2042	1051.2191	1089.4135	1104.5792	1167.6031	1180.5031	1221.6428	1276.0134	1309.3066	1312.7364	1355.675	1398.0192	1428.2251	1479.8876	1486.0948	1509.9835	1709.101	1852.6416	2888.7964	3004.6203	3009.6959	3033.6906	3082.1918	3141.7151	3221.8741
COC1OC=NC1C=O	CO[C@H]1OC=N[C@H]1C=O	
InChI=1S/C5H7NO3/c1-8-5-4(2-7)6-3-9-5/h2-5H,1H3	InChI=1S/C5H7NO3/c1-8-5-4(2-7)6-3-9-5/h2-5H,1H3/t4-,5-/m0/s1
