15
gdb 133023	3.8632	1.12671	0.87705	2.7267	75.58	-0.2122	-0.0444	0.1678	1237.614	0.111583	-461.937917	-461.929903	-461.928959	-461.971074	29.234	
C	-0.0457170237	 1.4521359145	 0.0072799744	-0.318577
N	 0.02849816	 0.0024116687	 0.0032200309	-0.319176
C	-1.0409949628	-0.6724280554	 0.0095265919	 0.423091
O	-2.2920093074	-0.0117396506	 0.0203849563	-0.248
C	-3.4484463163	-0.6970683629	 0.0269418303	 0.094055
C	-3.5218337329	-2.038609275	 0.0240305706	-0.312779
C	-2.2778211553	-2.7544221702	 0.0132033642	 0.331951
F	-2.3447180729	-4.0831434587	 0.0103041045	-0.06679
C	-1.0919702118	-2.1181834675	 0.0062146419	-0.35023
H	 0.9676563301	 1.8601731957	-0.0015988478	 0.11937
H	-0.5820199693	 1.8423034845	-0.8688505638	 0.117531
H	-0.5646061626	 1.8379490009	 0.8957567025	 0.11758
H	-4.3070470359	-0.0364253402	 0.0348480096	 0.145774
H	-4.469721248	-2.5567440554	 0.0295520262	 0.129268
H	-0.1508046613	-2.6493941885	-0.0020212717	 0.136932
66.6044	112.8265	175.2778	202.9211	307.5842	366.6756	401.3014	457.8206	491.4834	632.3984	665.9726	709.4336	737.6838	772.3834	843.3896	875.2154	934.8657	983.7624	1024.6394	1085.0874	1109.1415	1141.3445	1191.1914	1239.362	1291.6166	1340.1988	1438.5951	1470.1798	1484.9782	1498.2826	1619.4725	1704.1113	1757.9393	2995.4821	3042.8127	3105.8962	3212.477	3241.7271	3246.9478
CN=C1OC=CC(F)=C1	C[N]C1=CC(=CCO1)F	
InChI=1S/C6H6FNO/c1-8-6-4-5(7)2-3-9-6/h2-4H,1H3	InChI=1S/C6H7FNO/c1-8-6-4-5(7)2-3-9-6/h2,4H,3H2,1H3
