19
gdb 123245	2.4363	0.8154	0.68374	3.9533	70.1	-0.2719	0.0088	0.2806	1656.0793	0.156917	-497.302192	-497.291963	-497.291019	-497.33941	34.738	
O	-0.0676837487	 1.3044807162	-0.3554865337	-0.418593
C	-0.0262594145	-0.0975393595	-0.5324973918	-0.06387
C	-1.3996864015	-0.7236502065	-0.3553553198	-0.072045
O	-2.2413300565	-0.1631457755	-1.3533931544	-0.263142
C	-3.5933123298	-0.5492414404	-1.2497467624	-0.054784
C	-4.3221890683	-0.0487496863	-2.4831422361	-0.103617
O	-3.898509076	-0.7570084081	-3.6489551297	-0.178646
C	-2.8517536439	-0.2523133162	-4.3373605584	 0.182785
O	-2.3580827409	-0.8252929999	-5.2602348083	-0.275759
H	-0.7607989695	 1.6256160179	-0.9431166716	 0.286285
H	 0.3664482388	-0.3700810653	-1.5246357653	 0.103038
H	 0.6582093696	-0.4982092519	 0.2219463752	 0.113829
H	-1.3506748508	-1.8186748363	-0.4614247359	 0.099164
H	-1.793383708	-0.4872106613	 0.6452531164	 0.10002
H	-3.6829494504	-1.6447248652	-1.1922002982	 0.112575
H	-4.0598199195	-0.1221263918	-0.3466278549	 0.099979
H	-5.3959950801	-0.2261524031	-2.3875844313	 0.131069
H	-4.1546672258	 1.0286694684	-2.6057880475	 0.120801
H	-2.5301979341	 0.7372019948	-3.9647530524	 0.080911
36.7162	50.8012	80.4439	127.0485	154.1698	189.6027	210.4972	314.1321	344.4277	381.3082	409.2253	515.1097	530.4537	636.0415	829.896	905.55	918.9573	946.8973	1036.3416	1056.7678	1065.7543	1086.749	1122.1774	1136.7024	1162.7859	1182.6162	1239.1485	1260.9215	1275.9997	1321.2263	1381.194	1388.7252	1401.785	1429.898	1432.4694	1447.7856	1490.7894	1494.9237	1498.6722	1520.5258	1869.5493	2970.5669	2974.9546	2980.7388	2986.7826	3013.5243	3023.0364	3039.6953	3085.1566	3112.9389	3806.2412
OCCOCCOC=O	OCCOCCOC=O	
InChI=1S/C5H10O4/c6-1-2-8-3-4-9-5-7/h5-6H,1-4H2	InChI=1S/C5H10O4/c6-1-2-8-3-4-9-5-7/h5-6H,1-4H2
