15
gdb 50186	2.1488	1.93397	1.25198	3.9396	71.01	-0.2419	-0.0265	0.2154	995.9597	0.10965	-420.539711	-420.53156	-420.530616	-420.572795	29.926	
O	-0.1372421221	-0.0484476303	 0.185496846	-0.232803
C	-0.0365461839	 1.1436086312	 0.0968330781	 0.157066
C	 1.2605702868	 1.8917678156	-0.1267689382	 0.023768
O	 2.3618435742	 1.1155754337	-0.6473799487	-0.269666
C	 2.5986976692	 2.1079869465	-1.6394407734	 0.094346
C	 1.4488672057	 2.235946198	-2.6109204402	-0.243224
C	 0.6013217939	 1.1512364081	-3.0092682801	 0.312875
C	-0.1149776885	 0.2520771852	-3.3603559612	-0.407207
C	 1.3949188543	 2.9286775335	-1.2474633623	-0.192465
H	-0.9088396536	 1.8272220027	 0.2314950882	 0.075668
H	 1.5407409614	 2.3421793256	 0.8396684143	 0.11766
H	 3.626180219	 2.36551874	-1.8675608053	 0.121318
H	 1.6682345606	 2.9580286016	-3.3957059502	 0.124735
H	-0.7424049148	-0.5553370502	-3.646846599	 0.20316
H	 1.2600696077	 3.9961993388	-1.1438656082	 0.11477
89.4193	102.5322	125.1316	211.5356	226.8296	357.9889	407.8437	553.1166	608.9543	637.4309	654.2008	663.1587	729.0412	755.1678	810.7523	855.7229	912.6184	978.6979	1009.324	1028.6569	1051.4963	1061.8666	1069.6714	1118.3166	1170.2319	1224.7756	1270.1828	1318.3573	1350.4327	1408.4979	1421.9556	1847.5917	2241.4676	2847.0313	2980.2127	3127.7002	3187.0787	3211.9415	3503.8217
O=CC1OC2C(C#C)C12	O=C[C@H]1O[C@H]2[C@@H](C#C)[C@@H]12	
InChI=1S/C7H6O2/c1-2-4-6-5(3-8)9-7(4)6/h1,3-7H	InChI=1S/C7H6O2/c1-2-4-6-5(3-8)9-7(4)6/h1,3-7H/t4-,5+,6-,7-/m0/s1
