18
gdb 82332	2.59233	1.75486	1.28964	1.1278	70.11	-0.2427	0.0657	0.3083	1000.6209	0.149122	-439.043983	-439.036424	-439.03548	-439.076036	30.062	
O	 0.5121196243	 0.7250471753	-0.7777138411	-0.430979
C	 0.1235748653	-0.3836007991	 0.0097934948	 0.024507
C	 0.5302743674	-0.2823331929	 1.4677994603	-0.000488
O	-0.2812477455	 0.6673511967	 2.1810587512	-0.266708
C	-0.5753661372	-0.7332857282	 2.3190344806	 0.0411
C	-1.7320408293	-1.2008734961	 1.4588944075	-0.315339
C	-1.4010791646	-0.6336885069	 0.0779280276	 0.317115
C	-2.3332312977	 0.2434949685	-0.6696924108	-0.279881
N	-2.1262054816	-1.1579178384	-1.0825160974	-0.378621
H	 0.2029278975	 1.5122298837	-0.312302311	 0.291137
H	 0.6221329016	-1.2500734015	-0.4453051443	 0.095291
H	 1.5768609675	-0.3216528079	 1.7570732409	 0.102782
H	-0.4138219483	-1.1409376056	 3.3132561848	 0.101147
H	-1.7515381568	-2.2970992483	 1.4324193868	 0.116456
H	-2.7027311037	-0.8624721373	 1.8330492746	 0.116838
H	-3.3137246722	 0.4595268601	-0.2536868675	 0.11583
H	-1.9093247642	 1.0265746736	-1.2902383558	 0.116099
H	-1.5053821724	-1.1761047158	-1.890175161	 0.233714
71.2427	183.1913	271.4308	293.1724	366.029	378.2588	439.88	461.3533	544.0364	621.1909	659.429	788.3124	811.4192	862.8154	873.9828	898.3465	936.872	942.524	989.0486	996.944	1047.298	1063.383	1067.9234	1102.7222	1113.681	1137.4518	1188.3781	1257.9268	1265.8225	1278.3331	1293.2345	1297.4191	1310.8027	1347.6743	1395.7211	1434.8235	1438.9108	1480.6438	1502.8761	3025.458	3041.4539	3089.2084	3111.6757	3149.2678	3161.6868	3203.1279	3475.0702	3785.4865
OC1C2OC2CC11CN1	O[C@H]1[C@H]2O[C@H]2C[C@]21CN2	
InChI=1S/C6H9NO2/c8-5-4-3(9-4)1-6(5)2-7-6/h3-5,7-8H,1-2H2	InChI=1S/C6H9NO2/c8-5-4-3(9-4)1-6(5)2-7-6/h3-5,7-8H,1-2H2/t3-,4-,5-,6+/m0/s1
