14
gdb 123693	4.10586	1.62003	1.26155	1.7538	66.18	-0.2544	-0.0125	0.2419	923.9795	0.104827	-432.846805	-432.840767	-432.839823	-432.877158	24.044	
C	-0.0619010937	 1.5163976386	 0.004601805	-0.385484
C	 1.4367395106	 1.8832154169	-0.0313866828	 0.055507
O	 2.1788793217	 1.4647471539	 1.1118386694	-0.245405
C	 2.288444586	 0.6646888391	-0.085989578	-0.129543
C	 1.3286560285	-0.4596039097	-0.06580034	 0.344023
N	 1.3283996144	-1.785603042	-0.0661707893	-0.324264
N	 0.021493096	-2.0541845123	 0.0299767392	-0.099503
N	-0.8202154292	-1.0120888796	 0.0911115209	-0.30836
C	 0.0133409596	 0.0158323425	 0.0233755105	 0.308638
H	-0.5484660843	 1.9406004701	 0.8883528622	 0.143594
H	-0.579502326	 1.9034429557	-0.8799873869	 0.12877
H	 1.7467314994	 2.8304833008	-0.46473043	 0.104961
H	 3.2697781952	 0.6238000365	-0.5448740808	 0.113483
H	-0.3189720682	-3.0018394804	 0.0321324006	 0.293582
168.3537	250.7782	362.7723	447.8338	456.4977	477.4468	624.9021	701.2991	724.8426	761.5288	792.4128	850.9982	858.9932	901.8452	984.1934	997.4646	1031.3829	1093.6719	1148.8073	1159.7052	1185.0443	1203.6473	1240.6522	1277.3313	1303.3645	1380.5241	1434.3163	1447.5979	1469.0344	1519.4239	1601.8856	3050.3319	3093.194	3150.9989	3186.287	3674.3533
C1C2OC2C2=NNN=C12	C1[C@H]2O[C@H]2c2n[nH]nc12	
InChI=1S/C5H5N3O/c1-2-4(7-8-6-2)5-3(1)9-5/h3,5H,1H2,(H,6,7,8)	InChI=1S/C5H5N3O/c1-2-4(7-8-6-2)5-3(1)9-5/h3,5H,1H2,(H,6,7,8)/t3-,5-/m1/s1
