18
gdb 38013	3.45753	2.1344	1.7999	0.6395	81.22	-0.2084	-0.0334	0.175	819.2134	0.150652	-364.677402	-364.671616	-364.670672	-364.706975	25.966	
C	-0.080586498	 1.6319865098	-0.0223748727	-0.244291
C	 1.4599362685	 1.5673044265	 0.059995092	-0.021771
C	 2.0256096861	 1.3915720203	 1.4307682291	-0.124442
C	 1.6394034938	 0.2196585433	 1.9886878515	 0.034652
C	 2.6738691921	-0.882676829	 1.709303045	-0.264232
C	 1.7396083568	-1.0344067191	 0.447777492	 0.036457
C	 0.5163030272	-0.5569810863	 1.2685317184	-0.092182
C	-0.0231934147	 0.1131095966	-0.0043878426	 0.017322
N	 1.4024838937	 0.0973466895	-0.5587370184	-0.18994
H	-0.5922122058	 2.1479311412	 0.7907175295	 0.108789
H	-0.4290232947	 2.0102762151	-0.9860919272	 0.109938
H	 2.0381533866	 2.2529809162	-0.5591629098	 0.085052
H	 3.0402354969	 1.7457165497	 1.6052183743	 0.08723
H	 3.7147350412	-0.5754074428	 1.6009349253	 0.112008
H	 2.6038494795	-1.8095904392	 2.292917256	 0.103497
H	 1.751245963	-1.98579324	-0.091606465	 0.096631
H	-0.0803853059	-1.2341580837	 1.881597438	 0.073786
H	-0.7616586465	-0.4840544481	-0.5470941753	 0.071497
278.4011	357.2467	414.7625	491.5841	589.0319	596.8123	628.465	654.5737	764.4042	779.6204	798.2622	836.7572	849.2131	874.4813	899.7583	906.4426	955.0702	961.4002	995.1189	1016.515	1045.0392	1058.5425	1076.0786	1090.8041	1114.1751	1121.8719	1173.8563	1183.3617	1192.7093	1222.2	1249.8303	1262.1505	1293.8586	1314.4866	1333.399	1365.08	1484.0396	1493.5278	1582.7158	3021.2168	3059.8311	3073.6225	3074.7373	3098.1408	3107.8178	3122.7253	3131.5966	3133.2512
C1C2C=C3CC4C3C1N24	C1[C@H]2[CH][C]3C[C@H]4[C@@H]3[C@@H]1N24	
InChI=1S/C8H9N/c1-4-2-6-8(4)7-3-5(1)9(6)7/h1,5-8H,2-3H2	InChI=1S/C8H9N/c1-4-2-6-8(4)7-3-5(1)9(6)7/h1,5-8H,2-3H2/t5-,6+,7-,8-/m1/s1
