18
gdb 117522	2.41946	1.14935	0.81179	0.9095	73.47	-0.2342	0.0102	0.2443	1388.5052	0.147034	-435.300719	-435.290486	-435.289542	-435.33724	35.701	
C	-0.6639341934	 0.8037517747	 0.0492589759	-0.332677
N	 0.7127261425	 0.3194369025	-0.0122448218	-0.284707
C	 1.0625931999	-0.4198226683	-1.2131622686	-0.176542
C	 0.8565743575	-1.9519626541	-1.050530669	-0.254628
C	-0.5468711357	-2.3518956492	-1.0142339356	 0.298967
N	-1.6471345176	-2.7103490594	-1.0318506804	-0.349766
C	 1.6709036917	-2.7104564786	-2.1369711033	 0.438598
N	 1.044358414	-3.7400468199	-2.7525787857	-0.540313
O	 2.8151021804	-2.37782197	-2.3691071749	-0.360768
H	-0.9611495234	 1.4094362264	-0.8246871118	 0.099873
H	-1.358867504	-0.037041561	 0.1213717607	 0.151529
H	-0.7895359802	 1.4132640581	 0.9484994492	 0.121848
H	 1.3491887094	 1.0993454998	 0.0914169955	 0.227369
H	 0.5148945553	-0.0797626617	-2.1081539525	 0.099423
H	 2.1292415563	-0.3054090612	-1.4149367508	 0.14226
H	 1.3089438836	-2.2244234776	-0.0896572372	 0.163803
H	 0.082094711	-3.9723886149	-2.5720865687	 0.28601
H	 1.5543225027	-4.2517438254	-3.4539479209	 0.269721
30.7628	53.6569	103.7805	155.8861	180.2364	216.1014	237.2089	317.8842	340.6344	412.3721	414.898	520.2094	525.0064	579.081	617.8346	702.0523	728.6849	847.3982	896.4059	965.5442	1035.8215	1055.6678	1115.311	1149.9023	1163.0707	1182.3386	1214.1153	1286.865	1343.0231	1357.6964	1388.5745	1462.954	1484.4947	1493.8088	1499.6023	1523.0695	1620.5469	1804.3583	2341.245	2954.9627	2963.4221	3056.5521	3079.9548	3116.9281	3121.6615	3553.9741	3596.3332	3728.7068
CNCC(C#N)C(N)=O	CNC[C@@H](C#N)C(=O)N	
InChI=1S/C5H9N3O/c1-8-3-4(2-6)5(7)9/h4,8H,3H2,1H3,(H2,7,9)	InChI=1S/C5H9N3O/c1-8-3-4(2-6)5(7)9/h4,8H,3H2,1H3,(H2,7,9)/t4-/m1/s1
