19
gdb 31727	5.73737	0.8005	0.72716	0.9579	81.48	-0.1724	0.0389	0.2114	1563.5549	0.160338	-419.226738	-419.217348	-419.216404	-419.261291	34.641	
C	-0.1672152652	 1.5354600536	 0.0477029401	-0.318231
N	 0.0453203178	 0.1256658397	-0.2194654846	-0.382337
C	-1.0665248703	-0.7194606849	-0.1108798496	 0.316337
C	-2.285277364	-0.435312121	 0.4765234718	-0.175403
N	-3.0572381506	-1.5780930243	 0.4012314566	-0.300001
C	-2.3573086548	-2.5803186456	-0.2126374355	 0.301544
C	-2.9788814981	-3.919565211	-0.4346539696	-0.177191
O	-3.669886434	-4.3980094241	 0.7201791261	-0.419385
C	-1.1152433873	-2.0796252461	-0.5422263208	-0.370487
H	 0.7568807403	 2.0851454837	-0.147821104	 0.116556
H	-0.9783636448	 1.9840950014	-0.5512572732	 0.102453
H	-0.4197042219	 1.6760601053	 1.1051268147	 0.126253
H	 0.555916622	-0.030462011	-1.077361401	 0.228188
H	-2.655018498	 0.4589244479	 0.9482077679	 0.107265
H	-3.9634896185	-1.7074189086	 0.8157928822	 0.260035
H	-3.7475707498	-3.883765937	-1.2168977224	 0.117147
H	-2.2057105405	-4.6235413606	-0.774209524	 0.102018
H	-3.0317484847	-4.4155496564	 1.4421577242	 0.282099
H	-0.3262782876	-2.622224891	-1.042206889	 0.083141
53.7041	79.0701	150.7119	183.0961	225.3313	288.2198	312.3061	343.1086	386.6874	476.1937	503.8327	571.8376	637.0206	651.425	684.655	712.3108	757.4397	784.3033	970.899	973.5657	994.1678	1047.3948	1081.2391	1130.9886	1144.8133	1161.5839	1188.9718	1210.1231	1280.643	1322.6224	1355.9008	1406.3533	1417.4712	1457.7956	1480.1843	1481.2716	1500.5945	1505.8162	1523.1176	1558.625	1644.0426	2955.6133	3002.8076	3043.2144	3052.711	3112.0721	3236.1451	3278.2129	3575.4007	3684.8966	3799.9431
CNC1=CNC(CO)=C1	CNc1c[nH]c(CO)c1	
InChI=1S/C6H10N2O/c1-7-5-2-6(4-9)8-3-5/h2-3,7-9H,4H2,1H3	InChI=1S/C6H10N2O/c1-7-5-2-6(4-9)8-3-5/h2-3,7-9H,4H2,1H3
