22
gdb 116645	3.62501	0.72126	0.71418	2.1825	83.85	-0.2456	0.0237	0.2693	1720.4675	0.189984	-441.475857	-441.464291	-441.463347	-441.513232	40.564	
C	 0.1542551866	 1.2346853895	-0.259069774	-0.250163
O	-0.082126974	 0.0118410849	 0.4254015301	-0.194948
C	-1.202334579	-0.6512126879	 0.0593165256	 0.113117
N	-1.4843648865	-1.7483789434	 0.6014224825	-0.254348
C	-2.6955838967	-2.4908803468	 0.2451176451	 0.267409
C	-3.5991491785	-2.5135645984	 1.4919326981	-0.388512
C	-3.4830895061	-1.9648125488	-0.9664397884	-0.430562
C	-2.1925353208	-3.9191288625	-0.0495371695	-0.075383
O	-3.3066950295	-4.7565431466	-0.3254016359	-0.425123
H	 1.0739398232	 1.6477606651	 0.157156832	 0.144782
H	 0.289667551	 1.0755816954	-1.3362218571	 0.124705
H	-0.6619907376	 1.9507901912	-0.1015380263	 0.124987
H	-1.7875618853	-0.1375409309	-0.7139296553	 0.076411
H	-3.9940337352	-1.5134283025	 1.6958109932	 0.103316
H	-4.4339455854	-3.2020423702	 1.3424371607	 0.127637
H	-3.025732071	-2.8354773635	 2.3655021489	 0.119284
H	-2.8489581986	-1.8957072835	-1.8575110549	 0.105504
H	-4.2986616408	-2.6545823975	-1.1920367387	 0.137426
H	-3.9163964781	-0.978147297	-0.7724433344	 0.1061
H	-1.5008596198	-3.8799870584	-0.9056893786	 0.081174
H	-1.6250223753	-4.2704123778	 0.8230246343	 0.09802
H	-2.9849656628	-5.6544212105	-0.4414046774	 0.289167
38.1298	62.9599	118.9844	141.9922	159.7666	199.1666	211.927	233.4498	258.3904	301.5032	330.7614	351.6252	376.5366	395.389	481.0345	518.9237	624.1358	766.6602	916.0569	922.1207	960.4468	976.8902	996.5942	1039.946	1067.3647	1078.0276	1155.2586	1176.7486	1191.096	1196.303	1232.8576	1277.6634	1284.0521	1297.4001	1386.7001	1398.6058	1417.422	1448.615	1483.0928	1484.2225	1487.1259	1494.4558	1498.6531	1501.3459	1509.9934	1521.5562	1772.509	2976.8163	3007.6311	3027.6256	3028.2343	3039.6349	3043.1369	3070.9082	3093.8114	3112.4465	3130.123	3134.7113	3141.7065	3842.1005
COC=NC(C)(C)CO	COC=NC(C)(C)CO	
InChI=1S/C6H13NO2/c1-6(2,4-8)7-5-9-3/h5,8H,4H2,1-3H3	InChI=1S/C6H13NO2/c1-6(2,4-8)7-5-9-3/h5,8H,4H2,1-3H3
