19
gdb 110921	2.07342	1.81411	1.17091	4.2156	75.37	-0.2427	-0.0378	0.2049	1086.2889	0.159459	-422.997032	-422.988722	-422.987778	-423.029875	31.829	
O	 0.4811273194	 0.5033467764	 0.8150983656	-0.425658
C	-0.0907414319	 0.2358871479	-0.4468325575	-0.09702
C	-1.418870023	-0.4888513454	-0.3319628197	-0.015069
C	-2.0091017306	-1.4452198162	-1.3284649549	-0.082056
C	-0.9499302567	-2.360239383	-1.9663086114	-0.274149
C	-0.5940069715	-2.8901491527	-0.523530777	-0.087602
C	 0.838690524	-2.8901095856	-0.0707879968	 0.144123
O	 1.2937806287	-2.2470577718	 0.8466328672	-0.253163
C	-1.6174818884	-1.9269768477	 0.0797051487	-0.093943
H	 0.7199236786	-0.3576315008	 1.1875955353	 0.298911
H	-0.2561993313	 1.207677999	-0.926287499	 0.102952
H	 0.6066603107	-0.3155063204	-1.0952319208	 0.075715
H	-2.1823136033	 0.1373651882	 0.1263325302	 0.097698
H	-3.0019009465	-1.3060058435	-1.7387016264	 0.092879
H	-1.3811023985	-3.1431090496	-2.591791066	 0.114806
H	-0.1487801236	-1.8707483792	-2.5267146292	 0.112732
H	-0.9318003932	-3.9318017077	-0.4506960765	 0.106579
H	 1.5008631476	-3.5717503948	-0.6521576885	 0.087529
H	-2.2635476804	-2.1827752531	 0.9103121568	 0.094735
104.2265	155.8387	165.8979	187.0449	266.0822	278.4127	361.5054	481.3641	506.9853	547.4235	659.8715	738.1025	764.2414	785.3877	831.0039	875.5549	920.1428	973.2352	983.0687	1010.043	1028.8638	1041.2593	1072.9091	1078.4129	1091.9163	1112.5195	1157.9384	1193.0833	1217.8411	1252.6626	1262.1997	1295.8173	1336.2635	1349.8481	1390.4675	1424.7518	1451.9582	1458.7188	1494.0873	1510.1952	1806.2502	2874.7651	2991.1707	3031.3803	3056.1092	3063.8824	3121.1037	3130.5558	3180.1491	3191.3496	3730.7255
OCC1C2CC(C=O)C12	OC[C@H]1[C@H]2C[C@@H](C=O)[C@@H]12	
InChI=1S/C7H10O2/c8-2-4-1-5-6(3-9)7(4)5/h2,4-7,9H,1,3H2	InChI=1S/C7H10O2/c8-2-4-1-5-6(3-9)7(4)5/h2,4-7,9H,1,3H2/t4-,5+,6-,7+/m0/s1
