15
gdb 24973	4.84117	1.24765	1.00556	1.6759	69.53	-0.1964	0.0307	0.2272	1108.7617	0.114581	-453.945779	-453.938409	-453.937465	-453.977832	27.502	
N	-0.0541657265	 1.2652692128	-0.0636755931	-0.591743
C	-0.014840983	 0.003579015	-0.0420508855	 0.436892
N	-1.1153254814	-0.8544267767	-0.0502244546	-0.44796
C	-0.642754308	-2.1531352478	 0.1156694142	 0.231035
C	 0.6813041271	-2.0953469642	 0.1137916819	 0.252037
C	 1.3019634511	-3.4455327509	 0.0561013305	-0.169933
O	 0.1463095009	-4.2994232604	 0.1604983861	-0.277473
C	-1.0938134903	-3.5725543589	 0.0602088375	-0.16509
O	 1.1301072711	-0.8011885011	-0.0019321991	-0.254989
H	 0.8804393337	 1.663139998	-0.0464215828	 0.231484
H	-2.0283492549	-0.4987648053	 0.174563639	 0.276211
H	 1.8391643675	-3.6379456096	-0.8858848891	 0.117874
H	 1.9828692733	-3.6767231697	 0.8858426251	 0.124175
H	-1.7423166974	-3.8836505668	 0.890031778	 0.119976
H	-1.6097702732	-3.8195209543	-0.8811195181	 0.117504
100.3404	132.7985	217.5824	247.6245	309.4791	381.4183	529.612	535.8507	611.0928	709.7125	728.315	746.8854	777.8515	876.8584	888.2577	903.9969	1021.7388	1026.9585	1051.7592	1071.8806	1114.3172	1148.8569	1204.9359	1259.5752	1291.9824	1313.8994	1358.4523	1413.9501	1473.6293	1522.4992	1532.2585	1758.9581	1797.0815	2975.7772	2980.3004	3021.3154	3025.6635	3550.2655	3681.3641
N=C1NC2=C(COC2)O1	[NH][C@@H]1NC2=C(COC2)O1	
InChI=1S/C5H6N2O2/c6-5-7-3-1-8-2-4(3)9-5/h1-2H2,(H2,6,7)	InChI=1S/C5H7N2O2/c6-5-7-3-1-8-2-4(3)9-5/h5-7H,1-2H2/t5-/m1/s1
