19
gdb 62258	5.734	0.54098	0.51113	1.5331	74.56	-0.2596	-0.0358	0.2237	2056.606	0.154031	-460.169183	-460.158376	-460.157432	-460.207435	35.732	
C	 0.2131039911	 1.4161309274	 0.1146756341	-0.405717
C	 0.0479344236	-0.1026874396	 0.0775545964	 0.041338
O	-1.2956761431	-0.548479242	 0.1071468332	-0.261421
C	-1.930151378	-0.4652064075	 1.3662281452	-0.067786
C	-3.3144152169	-1.100878704	 1.2348893956	-0.279619
C	-3.9858562804	-1.2773573084	 2.5785792223	 0.152674
O	-5.0677445945	-0.8397753957	 2.8703112859	-0.228489
C	 0.6526303076	-0.7108639138	-1.1863454924	 0.149197
O	 1.6512056085	-0.3058082032	-1.7185986748	-0.241594
H	 1.2546956469	 1.6649331892	-0.1016191122	 0.148266
H	-0.4201589568	 1.8803263832	-0.6467668032	 0.133926
H	-0.0505059393	 1.8288014571	 1.0913758947	 0.120546
H	 0.6050278872	-0.5528231619	 0.921754192	 0.096561
H	-1.3336910888	-0.9974843764	 2.1275323234	 0.093487
H	-2.0250678496	 0.5792585931	 1.6965914988	 0.112804
H	-3.9604155654	-0.5106175438	 0.5813359892	 0.134469
H	-3.1826507948	-2.0968616358	 0.7898887254	 0.132236
H	-3.3916726684	-1.8698788985	 3.3141792301	 0.074794
H	 0.0845493209	-1.5880641794	-1.5655232235	 0.094327
39.5713	44.6907	65.1562	88.287	104.4694	151.9374	209.1944	244.5351	299.1945	316.1765	421.1562	476.7276	520.0643	616.3098	789.1896	835.2562	870.9942	910.1597	929.259	1008.0873	1074.0687	1103.0637	1128.7686	1135.8165	1144.0596	1171.0425	1226.7689	1275.6312	1309.9137	1329.8641	1337.3854	1384.2249	1402.9147	1430.8988	1435.8176	1468.5022	1488.4713	1495.9607	1526.3873	1839.3037	1842.7855	2851.2161	2904.969	2926.7556	2956.7882	3011.9662	3030.6813	3051.8653	3120.251	3127.378	3137.7824
CC(OCCC=O)C=O	C[C@@H](OCCC=O)C=O	
InChI=1S/C6H10O3/c1-6(5-8)9-4-2-3-7/h3,5-6H,2,4H2,1H3	InChI=1S/C6H10O3/c1-6(5-8)9-4-2-3-7/h3,5-6H,2,4H2,1H3/t6-/m1/s1
