18
gdb 70117	2.72832	1.55119	1.13764	3.7889	80.38	-0.2109	-0.0081	0.2028	1091.4575	0.14816	-401.974007	-401.965992	-401.965048	-402.006373	31.075	
C	-0.0273994933	 1.51222505	-0.008701151	-0.481077
C	 0.0317167173	 0.0056821543	 0.0135015955	 0.338047
C	-0.8378238826	-0.8048316937	 0.9441334523	-0.327595
C	 0.6733741826	-0.8119660622	 1.1331176084	-0.133276
C	 1.4183556969	-1.8950433196	 0.4346863552	-0.165702
C	 1.2333886687	-1.7918346207	-0.8868050713	-0.022628
N	 0.4457442398	-0.6729612559	-1.2089499092	-0.091225
C	 0.1145867467	-0.3196278874	-2.4885484786	 0.137031
O	 0.4691812322	-0.9212628051	-3.4804700378	-0.331941
H	 0.8952365156	 1.9369455926	-0.4170299199	 0.133876
H	-0.8695456244	 1.8850831714	-0.6014301871	 0.131988
H	-0.1551600268	 1.8899503966	 1.0094808922	 0.128397
H	-1.4220688727	-0.2390908172	 1.6616705606	 0.117597
H	-1.3088791081	-1.7078821003	 0.5725033094	 0.12274
H	 1.0888599507	-0.3338398852	 2.0140162877	 0.096987
H	 2.0074105015	-2.6541425902	 0.9276260314	 0.111975
H	 1.5719838779	-2.4168682023	-1.6983199843	 0.155514
H	-0.5211542019	 0.582685855	-2.5231356936	 0.079295
92.742	192.9531	209.9397	231.0846	293.5635	321.0193	378.0839	431.765	513.0196	589.0072	621.2853	744.279	766.9615	805.1079	826.4212	864.9383	913.8151	926.8453	959.5975	1018.6288	1020.5844	1048.7045	1062.5129	1067.5873	1118.0563	1119.1984	1187.6968	1266.1044	1294.6549	1317.2049	1384.0862	1415.1773	1424.9127	1442.6063	1472.6576	1487.2673	1501.4498	1655.4152	1784.9178	2976.9048	3034.8011	3098.0864	3115.6721	3132.3198	3163.0191	3225.8762	3241.4844	3274.6877
CC12CC1C=CN2C=O	C[C@]12C[C@H]1C=CN2C=O	
InChI=1S/C7H9NO/c1-7-4-6(7)2-3-8(7)5-9/h2-3,5-6H,4H2,1H3	InChI=1S/C7H9NO/c1-7-4-6(7)2-3-8(7)5-9/h2-3,5-6H,4H2,1H3/t6-,7+/m1/s1
