17
gdb 131264	2.95391	1.34171	0.9898	0.6109	75.37	-0.207	0.0248	0.2318	1181.0124	0.137429	-418.00812	-417.999834	-417.99889	-418.042298	30.926	
O	-0.2217411018	 1.3971759249	-0.0306843838	-0.4464
C	-0.0689186719	 0.0421027908	-0.0138916312	 0.173798
C	 0.0101177717	-0.7691156341	-1.124505163	-0.11318
N	 0.1457251836	-2.0328569028	-0.6381033719	-0.189787
N	 0.1527590709	-2.0922797453	 0.7021995927	-0.299649
C	 0.0198224387	-0.8259621235	 1.1045871716	 0.263022
C	 0.0013841503	-0.4343935595	 2.5298348719	-0.138278
C	 0.0437480088	-1.4826301409	 3.613305325	-0.259686
C	 1.2410778057	-0.6014130155	 3.3976894811	-0.256124
H	-0.0011492905	 1.737149677	 0.8420045428	 0.300058
H	-0.0184376809	-0.5467803576	-2.1780091986	 0.134517
H	 0.2156226393	-2.8862936914	-1.1635415032	 0.273514
H	-0.6055042076	 0.4433930391	 2.7403038219	 0.077872
H	-0.5651260857	-1.3204379438	 4.4954691973	 0.108715
H	 0.1064340716	-2.5119879625	 3.2819905439	 0.141088
H	 2.1113258693	-1.0400427497	 2.9226886562	 0.122447
H	 1.4603450982	 0.1682289147	 4.1301283772	 0.108075
17.7173	149.59	169.4289	210.1765	284.9219	316.0838	405.6344	458.8365	522.6297	602.6123	655.4128	724.0766	729.1365	764.724	799.3018	825.0526	912.2555	923.0932	949.0863	1058.8526	1068.6493	1085.1361	1088.4749	1127.4903	1133.3288	1203.4751	1214.9986	1227.9241	1248.3481	1336.0088	1387.2079	1430.9518	1463.9385	1487.2661	1500.8598	1542.8904	1645.6112	3123.9681	3132.7385	3144.7466	3219.6923	3238.9321	3275.3862	3687.4564	3830.1442
OC1=CNN=C1C1CC1	Oc1c[nH]nc1C1CC1	
InChI=1S/C6H8N2O/c9-5-3-7-8-6(5)4-1-2-4/h3-4,9H,1-2H2,(H,7,8)	InChI=1S/C6H8N2O/c9-5-3-7-8-6(5)4-1-2-4/h3-4,9H,1-2H2,(H,7,8)
