18
gdb 6023	2.65475	1.77178	1.40087	2.445	68.04	-0.273	0.0232	0.2962	964.0427	0.15249	-381.135943	-381.126624	-381.12568	-381.1691	34.641	
C	 0.1094042488	 1.5634655136	-0.0956755327	-0.429894
C	 0.0489879806	 0.0367303461	-0.0119139539	 0.156447
O	 0.7396310316	-0.4478946348	 1.1204942839	-0.437119
C	-1.4113768697	-0.5331081948	 0.0216257514	 0.064484
C	-1.3732725579	-2.0698918871	-0.0247403605	-0.410463
N	-2.0119177833	-0.1103521362	 1.2992039847	-0.537309
C	-2.1790213977	-0.0353027828	-1.1399750579	 0.26164
N	-2.7942868849	 0.3697331877	-2.0317782114	-0.347643
H	 1.1558084462	 1.8777213777	-0.1037228461	 0.134114
H	-0.3762782195	 1.940211375	-1.0003691503	 0.140867
H	-0.3653125734	 2.0272042679	 0.7761992375	 0.112236
H	 0.5502320363	-0.3915189165	-0.8870777344	 0.099107
H	 0.1452783399	-0.2870790583	 1.8688459115	 0.286175
H	-0.7630189325	-2.4317652311	 0.8037212865	 0.147632
H	-2.3820594168	-2.4864032623	 0.050669662	 0.124351
H	-0.9336184742	-2.4132160331	-0.9639409785	 0.139897
H	-2.3100098008	 0.8590152932	 1.2543305937	 0.249548
H	-2.8390769227	-0.6632401742	 1.4999922444	 0.24593
93.5861	147.8797	196.5197	221.678	241.3897	266.4947	296.2831	313.5199	350.7193	408.8657	441.9835	513.6213	532.91	577.4421	610.4666	724.7314	844.096	906.3059	917.7351	983.7519	1030.498	1032.2364	1111.7765	1116.882	1166.9847	1212.947	1294.2525	1322.2499	1366.6481	1402.6815	1406.3513	1435.7928	1486.1182	1490.7305	1494.3164	1499.1638	1657.5688	2340.6077	3038.6652	3051.5059	3054.4277	3110.8717	3125.7788	3129.6642	3154.625	3507.698	3585.9668	3718.5697
CC(O)C(C)(N)C#N	C[C@@H](O)[C@@](C)(N)C#N	
InChI=1S/C5H10N2O/c1-4(8)5(2,7)3-6/h4,8H,7H2,1-2H3	InChI=1S/C5H10N2O/c1-4(8)5(2,7)3-6/h4,8H,7H2,1-2H3/t4-,5+/m1/s1
