17
gdb 35872	2.18651	1.70876	1.19929	3.4818	71.22	-0.2542	0.0174	0.2715	1059.5437	0.137359	-417.993802	-417.985776	-417.984831	-418.027233	29.89	
N	 0.0145332798	-1.2186375353	 0.4320673327	-0.329029
C	 0.005595519	-0.0774749848	 0.250894118	 0.314739
C	 0.0397921312	 1.375059388	 0.0066786034	-0.255105
N	-0.6800207082	 2.0885339569	 1.068950425	-0.283019
C	 0.3212780772	 2.2818553026	 2.1365687291	-0.18484
C	 1.6890954262	 2.5037345801	 1.4425442126	-0.312654
C	 1.4925623508	 1.9086441801	 0.0474216776	 0.435792
C	 2.5491011345	 1.4410610503	-0.8496129263	-0.24234
O	 1.8876178142	 2.6939231815	-1.0763040227	-0.274145
H	-0.4051918938	 1.5712962797	-0.9721652574	 0.1393
H	-0.9564645183	 2.9926978439	 0.6977050445	 0.23488
H	 0.0230185945	 3.1089160844	 2.7831780245	 0.118173
H	 0.3462047761	 1.3745902165	 2.7497903769	 0.134821
H	 1.9189268122	 3.5675322697	 1.3324133128	 0.127357
H	 2.5156750735	 2.0348714162	 1.9819691359	 0.122039
H	 3.588912653	 1.5121673959	-0.534814382	 0.124178
H	 2.3381343881	 0.6599277744	-1.5788541346	 0.129853
36.0582	135.8872	137.9698	269.3439	304.4781	362.182	388.0824	490.5973	533.8721	581.573	662.1672	788.5259	818.212	841.6975	848.5146	910.1203	920.8167	961.9967	964.9402	1003.5688	1090.8488	1100.3675	1128.2173	1160.9741	1199.3422	1206.7589	1217.7412	1256.8067	1290.3979	1351.5236	1360.2572	1419.1827	1465.6328	1481.8678	1503.0158	1532.8148	2358.3021	3051.5733	3062.6219	3085.8357	3090.3935	3107.1717	3122.6216	3173.5612	3515.1662
N#CC1NCCC11CO1	N#C[C@H]1NCC[C@]21CO2	
InChI=1S/C6H8N2O/c7-3-5-6(4-9-6)1-2-8-5/h5,8H,1-2,4H2	InChI=1S/C6H8N2O/c7-3-5-6(4-9-6)1-2-8-5/h5,8H,1-2,4H2/t5-,6-/m1/s1
