20
gdb 22566	2.15303	1.45761	0.99498	1.5936	78.97	-0.2408	0.0075	0.2483	1241.075	0.168327	-440.234592	-440.224469	-440.223525	-440.269687	37.246	
C	-1.1109117735	 0.9562873896	-0.3554878136	-0.397796
C	-0.1715105489	-0.2430245207	-0.4303948474	-0.088678
C	 0.8827230283	-0.2993169186	-1.5867805122	 0.073797
O	 1.057101359	 0.990878465	-2.1324924889	-0.416992
C	 1.9906108001	-0.717867968	-0.5485232774	-0.089754
C	 3.3353607759	-0.003888205	-0.5811585006	-0.419611
C	 0.9959221814	-0.35643895	 0.5398927746	 0.400906
N	 1.2081292321	-0.1760603283	 1.7744363644	-0.254294
O	 0.0250730069	 0.1684297784	 2.4620791652	-0.393947
H	-0.5512791894	 1.8922545998	-0.3984526843	 0.132648
H	-1.8118319017	 0.9440895202	-1.1961504275	 0.112307
H	-1.6775878272	 0.9318932846	 0.5772296436	 0.132657
H	-0.7515427657	-1.1745351271	-0.4139332017	 0.095438
H	 0.679567371	-1.0353988809	-2.3750055707	 0.060779
H	 1.8070914104	 0.9634471318	-2.7349159059	 0.288128
H	 2.1372361685	-1.8052604514	-0.5787236363	 0.089202
H	 3.1960783197	 1.0791041956	-0.6289222805	 0.129419
H	 3.9086226139	-0.2317048263	 0.3214959974	 0.136164
H	 3.931231113	-0.3183696319	-1.4458836982	 0.104868
H	 0.346693506	 0.3012783331	 3.3599569602	 0.304759
36.9524	148.5955	167.5786	187.3551	213.5597	235.5736	253.0978	275.0943	305.1629	338.6369	394.6576	479.0265	523.2933	566.4234	589.1367	734.2223	772.4145	818.2698	869.4065	961.1712	969.0747	1006.2257	1018.9607	1063.6176	1097.5855	1148.1947	1167.8159	1176.9451	1188.6149	1241.6057	1273.1175	1296.0662	1333.6547	1357.8558	1393.7875	1400.33	1404.6941	1422.5819	1489.2525	1493.3829	1499.9746	1502.2683	1782.2512	3008.7526	3023.005	3032.1474	3035.2251	3050.9731	3103.8725	3123.3954	3125.6417	3145.9876	3819.0989	3821.3529
CC1C(O)C(C)C1=NO	C[C@H]1[C@@H](O)[C@@H](C)C1=NO	
InChI=1S/C6H11NO2/c1-3-5(7-9)4(2)6(3)8/h3-4,6,8-9H,1-2H3	InChI=1S/C6H11NO2/c1-3-5(7-9)4(2)6(3)8/h3-4,6,8-9H,1-2H3/t3-,4+,6-
