18
gdb 38634	3.41352	2.03984	1.69299	0.6595	73.55	-0.2221	0.0659	0.288	844.2875	0.151504	-401.864918	-401.859126	-401.858181	-401.894619	25.758	
C	-0.0187998363	 1.4330708829	 0.048002115	-0.157972
C	 1.5302071543	 1.8119254231	-0.1019217963	-0.359607
C	 1.9346010965	 0.3643980126	-0.1743026182	 0.467148
O	 3.0229317027	-0.4759808953	-0.5716585741	-0.374694
C	 1.9459315096	-1.4964333578	-0.722919055	 0.017184
C	 1.5315821273	-1.7982662066	 0.7215497178	-0.233685
C	 1.098306261	-0.3563130853	 0.9736183031	-0.057724
N	-0.0883197079	-0.0861647775	 0.0744222826	-0.160544
C	 0.9125960548	-0.3602670181	-1.0286691048	-0.053452
H	-0.4498778767	 1.8171240262	 0.9747669549	 0.113375
H	-0.6073438517	 1.807314052	-0.7923273047	 0.112426
H	 1.7349977251	 2.3789509709	-1.0127339965	 0.11263
H	 1.9136243632	 2.3620925729	 0.7605767823	 0.109607
H	 2.2127749438	-2.2866520674	-1.4209594775	 0.088521
H	 0.7116196751	-2.5158995723	 0.8033565216	 0.114406
H	 2.3788719478	-2.110205748	 1.3353528496	 0.112849
H	 1.0299910026	 0.0259947147	 1.9918191345	 0.068781
H	 0.6655999088	-0.089517557	-2.0538273344	 0.080754
284.6541	349.8313	400.8006	443.5727	515.1654	602.6848	677.9096	719.4754	767.477	806.5417	825.2579	851.8011	863.8389	887.0257	897.3385	930.4395	945.1028	965.0948	979.4444	1005.481	1016.5428	1066.5129	1086.3632	1127.8011	1132.5701	1175.815	1185.1067	1221.285	1226.3842	1228.9822	1255.1602	1274.1399	1300.9869	1308.9838	1334.6242	1365.6788	1470.345	1494.1205	1514.2941	3065.312	3072.9992	3075.3345	3111.9031	3120.5319	3131.0972	3132.8823	3133.8836	3154.0053
C1CC23OC4CC2N1C34	C1C[C@@]23O[C@H]4C[C@@H]2N1[C@@H]34	
InChI=1S/C7H9NO/c1-2-8-5-3-4-6(8)7(1,5)9-4/h4-6H,1-3H2	InChI=1S/C7H9NO/c1-2-8-5-3-4-6(8)7(1,5)9-4/h4-6H,1-3H2/t4-,5-,6+,7+/m0/s1
