19
gdb 106474	2.50644	1.66617	1.27928	2.5533	74.8	-0.2288	-0.0172	0.2116	1059.4579	0.159046	-423.031078	-423.022857	-423.021912	-423.06391	31.693	
C	 0.2292718361	 1.5236467135	 0.2090967516	-0.392561
C	-0.096906959	 0.0475462313	-0.0554802419	-0.3086
C	 0.6105515906	-0.4969118099	-1.2634429567	 0.313484
C	 0.7920474909	-2.0021907671	-1.609802274	-0.2967
C	 2.0148871014	-1.396589788	-2.3291261006	 0.073951
C	 1.417599408	-0.5958678059	-3.4997922669	-0.338094
C	 0.30843491	 0.0811823337	-2.6647084936	 0.423799
O	-0.5552266127	 0.8433434166	-3.0007243869	-0.333513
O	 2.0829617251	-0.3718847286	-1.2835369797	-0.332596
H	 1.3054903162	 1.6625829181	 0.3438448443	 0.134608
H	-0.0961817663	 2.1494463461	-0.6255222909	 0.142378
H	-0.2764448315	 1.8712893063	 1.1141612155	 0.112659
H	 0.1681041338	-0.5617347098	 0.8159478475	 0.104371
H	-1.1743701265	-0.0766029488	-0.2198858246	 0.116235
H	 1.070707687	-2.5747331922	-0.7237219618	 0.119356
H	 0.0253019445	-2.5156854981	-2.1967033589	 0.107471
H	 2.9473095502	-1.9384686847	-2.4793764224	 0.090863
H	 2.1209622644	 0.1360406582	-3.9042261686	 0.137605
H	 1.0073131777	-1.1909053008	-4.3206255513	 0.125284
79.067	134.6732	175.2176	194.5747	274.9499	391.7826	407.3339	449.9126	516.8117	605.1551	650.3995	654.8178	736.8689	803.917	836.5953	853.7058	892.8565	927.5272	960.7825	986.103	1000.7697	1013.8496	1070.0265	1078.2331	1114.916	1129.6437	1179.742	1204.3898	1257.5031	1275.9633	1287.2518	1312.5194	1337.9333	1391.6982	1409.1053	1448.5219	1471.2312	1486.388	1497.7498	1512.8365	1872.9938	3033.592	3049.7189	3061.1567	3068.3391	3071.48	3119.6218	3121.076	3131.5562	3131.9613	3138.1107
CCC12CC(CC1=O)O2	CC[C@@]12C[C@@H](CC1=O)O2	
InChI=1S/C7H10O2/c1-2-7-4-5(9-7)3-6(7)8/h5H,2-4H2,1H3	InChI=1S/C7H10O2/c1-2-7-4-5(9-7)3-6(7)8/h5H,2-4H2,1H3/t5-,7-/m1/s1
