17
gdb 29270	5.40985	0.97204	0.8751	2.1934	77.03	-0.2121	0.0204	0.2326	1328.1829	0.136894	-418.031881	-418.02365	-418.022706	-418.065184	30.188	
C	 0.4237643796	 1.5064661061	-0.5146511157	-0.489752
C	 0.1621402626	 0.0935815471	-0.1054887002	 0.276716
C	-0.8262358994	-0.7545019617	-0.5395971384	-0.183861
N	-0.6356585933	-1.9338144274	 0.1482028305	-0.279639
C	 0.451845388	-1.7567773181	 0.9481285311	 0.345868
N	 0.9572944921	-0.5495708247	 0.8226060943	-0.364689
C	 0.9398306806	-2.8277751287	 1.8374967101	-0.029133
C	 0.0599101834	-3.4847190889	 2.8226316202	-0.173227
O	 0.3828135175	-4.1258713712	 1.5865961381	-0.245837
H	 1.4325125712	 1.6157089039	-0.92715645	 0.132924
H	-0.292684985	 1.8359980045	-1.2721299156	 0.115566
H	 0.3519032072	 2.1862077201	 0.3413886338	 0.131705
H	-1.62061746	-0.6339023963	-1.2573750571	 0.124869
H	-1.1174223564	-2.8094603808	 0.0268454912	 0.271997
H	 2.008880943	-2.802848294	 2.0375245832	 0.121065
H	 0.4947780981	-3.9395473287	 3.7111348259	 0.126173
H	-0.9702404692	-3.1471191712	 2.9206346385	 0.119255
73.476	110.0074	146.2937	164.0986	269.188	308.5488	411.8643	464.1021	588.0688	645.8595	665.7982	709.053	729.5322	742.5539	851.5	898.8864	983.7963	996.4899	1010.1137	1035.6738	1065.5533	1091.945	1104.812	1149.6845	1167.8952	1240.046	1266.1336	1292.6754	1362.0693	1397.3233	1416.4595	1470.0578	1476.2227	1496.0074	1518.7885	1576.8765	1607.9596	3033.9622	3087.785	3088.0866	3115.1059	3143.0944	3181.3711	3272.0584	3662.6906
CC1=CNC(=N1)C1CO1	Cc1c[nH]c(n1)[C@H]1CO1	
InChI=1S/C6H8N2O/c1-4-2-7-6(8-4)5-3-9-5/h2,5H,3H2,1H3,(H,7,8)	InChI=1S/C6H8N2O/c1-4-2-7-6(8-4)5-3-9-5/h2,5H,3H2,1H3,(H,7,8)/t5-/m1/s1
