19
gdb 116945	4.03243	0.584	0.53018	3.3691	82.85	-0.241	-0.0145	0.2265	2071.6586	0.154729	-423.003219	-422.992124	-422.99118	-423.04262	36.755	
C	-1.0110875653	 0.7691097489	-0.8991463674	-0.219894
O	-0.4663532883	-0.517277141	-1.0849449809	-0.230009
C	 0.8244110676	-0.6342711915	-0.5162602927	-0.200538
C	 1.3429729075	-1.97695824	-0.7417936622	 0.01142
C	 1.7770609455	-3.0844793487	-0.924800338	 0.1241
C	 2.2672139597	-4.4300179737	-1.1803760894	-0.447833
C	 1.3239430064	-5.3268428265	-2.0166882138	 0.394735
C	-0.1626635819	-5.1595949342	-1.7999533194	-0.475848
O	 1.7934149304	-6.1405779411	-2.7727418984	-0.287066
H	-1.1198864724	 1.0177530116	 0.1686524414	 0.105933
H	-0.3914448532	 1.5482706714	-1.3709872547	 0.106777
H	-1.9985683354	 0.7718340781	-1.3655450435	 0.132365
H	 1.5086305312	 0.1110535994	-0.9585922131	 0.116287
H	 0.7877845389	-0.4207087268	 0.5666024708	 0.114515
H	 3.2336657227	-4.4205953474	-1.6934568248	 0.154885
H	 2.4238852294	-4.960271389	-0.2287599429	 0.152082
H	-0.4732167832	-4.1571301475	-2.1114949059	 0.168077
H	-0.7044604268	-5.9166351853	-2.3672884682	 0.139601
H	-0.404907413	-5.2388099568	-0.7342218369	 0.140409
18.1858	35.3038	46.7025	82.8655	138.6876	166.7046	208.197	231.7235	325.0495	366.0694	374.8752	399.388	474.3482	522.2284	594.5389	759.0073	831.3967	848.4698	976.0075	1004.1217	1028.6969	1051.7215	1136.1154	1172.5131	1182.2041	1192.3663	1219.7639	1228.25	1252.1914	1297.3014	1384.9545	1411.3394	1445.2678	1458.405	1470.3732	1478.5647	1484.8187	1496.4774	1516.8276	1823.5027	2374.394	2943.8339	2961.0828	2970.5683	3005.6681	3013.9214	3043.2294	3083.4567	3105.5779	3122.0816	3158.637
COCC#CCC(C)=O	COCC#CCC(=O)C	
InChI=1S/C7H10O2/c1-7(8)5-3-4-6-9-2/h5-6H2,1-2H3	InChI=1S/C7H10O2/c1-7(8)5-3-4-6-9-2/h5-6H2,1-2H3
