20
gdb 70203	3.21878	1.26193	1.07517	1.5567	78.57	-0.2352	-0.0193	0.2159	1179.1823	0.171822	-403.165624	-403.157225	-403.156281	-403.19891	32.706	
C	 0.0579164551	 1.5598531827	-0.0732513499	-0.446462
C	 0.0103710113	 0.0506887777	 0.0312454015	 0.31646
C	-1.2785490941	-0.5748635079	-0.4840724663	-0.277383
C	-1.3470765558	-2.1027619469	-0.3264705828	-0.33913
C	-1.0244120164	-2.5522111012	 1.0891873918	 0.395119
O	-1.6956353219	-3.3682592716	 1.6754772516	-0.307071
C	 0.2057162979	-1.9272592611	 1.7492469249	-0.345222
C	 0.7356270373	-0.6449184061	 1.1313837845	-0.04669
N	 1.3004190119	-0.6182544307	-0.2329513228	-0.371919
H	 1.0185945239	 1.938585857	 0.28307895	 0.128958
H	-0.0648720449	 1.8806022581	-1.1141297991	 0.118208
H	-0.7418886666	 2.0205793993	 0.5174535921	 0.114375
H	-2.1196236044	-0.1216146172	 0.0565899214	 0.115459
H	-1.4185115702	-0.3081745705	-1.5392311658	 0.10987
H	-2.3342568764	-2.4884076656	-0.5909516106	 0.127377
H	-0.6286431628	-2.585612439	-1.0040474526	 0.121503
H	-0.0517354178	-1.7631952859	 2.8008400702	 0.138222
H	 0.9940951488	-2.6945655418	 1.7601771613	 0.137835
H	 1.3074727343	-0.0337459933	 1.8274812866	 0.092076
H	 1.1652608109	-1.5166958962	-0.6907309158	 0.218415
37.5956	189.8873	201.479	230.1051	302.3225	345.9305	366.7346	433.8931	477.0409	506.7989	546.9953	667.7867	679.2783	725.2222	804.9447	845.4285	867.8612	925.524	932.359	1002.4517	1028.674	1041.0836	1078.4684	1089.478	1118.1922	1161.9898	1185.8466	1219.525	1242.1323	1257.0196	1276.5146	1326.4315	1345.489	1358.024	1383.6559	1415.5762	1440.3234	1455.2612	1471.8953	1487.1301	1491.6229	1503.5115	1815.4744	3010.3952	3014.9915	3019.2593	3030.0295	3053.2424	3077.1801	3090.1467	3107.9171	3116.6001	3124.4476	3494.0198
CC12CCC(=O)CC1N2	C[C@]12CCC(=O)C[C@H]1N2	
InChI=1S/C7H11NO/c1-7-3-2-5(9)4-6(7)8-7/h6,8H,2-4H2,1H3	InChI=1S/C7H11NO/c1-7-3-2-5(9)4-6(7)8-7/h6,8H,2-4H2,1H3/t6-,7+/m1/s1
