16
gdb 66965	2.57872	1.7404	1.29092	5.2129	72.06	-0.2506	0.0165	0.2672	992.0767	0.124201	-400.695545	-400.688036	-400.687092	-400.727493	28.805	
C	 0.0364732343	 1.5093246132	 0.0958508458	-0.512756
C	 0.0343654131	 0.0155421911	-0.0038277133	 0.286511
C	-0.9198322563	-0.9104740847	 0.7739438978	 0.055574
O	-1.0685374406	-2.1299068396	 0.0475544844	-0.275337
C	 0.3501230617	-2.0486058533	-0.2125841963	 0.057685
C	 0.5528004079	-1.04106803	 0.9763110113	-0.212674
C	 0.4795013133	-0.8432042226	-1.2007814738	-0.217389
C	-0.317834857	-0.8575942734	-2.4215853168	 0.279753
N	-0.9444243614	-0.8510516688	-3.392802101	-0.329846
H	 1.0301907984	 1.9252219549	-0.103076655	 0.128311
H	-0.6642515572	 1.9481268038	-0.6226010303	 0.146126
H	-0.2650472632	 1.8344903236	 1.0970837989	 0.128755
H	-1.7260662682	-0.5680692994	 1.4085197386	 0.122203
H	 0.828655911	-3.0061660963	-0.4000226954	 0.10638
H	 1.2120266988	-0.9964959439	 1.8315366141	 0.112049
H	 1.5293083554	-0.6491760947	-1.437522699	 0.124655
123.8028	135.6695	203.625	258.6883	286.1816	393.8495	468.6001	547.2095	564.6882	694.5225	755.679	788.6815	808.8445	842.7361	887.2667	912.8975	941.5669	960.1159	985.0467	1018.907	1047.5638	1068.0694	1109.1295	1146.0813	1149.692	1200.9575	1214.7748	1285.9372	1291.6612	1343.9387	1410.5301	1427.9636	1485.5965	1497.3867	2356.0229	3029.5306	3082.1176	3094.148	3100.7831	3162.2568	3210.9507	3224.0535
CC12C3OC(C13)C2C#N	C[C@]12[C@H]3O[C@H]([C@@H]13)[C@H]2C#N	
InChI=1S/C7H7NO/c1-7-3(2-8)5-4(7)6(7)9-5/h3-6H,1H3	InChI=1S/C7H7NO/c1-7-3(2-8)5-4(7)6(7)9-5/h3-6H,1H3/t3-,4-,5+,6+,7-/m1/s1
