21
gdb 80676	3.20559	1.13066	1.04549	1.5061	83.01	-0.2297	0.084	0.3137	1268.2192	0.182702	-387.032164	-387.023679	-387.022735	-387.065441	33.059	
C	-0.2352566863	 1.4768197312	-0.2489439	-0.422583
C	 0.0257665576	 0.0036848624	-0.0196823269	-0.014949
C	 1.360696508	-0.6422511808	-0.2065568653	 0.073602
O	 2.4201488633	 0.2284901824	 0.2042290674	-0.309412
C	 1.9843472158	 0.1189154355	 1.5987697671	 0.13805
C	 1.9339806615	 1.4066428812	 2.3625795705	 0.001772
C	 2.1485657074	 1.3642620378	 3.8595042284	-0.272815
C	 3.2089098326	 1.9466058147	 2.9658265788	-0.26368
C	 0.7280174708	-0.641986764	 1.1705584866	-0.191664
H	 0.6934073172	 2.0475648485	-0.1893593108	 0.140108
H	-0.6556356769	 1.6324216817	-1.2484734839	 0.111848
H	-0.9466524798	 1.8844728918	 0.4772643812	 0.113212
H	-0.78053999	-0.6487881579	-0.3533697483	 0.087075
H	 1.6054200289	-1.4357840145	-0.9038907866	 0.097255
H	 2.6728811272	-0.5701219843	 2.1106533914	 0.072941
H	 1.2221083139	 2.1395952738	 2.002772128	 0.08776
H	 1.5597618349	 2.0356064927	 4.4739474162	 0.113912
H	 2.3419237596	 0.3998103066	 4.3181261236	 0.111922
H	 4.1177094724	 1.373989205	 2.8133733697	 0.118653
H	 3.3555680098	 3.0205867601	 2.9667661166	 0.114241
H	 0.2774947921	-1.4487572639	 1.7336979465	 0.092751
70.8655	123.983	158.3877	229.5175	269.9269	282.168	337.1363	450.2889	507.9532	610.0739	723.2728	749.6505	788.1914	807.6885	838.6929	865.4988	894.0894	916.2089	940.0877	983.1642	999.2347	1007.4275	1036.1456	1057.6619	1061.2276	1079.4533	1083.8518	1089.9408	1131.3235	1138.7347	1197.2169	1201.8125	1211.2119	1226.6817	1259.2282	1292.4849	1330.6733	1342.3889	1409.4194	1434.9494	1451.6631	1472.1349	1498.9129	1505.4673	1510.2448	2986.636	3034.2939	3089.1908	3115.1311	3132.2025	3135.5677	3137.5584	3171.0675	3184.8635	3196.0672	3211.0245	3226.8214
CC1C2OC(C3CC3)C12	C[C@H]1[C@H]2O[C@@H](C3CC3)[C@@H]12	
InChI=1S/C8H12O/c1-4-6-7(4)9-8(6)5-2-3-5/h4-8H,2-3H2,1H3	InChI=1S/C8H12O/c1-4-6-7(4)9-8(6)5-2-3-5/h4-8H,2-3H2,1H3/t4-,6+,7-,8+/m1/s1
