14
gdb 18946	6.70667	1.56629	1.50293	4.5553	66.44	-0.2577	0.0068	0.2645	830.0353	0.108564	-341.492528	-341.486544	-341.4856	-341.522623	23.171	
N	-0.0650562067	-1.2162226725	-0.1140551977	-0.323037
C	-0.0581969545	-0.0609738365	-0.0705323424	 0.287168
C	-0.0634782137	 1.3935185994	 0.0078585565	-0.130066
C	-0.0405154769	 2.0643039173	 1.3849720085	-0.065974
C	 1.4852461864	 1.7710171716	 1.5020009156	-0.00443
C	 1.8541969421	 3.2307211673	 1.7769631891	-0.258502
C	 0.7155634189	 3.2696107245	 0.7550717905	-0.003598
N	 1.3183494056	 2.0615738152	-0.0215965265	-0.156662
H	-0.7463840667	 1.807539861	-0.7407705887	 0.122667
H	-0.8015350447	 2.0637449003	 2.1699087708	 0.089221
H	 1.9601976013	 0.8481791985	 1.8338138874	 0.113398
H	 1.6353366503	 3.6162671032	 2.7750979844	 0.111537
H	 2.8340225456	 3.5553187183	 1.4188946063	 0.122134
H	 0.2850119929	 4.1089858126	 0.2070786761	 0.096144
134.4233	170.1567	379.363	403.4873	522.3022	554.1302	711.7642	795.4574	822.5344	852.846	871.2575	885.8022	914.9354	943.1005	1012.3823	1021.8282	1029.6812	1043.5169	1117.7143	1136.6341	1151.4712	1170.6669	1185.654	1221.8732	1234.6174	1257.7734	1316.8121	1368.0143	1490.816	2353.5709	3065.6739	3066.446	3074.2355	3110.3206	3128.7882	3133.9329
N#CC1C2C3CC2N13	N#C[C@H]1[C@H]2[C@@H]3C[C@H]2N13	
InChI=1S/C6H6N2/c7-2-5-6-3-1-4(6)8(3)5/h3-6H,1H2	InChI=1S/C6H6N2/c7-2-5-6-3-1-4(6)8(3)5/h3-6H,1H2/t3-,4+,5-,6-/m0/s1
