18
gdb 62147	6.32983	0.55487	0.53185	3.2607	74.78	-0.2606	-0.0308	0.2298	1958.054	0.144621	-439.106664	-439.096417	-439.095473	-439.143456	34.982	
O	-0.1335848258	 1.3546568801	-0.0306892769	-0.411865
C	-0.0242112919	-0.0547901475	 0.02717601	 0.130782
C	 0.6380266699	-0.6365770129	-1.2303254001	-0.22444
C	-0.1226560767	-0.2627720878	-2.5121198888	-0.277521
C	 0.6608282523	-0.6091126372	-3.7566528547	 0.15833
O	 0.2629384552	-1.3026623338	-4.6554114584	-0.232235
C	 0.721199309	-0.5159518694	 1.3006584524	-0.376805
C	 0.1111027999	-0.01168622	 2.5282758448	 0.272902
N	-0.3716613378	 0.3778093128	 3.5026045857	-0.297315
H	 0.7532593112	 1.7340444631	-0.0337708405	 0.285695
H	-1.0591832044	-0.4095182947	 0.0872441708	 0.119853
H	 1.6721661118	-0.2642632046	-1.2879075239	 0.097077
H	 0.7052972764	-1.727187429	-1.1383823363	 0.119109
H	-1.0971724832	-0.7568022859	-2.5602543531	 0.127093
H	-0.288383907	 0.8230093838	-2.5050261611	 0.138562
H	 1.6826525332	-0.1594521467	-3.7902984759	 0.068464
H	 0.7469542665	-1.6106396651	 1.3423681033	 0.158176
H	 1.7652877614	-0.1785350453	 1.2603810626	 0.144139
43.5936	60.5251	84.192	99.9556	134.5091	199.2128	281.9804	312.3938	348.7499	395.8517	405.4794	462.905	529.4382	603.2306	766.2831	838.3638	863.8943	941.7395	959.7725	1010.2649	1028.6472	1076.7119	1100.9251	1126.4982	1183.203	1198.6945	1247.3002	1289.3225	1308.3038	1356.3183	1365.2516	1386.4836	1422.3058	1430.6783	1458.9871	1466.5399	1488.0579	1839.9689	2368.0251	2841.2794	2999.2855	3029.1891	3030.8139	3055.9962	3063.3165	3082.1638	3105.4321	3789.3925
OC(CCC=O)CC#N	O[C@@H](CCC=O)CC#N	
InChI=1S/C6H9NO2/c7-4-3-6(9)2-1-5-8/h5-6,9H,1-3H2	InChI=1S/C6H9NO2/c7-4-3-6(9)2-1-5-8/h5-6,9H,1-3H2/t6-/m0/s1
