16
gdb 23380	6.38777	0.95356	0.9215	2.2455	74.1	-0.2306	0.0314	0.262	1242.2674	0.12362	-437.752028	-437.744363	-437.743418	-437.784104	29.732	
O	-0.1178763868	 1.4050258746	-0.0113224329	-0.407184
N	 0.0789775744	-0.0011476522	-0.0054433247	-0.319329
C	-1.0271356197	-0.6073137982	 0.0092060218	 0.48408
C	-2.5204279071	-0.398188758	 0.0270932326	-0.174511
C	-2.7085660697	-1.660621425	-0.9054436823	-0.048635
C	-3.726487384	-2.2833477159	 0.0519801842	 0.093834
O	-3.7965183067	-3.6844825135	-0.0214329246	-0.437233
C	-2.6803595222	-1.6428714771	 0.9885545867	-0.080503
C	-1.4867120189	-2.0363052926	 0.0269485649	-0.145534
H	 0.788998597	 1.7277004711	-0.0260690116	 0.303276
H	-3.1139858976	 0.511449449	 0.0257840981	 0.096574
H	-2.693333667	-1.650139674	-1.9948891134	 0.091713
H	-4.7244759534	-1.8221512831	 0.0622376523	 0.070819
H	-4.3896772993	-3.9989014839	 0.6678162047	 0.286948
H	-2.6287262286	-1.6056599721	 2.0772204633	 0.086662
H	-0.9231497604	-2.9638264989	 0.0258206009	 0.099022
107.5039	143.2242	230.3031	271.3237	309.7996	360.1889	388.2372	508.7536	549.2318	702.8585	728.7301	733.5189	817.9066	825.4621	829.8867	907.2919	920.4792	943.4108	964.1922	1016.7614	1083.6517	1095.7165	1107.6701	1129.1616	1132.4303	1150.8765	1164.3544	1187.3573	1209.5537	1243.7138	1284.2602	1311.0808	1409.2421	1441.1227	1824.121	3002.9052	3111.1348	3123.352	3166.0962	3177.8189	3823.5308	3824.6498
ON=C1C2C3C(O)C2C13	ON=C1[C@H]2[C@@H]3[C@@H](O)[C@H]2[C@H]13	
InChI=1S/C6H7NO2/c8-6-3-1-4(6)2(3)5(1)7-9/h1-4,6,8-9H	InChI=1S/C6H7NO2/c8-6-3-1-4(6)2(3)5(1)7-9/h1-4,6,8-9H/t1-,2+,3-,4+,6-
