21
gdb 101403	2.99081	1.00426	0.80307	4.0451	78.51	-0.2691	0.0109	0.28	1461.5159	0.181691	-424.263545	-424.253857	-424.252912	-424.298521	35.207	
C	 0.093959904	 1.6093370109	-0.0895494757	-0.393185
C	 0.0200171828	 0.0795011297	-0.0582579024	-0.172307
C	-1.410884938	-0.4891858458	-0.0039163592	 0.015829
C	-2.2348521293	-0.1562698682	-1.2568386001	-0.408944
C	-1.3684905709	-2.0085642522	 0.2059125675	-0.192168
C	-0.9027747364	-2.5740030103	 1.5630009815	-0.110049
O	-2.2124927098	-3.1976595082	 1.7660005286	-0.238444
C	-2.6875370501	-2.6963933822	 0.5801493553	 0.456159
O	-3.7824308324	-2.8158596446	 0.1299886667	-0.327383
H	 1.1341193321	 1.9480650839	-0.0652840859	 0.116684
H	-0.3646331131	 2.0216874277	-0.9928354485	 0.124502
H	-0.4182077066	 2.0477018272	 0.7743113643	 0.117286
H	 0.5303397175	-0.3324960588	-0.9398994779	 0.096975
H	 0.58088217	-0.2826743467	 0.8132944023	 0.093835
H	-1.9174709867	-0.048449944	 0.867775591	 0.079743
H	-3.2182660905	-0.6308849896	-1.2127294215	 0.151212
H	-2.3809265823	 0.9217717839	-1.3622323698	 0.118033
H	-1.7283258756	-0.5158609944	-2.1608033698	 0.11235
H	-0.8927039434	-2.4966938613	-0.6514894626	 0.110082
H	-0.1145082872	-3.328729578	 1.542523748	 0.125712
H	-0.7075331442	-1.836017919	 2.3449316282	 0.124079
74.1097	85.4168	130.7826	138.3393	224.9324	242.1134	249.6617	299.1228	356.0892	386.4009	450.6678	550.6642	682.5344	754.6784	781.539	834.8968	866.6078	930.0512	959.0113	971.0308	989.6913	1000.9484	1048.764	1081.1699	1119.6048	1146.1127	1158.195	1177.6201	1192.5599	1223.8347	1270.9464	1304.3107	1342.4516	1354.6963	1373.0952	1391.0942	1413.7084	1418.8765	1483.1781	1497.2712	1501.5812	1507.8839	1514.7642	1517.9359	1926.1558	2993.5124	3010.9215	3033.7558	3036.3112	3044.3322	3061.7938	3068.8563	3101.7987	3104.1869	3113.5437	3129.1264	3129.7503
CCC(C)C1COC1=O	CC[C@@H](C)[C@H]1COC1=O	
InChI=1S/C7H12O2/c1-3-5(2)6-4-9-7(6)8/h5-6H,3-4H2,1-2H3	InChI=1S/C7H12O2/c1-3-5(2)6-4-9-7(6)8/h5-6H,3-4H2,1-2H3/t5-,6-/m1/s1
