21
gdb 91919	2.37656	1.60329	1.07994	2.2272	78.69	-0.2522	0.0829	0.3351	1182.2546	0.182362	-424.226799	-424.218107	-424.217162	-424.259825	33.721	
C	 0.0526551772	 1.5326199873	 0.0797449861	-0.404431
C	 0.0236523993	 0.0136174436	 0.0033998461	 0.143371
C	 0.6995852951	-0.5337355609	-1.2633977245	-0.236804
C	 0.9615292045	-2.0247134088	-1.1538168164	 0.027931
O	 2.1322633512	-2.411353584	-0.4200910805	-0.249966
C	 0.8573358346	-2.6851552315	 0.1563539448	 0.036092
C	 0.489774031	-1.8692140131	 1.3835516667	 0.103892
C	 1.3307028602	-2.2512592702	 2.5954930255	-0.404309
O	 0.6733762765	-0.4802907529	 1.1679279078	-0.270773
H	 1.0871643494	 1.8880161464	 0.1132318287	 0.128204
H	-0.4376061074	 1.9724157653	-0.7942703007	 0.113009
H	-0.4593022791	 1.8815226224	 0.9803423555	 0.121868
H	-1.0258209849	-0.3319085751	 0.0123429165	 0.05994
H	 0.0638778035	-0.3328355004	-2.13301492	 0.098291
H	 1.6531318999	-0.0189072228	-1.4285960954	 0.117598
H	 0.7973666158	-2.6191322826	-2.0523819615	 0.09049
H	 0.5908659519	-3.7423599305	 0.2082216806	 0.087877
H	-0.5782465917	-2.0692171475	 1.5923886367	 0.061503
H	 2.3897003249	-2.1023942803	 2.3700057586	 0.141182
H	 1.0611854737	-1.6270373457	 3.451125168	 0.123106
H	 1.1706172543	-3.3002909387	 2.8622910774	 0.111931
94.8579	159.9827	207.635	224.8278	236.9637	263.8486	370.9014	380.4055	444.3198	468.3879	477.4775	622.8294	703.0769	790.2691	810.8742	854.2471	875.1451	921.1574	949.4196	977.2196	993.9103	1050.8721	1062.9275	1100.4724	1128.9368	1131.6292	1155.9062	1169.4451	1205.9149	1253.1124	1284.8192	1321.1267	1341.408	1352.4503	1378.8433	1387.6626	1402.0231	1405.2274	1418.3218	1464.973	1470.7754	1483.3727	1484.1895	1498.8893	1501.4546	2925.6903	2938.7519	3035.2178	3042.4987	3047.0519	3079.8736	3092.3027	3111.5769	3115.4109	3121.5195	3122.1842	3133.1869
CC1CC2OC2C(C)O1	C[C@H]1C[C@H]2O[C@H]2[C@@H](C)O1	
InChI=1S/C7H12O2/c1-4-3-6-7(9-6)5(2)8-4/h4-7H,3H2,1-2H3	InChI=1S/C7H12O2/c1-4-3-6-7(9-6)5(2)8-4/h4-7H,3H2,1-2H3/t4-,5+,6+,7-/m0/s1
