19
gdb 36912	4.49403	0.97731	0.86637	1.5976	76.1	-0.2389	0.0238	0.2628	1345.0052	0.160669	-419.185296	-419.177058	-419.176114	-419.219246	30.201	
C	-0.084678357	 1.4877001689	 0.1124161256	-0.160607
C	 0.0909814321	-0.0238214636	 0.0890795158	 0.096369
C	-1.2410087328	-0.8213018312	 0.0500682775	-0.204293
N	-1.2016745979	-1.5870363408	-1.2083182084	-0.261829
C	-0.0978853162	-1.2894572747	-1.7524186947	 0.119928
O	 0.7525573808	-0.4276037622	-1.1470194455	-0.229671
N	 1.1887527575	 2.1749384224	 0.2530292523	-0.068056
C	 1.8862592644	 2.5171960937	-0.9836558995	-0.206076
C	 1.2216677158	 3.5717705201	-0.1714077298	-0.226974
H	-0.6442894518	 1.7934529968	-0.7913569638	 0.089321
H	-0.706147883	 1.7414152066	 0.9810518401	 0.110306
H	 0.7477605025	-0.3248384283	 0.9096931557	 0.105046
H	-1.3466009428	-1.5036946334	 0.8989472274	 0.120383
H	-2.1162071065	-0.1603313636	 0.0529893872	 0.113848
H	 0.2573429585	-1.6734505558	-2.7026229705	 0.139505
H	 2.9656149683	 2.4004419591	-0.9612440818	 0.11889
H	 1.4175818559	 2.236448251	-1.9237271901	 0.116442
H	 0.306336456	 4.005953194	-0.5711459842	 0.109114
H	 1.804481516	 4.2401408012	 0.4557836467	 0.118357
59.6845	74.4849	105.2172	172.2266	305.0833	345.0031	393.0296	456.6649	545.2373	735.1185	768.3555	825.3178	841.9339	879.2041	900.0729	925.6097	964.0465	978.8815	1020.9062	1027.1625	1054.7527	1074.7047	1109.9151	1119.4959	1128.2728	1131.1296	1172.4	1181.4646	1222.9333	1283.3517	1301.6041	1322.7502	1326.3258	1330.8105	1373.6618	1410.0684	1475.0594	1493.5446	1501.0411	1521.9218	1711.3061	2930.5752	3031.605	3042.4782	3067.9997	3084.7065	3095.8231	3110.1578	3180.6161	3198.5433	3213.3832
C(C1CN=CO1)N1CC1	C([C@H]1CN=CO1)N1CC1	
InChI=1S/C6H10N2O/c1-2-8(1)4-6-3-7-5-9-6/h5-6H,1-4H2	InChI=1S/C6H10N2O/c1-2-8(1)4-6-3-7-5-9-6/h5-6H,1-4H2/t6-/m1/s1
