19
gdb 87925	3.50162	1.09425	1.0217	2.2744	77.49	-0.2541	0.0268	0.281	1244.7125	0.160341	-419.206801	-419.198367	-419.197423	-419.2401	32.026	
C	-0.2740285393	 1.4969919202	 0.0982923045	-0.399668
C	-0.0835292754	 0.0015004865	 0.1456682723	-0.048256
N	 1.2460035859	-0.5175653003	-0.2423375814	-0.391404
C	 0.780864838	-0.7074332354	 1.1288865607	 0.304688
C	 1.5439175966	-0.0229697565	 2.2557310589	-0.138229
O	 1.0490122898	-0.6203189924	 3.4653649975	-0.240404
C	 0.391131758	-1.7910325114	 3.2035711769	 0.421912
N	-0.142529849	-2.5250898409	 4.07952034	-0.540458
C	 0.4070998721	-2.059335834	 1.7139779615	-0.40457
H	 0.6423452388	 2.0201616052	 0.382062427	 0.128501
H	-0.5343690501	 1.815701549	-0.91640447	 0.126243
H	-1.0809617003	 1.8117773016	 0.7687436657	 0.123222
H	-0.9457331596	-0.5726081201	-0.1936735592	 0.088378
H	 1.1620010947	-1.3815597756	-0.7726204335	 0.233493
H	 2.6213858423	-0.2098410723	 2.1692598268	 0.119197
H	 1.3787429867	 1.0544017643	 2.3191654532	 0.122058
H	-0.0025266009	-2.1283535648	 5.0106806981	 0.221911
H	-0.5484773309	-2.4606757271	 1.3739562261	 0.139256
H	 1.1822306926	-2.8064712559	 1.4968635649	 0.13413
65.0745	130.5377	176.1293	210.2267	230.3103	331.3339	418.0858	457.9925	492.9168	504.0584	538.3832	679.3924	755.5943	817.7655	856.0952	890.1638	893.9146	936.5857	967.7879	1008.5899	1029.7989	1065.3804	1067.5828	1091.2576	1109.521	1131.3037	1178.859	1216.0659	1235.4598	1267.5608	1275.2874	1313.6289	1367.4911	1401.9154	1410.8499	1467.2512	1471.7396	1490.7464	1504.6468	1519.4676	1781.6179	3026.5819	3033.2817	3037.5689	3099.851	3102.8349	3107.615	3122.6195	3127.7274	3469.175	3495.843
CC1NC11COC(=N)C1	C[C@H]1N[C@]21CO[C]([NH])C2	
InChI=1S/C6H10N2O/c1-4-6(8-4)2-5(7)9-3-6/h4,7-8H,2-3H2,1H3	InChI=1S/C6H10N2O/c1-4-6(8-4)2-5(7)9-3-6/h4,7-8H,2-3H2,1H3/t4-,6+/m1/s1
