19
gdb 31243	2.1584	1.4561	0.95199	3.5415	78.91	-0.207	0.0382	0.2451	1279.7396	0.159502	-419.23839	-419.228962	-419.228018	-419.273556	33.52	
C	 0.1211694574	 1.4177907149	 0.3184220083	-0.364838
C	-0.351084723	 0.1033573536	-0.3226261472	-0.292635
C	 0.5020482742	-0.319088914	-1.4774813254	 0.191176
C	 0.1380877672	-0.4923090025	-2.7883894953	 0.270055
N	 1.2872628877	-0.8692046828	-3.4631362494	-0.302434
C	 2.2890547488	-0.8958151677	-2.5377354722	 0.00133
N	 1.8542877846	-0.5780438241	-1.3424551857	-0.311998
O	-1.0349957438	-0.3210196292	-3.4423192382	-0.269031
C	-1.8610162692	-1.4861654022	-3.5134289457	-0.249787
H	 1.1614561168	 1.3287425394	 0.6424946289	 0.136768
H	 0.0616239149	 2.2448149088	-0.3962625179	 0.113265
H	-0.4926227347	 1.6725883012	 1.1882377346	 0.102563
H	-0.3484221482	-0.6865577386	 0.4394951602	 0.107237
H	-1.3858614444	 0.2060397251	-0.6684928191	 0.097663
H	 1.3601519051	-1.0193095865	-4.4555049481	 0.265968
H	 3.3058824264	-1.152241986	-2.796124696	 0.126295
H	-2.772985226	-1.1893427186	-4.0350887685	 0.13445
H	-1.3678011014	-2.2911430857	-4.0731703405	 0.114251
H	-2.1109721425	-1.8514213752	-2.5110009628	 0.129702
50.1461	62.3824	152.6842	163.9073	170.753	203.3627	280.5344	338.2777	423.7314	492.1362	521.2246	629.3185	684.3448	698.4255	759.0297	792.9038	802.447	942.1441	983.0389	1018.3431	1052.8932	1087.6451	1103.5053	1156.8724	1174.1483	1209.976	1252.661	1283.4326	1314.5185	1362.9223	1378.8495	1404.461	1447.5175	1475.9903	1483.7425	1487.9209	1495.3955	1502.7471	1508.0568	1524.4549	1650.8787	3011.3904	3021.1046	3037.5005	3065.1723	3079.34	3105.3691	3122.7688	3133.5643	3245.2684	3664.105
CCC1=C(NC=N1)OC	CCc1c([nH]cn1)OC	
InChI=1S/C6H10N2O/c1-3-5-6(9-2)8-4-7-5/h4H,3H2,1-2H3,(H,7,8)	InChI=1S/C6H10N2O/c1-3-5-6(9-2)8-4-7-5/h4H,3H2,1-2H3,(H,7,8)
