17
gdb 13705	4.81548	0.90942	0.82326	1.1138	75.57	-0.2284	0.0198	0.2482	1389.718	0.14056	-363.7906	-363.781507	-363.780563	-363.825674	31.569	
C	-0.3164949904	 1.4294380181	 0.0373262596	-0.310396
N	 0.000859043	 0.0075031577	 0.0852714196	-0.077173
C	 1.366623489	-0.3738647843	-0.2134567074	-0.23651
C	 0.8470594659	-0.4810712265	 1.1930218263	-0.179397
C	 1.3490781483	 0.3966903061	 2.2132207488	 0.091478
C	 1.749305168	 1.1207233868	 3.0918538089	 0.038415
C	 2.1996055106	 1.9759820562	 4.1883003464	-0.192698
O	 1.1386453556	 2.5960492829	 4.9027814375	-0.401431
H	 0.5054067528	 2.0815604723	 0.3666609951	 0.115637
H	-0.5787849539	 1.6870915589	-0.9932610655	 0.124259
H	-1.1849389089	 1.6252884798	 0.6730537018	 0.128502
H	 1.4980298025	-1.275736673	-0.8057036199	 0.12106
H	 2.0938727446	 0.4146351879	-0.4002837268	 0.117995
H	 0.5493592767	-1.465717756	 1.5469014822	 0.113456
H	 2.8458414983	 1.3880637671	 4.860157135	 0.119503
H	 2.8141548089	 2.7962176546	 3.8006511417	 0.140066
H	 0.516039709	 1.9042570712	 5.1497816566	 0.287234
25.9733	80.0986	110.8086	176.7088	225.0225	248.8549	320.2536	367.6	377.2557	473.9575	523.4828	612.9251	718.0058	766.5988	869.3389	960.5119	990.9931	1026.5754	1043.1704	1068.6406	1113.851	1126.9518	1160.0965	1196.469	1207.9425	1216.1044	1322.2502	1356.1274	1376.0447	1418.6937	1448.4003	1489.4872	1489.8709	1492.6893	1506.4967	2346.2064	2973.8796	2997.3376	3061.2037	3080.121	3093.9503	3112.0269	3125.4128	3183.6943	3816.5226
CN1CC1C#CCO	CN1C[C@H]1C#CCO	
InChI=1S/C6H9NO/c1-7-5-6(7)3-2-4-8/h6,8H,4-5H2,1H3	InChI=1S/C6H9NO/c1-7-5-6(7)3-2-4-8/h6,8H,4-5H2,1H3/t6-,7?/m1/s1
