22
gdb 82304	2.36381	1.63105	1.2905	1.7939	80.3	-0.2316	0.0728	0.3045	1099.5326	0.194533	-404.330909	-404.322059	-404.321114	-404.363557	35.758	
C	-0.1755180759	 1.5773677476	-0.0437966725	-0.415911
C	 0.032198852	 0.0595820154	 0.0254421314	-0.032592
C	 0.84383451	-0.5386645297	-1.1299355331	-0.053817
C	 2.0788472727	 0.1178112119	-1.6211844267	-0.240205
N	 2.1901042162	-0.9734345313	-0.6448586732	-0.119686
C	 2.2781643559	-0.4936915946	 0.7574899307	-0.214106
C	 0.8243861204	-0.4699921131	 1.2693169511	 0.390279
C	 0.6226782046	 0.2916963639	 2.5701454919	-0.438816
O	 0.407225419	-1.8124289527	 1.5381356882	-0.480641
H	 0.761533056	 2.1351033111	 0.0494477751	 0.114391
H	-0.6297499363	 1.8572294299	-0.9994990068	 0.117993
H	-0.8419550947	 1.9181850172	 0.7540934782	 0.119989
H	-0.9515689222	-0.4180540697	 0.0513487685	 0.082813
H	 0.3431579219	-1.2449194086	-1.7872290886	 0.090817
H	 2.4508508439	-0.1136905755	-2.6161345173	 0.113802
H	 2.3108077924	 1.1248665905	-1.2831546574	 0.109855
H	 2.8821330483	-1.1891944776	 1.3466387522	 0.110883
H	 2.7422661007	 0.4988523133	 0.821622986	 0.092599
H	 0.9188817567	 1.3388936473	 2.4744969716	 0.113893
H	-0.4274565181	 0.25062327	 2.8747442179	 0.124664
H	 1.2179727927	-0.168288181	 3.3639232326	 0.124596
H	 0.6903794439	-2.3576239843	 0.7948673103	 0.289202
103.8007	210.8594	229.5915	261.298	283.1839	300.9269	343.1493	351.1972	379.6454	451.9217	478.6639	527.0257	616.101	672.2699	733.1184	773.2758	818.3855	864.0456	898.2304	933.4556	987.607	994.3774	1018.0664	1036.7982	1061.9444	1099.3495	1104.8581	1127.2036	1130.5111	1155.6759	1191.365	1216.8477	1249.1169	1269.766	1298.9037	1309.0144	1361.3784	1380.9024	1390.9198	1420.172	1423.4007	1482.768	1491.7391	1495.4241	1504.082	1505.7263	1521.3878	3018.937	3037.8947	3046.6318	3061.4777	3088.8058	3102.4693	3105.4544	3109.0536	3115.2051	3129.3329	3133.9836	3185.2422	3796.1663
CC1C2CN2CC1(C)O	C[C@H]1[C@H]2CN2C[C@]1(C)O	
InChI=1S/C7H13NO/c1-5-6-3-8(6)4-7(5,2)9/h5-6,9H,3-4H2,1-2H3	InChI=1S/C7H13NO/c1-5-6-3-8(6)4-7(5,2)9/h5-6,9H,3-4H2,1-2H3/t5-,6+,7-,8?/m0/s1
