16
gdb 8214	2.92011	2.35222	1.70312	2.461	59.97	-0.2444	0.0531	0.2975	795.2071	0.130166	-420.852637	-420.845284	-420.84434	-420.883605	28.746	
O	-0.2228321571	 1.3261378786	-0.0467786626	-0.472629
C	-0.0283322612	-0.0539457421	 0.0114504635	 0.269564
C	-0.3811890291	-0.8376458493	 1.2578201031	-0.408
C	-1.2659483991	-0.9085602864	 0.0280219428	 0.370117
O	-2.5269454046	-0.3331612778	 0.0317524837	-0.479741
C	-0.9932726144	-2.0368357826	-0.9474079723	-0.130894
O	 0.4269813853	-2.0508004266	-1.1083593528	-0.257923
C	 0.9174498994	-0.7192394177	-0.9730801411	-0.132374
H	 0.3176006768	 1.7490825162	 0.6281497174	 0.295038
H	 0.2343498038	-1.6887737964	 1.5322422557	 0.124951
H	-0.7945045056	-0.265100999	 2.0813514533	 0.114597
H	-2.3962461718	 0.6195039002	-0.0754473956	 0.291093
H	-1.287255335	-3.0317031726	-0.6005082915	 0.113001
H	-1.5145685115	-1.8200571939	-1.8927420386	 0.100074
H	 0.8842486875	-0.1644881172	-1.9245484398	 0.099883
H	 1.9593330066	-0.7925162333	-0.6435611751	 0.103242
205.2763	210.685	236.3787	278.0227	335.184	359.1936	397.9569	441.955	533.5308	560.9127	644.571	717.7708	782.0386	887.4987	926.3857	928.766	948.4617	1034.8772	1060.0153	1078.8928	1096.4072	1167.7457	1202.695	1223.1147	1228.1454	1266.3353	1313.0965	1347.2411	1362.7613	1407.2438	1416.2758	1479.819	1509.7718	1522.556	2980.5932	2991.2223	3067.1116	3084.6292	3124.7212	3222.6535	3740.0408	3813.6015
OC12CC1(O)COC2	O[C@@]12C[C@]1(O)COC2	
InChI=1S/C5H8O3/c6-4-1-5(4,7)3-8-2-4/h6-7H,1-3H2	InChI=1S/C5H8O3/c6-4-1-5(4,7)3-8-2-4/h6-7H,1-3H2/t4-,5+
