21
gdb 75500	2.55654	1.65468	1.22058	1.6692	83.7	-0.2264	0.014	0.2404	1107.5448	0.184649	-387.088304	-387.080351	-387.079407	-387.12038	31.941	
C	-0.2412976249	 1.5621741202	 0.0712365733	-0.494126
C	 0.0066715987	 0.0777753566	 0.0150891815	 0.341097
C	 0.0768024092	-0.5867686562	-1.1434995366	-0.143158
C	 0.258435667	-2.0727749289	-1.3661507714	-0.270556
C	 1.0979119351	-2.8891163034	-0.3579174697	-0.202497
C	 0.8907083264	-2.5481576265	 1.1159265414	 0.112148
C	-0.4940742525	-1.9872519716	 1.5035669412	-0.284774
C	 0.206997198	-0.6165481271	 1.3468010833	 0.008349
O	 1.5059928297	-1.2702198362	 1.4236411144	-0.289418
H	 0.5920309478	 2.0837063202	 0.5599091119	 0.129494
H	-0.372358458	 1.9899770925	-0.9261688952	 0.118782
H	-1.1390435628	 1.7943833903	 0.6593953985	 0.120812
H	-0.0639657723	-0.0136438159	-2.0589156326	 0.079677
H	-0.7434209002	-2.5237509484	-1.4362626931	 0.113743
H	 0.6936146053	-2.2202189797	-2.3613670067	 0.104031
H	 0.8917566824	-3.9547677813	-0.5203378533	 0.090434
H	 2.1650916879	-2.7397571664	-0.558717116	 0.114851
H	 1.2966291966	-3.3412412931	 1.7538536121	 0.071867
H	-1.3441805676	-2.203252511	 0.855398807	 0.105615
H	-0.7559469708	-2.2014297723	 2.541204912	 0.106113
H	 0.0798179551	 0.0883527981	 2.1749088581	 0.067517
110.3002	197.7185	233.5192	274.2123	311.0208	321.8145	359.8426	405.4582	527.5284	578.9435	639.1086	751.4825	784.0568	842.58	856.9046	875.3053	906.4517	924.7286	955.2448	975.9839	1009.7558	1045.4733	1065.9035	1079.1746	1080.4303	1113.7061	1153.6032	1171.022	1202.6168	1244.8829	1260.3944	1276.4888	1316.133	1346.4452	1352.9529	1389.8975	1394.8616	1401.1659	1413.9508	1468.4375	1478.5027	1479.3566	1492.3565	1498.1566	1730.2914	2989.634	3011.3303	3021.2646	3042.7517	3048.9825	3050.5685	3056.7222	3071.5034	3081.6444	3110.1928	3131.5021	3137.4357
CC1=CCCC2CC1O2	CC1=CCC[C@@H]2C[C@H]1O2	
InChI=1S/C8H12O/c1-6-3-2-4-7-5-8(6)9-7/h3,7-8H,2,4-5H2,1H3	InChI=1S/C8H12O/c1-6-3-2-4-7-5-8(6)9-7/h3,7-8H,2,4-5H2,1H3/t7-,8-/m1/s1
