21
gdb 116243	1.84138	1.54401	0.90613	1.1218	83.8	-0.2529	0.049	0.3019	1325.5911	0.1823	-387.064099	-387.05466	-387.053715	-387.098966	35.212	
C	 0.0060839674	 1.5881398468	-0.1540674911	-0.393027
C	 0.011792243	 0.0573643348	-0.2298563296	-0.187602
C	-1.3631255673	-0.5558959447	 0.0508958927	-0.008851
C	-2.4318327708	-0.1810914386	-1.0098675673	-0.088018
O	-3.245642966	-1.3273831683	-1.202243185	-0.23854
C	-2.3649910183	-2.4289334783	-1.1543378026	-0.097287
C	-1.4279651702	-2.1316677952	 0.0460835829	-0.20868
C	-0.1597097269	-2.8371483322	-0.0267244115	 0.333966
C	 0.8763339577	-3.4435397937	-0.1003866359	-0.477388
H	 1.0069233737	 1.9931798162	-0.3315383353	 0.115745
H	-0.6640198038	 2.0313265304	-0.8987306339	 0.119157
H	-0.3226020832	 1.9333369295	 0.8328415509	 0.114983
H	 0.3590272127	-0.2652401045	-1.2195934702	 0.10178
H	 0.7364548024	-0.3423386643	 0.4870773841	 0.109222
H	-1.697441173	-0.2117073895	 1.0350307431	 0.081671
H	-3.0823640198	 0.6429405506	-0.7082103414	 0.111757
H	-1.936578684	 0.0962988752	-1.9560601182	 0.088791
H	-2.9528356473	-3.3404449715	-1.0287320481	 0.117616
H	-1.7729537096	-2.51109332	-2.0798961693	 0.097524
H	-1.945985147	-2.4487676579	 0.9575818956	 0.111546
H	 1.7914788605	-3.9786547447	-0.16043667	 0.195635
37.4582	109.1769	130.0178	178.6756	215.5112	252.9495	299.4104	361.263	412.1835	491.2169	521.9447	614.4574	629.3611	638.9681	667.9506	767.4962	796.093	914.1342	958.3997	964.5302	977.8852	1022.11	1038.2416	1059.7302	1094.728	1120.4487	1138.816	1157.286	1225.4358	1265.3682	1279.5787	1302.7775	1310.0602	1328.4267	1345.3774	1367.9572	1386.5099	1399.4984	1413.8519	1483.8092	1500.0056	1504.4364	1507.2719	1519.9372	2232.8196	2959.2838	2980.6329	3027.9762	3030.1552	3036.9304	3053.2776	3071.4029	3098.2196	3099.764	3104.3831	3110.7393	3504.2216
CCC1COCC1C#C	CC[C@H]1COC[C@H]1C#C	
InChI=1S/C8H12O/c1-3-7-5-9-6-8(7)4-2/h1,7-8H,4-6H2,2H3	InChI=1S/C8H12O/c1-3-7-5-9-6-8(7)4-2/h1,7-8H,4-6H2,2H3/t7-,8+/m1/s1
