16
gdb 69875	2.70143	1.66922	1.19856	3.2941	73.82	-0.2517	0.0081	0.2598	1021.9729	0.123194	-400.695725	-400.687889	-400.686945	-400.727877	30.19	
C	-0.1281172718	 1.5222094334	 0.0908635549	-0.517237
C	 0.1015996466	 0.0510174463	 0.0411045529	 0.364924
O	-0.7945911008	-0.842173242	 0.7038474944	-0.274702
C	 0.6150086846	-0.9467485902	 0.9749864683	-0.056021
C	 1.290495667	-1.7623103087	-0.1654641932	-0.140569
C	 0.3083452492	-2.1800078854	-1.2108212642	-0.327058
C	 0.7518787257	-0.7286741817	-1.1765414532	 0.131841
C	 1.4547514146	-0.0877095577	-2.2298218225	 0.197319
N	 2.0203952243	 0.4658672849	-3.076507826	-0.3577
H	 0.7691882148	 2.0613765089	-0.2265137739	 0.149977
H	-0.9458310555	 1.8064520735	-0.5803312478	 0.144965
H	-0.3895639649	 1.8287269131	 1.106536085	 0.141009
H	 0.9368097176	-0.8771668903	 2.00649481	 0.121696
H	 2.3058016553	-2.1310012322	-0.1195105333	 0.125814
H	 0.7212951834	-2.7529185732	-2.0336372047	 0.142172
H	-0.7125733501	-2.4112389388	-0.936564257	 0.15357
128.4211	131.6499	191.3951	242.9157	298.451	427.2024	430.3034	495.261	530.6622	561.7418	605.969	644.0479	769.4711	795.3578	848.2868	871.7623	897.7628	944.483	988.0632	998.5277	1022.9635	1056.145	1102.693	1107.7165	1151.5312	1213.3362	1243.1851	1271.1925	1345.5459	1407.9711	1455.6776	1470.1372	1482.7445	1503.7214	2335.4034	3041.727	3108.408	3131.9915	3152.7711	3199.6229	3221.2811	3248.5665
CC12OC1C1CC21C#N	C[C@]12O[C@H]1[C@H]1C[C@@]21C#N	
InChI=1S/C7H7NO/c1-6-5(9-6)4-2-7(4,6)3-8/h4-5H,2H2,1H3	InChI=1S/C7H7NO/c1-6-5(9-6)4-2-7(4,6)3-8/h4-5H,2H2,1H3/t4-,5+,6+,7+/m1/s1
