15
gdb 47383	2.6127	1.4438	1.16536	3.4747	67.33	-0.2596	-0.0006	0.2591	1066.0097	0.111731	-457.747354	-457.739326	-457.738382	-457.780474	29.51	
O	-0.0764430034	 0.1226941582	 0.7433087951	-0.313476
C	-0.0662658784	 1.1615773986	 0.1462150985	 0.386419
C	-1.3524119741	 1.9406351539	-0.1190024609	-0.213182
O	-1.2529849229	 3.0386732508	-1.0016178882	-0.232922
C	-0.0781379731	 3.7765181104	-0.7660871265	-0.111337
C	 1.1400371681	 2.9010302012	-1.061660377	-0.070255
O	 1.1138336544	 1.7065628278	-0.2390876777	-0.224308
C	 1.2375269048	 2.5367705705	-2.4721264569	 0.360102
C	 1.3265010665	 2.2532328911	-3.6353356891	-0.463559
H	-2.0828192708	 1.2443751969	-0.5356564711	 0.159123
H	-1.7222302	 2.2600396724	 0.8694529684	 0.134287
H	-0.0921941886	 4.6398251882	-1.4346320451	 0.137177
H	-0.0256952408	 4.130790301	 0.2762828119	 0.107127
H	 2.0519618826	 3.4238205195	-0.7524697611	 0.13222
H	 1.4034107257	 1.9967334394	-4.6635102304	 0.212585
70.9774	90.0831	163.5948	234.2685	327.0888	406.7386	416.0466	465.1037	534.8478	572.4818	609.0527	641.086	685.5516	778.0358	794.7939	881.3274	955.7831	984.8389	1018.0936	1059.6857	1123.3778	1158.5902	1216.207	1254.9562	1306.1258	1336.0759	1366.7305	1377.3008	1409.463	1466.2489	1487.9919	1856.3269	2244.2202	2978.9844	2983.4957	3053.5317	3114.4954	3119.4208	3501.3953
O=C1COCC(O1)C#C	O=C1COC[C@@H](O1)C#C	
InChI=1S/C6H6O3/c1-2-5-3-8-4-6(7)9-5/h1,5H,3-4H2	InChI=1S/C6H6O3/c1-2-5-3-8-4-6(7)9-5/h1,5H,3-4H2/t5-/m0/s1
