19
gdb 11677	3.38907	1.76022	1.45099	1.5555	72.15	-0.2392	0.0818	0.3209	952.5836	0.165238	-364.978327	-364.970242	-364.969298	-365.010851	30.206	
C	-0.4275979518	 1.1237057739	 0.235437298	-0.264236
O	-0.1538717826	-0.2579670842	 0.0899985066	-0.283465
C	 0.5904064737	-0.5731289009	-1.0268337394	 0.382288
C	 0.2684588681	-0.4055520314	-2.5374708409	-0.236111
N	 1.6226796462	-1.1280354819	-2.5441756827	-0.154898
C	 2.0224533747	-0.1354768433	-1.4414769085	-0.250818
C	 1.0157677239	-2.0021927935	-1.4134825033	 0.03483
C	 1.9386046568	-2.8672945576	-0.5794920685	-0.443618
H	 0.495934079	 1.7136129711	 0.3212425914	 0.113279
H	-1.013046688	 1.5124520197	-0.6096887677	 0.11345
H	-1.0086662276	 1.2410335334	 1.1523142105	 0.131393
H	-0.5463358704	-0.9986013229	-2.9607460901	 0.101987
H	 0.3158511818	 0.5935726969	-2.9766723805	 0.098071
H	 2.1626477371	 0.8808073446	-1.8176280353	 0.099618
H	 2.8747464161	-0.448371653	-0.8394310299	 0.104994
H	 0.2023375875	-2.6172859998	-1.8142607417	 0.073197
H	 2.7371364575	-2.3152224106	-0.080217307	 0.120856
H	 1.3543708858	-3.3760986129	 0.1941038612	 0.128867
H	 2.3990367621	-3.6343760378	-1.2105933723	 0.130315
74.3206	150.6706	161.3356	178.2353	260.1684	338.4904	400.2354	457.7746	580.3439	595.6043	631.2138	751.389	803.8484	844.5572	877.4262	972.6597	976.1592	1008.3929	1047.0391	1078.8225	1093.2991	1116.4226	1163.3852	1168.1531	1173.5268	1180.9398	1184.7487	1199.1558	1241.1277	1254.967	1308.4429	1406.5554	1434.9311	1482.8249	1489.1611	1491.0718	1492.9865	1505.8671	1516.9267	1554.5309	2991.9008	3040.1276	3044.2324	3045.4936	3057.5378	3073.013	3105.6582	3124.6031	3125.2364	3128.9012	3146.5379
COC12CN(C1)C2C	CO[C@@]12CN(C1)[C@H]2C	
InChI=1S/C6H11NO/c1-5-6(8-2)3-7(5)4-6/h5H,3-4H2,1-2H3	InChI=1S/C6H11NO/c1-5-6(8-2)3-7(5)4-6/h5H,3-4H2,1-2H3/t5-/m0/s1
