19
gdb 10172	3.74934	1.06504	0.8622	1.7292	70.45	-0.2437	0.0196	0.2632	1343.6744	0.162426	-402.182761	-402.17247	-402.171526	-402.218714	34.608	
C	 0.3746623886	 1.1018683046	 0.3007124191	-0.243934
O	-0.3009706893	-0.0336295201	 0.8358223441	-0.255899
C	-1.4477035275	-0.4829257137	 0.2218579425	 0.383553
C	-1.3933459458	-1.9800349369	 0.0736026504	-0.254517
C	-2.6867941045	-2.6052873819	-0.4256970557	-0.074995
O	-2.4684173173	-4.0093489018	-0.4924467078	-0.426081
N	-2.4553875926	 0.1833957282	-0.1486858819	-0.282293
C	-2.597342191	 1.602641838	 0.1230870455	-0.330597
H	 1.431953964	 0.9742210249	 0.5456990106	 0.134389
H	 0.2641240231	 1.1495740277	-0.7878615154	 0.127409
H	 0.0209862013	 2.04129167	 0.7358359463	 0.124063
H	-0.5694367588	-2.2432125436	-0.6017844404	 0.122736
H	-1.121665784	-2.4114885556	 1.0447021713	 0.13133
H	-3.5083020565	-2.3530941454	 0.2596386857	 0.096373
H	-2.9470775176	-2.1859685796	-1.4069853732	 0.099549
H	-3.2751306704	-4.4183038613	-0.8178244026	 0.28482
H	-2.1657619148	 1.9055855362	 1.0854579984	 0.118941
H	-2.1417259524	 2.2155987391	-0.6645055755	 0.121207
H	-3.6639752445	 1.8454104215	 0.1385359184	 0.123946
51.3928	89.779	98.0848	120.5924	154.7873	192.3611	237.071	262.5701	277.1641	308.6973	363.5742	418.9637	609.6262	700.3137	805.8566	819.5049	992.4255	1045.3849	1073.9969	1076.4444	1088.8278	1121.5474	1162.7669	1173.2376	1196.8752	1208.1253	1221.6556	1252.7352	1299.6477	1356.2166	1436.731	1459.3717	1470.907	1476.59	1485.9822	1494.584	1509.6143	1518.0692	1521.6068	1764.4313	2999.5251	3004.8965	3029.1285	3029.3994	3036.1246	3065.7535	3071.045	3088.0864	3101.1432	3118.4438	3835.086
COC(CCO)=NC	COC(=NC)CCO	
InChI=1S/C5H11NO2/c1-6-5(8-2)3-4-7/h7H,3-4H2,1-2H3	InChI=1S/C5H11NO2/c1-6-5(8-2)3-4-7/h7H,3-4H2,1-2H3
