16
gdb 123789	5.47858	0.96874	0.85705	5.2713	73.71	-0.2221	-0.0116	0.2105	1304.8568	0.124196	-434.025159	-434.017113	-434.016169	-434.058661	29.59	
C	-0.338782492	 1.0779069547	-0.3082053116	-0.238424
C	 1.0746144724	 1.1324834346	 0.2126449287	-0.289936
C	 0.3874013946	-0.1942942183	 0.0356350867	 0.032726
N	 0.0053125737	-0.8989544046	 1.2269778908	-0.391447
C	-1.0871929011	-1.7062977351	 1.2728473768	 0.501728
C	-1.4930235122	-2.6321764266	 2.2173285285	-0.244309
N	-2.6873444801	-3.118701565	 1.7849411914	-0.079649
N	-3.0637569927	-2.6220429709	 0.7083555091	-0.046315
O	-1.9815487094	-1.6347560846	 0.3099234999	-0.238344
H	-1.1340581277	 1.3856809839	 0.3593438581	 0.13328
H	-0.5192164979	 1.2827427368	-1.3566858254	 0.127645
H	 1.8780630883	 1.3793194583	-0.4713695355	 0.124617
H	 1.2188583897	 1.483934729	 1.2282369259	 0.121904
H	 0.7076569112	-0.8197273003	-0.7955096518	 0.107348
H	 0.7451042957	-1.1411045215	 1.8681354297	 0.257982
H	-1.0251637024	-2.9548307305	 3.1305077687	 0.121193
57.0766	74.8591	124.7592	274.3424	307.4063	361.0334	434.5208	461.7555	544.0343	665.0189	719.4471	744.3194	760.9873	769.9721	844.0181	849.5872	958.0934	970.0494	1012.2134	1058.225	1068.698	1082.4689	1128.842	1148.5726	1193.0292	1194.3428	1249.1156	1324.5985	1362.5606	1399.8027	1460.9737	1490.9424	1498.0933	1502.0667	1630.0361	3116.5213	3141.6186	3153.0761	3226.3918	3244.4812	3290.6957	3617.1996
C1CC1NC1=CN=NO1	C1CC1Nc1cnno1	
InChI=1S/C5H7N3O/c1-2-4(1)7-5-3-6-8-9-5/h3-4,7H,1-2H2	InChI=1S/C5H7N3O/c1-2-4(1)7-5-3-6-8-9-5/h3-4,7H,1-2H2
