14
gdb 24764	3.40544	1.69362	1.13109	3.0547	77.19	-0.2054	-0.0766	0.1288	987.8793	0.104251	-399.600579	-399.594076	-399.593132	-399.631428	25.77	
O	 0.0294712169	-0.0324150156	 0.0039868704	-0.33413
C	 0.0168849984	 1.1779419434	 0.0107582964	 0.279235
C	-1.2076326332	 2.0877260162	 0.0308094978	-0.198854
C	-0.8187584203	 3.3738988896	 0.0320357652	-0.210535
C	 0.6672089908	 3.4334358559	 0.0123687135	 0.28869
C	 1.1391301387	 2.1378894796	-0.0001499703	 0.188214
N	 2.5030004349	 2.1700974867	-0.018714907	-0.377868
C	 2.9061313162	 3.4789831168	-0.0177859605	-0.054802
C	 1.7784996556	 4.2986444319	 0.0015470998	-0.33189
H	-2.2138350972	 1.694157287	 0.0420744426	 0.117218
H	-1.4687984074	 4.2397707075	 0.044770963	 0.116587
H	 3.1126012003	 1.3695387017	-0.0308777362	 0.278651
H	 3.9538982833	 3.7345485229	-0.0307861043	 0.131613
H	 1.7939765329	 5.3776646265	 0.0065416394	 0.107871
134.0191	209.687	286.6065	375.1803	527.4471	546.0377	607.7418	636.347	658.4061	670.0566	713.5487	732.7169	732.7572	829.0464	836.7456	929.2955	947.5807	1032.0027	1037.6168	1079.6498	1102.8996	1172.0649	1257.8726	1309.673	1363.6757	1425.9717	1476.2495	1518.3188	1555.402	1611.6697	1802.5206	3210.9143	3247.1866	3247.7453	3268.047	3668.0633
O=C1C=CC2=C1NC=C2	O=C1C=Cc2c1[nH]cc2	
InChI=1S/C7H5NO/c9-6-2-1-5-3-4-8-7(5)6/h1-4,8H	InChI=1S/C7H5NO/c9-6-2-1-5-3-4-8-7(5)6/h1-4,8H
