14
gdb 25452	2.24476	1.73442	0.97843	2.0818	82.24	-0.2234	-0.052	0.1714	1117.1871	0.101109	-399.576436	-399.568752	-399.567808	-399.608706	28.779	
O	-0.0840691703	-0.0039769456	 0.0007810995	-0.290245
C	-0.02878719	 1.197403316	 0.0079448352	 0.171432
N	 1.170492795	 1.911935606	-0.0000582917	-0.128977
C	 2.4318071932	 1.3442284144	-0.0185415616	-0.073776
C	 3.353968062	 2.3523945274	-0.0212381964	-0.150932
C	 2.6461895665	 3.5910966943	-0.0037738404	-0.273967
C	 1.2992341009	 3.3114922461	 0.0092265713	 0.213237
C	 0.1887613324	 4.1765388195	 0.0283220673	 0.262177
C	-0.7538026275	 4.9279182697	 0.0448633824	-0.45215
H	-0.9031216229	 1.8661522134	 0.0242119064	 0.124379
H	 2.5255349312	 0.2716321331	-0.0278030429	 0.158017
H	 4.4255438502	 2.2270763139	-0.0342751582	 0.119111
H	 3.0696108928	 4.5831697872	-0.0009524868	 0.120982
H	-1.5810020635	 5.5935909344	 0.0598213958	 0.200712
138.579	144.3216	152.5886	248.9915	268.1421	449.3447	453.2674	534.7728	570.2314	611.5626	619.2964	672.8125	686.2595	771.3124	827.5126	839.6383	887.9517	909.6636	1037.3601	1042.1867	1083.8982	1162.7382	1254.9311	1315.0548	1346.8758	1430.5355	1447.9	1491.0979	1593.4712	1820.886	2223.7876	3030.0767	3252.8521	3267.0485	3293.7068	3501.2258
O=CN1C=CC=C1C#C	O=Cn1cccc1C#C	
InChI=1S/C7H5NO/c1-2-7-4-3-5-8(7)6-9/h1,3-6H	InChI=1S/C7H5NO/c1-2-7-4-3-5-8(7)6-9/h1,3-6H
