21
gdb 120054	4.26204	0.9538	0.92002	0.7729	82.66	-0.245	0.0925	0.3375	1376.5224	0.183082	-387.022455	-387.01411	-387.013166	-387.056042	31.874	
C	-0.3138911465	 1.4126591527	-0.5708871453	-0.222667
O	-0.2632787338	 0.0116292106	-0.6728202062	-0.23535
C	 0.9975965968	-0.5219113919	-0.3167693509	-0.091503
C	 0.9328370099	-2.0278869507	-0.5003035037	 0.023743
C	 0.991326415	-2.6633536585	-1.8884547679	-0.067716
C	 2.4716298562	-2.9105180499	-2.2335506348	-0.060699
C	 3.3166629885	-2.4257004115	-1.0584463551	-0.234163
C	 2.1551151037	-2.9314026399	-0.1561875305	-0.097036
C	 1.7135198777	-3.8744322081	-1.3528772279	-0.086071
H	-0.1187650417	 1.756615072	 0.4579907165	 0.10007
H	 0.4177130863	 1.8999129679	-1.2357286628	 0.101031
H	-1.3189847575	 1.7282812157	-0.8624543589	 0.12399
H	 1.7855488854	-0.0736814231	-0.9423797987	 0.084467
H	 1.2358319471	-0.2751452805	 0.7343047159	 0.077826
H	 0.0487398133	-2.4003737957	 0.0285447012	 0.078459
H	 0.2386566757	-2.6324935397	-2.6653445772	 0.086305
H	 2.7784300547	-3.0587381231	-3.2611913124	 0.081706
H	 4.2044757098	-3.0526286135	-0.9349802172	 0.097218
H	 3.6091561653	-1.3714556189	-0.9945453625	 0.086741
H	 2.3424476852	-3.2349534873	 0.8721862944	 0.066095
H	 1.5141389289	-4.9329263266	-1.4307647758	 0.087551
62.899	91.92	136.5925	214.1035	240.9795	337.0262	365.5854	479.0955	591.0366	707.9503	734.5155	786.6299	787.776	814.0572	883.1239	894.9003	954.5663	969.1167	994.2131	1001.0151	1013.3891	1029.7811	1036.0581	1052.2357	1104.3759	1117.0639	1142.1812	1160.7138	1166.5535	1170.7062	1185.7037	1206.8569	1229.0251	1243.4452	1259.6255	1282.0146	1318.4175	1362.3829	1375.2499	1430.9434	1479.3745	1484.4507	1501.7031	1506.4065	1525.2874	2935.2947	2964.5221	2987.0868	3005.7304	3035.0653	3054.4551	3090.0458	3108.8566	3130.2624	3192.2084	3202.1221	3226.9959
COCC1C2C3CC1C23	COC[C@H]1[C@H]2[C@H]3C[C@@H]1[C@@H]23	
InChI=1S/C8H12O/c1-9-3-6-4-2-5-7(4)8(5)6/h4-8H,2-3H2,1H3	InChI=1S/C8H12O/c1-9-3-6-4-2-5-7(4)8(5)6/h4-8H,2-3H2,1H3/t4-,5-,6+,7+,8+/m0/s1
