18
gdb 32578	1.94352	1.90482	1.03975	0.2521	74.5	-0.1606	0.0683	0.2289	1149.0526	0.146619	-439.11445	-439.104795	-439.10385	-439.149316	35.038	
C	 0.0227933473	 1.5753884628	 0.0077258292	-0.377377
C	-0.03180485	 0.0453978037	 0.0031090167	-0.152405
N	-1.3899212457	-0.4762625408	 0.0129667838	-0.091679
C	-2.1495625577	-0.752103274	 1.1303795416	 0.348649
O	-1.560758252	-0.5340375131	 2.3406870563	-0.447524
C	-3.3813038728	-1.2033204237	 0.7485985709	-0.295266
C	-3.3929484424	-1.2005199788	-0.6932109403	-0.295291
C	-2.1676368989	-0.7474899669	-1.0930949635	 0.34868
O	-1.5986573436	-0.5244201691	-2.3119389597	-0.44752
H	 1.0630814267	 1.9165066061	 0.0000871101	 0.113233
H	-0.479183057	 1.9818025686	-0.8746307262	 0.132371
H	-0.4641925803	 1.9758353001	 0.901133587	 0.132421
H	 0.4642238741	-0.350941689	-0.886238602	 0.12819
H	 0.4794166413	-0.3567443248	 0.8811972418	 0.128145
H	-2.1612162336	-0.849259843	 3.0222076431	 0.3048
H	-4.1882032797	-1.4981098812	 1.4012429409	 0.082885
H	-4.2102986321	-1.4927862714	-1.3338752079	 0.082887
H	-2.2093702536	-0.8385653855	-2.9847893618	 0.3048
40.2697	91.349	168.5973	193.7347	205.0601	213.5916	306.3631	314.2603	327.8654	409.4518	538.8651	593.8426	608.1662	664.6109	687.1499	701.1389	726.7799	732.0981	795.5244	970.3177	1002.7955	1027.2114	1102.963	1137.3489	1149.4684	1221.8765	1260.8837	1270.8882	1311.5488	1348.1894	1394.9287	1411.1371	1476.7407	1488.7734	1495.8728	1504.1578	1547.6829	1618.1942	1627.9789	3042.0046	3070.7017	3110.0749	3115.0372	3134.3023	3240.0205	3253.5657	3851.989	3852.7755
CCN1C(O)=CC=C1O	CCn1c(O)ccc1O	
InChI=1S/C6H9NO2/c1-2-7-5(8)3-4-6(7)9/h3-4,8-9H,2H2,1H3	InChI=1S/C6H9NO2/c1-2-7-5(8)3-4-6(7)9/h3-4,8-9H,2H2,1H3
