19
gdb 41156	2.84946	1.92976	1.45912	1.5505	74.09	-0.2447	0.072	0.3168	935.0118	0.162231	-422.981738	-422.975141	-422.974197	-423.012304	27.993	
C	-0.0072199332	 1.4966576865	-0.1071832465	-0.163516
O	 1.4477755698	 1.5243033082	 0.0450703938	-0.352152
C	 1.3946573676	 0.2595915893	 0.7170648867	 0.450269
C	 2.268736503	-0.9979825308	 0.6830951509	-0.314687
C	 1.3719186889	-1.3812616888	 1.9216628847	-0.049786
C	 1.3145478998	 0.1346276713	 2.2523478656	-0.288725
C	-0.0614667115	-1.8215297813	 1.5215301986	-0.087737
O	-0.8247501923	-0.7344151178	 0.9695043958	-0.261373
C	 0.0262956327	-0.0270009294	 0.1074797208	 0.063206
H	-0.5082299023	 2.0504112608	 0.6956270993	 0.112669
H	-0.3223429705	 1.8730032925	-1.0833213722	 0.112609
H	 2.2221836659	-1.618690705	-0.2165377531	 0.095254
H	 3.3079750474	-0.8491394676	 0.9887860808	 0.106179
H	 1.8010490321	-2.0695467464	 2.6506441599	 0.078993
H	 2.2298760383	 0.4856388782	 2.7339218216	 0.102191
H	 0.4320061397	 0.5206554247	 2.764808464	 0.10825
H	-0.0208154885	-2.6557251007	 0.8031759352	 0.096406
H	-0.6166791667	-2.1555090781	 2.4026140746	 0.115115
H	 0.1258132397	-0.5422015255	-0.8603096606	 0.076836
200.8425	246.3996	371.6385	374.9318	389.7985	453.3259	525.9964	533.2179	627.4146	734.9184	791.5941	845.6379	850.5059	896.7683	925.4801	946.4934	979.6232	986.7933	997.5096	1003.5547	1056.9573	1098.4372	1112.9918	1130.6076	1139.9945	1153.0344	1169.5173	1191.4652	1232.7132	1239.3602	1280.207	1289.7832	1309.1885	1324.2991	1334.1512	1379.0885	1416.3185	1476.85	1500.7403	1511.8942	1514.6049	2978.8939	2985.4205	3034.6117	3049.606	3072.8707	3086.0015	3105.9434	3106.8654	3110.7222	3135.6047
C1OC23CC(C2)COC13	C1O[C@@]23C[C@@H](C2)CO[C@@H]13	
InChI=1S/C7H10O2/c1-5-2-7(1)6(4-9-7)8-3-5/h5-6H,1-4H2	InChI=1S/C7H10O2/c1-5-2-7(1)6(4-9-7)8-3-5/h5-6H,1-4H2/t5-,6-,7-/m0/s1
