17
gdb 46755	2.85181	1.78965	1.41892	4.5105	70.04	-0.2466	0.0112	0.2578	938.1884	0.138506	-421.83476	-421.827986	-421.827042	-421.866024	26.991	
O	-0.0366949809	 0.0353927444	 0.3222415849	-0.341289
C	-0.0050013942	 1.1946029251	 0.0269793315	 0.432892
O	-1.1381170396	 1.8845992184	-0.3057680784	-0.230545
C	-0.8728711414	 3.2346413691	-0.742104883	-0.106975
C	 0.6126861379	 3.5080578868	-0.4619824503	-0.054752
C	 1.0309817838	 4.1137783112	 0.8944393647	-0.063165
C	 0.4281364774	 3.3631226144	 2.0503444377	-0.301143
C	 1.6061490789	 2.7646219442	 1.3357688303	-0.042968
C	 1.182279405	 2.1395971926	-0.0156625035	-0.180464
H	-1.1151899677	 3.2929827745	-1.8082581838	 0.118833
H	-1.5441134817	 3.9007278915	-0.192653609	 0.12424
H	 1.1221003138	 3.966884595	-1.309169101	 0.088973
H	 1.4536962471	 5.1032783867	 1.0159929325	 0.094314
H	 0.6607302688	 3.7800537209	 3.0248751389	 0.1204
H	-0.5600935234	 2.9151959573	 1.9928961635	 0.134581
H	 2.5365832327	 2.5414803965	 1.8407054116	 0.100033
H	 2.0042435734	 1.7235312312	-0.5968388667	 0.107035
115.5334	160.9808	228.7384	337.2779	470.0373	493.3937	617.6786	687.4387	717.5319	736.9202	771.9645	803.8028	837.7583	911.9727	933.4204	937.7602	981.2015	1010.6163	1024.0255	1029.8314	1063.0063	1080.6621	1096.6395	1104.2303	1166.3793	1178.509	1182.2839	1229.7193	1249.4959	1267.518	1301.0821	1326.7161	1361.1685	1398.9277	1498.4085	1517.5738	1877.1419	3045.1291	3092.6092	3111.5261	3121.4927	3126.4127	3185.5282	3198.0365	3208.9563
O=C1OCC2C3CC3C12	O=C1OC[C@H]2[C@H]3C[C@H]3[C@@H]12	
InChI=1S/C7H8O2/c8-7-6-4-1-3(4)5(6)2-9-7/h3-6H,1-2H2	InChI=1S/C7H8O2/c8-7-6-4-1-3(4)5(6)2-9-7/h3-6H,1-2H2/t3-,4+,5-,6+/m0/s1
