17
gdb 39290	2.69514	2.23555	1.56984	2.5832	66.05	-0.2567	0.0675	0.3243	862.5562	0.139218	-458.957696	-458.951365	-458.950421	-458.988593	25.321	
C	 0.10230464	 1.4946619879	 0.3085890421	-0.098743
O	 1.4831927096	 1.829948788	 0.3019236207	-0.274625
C	 2.2355254176	 0.9125719757	-0.4888420976	 0.219487
O	 3.343325688	 0.4387625982	 0.2182320608	-0.246688
C	 2.9476645427	-0.664043384	 1.04210431	-0.101867
C	 1.6569812102	-1.2242854742	 0.4286309635	 0.095111
O	 0.4514431605	-0.8136955599	 1.1231048493	-0.312188
C	 0.0264337686	 0.0069420154	 0.0089050558	 0.107579
C	 1.322703988	-0.3020879043	-0.7573062019	-0.182354
H	-0.3113047379	 1.7410205519	 1.2912499052	 0.123849
H	-0.4471738534	 2.0628139999	-0.4592751161	 0.092451
H	 2.6230711665	 1.4272179523	-1.3737485498	 0.087261
H	 3.7715173693	-1.3839082179	 1.0409027973	 0.108089
H	 2.750336397	-0.3404838444	 2.0707908186	 0.121341
H	 1.6717487325	-2.3059777712	 0.2689523115	 0.087507
H	-0.9335892854	-0.3229632476	-0.3977503262	 0.084697
H	 1.3127981661	-0.676074726	-1.7775225134	 0.089095
115.0139	148.4891	355.3129	394.0391	463.4336	601.1436	643.47	727.174	776.0902	830.3595	851.6389	886.8043	913.4503	922.3554	945.1387	968.6954	976.0659	1000.451	1046.8845	1069.8426	1083.2473	1094.4584	1139.3941	1206.8136	1220.957	1226.9834	1249.1945	1259.1297	1289.0989	1311.3952	1330.6339	1355.401	1361.7993	1395.1499	1400.2166	1500.5267	1503.7501	2977.8571	3036.1696	3062.2954	3066.1445	3073.3794	3084.8416	3092.2533	3152.6409
C1OC2OCC3OC1C23	C1O[C@H]2OC[C@H]3O[C@@H]1[C@@H]23	
InChI=1S/C6H8O3/c1-3-5-4(9-3)2-8-6(5)7-1/h3-6H,1-2H2	InChI=1S/C6H8O3/c1-3-5-4(9-3)2-8-6(5)7-1/h3-6H,1-2H2/t3-,4+,5+,6-
