16
gdb 69210	2.67632	1.62163	1.17455	2.2619	69.99	-0.2586	-0.0283	0.2303	1039.3809	0.125293	-437.963356	-437.955574	-437.95463	-437.995559	29.64	
C	-0.0327782895	 1.5432758947	 0.0098675827	-0.481482
C	 0.070682465	 0.0398001618	 0.023233806	 0.196755
C	-0.8013606765	-0.8192313249	 0.9119506883	-0.318498
C	 0.6999033805	-0.8012704734	 1.1182384464	-0.216995
C	 1.4365448754	-1.9214126192	 0.4401606095	 0.434964
O	 2.1583301671	-2.7530735577	 0.9271516775	-0.349618
N	 1.1313092223	-1.8142755088	-0.9212193343	-0.376609
C	 0.4427325121	-0.6518917145	-1.2686460716	 0.390945
O	 0.2164328957	-0.2807895037	-2.3926939392	-0.352768
H	 0.9225104962	 2.0040158496	-0.2595361691	 0.134594
H	-0.7761281125	 1.8618126071	-0.7262022156	 0.149399
H	-0.331780183	 1.9226513295	 0.9908324195	 0.121091
H	-1.3933818222	-0.2928510895	 1.653041331	 0.133991
H	-1.2663963325	-1.7135491455	 0.5117653892	 0.138462
H	 1.1189279125	-0.3908053425	 2.0271671491	 0.123686
H	 1.4872075893	-2.4613885529	-1.6096743695	 0.272085
137.5629	140.7523	172.0439	248.307	302.8139	345.9713	410.0012	522.1858	557.027	616.427	643.3543	709.5706	760.9546	778.6458	816.6407	868.7788	882.2921	970.1261	986.0286	1037.4301	1054.2928	1085.4385	1117.5239	1142.7295	1236.9321	1294.9887	1339.8313	1349.0129	1391.4339	1420.3165	1483.6312	1491.5979	1499.4187	1833.0412	1871.8107	3043.864	3112.4969	3121.9417	3134.4967	3211.99	3224.8132	3628.865
CC12CC1C(=O)NC2=O	C[C@]12C[C@H]1C(=O)NC2=O	
InChI=1S/C6H7NO2/c1-6-2-3(6)4(8)7-5(6)9/h3H,2H2,1H3,(H,7,8,9)	InChI=1S/C6H7NO2/c1-6-2-3(6)4(8)7-5(6)9/h3H,2H2,1H3,(H,7,8,9)/t3-,6-/m0/s1
