19
gdb 120680	2.4503	0.77097	0.62292	2.4066	81.82	-0.2473	0.0257	0.273	1803.8776	0.156336	-422.974987	-422.964429	-422.963485	-423.012749	36.018	
C	 0.0920537712	 1.515921635	 0.1946498148	-0.501632
C	 0.01966042	 0.0645271743	 0.1243294242	 0.104809
C	-0.0434573381	-1.1375792783	 0.0735412764	 0.086732
C	-0.0693340069	-2.5728362419	-0.004343166	-0.167835
O	-0.7406006805	-3.2943923202	 1.0467152172	-0.248513
C	-1.3077205499	-3.3431071333	-0.2638943009	 0.07012
C	-2.6580702715	-2.7010346662	-0.4499952081	-0.250893
C	-3.7772257444	-3.5209587189	 0.2029771608	-0.056161
O	-5.0607877271	-2.9588772058	-0.0144792208	-0.418183
H	 1.1313351837	 1.8617617699	 0.1845089481	 0.153945
H	-0.4236280766	 1.9831027235	-0.6515318704	 0.152059
H	-0.3727268502	 1.8880364241	 1.1142072244	 0.155026
H	 0.8715232073	-3.031774831	-0.3090651967	 0.110852
H	-1.1772595777	-4.3090725857	-0.7582073719	 0.09386
H	-2.6370159701	-1.6927764814	-0.0216005264	 0.105362
H	-2.8689172618	-2.5991740896	-1.5215177215	 0.11072
H	-3.8154782594	-4.5236308349	-0.2375342097	 0.109773
H	-3.5626334368	-3.6440927434	 1.2747297024	 0.10801
H	-5.0900260211	-2.1113080261	 0.4406472443	 0.28195
27.7535	53.5171	82.1114	99.6508	134.3506	165.6898	255.4771	301.9033	326.2959	359.922	399.7181	478.631	528.3204	582.6425	754.9926	775.0456	825.1563	899.4456	970.4113	1018.5736	1050.9266	1053.039	1072.244	1084.9293	1110.7845	1124.4281	1190.8323	1203.3925	1283.2058	1298.9849	1315.1865	1382.562	1404.1794	1413.6762	1422.423	1461.2612	1475.4353	1476.4739	1477.5239	1514.1986	2368.7407	3000.2041	3029.0974	3036.069	3061.8193	3073.894	3090.5484	3092.621	3093.3795	3105.3866	3816.6199
CC#CC1OC1CCO	CC#C[C@H]1O[C@H]1CCO	
InChI=1S/C7H10O2/c1-2-3-6-7(9-6)4-5-8/h6-8H,4-5H2,1H3	InChI=1S/C7H10O2/c1-2-3-6-7(9-6)4-5-8/h6-8H,4-5H2,1H3/t6-,7+/m1/s1
