17
gdb 75443	2.53645	1.43034	1.16729	3.3746	73.56	-0.2586	0.0044	0.263	1112.2369	0.136727	-418.04247	-418.034087	-418.033143	-418.075762	30.737	
C	 0.0396170863	 1.4949113396	 0.0522755109	-0.453602
C	-0.0065753731	 0.0068614549	-0.1144890524	 0.400196
N	 0.0683081286	-0.5615166687	-1.2406528784	-0.291381
C	 0.0495579773	-2.0166606583	-1.3154297624	-0.168495
C	 0.4277610968	-2.6898133216	 0.0048596784	-0.251151
C	-0.3407838316	-2.0053370471	 1.1410113483	-0.027882
O	-0.1322866996	-0.5937618319	 1.1234646611	-0.262432
C	-1.7866573693	-2.2982841726	 1.0766313361	 0.283534
N	-2.9134593749	-2.5476563857	 1.0256982533	-0.317578
H	 0.8539927257	 1.775546582	 0.7277048685	 0.140686
H	 0.1861124264	 1.9638499668	-0.9195367828	 0.149876
H	-0.8919835689	 1.8539717619	 0.5009109872	 0.146798
H	-0.9503875765	-2.3372338918	-1.635510834	 0.137049
H	 0.7386532129	-2.3255549711	-2.1080142448	 0.119844
H	 0.212111483	-3.7616102467	-0.0041877774	 0.128067
H	 1.4956793289	-2.5594198222	 0.2072626121	 0.124942
H	 0.0208863279	-2.3412209174	 2.1174388064	 0.14153
72.4221	118.4323	153.7495	217.1598	250.1655	322.7282	341.9635	432.0559	469.9877	578.2248	596.4401	636.7131	712.595	795.144	867.0999	904.2166	914.0033	963.6531	1025.7077	1059.3929	1080.0401	1103.901	1139.995	1216.7717	1228.7772	1261.475	1314.7634	1367.3878	1372.5891	1382.8232	1409.0947	1473.592	1475.9083	1477.4271	1491.2348	1765.2771	2359.4186	3028.7618	3049.8714	3053.2194	3070.5376	3074.2775	3108.0078	3108.5975	3170.4686
CC1=NCCC(O1)C#N	CC1=NCC[C@@H](O1)C#N	
InChI=1S/C6H8N2O/c1-5-8-3-2-6(4-7)9-5/h6H,2-3H2,1H3	InChI=1S/C6H8N2O/c1-5-8-3-2-6(4-7)9-5/h6H,2-3H2,1H3/t6-/m1/s1
