17
gdb 20264	4.00514	2.79735	2.47305	1.7078	69.49	-0.2318	0.1057	0.3375	657.5489	0.147085	-326.701159	-326.696189	-326.695245	-326.729804	22.167	
C	-0.0472667856	 1.5541979945	 0.0688335427	-0.222396
C	 1.503976107	 1.4186912297	 0.0014992355	-0.068556
C	 1.7964578133	 0.6091918466	 1.2697453689	-0.039605
C	 2.0848786143	-0.8080797562	 0.9180567103	-0.037227
C	 2.2591382717	-0.9170050079	-0.5829001023	-0.255108
C	 1.281791314	 0.1863669387	-0.9491825063	-0.036214
C	 0.0296522743	 0.0135822085	-0.0359447669	 0.002955
N	 0.6905523909	-0.3945990569	 1.2499445239	-0.1302
H	-0.4928421878	 1.9800782701	 0.9711969143	 0.101464
H	-0.4731105308	 2.0166895544	-0.825348815	 0.096432
H	 2.1636683698	 2.2489632594	-0.2483470453	 0.064909
H	 2.0516775554	 1.0686506395	 2.2178354645	 0.088397
H	 2.5526861598	-1.4981304096	 1.6115168623	 0.088318
H	 3.2875470104	-0.7102501249	-0.8984253511	 0.103353
H	 1.9623330266	-1.8958933053	-0.9754814865	 0.103817
H	 1.1009097967	 0.4154547449	-1.9971509372	 0.07192
H	-0.8228049999	-0.6155212455	-0.2899030417	 0.067741
370.9159	428.0878	497.5399	672.9776	685.5228	735.7592	780.2802	804.6285	842.1284	863.7978	880.2985	887.5889	925.9973	938.3079	958.6325	999.0794	1006.8256	1021.8111	1044.5964	1057.6832	1069.5983	1104.9322	1108.9949	1150.9439	1192.0603	1216.6011	1230.4961	1240.5335	1253.0182	1266.9817	1281.9774	1293.2036	1342.3818	1375.331	1485.0602	1498.3698	3042.1235	3061.3109	3086.1978	3119.7397	3120.4115	3122.0753	3146.1616	3170.2674	3181.7975
C1C2C3C4CC2C1N34	C1[C@H]2[C@@H]3[C@@H]4C[C@H]2[C@H]1N34	
InChI=1S/C7H9N/c1-3-4-2-5(3)8-6(1)7(4)8/h3-7H,1-2H2	InChI=1S/C7H9N/c1-3-4-2-5(3)8-6(1)7(4)8/h3-7H,1-2H2/t3-,4-,5+,6+,7-,8?/m1/s1
