17
gdb 53068	5.51761	0.72674	0.64988	3.1429	89.64	-0.2274	-0.0231	0.2043	1688.6171	0.134243	-384.709731	-384.70055	-384.699606	-384.745973	32.233	
C	-0.0680086646	 1.4607754603	 0.0195870164	-0.507983
C	-0.0032209902	 0.0082181176	 0.0143425015	 0.220884
C	 0.0657666155	-1.1974154569	 0.0118096713	-0.140576
C	 0.0820845756	-2.6118736216	 0.0011010572	 0.193784
C	 1.1625260415	-3.404975309	 0.1233985207	-0.188206
C	 0.8282369919	-4.8660146689	 0.0702840532	-0.362623
C	-0.698995183	-4.8781413142	-0.1127324278	 0.390089
O	-1.3906554407	-5.8568117546	-0.2043317031	-0.302684
C	-1.187899673	-3.4235655356	-0.158261466	-0.433372
H	 0.5265300425	 1.8876111384	-0.7961387051	 0.153168
H	-1.0981351327	 1.8136998456	-0.0995919895	 0.152285
H	 0.318095345	 1.8719757724	 0.9592170253	 0.153168
H	 2.1722163308	-3.0334276113	 0.2476472363	 0.102865
H	 1.3090596752	-5.4012930079	-0.759593443	 0.140624
H	 1.1006406667	-5.41687082	 0.9806487139	 0.140624
H	-1.9176699098	-3.2415185468	 0.6398584606	 0.143976
H	-1.7089705407	-3.2259149877	-1.102782662	 0.143976
15.2616	60.5112	86.531	118.0172	258.463	287.6469	389.7662	412.1813	453.7284	464.3106	548.1125	555.4468	643.401	787.6623	802.5072	834.7466	869.8768	974.1033	999.3073	1002.6712	1048.6399	1053.2688	1122.6316	1128.381	1179.8472	1229.1092	1276.7739	1296.3359	1333.2928	1413.2927	1438.6346	1443.2118	1475.312	1475.318	1666.7055	1855.0046	2349.1179	3019.2946	3024.8801	3037.7399	3044.1695	3069.2029	3083.8685	3089.221	3208.5384
CC#CC1=CCC(=O)C1	CC#CC1=CCC(=O)C1	
InChI=1S/C8H8O/c1-2-3-7-4-5-8(9)6-7/h4H,5-6H2,1H3	InChI=1S/C8H8O/c1-2-3-7-4-5-8(9)6-7/h4H,5-6H2,1H3
