15
gdb 46822	2.6258	1.62267	1.1702	5.2433	71.	-0.2389	-0.0391	0.1998	1025.8976	0.114154	-416.820538	-416.813012	-416.812068	-416.852674	28.488	
O	 0.0170154502	 0.0223998096	 0.1852026419	-0.291698
C	 0.003550474	 1.212311467	 0.0295939271	 0.34595
C	-1.2544993099	 2.0879125195	-0.1679242581	-0.30494
N	-0.8226750549	 3.365389701	-0.7532779099	-0.291396
C	 0.5973383113	 3.490621447	-0.5252225612	-0.035779
C	 1.0770265915	 3.3718837411	 0.8663443055	-0.311296
C	 1.1946126551	 2.1337260494	-0.0524389075	 0.041976
C	 2.4793647487	 1.6358078621	-0.4190487717	 0.211919
N	 3.5266735401	 1.2532245867	-0.729041709	-0.343086
H	-1.9707062715	 1.5697711078	-0.8078593917	 0.151257
H	-1.7405646261	 2.2335705331	 0.8051033664	 0.148911
H	-0.9915742786	 3.3513435312	-1.7525346597	 0.240949
H	 1.142534078	 4.1072962955	-1.2284123107	 0.134166
H	 2.0234382943	 3.8377076223	 1.1121148198	 0.159311
H	 0.3657305278	 3.3246610167	 1.6836736686	 0.143756
105.2185	140.1921	177.2804	247.0405	391.1647	422.233	469.8958	520.763	573.6066	602.0239	638.4054	679.5096	793.0815	824.5615	846.0208	906.2928	975.1893	983.2422	1030.6167	1058.3965	1074.7351	1092.4261	1170.323	1209.1291	1242.6546	1292.7294	1315.1551	1401.5324	1459.2592	1479.6481	1498.6723	1849.338	2350.0891	3034.7517	3121.1696	3145.9743	3204.9957	3240.3037	3540.3994
O=C1CNC2CC12C#N	O=C1CN[C@H]2C[C@@]12C#N	
InChI=1S/C6H6N2O/c7-3-6-1-4(6)8-2-5(6)9/h4,8H,1-2H2	InChI=1S/C6H6N2O/c7-3-6-1-4(6)8-2-5(6)9/h4,8H,1-2H2/t4-,6-/m0/s1
