15
gdb 24279	4.1359	1.70778	1.32818	4.7541	69.28	-0.2054	0.0396	0.2451	913.6606	0.116073	-416.815455	-416.809329	-416.808385	-416.845901	24.892	
C	-0.0241499067	 1.4739917284	 0.1232563342	-0.338973
C	 1.2910435645	 0.7441353937	 0.0309932101	 0.070712
O	 1.9772054551	 0.4088926558	 1.22768613	-0.260163
C	 1.1600460283	-0.4348606583	 1.9089732743	 0.469957
N	 1.228767102	-0.9614586399	 3.0925442727	-0.384495
C	 0.0467676218	-1.6957379749	 3.169117898	-0.088697
C	-0.7134412711	-1.571760663	 2.035440712	-0.167716
N	 0.0408476581	-0.7526662806	 1.205034139	-0.030208
C	-0.0121381663	-0.036127752	-0.0294673237	-0.046508
H	-0.3340258106	 1.8844756206	 1.07778128	 0.147301
H	-0.3019924849	 2.0565372472	-0.7484133031	 0.13266
H	 1.9634164055	 0.8846685875	-0.804179961	 0.128395
H	-0.1792718751	-2.2783378085	 4.0489162105	 0.111634
H	-1.6632962756	-1.98302286	 1.7411210469	 0.130348
H	-0.3909073949	-0.546551646	-0.90608477	 0.125753
123.2543	257.7125	360.0376	462.9182	474.2002	617.158	662.8076	682.6087	724.335	735.7382	785.8058	793.4776	827.186	833.2314	942.9654	961.2568	981.4637	1033.9835	1067.0129	1083.6659	1097.2104	1136.7976	1149.79	1187.3481	1195.8429	1274.1433	1307.4512	1363.5426	1432.609	1458.9264	1471.7268	1517.4976	1625.7224	3138.1335	3189.6493	3213.6501	3234.3326	3253.7736	3291.272
C1C2OC3=NC=CN3C12	C1[C@H]2Oc3nccn3[C@@H]12	
InChI=1S/C6H6N2O/c1-2-8-4-3-5(4)9-6(8)7-1/h1-2,4-5H,3H2	InChI=1S/C6H6N2O/c1-2-8-4-3-5(4)9-6(8)7-1/h1-2,4-5H,3H2/t4-,5+/m0/s1
