20
gdb 111467	2.71831	1.42679	1.05181	3.8542	78.64	-0.2354	-0.0131	0.2223	1188.9115	0.171642	-403.161486	-403.152966	-403.152021	-403.194926	32.587	
C	-0.1446101753	 1.4864472701	 0.2023431127	-0.391795
C	-0.1128820395	-0.0320658458	 0.0032290102	-0.171707
C	 0.6234529446	-0.483782557	-1.269042438	-0.089236
C	 0.8887304817	-1.9735266903	-1.3637992684	-0.063934
N	-0.3430098998	-2.754307914	-1.60866981	-0.335425
C	 0.5768923406	-2.4726212854	-2.7307931314	-0.048009
C	 0.0882846093	-1.3267008422	-3.58479138	-0.310463
C	-0.1250110684	-0.1750323144	-2.5859858922	 0.384424
O	-0.7755783699	 0.8126925628	-2.8098941223	-0.31089
H	 0.870149369	 1.894555993	 0.2798958205	 0.103127
H	-0.6429387439	 1.9778353179	-0.6349270655	 0.151341
H	-0.675501475	 1.7439991246	 1.1242661207	 0.106297
H	 0.3791020513	-0.5038557744	 0.8635718551	 0.088235
H	-1.1307875457	-0.4347464722	-0.0265227371	 0.118538
H	 1.5882244593	 0.0452756341	-1.3322096339	 0.094927
H	 1.6804499715	-2.4159116607	-0.7675358864	 0.088189
H	-0.2124052129	-3.710225468	-1.2883313977	 0.234503
H	 1.1351635733	-3.2902975527	-3.1737934286	 0.091359
H	 0.845853327	-1.0186273831	-4.3171947376	 0.124149
H	-0.8381988072	-1.5309884125	-4.1271886401	 0.136372
62.6283	106.3478	170.5404	206.7448	262.8351	322.9955	367.8708	454.5235	472.474	564.0565	634.5501	673.2114	733.1581	794.8802	829.2486	866.3759	871.8984	919.9953	942.9027	980.977	1004.4872	1039.1922	1067.5174	1093.178	1114.5072	1131.9405	1154.3068	1169.882	1194.2192	1236.7824	1262.0795	1284.1328	1306.797	1332.1111	1369.4021	1381.0652	1409.1351	1428.2903	1445.1107	1489.9742	1497.1593	1516.0333	1841.9368	2985.5724	3022.7138	3032.5082	3037.2654	3073.9993	3096.1263	3105.8677	3142.256	3157.7959	3170.6512	3509.8894
CCC1C2NC2CC1=O	CC[C@H]1[C@H]2N[C@H]2CC1=O	
InChI=1S/C7H11NO/c1-2-4-6(9)3-5-7(4)8-5/h4-5,7-8H,2-3H2,1H3	InChI=1S/C7H11NO/c1-2-4-6(9)3-5-7(4)8-5/h4-5,7-8H,2-3H2,1H3/t4-,5+,7-/m1/s1
