18
gdb 126909	3.19512	1.04999	0.82954	4.11	75.7	-0.2143	0.0144	0.2287	1392.0313	0.149242	-431.435766	-431.426601	-431.425656	-431.470718	33.099	
C	-0.0959081257	 1.5169520718	-0.0914356635	-0.393743
C	-0.3035829611	 0.0374756848	-0.3955846381	-0.111394
N	-1.3296525832	-0.5349691356	 0.4939543341	-0.409586
C	-1.586926221	-1.9068647664	 0.2972591044	 0.242507
C	-2.7976520437	-2.4450406218	-0.0962850385	 0.302094
N	-4.0309312824	-1.842429399	-0.301830223	-0.608333
N	-2.5584085269	-3.7737511113	-0.1506165814	-0.230033
N	-1.2645003364	-4.0591076904	 0.1836072721	-0.136822
N	-0.6935150543	-2.9279853252	 0.4574851266	-0.237859
H	 0.6435983257	 1.9508628612	-0.7707072293	 0.11879
H	-1.0331621586	 2.0722664398	-0.1941339633	 0.119229
H	 0.2708229193	 1.6610784376	 0.9316532623	 0.115382
H	-0.6555325878	-0.0908147422	-1.4258046413	 0.101012
H	 0.6505676852	-0.5045484354	-0.3180136245	 0.111855
H	-1.0663467624	-0.359766776	 1.459666367	 0.22946
H	-3.9225988067	-0.8361629889	-0.2301845488	 0.260949
H	-4.4703040613	-2.0811918902	-1.183019917	 0.251841
H	-3.1938535589	-4.5262575227	-0.3590029279	 0.27465
40.7109	63.6506	124.3815	232.8107	251.1854	282.1156	285.9838	333.9544	378.7112	493.6321	527.7231	670.1842	695.1789	730.1224	756.2945	792.8069	812.9878	856.8408	926.0105	1006.8528	1019.7288	1069.2447	1112.3667	1139.5589	1170.6467	1222.5987	1286.6455	1305.1117	1330.5529	1376.565	1406.9461	1411.6408	1467.0735	1493.8027	1498.8163	1521.5463	1534.9928	1631.954	1673.4951	2996.7989	3032.0883	3052.6131	3099.578	3116.9167	3495.9476	3513.7876	3602.4176	3663.9117
CCNC1=C(N)NN=N1	CCNc1c(N)[nH]nn1	
InChI=1S/C4H9N5/c1-2-6-4-3(5)7-9-8-4/h2H2,1H3,(H4,5,6,7,8,9)	InChI=1S/C4H9N5/c1-2-6-4-3(5)7-9-8-4/h2H2,1H3,(H4,5,6,7,8,9)
