23
gdb 61651	3.98171	0.77493	0.68172	0.7745	92.46	-0.2553	0.0576	0.3129	1698.547	0.204425	-351.116946	-351.106823	-351.105879	-351.152603	37.86	
C	-0.0158963243	 1.5910630658	 0.2045752071	-0.382168
C	 0.0136504255	 0.0547376854	 0.0705899444	-0.165697
C	 0.6922052787	-0.4366272449	-1.2331442796	-0.207012
C	-0.0238900774	-0.0612391153	-2.5269055058	 0.055119
C	 0.1550913054	 1.3462341117	-3.175453279	-0.214202
C	 0.2038937151	 0.6616894659	-4.5664309363	-0.220246
C	 0.5183541976	-0.6775732781	-3.8491552066	-0.236132
C	 0.6647127058	-0.5453691669	 1.2352705659	 0.320978
C	 1.2222530709	-1.0305586369	 2.1839101552	-0.466457
H	 0.9999079178	 1.9981909503	 0.1931230643	 0.122891
H	-0.5782489603	 2.0428674035	-0.6158210624	 0.121009
H	-0.4857309378	 1.8855795709	 1.1466209573	 0.123
H	-1.0271165259	-0.3008083097	 0.051535763	 0.10223
H	 1.7257142654	-0.0666698806	-1.2582568745	 0.098533
H	 0.7617295415	-1.5302072541	-1.1814462517	 0.106742
H	-1.0939640716	-0.2875369139	-2.4335064859	 0.066307
H	-0.6218301503	 2.0958893903	-3.0053103051	 0.094958
H	 1.1221972184	 1.7839900665	-2.9069719829	 0.099106
H	-0.7801088903	 0.6440366747	-5.0440707299	 0.101067
H	 0.9321395977	 1.0335100464	-5.2909015659	 0.095938
H	 1.5973613586	-0.854737121	-3.7845348951	 0.098891
H	 0.0404997552	-1.5882174439	-4.219506202	 0.094474
H	 1.7030374542	-1.463813046	 3.0254940954	 0.190671
40.9545	85.7855	107.4249	163.519	190.6621	223.9235	265.5537	292.0082	364.0146	413.7805	526.0257	539.5053	623.9435	631.0345	645.1079	765.6415	783.1303	819.6806	864.1543	898.4309	928.7553	936.7908	953.0417	981.114	1009.6314	1036.0429	1103.9273	1112.7331	1129.5738	1170.7296	1204.0375	1225.4458	1258.111	1259.9976	1265.8914	1276.8655	1292.1817	1315.1605	1340.8706	1362.1365	1388.2947	1407.3483	1475.0365	1479.7773	1487.2141	1494.404	1499.2729	1510.7753	2232.4862	2995.4692	3015.7799	3022.7433	3043.4153	3045.6686	3048.8944	3057.4855	3060.6471	3093.8586	3098.3557	3115.3536	3117.154	3129.2488	3506.0176
CC(CC1CCC1)C#C	C[C@@H](CC1CCC1)C#C	
InChI=1S/C9H14/c1-3-8(2)7-9-5-4-6-9/h1,8-9H,4-7H2,2H3	InChI=1S/C9H14/c1-3-8(2)7-9-5-4-6-9/h1,8-9H,4-7H2,2H3/t8-/m1/s1
