21
gdb 126535	3.05324	0.98684	0.79672	1.9298	85.33	-0.2266	0.0318	0.2583	1497.3856	0.183209	-383.310903	-383.301173	-383.300229	-383.346464	35.176	
C	 0.0254409663	 1.6146768449	-0.0013581612	-0.378654
C	 0.0254671204	 0.0843424177	-0.0049432826	-0.1524
C	-1.3943171757	-0.5149363407	-0.0240525781	-0.319474
C	-1.4202336851	-2.015017302	-0.0120244635	 0.153001
C	-1.5300023799	-2.8687326607	-1.0909870243	-0.121544
N	-1.485348691	-4.1299693111	-0.5983327042	-0.189185
N	-1.3574216299	-4.16552735	 0.7422435719	-0.287204
C	-1.3142465142	-2.8856297067	 1.1094502	 0.279583
C	-1.1814591668	-2.5183877157	 2.5544429604	-0.501637
H	 1.0442967671	 2.0141517939	 0.0137759935	 0.111417
H	-0.4752622103	 2.0137418094	-0.8908624719	 0.11219
H	-0.4997551583	 2.0092152607	 0.8758985895	 0.113443
H	 0.5791240062	-0.2885247417	-0.8753711692	 0.096564
H	 0.562478859	-0.2886302968	 0.8758628273	 0.101327
H	-1.9504090413	-0.1299588953	 0.8411052353	 0.099434
H	-1.9234444796	-0.1438743867	-0.9108534465	 0.09622
H	-1.6405469302	-2.6737996058	-2.1468386175	 0.12586
H	-1.5507888727	-4.9954034075	-1.1052004501	 0.270282
H	-0.2340597388	-2.007002906	 2.7600578476	 0.127062
H	-1.9858741185	-1.8456708634	 2.8733812631	 0.12454
H	-1.2224830264	-3.4194519364	 3.1699704204	 0.139174
41.4469	80.6472	104.4352	122.3061	234.9986	251.1	261.2617	311.0873	382.7126	414.0633	477.9408	650.622	674.8542	710.5516	739.0202	757.4447	797.4695	870.9148	898.3939	947.1672	1006.154	1041.9691	1064.7022	1066.8316	1092.0759	1111.3091	1168.7403	1225.2618	1258.9594	1300.5086	1321.0351	1333.1219	1380.2946	1400.0358	1410.9975	1412.5099	1476.1383	1479.5368	1483.047	1491.9284	1492.7079	1500.239	1509.7157	1512.7621	1608.6786	3011.684	3026.8267	3029.3461	3029.6908	3041.3478	3064.8461	3077.6097	3095.2703	3101.4924	3130.3861	3250.9869	3682.3745
CCCC1=CNN=C1C	CCCc1c[nH]nc1C	
InChI=1S/C7H12N2/c1-3-4-7-5-8-9-6(7)2/h5H,3-4H2,1-2H3,(H,8,9)	InChI=1S/C7H12N2/c1-3-4-7-5-8-9-6(7)2/h5H,3-4H2,1-2H3,(H,8,9)
