19
gdb 90822	3.57114	1.73639	1.54749	1.2031	77.28	-0.2039	0.0804	0.2843	922.883	0.162232	-381.99771	-381.991021	-381.990076	-382.028536	27.717	
C	-0.2353630858	 1.4659536573	-0.0163576221	-0.327703
N	 0.0748366706	 0.0515211943	-0.0216472502	-0.059319
C	 0.7733391409	-0.4447253036	-1.2257169529	-0.177956
C	 1.7340258895	-1.488461365	-0.662446284	 0.019712
C	 1.2437078293	-1.9049997884	 0.7432617281	-0.113858
C	 2.6868966478	-1.5970651168	 1.2514240028	-0.065544
C	 2.3389201032	-0.1585745901	 1.1851549028	-0.072649
C	 0.8196174782	-0.4581126771	 1.1103019597	 0.000256
N	 2.9457148486	-0.8485791869	-0.0116781701	-0.153805
H	 0.6573408845	 2.1150402678	-0.0895704095	 0.097977
H	-0.8907267081	 1.7064364657	-0.8601408181	 0.120626
H	-0.7699242919	 1.7247610958	 0.9039043266	 0.115876
H	 0.0600547319	-0.855052059	-1.9521486902	 0.098789
H	 1.353544187	 0.3441873758	-1.7313296169	 0.098457
H	 2.0543810449	-2.2712228641	-1.3500172987	 0.077386
H	 0.6029682955	-2.759067157	 0.9459115795	 0.074774
H	 3.4406758544	-2.1478482208	 1.7958051603	 0.09812
H	 2.8715149952	 0.7025803788	 1.5673239256	 0.093828
H	 0.2942892241	-0.3268651367	 2.0583393272	 0.075033
121.298	219.6711	279.2462	342.075	418.057	510.5512	603.2066	680.9685	742.4454	753.9124	807.8131	842.541	879.8274	888.5215	895.6942	927.6449	952.6255	960.1647	990.2265	1018.9318	1031.3988	1058.9271	1074.8136	1132.3103	1145.2908	1157.1847	1178.3847	1199.9512	1214.5006	1222.9606	1241.522	1252.5873	1272.4954	1315.5412	1329.5022	1340.2707	1382.7214	1460.3124	1486.2592	1505.8795	1515.2601	2931.5471	2973.236	3026.5238	3053.4721	3094.991	3098.2275	3114.5378	3151.1026	3195.4173	3219.1458
CN1CC2C3C4C(C13)N24	CN1C[C@@H]2[C@H]3[C@@H]4[C@H]([C@@H]13)N24	
InChI=1S/C7H10N2/c1-8-2-3-4-5(8)7-6(4)9(3)7/h3-7H,2H2,1H3	InChI=1S/C7H10N2/c1-8-2-3-4-5(8)7-6(4)9(3)7/h3-7H,2H2,1H3/t3-,4-,5+,6-,7+,9?/m1/s1
