16
gdb 10277	2.4398	1.86636	1.12834	3.0178	67.	-0.2518	-0.0327	0.2191	1034.5803	0.127205	-383.723284	-383.714219	-383.713274	-383.757452	32.217	
C	-0.5361355701	 1.323818325	 0.1171119024	-0.477171
C	 0.1482302923	-0.0207784812	 0.0574378648	 0.397579
O	 0.7772504203	-0.4632090764	 0.9943703466	-0.310799
C	 0.053596609	-0.8151112399	-1.2670307852	-0.292683
C	 0.5264950378	-2.2814771794	-1.0803651916	-0.067762
O	 1.8816667132	-2.3574947494	-0.7173345078	-0.420368
C	-1.2747111423	-0.7500745026	-1.8623617805	 0.304689
C	-2.3775785685	-0.7492575195	-2.3411871652	-0.452485
H	-0.2744630241	 1.9284617962	-0.7577255624	 0.145905
H	-1.6212004841	 1.1840677521	 0.0854274474	 0.164485
H	-0.2536354371	 1.8404955193	 1.0346857223	 0.144781
H	 0.7741455016	-0.3284579386	-1.9437500056	 0.140487
H	-0.1319483688	-2.7694929871	-0.3468829448	 0.104133
H	 0.4123310418	-2.807029075	-2.0321963109	 0.119311
H	 1.9371250004	-1.9413615995	 0.1532607596	 0.296472
H	-3.3472899114	-0.7397683238	-2.774537819	 0.203427
40.2057	121.5863	143.5478	151.6466	200.3101	252.1643	332.9044	406.3894	468.8901	514.973	524.9557	585.1946	622.7686	635.9136	657.9064	734.2198	937.9992	954.1711	1019.421	1049.0389	1080.3615	1096.3713	1190.247	1215.5418	1251.4248	1305.0799	1384.467	1391.2658	1444.539	1457.5088	1469.7166	1501.2124	1794.9637	2232.2495	2988.9143	3004.6527	3046.9464	3094.8052	3110.8268	3158.4193	3502.2888	3760.6697
CC(=O)C(CO)C#C	CC(=O)[C@@H](CO)C#C	
InChI=1S/C6H8O2/c1-3-6(4-7)5(2)8/h1,6-7H,4H2,2H3	InChI=1S/C6H8O2/c1-3-6(4-7)5(2)8/h1,6-7H,4H2,2H3/t6-/m1/s1
