14
gdb 132099	3.02785	1.42003	0.9725	2.978	70.2	-0.2283	-0.0611	0.1672	1116.8931	0.100787	-478.031605	-478.02389	-478.022946	-478.064121	28.429	
C	 0.0125332514	 1.5555489691	 0.0332143149	-0.477503
C	-0.0190324915	 0.0556364477	 0.0201087567	 0.138283
C	-1.1562466204	-0.6713118392	-0.1422359646	 0.335056
F	-2.3594394525	-0.1390639341	-0.3064134944	-0.0478
N	-1.1437521242	-2.0275303712	-0.1484027448	-0.409562
C	 0.0281618499	-2.7939171595	 0.0100683791	 0.388262
O	 0.0011563597	-4.0081093169	-0.0007640249	-0.376548
C	 1.195261598	-1.9250408519	 0.1774025473	-0.119533
N	 1.1602145153	-0.628748038	 0.1800814492	-0.263701
H	 0.6594219651	 1.9335100681	-0.7650674417	 0.143031
H	-0.9866791109	 1.9738120384	-0.102528253	 0.13191
H	 0.417925709	 1.9233007768	 0.9813620379	 0.143041
H	-2.0123779152	-2.532084632	-0.2721113546	 0.27767
H	 2.1508690463	-2.4258092171	 0.3073529829	 0.137393
99.0756	115.7015	209.9947	278.5262	304.2488	347.1235	460.7636	485.5588	507.7474	578.2054	635.2894	698.5782	715.9381	768.4488	787.8625	923.9992	949.2522	988.5884	1065.3553	1181.6402	1214.2511	1272.9816	1289.5985	1391.6371	1415.8786	1480.154	1486.6741	1492.0071	1569.3526	1686.5769	1794.5598	3041.357	3096.9686	3136.9806	3171.6004	3597.9237
CC1=C(F)NC(=O)C=N1	Cc1c(F)[nH]c(=O)cn1	
InChI=1S/C5H5FN2O/c1-3-5(6)8-4(9)2-7-3/h2H,1H3,(H,8,9)	InChI=1S/C5H5FN2O/c1-3-5(6)8-4(9)2-7-3/h2H,1H3,(H,8,9)
