22
gdb 115624	2.56559	1.17687	0.9844	1.796	83.2	-0.2331	0.076	0.3091	1336.3512	0.19278	-404.300922	-404.291264	-404.29032	-404.3355	35.811	
C	 0.3510463732	 1.5994473361	 0.232373675	-0.383145
C	 0.0813979251	 0.0932812187	 0.156390504	-0.191757
C	 0.4725163834	-0.4915764514	-1.1911447002	 0.079955
O	 1.8930284205	-0.3543076898	-1.4609339558	-0.301708
C	 2.0622078968	-1.7734572807	-1.6763555662	-0.1399
C	 0.5966734182	-2.0151116963	-1.3436639346	 0.273614
C	-0.0725643501	-3.0956115847	-0.5813124191	-0.316786
N	-0.2666853666	-2.9518280255	-2.0265474301	-0.124891
C	-1.5701604889	-2.4774644714	-2.4711487203	-0.318825
H	 1.4074895346	 1.8055065396	 0.0400711184	 0.139914
H	-0.2391321787	 2.1457162643	-0.5118350303	 0.112988
H	 0.0971940469	 1.9974287189	 1.2191968774	 0.110908
H	 0.6385555942	-0.4305036803	 0.9421331828	 0.09951
H	-0.9835846894	-0.1115471021	 0.3296726155	 0.093704
H	-0.1146395366	-0.0175697328	-1.993232715	 0.072541
H	 2.336382243	-2.0095617976	-2.7122161356	 0.107603
H	 2.8031896849	-2.2080848993	-0.9941580382	 0.103808
H	 0.481401142	-3.9746674991	-0.2605078691	 0.116751
H	-0.8945309612	-2.8105080824	 0.0756093579	 0.109113
H	-2.0430844095	-1.7588849505	-1.7812548584	 0.102125
H	-1.4686652561	-1.9969350547	-3.4494539456	 0.127411
H	-2.2415081161	-3.3343896889	-2.5814012723	 0.127066
77.5712	97.9245	143.0953	176.1028	217.181	227.9898	231.3091	295.3514	408.8609	425.6122	459.1156	496.5383	593.1944	749.6724	770.6502	853.977	899.6239	912.0418	934.9588	968.5321	1010.7233	1029.0794	1054.4716	1079.9153	1109.2408	1115.4545	1138.3633	1146.3224	1162.4708	1174.4216	1205.2347	1229.486	1272.0403	1290.6108	1319.0406	1346.9604	1397.4694	1408.682	1437.8511	1449.8613	1474.8272	1492.4821	1496.993	1497.9071	1509.7464	1517.5432	1520.5901	2965.2371	2981.8397	3013.1576	3021.1243	3036.8183	3058.0991	3063.4341	3069.4596	3083.1079	3103.5528	3106.2165	3121.9138	3169.5393
CCC1OCC11CN1C	CC[C@H]1OC[C@]21CN2C	
InChI=1S/C7H13NO/c1-3-6-7(5-9-6)4-8(7)2/h6H,3-5H2,1-2H3	InChI=1S/C7H13NO/c1-3-6-7(5-9-6)4-8(7)2/h6H,3-5H2,1-2H3/t6-,7+,8?/m1/s1
