18
gdb 88065	2.32262	1.38707	1.08894	3.9048	73.1	-0.2388	-0.0327	0.2061	1172.3518	0.145085	-439.030184	-439.02117	-439.020226	-439.064635	32.197	
C	-0.1229763324	 1.2929247591	-0.2137263588	-0.322107
N	 0.0702684946	-0.1324284172	 0.0185272443	-0.108216
C	 1.4344578666	-0.649635639	-0.0961254769	-0.310915
C	 0.7667487663	-0.5362185643	 1.2189686517	 0.266559
C	 1.130024123	 0.2897831434	 2.4529694354	-0.14805
O	 0.6109469167	-0.7498655617	 3.3129283122	-0.291889
C	 0.2721508463	-1.6091416282	 2.2029782741	-0.037722
C	-1.2139345287	-1.9012289868	 2.1265846815	 0.161275
O	-1.6755910161	-2.9014924253	 1.6460789839	-0.237798
H	 0.724096488	 1.915788284	 0.1178069856	 0.104058
H	-0.2689431383	 1.4585420879	-1.2848319041	 0.135292
H	-1.0242225033	 1.6286448969	 0.3085063713	 0.131261
H	 1.5389338115	-1.6146509272	-0.5851256781	 0.130849
H	 2.2352252359	 0.061241803	-0.3025981171	 0.112923
H	 2.1994833829	 0.4642320782	 2.6215174916	 0.113816
H	 0.5862707904	 1.23452336	 2.5765485655	 0.113597
H	 0.8371551395	-2.5484731939	 2.2061204131	 0.105037
H	-1.847998443	-1.0903069491	 2.5504204448	 0.08203
68.2185	70.7909	122.9701	200.8007	206.1266	225.9497	323.8549	408.4462	449.0726	460.2919	475.7881	583.5558	775.2893	851.4339	870.162	912.5881	983.8048	1007.5016	1033.6243	1046.4339	1071.9963	1108.0736	1118.5377	1137.9528	1155.134	1164.6146	1202.4363	1224.7287	1242.2811	1290.953	1332.7615	1402.4884	1429.1447	1448.8341	1489.9053	1496.5277	1511.6319	1518.1675	1836.3535	2884.7815	2968.2786	3017.0071	3049.2347	3060.7073	3074.6864	3082.2096	3112.7166	3176.1622
CN1CC11COC1C=O	CN1C[C@]21CO[C@H]2C=O	
InChI=1S/C6H9NO2/c1-7-3-6(7)4-9-5(6)2-8/h2,5H,3-4H2,1H3	InChI=1S/C6H9NO2/c1-7-3-6(7)4-9-5(6)2-8/h2,5H,3-4H2,1H3/t5-,6-,7?/m0/s1
