19
gdb 114465	3.34055	1.33748	1.22548	2.6274	74.29	-0.2455	0.0538	0.2994	1102.4825	0.158853	-422.952857	-422.945013	-422.944068	-422.985319	30.532	
C	 0.0919784618	 1.5907147527	 0.0186615242	-0.377603
C	-0.2149145989	 0.0907121302	-0.0505198127	-0.212352
C	 0.544486898	-0.5874391137	-1.1760889112	 0.16161
O	 2.0023333286	-0.5351153397	-1.0370583225	-0.309925
C	 2.1247185133	-1.9363289924	-1.3080114102	 0.096039
C	 2.1939596948	-2.8762094672	-0.0647307096	-0.009162
O	 1.3653319025	-2.3163951741	 0.949687236	-0.216721
C	 0.7221216538	-3.0401738958	-0.0983743065	 0.013977
C	 0.5937787076	-2.1291764306	-1.3487530732	-0.175733
H	 1.1608775589	 1.752708191	 0.1839339389	 0.137974
H	-0.1851307928	 2.1003067613	-0.9113087597	 0.107743
H	-0.4554845772	 2.0668488185	 0.8374271081	 0.10952
H	 0.0349917047	-0.3899703443	 0.8965372134	 0.131186
H	-1.2871202334	-0.0678229538	-0.2305731922	 0.089053
H	 0.2740807306	-0.1155300495	-2.1331108675	 0.072462
H	 2.7955109711	-2.1796252062	-2.1360034101	 0.081677
H	 2.988115287	-3.5410753247	 0.2567805558	 0.106122
H	 0.0935318491	-3.8742430238	 0.1923198533	 0.109283
H	 0.0845978305	-2.5762722079	-2.200862124	 0.08485
85.7567	154.011	169.3077	232.8725	282.1254	349.8541	442.6473	502.0876	639.0901	712.64	759.8439	777.5429	807.3104	831.3914	876.5595	879.3404	911.8024	946.0367	956.9962	989.1374	997.9315	1028.9928	1049.6477	1072.0779	1113.3471	1156.5465	1173.3376	1200.7256	1229.2718	1246.3579	1266.0333	1282.601	1291.8586	1325.4602	1351.4476	1377.638	1407.6419	1416.5212	1480.806	1498.5104	1508.7244	2979.6022	3022.901	3033.9364	3077.818	3095.0304	3117.1653	3128.566	3130.3572	3172.9269	3188.4666
CCC1OC2C3OC3C12	CC[C@H]1O[C@H]2[C@H]3O[C@H]3[C@@H]12	
InChI=1S/C7H10O2/c1-2-3-4-5(8-3)7-6(4)9-7/h3-7H,2H2,1H3	InChI=1S/C7H10O2/c1-2-3-4-5(8-3)7-6(4)9-7/h3-7H,2H2,1H3/t3-,4+,5-,6+,7-/m1/s1
