17
gdb 12949	2.60522	2.1893	1.71401	2.2018	69.55	-0.2264	-0.0175	0.2089	861.6041	0.140509	-363.838016	-363.829919	-363.828975	-363.870278	29.82	
C	-0.1099324867	 1.514274292	 0.0233177019	-0.326545
N	 0.1173098724	 0.0736780793	 0.0908233452	-0.114135
C	 1.3851525347	-0.5499880333	-0.1726780536	-0.090356
C	 2.5727638233	 0.3032300425	 0.3026100906	-0.378972
C	 1.9358490599	 0.2309774696	 1.716864426	 0.36514
O	 2.3279104977	 0.5305325437	 2.808718989	-0.306257
C	 0.7526208996	-0.5898970938	 1.2275445739	 0.200289
C	 0.0182734263	-1.6406567482	 2.0037402331	-0.495125
H	 0.7156229235	 2.1433327927	 0.3807099997	 0.119133
H	-0.3208620278	 1.7808908904	-1.0168562021	 0.129153
H	-0.9966982976	 1.7486545921	 0.6188226217	 0.134129
H	 1.4323182841	-1.3636637454	-0.8882330184	 0.107478
H	 3.5288883865	-0.2290875539	 0.3029157402	 0.132962
H	 2.7126981209	 1.2825034844	-0.1615738154	 0.12374
H	-0.6305936896	-1.1813970707	 2.7572175209	 0.135906
H	-0.6076189016	-2.2369548698	 1.3352537868	 0.133862
H	 0.7165144442	-2.3018402616	 2.5260434206	 0.129596
102.4222	146.775	154.4323	219.7398	237.5136	294.8769	377.567	472.4247	510.5677	591.566	671.0027	677.6056	729.6092	822.2993	900.7108	950.0088	965.8227	992.1952	1026.2145	1094.2436	1117.0266	1132.7748	1163.5956	1180.2155	1206.5311	1260.692	1271.5643	1394.4413	1424.8535	1448.3666	1465.5818	1480.1919	1491.1319	1495.3772	1500.7092	1875.6597	3014.4935	3039.3407	3062.0703	3084.4987	3102.0322	3112.5757	3113.7116	3126.1219	3175.3752
CN1C2CC(=O)C12C	CN1[C@H]2CC(=O)[C@@]12C	
InChI=1S/C6H9NO/c1-6-4(7(6)2)3-5(6)8/h4H,3H2,1-2H3	InChI=1S/C6H9NO/c1-6-4(7(6)2)3-5(6)8/h4H,3H2,1-2H3/t4-,6-,7?/m0/s1
