23
gdb 108822	3.03662	1.00184	0.83202	2.0287	88.48	-0.2401	0.0154	0.2555	1491.5294	0.205428	-388.315108	-388.305074	-388.30413	-388.350185	37.644	
C	 0.3969627602	 1.6174172786	-0.1233485841	-0.373464
C	-0.2639776202	 0.2758253789	 0.2418437658	-0.28863
C	 0.465192829	-0.4783203443	 1.315884335	 0.339281
C	 0.0234919757	-0.7356435551	 2.5521344251	-0.231082
C	 0.9731340287	-1.6024316453	 3.3388857469	 0.090532
O	 0.4649242793	-2.9325322905	 3.4925323712	-0.431027
C	 2.2940489504	-1.5017379091	 2.5152843952	 0.00009
C	 3.1775155263	-2.7448277049	 2.572855317	-0.391414
C	 1.8402584567	-1.0801955414	 1.0955961002	-0.326111
H	 1.4179334767	 1.4764554007	-0.4908994376	 0.120678
H	-0.1712156649	 2.1269243171	-0.9074666907	 0.115349
H	 0.4429041257	 2.2786752519	 0.7474677547	 0.122112
H	-1.2964252409	 0.455335484	 0.5617150147	 0.103166
H	-0.3195003071	-0.3462900662	-0.662736093	 0.102055
H	-0.9484362314	-0.4459928919	 2.9390246213	 0.086459
H	 1.1288490897	-1.2614200488	 4.3679587862	 0.07889
H	 0.0624837836	-3.1811953397	 2.653150532	 0.272164
H	 2.8489110549	-0.6551840987	 2.9386545689	 0.075638
H	 2.648249533	-3.6223779326	 2.1904745486	 0.111437
H	 4.0855784423	-2.6062918003	 1.9764842214	 0.104719
H	 3.4792714147	-2.9701682312	 3.6005234909	 0.116369
H	 1.7761845155	-1.937229852	 0.4079957586	 0.098435
H	 2.5434778923	-0.3789692393	 0.6321846916	 0.104355
59.7125	90.2482	121.3382	195.1819	215.3879	226.73	259.0068	306.6817	334.7583	390.2123	486.2594	497.1285	535.7833	586.6982	706.5511	786.9985	803.9314	862.8561	876.2046	913.9612	937.9431	964.1991	992.7846	1013.6574	1055.4686	1075.2487	1087.8208	1122.9658	1145.0773	1183.7635	1206.4049	1247.2098	1262.6258	1291.758	1307.0459	1333.4972	1353.9232	1361.7253	1369.4885	1407.2841	1410.1999	1429.4652	1480.6276	1486.6618	1491.827	1496.2496	1498.4187	1508.2824	1704.1838	2995.9024	3008.6329	3021.4369	3035.5269	3039.0473	3052.0906	3058.9475	3061.5526	3100.8336	3109.9629	3111.2066	3112.7808	3181.6876	3801.2043
CCC1=CC(O)C(C)C1	CCC1=C[C@@H](O)[C@@H](C)C1	
InChI=1S/C8H14O/c1-3-7-4-6(2)8(9)5-7/h5-6,8-9H,3-4H2,1-2H3	InChI=1S/C8H14O/c1-3-7-4-6(2)8(9)5-7/h5-6,8-9H,3-4H2,1-2H3/t6-,8+/m0/s1
