15
gdb 19926	4.48114	2.17869	1.7778	2.2988	66.49	-0.2358	-0.0054	0.2304	745.7434	0.121247	-362.584115	-362.578293	-362.577349	-362.613834	23.444	
C	-0.0696645405	 1.4125549252	 0.088393412	-0.140088
O	 1.3897414818	 1.4598116082	 0.0423927136	-0.301227
C	 1.4452431659	 0.2086634953	-0.7276852956	 0.13728
C	 2.1700824677	-1.052415728	-0.296887427	-0.105049
N	 2.0071194255	-1.4678804539	 1.1071875308	-0.31577
C	 1.0883789298	-2.0322098646	 0.0819558751	-0.073449
C	-0.2046387247	-1.266235973	 0.14185172	-0.171474
C	 0.0233831484	-0.0378398178	-0.3195093253	 0.143158
H	-0.4649161097	 1.6269198131	 1.0861243424	 0.124393
H	-0.5096355689	 2.1001373464	-0.6459682344	 0.104843
H	 1.6512375302	 0.4375505449	-1.7818968381	 0.076961
H	 3.0524166232	-1.3802919857	-0.8352155702	 0.087433
H	 2.7345443275	-2.1508309402	 1.3132989352	 0.232479
H	 1.1529798391	-3.0883392011	-0.1576172882	 0.094234
H	-1.0603056053	-1.6051101286	 0.7132492597	 0.106275
200.7571	203.8811	358.4128	447.9716	517.451	662.902	704.0919	760.7699	822.0509	837.9546	846.637	882.7609	908.5555	919.8042	955.5533	979.3371	1000.0696	1038.673	1082.1038	1100.1777	1137.5943	1139.6339	1168.1905	1214.0621	1241.0072	1281.2045	1325.5047	1350.3455	1369.8316	1402.1329	1510.9949	1718.0047	3008.7941	3015.4141	3082.5389	3165.0422	3175.0006	3205.8652	3480.2959
C1OC2C3NC3C=C12	C1O[C@H]2[C@H]3N[C@H]3[CH][C]12	
InChI=1S/C6H7NO/c1-3-2-8-6(3)5-4(1)7-5/h1,4-7H,2H2	InChI=1S/C6H7NO/c1-3-2-8-6(3)5-4(1)7-5/h1,4-7H,2H2/t4-,5-,6+/m0/s1
