19
gdb 76313	1.91703	1.72493	1.29035	1.9466	76.81	-0.2491	0.0333	0.2824	1087.6044	0.157209	-422.979135	-422.969699	-422.968755	-423.012741	36.092	
C	-0.04513406	 1.6016877608	-0.0968650178	-0.413091
C	 0.1011259367	 0.0923613447	-0.0101153192	-0.011483
C	 1.1261483459	-0.6492160114	-0.910726795	 0.065801
O	 2.3315964471	 0.0577487602	-1.1649545963	-0.445514
C	 1.3260619218	-1.6791335267	 0.2362406779	 0.150157
O	 2.5967076149	-2.2112830222	 0.3954441879	-0.427129
C	 0.7714808618	-0.5853767513	 1.2484855458	-0.296774
C	 1.8169033001	 0.2079621628	 1.8621672182	 0.331477
C	 2.7057015223	 0.8739195297	 2.3297327334	-0.4651
H	 0.9075358912	 2.1159993116	 0.0541303165	 0.120639
H	-0.4329319202	 1.8936984522	-1.078072021	 0.123077
H	-0.7401695277	 1.9688415661	 0.6649915633	 0.122721
H	-0.875203419	-0.3823600292	-0.1537580269	 0.088718
H	 0.7841577823	-1.0199601811	-1.8797408237	 0.084188
H	 2.5456701625	 0.5936240364	-0.3893704535	 0.290085
H	 0.6054351795	-2.5005520447	 0.1800802559	 0.091844
H	 3.2001990585	-1.584285576	-0.028495094	 0.286092
H	 0.0817352962	-0.9574275967	 2.0107858673	 0.101128
H	 3.478715396	 1.4476067448	 2.7787457811	 0.203163
106.2893	129.6787	169.9481	189.5164	220.5801	238.7926	332.5899	359.0203	366.8557	491.734	502.4345	522.3974	585.3018	618.1316	641.1593	657.7695	755.3233	757.0352	844.3202	869.188	923.9511	981.338	1005.029	1090.3045	1106.6514	1143.51	1148.4364	1175.1599	1221.1025	1245.2455	1253.6157	1301.694	1306.6081	1347.4606	1376.2061	1416.5741	1428.1765	1451.8375	1490.0609	1497.7113	2215.8384	3039.2778	3050.9584	3062.4391	3073.716	3089.0821	3105.2436	3115.6062	3499.3425	3733.6733	3752.6906
CC1C(O)C(O)C1C#C	C[C@H]1[C@@H](O)[C@@H](O)[C@H]1C#C	
InChI=1S/C7H10O2/c1-3-5-4(2)6(8)7(5)9/h1,4-9H,2H3	InChI=1S/C7H10O2/c1-3-5-4(2)6(8)7(5)9/h1,4-9H,2H3/t4-,5+,6-,7+/m1/s1
