20
gdb 97996	3.46862	0.53549	0.48001	2.9054	85.84	-0.2407	-0.0246	0.2161	2276.3466	0.168253	-403.1188	-403.107807	-403.106863	-403.157822	36.869	
C	 0.7644237501	 1.2636053732	 0.1569143067	-0.363984
C	 0.6876163415	-0.2594034382	-0.0571757088	-0.31324
C	 0.7154151681	-0.6376427897	-1.4668821892	 0.047574
C	 0.7398148326	-0.9123896304	-2.6406089679	 0.074667
C	 0.766601239	-1.3139275133	-4.0530632444	-0.317188
N	 1.0795239209	-2.7255236996	-4.3029292765	-0.285554
C	 2.398280158	-3.1378122094	-3.8421041697	-0.22098
C	 2.7446093334	-4.514682665	-4.3822149284	 0.149969
O	 3.4531733581	-5.3076727905	-3.8197183057	-0.23699
H	 1.6866744184	 1.6693306297	-0.2674588459	 0.12897
H	-0.0782946032	 1.766699723	-0.3248411648	 0.128688
H	 0.7424851099	 1.499299708	 1.2249421501	 0.116257
H	 1.5215040474	-0.7447764888	 0.4658579971	 0.131062
H	-0.2269342067	-0.6487506544	 0.408279263	 0.128952
H	-0.2047016277	-1.1012941331	-4.5155989153	 0.133058
H	 1.5028793184	-0.7083894439	-4.597480346	 0.133743
H	 0.3721440714	-3.2967156919	-3.8498751777	 0.226777
H	 3.1385172093	-2.4446838398	-4.2714871827	 0.131489
H	 2.5476684494	-3.1270181714	-2.7524025326	 0.122267
H	 2.2869003815	-4.7294944444	-5.3744456511	 0.084463
20.9536	42.2147	67.7263	87.0398	115.478	171.1385	189.9005	238.3014	277.1674	366.5785	392.4587	500.7516	516.3149	565.856	714.6351	746.7421	787.5587	828.9083	942.9546	958.5248	1003.3979	1073.138	1078.1123	1105.4722	1132.7218	1136.1668	1157.0934	1220.0253	1285.9853	1299.0232	1343.4579	1349.3476	1363.0801	1406.034	1409.4183	1464.4737	1473.2224	1477.3202	1494.3766	1504.3248	1505.8988	1838.879	2356.1702	2883.745	2990.5185	3020.5769	3021.4992	3028.2851	3045.3944	3047.7774	3055.8964	3119.1273	3124.5146	3509.0014
CCC#CCNCC=O	CCC#CCNCC=O	
InChI=1S/C7H11NO/c1-2-3-4-5-8-6-7-9/h7-8H,2,5-6H2,1H3	InChI=1S/C7H11NO/c1-2-3-4-5-8-6-7-9/h7-8H,2,5-6H2,1H3
