15
gdb 18816	4.17167	2.23837	1.82612	2.7463	63.37	-0.2424	-0.0239	0.2185	734.5042	0.121156	-362.645228	-362.639381	-362.638436	-362.675103	23.41	
O	 0.0062705279	 0.0195794031	 0.1489008097	-0.313784
C	-0.0180565472	 1.2143647948	 0.025287287	 0.429751
C	-1.2648193613	 2.114062672	-0.035633056	-0.365666
C	-0.6846579575	 3.4677570042	-0.3773323933	-0.025996
C	 0.4245654614	 4.0624590019	 0.4137138475	-0.031427
C	 1.2068144837	 3.0342043074	 1.2173908725	-0.259448
C	 1.1686726746	 2.1579726998	-0.0740973553	-0.11077
N	 0.7130177979	 3.3562247003	-0.8958130379	-0.150157
H	-1.9394564378	 1.7538420999	-0.8187535842	 0.141922
H	-1.8111516673	 2.0706268075	 0.9121749826	 0.138087
H	-1.2907890104	 4.1665077148	-0.9444972753	 0.104101
H	 0.5291883263	 5.1392230694	 0.5078830419	 0.098204
H	 2.2238405702	 3.3751071236	 1.4182675051	 0.129047
H	 0.7748816162	 2.634685791	 2.1404365288	 0.113575
H	 2.0929261133	 1.6947227902	-0.4104880431	 0.10256
121.0864	278.5292	393.027	444.4387	534.1303	615.8257	694.8571	739.4098	762.0708	779.8698	801.5718	885.5233	937.6991	972.6455	975.8906	986.0161	1029.1285	1064.4739	1073.1893	1132.3187	1163.4159	1184.6421	1188.8314	1227.5186	1261.5	1277.8431	1284.7457	1352.4998	1412.9124	1454.3016	1496.924	1856.5695	3050.8888	3055.4726	3095.3006	3118.7612	3151.9882	3154.442	3171.2499
O=C1CC2C3CC1N23	O=C1C[C@H]2[C@H]3C[C@@H]1N23	
InChI=1S/C6H7NO/c8-6-2-4-3-1-5(6)7(3)4/h3-5H,1-2H2	InChI=1S/C6H7NO/c8-6-2-4-3-1-5(6)7(3)4/h3-5H,1-2H2/t3-,4+,5+,7?/m1/s1
