20
gdb 22561	2.94187	0.99875	0.94077	1.3568	78.38	-0.2509	0.004	0.255	1371.9938	0.167448	-440.229587	-440.219191	-440.218247	-440.265653	37.257	
C	-0.9114778994	-1.5568684787	 0.1531023392	-0.399625
C	 0.3544714191	-0.7134554842	-0.0151440897	-0.260534
C	 0.9181191585	-0.6676085456	-1.4295283547	 0.335429
C	 0.731916225	-1.7535450659	-2.3971734452	-0.214628
O	-0.046058865	-0.5504090809	-2.491607257	-0.277889
C	 2.0930158737	 0.2549846609	-1.6015765757	 0.29677
C	 1.8605185101	 1.7386670288	-1.5172366847	-0.484411
N	 3.2229830598	-0.304887284	-1.8055485165	-0.176585
O	 4.2594481903	 0.6328442954	-1.922818005	-0.392624
H	-1.6662741259	-1.2679398553	-0.5826782735	 0.139903
H	-0.706957592	-2.6250019839	 0.0325019231	 0.118605
H	-1.3319814837	-1.4148589912	 1.1525324208	 0.114748
H	 0.1449703503	 0.3188797295	 0.2941450334	 0.108366
H	 1.1495624141	-1.0731252909	 0.6496044981	 0.115426
H	 1.4751850561	-1.8926029525	-3.1778693743	 0.124418
H	 0.1707169399	-2.6426313207	-2.1193312653	 0.111951
H	 2.1222642609	 2.1213347116	-0.5238266582	 0.141789
H	 2.4944933394	 2.2595919351	-2.2376242109	 0.152151
H	 0.8126235403	 1.9720671453	-1.7160194278	 0.139728
H	 5.0188798686	 0.0716636771	-2.1119253361	 0.307012
43.7116	71.819	91.8452	140.7742	193.1454	231.1985	266.95	304.7969	354.3833	368.2762	376.5541	442.2694	517.475	579.2712	597.8001	726.7549	778.6291	841.167	868.4301	936.042	963.2321	1011.4412	1032.7413	1046.7289	1078.4048	1118.9585	1137.9812	1145.5044	1169.3016	1275.3099	1303.7914	1371.8387	1386.6712	1398.5036	1404.1409	1428.8642	1476.9019	1480.3323	1491.714	1496.6022	1510.5881	1531.9841	1725.5136	3024.1675	3041.7011	3045.6671	3058.5739	3104.7044	3108.809	3111.8383	3127.4017	3144.9226	3194.8945	3819.9663
CCC1(CO1)C(C)=NO	CC[C@]1(CO1)C(=NO)C	
InChI=1S/C6H11NO2/c1-3-6(4-9-6)5(2)7-8/h8H,3-4H2,1-2H3	InChI=1S/C6H11NO2/c1-3-6(4-9-6)5(2)7-8/h8H,3-4H2,1-2H3/t6-/m0/s1
