13
gdb 132174	3.2196	1.30401	0.9281	5.1628	66.49	-0.2055	-0.0162	0.1893	1106.7651	0.089206	-502.022276	-502.014917	-502.013972	-502.054174	27.874	
F	 0.0884046768	 0.0451669074	 0.0018458672	-0.061769
C	-0.0361573009	 1.3657819465	 0.0109188269	 0.414963
C	-1.2209724104	 2.0021150824	 0.0304170424	-0.364496
C	-1.2876601326	 3.4577455718	 0.0394323776	 0.227931
N	-2.4097674533	 4.0893178057	 0.0581157165	-0.564073
C	 0.0377726013	 4.0833536662	 0.0251381736	 0.164031
F	 0.0710555826	 5.4198740109	 0.0321756127	-0.079581
C	 1.1925552855	 3.3938941826	 0.0057381733	-0.102708
N	 1.166419873	 2.01163285	-0.0016769103	-0.405371
H	-2.1411440551	 1.4348445853	 0.0396230758	 0.13193
H	-2.2361445734	 5.0957154348	 0.0614596865	 0.212326
H	 2.1622913952	 3.8710053481	-0.0046333033	 0.149556
H	 2.0138386211	 1.4702910582	-0.0160178387	 0.277261
121.882	190.9339	242.6203	315.6063	356.8072	406.3669	412.5565	436.3531	511.4224	601.1487	645.7041	721.6259	750.1771	776.3986	838.5358	857.2667	881.2408	986.6316	1104.9539	1179.5138	1229.5673	1283.2662	1295.4083	1364.4046	1420.1316	1549.329	1647.5219	1684.7847	1731.8005	3236.1234	3236.7968	3465.2112	3674.9438
FC1=CC(=N)C(F)=CN1	F[C@@H]1C=C([NH])C(=CN1)F	
InChI=1S/C5H4F2N2/c6-3-2-9-5(7)1-4(3)8/h1-2H,(H2,8,9)	InChI=1S/C5H5F2N2/c6-3-2-9-5(7)1-4(3)8/h1-2,5,8-9H/t5-/m0/s1
