18
gdb 14168	3.27104	2.21075	1.82754	1.6332	66.21	-0.2483	0.0818	0.3302	804.4369	0.154615	-384.922172	-384.915132	-384.914188	-384.952815	28.685	
C	-0.1799572728	 1.6635261762	-0.0100422937	-0.467546
C	-0.0006814611	 0.1606001018	-0.0153337357	 0.480162
O	-1.2524775769	-0.4038044438	-0.3336401132	-0.500092
C	 1.1703322878	-0.548592475	-0.7680937556	 0.008498
C	 2.4581427147	 0.095446102	-0.23350457	-0.226538
C	 2.0931130005	 0.0465306004	 1.2887684229	-0.226538
C	 0.712383936	-0.6099561735	 1.1416723092	 0.008498
O	 0.9859662449	-1.6743109921	 0.1623003176	-0.331319
H	 0.7414039181	 2.1969875902	 0.2281375702	 0.118431
H	-0.530714356	 1.9955549296	-0.9918667303	 0.130783
H	-0.9424212527	 1.9403957461	 0.7242896194	 0.130786
H	-1.1148738796	-1.3605473906	-0.331394757	 0.284846
H	 1.0988735145	-0.8275089525	-1.8200165168	 0.07948
H	 3.3316991041	-0.5134582038	-0.4742207114	 0.111875
H	 2.6251104988	 1.1057771948	-0.6150100973	 0.103659
H	 2.771565542	-0.5885244875	 1.8616704066	 0.111875
H	 2.0543933877	 1.0292959517	 1.7650735247	 0.103659
H	 0.1761573902	-0.9511510339	 2.0279505603	 0.07948
165.7029	240.8892	248.5586	303.5411	390.7371	412.6958	472.4139	547.6285	594.2592	644.7103	695.9365	816.3206	831.565	853.1123	909.7134	914.9292	935.5725	967.4601	973.8215	1006.9591	1025.701	1084.9532	1124.3015	1159.6677	1184.1253	1197.9887	1242.6277	1248.1168	1254.2215	1305.0997	1312.1956	1331.4027	1396.6369	1436.9955	1469.3774	1490.5319	1494.7347	1501.174	3048.8481	3067.4956	3074.3927	3109.9391	3112.86	3117.8206	3122.0714	3125.5076	3138.9592	3764.0144
CC1(O)C2CCC1O2	C[C@@]1(O)[C@H]2CC[C@@H]1O2	
InChI=1S/C6H10O2/c1-6(7)4-2-3-5(6)8-4/h4-5,7H,2-3H2,1H3	InChI=1S/C6H10O2/c1-6(7)4-2-3-5(6)8-4/h4-5,7H,2-3H2,1H3/t4-,5+,6-
