15
gdb 31383	2.97351	1.37256	0.95251	6.7438	69.35	-0.2565	-0.0527	0.2037	1164.0116	0.115909	-450.192382	-450.184655	-450.183711	-450.225151	28.203	
N	 0.113323277	 0.9143506245	 0.1151227492	-0.522708
H	-0.2032442853	 0.0094606385	-0.2099909028	 0.251821
H	 1.0756478989	 0.8038460751	 0.4161288911	 0.249558
H	 0.0098389904	 3.0222954398	-0.6120352529	 0.278837
C	-0.7263131104	 1.4002045408	 1.2078914839	-0.265224
C	-0.7554451025	 2.9139267397	 1.2577064844	 0.422379
N	-0.3323288077	 3.5731557931	 0.170297637	-0.341919
C	-0.3329963897	 4.9923832809	 0.0755597883	 0.437288
O	 0.0653336997	 5.529069578	-0.9289720302	-0.368401
N	-0.8160069449	 5.6317475313	 1.2076423862	-0.304825
C	-1.2023918365	 4.8936071048	 2.20779853	 0.070309
N	-1.201727028	 3.5295483455	 2.3215991652	-0.330878
H	-1.7577022	 1.0702144947	 1.0374007441	 0.154429
H	-0.4517787503	 1.0461266439	 2.2096211167	 0.141285
H	-1.5777963108	 5.4190221894	 3.0852694698	 0.128049
82.313	132.281	174.2132	209.9332	257.0723	424.5686	439.1587	521.6602	572.0783	600.3906	649.5793	797.9192	819.0132	838.5495	857.8775	911.142	958.4277	1025.768	1030.8564	1074.1914	1106.031	1174.8402	1216.2893	1274.3761	1328.0179	1391.6251	1419.5242	1468.9727	1487.1825	1572.4997	1652.7791	1667.3198	1833.1963	3028.78	3072.6818	3145.0721	3523.9148	3530.9157	3607.2941
[NH3+]CC1=NC(=O)N=C[N-]1	NCc1[nH]c(=O)ncn1	
InChI=1S/C4H6N4O/c5-1-3-6-2-7-4(9)8-3/h2H,1,5H2,(H,6,7,8,9)	InChI=1S/C4H6N4O/c5-1-3-6-2-7-4(9)8-3/h2H,1,5H2,(H,6,7,8,9)
