14
gdb 24064	7.56408	0.82062	0.74372	0.1936	70.24	-0.2279	0.0165	0.2443	1428.8568	0.100364	-436.667923	-436.659961	-436.659017	-436.701512	28.455	
C	 0.0990933319	-1.1602390648	-0.0063809289	-0.402269
C	 0.075215517	 0.0396644359	 0.0016519348	 0.296466
C	-0.0009603418	 1.4892311283	 0.0119257984	-0.23699
O	 1.3391889468	 2.024005766	-0.0004814159	-0.251416
C	 1.3873780052	 3.3478619524	 0.007261478	 0.515719
N	 0.4173571023	 4.2057185677	 0.0241441368	-0.378278
C	 1.08287453	 5.4344768479	 0.0239691477	-0.114073
C	 2.414878576	 5.227593372	 0.0069118471	-0.043382
O	 2.6283019203	 3.8614359717	-0.0042093473	-0.18701
H	 0.1245106395	-2.2221187185	-0.0135400961	 0.208191
H	-0.5446079014	 1.8679598465	-0.8610559588	 0.158537
H	-0.5237277051	 1.8565504549	 0.9023637633	 0.15853
H	 0.5425544251	 6.3674233884	 0.0362225903	 0.127538
H	 3.2941816543	 5.8462537416	 0.0003964006	 0.148435
40.1468	110.0254	113.944	233.8686	309.1657	334.2353	426.9384	533.6474	617.2331	619.4599	693.1959	711.252	761.4316	787.5154	859.2497	926.645	974.4546	982.2279	1014.5083	1057.4925	1091.905	1141.1881	1186.3014	1252.0604	1285.382	1378.7339	1447.2509	1490.594	1583.4179	1640.0843	2253.7631	3039.3742	3074.4097	3267.2348	3311.163	3505.0619
C#CCOC1=NC=CO1	C#CCOc1ncco1	
InChI=1S/C6H5NO2/c1-2-4-8-6-7-3-5-9-6/h1,3,5H,4H2	InChI=1S/C6H5NO2/c1-2-4-8-6-7-3-5-9-6/h1,3,5H,4H2
