19
gdb 99483	2.58484	1.06882	0.83197	4.14	77.48	-0.287	0.004	0.291	1437.9511	0.157572	-419.229427	-419.219108	-419.218164	-419.265774	35.798	
C	 0.0274947555	 1.611547909	 0.0053332844	-0.404064
C	 0.0368937249	 0.0836239918	 0.0732486102	-0.172313
C	 0.5911835696	-0.5714788662	-1.2084218478	-0.203258
C	 1.985321864	-0.1780556405	-1.4539748662	 0.286925
N	 3.0798617051	 0.152009816	-1.6223384015	-0.333865
C	 0.4874711765	-2.0957877192	-1.2038927958	 0.411042
N	 0.1001860406	-2.7275486196	-0.1803437143	-0.523721
O	 0.8519682018	-2.568099278	-2.4194420943	-0.222475
C	 0.8740148083	-3.9786868056	-2.6009492669	-0.268389
H	 1.0364205641	 2.0141586442	-0.1266065818	 0.143035
H	-0.5888397346	 1.9719536283	-0.8260457635	 0.115463
H	-0.3827031035	 2.0303343911	 0.9284695932	 0.122162
H	 0.6258889484	-0.2645727663	 0.9256833668	 0.132766
H	-0.9742320932	-0.3043436332	 0.2219890102	 0.121378
H	 0.0126112472	-0.2217223295	-2.0745443118	 0.142734
H	 0.0665491927	-3.7359763419	-0.3188640791	 0.226283
H	-0.1263692915	-4.4110405933	-2.4798411839	 0.133675
H	 1.2194827037	-4.1449414138	-3.6212118345	 0.152082
H	 1.5660604403	-4.4562604732	-1.8980367634	 0.140541
33.5755	81.1882	104.1996	159.4145	160.8411	208.2099	213.2289	267.0034	319.7278	346.8471	409.299	460.373	568.2952	606.7332	730.1676	766.4537	857.5623	874.8719	915.5821	960.2695	1017.5658	1054.7434	1112.536	1127.6518	1142.3595	1174.738	1219.0456	1248.4676	1272.2735	1334.7059	1341.9176	1368.2758	1415.5666	1472.3309	1482.5015	1492.4838	1498.9019	1503.1286	1507.3327	1743.9422	2358.3655	3020.5285	3024.7133	3035.5553	3071.2088	3087.4175	3094.9553	3114.7241	3122.5579	3153.076	3508.6516
CCC(C#N)C(=N)OC	CC[C@@H](C#N)[C]([NH])OC	
InChI=1S/C6H10N2O/c1-3-5(4-7)6(8)9-2/h5,8H,3H2,1-2H3	InChI=1S/C6H10N2O/c1-3-5(4-7)6(8)9-2/h5,8H,3H2,1-2H3/t5-/m0/s1
