17
gdb 34748	2.97322	1.70096	1.51776	3.7902	74.43	-0.2434	0.0086	0.252	922.6051	0.139123	-380.840835	-380.834066	-380.833122	-380.871914	27.193	
N	-0.1854712427	-1.2056311795	-0.2046830223	-0.337484
C	-0.0966967894	-0.0595235884	-0.079090467	 0.284742
C	-0.0060609774	 1.3930234435	 0.0684090261	-0.112052
C	-0.2585228465	 2.0398331234	 1.4259523157	-0.102022
C	 0.9776823039	 1.9034992965	 2.3118325185	-0.039299
C	 1.9918603113	 0.8011626353	 2.0189425447	-0.262715
C	 2.4033179647	 1.1327305897	 0.5531893532	-0.172494
N	 1.3678433634	 2.0448310069	 0.0140721768	-0.139508
C	 0.9670248031	 2.8889515649	 1.1848525491	-0.041959
H	-0.627319378	 1.8453937551	-0.7111721476	 0.135451
H	-1.2281513841	 2.3198483666	 1.8181212158	 0.105239
H	 0.8416509141	 2.2664847003	 3.3242888121	 0.098737
H	 2.8420100319	 0.8605347862	 2.7049570967	 0.105456
H	 1.5633757686	-0.2000640234	 2.1120634577	 0.130903
H	 3.3522894881	 1.6768599403	 0.5297926326	 0.112331
H	 2.4998274194	 0.2517951484	-0.0850132218	 0.130963
H	 1.1363028396	 3.9567439543	 1.2086876296	 0.103712
132.2495	157.2211	253.6318	375.8897	395.329	534.2015	562.849	652.2334	694.4508	765.9291	798.1724	816.1419	823.5412	867.8165	910.6763	923.8876	963.6122	982.5853	1004.7445	1047.6978	1053.5041	1072.9901	1085.5414	1102.0908	1134.2312	1217.3663	1221.0735	1239.2702	1264.2191	1296.3974	1298.61	1345.1197	1351.0143	1398.129	1488.9827	1506.5468	2347.3085	3056.1767	3057.3276	3063.6505	3099.6973	3122.3287	3181.7703	3190.6827	3211.21
N#CC1C2C3CCN1C23	N#C[C@H]1[C@H]2[C@H]3CCN1[C@@H]23	
InChI=1S/C7H8N2/c8-3-5-6-4-1-2-9(5)7(4)6/h4-7H,1-2H2	InChI=1S/C7H8N2/c8-3-5-6-4-1-2-9(5)7(4)6/h4-7H,1-2H2/t4-,5+,6-,7-/m1/s1
