20
gdb 127129	2.47582	1.51095	1.00879	1.5589	83.02	-0.1891	0.0363	0.2253	1219.1365	0.171652	-399.343989	-399.334535	-399.33359	-399.378043	34.875	
C	 0.7105216537	 0.0921437494	-0.8700093095	-0.337666
N	-0.13774749	 0.1172600958	 0.3153508724	-0.146244
C	-0.1328774325	 1.4137997678	 0.9777736715	-0.309885
C	-1.3980032648	-0.4765096347	 0.1821381536	 0.331095
N	-2.5110290516	 0.1984468718	 0.4718439929	-0.313781
N	-3.5035679014	-0.7045176283	 0.3061526389	-0.208875
C	-3.0496381234	-1.9170681487	-0.0855033222	-0.100079
C	-1.6771297948	-1.8305152413	-0.1802524854	 0.134846
C	-0.719082597	-2.9334761898	-0.5080508305	-0.51886
H	 1.7331888056	 0.3618620033	-0.5869878618	 0.117281
H	 0.7344482452	-0.9070286421	-1.3062816456	 0.127202
H	 0.3734631544	 0.7987340282	-1.6484120047	 0.10402
H	-0.5830250434	 2.2110790499	 0.3645965881	 0.108322
H	-0.6975396376	 1.3527103846	 1.9094118673	 0.134406
H	 0.9026546008	 1.6895908432	 1.201458176	 0.106035
H	-4.4494858553	-0.4282808525	 0.4996650361	 0.268927
H	-3.7167862177	-2.7498203908	-0.2490044422	 0.126855
H	-0.3468330236	-2.8847565503	-1.5393790365	 0.125323
H	 0.1545277621	-2.9012745245	 0.1520209174	 0.133905
H	-1.1938491787	-3.9114587611	-0.3850084357	 0.117171
61.5702	155.7877	181.8543	200.5603	215.5053	245.2356	261.438	300.4542	378.1271	389.3442	428.2698	520.695	605.3764	652.0396	702.1957	752.9275	786.8336	938.8816	968.7864	1008.5773	1066.2307	1074.4762	1086.452	1122.9619	1147.7059	1180.8286	1209.911	1244.6487	1312.7633	1330.7512	1393.7418	1419.6821	1443.8672	1457.168	1475.7739	1484.2153	1488.5858	1491.4382	1498.6091	1504.8963	1507.8207	1553.676	1619.3902	2954.8096	2977.8779	3016.9604	3068.1865	3069.6428	3070.6963	3102.8352	3134.1272	3140.6678	3249.6343	3691.0213
CN(C)C1=NNC=C1C	CN(C)c1n[nH]cc1C	
InChI=1S/C6H11N3/c1-5-4-7-8-6(5)9(2)3/h4H,1-3H3,(H,7,8)	InChI=1S/C6H11N3/c1-5-4-7-8-6(5)9(2)3/h4H,1-3H3,(H,7,8)
