17
gdb 23493	3.31982	1.46166	1.24853	1.5087	75.31	-0.2261	0.0073	0.2334	1023.8625	0.137867	-417.933523	-417.926314	-417.92537	-417.96516	28.523	
O	-0.1355930358	 1.325478815	-0.0217800537	-0.399815
N	 0.0454082374	-0.0755770324	-0.0109353529	-0.289506
C	-1.0705250636	-0.6630659482	 0.1127989462	 0.481518
C	-1.4235201833	-2.0935583829	 0.0523666268	-0.159381
C	-2.5780945279	-2.3743548806	 0.9669476335	-0.014145
C	-2.8561126735	-1.4586850161	 2.1551019836	-0.256325
C	-3.1276661078	-0.0887137334	 1.4813694542	-0.212927
C	-2.538011501	-0.2802459286	 0.0854128637	-0.100659
N	-2.8684180742	-1.7275509985	-0.321361474	-0.145434
H	 0.7631285306	 1.6425831928	-0.1596395113	 0.307251
H	-0.8671730778	-2.8783551732	-0.4479169974	 0.111192
H	-2.8840527894	-3.4154011191	 1.0159728408	 0.101568
H	-3.7210544593	-1.8134056257	 2.721377177	 0.111885
H	-2.0060849433	-1.4210248133	 2.8422051581	 0.120437
H	-4.2026296844	 0.1022168662	 1.4037987015	 0.113838
H	-2.6680872375	 0.7508356393	 2.0076635066	 0.125207
H	-2.8234754092	 0.4567656288	-0.6641055528	 0.105296
106.7218	168.1854	235.0181	276.3984	379.1857	455.5133	485.3651	579.5883	674.2276	708.9741	714.9026	779.6344	790.0032	846.2215	856.0343	914.0529	940.839	969.5564	983.8915	1031.597	1042.9376	1067.6545	1081.5562	1147.0642	1166.7169	1207.6768	1215.0535	1249.6783	1263.3086	1313.7945	1321.2841	1333.4817	1386.0684	1420.6202	1480.7828	1502.0936	1791.4906	3055.4822	3062.9099	3099.3194	3118.3205	3131.9616	3157.796	3181.4528	3822.1459
ON=C1C2C3CCC1N23	ON=C1[C@H]2[C@H]3CC[C@@H]1N23	
InChI=1S/C6H8N2O/c9-7-5-3-1-2-4-6(5)8(3)4/h3-4,6,9H,1-2H2	InChI=1S/C6H8N2O/c9-7-5-3-1-2-4-6(5)8(3)4/h3-4,6,9H,1-2H2/t3-,4+,6+,8?/m0/s1
