14
gdb 55625	2.36937	1.09049	0.86919	5.3148	69.5	-0.2732	-0.0036	0.2697	1317.0712	0.099365	-432.870815	-432.861356	-432.860412	-432.906045	33.391	
N	-0.0014778847	 1.3429648903	-0.0995061823	-0.568068
C	 0.0423485936	-0.0167746708	 0.1193012488	 0.488689
O	 1.036724228	-0.6058356484	 0.4962380138	-0.381507
N	-1.1567445182	-0.666749573	-0.1438595929	-0.335661
C	-1.177992759	-2.1187430647	-0.1298280289	-0.29225
C	-2.3216614832	-2.6551021159	 0.6129996966	 0.318283
C	-3.2592838736	-3.0928634225	 1.220113993	-0.399936
C	-1.1460935392	-2.6780782419	-1.5014175991	 0.288277
N	-1.1277902318	-3.0873395065	-2.5811822177	-0.319235
H	 0.7909042683	 1.8362922951	 0.2813441221	 0.271687
H	-0.8836422612	 1.8237670488	-0.0167034213	 0.257183
H	-1.862889028	-0.2044250028	-0.6952810419	 0.259005
H	-0.2382622449	-2.4029286528	 0.3636712962	 0.200146
H	-4.085055336	-3.4856591149	 1.7612216434	 0.21339
39.8008	74.0237	123.86	143.2846	252.2952	276.8615	342.8982	366.9683	413.9176	444.5876	507.4017	534.6656	582.4756	613.4927	642.0466	653.9444	679.6687	769.5425	912.4702	989.4951	1022.0724	1107.1218	1148.7381	1276.5797	1318.8301	1358.4528	1519.5505	1629.7466	1805.1635	2251.3273	2362.1858	3034.3493	3500.0124	3585.8095	3629.7446	3702.7748
NC(=O)NC(C#C)C#N	NC(=O)N[C@@H](C#C)C#N	
InChI=1S/C5H5N3O/c1-2-4(3-6)8-5(7)9/h1,4H,(H3,7,8,9)	InChI=1S/C5H5N3O/c1-2-4(3-6)8-5(7)9/h1,4H,(H3,7,8,9)/t4-/m0/s1
