21
gdb 57813	5.56612	0.45849	0.44332	2.7861	90.65	-0.2445	-0.0257	0.2189	2476.585	0.178912	-387.084249	-387.072997	-387.072053	-387.123794	38.266	
C	-0.3683327195	 1.3341027479	 0.1249496364	-0.373473
C	 0.1413889164	-0.0976867271	-0.1338645065	-0.122923
C	 0.9761326472	-0.1703372902	-1.4279405309	-0.373405
C	 0.8993642008	-0.6022367827	 1.0123934868	 0.164123
C	 1.5422031354	-0.9958623731	 1.9524617423	-0.023441
C	 2.2895997921	-1.5019563563	 3.0971548472	-0.363488
C	 1.621945195	-2.7384084265	 3.745051857	-0.259036
C	 2.4701556428	-3.3168570078	 4.8547343622	 0.156213
O	 2.0809923073	-3.5630029132	 5.9663680453	-0.232904
H	 0.4713784176	 2.0239285342	 0.2545100341	 0.123446
H	-0.9705110485	 1.6812499564	-0.7208053175	 0.112138
H	-0.9830957981	 1.3759135006	 1.0278290265	 0.123375
H	-0.736589112	-0.7457513004	-0.2661137745	 0.103929
H	 1.8610544241	 0.4691176388	-1.3515627377	 0.123363
H	 1.3126060308	-1.1920132985	-1.6227572055	 0.121816
H	 0.3813058892	 0.1674259988	-2.2826729008	 0.112321
H	 3.3109671547	-1.7636831517	 2.7885246948	 0.131356
H	 2.3947624973	-0.7123046637	 3.8522758102	 0.140317
H	 0.6314100474	-2.4972377205	 4.1373277865	 0.133383
H	 1.5045266205	-3.5139409553	 2.9760478039	 0.132552
H	 3.5301968395	-3.5137996798	 4.5635049401	 0.070338
9.424	52.8427	60.1558	85.3205	125.1197	174.2983	229.5686	263.4825	273.7508	304.1506	357.188	440.3184	514.8474	537.3147	540.932	709.3315	755.8528	846.4395	884.471	930.9145	964.0331	986.2436	1068.4913	1076.9893	1093.4259	1121.225	1153.0924	1199.3329	1210.3754	1263.2459	1304.4648	1325.6452	1349.4171	1364.8832	1395.38	1417.3625	1431.0344	1461.8218	1482.176	1485.3613	1489.269	1498.619	1509.8263	1838.8282	2364.3158	2843.0569	3003.0947	3012.1946	3028.6624	3035.8232	3039.2963	3045.6345	3106.7489	3112.0005	3117.6892	3118.2468	3120.2457
CC(C)C#CCCC=O	CC(C)C#CCCC=O	
InChI=1S/C8H12O/c1-8(2)6-4-3-5-7-9/h7-8H,3,5H2,1-2H3	InChI=1S/C8H12O/c1-8(2)6-4-3-5-7-9/h7-8H,3,5H2,1-2H3
