20
gdb 68614	2.33276	1.63929	1.33708	4.0674	82.61	-0.2964	0.0261	0.3225	1062.1206	0.173082	-366.033996	-366.026004	-366.02506	-366.066138	31.826	
C	-0.0316816813	 1.5150463408	 0.0383458931	-0.501448
C	-0.0018240261	 0.0061955299	 0.0017477073	 0.331975
C	 0.3455423206	-0.8052123064	-1.2851898846	-0.268393
C	-0.3825102074	-1.957759689	-0.5408482166	-0.033091
C	 0.5558399586	-2.2146448218	 0.6528853836	-0.224959
C	 0.8427041626	-0.7339870372	 1.0631813718	-0.252528
C	-1.333268077	-0.8410183116	 0.006617688	-0.180728
C	-2.0575162204	-1.0407142023	 1.2497091803	 0.27131
N	-2.6173512049	-1.1965423978	 2.2501574718	-0.345378
H	 0.9776858808	 1.9252967888	-0.0788009911	 0.122855
H	-0.6546180999	 1.9252833933	-0.7631918457	 0.116428
H	-0.427743598	 1.8771617203	 0.9935188329	 0.132337
H	-0.1977828252	-0.451564952	-2.1651833146	 0.099747
H	 1.4030728099	-0.9455768632	-1.5243477737	 0.097087
H	-0.7914946115	-2.8204645542	-1.0651592434	 0.076672
H	 0.072251678	-2.7851578722	 1.4494665213	 0.12236
H	 1.4566161787	-2.7535554937	 0.3478506514	 0.101641
H	 1.9001883591	-0.4662982696	 0.9829182408	 0.099209
H	 0.5134472091	-0.5073563904	 2.0808071854	 0.120029
H	-2.0215657257	-0.4886534416	-0.7659611578	 0.114874
126.8745	144.8768	221.0873	256.4189	292.7758	346.6999	403.1669	463.4769	523.9968	562.5532	586.9826	738.8173	803.6431	817.5327	845.1493	866.3247	892.7642	922.281	951.411	968.1565	989.2418	1016.0861	1062.028	1080.209	1109.2059	1135.714	1157.9529	1186.2582	1225.0967	1247.3526	1254.1458	1259.6965	1278.1382	1322.1859	1346.8127	1369.7247	1417.3553	1488.7807	1493.4293	1494.3305	1498.2775	1520.6533	2345.7119	3027.7458	3055.3835	3057.7183	3067.0907	3082.9571	3093.713	3097.4744	3098.8806	3114.5679	3117.7788	3127.3202
CC12CC(CC1)C2C#N	C[C@@]12C[C@@H](CC1)[C@H]2C#N	
InChI=1S/C8H11N/c1-8-3-2-6(4-8)7(8)5-9/h6-7H,2-4H2,1H3	InChI=1S/C8H11N/c1-8-3-2-6(4-8)7(8)5-9/h6-7H,2-4H2,1H3/t6-,7-,8+/m1/s1
