17
gdb 15571	3.34432	1.79934	1.23011	5.2737	75.4	-0.2076	-0.0282	0.1794	967.9893	0.143227	-363.893788	-363.885997	-363.885053	-363.92595	28.756	
C	-0.1947623178	 1.5498938128	-0.0277455223	-0.403356
C	 0.0450221521	 0.0374878476	-0.0109529058	-0.085486
C	 0.9211087414	-0.4661992335	-1.1967359358	-0.180165
N	 1.7682648443	-1.511122036	-0.593124013	-0.284943
C	 1.7689772466	-1.3482586673	 0.7622814362	-0.079672
C	 0.8147325233	-0.4876752788	 1.1964528353	 0.176656
C	 0.5193321181	-0.2295744432	 2.5803498404	 0.056938
O	-0.3746951765	 0.4897772044	 2.9952253233	-0.315217
H	 0.7553281917	 2.0949058532	-0.0030809768	 0.10743
H	-0.7357540043	 1.8503658832	-0.9319025566	 0.104895
H	-0.7776126082	 1.8430261479	 0.8469461105	 0.156436
H	-0.9325041462	-0.463053594	-0.0463096098	 0.094111
H	 0.3348077222	-0.8709686071	-2.0256994654	 0.11729
H	 1.543822371	 0.3522976998	-1.5860479426	 0.106515
H	 2.6039882522	-1.8149335111	-1.0678609743	 0.250533
H	 2.4613087603	-1.9186323033	 1.3711328207	 0.132442
H	 1.1971192997	-0.7556573047	 3.2939053661	 0.04559
83.5832	155.6159	185.5625	236.7106	284.8736	353.4272	402.6888	454.8223	491.5559	578.2896	684.2859	740.8042	827.8503	911.2776	921.4671	948.4579	987.5775	1024.7669	1066.8422	1114.351	1135.3918	1164.2795	1221.0914	1281.4444	1304.0045	1324.3	1356.3496	1363.7876	1404.2131	1431.1152	1473.8534	1490.6805	1508.2018	1520.3503	1654.7398	1751.1794	2841.4274	2996.4583	3005.0106	3031.7569	3086.1429	3094.4281	3142.7075	3206.3425	3625.3273
CC1CNC=C1C=O	C[C@H]1CNC=C1C=O	
InChI=1S/C6H9NO/c1-5-2-7-3-6(5)4-8/h3-5,7H,2H2,1H3	InChI=1S/C6H9NO/c1-5-2-7-3-6(5)4-8/h3-5,7H,2H2,1H3/t5-/m0/s1
