17
gdb 44456	4.23467	1.4071	1.27399	1.6323	73.92	-0.2488	0.0116	0.2603	999.0698	0.138443	-417.9144	-417.907867	-417.906922	-417.945229	27.242	
N	 0.0124114077	 1.2405138438	 0.4060576874	-0.519821
C	-0.0097578913	 0.0367953118	 0.0445286529	 0.38322
C	-1.2907484937	-0.8451398737	 0.0002588738	-0.386292
C	-0.6580069958	-2.2340820879	-0.0306634063	 0.027667
N	-0.5822596877	-3.3701288632	-1.1291181817	-0.172467
C	-0.1020463726	-2.2671015868	-2.0800120358	-0.230856
C	 0.6191809334	-1.9426099979	-0.7556543901	 0.358119
C	 0.9099579687	-3.4585706413	-0.6869790203	-0.239412
O	 1.1181403175	-0.6760812286	-0.374797741	-0.295392
H	 0.9545324921	 1.6282411661	 0.3373297776	 0.230548
H	-1.9056698244	-0.6472492312	 0.877993436	 0.142808
H	-1.8777919442	-0.572712829	-0.8797505865	 0.147941
H	-0.582565755	-2.6760785385	 0.9647423122	 0.092698
H	 0.4957332589	-2.6446835674	-2.9115337287	 0.10948
H	-0.8955807212	-1.6089988123	-2.4328802915	 0.11455
H	 1.0511947699	-3.9107564054	 0.2960555514	 0.120382
H	 1.5456724478	-3.9101773086	-1.4507190193	 0.116828
99.9042	315.8375	329.2421	413.9757	479.8302	502.0361	535.2404	597.5632	666.674	701.2265	738.9074	788.5655	814.7027	878.7222	897.3678	908.2459	951.0027	986.0185	1001.0665	1025.4672	1051.7289	1086.5374	1097.3681	1149.5011	1159.2573	1178.7913	1185.321	1194.751	1230.4755	1248.1787	1268.847	1311.1661	1401.4399	1468.5087	1512.4067	1554.3297	1784.6448	3072.6827	3078.5448	3088.6827	3090.579	3141.1075	3150.3114	3152.7846	3480.0566
N=C1CC2N3CC2(C3)O1	[NH][C]1C[C@H]2N3C[C@@]2(C3)O1	
InChI=1S/C6H8N2O/c7-5-1-4-6(9-5)2-8(4)3-6/h4,7H,1-3H2	InChI=1S/C6H8N2O/c7-5-1-4-6(9-5)2-8(4)3-6/h4,7H,1-3H2/t4-/m1/s1
