21
gdb 99905	2.26843	1.30738	1.04852	3.2146	82.96	-0.2435	0.0379	0.2814	1264.4059	0.181476	-383.258721	-383.248525	-383.247581	-383.294321	37.405	
C	-0.1192956143	 1.377471412	 0.106395504	-0.33878
N	-0.0713402261	-0.0547797936	-0.1876681703	-0.287685
C	 0.7543504259	-0.4750806925	-1.3275743358	 0.083871
C	 0.1589608493	 0.0853312029	-2.6314988207	-0.423218
C	 2.151887143	 0.0367104675	-1.1934080969	 0.268212
N	 3.219794643	 0.4521106788	-1.0344087754	-0.354774
C	 0.8366454748	-2.005142112	-1.2872026206	 0.016281
C	-0.1996099804	-2.9000893189	-1.9112450127	-0.281561
C	 1.1995457286	-2.8570215218	-2.4740099679	-0.27567
H	 0.8702347112	 1.8527541245	 0.1950311442	 0.126518
H	-0.6858325161	 1.9057795177	-0.6657103575	 0.128459
H	-0.6525858489	 1.5144547377	 1.0505996521	 0.125906
H	 0.2437125773	-0.5532471321	 0.6377916395	 0.225121
H	 0.2234454685	 1.1748749324	-2.647262226	 0.138374
H	 0.6995036591	-0.2847362935	-3.5047011126	 0.135411
H	-0.8930731167	-0.1989220635	-2.6999026869	 0.135984
H	 1.2429254459	-2.3518538934	-0.3397287221	 0.095196
H	-0.5121838869	-3.7745149551	-1.3517891538	 0.11831
H	-0.9904298633	-2.445302147	-2.495320882	 0.12113
H	 1.3411803027	-2.3786390271	-3.4362061334	 0.121841
H	 1.8600433736	-3.6992586129	-2.302572935	 0.121076
29.6405	103.307	140.7238	155.5623	202.3195	223.2177	261.9849	289.3404	340.2108	390.0333	411.7555	459.1462	554.0747	608.7666	667.971	753.7082	776.9359	835.2578	865.5932	892.2138	951.3697	965.1781	1032.2979	1061.0967	1081.3807	1092.04	1141.5403	1142.4816	1150.2837	1168.0855	1183.2327	1197.2763	1235.0064	1278.4346	1390.7063	1410.4272	1459.3475	1468.226	1486.4073	1488.3757	1500.1709	1509.1448	1512.6512	1525.3222	2334.4104	2986.5321	3062.1848	3081.1694	3116.937	3128.786	3138.3162	3141.3792	3146.6422	3148.4879	3220.2275	3234.9279	3526.4134
CNC(C)(C#N)C1CC1	CN[C@@](C)(C#N)C1CC1	
InChI=1S/C7H12N2/c1-7(5-8,9-2)6-3-4-6/h6,9H,3-4H2,1-2H3	InChI=1S/C7H12N2/c1-7(5-8,9-2)6-3-4-6/h6,9H,3-4H2,1-2H3/t7-/m0/s1
