19
gdb 41367	2.46849	1.8793	1.81584	1.6004	78.69	-0.2399	0.0155	0.2554	913.9691	0.161149	-385.859078	-385.852047	-385.851103	-385.890229	28.967	
C	 0.0470919493	 1.4087031733	 0.4196502939	-0.290594
C	 1.4696622802	 1.601556501	-0.218202263	-0.294909
C	 1.4337201486	 0.1172333978	-0.7000038458	 0.213631
C	 1.83484283	-0.9388406339	 0.3614382815	-0.140443
O	 0.4612471482	-1.0489684401	 0.829699944	-0.338141
C	 0.0266381647	-0.0482327526	-0.118790489	 0.429371
C	-0.9146102515	-0.5294554564	-1.2267027677	-0.361627
C	 0.036367634	-0.6209967908	-2.4159594311	-0.050176
C	 1.299603553	-0.2692733383	-2.1371482799	-0.200434
H	 0.0126515293	 1.4619294721	 1.5095680578	 0.112306
H	-0.7267624475	 2.0613902132	 0.0073935381	 0.101668
H	 1.48459	 2.3193834184	-1.0409722058	 0.106834
H	 2.2746701179	 1.8537968394	 0.4768524072	 0.100061
H	 2.2026576826	-1.8927995327	-0.0337301488	 0.103206
H	 2.5098915801	-0.5896256762	 1.1532883038	 0.095541
H	-1.353927547	-1.5017563006	-0.9736233757	 0.121829
H	-1.7477104084	 0.1583326115	-1.4203885066	 0.103716
H	-0.3050069455	-0.9507830994	-3.3927842046	 0.095051
H	 2.1115744821	-0.2715679556	-2.8573334682	 0.09311
107.4929	213.8573	286.2118	322.1626	356.7338	465.9941	529.0501	646.085	666.6338	696.0378	732.6404	764.1156	821.224	881.116	899.6877	912.7524	928.6128	934.1311	968.621	974.819	981.0725	1015.1175	1097.9787	1127.4996	1146.1274	1156.0608	1175.5955	1190.8405	1216.3621	1235.8326	1244.2288	1277.73	1282.7196	1309.6462	1348.9537	1375.1119	1460.3147	1470.7063	1480.7985	1514.0453	1644.9603	3009.5003	3022.1726	3058.2449	3060.1876	3061.3601	3064.7951	3109.7519	3129.3261	3168.41	3192.7869
C1CC23COC12CC=C3	C1C[C@@]23CO[C@@]12CC=C3	
InChI=1S/C8H10O/c1-2-7-4-5-8(7,3-1)9-6-7/h1-2H,3-6H2	InChI=1S/C8H10O/c1-2-7-4-5-8(7,3-1)9-6-7/h1-2H,3-6H2/t7-,8-/m0/s1
