18
gdb 10429	2.70252	1.88952	1.40445	2.6098	67.88	-0.2437	-0.0327	0.211	957.3742	0.15168	-384.935327	-384.926616	-384.925672	-384.969066	30.731	
C	-0.3111977804	 1.6217183688	 0.0521483687	-0.395557
C	 0.0978093034	 0.1507334255	 0.1789248349	-0.230999
C	 0.6705486483	-0.4208714838	-1.1123338859	 0.339484
C	 0.685194036	-1.9754047027	-1.2404516844	-0.340595
C	-0.3338701479	-1.7514347504	-2.3726269065	-0.067536
O	-0.2409740624	-0.316949621	-2.2369270015	-0.320728
C	 2.0179774407	 0.184788203	-1.4822845916	 0.122994
O	 2.831622076	 0.5810441286	-0.6887368419	-0.252992
H	 0.5567639956	 2.2601099052	-0.1367276433	 0.131055
H	-1.0203282393	 1.7516826072	-0.7700949861	 0.134025
H	-0.7867965617	 1.9700474101	 0.9732479917	 0.114078
H	 0.8577818361	 0.0303111822	 0.959107518	 0.120103
H	-0.7691086443	-0.4544414611	 0.4676708242	 0.094127
H	 1.6366955478	-2.4103227349	-1.5526692782	 0.121491
H	 0.3253530291	-2.499600568	-0.3542652151	 0.123762
H	-0.0236556856	-2.0867962001	-3.3686570405	 0.110542
H	-1.3496481313	-2.114647897	-2.1766559686	 0.109709
H	 2.2007256198	 0.2030686585	-2.5811984639	 0.087037
71.5587	81.0433	111.2245	196.2868	206.4016	272.0596	287.0146	390.5375	432.1249	514.1863	710.6746	780.1011	795.4174	852.0338	916.7683	937.8774	956.5529	994.1045	1028.7378	1045.9059	1053.3284	1135.6978	1162.8237	1177.5329	1207.6028	1255.9783	1263.5699	1322.5884	1345.6203	1363.1704	1397.9641	1406.2327	1468.784	1488.2113	1499.6145	1509.8127	1531.3921	1827.521	2876.6031	3024.2259	3035.9804	3045.949	3065.429	3078.6389	3079.7323	3115.7814	3123.7521	3135.6976
CCC1(CCO1)C=O	CC[C@]1(CCO1)C=O	
InChI=1S/C6H10O2/c1-2-6(5-7)3-4-8-6/h5H,2-4H2,1H3	InChI=1S/C6H10O2/c1-2-6(5-7)3-4-8-6/h5H,2-4H2,1H3/t6-/m0/s1
