15
gdb 28008	3.72306	1.11709	0.86009	3.0477	75.16	-0.1984	-0.0197	0.1787	1250.7915	0.113089	-453.989756	-453.981364	-453.98042	-454.022492	31.506	
N	 0.0000501746	 1.4332828073	-0.1241028611	-0.612497
C	-0.0364089644	 0.041407637	-0.054780291	 0.194155
C	-1.102901383	-0.8100131282	 0.0070369314	-0.168346
N	-0.6147991751	-2.121527673	-0.0194677327	-0.032483
C	-1.3840034175	-3.2639523908	 0.0310843969	 0.173085
O	-0.9424013889	-4.3877794063	 0.0114732636	-0.316212
C	 0.7755093618	-2.0944756684	-0.0977342548	-0.223754
C	 1.1466503356	-0.7831226886	-0.1200471114	 0.263308
O	 2.3781120274	-0.2094397185	-0.1780011518	-0.448389
H	 0.888389026	 1.8101415788	 0.178372768	 0.257457
H	-0.7637643938	 1.8927870505	 0.3515971089	 0.247604
H	-2.1619313803	-0.6201249783	 0.0616446716	 0.126365
H	-2.4613869897	-3.0241215361	 0.0925602194	 0.087072
H	 1.3334550285	-3.0142018122	-0.1227748398	 0.147316
H	 3.0524752586	-0.8957600231	-0.1923445071	 0.30532
106.907	192.7214	221.6021	233.3145	264.448	274.6032	315.4944	404.1733	448.6888	534.9696	586.3932	614.7697	621.0448	675.9534	731.1051	737.3978	774.6605	841.6925	1000.5116	1016.7265	1110.0408	1149.9881	1209.7431	1236.0947	1299.7495	1357.4005	1433.5611	1446.616	1490.7597	1611.9368	1644.2794	1690.179	1805.1929	2969.0572	3268.4093	3288.3131	3550.695	3646.9419	3834.3097
NC1=CN(C=O)C=C1O	Nc1cn(C=O)cc1O	
InChI=1S/C5H6N2O2/c6-4-1-7(3-8)2-5(4)9/h1-3,9H,6H2	InChI=1S/C5H6N2O2/c6-4-1-7(3-8)2-5(4)9/h1-3,9H,6H2
