21
gdb 40942	3.19541	1.29592	1.15152	1.8856	82.57	-0.2421	0.0233	0.2655	1149.9274	0.18465	-387.08704	-387.078999	-387.078055	-387.12018	31.304	
C	 0.0752708741	 1.551435296	-0.0661539524	-0.108558
O	 1.3968002034	 1.5627485272	 0.5083248104	-0.273898
C	 1.4688546973	 0.1239377248	 0.4883520628	-0.134979
C	 0.0226625854	-0.0006686408	-0.0457402119	 0.305381
C	-0.9895941737	-0.5804087841	 0.9457115476	-0.277061
C	-2.4329097025	-0.3638278357	 0.4636040377	-0.258755
C	-2.5907563968	-0.6693040392	-1.0027307825	-0.043925
C	-1.5607829317	-0.8224775612	-1.8342783281	-0.05402
C	-0.1217191967	-0.683922959	-1.4076860391	-0.32614
H	-0.6525774885	 2.0668702343	 0.5739544297	 0.094284
H	 0.0553136275	 2.0095439261	-1.0639054326	 0.095274
H	 2.2498085626	-0.2383960878	-0.1947835209	 0.090929
H	 1.6495677595	-0.2948741356	 1.4872381034	 0.094418
H	-0.8005845972	-1.6565488227	 1.0538010138	 0.09902
H	-0.8477962673	-0.1325296114	 1.9358001321	 0.09928
H	-3.1198274817	-0.9858582468	 1.0508744022	 0.105054
H	-2.7475186484	 0.672597891	 0.6576977818	 0.11089
H	-3.6063403096	-0.7641712951	-1.3799118922	 0.084816
H	-1.7409090248	-1.0583737594	-2.8804174443	 0.085277
H	 0.4428294035	-0.1265378531	-2.1668074227	 0.105259
H	 0.3500792056	-1.6783980175	-1.3689898849	 0.107454
44.8389	111.9998	178.922	275.4765	344.2061	385.2419	396.0941	438.398	515.2231	641.8814	673.1446	775.0939	845.7126	874.3431	884.3183	898.0271	954.62	962.289	989.1383	1003.241	1008.9384	1017.1783	1040.978	1055.9661	1103.5294	1145.9556	1153.5387	1161.1348	1165.7505	1200.8387	1250.8726	1297.6445	1299.5941	1310.6295	1348.4891	1364.7503	1381.7848	1391.9277	1416.3267	1472.3435	1479.4041	1491.6827	1512.3314	1535.9937	1725.2051	2985.4415	2991.3699	2997.8072	3004.5041	3018.8333	3030.7226	3037.4601	3042.9992	3043.647	3065.7289	3142.3368	3165.927
C1OCC11CCC=CC1	C1OCC21CCC=CC2	
InChI=1S/C8H12O/c1-2-4-8(5-3-1)6-9-7-8/h1-2H,3-7H2	InChI=1S/C8H12O/c1-2-4-8(5-3-1)6-9-7-8/h1-2H,3-7H2
