19
gdb 84134	2.55287	1.53754	1.10318	1.6089	77.02	-0.2171	0.0585	0.2756	1144.151	0.159831	-419.223211	-419.214622	-419.213678	-419.256549	33.373	
C	-0.1853413108	 1.5235617984	-0.0010558508	-0.37984
C	 0.0295724023	 0.0083420661	-0.0363519202	-0.058927
N	 0.9266923974	-0.37316626	-1.1367316558	-0.353238
C	 1.9511203787	-0.9046775295	-0.5958832233	 0.450967
N	 3.0942197174	-1.3160853626	-1.2286645123	-0.581214
O	 1.9928533679	-1.0539051602	 0.7566630456	-0.277539
C	 0.7218545177	-0.5768458532	 1.2135391039	 0.420596
C	 0.6817154606	-0.0405055499	 2.60645511	-0.33444
C	 0.0536642565	-1.3868871447	 2.2781153931	-0.325409
H	 0.7566796312	 2.0456444359	 0.1928268652	 0.118246
H	-0.5705495567	 1.8601781225	-0.9671657871	 0.125555
H	-0.9060392972	 1.8072148227	 0.7734667752	 0.103898
H	-0.944352157	-0.4772270583	-0.1825708416	 0.079481
H	 2.9844170013	-1.4326153014	-2.2240844321	 0.266746
H	 3.5932563058	-2.0627769922	-0.7699368314	 0.260546
H	 1.6109589907	-0.0482215871	 3.1650984309	 0.125999
H	 0.0328831951	 0.8020337949	 2.8187004332	 0.120904
H	-1.0290740342	-1.4626067469	 2.2526552698	 0.116944
H	 0.5665854833	-2.2760900645	 2.6273891878	 0.120725
43.5499	159.3967	222.1162	252.1007	262.7994	304.8249	383.8214	415.1401	474.1484	513.2425	535.2368	561.9409	699.9864	730.5704	756.5311	772.2452	884.3898	896.9934	928.9848	957.4171	963.4973	1011.333	1052.7008	1057.526	1076.4704	1099.0312	1124.5136	1179.1904	1188.7301	1242.1876	1283.9273	1351.5271	1366.5144	1402.4458	1429.976	1452.6607	1487.5755	1491.4869	1503.5174	1618.7679	1756.0237	3007.3864	3034.6721	3105.3978	3121.7808	3126.8339	3136.9753	3213.7013	3228.8764	3587.1862	3699.9271
CC1N=C(N)OC11CC1	C[C@H]1N=C(N)OC21CC2	
InChI=1S/C6H10N2O/c1-4-6(2-3-6)9-5(7)8-4/h4H,2-3H2,1H3,(H2,7,8)	InChI=1S/C6H10N2O/c1-4-6(2-3-6)9-5(7)8-4/h4H,2-3H2,1H3,(H2,7,8)/t4-/m1/s1
