18
gdb 106481	2.60481	1.74133	1.30506	2.5546	72.98	-0.2483	0.0272	0.2755	1013.0351	0.148508	-439.065105	-439.057322	-439.056378	-439.097288	30.34	
C	 0.0022028309	 1.3769298047	 0.110621467	-0.273605
O	-0.0841336507	-0.036805117	-0.0490194111	-0.292938
C	 0.5907399556	-0.5418712818	-1.1280113507	 0.332491
C	 2.1669075556	-0.5233383143	-1.3112510369	-0.303633
C	 1.7939544571	-1.6478557097	-2.2977317498	 0.082414
C	 0.690107803	-2.0898962997	-1.3141529942	-0.287487
O	 1.0331654655	-0.9273548712	-3.3210961911	-0.254684
C	 0.1921471655	-0.1592099662	-2.5501748243	 0.390619
N	-0.6837706441	 0.652625428	-2.9472600524	-0.581066
H	 1.0461620881	 1.695481209	 0.2411962599	 0.106425
H	-0.436349145	 1.8984805216	-0.7445602636	 0.156384
H	-0.5555414037	 1.6163736333	 1.0177694053	 0.128813
H	 2.642242646	 0.3666876154	-1.7272061952	 0.115915
H	 2.6831751737	-0.8791015058	-0.4183291495	 0.116066
H	 2.5034783546	-2.314979371	-2.7779864161	 0.100145
H	 1.074606741	-2.5818919543	-0.4197499755	 0.117728
H	-0.1735483095	-2.6160344253	-1.7242221256	 0.121207
H	-0.7151491934	 0.6840471242	-3.9683138461	 0.225208
104.4944	166.8912	181.7234	225.0465	307.8271	424.9644	461.6135	472.6307	520.0783	601.3207	673.4795	704.3679	794.3942	859.9344	881.9803	906.2052	922.581	952.8916	975.9614	1004.0447	1015.7975	1045.9977	1057.8904	1119.0814	1167.5645	1182.9707	1189.6443	1223.8363	1233.4384	1247.2421	1249.0705	1318.5753	1378.9731	1473.1656	1483.4912	1487.2378	1513.7587	1515.6222	1807.2116	3003.9598	3077.0003	3083.3867	3094.8249	3138.8855	3148.2885	3153.6881	3170.4553	3464.116
COC12CC(C1)OC2=N	CO[C@@]12C[C@@H](C1)O[C]2[NH]	
InChI=1S/C6H9NO2/c1-8-6-2-4(3-6)9-5(6)7/h4,7H,2-3H2,1H3	InChI=1S/C6H9NO2/c1-8-6-2-4(3-6)9-5(6)7/h4,7H,2-3H2,1H3/t4-,6-
