17
gdb 85590	2.8647	1.4336	1.00831	1.6462	71.34	-0.2494	0.0095	0.2589	1147.4958	0.137029	-455.186428	-455.17791	-455.176966	-455.220021	30.683	
C	-0.1795079918	 1.3685215841	 0.3411388851	-0.347728
N	 0.0233039377	-0.0269990014	-0.0085878454	-0.096933
C	-1.0512722492	-0.743268599	-0.6825501091	-0.2693
C	-1.0547232574	-2.2157862346	-0.339289653	 0.407415
N	-2.1430317214	-2.8470228365	-0.2199414547	-0.514666
O	 0.1600531648	-2.7961813201	-0.1672000391	-0.235529
C	 1.3264951352	-2.0174416462	-0.4527844449	-0.207811
C	 1.2689165746	-0.5756633061	 0.0446028875	 0.396659
O	 2.2709061855	-0.001193437	 0.4284273688	-0.379531
H	 0.7268431835	 1.7249831797	 0.8295054132	 0.173486
H	-0.3679075977	 1.9795344416	-0.5508989043	 0.128749
H	-1.0327336796	 1.4690358086	 1.0199143266	 0.133997
H	-2.012837742	-0.3336483772	-0.3731321538	 0.156954
H	-0.9856001315	-0.6230975962	-1.7763767366	 0.133789
H	-1.962270418	-3.8332870153	-0.0219144482	 0.226746
H	 2.1605488415	-2.512548478	 0.0429369128	 0.158308
H	 1.5197840957	-2.0165829863	-1.5350896347	 0.135394
75.4473	117.122	138.632	169.9437	218.0826	323.4211	397.1132	411.2184	432.9533	548.4341	579.7423	603.2227	745.7531	797.6185	843.2503	912.316	994.9828	1001.9654	1025.3445	1049.5809	1137.6722	1155.6512	1173.319	1234.7834	1255.6079	1292.0323	1317.4653	1343.4755	1405.6116	1431.5011	1457.3883	1485.3593	1494.3315	1497.4387	1532.0625	1763.0611	1787.2814	2973.4895	3012.4734	3020.4515	3080.6466	3130.7715	3147.9036	3164.0821	3468.8375
CN1CC(=N)OCC1=O	CN1C[C]([NH])OCC1=O	
InChI=1S/C5H8N2O2/c1-7-2-4(6)9-3-5(7)8/h6H,2-3H2,1H3	InChI=1S/C5H8N2O2/c1-7-2-4(6)9-3-5(7)8/h6H,2-3H2,1H3
