17
gdb 73385	2.88792	1.74847	1.41385	3.0395	73.23	-0.2371	0.0049	0.242	959.1407	0.136935	-417.96351	-417.956177	-417.955233	-417.995011	28.92	
C	-0.0081143578	 1.4466086284	 0.0285008155	-0.484269
C	-0.0321751758	-0.0572714746	 0.0529825155	 0.291396
C	-1.3080723851	-0.801138133	-0.3443600841	-0.142277
O	-1.2451232692	-2.0726569847	 0.3118629529	-0.256685
C	 0.1217678809	-2.262760177	 0.642422062	-0.044614
C	 0.6802023954	-0.8781872002	 1.034638315	-0.099669
N	 1.2782795484	-0.6994826187	-0.3700731936	-0.200827
C	 1.0000404892	-2.101605602	-0.6108511568	 0.378412
N	 1.4803287974	-2.7954444005	-1.5412580434	-0.527867
H	 0.9769892012	 1.8159649653	 0.3203139943	 0.143099
H	-0.2225815712	 1.819920295	-0.9780554584	 0.136145
H	-0.7584089244	 1.8560885926	 0.7128901545	 0.125841
H	-2.2016675979	-0.2735832854	 0.0044599331	 0.116918
H	-1.3753474239	-0.9302131522	-1.4331872397	 0.120239
H	 0.2294347527	-3.1364865448	 1.2834803153	 0.102287
H	 1.2094826039	-0.5650243551	 1.9243969118	 0.113513
H	 1.1854217962	-3.7693961831	-1.4494225639	 0.228357
134.1491	198.2791	220.2585	270.0736	302.6297	406.062	457.9957	551.4552	612.4368	659.7161	751.3355	768.1013	843.2577	867.9036	875.5926	896.6	941.5389	958.1952	991.1039	994.184	1024.3136	1046.7337	1077.165	1113.9209	1185.6431	1199.1073	1224.0443	1267.5771	1297.3861	1310.8222	1348.4513	1411.8562	1426.7772	1487.8528	1493.7876	1511.6995	1795.741	3015.1047	3040.5738	3076.0844	3104.5995	3134.0863	3136.3321	3211.3539	3465.5838
CC12COC3C1N2C3=N	C[C@]12CO[C@@H]3[C@H]1N2[C]3[NH]	
InChI=1S/C6H8N2O/c1-6-2-9-3-4(6)8(6)5(3)7/h3-4,7H,2H2,1H3	InChI=1S/C6H8N2O/c1-6-2-9-3-4(6)8(6)5(3)7/h3-4,7H,2H2,1H3/t3-,4-,6+,8?/m1/s1
