18
gdb 68569	2.80498	1.93673	1.58306	2.1434	74.91	-0.2416	-0.0024	0.2392	911.2502	0.150126	-401.969019	-401.96207	-401.961125	-401.999744	28.965	
C	-0.1217646218	 1.5215210583	-0.0208786647	-0.472113
C	 0.0764502541	 0.0231851737	-0.0083307499	 0.376842
C	 0.8222284038	-0.6079701793	-1.1939954423	-0.266914
C	 0.9523373392	-2.0384704403	-0.6379511966	-0.039713
C	 1.3349210922	-1.7544008336	 0.8128217833	-0.073762
C	 0.8253996002	-0.5744697282	 1.1740619281	-0.105307
N	-0.3851403664	-2.6719525895	-0.6182466754	-0.269575
C	-1.3330891214	-1.8874591859	-0.3015907795	 0.124678
O	-1.2762505913	-0.5687534771	 0.0037318639	-0.273219
H	 0.8492536854	 2.0249451979	 0.0019526536	 0.124252
H	-0.6587968242	 1.835192464	-0.9204265988	 0.127536
H	-0.6993060763	 1.8406984039	 0.8519037639	 0.128676
H	 0.2587560474	-0.5553569095	-2.1292321929	 0.107529
H	 1.7979787012	-0.1333443425	-1.3242482532	 0.105041
H	 1.6426923739	-2.6855179398	-1.1805276663	 0.073233
H	 1.8327562908	-2.4711766849	 1.4544690979	 0.109134
H	 0.8181554242	-0.1366098403	 2.1649670764	 0.102108
H	-2.359551781	-2.245534487	-0.2393635674	 0.121574
223.9853	240.0208	289.1358	320.1686	352.0005	447.0897	458.777	575.1752	595.8737	617.1266	727.5554	771.7261	782.8397	847.0205	871.3311	900.4201	926.7539	948.5486	958.9275	970.2109	999.7344	1019.3045	1101.5088	1118.4112	1138.9008	1185.7489	1229.524	1243.9969	1282.2084	1306.6673	1333.7077	1371.5774	1396.0831	1415.5256	1481.7454	1484.7298	1495.3576	1652.3265	1685.7936	3042.8057	3063.6979	3099.834	3116.6573	3117.9138	3122.1753	3152.2582	3194.7186	3220.282
CC12CC(C=C1)N=CO2	C[C@@]12C[C@@H](C=C1)[N][CH]O2	
InChI=1S/C7H9NO/c1-7-3-2-6(4-7)8-5-9-7/h2-3,5-6H,4H2,1H3	InChI=1S/C7H9NO/c1-7-3-2-6(4-7)8-5-9-7/h2-3,5-6H,4H2,1H3/t6-,7+/m1/s1
