17
gdb 11655	3.16393	1.83792	1.48377	1.785	69.45	-0.2261	-0.0372	0.1888	902.8548	0.141859	-363.787487	-363.779913	-363.778969	-363.819751	28.023	
C	-0.0454615554	 1.5544952093	 0.0209799803	-0.442417
C	 0.1282125627	 0.0495427592	 0.0433802951	 0.047645
N	 1.3100884478	-0.5763885566	-0.7402712061	-0.157929
C	 2.187938833	-0.1783523857	 0.4677420854	-0.217695
C	 0.9203762223	-0.7134825532	 1.15940208	 0.20783
C	 0.9964301233	-1.8343238708	 0.088643336	-0.208971
C	 0.6115279112	-0.8210221303	 2.6170648815	 0.028028
O	 1.3411277699	-0.4257844916	 3.4929720431	-0.244857
H	-0.2360836083	 1.8817193469	-1.0065265665	 0.138583
H	-0.9137765763	 1.8348657784	 0.6262783621	 0.126696
H	 0.8159693839	 2.1082525469	 0.3981907117	 0.130509
H	-0.8126059576	-0.4303629016	-0.2483921626	 0.078417
H	 3.0964676281	-0.7781006332	 0.5532931457	 0.11146
H	 2.4195011256	 0.883429184	 0.5293675229	 0.113803
H	 0.071768985	-2.3370340734	-0.2063337102	 0.106911
H	 1.8341680654	-2.5322683553	 0.1549465227	 0.111982
H	-0.3689212505	-1.297701823	 2.8547436391	 0.070003
57.8913	152.2096	184.8383	196.6	336.0121	359.9478	462.8225	574.3755	600.7548	688.0825	728.0736	788.0629	831.8476	886.9421	917.2479	995.8791	1006.4259	1032.1412	1052.0544	1100.6512	1126.2309	1154.9191	1157.6888	1176.3808	1195.3312	1196.5801	1268.2171	1310.1223	1405.8023	1421.9034	1429.9152	1488.1516	1492.1094	1519.5915	1556.9724	1814.7547	2850.4665	3039.2148	3045.3527	3057.4708	3084.7505	3104.1593	3127.494	3132.7995	3159.5249
CC1N2CC1(C2)C=O	C[C@H]1N2C[C@@]1(C2)C=O	
InChI=1S/C6H9NO/c1-5-6(4-8)2-7(5)3-6/h4-5H,2-3H2,1H3	InChI=1S/C6H9NO/c1-5-6(4-8)2-7(5)3-6/h4-5H,2-3H2,1H3/t5-/m1/s1
