21
gdb 66339	2.31155	1.44674	1.22931	2.4047	84.92	-0.2358	-0.0236	0.2122	1151.9923	0.182681	-387.12532	-387.11644	-387.115496	-387.158659	34.217	
C	 0.0892448152	 1.6232682199	 0.1753065509	-0.443153
C	 0.0138346794	 0.080635981	 0.0926575699	 0.147592
C	 0.5702316924	-0.4303491973	-1.2476946591	-0.230144
C	 0.8790101386	-1.9319400671	-1.2123483127	-0.224633
C	 1.9035682361	-2.2649629441	-0.1196002906	-0.245073
C	 1.601999704	-1.5509960713	 1.1698296125	-0.063829
C	 0.7575581507	-0.5243326091	 1.2697866235	-0.085243
C	-1.4613691936	-0.2888802782	 0.2615400501	 0.158224
O	-2.1463409801	-0.8415115958	-0.5599223719	-0.260412
H	 1.1344606277	 1.9462316222	 0.1822048927	 0.128243
H	-0.4110554282	 2.0851394378	-0.6820763963	 0.126486
H	-0.3839167424	 1.9997522862	 1.0891840125	 0.116439
H	-0.1521255979	-0.2126730424	-2.0397238244	 0.10956
H	 1.4868393696	 0.1273250112	-1.4774914921	 0.088856
H	-0.0501891306	-2.479632319	-1.024506756	 0.121435
H	 1.2480633951	-2.2620441251	-2.1888932201	 0.09265
H	 1.9365972265	-3.3470822223	 0.0579310074	 0.106127
H	 2.9182589181	-1.9942427665	-0.4495827733	 0.10866
H	 2.1205586345	-1.8977480569	 2.0611807192	 0.090458
H	 0.5788072291	-0.0627144591	 2.2391531439	 0.085062
H	-1.884709204	 0.010811206	 1.2491778038	 0.072694
78.9503	116.389	192.984	243.2844	261.9149	300.9034	327.5842	335.2461	457.0134	468.4833	473.0644	604.6615	688.6237	737.5414	747.8526	856.4419	869.9317	902.2083	925.0353	945.8208	998.581	1008.3141	1016.0337	1050.0546	1076.078	1123.2379	1141.5612	1166.3413	1220.92	1261.2058	1285.6185	1298.4271	1359.9345	1373.0834	1378.1838	1398.3544	1412.5606	1434.5088	1470.7448	1479.4734	1494.2706	1495.6615	1499.3439	1713.6774	1824.4619	2852.5266	2994.663	3025.7318	3029.7096	3039.1852	3050.8563	3086.6788	3093.2967	3097.2999	3111.3261	3133.5283	3158.1898
CC1(CCCC=C1)C=O	C[C@]1(CCCC=C1)C=O	
InChI=1S/C8H12O/c1-8(7-9)5-3-2-4-6-8/h3,5,7H,2,4,6H2,1H3	InChI=1S/C8H12O/c1-8(7-9)5-3-2-4-6-8/h3,5,7H,2,4,6H2,1H3/t8-/m0/s1
