19
gdb 6887	2.86438	1.71343	1.55742	1.7442	74.56	-0.228	-0.0332	0.1947	953.8287	0.162589	-365.04913	-365.039954	-365.03901	-365.082085	33.599	
C	-0.3444314108	 1.4250746014	-0.0985039044	-0.33127
N	-0.0078123985	 0.0118576877	 0.0597541572	-0.125176
C	 1.3013724664	-0.5077926835	-0.3758808722	-0.156276
C	 2.4043719626	 0.3299544702	-0.9031286516	 0.148595
O	 2.6218650482	 1.4970078661	-0.6548289133	-0.281676
C	 0.8811088817	-0.4538173721	 1.09719761	 0.312854
C	 1.5532892428	 0.5066885637	 2.0596363278	-0.472876
C	 0.4683785253	-1.7738332832	 1.724838107	-0.432445
H	 0.4962321445	 2.1169794339	-0.0006938429	 0.14873
H	-0.785292399	 1.5589307489	-1.091034153	 0.124716
H	-1.1098773752	 1.6711627513	 0.6441067415	 0.121819
H	 1.2418847095	-1.476688462	-0.8700055887	 0.0901
H	 3.0698209881	-0.2260100909	-1.6017876241	 0.080805
H	 1.998984997	 1.363983962	 1.5571355166	 0.162057
H	 0.8210048414	 0.8672524331	 2.7913208933	 0.121791
H	 2.3405133126	-0.0124328506	 2.6154513562	 0.120654
H	 1.3410329083	-2.3195703507	 2.0991054011	 0.117901
H	-0.2023795235	-1.5931604795	 2.572778602	 0.121965
H	-0.0609999416	-2.3985826258	 1.0023537074	 0.127731
147.7855	166.9917	176.1395	195.8707	216.5956	219.281	264.09	283.3506	352.387	380.133	461.629	491.5429	665.1444	724.4493	753.2997	856.4541	954.2795	964.9463	980.6894	1017.4602	1051.5177	1094.5956	1131.9069	1157.5217	1168.367	1186.5298	1276.4602	1351.751	1399.5261	1406.3333	1419.7496	1433.1377	1451.5398	1479.6304	1481.4629	1487.7558	1503.1364	1507.7454	1523.9893	1786.5632	2873.8571	3030.9716	3035.7178	3040.4251	3092.1325	3096.8628	3104.6311	3114.7811	3117.2449	3129.6878	3160.1184
CN1C(C=O)C1(C)C	CN1[C@@H](C=O)C1(C)C	
InChI=1S/C6H11NO/c1-6(2)5(4-8)7(6)3/h4-5H,1-3H3	InChI=1S/C6H11NO/c1-6(2)5(4-8)7(6)3/h4-5H,1-3H3/t5-,7?/m0/s1
