23
gdb 92624	3.63309	1.12175	0.9538	1.6601	84.36	-0.246	0.0705	0.3165	1314.1248	0.209061	-388.318028	-388.309745	-388.3088	-388.351173	32.74	
C	-0.1998564795	 1.5592233771	 0.0026631179	-0.406339
C	 0.0363010189	 0.0506255569	 0.0059620365	 0.055985
C	 0.8990325153	-0.4712418329	-1.1615455557	-0.23817
C	 1.3366684634	-1.8843902598	-0.7288279175	-0.01008
C	 2.794281061	-2.3003422691	-1.0129808453	-0.102861
O	 3.2303283891	-3.007423269	 0.138914827	-0.241568
C	 2.6870961591	-2.3146914451	 1.2534373806	-0.102893
C	 1.26302364	-1.8927933791	 0.8379575596	-0.010256
C	 0.7880842394	-0.4834175385	 1.2425650002	-0.238049
H	 0.7504302834	 2.104467743	 0.0493922776	 0.111528
H	-0.7227334723	 1.8797428008	-0.9048289664	 0.111791
H	-0.8044640404	 1.870821122	 0.8611673142	 0.111787
H	-0.9390232781	-0.4554683063	-0.0415944591	 0.070173
H	 0.3670381028	-0.459110502	-2.1177839901	 0.094093
H	 1.7776984661	 0.1789038727	-1.2770303693	 0.090387
H	 0.6559679027	-2.6350439676	-1.1391133031	 0.07435
H	 2.9128189216	-2.9638059948	-1.8736112073	 0.105036
H	 3.4222036861	-1.4071982091	-1.1772572469	 0.080602
H	 2.7232611668	-2.9895247772	 2.1126278015	 0.105027
H	 3.2969288233	-1.4247979068	 1.4882270882	 0.080652
H	 0.5457473248	-2.6460934765	 1.1744608818	 0.074354
H	 1.652733454	 0.1644754714	 1.4443525133	 0.090375
H	 0.1706986326	-0.47984151	 2.1461125123	 0.094078
56.9902	115.6676	235.884	247.6311	260.9028	379.5681	390.5726	417.1587	478.398	593.4222	613.4837	670.4314	796.5797	845.3177	871.4718	929.3692	936.62	940.5713	958.3249	992.3793	1020.9782	1046.5145	1060.7216	1065.8652	1077.2741	1117.3118	1134.9091	1160.0879	1186.7923	1238.0658	1238.591	1270.56	1277.6094	1294.5833	1311.6059	1312.6325	1339.9082	1350.2826	1352.7813	1378.0252	1380.3592	1403.9353	1414.4601	1487.1071	1496.661	1498.1077	1501.6517	1507.4975	1520.489	2947.0062	2953.6434	2993.8269	3007.6462	3016.1722	3025.0919	3051.1315	3063.9799	3077.7573	3081.4405	3090.0978	3090.47	3095.4942	3097.2817
CC1CC2COCC2C1	C[C@H]1C[C@H]2COC[C@H]2C1	
InChI=1S/C8H14O/c1-6-2-7-4-9-5-8(7)3-6/h6-8H,2-5H2,1H3	InChI=1S/C8H14O/c1-6-2-7-4-9-5-8(7)3-6/h6-8H,2-5H2,1H3/t6-,7-,8+
