13
gdb 5339	5.87752	1.55792	1.2315	1.9198	76.7	-0.2448	-0.0432	0.2017	912.7194	0.097476	-324.3541	-324.347739	-324.346795	-324.38451	24.343	
C	 0.0045164498	-1.2081944474	-0.0036539122	-0.407222
C	 0.007061953	-0.0040398797	 0.0026612214	 0.226973
C	 0.0021709695	 1.4184335989	 0.0104580312	 0.104686
C	-1.2079582337	 2.1344015217	 0.0302665549	-0.058019
N	-1.2870389311	 3.4621027655	 0.0385021976	-0.256436
C	-0.1404845453	 4.1491700087	 0.0271417055	 0.007221
C	 1.1153646346	 3.5471692269	 0.0073547612	-0.107786
C	 1.1902626153	 2.1619738412	-0.0011389755	-0.166566
H	 0.0022426474	-2.2700659535	-0.0091277614	 0.198642
H	-2.1476513843	 1.5883849792	 0.0396620315	 0.119191
H	-0.2312993332	 5.2325683853	 0.0342091349	 0.11427
H	 2.0138430122	 4.153927259	-0.0011787767	 0.108067
H	 2.1458570958	 1.6501058043	-0.0164859423	 0.116979
143.7205	154.3754	351.7175	412.1959	483.2885	529.4605	553.0542	601.1752	634.6181	651.4544	731.5387	793.4874	837.4857	956.6082	984.7304	1001.5281	1036.0297	1063.9802	1138.9355	1220.0226	1239.9382	1285.4024	1358.0522	1442.3559	1506.2381	1594.9599	1627.0832	2227.8359	3159.0356	3166.7398	3190.6479	3206.3178	3502.9955
C#CC1=CN=CC=C1	C#Cc1cnccc1	
InChI=1S/C7H5N/c1-2-7-4-3-5-8-6-7/h1,3-6H	InChI=1S/C7H5N/c1-2-7-4-3-5-8-6-7/h1,3-6H
