18
gdb 98674	4.1851	0.89396	0.79213	2.3671	70.91	-0.2402	0.052	0.2923	1447.9368	0.146531	-476.237144	-476.227492	-476.226548	-476.272768	33.174	
C	-0.1831198097	 1.3433468127	 0.0251739186	-0.229395
O	-0.0482045456	-0.0788004041	 0.0569836636	-0.256673
C	 0.5962192583	-0.5583459147	 1.1515232252	 0.500367
O	 1.0454562974	 0.1254117845	 2.0452406997	-0.423519
N	 0.6454987121	-1.9151844773	 1.1115168696	-0.148479
C	 0.5294736142	-2.8458688093	-0.0167917563	-0.180094
C	 1.2961178478	-3.8933286338	 0.8289240687	 0.100103
O	 2.4234977125	-4.3848017005	 0.1514366706	-0.42279
C	 1.5319233429	-2.7744581264	 1.8954924195	-0.195498
H	 0.7960114275	 1.828931261	 0.0465120117	 0.13785
H	-0.6993236929	 1.5707515803	-0.908205974	 0.127846
H	-0.7673936973	 1.6986785765	 0.8782320722	 0.137255
H	-0.4969211972	-3.0922667069	-0.3014030743	 0.118182
H	 1.0945033241	-2.5411249209	-0.9039388343	 0.128355
H	 0.656463565	-4.7043113105	 1.1970573868	 0.081843
H	 2.8713803607	-5.0187814059	 0.7206671569	 0.289694
H	 2.5697370059	-2.4234052688	 1.9220131972	 0.120351
H	 1.1848637243	-2.9736579161	 2.9139149086	 0.114602
44.9335	98.8998	109.6707	122.9808	154.7098	178.8614	276.1597	313.7438	382.6274	395.5443	475.8119	560.1099	744.6711	782.0542	820.6244	877.0525	928.8954	977.2746	1012.8284	1058.9237	1135.7421	1142.0031	1181.9132	1183.6113	1190.2294	1195.112	1216.3498	1239.9922	1288.8547	1313.5949	1325.3673	1409.3892	1441.22	1481.0165	1485.0457	1500.2484	1506.1914	1521.0149	1807.0281	3029.0558	3035.095	3047.3286	3048.2486	3089.3745	3099.8631	3120.827	3151.5556	3817.8123
COC(=O)N1CC(O)C1	COC(=O)N1CC(O)C1	
InChI=1S/C5H9NO3/c1-9-5(8)6-2-4(7)3-6/h4,7H,2-3H2,1H3	InChI=1S/C5H9NO3/c1-9-5(8)6-2-4(7)3-6/h4,7H,2-3H2,1H3
