16
gdb 127525	3.21739	1.21893	0.9314	2.2437	67.61	-0.2293	-0.0014	0.2279	1211.8249	0.125431	-471.229067	-471.220383	-471.219439	-471.262679	31.197	
C	 0.1438376256	 1.389200368	 0.0597481477	-0.339552
N	 0.1221673265	-0.0595404111	 0.0691593883	 0.004591
N	 0.1628896059	-0.7499818911	-1.1090237633	-0.32351
C	 0.0908592371	-1.9989295409	-0.6855270472	 0.41767
O	 0.1042219071	-3.027694961	-1.5442994721	-0.411088
N	 0.0148207089	-2.1680812499	 0.6582290573	-0.404995
C	 0.0294178722	-0.9153861542	 1.105895436	 0.309411
C	-0.0431458725	-0.5186567612	 2.5503573493	-0.185367
O	 1.012088214	 0.3468418394	 2.9537100534	-0.405289
H	 0.8928731099	 1.7238527897	-0.6603546911	 0.156992
H	-0.8310018612	 1.7896814472	-0.2357780895	 0.144407
H	 0.410442713	 1.7389123817	 1.0567604564	 0.168039
H	 0.043008621	-3.8295052368	-1.011606733	 0.309889
H	-0.9651686159	 0.0361500187	 2.7545779097	 0.131991
H	-0.0729484081	-1.4430655434	 3.1392352101	 0.133694
H	 1.8433345164	-0.1208586152	 2.8173526279	 0.293117
73.4401	131.2717	162.6928	182.3376	247.121	311.75	328.6772	383.9742	401.5544	419.8615	544.8033	639.5982	655.1151	754.1495	781.536	829.884	972.4201	1033.9507	1067.3795	1088.814	1154.6712	1184.6997	1211.4068	1241.3114	1323.967	1358.3803	1414.3023	1431.2296	1454.8403	1487.5546	1490.2804	1498.5906	1521.1111	1557.4388	1632.9531	3037.2555	3049.6878	3081.8753	3123.6864	3168.6285	3807.8586	3815.8059
CN1N=C(O)N=C1CO	Cn1nc(O)nc1CO	
InChI=1S/C4H7N3O2/c1-7-3(2-8)5-4(9)6-7/h8H,2H2,1H3,(H,6,9)	InChI=1S/C4H7N3O2/c1-7-3(2-8)5-4(9)6-7/h8H,2H2,1H3,(H,6,9)
