18
gdb 60791	2.4919	1.17754	1.02498	1.7731	72.67	-0.2614	-0.0405	0.2209	1225.5271	0.143345	-439.105962	-439.095503	-439.094559	-439.141565	36.984	
C	-0.0748120594	 1.5230541434	 0.0779815749	-0.453354
C	 0.0116325177	-0.0124990848	 0.0090575573	-0.065858
C	-1.4011854613	-0.5776389827	 0.0734680729	 0.140059
O	-1.8664865915	-1.1167502938	 1.0435021297	-0.246527
C	 0.7372386881	-0.5167905843	-1.2765290211	 0.174983
C	 0.7644642402	-2.0489580734	-1.3451681859	-0.40841
O	 0.0767488009	-0.0784063326	-2.4585131637	-0.445129
C	 2.1285463263	-0.0029383894	-1.265714407	 0.260199
N	 3.2004371819	 0.4294970783	-1.2586448072	-0.335975
H	 0.9192966704	 1.9729586678	 0.0003793128	 0.154965
H	-0.7047199261	 1.9267487736	-0.7225935515	 0.123943
H	-0.515120455	 1.8334731267	 1.0286848138	 0.147983
H	 0.5536387532	-0.3882145962	 0.8821360747	 0.115089
H	-2.0008679081	-0.4200623247	-0.8488214946	 0.099147
H	-0.2586709366	-2.4281660902	-1.4085026982	 0.145759
H	 1.3101417228	-2.3726632336	-2.2332220971	 0.149093
H	 1.2424966029	-2.4675565785	-0.4568494694	 0.144494
H	 0.1982109934	 0.8730447044	-2.5519483003	 0.299539
53.7284	71.6403	139.7122	186.2722	216.6795	229.8501	243.0782	253.6291	319.5826	329.3433	381.4628	400.4861	443.5173	487.095	598.2598	626.0804	750.6474	871.1364	915.6882	944.6906	961.2252	1030.7744	1058.7088	1114.996	1148.848	1169.8932	1194.9834	1294.8105	1326.5748	1363.1321	1399.5374	1413.9603	1421.0094	1477.0864	1494.0489	1498.9348	1505.1879	1831.4647	2349.3441	2904.4794	3036.0869	3058.1167	3075.0797	3107.935	3125.7146	3137.6245	3147.9913	3811.1354
CC(C=O)C(C)(O)C#N	C[C@@H](C=O)[C@@](C)(O)C#N	
InChI=1S/C6H9NO2/c1-5(3-8)6(2,9)4-7/h3,5,9H,1-2H3	InChI=1S/C6H9NO2/c1-5(3-8)6(2,9)4-7/h3,5,9H,1-2H3/t5-,6-/m0/s1
