21
gdb 39292	2.50694	2.02086	1.78534	1.4492	79.6	-0.2357	0.0816	0.3174	913.4183	0.187801	-387.099777	-387.093292	-387.092348	-387.130188	28.235	
C	-0.0325451831	 1.4938207558	 0.1989985579	-0.255249
C	 1.5115342744	 1.4153712821	 0.0093334898	-0.060396
C	 2.1959771697	 1.0522329783	 1.3337144207	-0.201653
C	 1.304896953	 0.0700566986	 2.1318157187	-0.215465
C	 0.5338734403	-0.8652446477	 1.1789097412	-0.041976
C	 1.494338155	-1.8053631784	 0.4300735136	-0.076025
O	 2.090236961	-1.0113025417	-0.6027225171	-0.272778
C	 1.2488129971	 0.1041773069	-0.8183629535	 0.148212
C	-0.0537883048	-0.0424763567	-0.006374663	-0.056928
H	-0.4178865034	 1.908740781	 1.1337104821	 0.095481
H	-0.5213827914	 2.0022565648	-0.6363208651	 0.097984
H	 2.0110687911	 2.242282184	-0.5005502218	 0.058727
H	 3.1667759451	 0.5961069519	 1.1139987725	 0.112005
H	 2.3873855585	 1.9539418511	 1.9258163876	 0.08923
H	 1.9016574941	-0.511896391	 2.8423869092	 0.09097
H	 0.5821931228	 0.6342049566	 2.7306243705	 0.098576
H	-0.2296878961	-1.4282516837	 1.723546265	 0.065887
H	 2.2908703011	-2.2032001056	 1.0680606336	 0.101285
H	 0.9561243573	-2.6550756091	-0.0169000321	 0.088964
H	 1.1438997212	 0.2851089711	-1.8912334968	 0.071392
H	-0.9298304429	-0.5133991183	-0.457551423	 0.061758
182.2078	267.5993	376.0172	381.5088	394.2807	508.3812	569.2834	662.6756	732.5572	763.6181	801.1284	817.3413	836.1503	873.5994	903.7214	932.316	947.415	972.9749	986.9752	997.3772	1018.3946	1061.9099	1073.3039	1090.4598	1106.2928	1123.0406	1148.5185	1190.8426	1204.3921	1222.8041	1240.1596	1264.8199	1278.729	1286.9188	1304.2169	1327.7279	1338.2594	1343.2843	1371.6722	1382.9036	1396.1742	1482.1967	1488.9187	1512.3873	1522.7536	2985.818	3034.4236	3042.3824	3056.7957	3062.5183	3064.8744	3068.2974	3069.961	3079.2595	3086.4163	3089.4676	3106.8961
C1C2CCC3COC2C13	C1[C@H]2CC[C@@H]3CO[C@H]2[C@H]13	
InChI=1S/C8H12O/c1-2-6-4-9-8-5(1)3-7(6)8/h5-8H,1-4H2	InChI=1S/C8H12O/c1-2-6-4-9-8-5(1)3-7(6)8/h5-8H,1-4H2/t5-,6-,7-,8-/m1/s1
