20
gdb 83824	2.90732	1.41806	1.15154	2.5479	78.87	-0.2347	0.0259	0.2606	1125.8594	0.173378	-403.138427	-403.130307	-403.129363	-403.170887	31.579	
C	-0.2401342396	 1.5740655653	 0.0658980037	-0.412498
C	 0.0082222418	 0.0813295417	 0.0070684868	-0.039524
C	 1.3203049455	-0.5549685714	-0.4147498285	-0.049805
C	 2.5784734588	 0.2421398198	-0.6226270415	-0.1016
O	 3.7349658192	-0.427922797	-0.081499599	-0.229709
C	 3.8221619802	-0.652306087	 1.2572349789	 0.141829
N	 3.027996725	-0.5029100662	 2.2265985712	-0.265407
C	 1.6501567869	-0.0242340376	 2.1089778844	-0.195719
C	 0.8353755203	-0.6929058433	 1.0121341905	-0.04379
H	 0.615395964	 2.1418529663	 0.4389340653	 0.120962
H	-0.4838509441	 1.9653838668	-0.927888501	 0.120639
H	-1.0866726905	 1.7951249712	 0.7250401294	 0.123708
H	-0.8608951671	-0.4651955576	-0.351439511	 0.090623
H	 1.2520007217	-1.4373272465	-1.0443708805	 0.090807
H	 2.8097011667	 0.3598797544	-1.684466838	 0.116816
H	 2.5155361419	 1.2433180958	-0.1877053057	 0.109507
H	 4.8200216931	-1.046862901	 1.4545392305	 0.117212
H	 1.1654305868	-0.2152989992	 3.0724243136	 0.108571
H	 1.6519481675	 1.066656235	 2.0012618361	 0.105311
H	 0.454584352	-1.6716931497	 1.2886457848	 0.092069
124.9217	147.7148	183.0027	215.2073	298.3509	325.8342	363.4985	452.3982	509.8045	549.5846	605.9463	753.1326	757.4252	831.8536	878.1839	914.8262	925.8279	948.7663	973.3314	988.0449	1019.0715	1023.2211	1081.2935	1108.4173	1147.8302	1153.8743	1164.1581	1182.5634	1259.329	1266.5369	1291.086	1351.734	1377.8528	1390.3281	1415.3992	1422.2409	1435.1244	1455.3126	1493.4026	1495.171	1503.1721	1520.7847	1746.9234	3031.1716	3035.6035	3054.9167	3064.6159	3091.2084	3101.7784	3113.5359	3128.8223	3132.3072	3141.7502	3155.7344
CC1C2COC=NCC12	C[C@H]1[C@H]2COC=NC[C@@H]12	
InChI=1S/C7H11NO/c1-5-6-2-8-4-9-3-7(5)6/h4-7H,2-3H2,1H3	InChI=1S/C7H11NO/c1-5-6-2-8-4-9-3-7(5)6/h4-7H,2-3H2,1H3/t5-,6+,7-/m1/s1
