21
gdb 114798	3.14995	1.24221	1.03384	1.8082	82.91	-0.2395	0.018	0.2575	1215.9698	0.184283	-387.086826	-387.078505	-387.077561	-387.119973	32.446	
O	-0.1467046186	 0.3752729351	 2.0287487891	-0.425493
C	-0.2305918582	 0.4642920253	 0.6120883416	-0.082007
C	-1.3141574144	-0.4260578112	 0.0282970578	 0.012806
C	-1.4603710451	-0.4840155073	-1.5182327134	-0.265629
C	-1.5992827242	-2.0332085253	-1.4532617361	 0.002358
C	-0.5686000021	-2.8570658535	-2.2485304179	-0.274342
C	 0.5928703462	-2.9605389654	-1.2850973246	-0.063426
C	 0.3002937326	-2.4968112787	-0.0685030209	-0.077151
C	-1.1128365638	-1.9830418394	 0.0357835651	-0.093453
H	 0.0657553923	-0.5370123312	 2.2494918525	 0.282523
H	-0.4534206234	 1.5150847915	 0.3937785734	 0.105564
H	 0.7374197078	 0.2327174629	 0.1396553774	 0.086575
H	-2.2669641695	-0.1766068068	 0.5062579406	 0.075344
H	-2.2987072545	 0.0688175658	-1.948256654	 0.098869
H	-0.545577776	-0.1760897829	-2.0357887059	 0.098482
H	-2.6267115428	-2.3725756411	-1.5933726145	 0.066838
H	-0.9427625337	-3.8534542091	-2.5218537806	 0.102946
H	-0.2902382385	-2.3657042041	-3.1902627632	 0.103522
H	 1.5472172318	-3.3911973244	-1.5705018928	 0.092008
H	 0.9921104093	-2.5046299289	 0.7689282743	 0.084115
H	-1.6930454752	-2.5204020013	 0.7939835521	 0.069554
72.1634	102.96	181.0947	229.0813	285.47	327.1771	390.4737	415.9039	540.0423	613.1429	697.0813	739.136	781.7904	799.0774	852.0316	893.6774	911.8708	942.575	957.0337	964.2815	985.4604	1023.1882	1055.7629	1056.4968	1081.7774	1108.2864	1133.5908	1144.5592	1181.4482	1199.496	1206.2086	1245.7583	1265.5952	1279.61	1304.874	1311.6253	1331.4846	1340.0277	1383.8271	1394.3152	1421.2578	1480.3765	1487.0041	1501.4293	1674.1796	2978.44	3007.6798	3035.6139	3036.5283	3046.7046	3052.8963	3065.8206	3090.2609	3108.9996	3162.6374	3193.8015	3817.8335
OCC1CC2CC=CC12	OC[C@H]1C[C@H]2CC=C[C@@H]12	
InChI=1S/C8H12O/c9-5-7-4-6-2-1-3-8(6)7/h1,3,6-9H,2,4-5H2	InChI=1S/C8H12O/c9-5-7-4-6-2-1-3-8(6)7/h1,3,6-9H,2,4-5H2/t6-,7-,8-/m1/s1
