16
gdb 84411	3.23027	1.32286	0.99883	0.7435	74.34	-0.2588	-0.0329	0.2259	1163.4567	0.125369	-434.122471	-434.114253	-434.113309	-434.155554	29.746	
C	-0.0682737097	 1.5574109844	-0.0000703604	-0.386422
C	 0.0433919547	 0.0307618169	-0.0121529302	-0.098917
N	 0.8076039272	-0.4703506719	-1.1636740136	-0.252442
C	 1.7686812456	-1.1644442305	-0.6991592263	 0.074835
N	 1.8294836514	-1.2582195742	 0.7018450341	-0.125935
C	 2.773045197	-1.9376494275	 1.4641932024	 0.091084
N	 3.7153772322	-2.5828510388	 0.9131177535	-0.450283
C	 0.7583320902	-0.5128713192	 1.2303106242	 0.411143
O	 0.5160708961	-0.3640943466	 2.4009671452	-0.361729
H	 0.9239560834	 2.0173930643	-0.0020935667	 0.130282
H	-0.6074725833	 1.8983451006	-0.8863064071	 0.138141
H	-0.6021308254	 1.8814621303	 0.8968212395	 0.142186
H	-0.9646558356	-0.4022574751	-0.0457634464	 0.133347
H	 2.5243296555	-1.6752952294	-1.2822806055	 0.17406
H	 2.5715311376	-1.8251249842	 2.5328116376	 0.139458
H	 4.3087562031	-3.0169761589	 1.6174782897	 0.241192
75.5277	153.2999	190.8112	214.239	224.5941	251.6456	323.9873	400.6897	564.738	592.7947	655.3566	730.8834	756.2836	836.7272	839.9608	905.2351	958.9324	991.5752	1081.8466	1087.5279	1107.6771	1135.8743	1149.7165	1225.7043	1287.7408	1306.523	1321.0252	1393.8506	1402.3805	1421.6043	1487.6848	1496.9658	1682.8633	1724.0562	1846.5265	3035.8621	3051.3233	3103.9509	3127.4328	3140.1975	3233.5991	3511.5553
CC1N=CN(C=N)C1=O	C[C@H]1N=CN([CH][NH])C1=O	
InChI=1S/C5H7N3O/c1-4-5(9)8(2-6)3-7-4/h2-4,6H,1H3	InChI=1S/C5H7N3O/c1-4-5(9)8(2-6)3-7-4/h2-4,6H,1H3/t4-/m1/s1
