18
gdb 85759	3.24076	1.19572	1.01598	4.1959	75.39	-0.2743	0.034	0.3083	1179.3391	0.149302	-401.96043	-401.952355	-401.95141	-401.993143	31.094	
O	-0.0611180962	 1.4466901658	 0.0853567546	-0.431525
C	-0.0080243114	 0.0318652818	 0.0114060463	 0.117438
C	 0.699675698	-0.6188758686	 1.2261656828	-0.289798
C	 0.020787039	-2.0047522359	 1.3923469167	-0.159185
C	 0.087200023	-2.5201369877	 2.7605432606	 0.274966
N	 0.1387034066	-2.9226405796	 3.8429608168	-0.327332
C	-1.4044630711	-1.8001644634	 0.8664097928	-0.041549
C	-2.1461714951	-0.5741794932	 1.3271244365	-0.281383
C	-1.4077827924	-0.5524409965	 0.0129249739	-0.043159
H	 0.8304297644	 1.7896300342	-0.0329343417	 0.285149
H	 0.4945942002	-0.279238069	-0.9182607272	 0.071425
H	 1.7811342993	-0.7066027578	 1.0983625068	 0.112906
H	 0.5230249793	 0.0036694292	 2.1064772467	 0.137081
H	 0.5233181455	-2.7350571709	 0.7463700355	 0.125415
H	-1.9670571113	-2.6837539891	 0.5901487109	 0.101586
H	-3.2280100464	-0.6167783767	 1.2784738289	 0.121855
H	-1.7680590311	 0.0045817485	 2.1622119005	 0.131654
H	-1.9789414403	-0.5028175812	-0.9064808814	 0.094456
88.9094	133.7014	168.9569	275.7466	290.7986	344.2835	398.0882	464.4277	546.5573	567.3328	592.4318	628.0401	785.4374	824.4894	842.2318	906.3628	962.7474	983.0468	998.89	1012.2242	1027.6877	1063.8026	1083.3914	1099.1349	1113.9632	1140.1948	1191.4681	1205.254	1247.2883	1268.9356	1295.4296	1336.8599	1352.9941	1357.019	1398.9011	1435.4355	1486.1743	1508.7586	2355.568	2970.9087	3035.4694	3072.4015	3119.5376	3144.7168	3178.3225	3186.8323	3226.9671	3817.9835
OC1CC(C#N)C2CC12	O[C@H]1C[C@@H](C#N)[C@H]2C[C@@H]12	
InChI=1S/C7H9NO/c8-3-4-1-7(9)6-2-5(4)6/h4-7,9H,1-2H2	InChI=1S/C7H9NO/c8-3-4-1-7(9)6-2-5(4)6/h4-7,9H,1-2H2/t4-,5+,6+,7-/m0/s1
