16
gdb 71315	3.34595	1.48297	1.18344	2.643	72.83	-0.2508	0.0215	0.2723	1020.7037	0.123563	-400.67604	-400.668553	-400.667608	-400.707933	28.915	
C	 0.0861870659	 1.4618669265	-0.2052184702	-0.533413
C	 0.0308106509	-0.0231492899	-0.0616819153	 0.46598
O	 0.5709786214	-0.8632281449	-1.1346418512	-0.350526
C	 0.0928223515	-1.8127805014	-0.1486857808	 0.06738
C	 0.55264808	-0.9715025846	 1.0775880125	-0.133837
C	-0.8490129058	-1.0787779053	 1.7377316973	-0.201979
C	-1.2860682438	 0.0103304824	 2.5971040331	 0.279345
N	-1.6299678928	 0.8838284395	 3.2729255697	-0.338187
C	-1.1753422653	-0.9897798656	 0.2219689941	-0.13385
H	 1.1240454239	 1.7928903625	-0.3060327581	 0.140987
H	-0.4662059089	 1.775706005	-1.0958711503	 0.141004
H	-0.3542217081	 1.9451976467	 0.6710150409	 0.159246
H	 0.1995417267	-2.8789426732	-0.3414399493	 0.107576
H	 1.5315539294	-0.9629530966	 1.5545323137	 0.102944
H	-1.0720017302	-2.0401376143	 2.2086044648	 0.124385
H	-2.1480469146	-1.0018911866	-0.2674222708	 0.102946
115.5977	150.8963	197.1099	267.742	299.6053	413.7984	498.2834	519.9526	585.6588	637.9868	749.3814	775.6199	786.5013	844.3604	868.316	910.993	919.6955	954.9754	1006.7478	1030.5849	1071.3	1085.3418	1113.94	1123.9737	1164.0239	1178.0663	1211.8753	1226.5495	1280.4558	1357.7127	1374.2759	1420.1372	1475.4926	1488.8325	2349.752	3045.0639	3076.3115	3117.8031	3129.5656	3130.7011	3136.2586	3146.4802
CC12OC3C1C(C#N)C23	C[C@@]12O[C@H]3[C@@H]1[C@@H](C#N)[C@@H]23	
InChI=1S/C7H7NO/c1-7-4-3(2-8)5(7)6(4)9-7/h3-6H,1H3	InChI=1S/C7H7NO/c1-7-4-3(2-8)5(7)6(4)9-7/h3-6H,1H3/t3-,4+,5-,6+,7-
