19
gdb 119305	1.94447	1.51617	1.07614	4.0978	75.68	-0.2359	0.0261	0.2621	1195.4366	0.159758	-419.191967	-419.182733	-419.181789	-419.226165	33.928	
O	 0.1699932998	 0.2161999124	-1.0656124676	-0.413865
C	-0.2756258474	 0.2435121927	 0.2895763096	-0.0979
C	-1.5390832315	-0.6038043038	 0.3939641208	-0.249776
C	-1.3155950591	-2.1168275366	 0.1848513057	 0.176358
C	-2.645804525	-2.9107625969	-0.0233108172	-0.282988
C	-2.2826635107	-2.9207606679	-1.5284449889	-0.15885
N	-0.8979819506	-2.5339965998	-1.1758067189	-0.331169
C	-0.4299595592	-2.6350301246	 1.2414965629	 0.270969
N	 0.2548368173	-3.0262780165	 2.0869881802	-0.35658
H	 1.0643751348	 0.5673871552	-1.1004648913	 0.296148
H	 0.4948704071	-0.1493582693	 0.9678437787	 0.122743
H	-0.5020756133	 1.2738339633	 0.6017301591	 0.097495
H	-1.9882068667	-0.4451599722	 1.3814286289	 0.117871
H	-2.2607629237	-0.2560220708	-0.3540761792	 0.114794
H	-2.6225042957	-3.8993491756	 0.4349092874	 0.132923
H	-3.5556672363	-2.3888211636	 0.2755955757	 0.113861
H	-2.3577297104	-3.8814511666	-2.0466771178	 0.111433
H	-2.8378174339	-2.1700982197	-2.1064160224	 0.099255
H	-0.4723361255	-1.7834618898	-1.7083786557	 0.237276
61.6313	134.6347	156.925	179.5257	198.1128	243.0503	279.2948	329.9529	383.2953	488.9586	535.508	570.8323	636.231	726.1925	786.3815	852.925	895.7698	937.9379	958.9554	979.3195	1012.5617	1044.4121	1064.5904	1107.9838	1128.3828	1165.8033	1183.4712	1213.2006	1244.9376	1265.3791	1276.7619	1311.184	1342.3934	1372.4271	1400.6242	1456.5154	1462.9616	1485.2015	1523.787	1531.2813	2347.9592	2988.7534	3011.8231	3026.4782	3041.1073	3071.179	3084.3615	3090.1224	3150.9317	3547.0908	3836.5937
OCCC1(CCN1)C#N	OCC[C@]1(CCN1)C#N	
InChI=1S/C6H10N2O/c7-5-6(2-4-9)1-3-8-6/h8-9H,1-4H2	InChI=1S/C6H10N2O/c7-5-6(2-4-9)1-3-8-6/h8-9H,1-4H2/t6-/m1/s1
