14
gdb 52016	2.79462	0.83531	0.66366	2.3054	68.06	-0.2789	-0.0565	0.2224	1554.5953	0.098883	-432.864659	-432.855224	-432.85428	-432.900584	31.197	
O	-0.2775287658	-0.0476353907	-0.3932266662	-0.22033
C	 0.1698611694	 1.0026409522	-0.0225028472	 0.149385
C	 1.3301303618	 1.7135324638	-0.7095961294	-0.243785
N	 1.2380464468	 3.1546187301	-0.4924184745	-0.291321
C	 2.4387390642	 3.9017166789	-0.8373497134	-0.247405
C	 2.8150536315	 3.8239475795	-2.2737113053	 0.294933
N	 3.0619951311	 3.6926166809	-3.3943034058	-0.300934
C	 2.2898053342	 5.310676848	-0.4324230276	 0.308836
N	 2.1642196233	 6.4106694338	-0.1079052817	-0.288023
H	-0.2178487188	 1.5366001251	 0.8729334898	 0.101107
H	 2.2473528329	 1.3527919816	-0.2211737984	 0.147521
H	 1.3769199865	 1.3998174462	-1.7616669399	 0.149927
H	 0.4402007828	 3.5471248652	-0.9828139582	 0.254893
H	 3.27398951	 3.4799416553	-0.261908792	 0.185197
56.3936	63.4736	92.1445	130.3344	140.1917	220.5501	262.2661	350.55	378.7207	466.3483	553.9172	579.7184	632.6806	729.2676	788.753	895.6423	999.6553	1022.597	1065.1037	1130.4556	1153.5762	1243.1391	1299.8776	1309.6854	1356.3077	1406.9024	1473.8928	1508.8083	1846.9548	2356.8509	2379.0133	2899.5874	3004.9744	3032.7219	3047.7351	3525.787
O=CCNC(C#N)C#N	O=CCNC(C#N)C#N	
InChI=1S/C5H5N3O/c6-3-5(4-7)8-1-2-9/h2,5,8H,1H2	InChI=1S/C5H5N3O/c6-3-5(4-7)8-1-2-9/h2,5,8H,1H2
