23
gdb 101176	3.39889	0.95942	0.87783	1.2905	86.34	-0.2629	0.0783	0.3411	1432.2699	0.206066	-388.234092	-388.224809	-388.223864	-388.26851	35.503	
C	-0.0107630628	 1.4516514494	-0.0917127624	-0.392881
C	 0.0045737565	-0.0832657894	-0.1450990126	-0.032575
C	 0.715971078	-0.5819636458	-1.4056241696	-0.072634
O	 0.0056339441	-0.1064264985	-2.5410916416	-0.424745
C	 0.6808267126	-0.6654382467	 1.0937635364	 0.07648
C	 0.0095634583	-0.6238234663	 2.5071692725	-0.062718
C	-0.9175614388	-1.792482821	 2.0591952046	-0.223339
C	 0.5040948655	-2.1582623305	 1.5386735403	-0.063788
C	 1.0347850279	-1.7144836694	 2.9324353515	-0.220885
H	 1.0064739547	 1.8482535832	 0.0161338783	 0.104084
H	-0.4371928414	 1.8625750856	-1.0093796917	 0.131401
H	-0.5995643231	 1.8117761106	 0.7575034901	 0.109247
H	-1.0313803657	-0.4322349072	-0.2180978071	 0.081697
H	 1.7574982271	-0.2178211239	-1.4082944284	 0.079573
H	 0.7534050613	-1.6827341738	-1.3985137402	 0.08439
H	 0.4826125965	-0.3779779145	-3.3302442616	 0.28526
H	 1.7289770826	-0.3355264632	 1.11539583	 0.054129
H	-0.2755355346	 0.2639205229	 3.07452593	 0.067158
H	-1.3122766628	-2.4251668811	 2.8592363908	 0.086997
H	-1.6914425221	-1.5768923522	 1.3216429851	 0.095842
H	 0.7923875718	-3.0533283891	 0.9839738451	 0.064645
H	 2.0840999745	-1.4105646438	 2.9871494281	 0.085731
H	 0.7526003798	-2.3419110555	 3.7821439924	 0.086931
53.9029	99.3128	137.3974	210.3703	238.1749	244.8056	276.2202	361.5765	408.963	454.3025	568.4836	603.5998	775.9281	805.992	859.8609	878.7594	881.9575	899.6588	904.8484	930.1434	996.2597	1009.2788	1017.0061	1029.7263	1067.5091	1074.7426	1105.5283	1113.3681	1130.3599	1147.1449	1158.9663	1181.7106	1192.2807	1216.4889	1229.8721	1249.3199	1255.9809	1266.8101	1272.1474	1320.0941	1357.8125	1399.0514	1433.7862	1456.2657	1493.0563	1503.5431	1505.4312	1520.5575	1540.828	2955.418	2989.6049	3003.0281	3028.2362	3046.2453	3048.9515	3060.4134	3088.3825	3094.4017	3097.7071	3112.4068	3127.2405	3128.1779	3833.2806
CC(CO)C1C2CC1C2	C[C@@H](CO)[C@H]1[C@H]2C[C@@H]1C2	
InChI=1S/C8H14O/c1-5(4-9)8-6-2-7(8)3-6/h5-9H,2-4H2,1H3	InChI=1S/C8H14O/c1-5(4-9)8-6-2-7(8)3-6/h5-9H,2-4H2,1H3/t5-,6-,7+,8-/m0/s1
