20
gdb 87501	2.99198	1.43223	1.16679	1.3934	79.86	-0.2313	0.0735	0.3048	1116.5418	0.170728	-403.055211	-403.046946	-403.046001	-403.087554	32.955	
C	-0.1519253014	 1.4619456768	-0.0333645396	-0.321322
N	 0.0476529998	 0.0192642684	 0.0407723817	-0.175145
C	 1.4265725459	-0.4585104201	-0.1952038543	-0.400633
C	 0.7945231236	-0.5060726756	 1.145909409	 0.44921
C	 1.1608753069	 0.0937960914	 2.5255526617	-0.196904
C	-0.2070230169	-0.480247176	 3.0114015314	-0.231281
C	 0.3962003615	-1.6203248543	 2.135421479	-0.187962
C	 1.7474038626	-1.3183933991	 2.8664196382	 0.190999
O	 2.9698873415	-1.7432040917	 2.3457629134	-0.449223
H	 0.6906127044	 2.0452350236	 0.372044195	 0.102047
H	-0.2982021393	 1.7506173658	-1.0787686193	 0.12474
H	-1.0549002821	 1.7324404648	 0.5228617704	 0.125446
H	 1.513779193	-1.3437047595	-0.8215314807	 0.121756
H	 2.1931609923	 0.2977319259	-0.3685397259	 0.111212
H	 1.5959322683	 1.0671859913	 2.7524018467	 0.078103
H	-0.2932679402	-0.6841619698	 4.0822492989	 0.093674
H	-1.1022767679	 0.0009912616	 2.617556943	 0.110059
H	-0.0444488873	-2.5902502142	 1.9061785821	 0.080288
H	 1.7579843217	-1.5615581634	 3.9313397252	 0.084584
H	 2.9845356737	-1.5362761957	 1.4051301841	 0.290351
137.9699	148.3645	210.8551	221.6874	305.9998	337.1406	394.0603	417.8931	439.1356	496.0249	599.8456	654.8842	763.1609	800.4289	832.8388	872.2961	890.2373	891.8649	962.1634	1004.9274	1016.3929	1050.9724	1058.3441	1085.7623	1096.9252	1107.58	1134.1272	1149.8151	1169.3145	1178.1789	1187.7401	1206.5668	1223.7689	1251.4901	1257.1772	1300.2646	1429.1103	1449.4917	1451.9233	1492.2386	1496.065	1507.7521	1526.8312	2972.3877	3062.1152	3069.986	3075.5839	3092.2088	3104.938	3116.0127	3124.1588	3141.6916	3162.1196	3810.2926
CN1CC11C2CC1C2O	CN1C[C@]21[C@H]1C[C@@H]2[C@H]1O	
InChI=1S/C7H11NO/c1-8-3-7(8)4-2-5(7)6(4)9/h4-6,9H,2-3H2,1H3	InChI=1S/C7H11NO/c1-8-3-7(8)4-2-5(7)6(4)9/h4-6,9H,2-3H2,1H3/t4-,5+,6-,7-,8?
