21
gdb 83256	1.8043	1.70497	1.48774	1.2616	77.47	-0.2178	0.0709	0.2886	1088.7441	0.181716	-424.210377	-424.20103	-424.200086	-424.243972	35.525	
C	-0.0443422062	 1.7818723526	-0.2295464512	-0.427087
C	 0.1350667283	 0.2844138008	-0.1063531646	-0.07469
C	 1.4366131236	-0.4542682849	-0.3715349267	-0.004733
O	 2.6384005935	 0.272186417	-0.343646439	-0.264562
C	 2.8444514294	 0.8200773505	 0.966124877	-0.102193
C	 1.8402098718	 0.1568641838	 1.9341301448	-0.060932
C	 1.2769356403	 1.0868221778	 3.0102731817	-0.411978
C	 0.8187381157	-0.4889145077	 1.0005355842	 0.33633
O	 0.0872266331	-1.5689747558	 1.5024384611	-0.472309
H	 0.8710945239	 2.3364140231	-0.0192436121	 0.12877
H	-0.3425299095	 2.0358355963	-1.2524477091	 0.121504
H	-0.8275641339	 2.1469988432	 0.443312727	 0.121148
H	-0.7215156691	-0.2865849432	-0.4601441695	 0.098389
H	 1.4698285594	-1.3013153126	-1.0486141541	 0.098087
H	 3.8857736095	 0.6351121294	 1.2510307933	 0.106437
H	 2.6990498539	 1.9080710397	 0.9385636688	 0.100655
H	 2.3414211825	-0.6831015913	 2.4380401364	 0.064952
H	 0.7891994891	 1.9597728335	 2.5666930892	 0.122967
H	 0.5363944806	 0.5582681618	 3.6178994291	 0.12848
H	 2.0670337012	 1.4451568998	 3.6787809233	 0.112979
H	 0.7096613628	-2.2665739039	 1.7407605504	 0.277786
114.9793	119.92	172.2822	205.1355	213.2888	247.3022	282.101	336.5405	351.7326	400.9514	538.1156	561.3342	587.3724	672.097	707.8254	779.3639	901.241	914.2894	930.646	954.7555	978.9298	1011.0814	1050.3227	1077.8742	1116.914	1124.5146	1137.3116	1151.4687	1162.43	1224.3505	1245.426	1254.5897	1310.3528	1323.2643	1356.1174	1362.3609	1400.6178	1410.5552	1417.0495	1469.0286	1490.8811	1496.3494	1501.2486	1505.1265	1535.6654	2984.6353	3014.0419	3036.6935	3038.9802	3060.9705	3091.4811	3102.9826	3116.6219	3125.1355	3144.467	3168.4308	3774.5714
CC1C2OCC(C)C12O	C[C@H]1[C@H]2OC[C@@H](C)[C@@]12O	
InChI=1S/C7H12O2/c1-4-3-9-6-5(2)7(4,6)8/h4-6,8H,3H2,1-2H3	InChI=1S/C7H12O2/c1-4-3-9-6-5(2)7(4,6)8/h4-6,8H,3H2,1-2H3/t4-,5+,6-,7-/m1/s1
