17
gdb 11246	5.20643	1.3079	1.14877	3.9338	74.06	-0.2115	-0.003	0.2085	1053.1127	0.143042	-363.902587	-363.894794	-363.89385	-363.935419	28.29	
C	 0.0132886921	 1.5681589311	 0.0046055851	-0.39067
C	-0.0149080682	 0.0312098911	 0.0025989471	-0.037169
C	 0.7650215968	-0.5962583362	-1.1957009014	-0.19528
N	 1.9148750525	-1.2747455277	-0.5726278916	-0.054633
C	 2.94398479	-1.8691778153	-1.2397071953	 0.141291
O	 3.8704549262	-2.4500003843	-0.7127653888	-0.331508
C	 1.7711368963	-1.2551408217	 0.8217134858	 0.009618
C	 0.6933030726	-0.5698045905	 1.2017032471	-0.167088
H	 1.0439664123	 1.9375208725	 0.0201705204	 0.124973
H	-0.4839056892	 1.9727536201	-0.88374721	 0.115295
H	-0.4987185848	 1.9665721329	 0.886295484	 0.119915
H	-1.0626759207	-0.2899519765	-0.0355635135	 0.089472
H	 0.1502075336	-1.3213048258	-1.7392779734	 0.122406
H	 1.1038043976	 0.1634996204	-1.9066482008	 0.121349
H	 2.8392989311	-1.7594644246	-2.3369034808	 0.071209
H	 2.5162452522	-1.773434156	 1.4062833396	 0.15441
H	 0.3809763798	-0.4108287994	 2.2240292067	 0.106409
35.4665	141.4908	212.4322	240.0308	264.7333	327.7168	350.564	496.9426	565.1804	738.1169	758.461	783.6568	835.8684	903.2535	934.2069	941.9784	949.8524	1023.4857	1040.1777	1095.4389	1122.9292	1147.5376	1236.204	1242.7492	1291.7375	1316.5226	1340.7874	1354.7834	1405.6319	1438.9715	1447.4593	1494.5488	1497.9257	1515.3562	1682.7394	1788.8069	2940.7765	3022.1136	3029.2957	3041.236	3081.823	3100.302	3107.6981	3233.5696	3267.7269
CC1CN(C=O)C=C1	C[C@H]1CN(C=O)C=C1	
InChI=1S/C6H9NO/c1-6-2-3-7(4-6)5-8/h2-3,5-6H,4H2,1H3	InChI=1S/C6H9NO/c1-6-2-3-7(4-6)5-8/h2-3,5-6H,4H2,1H3/t6-/m1/s1
