18
gdb 126513	3.17551	0.99404	0.8008	4.0579	76.01	-0.2262	-0.0291	0.197	1441.5965	0.146976	-435.253893	-435.244482	-435.243538	-435.289414	33.06	
C	-0.1952981821	 1.6386103726	 0.1006516009	-0.382545
C	-0.1271494311	 0.1122626764	 0.0263723898	-0.164119
C	 0.7668989891	-0.4891287139	 1.1303977543	-0.310798
C	 0.8467736929	-1.973304627	 1.0955260692	 0.383941
C	 1.8245219951	-2.8541860571	 0.7300550484	 0.146775
N	 3.1338438709	-2.6212354814	 0.2982573437	-0.60403
N	 1.3199405032	-4.118375622	 0.9248920955	-0.17083
N	 0.1376691849	-4.060819198	 1.3690803112	-0.02531
O	-0.2189225453	-2.697934012	 1.4751765975	-0.216621
H	 0.7976023477	 2.0877409889	-0.0131129016	 0.117018
H	-0.8364743431	 2.043098453	-0.6879691865	 0.119831
H	-0.60019668	 1.9703771203	 1.0629506566	 0.121192
H	-1.1324157469	-0.3143144117	 0.1156340855	 0.120992
H	 0.2533087517	-0.1993254379	-0.9540395349	 0.099849
H	 1.786844703	-0.0974423236	 1.0444539028	 0.123586
H	 0.3878088011	-0.1754647989	 2.1110107443	 0.129715
H	 3.1792310718	-2.1278443035	-0.5851838148	 0.252968
H	 3.6348365773	-3.4971217141	 0.2098485684	 0.258387
45.6968	75.4455	87.3737	117.2994	237.5725	252.4726	284.0781	312.1165	380.2968	458.1769	655.5984	695.6322	723.0894	727.56	752.9403	778.991	816.6946	876.8325	898.4002	1015.8564	1044.0235	1081.4613	1101.0478	1109.8692	1224.2333	1260.0098	1287.1651	1315.6044	1335.9665	1381.3128	1414.6871	1420.0071	1442.7908	1476.82	1492.4898	1499.3859	1509.2441	1651.1628	1680.7855	3026.0615	3031.6192	3037.5885	3061.5913	3082.0942	3102.2992	3108.9959	3529.5085	3614.9771
CCCC1=C(N)N=NO1	CCCc1c(N)nno1	
InChI=1S/C5H9N3O/c1-2-3-4-5(6)7-8-9-4/h2-3,6H2,1H3	InChI=1S/C5H9N3O/c1-2-3-4-5(6)7-8-9-4/h2-3,6H2,1H3
