16
gdb 15702	3.63102	1.69564	1.22003	2.0678	60.43	-0.2555	-0.0404	0.2152	952.1571	0.130794	-420.890068	-420.88258	-420.881636	-420.922134	27.483	
O	-0.0118061559	 1.4734401996	-0.1315561492	-0.422699
C	 0.0478760446	 0.0665146885	-0.1337350921	-0.072599
C	-1.3447928748	-0.563071712	 0.0162634026	-0.137368
C	-1.4365665802	-2.0935046257	 0.0154244618	-0.112837
O	-2.6002362885	-2.4114645333	 0.7858729105	-0.247418
C	-2.6845913782	-1.4881868932	 1.8506049772	-0.176666
C	-1.9728732073	-0.226280318	 1.3670844003	 0.372118
O	-1.878355419	 0.8196792155	 1.9643524129	-0.32411
H	-0.4825693787	 1.7247722268	 0.675623987	 0.297864
H	 0.4931318939	-0.2337580775	-1.0885152925	 0.112721
H	 0.7038676572	-0.3192006561	 0.6655632578	 0.088448
H	-2.0018048064	-0.1463534377	-0.7587038802	 0.125822
H	-1.5715953486	-2.5305724148	-0.9753689206	 0.126081
H	-0.5366661793	-2.5375051985	 0.472750819	 0.100216
H	-3.7337336109	-1.2990270636	 2.0970896165	 0.144815
H	-2.1786240079	-1.8491136002	 2.762493509	 0.12561
85.0609	147.8291	188.9957	216.7986	306.7119	392.2775	460.2456	545.8193	580.8135	627.4555	663.292	740.4119	913.8897	943.8019	950.3729	1020.2074	1066.833	1092.3938	1099.425	1117.5016	1165.4018	1201.3344	1218.7752	1244.9555	1275.1325	1313.6425	1327.4674	1387.4419	1394.4014	1459.1997	1473.9628	1510.3489	1518.0953	1830.5044	2956.0953	2966.6983	2973.3992	3033.5562	3064.5468	3085.5189	3113.4521	3737.7585
OCC1COCC1=O	OC[C@H]1COCC1=O	
InChI=1S/C5H8O3/c6-1-4-2-8-3-5(4)7/h4,6H,1-3H2	InChI=1S/C5H8O3/c6-1-4-2-8-3-5(4)7/h4,6H,1-3H2/t4-/m0/s1
