21
gdb 105641	1.97051	1.37041	1.23156	4.4209	83.3	-0.2368	0.0307	0.2676	1212.4915	0.182048	-383.26648	-383.256612	-383.255668	-383.300944	36.489	
C	 0.0420429691	 1.5162120928	 0.1456446742	-0.340667
N	-0.0796092355	 0.0712281942	-0.0385529779	-0.321723
C	 0.641098829	-0.473646455	-1.1802351583	 0.134594
C	 2.2146203573	-0.5038673732	-1.0750165501	-0.262315
C	 2.1233867398	-1.9763842996	-0.600173647	-0.247923
C	 0.6827763863	-2.0515775957	-1.1745929338	 0.002336
C	-0.4007516632	-2.8303176133	-0.4477564683	-0.410403
C	 0.1146671534	 0.1179031394	-2.4135681104	 0.281766
N	-0.2668889739	 0.5619277195	-3.4106630621	-0.356166
H	 1.0785487287	 1.8811030106	 0.2348005468	 0.103729
H	-0.4233205298	 2.0306688362	-0.7001664361	 0.153586
H	-0.499637162	 1.8007385341	 1.051439798	 0.125473
H	 0.225198691	-0.4092387584	 0.8005049493	 0.224267
H	 2.6944996422	-0.4076583519	-2.0512661082	 0.123329
H	 2.6528073038	 0.2281383913	-0.3933149581	 0.110878
H	 2.8552710778	-2.6776187251	-1.0051911206	 0.109036
H	 2.1355706926	-2.063622437	 0.4910585524	 0.100744
H	 0.7318982249	-2.3813930456	-2.2165183422	 0.100378
H	-0.4904844008	-2.5371544133	 0.6024191604	 0.112211
H	-1.3779107266	-2.6827167223	-0.9169721759	 0.136587
H	-0.170197534	-3.9007904278	-0.473931342	 0.120285
93.4026	116.7632	146.8901	175.6339	183.5462	207.8897	228.5252	293.4353	349.0057	405.2612	485.8124	538.5069	563.7286	602.7063	686.8702	754.5084	782.2783	889.5457	904.42	946.4786	955.2188	988.1024	1033.6264	1081.1888	1088.4283	1136.7727	1161.5511	1169.1561	1178.0447	1223.4085	1247.3826	1259.853	1268.9606	1321.303	1377.2855	1413.5881	1459.0949	1473.0593	1479.3948	1488.5432	1493.1122	1496.7158	1502.3413	1521.2089	2350.5839	2969.4605	3037.2818	3052.0765	3063.4653	3071.0023	3078.1999	3102.9671	3110.5469	3114.371	3120.3861	3129.7826	3536.9866
CNC1(CCC1C)C#N	CN[C@]1(CC[C@H]1C)C#N	
InChI=1S/C7H12N2/c1-6-3-4-7(6,5-8)9-2/h6,9H,3-4H2,1-2H3	InChI=1S/C7H12N2/c1-6-3-4-7(6,5-8)9-2/h6,9H,3-4H2,1-2H3/t6-,7-/m1/s1
