22
gdb 107175	3.10973	1.16843	1.00433	1.2784	87.21	-0.1966	0.0769	0.2735	1311.5113	0.192991	-367.127361	-367.118358	-367.117414	-367.160761	35.319	
C	-0.2572248731	 1.4988848926	 0.0248367512	-0.370762
C	 0.0277289003	-0.0097394301	 0.0347201024	-0.292197
C	 0.7810181716	-0.4710108275	-1.1814234238	 0.355652
C	 0.1447317124	-0.8437827621	-2.4961472367	-0.337032
C	 0.9673903597	-1.8718814541	-1.755338483	-0.164265
C	 2.4933109307	-1.603007759	-1.8825859115	-0.032507
C	 2.3204236873	-0.2349861869	-1.3454380285	-0.102087
N	 2.7228830126	-0.4314634411	-2.7518561717	-0.101201
C	 4.1377249547	-0.1599751667	-2.9833371042	-0.321185
H	 0.6719856845	 2.0762823603	-0.0311971509	 0.115287
H	-0.8690787955	 1.7752407598	-0.8396991441	 0.120748
H	-0.7874985683	 1.8081598981	 0.9310312545	 0.108299
H	 0.5956431734	-0.2684895095	 0.9394671678	 0.092641
H	-0.9169840859	-0.5637556041	 0.1000685236	 0.096256
H	-0.9273290561	-1.0105691331	-2.4380183298	 0.100453
H	 0.501770587	-0.4272856883	-3.4288937414	 0.13228
H	 0.555500004	-2.8062966786	-1.3948511989	 0.085127
H	 3.2836185757	-2.3228526518	-1.7100843952	 0.088276
H	 2.9457977333	 0.3316170595	-0.6656219626	 0.08426
H	 4.7894142623	-0.4152048225	-2.1296059243	 0.095302
H	 4.4750777572	-0.7336116302	-3.8525330983	 0.123583
H	 4.2669157021	 0.9046162052	-3.2034120645	 0.123072
82.5816	129.1032	182.994	237.2991	239.3244	277.0698	322.8795	361.626	425.534	428.2197	532.7037	645.8142	762.4523	783.4062	796.7773	814.0424	843.0641	857.7827	881.0159	929.1459	957.2556	970.1623	996.3423	1001.5617	1035.8466	1082.3004	1096.7541	1111.734	1124.0734	1141.5419	1158.5955	1203.3696	1217.0914	1262.0605	1273.9632	1318.8998	1334.5128	1361.1472	1398.0435	1408.765	1449.9627	1470.1864	1482.4912	1491.6725	1497.8209	1499.7437	1506.2752	2951.9557	3006.5588	3032.7234	3046.8312	3063.0772	3099.9755	3101.2289	3107.1866	3130.9108	3176.8935	3185.0658	3195.8878	3230.0264
CCC12CC1C1C2N1C	CC[C@]12C[C@H]1[C@@H]1[C@H]2N1C	
InChI=1S/C8H13N/c1-3-8-4-5(8)6-7(8)9(6)2/h5-7H,3-4H2,1-2H3	InChI=1S/C8H13N/c1-3-8-4-5(8)6-7(8)9(6)2/h5-7H,3-4H2,1-2H3/t5-,6+,7+,8-,9?/m0/s1
