20
gdb 50094	4.003	0.75685	0.70287	3.2805	81.16	-0.2476	-0.0259	0.2217	1633.799	0.170218	-403.115651	-403.106459	-403.105515	-403.150838	33.583	
O	-0.1821312014	 0.2828672555	 0.7730903977	-0.260497
C	 0.2910766168	 0.7087891801	-0.2511252244	 0.176196
C	 1.4256001633	 1.671371581	-0.2972127196	-0.139275
N	 2.1838751453	 1.7086364166	-1.5683558947	-0.328813
C	 1.4139901302	 2.8849059949	-1.1895069712	 0.009288
C	 0.2520180485	 3.2905703346	-2.0740704072	-0.231404
C	 0.6831940634	 4.2328985577	-3.1805509968	 0.030223
C	 1.3014694792	 3.6886167243	-4.4444321307	-0.250656
C	-0.0830792656	 4.2886507034	-4.4774876633	-0.280543
H	-0.0876957878	 0.3983256037	-1.2486579754	 0.083866
H	 1.9568054748	 1.7678014816	 0.646721274	 0.103794
H	 3.1748399517	 1.8280853941	-1.379078171	 0.242946
H	 1.9694189118	 3.7282626979	-0.7770946453	 0.094161
H	-0.1993209089	 2.3952878109	-2.5135102261	 0.104326
H	-0.5200656114	 3.7680257197	-1.4560099458	 0.107763
H	 1.0822927432	 5.1813445407	-2.8272517103	 0.080077
H	 2.1127177756	 4.2422646569	-4.9041057024	 0.109064
H	 1.3923801059	 2.6115343658	-4.5322839369	 0.125149
H	-0.92562008	 3.6151329719	-4.5967947171	 0.112311
H	-0.2168791347	 5.2524390988	-4.9560190933	 0.112024
51.2607	72.1724	83.5958	144.6834	238.4988	282.5135	342.4272	361.0481	442.2317	462.9053	527.5338	773.6527	798.6978	802.8291	842.7214	851.9438	904.4006	921.9555	947.0162	981.9675	1019.6857	1025.4053	1047.7559	1057.9616	1079.1487	1094.3396	1139.0158	1151.8796	1198.2739	1208.4169	1226.9925	1234.6507	1247.9677	1285.6701	1323.1854	1364.4946	1413.3534	1422.1886	1468.6405	1470.9561	1476.2205	1508.9694	1820.6256	2903.2348	3022.7908	3076.9722	3100.2392	3127.9304	3130.7729	3138.1086	3146.2585	3209.5175	3225.4212	3516.0627
O=CC1NC1CC1CC1	O=C[C@H]1N[C@H]1CC1CC1	
InChI=1S/C7H11NO/c9-4-7-6(8-7)3-5-1-2-5/h4-8H,1-3H2	InChI=1S/C7H11NO/c9-4-7-6(8-7)3-5-1-2-5/h4-8H,1-3H2/t6-,7+/m0/s1
