23
gdb 117940	2.8526	0.7737	0.64469	2.7648	83.61	-0.2617	-0.0231	0.2386	1830.9799	0.202665	-425.460531	-425.449285	-425.44834	-425.497977	39.823	
C	 0.0658772106	 1.5438571597	 0.1819025929	-0.385325
C	-0.0384903716	 0.0270449494	 0.0059552001	-0.163245
C	 0.7864990339	-0.4914876425	-1.1765749668	-0.188816
C	 0.6367576304	-2.0123107561	-1.3720553056	 0.036981
O	-0.7113350476	-2.3625012793	-1.5418910922	-0.438703
C	 1.4518742575	-2.5254274417	-2.5646013944	 0.361396
O	 0.8707807246	-3.1026339892	-3.4616445102	-0.329415
C	 2.9513688369	-2.303123487	-2.5822482278	-0.283087
C	 3.6778776849	-3.1400371257	-3.634684256	-0.380521
H	 1.1015894323	 1.8567486079	 0.3576338967	 0.109492
H	-0.2910411408	 2.0715714961	-0.709603858	 0.11553
H	-0.5329611782	 1.8861084134	 1.0315766889	 0.11452
H	 0.2947352961	-0.4754206545	 0.9239892795	 0.091809
H	-1.0822996038	-0.2651492738	-0.1439722576	 0.125921
H	 0.4656111288	 0.0100673617	-2.0992481936	 0.101951
H	 1.8449959685	-0.2448614509	-1.0247129742	 0.092141
H	 1.0413921241	-2.5142250694	-0.4735691118	 0.083112
H	-0.7438140573	-2.8261099038	-2.3952999808	 0.291652
H	 3.1161705723	-1.2314631878	-2.761819682	 0.138526
H	 3.3452428814	-2.4873452996	-1.574720989	 0.122641
H	 4.7469887545	-2.9117562131	-3.6357218899	 0.114266
H	 3.5546411735	-4.2088736111	-3.4394773728	 0.12984
H	 3.2767727489	-2.9416824524	-4.6308954254	 0.139335
49.5179	61.4135	96.2816	104.6554	121.2981	194.0421	215.1901	252.2594	283.6365	329.0536	356.2042	400.0409	465.7706	494.7188	579.0327	689.4543	750.4912	774.783	838.3187	875.0499	905.489	970.8808	996.5938	1038.9286	1051.4357	1059.6156	1106.8257	1128.2639	1144.5113	1188.7686	1245.833	1267.6445	1285.711	1304.6599	1330.4158	1365.9419	1377.8085	1386.8004	1412.629	1413.4373	1441.3234	1453.3156	1474.2325	1493.5378	1494.2031	1499.8959	1500.5961	1510.3635	1786.3123	2935.0012	3013.4955	3021.5225	3025.0729	3028.3514	3052.6671	3055.842	3057.9023	3078.8568	3101.0835	3102.9636	3122.12	3134.5421	3663.1683
CCCC(O)C(=O)CC	CCC[C@@H](O)C(=O)CC	
InChI=1S/C7H14O2/c1-3-5-7(9)6(8)4-2/h7,9H,3-5H2,1-2H3	InChI=1S/C7H14O2/c1-3-5-7(9)6(8)4-2/h7,9H,3-5H2,1-2H3/t7-/m1/s1
