23
gdb 96424	2.05825	1.45918	1.01733	2.9055	85.34	-0.2406	-0.0199	0.2207	1273.3252	0.206583	-388.328092	-388.31875	-388.317806	-388.363128	35.427	
C	-0.0343771529	 1.571573424	-0.0791868313	-0.414109
C	 0.0455324491	 0.041196532	-0.0378905261	 0.018716
C	 0.6460699745	-0.5445549579	-1.330283663	-0.190975
C	 0.7002021575	-2.077446166	-1.3005860026	-0.196699
C	 1.4647355737	-2.5872258625	-0.0719231624	-0.191642
C	 0.8728330853	-2.01872013	 1.2267895728	-0.230245
C	 0.7773026161	-0.4706254398	 1.2323524469	-0.066863
C	 2.1553381477	 0.1384958869	 1.4069372731	 0.16176
O	 2.5366154001	 0.6683234198	 2.4210717606	-0.259178
H	 0.9578818391	 2.0256981227	-0.1836241715	 0.120786
H	-0.6401623966	 1.9078749129	-0.9268846266	 0.113085
H	-0.483312285	 1.9707950945	 0.8362105098	 0.120114
H	-0.9814346685	-0.345414341	 0.0396546003	 0.075623
H	 0.0502366437	-0.2041502694	-2.1856233185	 0.093727
H	 1.656439174	-0.1436529112	-1.4898442672	 0.096197
H	-0.3245576532	-2.473861746	-1.2768586475	 0.093622
H	 1.1588836633	-2.45759602	-2.2200377796	 0.093078
H	 1.4400433068	-3.6819502006	-0.0356468651	 0.096804
H	 2.5231043726	-2.3089008862	-0.1591269256	 0.099106
H	-0.1438970544	-2.4121874984	 1.3566436927	 0.101639
H	 1.4484629277	-2.3565754801	 2.0957195524	 0.1073
H	 0.2131423128	-0.1598148134	 2.1188010316	 0.085823
H	 2.8384446165	 0.0569607997	 0.5311707969	 0.072329
19.3263	110.3444	176.0385	219.6629	234.6169	289.7758	307.0626	341.1056	395.7941	440.4083	460.4049	536.8648	593.6503	780.5601	811.6552	837.4533	879.314	889.7822	955.2178	973.0079	976.1503	988.6917	1015.3289	1059.1997	1096.7434	1103.2723	1116.0321	1154.3167	1175.4886	1235.7294	1259.2897	1279.8368	1308.9968	1321.5806	1339.3204	1356.5622	1372.3577	1380.1884	1389.4174	1395.306	1418.2263	1438.5351	1483.7767	1489.4406	1491.8572	1495.4739	1500.6713	1505.9817	1822.4916	2868.5979	2989.4643	3009.8182	3016.4329	3018.1706	3024.1436	3028.5448	3049.1272	3055.8323	3064.0939	3064.9381	3071.9401	3093.6573	3102.2307
CC1CCCCC1C=O	C[C@H]1CCCC[C@H]1C=O	
InChI=1S/C8H14O/c1-7-4-2-3-5-8(7)6-9/h6-8H,2-5H2,1H3	InChI=1S/C8H14O/c1-7-4-2-3-5-8(7)6-9/h6-8H,2-5H2,1H3/t7-,8-/m0/s1
