20
gdb 62495	2.0585	1.42329	1.1752	3.4242	81.05	-0.2589	0.0326	0.2915	1181.3039	0.167867	-403.16387	-403.153571	-403.152626	-403.198172	38.399	
C	-0.0912998674	 1.5361274947	-0.0017645187	-0.459464
C	-0.0064529398	 0.0218867371	 0.0588945033	 0.246437
C	-1.2085595985	-0.6754949473	-0.5536266079	-0.445916
C	 1.3615629356	-0.652935086	-0.190001506	-0.318111
C	 2.5366965233	 0.1197850526	-0.4523568803	 0.297371
N	 3.4866521162	 0.7540037828	-0.6461350658	-0.358135
C	 0.6974329332	-0.6480774289	 1.2038872062	 0.366922
C	 1.3230681763	 0.1154730938	 2.3485922235	-0.464292
O	 0.1285194855	-1.8656057259	 1.5930495756	-0.453793
H	 0.8267135282	 2.0315773557	 0.3179826302	 0.13964
H	-0.2926223133	 1.8565571581	-1.0293358512	 0.129387
H	-0.9131426842	 1.896672481	 0.6263175796	 0.123293
H	-1.3088887719	-0.3988177298	-1.6083751031	 0.120319
H	-1.1326863872	-1.760144895	-0.4775995531	 0.137305
H	-2.1256403396	-0.3684578922	-0.0388427725	 0.124165
H	 1.3226125533	-1.6070196357	-0.7052224739	 0.127929
H	 1.8207389093	 1.0297639606	 2.0241055873	 0.14739
H	 0.5601610456	 0.3703234254	 3.0904886169	 0.133373
H	 2.0806549654	-0.5063875329	 2.8409595927	 0.119096
H	 0.8086929802	-2.3845313082	 2.0372166371	 0.287083
121.9411	138.9999	171.5062	182.7652	190.7504	212.1321	260.4808	303.5728	333.8409	359.3977	386.5959	404.0484	442.4898	475.1587	552.992	607.3836	684.3513	707.0138	850.235	941.7416	950.8637	977.5487	1004.583	1029.4574	1071.8796	1087.4924	1151.1196	1167.3653	1191.4666	1283.1832	1304.8403	1315.7144	1412.5875	1416.8655	1428.9229	1447.6469	1478.8282	1485.791	1491.6258	1494.7537	1508.2761	1523.1718	2338.0304	3033.2219	3036.3221	3041.1913	3094.5611	3096.7911	3099.0854	3132.9942	3149.2038	3149.4964	3168.3564	3794.4411
CC1(C)C(C#N)C1(C)O	CC1(C)[C@@H](C#N)[C@]1(C)O	
InChI=1S/C7H11NO/c1-6(2)5(4-8)7(6,3)9/h5,9H,1-3H3	InChI=1S/C7H11NO/c1-6(2)5(4-8)7(6,3)9/h5,9H,1-3H3/t5-,7+/m1/s1
