17
gdb 48872	3.38073	1.55628	1.30661	3.0549	76.6	-0.2311	-0.0259	0.2052	982.4158	0.136806	-384.667545	-384.660585	-384.659641	-384.698955	28.017	
O	-0.1444034848	-0.0163217226	 0.1158811146	-0.255266
C	-0.00710485	 1.1601354882	-0.1103555639	 0.061432
C	 1.30249389	 1.8782136606	-0.1451053836	 0.193215
C	 1.4179201001	 3.1020234786	 0.8779768257	-0.266882
C	 2.0631743333	 3.9204453029	-0.2263583564	-0.07664
C	 3.069191677	 3.0834311134	-1.0604740933	-0.079546
C	 3.5912592639	 1.8061040169	-0.4926079267	-0.097947
C	 2.5759792621	 1.077286036	-0.0203307502	-0.146044
C	 1.5880491334	 2.9421529937	-1.2725195469	-0.124467
H	-0.8920160661	 1.814114487	-0.294555543	 0.06986
H	 0.4258415231	 3.4986987305	 1.1124457748	 0.111753
H	 1.9670668201	 2.8970703912	 1.8018118927	 0.107606
H	 2.1014969775	 5.0021695467	-0.2702663469	 0.093874
H	 3.6462583165	 3.6580158255	-1.7759726406	 0.091462
H	 4.6432735699	 1.5539227337	-0.4477780995	 0.103232
H	 2.6210408082	 0.132518882	 0.503720634	 0.118714
H	 1.0536772558	 3.0806450159	-2.2049253607	 0.095644
82.9972	188.4089	273.6426	364.1816	389.3935	442.9051	550.7625	658.8466	722.4951	748.0137	755.6688	774.4948	798.2069	826.8542	861.1864	930.281	951.9769	965.5071	977.5673	1005.2023	1010.0854	1051.4307	1065.3819	1081.2592	1103.1452	1141.0275	1153.4307	1217.206	1258.3747	1268.8162	1314.5944	1367.2533	1374.263	1429.5966	1483.041	1645.6627	1819.6525	2852.7454	3045.9492	3103.9891	3175.8975	3178.9161	3192.5756	3208.7447	3239.2905
O=CC12CC3C(C=C1)C23	O=C[C@@]12C[C@H]3[C@@H](C=C1)[C@@H]23	
InChI=1S/C8H8O/c9-4-8-2-1-5-6(3-8)7(5)8/h1-2,4-7H,3H2	InChI=1S/C8H8O/c9-4-8-2-1-5-6(3-8)7(5)8/h1-2,4-7H,3H2/t5-,6+,7-,8+/m1/s1
