17
gdb 62251	3.4985	0.88099	0.74342	3.3905	72.17	-0.2387	-0.0152	0.2235	1469.5645	0.131489	-458.90936	-458.899344	-458.8984	-458.945297	35.191	
O	-0.0974383609	 1.0232710356	-1.0853168703	-0.408494
C	 0.0525484206	-0.2455299036	-0.452173698	-0.057038
C	 0.9159458441	-1.2041808768	-1.2965854995	-0.089462
O	 0.3642445114	-1.4613473189	-2.5675121112	-0.236769
C	 0.6747619303	-0.5410801517	-3.5922061586	-0.155337
C	-0.3848308522	 0.5371030826	-3.7987101022	 0.155512
O	-0.1804560641	 1.5412550596	-4.4282149839	-0.24913
C	 0.599438707	-0.1267648857	 0.8991128671	 0.285888
C	 1.1073752617	-0.0182332314	 1.9832234552	-0.438175
H	 0.709302996	 1.5308599869	-0.9392233011	 0.292617
H	-0.9609411135	-0.661002426	-0.4110366544	 0.131537
H	 1.9342695518	-0.7943196246	-1.3809276408	 0.098666
H	 0.9806581612	-2.1667625598	-0.7785516786	 0.124284
H	 1.6513127894	-0.0613721475	-3.4446631053	 0.115514
H	 0.7300913335	-1.1146961147	-4.5284778586	 0.134206
H	-1.3776205659	 0.2856426437	-3.3695156773	 0.087575
H	 1.5322924496	 0.0774765124	 2.9523366374	 0.208605
40.4347	72.1609	100.2103	138.3127	199.0709	223.2107	291.5	323.6545	343.0135	387.3504	490.8018	513.8694	533.2965	569.7184	646.2613	687.2994	730.4657	871.3472	953.559	986.7289	1035.4261	1064.8012	1092.0919	1118.2343	1168.2775	1247.8729	1266.5531	1295.8723	1339.8485	1355.4563	1396.0257	1403.9334	1420.574	1454.9994	1482.1692	1835.3873	2233.2644	2914.2318	2990.7443	3006.3994	3053.2423	3054.5756	3081.8618	3500.9845	3801.9728
OC(COCC=O)C#C	O[C@@H](COCC=O)C#C	
InChI=1S/C6H8O3/c1-2-6(8)5-9-4-3-7/h1,3,6,8H,4-5H2	InChI=1S/C6H8O3/c1-2-6(8)5-9-4-3-7/h1,3,6,8H,4-5H2/t6-/m1/s1
