17
gdb 70537	2.75397	1.5201	1.13509	3.0641	67.5	-0.2629	0.0084	0.2712	1075.0406	0.135738	-458.988716	-458.980795	-458.979851	-459.021283	30.142	
C	-0.1304425909	 1.492298361	 0.0325930052	-0.474428
C	 0.0526429428	-0.0039857733	 0.0374758408	 0.39895
C	-1.0102023783	-0.8485992751	-0.6632774936	-0.424362
C	-1.8126599289	-1.7107504125	 0.3043775421	 0.416044
O	-2.9928366953	-1.902825616	 0.2064803905	-0.322848
O	-1.1244420836	-2.2726380081	 1.3293549256	-0.222382
C	 0.3075458255	-2.1256330575	 1.3917800645	-0.109012
C	 0.7563280512	-0.7028500966	 1.1226896368	-0.047127
O	 1.3968099297	-0.4722840964	-0.1385620957	-0.284629
H	 0.6709912733	 1.9803540144	 0.591954745	 0.133309
H	-0.1167905411	 1.8751010969	-0.9936018378	 0.135754
H	-1.0917243996	 1.7660080311	 0.4798970474	 0.135988
H	-1.7248613252	-0.2431740059	-1.2215939317	 0.139577
H	-0.5065157023	-1.512104571	-1.3759641666	 0.151716
H	 0.5732515435	-2.4539325387	 2.3978240054	 0.133268
H	 0.7806758151	-2.7981421674	 0.6675584213	 0.133351
H	 1.1743200538	-0.1402782449	 1.9549644706	 0.106831
78.1582	154.266	206.1143	232.7806	329.0138	373.848	426.269	461.0091	493.03	513.3043	601.7972	678.3062	778.5109	820.8443	833.4357	909.3377	935.3197	956.1713	1030.7638	1072.5529	1079.3933	1102.5582	1114.8036	1159.3908	1214.057	1256.7623	1275.642	1326.7679	1329.5456	1407.7094	1414.9015	1451.6315	1466.198	1485.9142	1498.7322	1500.4462	1852.5101	3037.4515	3048.3311	3052.631	3102.3199	3119.1136	3128.1772	3134.0433	3138.3406
CC12CC(=O)OCC1O2	C[C@]12CC(=O)OC[C@H]1O2	
InChI=1S/C6H8O3/c1-6-2-5(7)8-3-4(6)9-6/h4H,2-3H2,1H3	InChI=1S/C6H8O3/c1-6-2-5(7)8-3-4(6)9-6/h4H,2-3H2,1H3/t4-,6+/m1/s1
