23
gdb 121805	3.08679	0.77727	0.72757	1.3246	89.18	-0.249	0.0478	0.2968	1720.9609	0.20084	-388.255966	-388.24434	-388.243396	-388.29503	41.824	
C	-0.1075565758	 1.4707292605	-0.1552084516	-0.3844
C	-0.0009102072	-0.0469143808	 0.0110044228	-0.176219
C	 0.7681098477	-0.4422466743	 1.2663939397	-0.045675
O	 0.8070255384	-1.8577105416	 1.3135111768	-0.290539
C	 1.4687377589	-2.478589922	 2.4244302529	 0.179585
C	 2.9636392948	-2.1007586099	 2.4809944691	-0.416651
C	 0.7669681691	-2.1495861212	 3.7587029175	-0.415757
C	 1.3509835532	-3.9219094256	 2.1671590793	 0.346216
C	 1.2756816091	-5.1079062986	 1.9930774721	-0.475698
H	 0.8816824844	 1.9362314907	-0.2287770243	 0.115171
H	-0.6620383499	 1.7279403922	-1.062270098	 0.117676
H	-0.6274931181	 1.9312461003	 0.6923119031	 0.115087
H	-0.9988521758	-0.4969445922	 0.0593572315	 0.107311
H	 0.4994474279	-0.4918104632	-0.8564834997	 0.107651
H	 1.782160385	-0.0149982832	 1.2310417734	 0.086282
H	 0.2691572645	-0.0249572749	 2.154659458	 0.085865
H	 3.0933964001	-1.04746795	 2.7444600035	 0.115936
H	 3.4734591512	-2.7041006634	 3.2362337579	 0.127351
H	 3.4329424393	-2.2865571259	 1.5119624638	 0.131892
H	-0.3000911883	-2.3719174785	 3.6837440873	 0.131881
H	 1.1928738139	-2.7527550426	 4.5644308182	 0.127164
H	 0.894454231	-1.0956960214	 4.0209475979	 0.115749
H	 1.2018936564	-6.1541879443	 1.8269031687	 0.194122
5.017	64.8531	103.0944	137.0167	177.726	189.8348	235.499	252.3902	262.1111	306.425	357.9519	378.6466	388.2714	467.8019	559.4779	576.9036	622.6853	661.6756	727.8017	765.9361	871.4445	903.7591	911.3315	917.5596	964.7549	1010.6648	1049.4066	1097.2409	1143.0324	1174.0847	1187.1567	1190.7582	1265.5971	1268.0959	1318.0036	1335.1256	1385.8096	1402.0521	1413.0307	1429.7707	1478.1123	1484.2069	1491.3036	1497.3522	1501.0393	1501.4572	1507.849	1529.322	2241.5589	2975.5987	3005.5424	3031.1039	3041.1322	3046.2191	3050.5464	3073.5611	3100.0824	3107.7938	3119.3658	3124.9821	3132.6138	3134.7546	3503.3329
CCCOC(C)(C)C#C	CCCOC(C)(C)C#C	
InChI=1S/C8H14O/c1-5-7-9-8(3,4)6-2/h2H,5,7H2,1,3-4H3	InChI=1S/C8H14O/c1-5-7-9-8(3,4)6-2/h2H,5,7H2,1,3-4H3
