20
gdb 41006	3.05878	1.93561	1.45639	1.5666	83.06	-0.2267	0.0857	0.3125	948.3196	0.17411	-365.916929	-365.910437	-365.909493	-365.947324	28.225	
C	-0.0277305164	 1.514536423	 0.2903642567	-0.259323
C	 1.507210345	 1.5771322015	-0.0577649731	-0.36112
C	 1.22783226	 0.3266922605	-0.9196036943	 0.405017
C	 0.0198562909	-0.0093377523	-0.0755217852	-0.021731
C	-0.733602595	-0.89411601	-1.0888129776	-0.219946
N	 0.2637162499	-1.0236523775	-2.2050169126	-0.131812
C	 0.747673761	 0.3954469146	-2.4132327581	-0.058278
C	 2.1023741214	-0.1496627263	-2.8965473084	-0.241207
C	 1.7225928358	-0.9523544861	-1.6412201777	-0.148706
H	-0.3178220954	 1.7756082282	 1.3099779663	 0.098784
H	-0.6238080908	 2.1014648948	-0.4136355788	 0.106083
H	 1.8917935004	 2.4679046108	-0.5596994636	 0.101056
H	 2.1194283145	 1.3687289297	 0.8244154922	 0.106996
H	 0.2986811282	-0.5734604385	 0.8219901616	 0.071375
H	-0.9913787122	-1.8807739055	-0.6947293851	 0.101044
H	-1.6410849071	-0.4452371448	-1.5059910111	 0.105539
H	 0.1052988656	 1.1440393021	-2.8849137941	 0.071948
H	 2.0856868767	-0.6897263139	-3.8443615526	 0.103524
H	 2.9653725371	 0.5119567783	-2.8043261318	 0.095382
H	 2.2011837705	-1.8342979488	-1.2108964928	 0.075375
193.4283	281.01	301.9383	356.8681	445.3399	536.8573	640.3634	672.3586	680.9594	738.431	766.0374	830.8015	860.6124	874.0269	892.7505	897.1877	925.206	960.9861	980.5178	1029.3102	1044.8499	1062.187	1073.9118	1099.7876	1118.5854	1139.1566	1145.5759	1150.2844	1177.5594	1206.116	1219.5702	1224.2082	1237.2991	1247.0547	1261.2217	1273.9261	1304.6818	1319.4581	1362.3173	1478.4448	1489.8343	1493.9885	1497.1776	3034.1763	3050.8284	3057.142	3063.7984	3069.4824	3079.2475	3097.9718	3101.2705	3109.134	3125.8461	3144.2195
C1CC23C1CN1C2CC31	C1C[C@@]23[C@@H]1CN1[C@@H]2C[C@@H]31	
InChI=1S/C8H11N/c1-2-8-5(1)4-9-6(8)3-7(8)9/h5-7H,1-4H2	InChI=1S/C8H11N/c1-2-8-5(1)4-9-6(8)3-7(8)9/h5-7H,1-4H2/t5-,6-,7+,8-/m0/s1
