15
gdb 45456	2.66877	1.68748	1.23347	5.1906	65.31	-0.2333	-0.097	0.1362	991.265	0.112759	-457.766492	-457.759109	-457.758164	-457.799115	27.17	
O	-0.0585101661	 0.2604096714	 0.8191550796	-0.271125
C	-0.0813248589	 1.2949443684	 0.2120165706	 0.305468
C	-1.2950040403	 2.0022495209	-0.3842962529	-0.353186
C	-0.8561174683	 3.4376134843	-0.7313316088	-0.10221
C	-0.8800323997	 4.4364805507	 0.4416862597	-0.073033
O	 0.5479158828	 4.3042691686	 0.6423737095	-0.285324
C	 0.6899544407	 3.5121701706	-0.5653901044	 0.006463
C	 1.1819056911	 2.1325987376	-0.154001272	 0.324315
O	 2.3112201625	 1.7308696439	-0.1044927169	-0.274631
H	-1.5737653944	 1.4490221229	-1.2903824755	 0.147665
H	-2.153347413	 1.9523407006	 0.2914615506	 0.143755
H	-1.2755274971	 3.7974142838	-1.6696339803	 0.097218
H	-1.1483443178	 5.4636300281	 0.1672853175	 0.114722
H	-1.4497445066	 4.1385741175	 1.3293169151	 0.117363
H	 1.2990960352	 4.0022797707	-1.3292567717	 0.10254
61.8868	92.4675	195.4691	312.6706	346.989	390.1543	477.5236	578.0519	625.2861	677.7205	707.2737	833.0118	869.1044	883.3115	909.5899	964.9078	1016.8576	1039.0474	1072.1386	1088.0791	1159.4807	1165.8151	1174.3257	1217.7826	1257.3472	1279.3747	1301.0762	1340.5636	1356.2189	1441.6351	1524.6446	1843.8338	1861.0152	3022.918	3037.6416	3071.3568	3080.2916	3097.554	3120.96
O=C1CC2COC2C1=O	O=C1C[C@H]2CO[C@H]2C1=O	
InChI=1S/C6H6O3/c7-4-1-3-2-9-6(3)5(4)8/h3,6H,1-2H2	InChI=1S/C6H6O3/c7-4-1-3-2-9-6(3)5(4)8/h3,6H,1-2H2/t3-,6+/m0/s1
