14
gdb 47690	2.45487	1.84191	1.21768	2.7406	59.57	-0.2889	-0.0243	0.2645	976.8286	0.101318	-510.987043	-510.979526	-510.978582	-511.019991	27.082	
N	 0.0245680751	 0.8156935965	 0.9752141238	-0.473294
C	-0.0970741302	 0.058044301	-0.0170767604	 0.376472
C	-1.4482553381	-0.5522418511	-0.3689193391	-0.153145
O	-1.4127592038	-1.4149117681	-1.488463835	-0.217196
C	-0.7557351771	-2.6126231375	-1.2350220519	-0.016641
O	 0.5537657029	-2.3796784397	-0.7089485408	-0.255702
C	 1.2552712698	-1.400187385	-1.3576550821	 0.476558
O	 2.1124357371	-1.587704169	-2.1564119122	-0.324114
O	 0.9468973695	-0.1479722363	-0.9183284113	-0.232416
H	 0.9748249336	 1.180540412	 1.0531706474	 0.24543
H	-1.843623142	-1.0557847382	 0.5227000049	 0.142586
H	-2.1298672543	 0.2602469449	-0.6304359765	 0.162088
H	-1.2531915086	-3.2196513856	-0.4684699363	 0.126135
H	-0.6966207939	-3.1447392339	-2.1888708804	 0.143238
55.4159	88.1622	172.9393	285.8262	352.3553	407.6717	465.5979	523.7126	556.4625	657.6883	682.7182	772.0958	840.1293	921.2152	927.6181	990.2374	994.3253	1039.2595	1096.0109	1117.5066	1159.5548	1199.7472	1269.6085	1312.0185	1319.1461	1373.7216	1441.4035	1472.8502	1520.4807	1777.9218	1908.8723	3031.1478	3032.9486	3104.3382	3114.1631	3488.4876
N=C1COCOC(=O)O1	[NH][C]1COCOC(=O)O1	
InChI=1S/C4H5NO4/c5-3-1-7-2-8-4(6)9-3/h5H,1-2H2	InChI=1S/C4H5NO4/c5-3-1-7-2-8-4(6)9-3/h5H,1-2H2
