19
gdb 97389	5.09955	0.80647	0.78375	1.7623	81.21	-0.2522	0.0188	0.271	1525.319	0.158881	-419.120698	-419.112086	-419.111142	-419.155309	31.564	
C	-0.0293229028	 1.371332835	 0.0155077483	-0.316137
N	 0.0512239668	-0.0734598096	 0.0648416581	-0.210327
C	 0.550960051	-0.6582396926	-0.9281938024	 0.110169
O	 0.6564603289	-2.0079972432	-0.9482176921	-0.249685
C	 1.224861271	-2.5776503754	-2.0916910166	 0.373992
C	 2.6464645035	-2.4316307962	-2.6858839175	-0.22703
N	 1.9821446013	-3.4781555856	-3.5932570949	-0.135187
C	 1.4229919877	-4.0802620199	-2.2875917292	-0.221103
C	 0.7449845239	-2.5679977063	-3.5630780877	-0.227023
H	 0.5210549743	 1.7976744929	 0.861748689	 0.130266
H	 0.3678795839	 1.8127458236	-0.9135667041	 0.095512
H	-1.0739064365	 1.6836302822	 0.1256593675	 0.130268
H	 0.9311578071	-0.1563629858	-1.8303617494	 0.076089
H	 2.9046359326	-1.5075467453	-3.2083388904	 0.107185
H	 3.4871614474	-2.8229662806	-2.1089087638	 0.114307
H	 2.1784692627	-4.583658994	-1.6808637428	 0.113607
H	 0.5375735622	-4.70133424	-2.437843983	 0.113608
H	-0.1858078209	-3.0863829727	-3.8033223059	 0.114306
H	 0.8661589757	-1.6537382467	-4.1487297431	 0.107182
32.9204	71.9133	117.2155	206.4172	291.6202	307.9405	376.7342	380.3404	496.0704	593.552	594.2265	719.6863	787.621	793.3349	902.3929	944.922	966.3372	979.124	1009.5927	1020.2332	1027.6457	1062.1194	1141.234	1143.1815	1158.3648	1166.5248	1178.0593	1186.7449	1190.2447	1199.6173	1231.7426	1243.5808	1300.0407	1405.989	1450.2427	1480.4016	1504.1425	1507.511	1510.7968	1564.8724	1779.7349	2965.5352	3006.4264	3059.127	3060.2405	3063.1567	3072.1011	3080.6927	3131.4951	3136.3162	3140.7398
CN=COC12CN(C1)C2	CN=CO[C@@]12CN(C1)C2	
InChI=1S/C6H10N2O/c1-7-5-9-6-2-8(3-6)4-6/h5H,2-4H2,1H3	InChI=1S/C6H10N2O/c1-7-5-9-6-2-8(3-6)4-6/h5H,2-4H2,1H3
