14
gdb 21245	3.48178	1.94528	1.2638	3.4866	60.72	-0.2067	0.0076	0.2143	910.4941	0.108472	-412.019508	-412.011711	-412.010767	-412.052063	27.18	
C	 0.0065191543	 1.4172256442	-0.0177739439	-0.240462
O	 0.0030386867	-0.0087371097	 0.0150661236	-0.284469
C	 0.6078610617	-0.6109856264	-1.0269594966	 0.366824
C	 0.6668453269	-1.9775277343	-1.229640449	 0.192455
N	 0.1438194428	-3.0861788185	-0.5517946319	-0.615552
N	 1.3504235267	-2.0687953459	-2.4002923039	-0.187469
N	 1.7077609715	-0.8661530239	-2.878525513	-0.145666
N	 1.2376375462	 0.0272680955	-2.038260548	-0.282493
H	 1.0289467222	 1.8082679367	-0.0127126083	 0.138259
H	-0.5040387297	 1.7916120801	-0.9110686432	 0.136638
H	-0.5233754842	 1.7373620718	 0.8804217487	 0.126276
H	-0.594521045	-2.789185374	 0.0762026975	 0.261461
H	 0.843283564	-3.5715134812	 0.0028511945	 0.253732
H	 1.586971796	-2.9041105045	-2.9121161265	 0.280466
75.1144	115.8855	172.2264	195.8316	267.0568	315.2459	363.3427	545.0312	568.5047	643.4222	693.676	738.0399	771.7843	831.19	998.8048	1065.3431	1097.9669	1149.8557	1181.4515	1210.5238	1236.7223	1293.6413	1358.3968	1384.364	1466.6792	1480.2014	1503.5202	1550.7397	1651.7841	1675.8586	3033.2405	3100.4221	3143.5369	3494.6646	3586.1235	3653.6446
COC1=C(N)NN=N1	COc1c(N)[nH]nn1	
InChI=1S/C3H6N4O/c1-8-3-2(4)5-7-6-3/h1H3,(H3,4,5,6,7)	InChI=1S/C3H6N4O/c1-8-3-2(4)5-7-6-3/h1H3,(H3,4,5,6,7)
