16
gdb 50311	3.2043	1.45057	1.11265	6.2508	70.62	-0.247	-0.0284	0.2187	1066.5865	0.125491	-437.933727	-437.926126	-437.925181	-437.966202	28.234	
O	-0.1467538534	 0.0318709289	 0.2692691236	-0.269451
C	-0.0039672082	 1.2211974337	 0.1833740723	 0.160991
N	 1.1963014312	 1.8999011032	 0.0145044478	-0.141409
C	 1.2283203486	 3.3651614106	-0.0852979004	-0.197503
C	 2.7053863335	 3.7162854293	 0.005877777	-0.055827
C	 3.4367490218	 3.2296992183	 1.2167987174	-0.287065
C	 3.4792851911	 2.4187166729	-0.06733142	-0.15455
C	 2.4809782594	 1.3041268828	-0.1398960998	 0.439001
O	 2.6984502216	 0.136379355	-0.3080014974	-0.328161
H	-0.8498448165	 1.938018234	 0.2406226924	 0.078926
H	 0.8111061967	 3.6938511046	-1.0449348643	 0.12819
H	 0.6374771763	 3.8216128756	 0.7163430919	 0.128663
H	 3.0470646081	 4.605999352	-0.5069038506	 0.109842
H	 4.3533275765	 3.741449449	 1.4861063282	 0.132724
H	 2.8726781834	 2.8379064189	 2.0574488745	 0.133537
H	 4.4128632601	 2.2872607912	-0.5965822426	 0.122093
68.6559	183.2303	188.9323	218.56	270.3469	359.5261	455.0198	492.5831	609.2153	731.5729	733.028	769.9233	832.9465	840.7437	915.6037	962.4899	984.1502	1029.2935	1048.9115	1073.7133	1100.0216	1113.6998	1163.2684	1193.2551	1208.0237	1229.0041	1279.3884	1332.6396	1376.1385	1395.4548	1456.8425	1488.0157	1520.7193	1804.5927	1880.1741	2910.4179	3024.9869	3066.3109	3133.4754	3197.5237	3215.157	3226.677
O=CN1CC2CC2C1=O	O=CN1C[C@H]2C[C@H]2C1=O	
InChI=1S/C6H7NO2/c8-3-7-2-4-1-5(4)6(7)9/h3-5H,1-2H2	InChI=1S/C6H7NO2/c8-3-7-2-4-1-5(4)6(7)9/h3-5H,1-2H2/t4-,5-/m1/s1
