20
gdb 112852	2.8386	1.34804	1.06532	2.4512	75.91	-0.2402	0.0741	0.3143	1202.9093	0.17086	-440.257319	-440.248487	-440.247543	-440.291038	32.941	
C	 0.1608519304	 1.3370866132	 0.148351117	-0.237146
O	 0.079782196	-0.0728311034	 0.0439637972	-0.236845
C	 0.59171424	-0.5751780285	-1.1419431218	 0.260065
O	 1.9968383274	-0.3528428258	-1.2185327435	-0.300103
C	 2.6637128248	-1.4572187804	-1.8389740327	 0.146107
C	 4.0255461615	-1.6365049841	-1.186449263	-0.400175
C	 1.7049123541	-2.6296276364	-1.6854787608	-0.069831
N	 1.2712788433	-2.8053449257	-0.2871424307	-0.31771
C	 0.4112829448	-2.0755306953	-1.2399168046	-0.109637
H	 1.2017075528	 1.6767246451	 0.1923755906	 0.130468
H	-0.336759503	 1.8301114116	-0.7014152601	 0.100375
H	-0.3519289289	 1.6174139742	 1.070958542	 0.125032
H	 0.0996915772	-0.076429765	-2.000857153	 0.049293
H	 2.7855745717	-1.254069085	-2.9160771421	 0.067222
H	 3.8961571592	-1.9109987396	-0.1371857923	 0.14414
H	 4.5939586217	-2.4214847323	-1.696336549	 0.10612
H	 4.5983702575	-0.7069980829	-1.2429581076	 0.122494
H	 1.7819368802	-3.4832425767	-2.3504389026	 0.090686
H	 0.8985373945	-3.7440122936	-0.1662555015	 0.233171
H	-0.5493974051	-2.4811621594	-1.5355129717	 0.096274
79.3602	107.2248	161.9118	184.1793	229.5329	233.4733	332.3432	375.8027	476.1724	503.3504	569.6851	650.1302	781.7514	809.3087	840.4251	881.4197	906.8871	935.9879	974.5079	1024.1314	1036.3779	1046.8563	1088.7091	1113.9595	1132.0391	1155.2367	1168.8137	1173.1061	1180.8175	1233.7559	1259.2863	1323.4838	1356.7519	1377.3966	1384.6485	1401.9511	1414.4691	1441.602	1481.8954	1484.8628	1485.7559	1499.1186	1511.7529	2900.4055	2961.9688	2985.7218	3043.3449	3067.1856	3113.2686	3124.611	3137.9143	3168.3117	3184.059	3501.9867
COC1OC(C)C2NC12	CO[C@H]1O[C@@H](C)[C@H]2N[C@@H]12	
InChI=1S/C6H11NO2/c1-3-4-5(7-4)6(8-2)9-3/h3-7H,1-2H3	InChI=1S/C6H11NO2/c1-3-4-5(7-4)6(8-2)9-3/h3-7H,1-2H3/t3-,4+,5+,6-/m0/s1
