15
gdb 11742	5.21663	1.36358	1.23481	3.5881	61.63	-0.2521	-0.0145	0.2375	962.4948	0.118244	-399.771436	-399.763968	-399.763024	-399.803484	27.504	
O	 0.1908680492	 1.3918248473	 0.1092617246	-0.405725
C	 0.0458329361	-0.0106010353	-0.0539646413	-0.169689
C	-1.3949031104	-0.4330333619	 0.0071672263	 0.308048
C	-2.0582709198	-0.9533684168	 1.2129785617	-0.289761
N	-1.7745818647	-1.9202271678	 0.1030632431	-0.208107
C	-2.8030817454	-1.655706046	-0.8984076267	 0.41068
O	-3.558768172	-2.421240612	-1.4049830347	-0.287997
C	-2.4274586053	-0.1775986688	-1.0940480455	-0.431055
H	-0.1074597782	 1.6191645504	 0.9962008575	 0.286337
H	 0.4599540582	-0.2395955744	-1.0413448948	 0.12369
H	 0.6268209351	-0.5795406174	 0.6868480608	 0.10597
H	-1.4548387441	-1.1623966002	 2.0911817536	 0.138079
H	-3.0940215756	-0.6994876392	 1.4262488358	 0.135038
H	-3.2015255941	 0.5705476594	-0.9084359984	 0.135866
H	-1.9905594889	-0.0034915873	-2.0808737521	 0.148625
74.238	111.7221	205.9858	298.6728	369.943	379.4836	401.4633	491.243	563.4084	650.9052	709.338	788.6162	838.7872	923.8962	937.1449	977.5452	1023.6914	1025.5912	1067.6141	1095.8683	1126.5173	1161.0718	1180.1815	1212.2999	1317.4197	1359.1231	1398.5903	1422.3862	1454.9435	1498.1485	1512.0959	1924.0588	3000.0153	3072.3045	3079.2165	3110.7837	3126.1869	3201.0066	3811.5676
OCC12CN1C(=O)C2	OC[C@]12CN1C(=O)C2	
InChI=1S/C5H7NO2/c7-3-5-1-4(8)6(5)2-5/h7H,1-3H2	InChI=1S/C5H7NO2/c7-3-5-1-4(8)6(5)2-5/h7H,1-3H2/t5-,6?/m0/s1
