22
gdb 104023	3.18451	1.16564	1.13345	2.2131	80.77	-0.2209	0.0706	0.2915	1206.8671	0.194842	-404.325246	-404.316204	-404.31526	-404.358652	35.166	
C	-0.0053855287	 1.5574690584	 0.0242335505	-0.447121
C	-0.0011615252	 0.0190284573	 0.0105544654	 0.317904
C	-1.4507047074	-0.482605898	 0.0050699181	-0.121824
O	-2.0932994116	-0.0228101409	 1.185008712	-0.42487
C	 0.7455904267	-0.5667661362	-1.2264077635	-0.301015
C	 2.0199161007	-1.1972452741	-0.6903457065	-0.007266
C	 2.9448944227	-0.3472229416	 0.101128123	-0.249944
N	 2.0039766048	-1.2467520306	 0.7829932225	-0.093551
C	 0.7662549862	-0.5872632323	 1.2354385421	-0.205319
H	 1.0076906399	 1.9690159558	 0.0381839357	 0.111693
H	-0.5110678446	 1.9533483991	-0.8645026776	 0.106407
H	-0.536908539	 1.9280459264	 0.9041211782	 0.136527
H	-1.9662452589	-0.1130319528	-0.8969347017	 0.084219
H	-1.4500392708	-1.5835065484	-0.0392447295	 0.084723
H	-2.9915602126	-0.3647928332	 1.1957268292	 0.289017
H	 0.1378994897	-1.3363279587	-1.7173299175	 0.09669
H	 0.9458470849	 0.2029634793	-1.9787816764	 0.104306
H	 2.406675317	-2.0767756115	-1.1986539715	 0.085488
H	 3.990384947	-0.626828778	 0.2004090763	 0.111495
H	 2.7641905255	 0.7242170948	 0.1323438651	 0.109692
H	 1.0008212332	 0.171549275	 1.9885053398	 0.104811
H	 0.1492604205	-1.3442266298	 1.7289001963	 0.107938
80.7407	130.5808	194.5913	229.9766	245.1644	279.8602	339.5408	358.0637	368.9603	433.4726	464.1447	628.3785	669.7853	760.2616	787.9361	842.8564	879.9053	910.2536	937.0779	955.5572	965.6569	980.9589	1029.1423	1050.8465	1082.6543	1101.8113	1106.3552	1151.2716	1166.0491	1178.3933	1199.1661	1230.2939	1247.7281	1267.57	1281.3732	1323.5606	1332.9641	1350.7346	1391.4662	1411.8099	1452.8066	1486.4954	1493.256	1495.56	1503.7576	1515.5913	1522.083	2956.9309	2991.0843	3029.7025	3032.8983	3048.8366	3072.4892	3086.5589	3097.1696	3106.5856	3125.7674	3136.9351	3187.9619	3836.4963
CC1(CO)CC2CN2C1	C[C@@]1(CO)C[C@H]2CN2C1	
InChI=1S/C7H13NO/c1-7(5-9)2-6-3-8(6)4-7/h6,9H,2-5H2,1H3	InChI=1S/C7H13NO/c1-7(5-9)2-6-3-8(6)4-7/h6,9H,2-5H2,1H3/t6-,7+,8?/m0/s1
