19
gdb 67377	2.49361	1.70808	1.62458	1.2025	78.88	-0.2258	0.0214	0.2473	962.9233	0.161315	-385.868291	-385.860949	-385.860005	-385.899558	30.323	
O	-0.0379009914	 1.4238092282	-0.0997318379	-0.467798
C	-0.0027688454	 0.0424423471	-0.0454376445	 0.384618
C	-1.1587085266	-0.9216964969	 0.1101255395	-0.129665
C	-0.6451787039	-1.7705100752	-1.0524085184	-0.233701
C	 0.6429751576	-0.8606038842	-1.1278354448	-0.138392
C	 1.9198458918	-1.5161908929	-0.6811276197	-0.075651
C	 2.0472189088	-1.9551775027	 0.5717304355	-0.058707
C	 0.9552639895	-1.7958487517	 1.6034826198	-0.290879
C	-0.1042322498	-0.7661132919	 1.2097241103	-0.109898
H	 0.753741961	 1.7629081363	 0.3328541003	 0.284597
H	-2.1988674025	-0.7125217972	 0.3296672381	 0.087097
H	-0.4652522473	-2.8320932129	-0.8591823878	 0.096145
H	-1.2684460676	-1.6704642876	-1.9446563161	 0.104047
H	 0.7385275803	-0.357407444	-2.0905038455	 0.075933
H	 2.7229323369	-1.6543415533	-1.3997618636	 0.083385
H	 2.9593942855	-2.449923971	 0.8953726582	 0.084415
H	 0.490978442	-2.7712444209	 1.8118840631	 0.113485
H	 1.4098211657	-1.4913131178	 2.5558371532	 0.10364
H	-0.5058280445	-0.1907509815	 2.0400961202	 0.087329
152.7829	200.4961	256.7627	301.8913	351.1909	434.897	470.8344	517.6926	560.5199	638.5532	688.5858	726.7076	773.915	825.8875	880.5188	899.7332	909.5569	941.5725	977.5805	993.8174	1005.4814	1028.7033	1053.4479	1069.5496	1095.7127	1144.7836	1166.1605	1191.0044	1214.5707	1222.2942	1228.2947	1281.0846	1313.4836	1315.1671	1333.6458	1360.3223	1406.397	1470.4509	1473.6037	1505.1266	1707.4298	2994.6594	3024.1025	3051.3508	3097.6399	3110.1741	3144.3165	3149.1257	3173.0793	3183.828	3790.8176
OC12C3CC1C=CCC23	O[C@@]12[C@H]3C[C@@H]1C=CC[C@@H]23	
InChI=1S/C8H10O/c9-8-5-2-1-3-6(8)7(8)4-5/h1-2,5-7,9H,3-4H2	InChI=1S/C8H10O/c9-8-5-2-1-3-6(8)7(8)4-5/h1-2,5-7,9H,3-4H2/t5-,6+,7-,8-/m0/s1
