16
gdb 126299	5.92179	0.83734	0.77538	5.4743	74.74	-0.2651	-0.0707	0.1944	1454.1814	0.123292	-437.895009	-437.88644	-437.885496	-437.929311	29.981	
C	-0.2352766578	 1.5540967049	-0.0295595398	-0.377711
C	 0.1027768432	 0.0539568636	 0.0309583931	-0.297617
C	 0.8765637376	-0.4191573269	-1.1522460642	 0.461264
C	 2.1275499987	-0.9221406183	-1.3309013477	-0.438021
C	 2.2099002615	-1.1502439504	-2.7341993321	 0.290134
C	 3.3709920875	-1.7001019599	-3.4769345964	 0.098504
O	 3.4135653176	-1.881864101	-4.665923124	-0.23619
N	 1.094187423	-0.8092082872	-3.3485181655	-0.171226
O	 0.258431211	-0.3505516221	-2.3531751436	-0.200064
H	 0.6748603087	 2.159994074	-0.061221392	 0.129152
H	-0.8263524429	 1.7833086152	-0.919758683	 0.144766
H	-0.8124811377	 1.8479727043	 0.8511916094	 0.124506
H	 0.6877175293	-0.1698256815	 0.9278862147	 0.124378
H	-0.8241943773	-0.5276315633	 0.1024798028	 0.135757
H	 2.8798671616	-1.1065996374	-0.5817741853	 0.130361
H	 4.234915076	-1.940793704	-2.8186046864	 0.082008
45.7214	78.8061	146.6526	170.858	227.5187	254.57	343.6587	382.8258	487.8942	654.4388	675.2359	716.0174	780.2161	791.2252	823.4427	960.282	971.1384	1022.4753	1033.7047	1051.1123	1070.2803	1090.4793	1143.3789	1247.5642	1306.6044	1347.8247	1399.5271	1411.7356	1463.3299	1478.2269	1492.7862	1497.2338	1508.1241	1628.3717	1822.8332	2887.5736	3040.0806	3048.5849	3089.8184	3121.716	3131.1123	3273.9724
CCC1=CC(C=O)=NO1	CCc1cc(C=O)no1	
InChI=1S/C6H7NO2/c1-2-6-3-5(4-8)7-9-6/h3-4H,2H2,1H3	InChI=1S/C6H7NO2/c1-2-6-3-5(4-8)7-9-6/h3-4H,2H2,1H3
