17
gdb 18915	4.03351	2.30389	2.07905	1.7095	70.05	-0.2193	0.0809	0.3002	739.0891	0.144101	-326.67308	-326.666971	-326.666027	-326.70285	25.255	
C	-0.0050174332	 1.5247870741	 0.0883015963	-0.518043
C	-0.0003927291	 0.0310732102	-0.0201576476	 0.350065
C	 1.115499912	-0.8435149812	-0.5474041131	-0.13904
C	 0.5210834608	-1.9327299173	-1.4193842636	-0.171636
N	-0.7825258928	-2.1553024448	-0.777797083	-0.119302
C	-0.6512483288	-1.9189325525	 0.6716691252	-0.057172
C	 0.6129953276	-1.0368566053	 0.8693932538	-0.148061
C	-1.2549410991	-0.8825906468	-0.2075166704	-0.122656
H	 0.9905627549	 1.9045307934	 0.3395906699	 0.120527
H	-0.3102333793	 1.9919816609	-0.8561040403	 0.12048
H	-0.6961484214	 1.8687242337	 0.8663608404	 0.12146
H	 2.0980524475	-0.4202123737	-0.7197549443	 0.086656
H	 0.3716479567	-1.6194794908	-2.4579617265	 0.105089
H	 1.1023760459	-2.8605109003	-1.4077927766	 0.105488
H	-1.0878891035	-2.6181763951	 1.3728702582	 0.091771
H	 1.2107220968	-0.9364331039	 1.7642676158	 0.08616
H	-2.278911405	-0.5649974306	-0.3629473242	 0.088216
200.5132	221.8498	277.1097	411.9152	554.2074	581.8536	720.8918	749.0141	777.5743	782.8031	831.7872	848.4167	861.8923	898.1981	919.3659	944.991	973.6262	996.0254	1013.0229	1036.8103	1051.4478	1094.3884	1111.8708	1168.989	1183.4524	1209.9439	1221.1878	1248.2426	1268.7871	1301.3962	1328.916	1415.2119	1446.9961	1486.0575	1498.1037	1500.7536	3019.5351	3046.4314	3076.1211	3091.9853	3095.9683	3181.5931	3189.4904	3197.496	3216.8569
CC12C3CN4C(C13)C24	C[C@@]12[C@@H]3CN4[C@@H]([C@H]13)[C@@H]24	
InChI=1S/C7H9N/c1-7-3-2-8-5(4(3)7)6(7)8/h3-6H,2H2,1H3	InChI=1S/C7H9N/c1-7-3-2-8-5(4(3)7)6(7)8/h3-6H,2H2,1H3/t3-,4-,5+,6+,7-,8?/m1/s1
