14
gdb 131318	5.25071	1.33722	1.07296	3.6438	70.08	-0.2182	-0.0408	0.1774	1036.9968	0.104442	-432.902584	-432.896078	-432.895134	-432.933444	25.383	
O	 0.0753007457	 1.2418806542	-0.1470145098	-0.4067
C	 0.0653055672	-0.0941599241	-0.0580251752	 0.409221
N	 0.0200473281	-0.8479524175	-1.1541317313	-0.344679
N	 0.0274424797	-2.0830066214	-0.5896643035	 0.050921
C	-0.0028322417	-3.4390360916	-1.084514769	-0.230907
C	 0.0348643651	-4.2090568944	 0.2246060376	-0.095604
C	 0.0793215072	-3.368401337	 1.2750135993	-0.191475
C	 0.074530569	-2.0090211229	 0.7524327062	 0.388106
N	 0.1004870899	-0.7410268072	 1.1441460009	-0.45761
H	 0.1098762361	 1.5732507991	 0.7583930581	 0.311164
H	-0.9121000642	-3.6401523672	-1.6631169917	 0.154228
H	 0.8602991054	-3.6573868996	-1.7242986959	 0.15423
H	 0.0254275282	-5.2890533288	 0.256530446	 0.126099
H	 0.1129484344	-3.6282229114	 2.3223750181	 0.133006
119.965	259.9427	328.5053	337.8768	406.3947	439.0583	557.7495	593.8154	665.769	752.6026	762.5171	791.2155	815.2857	911.7691	938.5975	947.802	978.6984	1036.4898	1095.9362	1174.7163	1175.0799	1204.3803	1274.2239	1332.91	1360.389	1423.5649	1446.3733	1489.0448	1566.3902	1592.2532	1633.2346	3041.4618	3076.6445	3238.9198	3260.6428	3814.4536
OC1=NN2CC=CC2=N1	Oc1nn2CC=Cc2n1	
InChI=1S/C5H5N3O/c9-5-6-4-2-1-3-8(4)7-5/h1-2H,3H2,(H,7,9)	InChI=1S/C5H5N3O/c9-5-6-4-2-1-3-8(4)7-5/h1-2H,3H2,(H,7,9)
