20
gdb 107018	2.98563	1.26178	1.06293	3.622	74.42	-0.2324	0.0594	0.2918	1201.1232	0.170403	-440.241881	-440.232526	-440.231582	-440.276266	35.101	
C	-0.0208057399	 1.5046175075	 0.3084241675	-0.376452
C	-0.0069585003	 0.0170854323	-0.0755080786	-0.327388
C	-1.3867758956	-0.5476278978	-0.2367554473	 0.345284
N	-2.2572418228	-0.8583645935	 0.9353352071	-0.421981
C	-1.9354892174	-1.9227673532	-0.0603920631	-0.171925
C	-2.9966278969	-1.7166295426	-1.1431372267	 0.110699
O	-4.3305171478	-1.8287932764	-0.7394967474	-0.433096
C	-2.3983054084	-0.2490076004	-1.3537331008	 0.051865
O	-3.2419454116	 0.8529613133	-1.1880540552	-0.430655
H	 0.9954921369	 1.9058850953	 0.3588327245	 0.113874
H	-0.5866687537	 2.0891428128	-0.4227217621	 0.141319
H	-0.492550074	 1.6540755697	 1.2849552687	 0.118683
H	 0.5367892293	-0.1140452621	-1.0197210335	 0.109325
H	 0.5425410002	-0.5630628771	 0.6781941116	 0.094542
H	-1.6540522058	-0.9934963342	 1.7450745641	 0.232923
H	-1.4392736472	-2.8339220198	 0.2526139519	 0.096903
H	-2.8636795327	-2.3447487528	-2.0266318812	 0.087611
H	-4.366136366	-1.460397706	 0.153146988	 0.286087
H	-1.9241539695	-0.1492748002	-2.3338601593	 0.087982
H	-3.580774137	 0.8010297251	-0.2858061883	 0.284399
54.0635	93.9513	137.5745	187.6639	233.4595	272.2608	312.0701	338.8234	374.4544	498.2113	535.4956	611.2006	622.1574	693.8083	741.8124	782.2337	812.1928	873.1306	921.8324	939.2662	967.437	991.9913	1031.0694	1083.0515	1094.7766	1108.7634	1132.0227	1157.1231	1185.5822	1221.7323	1247.1556	1265.6851	1303.9697	1318.2222	1348.0818	1366.666	1412.3147	1421.9198	1437.3131	1465.0265	1478.2962	1496.3032	1508.1047	3013.2746	3040.4649	3048.6645	3077.8398	3095.3282	3109.2483	3118.9833	3185.2056	3486.7576	3760.2903	3784.0695
CCC12NC1C(O)C2O	CC[C@]12N[C@H]1[C@@H](O)[C@H]2O	
InChI=1S/C6H11NO2/c1-2-6-4(7-6)3(8)5(6)9/h3-5,7-9H,2H2,1H3	InChI=1S/C6H11NO2/c1-2-6-4(7-6)3(8)5(6)9/h3-5,7-9H,2H2,1H3/t3-,4+,5-,6+/m1/s1
