19
gdb 44082	3.63238	1.39306	1.16479	2.952	79.44	-0.2368	-0.0201	0.2167	1080.6158	0.159803	-385.867712	-385.860219	-385.859275	-385.899764	29.957	
O	 0.0962761339	 0.0218783209	 0.0484142195	-0.29712
C	 0.0271244732	 1.2164315215	 0.0240901318	 0.407813
C	-1.1456674872	 2.220920531	 0.0754517035	-0.462893
C	-0.1042849351	 3.3447228872	 0.2019400604	 0.379115
C	-0.0929846741	 4.7926922155	-0.2883520169	-0.3309
C	 0.8436250674	 5.1535214054	 0.9093682037	-0.223176
C	 0.5935597732	 3.7492607278	 1.5468077899	-0.059858
C	 1.7159278837	 2.7021661783	 1.3342850924	-0.25217
C	 1.0824222157	 2.3367600761	-0.0455928819	-0.201862
H	-1.6684160919	 2.2355939881	-0.8902248514	 0.131671
H	-1.8894459653	 2.0895033555	 0.8669284538	 0.123708
H	 0.2804141333	 4.9779564029	-1.3001149068	 0.098621
H	-1.0749139979	 5.2676772863	-0.1943067237	 0.105207
H	 1.8865398705	 5.3195382423	 0.6252562864	 0.102413
H	 0.5165558798	 6.0016767077	 1.5140631627	 0.105571
H	 0.0661691909	 3.7544772143	 2.5029257843	 0.065051
H	 2.7260784596	 3.1169096731	 1.2742418352	 0.106251
H	 1.7299720119	 1.8747227638	 2.0488948129	 0.115102
H	 1.7191939785	 2.3367170123	-0.9333451257	 0.087456
72.3926	145.941	248.694	289.993	365.0671	433.5613	460.3272	531.9891	616.3798	685.5203	720.2871	769.527	795.6813	825.4329	881.9794	894.5611	919.4451	942.0515	959.4748	1007.5544	1026.6221	1048.7808	1089.3998	1103.374	1133.0008	1155.931	1186.0458	1190.1865	1212.5602	1229.7524	1241.083	1254.151	1276.1561	1279.3124	1306.8294	1317.4325	1432.9479	1474.9096	1484.5905	1495.1531	1885.7244	3028.9998	3042.8732	3052.3225	3059.3155	3080.9616	3087.0686	3088.922	3093.0061	3103.9091	3118.082
O=C1CC23CCC2CC13	O=C1C[C@@]23CC[C@@H]2C[C@@H]13	
InChI=1S/C8H10O/c9-7-4-8-2-1-5(8)3-6(7)8/h5-6H,1-4H2	InChI=1S/C8H10O/c9-7-4-8-2-1-5(8)3-6(7)8/h5-6H,1-4H2/t5-,6+,8+/m1/s1
