18
gdb 41848	2.39553	2.13708	1.70045	1.2429	70.14	-0.2506	0.0208	0.2715	881.6146	0.15228	-439.113119	-439.10658	-439.105635	-439.143731	27.042	
C	-0.0119586831	 1.3699772642	 0.1328379423	-0.075503
C	 1.3757175569	 1.9912365111	-0.0417728879	-0.218572
C	 2.0940852939	 1.391627142	-1.2698312472	 0.00345
C	 2.1291750671	-0.1328472474	-1.1121766415	-0.266592
C	 0.6692521961	-0.5690850191	-1.0800662839	 0.223741
O	-0.0045151474	-0.059545454	 0.0331799715	-0.256646
O	 0.0265763196	-0.1692332005	-2.3093367344	-0.242919
C	 0.4812547094	 0.9712885729	-2.8927643661	 0.115105
N	 1.3969783425	 1.7556769548	-2.50805045	-0.262385
H	-0.4171752368	 1.5858207015	 1.1243364446	 0.113707
H	-0.7099645326	 1.780975933	-0.608142505	 0.117092
H	 1.274755764	 3.0752797545	-0.1531268541	 0.11354
H	 1.9891510936	 1.7994349531	 0.8462946922	 0.103686
H	 3.1051071616	 1.8045989341	-1.3285696686	 0.081238
H	 2.6466360408	-0.6045453385	-1.9531247736	 0.113422
H	 2.6175601226	-0.4391001655	-0.1829104958	 0.110678
H	 0.5350944779	-1.6511630939	-1.0350836754	 0.100906
H	-0.0726327062	 1.1602167878	-3.8106861571	 0.126053
170.5512	249.4322	323.2391	377.9086	425.5364	455.1819	521.5547	600.543	665.9802	702.6579	807.388	823.8032	852.3583	868.6348	903.9657	928.7544	969.0504	1012.4049	1020.1173	1056.2875	1092.0677	1098.871	1132.0318	1150.1582	1215.2617	1242.3581	1261.8716	1316.6014	1327.753	1356.5574	1375.8529	1387.4405	1397.0148	1408.674	1424.369	1468.6	1482.2985	1514.6094	1716.8058	3024.571	3037.1284	3051.8297	3063.1928	3090.8145	3101.1597	3105.3387	3105.9117	3158.7296
C1CC2CC(O1)OC=N2	C1C[C@H]2C[C@@H](O1)OC=N2	
InChI=1S/C6H9NO2/c1-2-8-6-3-5(1)7-4-9-6/h4-6H,1-3H2	InChI=1S/C6H9NO2/c1-2-8-6-3-5(1)7-4-9-6/h4-6H,1-3H2/t5-,6-/m0/s1
