20
gdb 91658	2.49686	1.72201	1.35865	1.4156	78.2	-0.2476	0.0687	0.3163	1036.1296	0.172508	-403.096106	-403.088378	-403.087433	-403.127908	31.237	
C	-0.1322370683	 1.5451522518	 0.0112490644	-0.425186
C	 0.0600723633	 0.0299928402	 0.0174768172	 0.039538
C	 1.022921342	-0.5479616153	-1.0809408406	-0.246794
C	 1.9835812971	-1.3086847953	-0.1413803775	-0.026328
O	 1.0608372297	-1.9267161362	 0.8112512991	-0.300028
C	 0.8096108641	-0.5476908973	 1.2435795269	-0.019741
C	 2.2877669241	-0.277064039	 0.9461399834	 0.41935
C	 3.4534171591	-0.1688945566	 1.8283496359	-0.336824
N	 3.034844516	 0.9636694265	 0.9537475269	-0.385592
H	 0.8218931996	 2.0688080557	 0.1143454936	 0.143628
H	-0.6077840141	 1.872670407	-0.9192069505	 0.112561
H	-0.7771233971	 1.861443869	 0.8388066313	 0.111496
H	-0.9129118527	-0.4663010795	-0.0470547274	 0.078705
H	 0.5207396738	-1.221487368	-1.7783256577	 0.106268
H	 1.5301221409	 0.2353766731	-1.653854181	 0.094816
H	 2.7268076902	-1.9888004587	-0.5590950097	 0.079552
H	 0.3632140585	-0.459587671	 2.233890222	 0.080741
H	 3.3286254065	 0.0131365354	 2.8921130112	 0.125521
H	 4.352370396	-0.720808794	 1.5654527698	 0.116321
H	 3.6425336814	 1.024564222	 0.1392053729	 0.231997
150.2174	176.9953	228.8009	239.962	307.8036	340.8758	417.8321	472.9359	570.5419	618.5147	699.9872	818.8809	827.9982	856.8309	873.5275	899.504	918.942	926.7895	950.7548	956.3709	973.1905	1026.6207	1048.3099	1057.4192	1084.5109	1117.5627	1133.0086	1183.0235	1199.401	1225.9882	1236.3025	1252.1505	1262.4204	1284.6867	1304.8331	1322.7737	1363.1149	1413.792	1457.5204	1487.057	1498.7204	1507.3194	1530.6448	3032.9448	3052.8634	3057.0179	3092.4958	3107.2641	3111.1003	3117.3522	3121.9515	3128.0892	3191.9408	3484.8729
CC1CC2OC1C21CN1	C[C@H]1C[C@@H]2O[C@H]1[C@]12CN1	
InChI=1S/C7H11NO/c1-4-2-5-7(3-8-7)6(4)9-5/h4-6,8H,2-3H2,1H3	InChI=1S/C7H11NO/c1-4-2-5-7(3-8-7)6(4)9-5/h4-6,8H,2-3H2,1H3/t4-,5-,6+,7+/m0/s1
