19
gdb 69316	3.03219	1.3406	1.27869	3.0655	76.22	-0.2463	-0.0024	0.2439	1102.1515	0.156771	-423.015456	-423.006491	-423.005547	-423.048341	34.764	
C	-0.0901385985	 1.5454189275	 0.0681479846	-0.494235
C	 0.1196689301	 0.0611197817	-0.0194463928	 0.374748
O	-0.7271153614	-0.767343755	 0.8180063162	-0.289672
C	 0.6816893172	-0.8016013609	 1.0310594064	-0.051431
C	 1.4184973559	-1.9748199362	 0.37408493	 0.333158
C	 2.9224985119	-1.8898807006	 0.6588954253	-0.441696
O	 0.8805670083	-3.1946137851	 0.8760935298	-0.463459
C	 1.1015813484	-1.7555407897	-1.1043396313	-0.13954
C	 0.4235666816	-0.6296894656	-1.3207706992	-0.137018
H	 0.7799688846	 2.0855587454	-0.3200573697	 0.124426
H	-0.962342621	 1.8468716893	-0.5225989281	 0.129462
H	-0.2606837651	 1.8482871369	 1.1038418043	 0.133718
H	 1.0244835725	-0.4321301375	 1.9952974885	 0.08833
H	 3.107987306	-2.0324005953	 1.7284692669	 0.126308
H	 3.4638274839	-2.6686422351	 0.1091567991	 0.108472
H	 3.3322299971	-0.9224902391	 0.3526624497	 0.124217
H	 1.3673278195	-3.9206467071	 0.471268724	 0.277349
H	 1.3846016059	-2.4848032664	-1.8571892299	 0.09496
H	 0.0818564532	-0.2593355573	-2.2806971138	 0.101904
117.2446	183.0221	195.6814	221.8012	246.5696	272.5823	314.9714	336.5317	401.0231	425.7148	522.1759	563.3927	610.2383	649.4258	750.393	782.2592	839.9295	855.9681	927.1401	934.9072	949.0847	963.2502	1034.7172	1047.8166	1094.3856	1103.1453	1126.2289	1166.9612	1181.6941	1255.3204	1297.5058	1357.453	1377.8996	1398.8102	1410.1618	1454.1718	1484.3427	1489.7671	1491.5185	1495.9996	1673.2371	3027.1566	3034.9873	3095.5649	3096.1719	3112.9523	3126.5592	3135.0233	3173.1508	3203.2956	3805.3105
CC12OC1C(C)(O)C=C2	C[C@]12O[C@H]1[C@@](C)(O)C=C2	
InChI=1S/C7H10O2/c1-6(8)3-4-7(2)5(6)9-7/h3-5,8H,1-2H3	InChI=1S/C7H10O2/c1-6(8)3-4-7(2)5(6)9-7/h3-5,8H,1-2H3/t5-,6-,7+/m0/s1
