19
gdb 126943	3.38063	1.06201	0.82255	3.8823	79.08	-0.2108	0.0343	0.2451	1409.7268	0.16074	-415.417093	-415.407677	-415.406733	-415.452302	32.965	
C	 0.0651950304	 1.508690156	 0.072797601	-0.401057
C	-0.0697964228	-0.0030406317	-0.067765066	-0.105869
N	 0.7238747055	-0.4822898515	-1.2000624889	-0.420884
C	 0.8369940765	-1.8408137983	-1.3811366508	 0.491098
N	 0.4568807186	-2.7806687551	-0.5278475546	-0.356577
C	 0.8533588438	-3.9224715687	-1.1594107315	 0.026119
N	 1.436845052	-3.7624335285	-2.3288252534	-0.265917
N	 1.4321722572	-2.3959255289	-2.4647728336	-0.041577
C	 2.0077609013	-1.7526926776	-3.6208835265	-0.343316
H	 1.1097361038	 1.7969189209	 0.2224541972	 0.129511
H	-0.306735333	 2.0280908588	-0.818625204	 0.112091
H	-0.5187907125	 1.8633823804	 0.9264344411	 0.126954
H	 0.3010797464	-0.5123777383	 0.8248491792	 0.142404
H	-1.1271408269	-0.2882689576	-0.1705674256	 0.107516
H	 0.5763256623	 0.0421570306	-2.0514411382	 0.237409
H	 0.7001139161	-4.9046363126	-0.7366010528	 0.118254
H	 1.241577304	-1.4410018138	-4.3415615852	 0.134018
H	 2.5855926077	-0.8762334344	-3.3111940929	 0.142187
H	 2.6723153397	-2.4684654697	-4.1042009644	 0.167636
62.8504	66.2727	104.2808	137.1571	180.8285	257.8602	279.2578	313.1295	346.5821	483.3725	558.4235	662.6174	682.2585	749.8665	803.0222	852.3701	901.0829	930.5264	988.6776	1013.8445	1081.7068	1138.0062	1149.5108	1156.0206	1209.0724	1242.8806	1287.9516	1297.3834	1314.3158	1372.3702	1414.0856	1424.5454	1459.145	1475.2105	1490.9859	1495.8298	1498.4798	1508.7681	1523.824	1571.444	1610.5064	2998.789	3022.9849	3032.7381	3088.1304	3090.2883	3111.3947	3123.3057	3158.6063	3252.6168	3581.3753
CCNC1=NC=NN1C	CCNc1ncnn1C	
InChI=1S/C5H10N4/c1-3-6-5-7-4-8-9(5)2/h4H,3H2,1-2H3,(H,6,7,8)	InChI=1S/C5H10N4/c1-3-6-5-7-4-8-9(5)2/h4H,3H2,1-2H3,(H,6,7,8)
