20
gdb 14039	4.42387	1.57378	1.4567	0.1406	80.51	-0.2301	0.0294	0.2595	959.5289	0.179129	-311.87388	-311.866606	-311.865662	-311.905406	28.81	
C	 0.112033258	 1.7215181994	-0.1004847165	-0.210134
C	 1.6188919729	 1.4317316445	 0.1186904856	-0.259071
C	 1.2473859867	-0.0192724834	 0.5935730153	 0.34247
C	-0.1477554177	 0.193320413	-0.0763768119	-0.267656
C	 2.1150662905	-1.2222194134	 0.1523317162	-0.303054
C	 2.8731506715	-1.708549922	 1.4149285488	-0.261189
C	 2.0972020861	-1.0663835431	 2.5398600232	-0.080787
C	 1.22499881	-0.1639628552	 2.0945793863	-0.106236
H	-0.3370991423	 2.2276714799	 0.7587948657	 0.100606
H	-0.1707399978	 2.2666474093	-1.0039828783	 0.093847
H	 2.171553478	 1.4067595458	-0.8258028761	 0.095063
H	 2.1638654899	 2.0634401088	 0.825233489	 0.094189
H	-1.0220156745	-0.172300141	 0.4698157654	 0.092949
H	-0.1667610451	-0.231679443	-1.0851874087	 0.095169
H	 1.4539115102	-2.0196964016	-0.2054882375	 0.101315
H	 2.7847148902	-0.9688551081	-0.6747795781	 0.092001
H	 2.9056797649	-2.8017558319	 1.4896016279	 0.100682
H	 3.9197054541	-1.3730018728	 1.4240468589	 0.104538
H	 2.2721745124	-1.3048464757	 3.5836443328	 0.088259
H	 0.580618952	 0.4456331003	 2.7207463521	 0.087039
85.1879	125.0639	229.5278	295.6349	355.3947	444.7698	495.2136	672.6033	701.2228	758.325	779.4675	800.1456	849.6879	873.6292	904.1805	939.7504	941.2214	946.9351	968.5895	977.3277	999.0174	1054.6154	1082.0181	1104.9293	1163.0945	1179.8589	1209.0708	1211.907	1232.6389	1252.917	1272.5358	1280.0983	1292.1224	1306.2923	1325.3151	1388.4061	1473.9376	1480.0368	1485.4262	1498.6569	1506.5808	1684.6116	3009.2047	3035.2057	3042.1671	3047.4267	3052.2203	3058.4675	3086.608	3089.945	3098.5024	3114.6238	3169.0909	3197.3099
C1CC2(C1)CCC=C2	C1CC2(C1)CCC=C2	
InChI=1S/C8H12/c1-2-5-8(4-1)6-3-7-8/h1,4H,2-3,5-7H2	InChI=1S/C8H12/c1-2-5-8(4-1)6-3-7-8/h1,4H,2-3,5-7H2
