16
gdb 22480	3.30121	0.70881	0.6056	3.7325	87.35	-0.2565	-0.085	0.1715	1762.844	0.121068	-437.824503	-437.814411	-437.813467	-437.861335	34.027	
C	 0.0930386255	 1.6961491093	-0.2831980359	-0.377774
C	-0.060626916	 0.167124937	-0.195542092	-0.282708
C	 0.7663618647	-0.5478815572	-1.2415829881	 0.177753
N	 2.0162163214	-0.8550808639	-1.1271907508	-0.138205
O	 2.530635879	-0.4518548242	 0.0933045799	-0.377345
C	 0.1642259134	-0.9052200272	-2.4777806486	 0.036385
C	-0.4275827344	-1.1710920602	-3.5002248046	 0.105719
C	-1.0777431998	-1.5137230956	-4.7363546289	 0.012128
O	-2.2310718592	-1.2538426809	-4.9979180102	-0.230676
H	 1.1338051603	 1.9891119224	-0.1248880837	 0.137046
H	-0.2258005194	 2.0690897801	-1.2609914416	 0.132184
H	-0.5208324675	 2.1811592414	 0.4809738979	 0.123839
H	 0.2577869059	-0.1801579558	 0.7908999659	 0.134476
H	-1.108494012	-0.1120526839	-0.3323717833	 0.123474
H	 3.4430490748	-0.7603288234	 0.0482075426	 0.319603
H	-0.4260264168	-2.0496630979	-5.4553090587	 0.104103
38.8404	53.9706	77.3725	117.2189	192.6493	220.0082	238.2038	284.681	323.6972	420.5485	452.8874	515.3262	534.8561	650.8474	682.9448	761.0151	807.2935	941.483	998.2682	1018.3274	1049.5296	1087.4451	1102.1957	1267.9252	1303.441	1347.2116	1405.6346	1417.6103	1424.9752	1481.1446	1497.7994	1507.3062	1649.8011	1758.3266	2308.5666	2925.9473	3046.2439	3064.2895	3106.7465	3119.2645	3133.2457	3807.5344
CCC(=NO)C#CC=O	CCC(=NO)C#CC=O	
InChI=1S/C6H7NO2/c1-2-6(7-9)4-3-5-8/h5,9H,2H2,1H3	InChI=1S/C6H7NO2/c1-2-6(7-9)4-3-5-8/h5,9H,2H2,1H3
