15
gdb 127803	3.02228	1.45652	1.155	5.7406	68.37	-0.2499	-0.0088	0.2411	1049.928	0.113381	-450.112785	-450.10467	-450.103726	-450.146121	28.556	
C	 0.0462121616	 1.228745526	 0.7892768959	-0.336075
N	 0.0638167166	-0.1576457038	 0.372066756	 0.004514
N	 0.4397866555	-0.4976174519	-0.8811148205	-0.150835
N	 0.3809610484	-1.796661917	-0.9772513066	-0.187576
C	-0.0288239813	-2.317131869	 0.2091188948	-0.150586
C	-0.2280204064	-1.2749674605	 1.0775959759	 0.413095
O	-0.7384505509	-1.2625438218	 2.3449140361	-0.244729
C	 0.0904290934	-0.9757271341	 3.3886622151	 0.098374
N	 1.2857621442	-0.613781761	 3.2418912196	-0.431016
H	 0.2123273042	 1.8313243955	-0.1032064573	 0.168454
H	-0.9236543405	 1.4789313598	 1.2272992897	 0.144216
H	 0.8353523655	 1.4092998127	 1.522355513	 0.164313
H	-0.1579274223	-3.3741686259	 0.3703449147	 0.131289
H	-0.4735138767	-1.1111720045	 4.3137304123	 0.130265
H	 1.7299586387	-0.4560125845	 4.1436032713	 0.246298
65.027	126.037	143.0549	187.6327	215.8211	290.0788	348.9773	471.5429	603.6032	662.8942	715.0126	737.5868	801.2449	833.4981	849.8502	972.3108	1028.8522	1032.9271	1044.6148	1132.0725	1155.1764	1197.235	1271.4606	1280.1991	1310.6999	1348.9677	1398.9599	1435.8119	1478.8688	1505.1343	1513.942	1595.8557	1731.059	3057.4814	3119.812	3129.441	3169.3112	3279.0243	3527.3807
CN1N=NC=C1OC=N	Cn1nncc1O[CH][NH]	
InChI=1S/C4H6N4O/c1-8-4(9-3-5)2-6-7-8/h2-3,5H,1H3	InChI=1S/C4H6N4O/c1-8-4(9-3-5)2-6-7-8/h2-3,5H,1H3
