19
gdb 5803	3.34829	1.45929	1.31666	2.2749	68.15	-0.2589	0.0586	0.3175	1037.7624	0.16287	-402.262218	-402.252629	-402.251685	-402.295812	35.611	
C	-0.059451754	 1.5657329007	 0.0713665306	-0.416481
C	 0.0377108342	 0.0365463856	 0.0614449344	 0.376642
C	 0.7023401618	-0.5087129762	 1.3296774831	-0.417477
C	-1.3440911325	-0.5906534346	-0.1360285233	-0.399831
O	 0.767506497	-0.4157597766	-1.1261077283	-0.309655
C	 2.0604007101	-0.0712179931	-1.3152876113	 0.491551
N	 2.5255714676	-0.6749351344	-2.4544046574	-0.549972
O	 2.7360785632	 0.631209322	-0.5961251169	-0.407661
H	 0.9241684576	 2.0195226217	 0.1890692093	 0.153446
H	-0.5067629246	 1.9239302102	-0.8612085894	 0.111398
H	-0.6997119815	 1.8870584058	 0.8990355021	 0.110738
H	 0.0874585888	-0.2615568664	 2.2008936962	 0.110688
H	 0.7891827198	-1.5982769084	 1.2740334791	 0.114421
H	 1.6955240609	-0.081514774	 1.466063817	 0.153644
H	-1.7999859691	-0.2344558635	-1.0640853988	 0.11692
H	-1.2692038231	-1.6805316471	-0.1844876237	 0.118951
H	-2.0005866224	-0.3244350562	 0.6971056652	 0.116127
H	 1.8591059473	-1.046418727	-3.1096390691	 0.261064
H	 3.394352749	-0.3198433386	-2.8152144388	 0.265488
78.024	119.8128	198.4326	199.6984	249.8817	264.6356	316.3201	342.7787	346.2564	356.9025	426.071	456.6649	481.8791	521.6374	661.7484	767.2537	786.0967	849.364	923.1825	924.0088	964.5757	1038.5011	1050.5569	1065.564	1114.1032	1208.1178	1266.3193	1280.2895	1369.6166	1392.7825	1396.7847	1422.5783	1467.0205	1488.7005	1488.7733	1492.9362	1504.2602	1527.2555	1608.297	1813.5364	3041.2976	3041.9353	3049.2675	3105.4027	3108.4402	3119.7016	3123.5065	3156.3768	3159.3187	3612.6016	3742.7498
CC(C)(C)OC(N)=O	CC(C)(C)OC(=O)N	
InChI=1S/C5H11NO2/c1-5(2,3)8-4(6)7/h1-3H3,(H2,6,7)	InChI=1S/C5H11NO2/c1-5(2,3)8-4(6)7/h1-3H3,(H2,6,7)
