18
gdb 40439	4.02984	1.22379	1.09731	1.488	71.21	-0.2235	0.0729	0.2965	1129.0313	0.148715	-439.026106	-439.018447	-439.017503	-439.058515	29.533	
C	 0.4434919278	 1.5507468361	 0.2376987242	-0.227713
N	 1.3011895878	 0.4118450216	-0.1299549867	-0.320333
C	-0.1454090171	 0.2033717137	 0.0257428456	-0.131486
C	-0.5592310073	-0.6702782182	 1.1574413152	 0.449963
C	 0.335717128	-1.0061196923	 2.3345624975	-0.405583
C	-0.1516726512	-2.0900332431	 1.3897322381	 0.027086
O	-1.3161193627	-2.8041428548	 1.7241934818	-0.257906
C	-2.297118775	-1.8352276999	 2.0460390865	 0.007061
O	-1.9530345611	-0.6277850074	 1.3914835689	-0.303418
H	 0.5878965773	 1.9155225449	 1.2502701277	 0.124014
H	 0.2449000328	 2.3189379847	-0.5043114428	 0.115536
H	 1.5414006769	 0.4529767229	-1.1160190203	 0.237655
H	-0.7450519199	 0.0637910499	-0.8717863917	 0.091987
H	 1.375891979	-0.7216478827	 2.2204810754	 0.143806
H	-0.0590284206	-0.9512029729	 3.3429323805	 0.118346
H	 0.5258799748	-2.6576473112	 0.7655097793	 0.116676
H	-3.2755362606	-2.1758964746	 1.6918534935	 0.120068
H	-2.3308838189	-1.6773372168	 3.1365713274	 0.094242
75.9875	151.4755	192.9528	238.7229	305.5934	372.3568	450.0417	483.8517	642.4888	733.9033	748.7404	835.8515	850.5947	881.6736	900.6483	931.5212	962.0488	968.9757	985.3217	1008.45	1021.2168	1072.8673	1079.7672	1114.3918	1123.0612	1154.7425	1160.6897	1192.2369	1213.1037	1222.3755	1249.1089	1282.9063	1291.2392	1382.2353	1432.8879	1446.7438	1483.3706	1512.7318	1552.6473	2962.9726	3070.2087	3114.2088	3126.5983	3137.6769	3202.8574	3203.9374	3233.2344	3517.2463
C1NC1C12CC1OCO2	C1N[C@H]1[C@]12C[C@H]1OCO2	
InChI=1S/C6H9NO2/c1-5-6(1,4-2-7-4)9-3-8-5/h4-5,7H,1-3H2	InChI=1S/C6H9NO2/c1-5-6(1,4-2-7-4)9-3-8-5/h4-5,7H,1-3H2/t4-,5-,6-/m1/s1
