21
gdb 114879	4.03924	1.02873	0.89674	1.6622	85.76	-0.2251	0.0111	0.2362	1366.8558	0.182962	-387.066754	-387.058181	-387.057237	-387.100194	32.735	
C	 0.0351507301	 1.4020128872	 0.2329769344	-0.379984
C	-0.1600221813	-0.0675418014	-0.1535054389	-0.19331
C	 0.6710586766	-0.4816003092	-1.3609962405	-0.057165
C	 2.2470409218	-0.5886442859	-1.2382580884	-0.277867
C	 2.1802740576	-1.8676213976	-2.1506478916	 0.097589
O	 2.7684826005	-3.108007764	-1.8126583823	-0.281838
C	 1.6971585083	-4.029145939	-1.525713228	-0.105991
C	 0.4634287451	-3.1650693252	-1.3008726935	-0.242408
C	 0.7456946334	-1.9463717579	-1.7458224037	 0.206603
H	 1.0806778173	 1.6110553326	 0.4831370704	 0.1212
H	-0.2483749519	 2.0693721044	-0.5884889633	 0.114724
H	-0.5745367341	 1.6666019582	 1.1021823216	 0.114201
H	 0.0997315967	-0.7155549061	 0.6928160796	 0.098409
H	-1.2198169042	-0.2536680745	-0.3702962648	 0.100516
H	 0.4238891953	 0.1515008448	-2.22265816	 0.082611
H	 2.8382435581	 0.2567298268	-1.5980587974	 0.09965
H	 2.5418016932	-0.8563848851	-0.2207350205	 0.113796
H	 2.3883646819	-1.613672901	-3.1998040018	 0.076605
H	 1.5913725095	-4.7483570955	-2.3541776535	 0.102
H	 1.9562404003	-4.6028728933	-0.6258907357	 0.10971
H	-0.3974863942	-3.5035167382	-0.7384440022	 0.10095
83.8494	113.1844	131.4858	200.5094	249.8159	301.5394	355.7684	412.0407	451.5198	664.1725	678.677	735.8386	768.8514	801.0173	825.8366	859.4587	919.324	928.074	954.8204	974.585	977.4271	1023.9646	1043.7666	1066.9476	1093.6677	1125.5649	1142.1742	1161.7604	1192.7344	1206.3935	1238.1591	1247.7652	1282.0402	1295.7946	1334.8723	1342.8767	1374.4448	1398.3574	1411.8902	1469.3145	1488.6474	1499.0565	1506.8929	1518.2541	1722.9328	2969.1976	2997.8019	3020.1597	3023.71	3026.7404	3032.3354	3056.3311	3060.8004	3099.3829	3105.7383	3130.2265	3212.5953
CCC1CC2OCC=C12	CC[C@H]1C[C@H]2OC[CH][C]12	
InChI=1S/C8H12O/c1-2-6-5-8-7(6)3-4-9-8/h3,6,8H,2,4-5H2,1H3	InChI=1S/C8H12O/c1-2-6-5-8-7(6)3-4-9-8/h3,6,8H,2,4-5H2,1H3/t6-,8+/m0/s1
