15
gdb 38515	2.72328	2.64354	2.45035	4.0723	65.68	-0.2206	-0.0642	0.1565	699.6207	0.115328	-416.704754	-416.699584	-416.69864	-416.733866	23.075	
C	-0.0747286524	 1.5463121778	 0.0716484941	-0.197736
C	 1.4055964438	 1.9764236753	-0.0657662152	 0.045941
O	 1.9625115241	 1.6308555381	-1.4560176349	-0.256344
C	 1.6475572986	 0.3162544786	-1.266084342	 0.263914
N	 0.4506978068	-0.1074127158	-1.458027561	-0.25496
C	 0.020033107	-0.0191585967	-0.0232344883	-0.049451
C	 1.2833707575	-0.3020841519	 0.8394679749	-0.057453
C	 2.1247552705	 0.946335511	 0.8292595135	-0.062431
N	 2.3936830802	-0.1641758454	-0.1018975867	-0.10432
H	-0.4077779322	 1.8451644118	 1.0752109411	 0.113864
H	-0.7263925723	 1.9802015476	-0.6882838346	 0.135974
H	 1.6257796751	 3.0305547857	 0.0740000918	 0.115437
H	-0.8835124811	-0.5760203388	 0.2224072501	 0.089205
H	 1.3298056653	-1.0722090867	 1.6003046401	 0.108596
H	 2.8759532191	 1.2150552195	 1.5629968171	 0.109763
388.2377	427.6398	546.1142	554.9353	624.8493	649.9671	674.0855	766.8955	789.8082	806.3901	826.6386	850.5976	866.5708	892.0485	906.6139	926.8935	947.8809	964.0792	997.886	1059.1951	1071.7682	1090.4002	1134.6662	1175.729	1189.682	1240.1969	1248.8345	1263.5621	1279.5221	1318.0143	1353.3621	1439.3985	1523.0637	3029.6849	3124.3909	3131.6165	3172.9298	3180.1418	3189.0228
C1C2OC3=NC1C1C2N31	C1[C@@H]2O[C]3[N][C@H]1[C@@H]1[C@H]2N31	
InChI=1S/C6H6N2O/c1-2-4-5-3(1)9-6(7-2)8(4)5/h2-5H,1H2	InChI=1S/C6H6N2O/c1-2-4-5-3(1)9-6(7-2)8(4)5/h2-5H,1H2/t2-,3+,4-,5+,8?/m1/s1
