19
gdb 39382	2.40305	1.71928	1.10654	1.9913	77.	-0.2303	0.0348	0.2651	1097.4351	0.162283	-419.174109	-419.166385	-419.165441	-419.206331	30.19	
C	 0.07627906	 1.3672151373	-0.2990423124	-0.138869
C	 1.4533286805	 2.0484050845	-0.2277361163	-0.241385
C	 2.5942225239	 1.1236765686	-0.5725954804	 0.003183
N	 3.8832754411	 1.363060371	 0.1013778108	-0.349912
C	 3.1060591185	 0.1541461272	 0.4262602821	-0.041771
C	 2.5220432713	 0.1159388535	 1.8144013329	-0.075754
O	 1.4171075364	-0.7791377257	 1.9198132491	-0.230312
C	 0.2081223625	-0.5792628763	 1.3123452186	 0.137207
N	-0.3002366914	 0.2292789651	 0.5003745049	-0.261869
H	-0.6847041492	 2.1355775877	-0.1095714515	 0.117299
H	-0.0973746496	 1.0599908167	-1.3412587749	 0.115216
H	 1.4347010691	 2.8871064353	-0.935743865	 0.099138
H	 1.6210801635	 2.4918246298	 0.75724422	 0.112514
H	 2.6281898319	 0.8011061293	-1.612333835	 0.085152
H	 4.6572994537	 1.1235877142	-0.5120117015	 0.234664
H	 3.4678168055	-0.8053010962	 0.0623076399	 0.090558
H	 3.2547436426	-0.2734903363	 2.5270958636	 0.117283
H	 2.2405500713	 1.1198376177	 2.1438559231	 0.11659
H	-0.4274243816	-1.3855133832	 1.6882548421	 0.111069
101.965	155.9577	214.0439	272.4693	288.6356	392.7233	432.7177	465.7405	545.0177	561.1989	696.9541	782.2099	817.5769	831.9396	908.6302	916.8182	943.2882	968.1702	993.873	1006.3024	1047.6561	1056.3861	1060.9983	1141.3891	1156.5651	1174.7699	1221.8396	1251.9066	1266.5644	1294.9286	1300.3631	1357.5665	1379.0834	1399.1101	1426.6434	1463.761	1467.5121	1480.8309	1488.4469	1518.511	1808.4832	2998.0116	3026.4304	3036.3552	3059.2034	3091.5616	3096.5723	3104.4476	3116.6594	3134.68	3510.4491
C1CC2NC2COC=N1	C1C[C@H]2N[C@H]2COC=N1	
InChI=1S/C6H10N2O/c1-2-7-4-9-3-6-5(1)8-6/h4-6,8H,1-3H2/b7-4-	InChI=1S/C6H10N2O/c1-2-7-4-9-3-6-5(1)8-6/h4-6,8H,1-3H2/b7-4-/t5-,6+/m1/s1
