14
gdb 61355	3.67979	0.81756	0.75823	4.356	70.2	-0.2858	-0.0781	0.2076	1450.9173	0.097325	-436.663679	-436.65413	-436.653186	-436.699296	32.854	
O	 0.3297477102	 1.5540598623	-0.0098414297	-0.407743
C	 0.1049295059	 0.158767991	-0.0031283579	-0.009925
C	 0.6248804149	-0.5244287535	-1.2784094852	-0.335183
C	-0.2469418431	-0.1777936389	-2.4839703913	 0.247305
O	-1.4000240149	 0.1718402217	-2.3722654562	-0.280083
C	 0.3915218928	-0.3372247271	-3.7750684578	 0.247494
C	 0.9454414055	-0.4799749347	-4.8341411045	-0.385389
C	 0.6848619391	-0.4752243679	 1.1967537432	 0.249409
N	 1.172920887	-0.955597889	 2.1275319331	-0.312875
H	 1.2767831375	 1.7125866993	 0.07969139	 0.296334
H	-0.9824779113	 0.039960876	 0.0248005582	 0.168027
H	 1.6687330345	-0.2538243014	-1.4680222282	 0.134755
H	 0.6049677134	-1.6165871617	-1.1655221336	 0.164451
H	 1.4169960186	-0.5984171461	-5.7799876202	 0.223423
38.0746	65.94	103.6425	185.229	190.5395	237.9408	268.2806	337.4256	373.184	450.8963	547.7056	572.7022	610.0179	626.6625	654.4463	718.1374	814.2861	892.8091	935.5646	1042.0916	1093.3849	1107.1678	1186.063	1272.8081	1307.6599	1373.6902	1421.5689	1445.367	1773.8878	2213.6975	2356.1834	3037.6071	3080.9832	3094.0524	3492.0474	3799.1513
OC(CC(=O)C#C)C#N	O[C@@H](CC(=O)C#C)C#N	
InChI=1S/C6H5NO2/c1-2-5(8)3-6(9)4-7/h1,6,9H,3H2	InChI=1S/C6H5NO2/c1-2-5(8)3-6(9)4-7/h1,6,9H,3H2/t6-/m0/s1
