19
gdb 37882	2.94976	2.17009	2.10193	1.4229	76.18	-0.2401	0.0832	0.3232	806.6633	0.164471	-385.874545	-385.869104	-385.86816	-385.903898	25.144	
C	-0.0464109952	 1.5507343382	 0.0679701099	-0.231205
C	 1.4915400043	 1.526146274	-0.0280971553	-0.054457
C	 2.0991149311	 0.7857573431	 1.2248239855	 0.076936
O	 1.0561410762	 0.4028946908	 2.1172991688	-0.261812
C	 0.3755273906	-0.6147198364	 1.3627844938	 0.070687
C	 1.5242540303	-1.5892704589	 1.0476798578	-0.222524
C	 2.3723921934	-0.5126812198	 0.3662246199	-0.064535
C	 1.4420888957	 0.1192077438	-0.6965217939	-0.038154
C	 0.0129931344	 0.0003981109	-0.0228525464	-0.061228
H	-0.5069988722	 1.9893860564	 0.956385846	 0.103771
H	-0.4863506727	 1.9870541359	-0.8330124083	 0.092854
H	 2.0532316679	 2.3775614055	-0.4149323993	 0.056906
H	 2.8969550052	 1.2707726256	 1.7871751698	 0.074219
H	-0.4638553391	-0.9797506717	 1.9547931509	 0.072338
H	 1.9619841991	-2.0145347735	 1.9543204404	 0.102406
H	 1.2383024864	-2.3913705474	 0.359622052	 0.09529
H	 3.4025606617	-0.740288564	 0.0972780617	 0.064314
H	 1.5410623872	-0.0744392611	-1.7642477231	 0.058466
H	-0.7840080744	-0.5389481314	-0.5370444203	 0.065728
360.0407	415.3384	442.659	544.1193	601.2974	632.6936	716.5082	769.4743	787.6272	818.228	829.5482	865.4504	883.5666	912.3341	918.4581	943.1944	956.0467	966.6215	982.2933	994.9745	1015.2704	1028.9007	1061.0297	1114.6059	1122.446	1125.5633	1161.6714	1191.2255	1209.3945	1230.7641	1239.9777	1253.2271	1261.1888	1282.8798	1293.9839	1301.6262	1309.9229	1322.2547	1361.5761	1479.4886	1481.1412	3054.5421	3057.195	3092.5546	3095.3391	3111.0444	3111.8602	3112.822	3114.5751	3121.9661	3133.9295
C1C2C3OC4CC3C2C14	C1[C@H]2[C@H]3O[C@@H]4C[C@H]3[C@H]2[C@H]14	
InChI=1S/C8H10O/c1-3-6-2-5-7(3)4(1)8(5)9-6/h3-8H,1-2H2	InChI=1S/C8H10O/c1-3-6-2-5-7(3)4(1)8(5)9-6/h3-8H,1-2H2/t3-,4-,5+,6-,7+,8-/m1/s1
