13
gdb 11938	3.36088	1.87254	1.53468	5.4382	60.55	-0.2509	-0.0085	0.2424	827.6868	0.094274	-398.554583	-398.547294	-398.54635	-398.586239	26.465	
O	-0.035579644	 1.4377722455	 0.0995022172	-0.435678
C	-0.0235949652	 0.0714277075	 0.038552514	 0.275864
C	-0.2866823333	-0.7499707796	-1.1900327778	-0.399152
C	-1.1636516573	-0.9633122499	 0.0301006075	 0.285988
O	-0.4928687783	-1.7886273782	 0.9786996662	-0.309739
C	 0.5654994806	-0.8001190703	 1.1413263984	-0.132836
C	-2.5824303453	-0.8582640599	 0.0456320639	 0.225293
N	-3.7349779651	-0.7510937827	 0.0476705471	-0.34825
H	 0.2856123255	 1.7977352265	-0.7334983608	 0.304024
H	-0.7735256204	-0.2052181126	-1.9942180485	 0.143847
H	 0.3771262422	-1.554231017	-1.4971223415	 0.135954
H	 1.5616130854	-1.2253937262	 0.9812067976	 0.118515
H	 0.5013194552	-0.3267251829	 2.1260713467	 0.13617
97.9608	147.3635	165.1624	288.4109	369.5095	393.6468	430.1884	552.222	573.7402	614.9576	703.9802	777.1707	836.6098	934.1109	958.753	984.3387	1048.2071	1064.9073	1114.1873	1142.961	1180.6343	1274.7089	1324.2916	1360.9593	1416.4368	1479.2269	1515.4215	2345.4113	3043.3	3103.0098	3110.5744	3209.0621	3819.9747
OC12CC1(OC2)C#N	O[C@]12C[C@]1(OC2)C#N	
InChI=1S/C5H5NO2/c6-2-5-1-4(5,7)3-8-5/h7H,1,3H2	InChI=1S/C5H5NO2/c6-2-5-1-4(5,7)3-8-5/h7H,1,3H2/t4-,5-/m0/s1
