18
gdb 115494	2.57782	1.14607	0.8351	2.7236	69.54	-0.2583	0.0078	0.2661	1351.7233	0.147692	-476.230528	-476.221323	-476.220379	-476.265403	32.547	
O	 0.0861370305	 1.3695099024	 0.2435159966	-0.418766
C	 0.0196280947	-0.0306990457	 0.1116511438	-0.055193
C	-1.429679756	-0.5157444044	 0.0091519314	-0.009382
C	-1.584092165	-2.0580036542	-0.0353486215	-0.135476
O	-2.414632073	-2.3667122242	 1.113694076	-0.250258
C	-2.6415780683	-1.1877548359	 1.7296444215	 0.393923
C	-3.4692199105	-1.2267438376	 2.9784518026	-0.127873
O	-3.6270594286	 0.0505138574	 3.5360536546	-0.419213
N	-2.1683329523	-0.1215589956	 1.22469308	-0.365661
H	-0.5208952234	 1.6003650028	 0.9574668346	 0.294114
H	 0.5695954771	-0.2939032201	-0.799178588	 0.109104
H	 0.5055660799	-0.5478893621	 0.9571373882	 0.085705
H	-1.8922297597	-0.0305881333	-0.8575523873	 0.100764
H	-2.0904824519	-2.4261906369	-0.9299314354	 0.129607
H	-0.6332432567	-2.5885407342	 0.0822736549	 0.123721
H	-4.4417510566	-1.680338709	 2.7285504438	 0.123134
H	-2.9862223722	-1.9049401437	 3.6973643745	 0.127028
H	-3.231751088	 0.6706222044	 2.9076428098	 0.294723
67.0147	79.8182	116.1664	154.3887	204.1705	240.5589	264.6287	380.4201	447.3397	454.3796	475.8401	621.4455	696.7587	737.7713	874.3483	927.2201	966.3	1001.9701	1036.4099	1039.9649	1070.4611	1102.2045	1116.0441	1138.8204	1210.5811	1227.9562	1245.9297	1246.7481	1310.2666	1331.5518	1343.1123	1384.6718	1389.8998	1434.3413	1480.215	1503.8757	1504.7015	1519.5044	1731.2965	2956.3165	2986.1	3014.2318	3044.331	3048.8924	3065.7447	3110.2583	3738.8281	3785.7008
OCC1COC(CO)=N1	OC[C@H]1COC(=N1)CO	
InChI=1S/C5H9NO3/c7-1-4-3-9-5(2-8)6-4/h4,7-8H,1-3H2	InChI=1S/C5H9NO3/c7-1-4-3-9-5(2-8)6-4/h4,7-8H,1-3H2/t4-/m0/s1
