19
gdb 48626	3.35038	1.4075	1.19307	3.0027	75.04	-0.2443	-0.0302	0.2141	1072.339	0.160169	-423.023153	-423.015381	-423.014436	-423.055646	30.289	
O	-0.4296285026	 0.4545566945	-0.6358369085	-0.266431
C	 0.1403718061	 0.9948859281	 0.2782653551	 0.090939
C	 1.4183661809	 1.7757074829	 0.1055032483	 0.341124
C	 2.6158111274	 1.1106825115	-0.6364776346	-0.24997
C	 2.997593417	 2.5554916754	-1.0634689216	-0.035426
C	 1.4791366041	 2.8887115568	-0.9891837975	-0.282388
C	 3.7246478125	 3.225725597	 0.1163679548	-0.228135
C	 2.7731749784	 3.3068250545	 1.3315324798	-0.077247
O	 1.8287521475	 2.235046089	 1.3828067998	-0.325515
H	-0.2380035234	 0.9570878266	 1.3228680062	 0.090578
H	 3.3145805978	 0.5514185886	-0.0094100082	 0.09943
H	 2.2678899801	 0.4993065266	-1.4716625541	 0.119383
H	 3.52203327	 2.6990788875	-2.0102011366	 0.06974
H	 0.9384819225	 2.5523229931	-1.8753615595	 0.126705
H	 1.1574909982	 3.896672625	-0.7178597817	 0.10405
H	 4.6270858374	 2.6527408785	 0.3580479863	 0.106704
H	 4.0463502914	 4.2407657575	-0.142389829	 0.102296
H	 3.320950488	 3.2768127619	 2.2771502751	 0.11248
H	 2.2277357567	 4.260094565	 1.3028364458	 0.101686
59.1234	182.8002	202.1397	221.5949	354.2201	389.3639	444.3463	455.6719	550.2078	600.2757	723.4147	802.4007	816.9724	830.2278	872.7404	885.0989	936.5664	936.9001	956.2211	1022.1166	1041.8039	1072.0898	1100.757	1118.9852	1123.3287	1184.2957	1208.6804	1226.8969	1240.6978	1257.1547	1283.1824	1296.0015	1330.5793	1362.6869	1399.4053	1413.65	1467.4467	1490.3715	1498.9143	1525.6577	1827.4125	2902.9752	3003.1103	3033.0505	3062.1751	3072.1076	3073.5433	3087.4266	3090.7697	3131.1843	3137.3091
O=CC12CC(C1)CCO2	O=C[C@@]12C[C@@H](C1)CCO2	
InChI=1S/C7H10O2/c8-5-7-3-6(4-7)1-2-9-7/h5-6H,1-4H2	InChI=1S/C7H10O2/c8-5-7-3-6(4-7)1-2-9-7/h5-6H,1-4H2/t6-,7+
