18
gdb 32862	4.47255	0.89999	0.75703	1.7804	76.12	-0.1695	0.0635	0.2331	1498.052	0.148304	-435.30454	-435.29517	-435.294226	-435.339155	33.983	
C	 0.0273195179	 1.4869038533	-0.0576332183	-0.39186
C	-0.0066108903	-0.0282751167	-0.009572818	-0.037178
O	 0.681918872	-0.5134452018	-1.1733877092	-0.282767
C	 0.7360221374	-1.8454710894	-1.2903217731	 0.493389
N	 0.248733162	-2.7437944622	-0.4680781297	-0.410443
C	 0.5738572952	-3.9597320852	-1.0427194116	 0.281884
N	 0.1309276917	-5.1402053326	-0.4365376503	-0.595681
C	 1.2621655353	-3.7825731916	-2.211633803	-0.193806
N	 1.3578986597	-2.3898330989	-2.3586855896	-0.338976
H	 1.0573756442	 1.8547271256	-0.0533631014	 0.127187
H	-0.4680611091	 1.8597239948	-0.9586658149	 0.127986
H	-0.4893684872	 1.896817188	 0.8151487716	 0.121832
H	 0.4865523608	-0.4205312802	 0.8866157596	 0.118832
H	-1.0312891499	-0.4155511406	-0.0136666779	 0.122046
H	-0.0295703476	-4.9929268014	 0.5517365846	 0.245002
H	 0.7605623968	-5.9195429535	-0.5736635876	 0.238467
H	 1.6695878361	-4.4628761379	-2.9381948013	 0.111818
H	 1.8033541251	-1.8819941896	-3.1021510999	 0.262271
54.1796	87.1231	137.5924	200.5438	232.1978	254.2427	287.6958	322.4539	388.9402	433.8742	507.2446	587.1231	653.0096	668.8809	727.0622	766.9205	792.7214	809.95	918.6524	1008.3263	1045.699	1077.594	1083.2257	1126.4854	1142.1688	1185.1206	1276.3911	1291.2487	1318.7193	1391.4702	1413.1611	1421.2819	1483.5657	1497.9466	1520.5843	1526.1441	1612.2095	1627.1884	1658.8863	3040.9725	3045.43	3077.7951	3120.6174	3123.3512	3287.0162	3541.2216	3637.0528	3686.6664
CCOC1=NC(N)=CN1	CCOc1nc(N)c[nH]1	
InChI=1S/C5H9N3O/c1-2-9-5-7-3-4(6)8-5/h3H,2,6H2,1H3,(H,7,8)	InChI=1S/C5H9N3O/c1-2-9-5-7-3-4(6)8-5/h3H,2,6H2,1H3,(H,7,8)
