13
gdb 21062	6.87272	1.3668	1.14846	0.8899	70.72	-0.2411	-0.0213	0.2197	983.6159	0.096127	-357.618643	-357.611336	-357.610392	-357.651034	25.686	
C	-0.0046258281	 1.4356768305	 0.0193480931	-0.312477
N	-0.0281545687	-0.0137072428	 0.002588309	 0.137233
N	-0.0046563242	-0.7042298437	-1.1342554244	-0.210665
C	 0.0308182439	-1.970701617	-0.7291985566	-0.165537
C	 0.0310333176	-1.9979363875	 0.6802973267	 0.196585
N	-0.0044298325	-0.7255109887	 1.1171520423	-0.300265
C	 0.0534078113	-3.1133178543	 1.5487625343	 0.280214
C	 0.0744110575	-4.0845320589	 2.2583637413	-0.438313
H	 1.0259479267	 1.8031795447	 0.0157638206	 0.154632
H	-0.5223623131	 1.7967120572	-0.8688272808	 0.163142
H	-0.5088766613	 1.7757618979	 0.9232883945	 0.164904
H	 0.0460476376	-2.7884825247	-1.4307442891	 0.133417
H	 0.0922158432	-4.9365782026	 2.8915585993	 0.197132
37.5297	141.1372	150.1513	235.1731	364.6387	478.6293	547.742	568.1797	589.4641	669.243	676.1088	733.0296	753.4449	882.7909	1013.818	1040.8426	1088.1696	1146.4213	1197.3073	1336.0867	1347.3998	1400.0065	1427.7894	1447.6963	1484.1666	1501.0372	1528.9735	2244.5407	3058.1046	3139.672	3179.8683	3280.6455	3505.1802
CN1N=CC(=N1)C#C	Cn1ncc(n1)C#C	
InChI=1S/C5H5N3/c1-3-5-4-6-8(2)7-5/h1,4H,2H3	InChI=1S/C5H5N3/c1-3-5-4-6-8(2)7-5/h1,4H,2H3
