18
gdb 96942	3.36376	1.188	1.07207	1.3122	74.75	-0.2546	0.0212	0.2758	1188.1238	0.147544	-439.060133	-439.051689	-439.050745	-439.093662	31.356	
C	 0.2613585855	 1.3996536834	-0.2845339091	-0.341701
N	 0.5177997056	-0.0330108906	-0.2409803549	-0.328368
C	 0.5906294764	-0.615415669	 0.8592112213	 0.471802
O	 0.4720946731	-0.1027149587	 2.1643362069	-0.302781
C	 0.8130843612	-1.4027111847	 2.7390267058	 0.062139
C	-0.4758226753	-2.1764277766	 3.1070192853	 0.143847
O	-1.5421401584	-1.4114513832	 3.5841920946	-0.430503
C	-0.528900903	-2.7526354962	 1.6479148264	-0.284437
C	 0.8193854895	-2.0315902262	 1.3165445858	-0.197425
H	 1.0324536514	 1.8800181743	-0.8957107385	 0.131188
H	-0.6977381064	 1.5765462004	-0.7840275644	 0.130859
H	 0.2388885057	 1.8812293949	 0.699952836	 0.125995
H	 1.6540430367	-1.3249315013	 3.4275441901	 0.093601
H	-0.282875539	-2.9635116209	 3.841970416	 0.096464
H	-1.4942915832	-0.560427707	 3.1285239308	 0.290768
H	-0.4670305225	-3.8416127911	 1.6061164023	 0.114565
H	-1.3810528927	-2.423648827	 1.050358848	 0.12071
H	 1.6327540055	-2.5995581006	 0.8727171677	 0.103277
74.8684	91.0272	140.8132	199.0054	249.2274	318.5986	394.8164	439.3541	474.0439	575.8632	635.7927	705.3313	779.7526	799.6913	848.1362	898.7717	906.1783	973.0807	994.6889	1037.7446	1059.1578	1075.0047	1104.2277	1132.6892	1148.6963	1156.4249	1171.7176	1217.1751	1240.9044	1270.2424	1292.6431	1311.9708	1329.9979	1439.0028	1442.1359	1476.979	1493.28	1498.9035	1853.687	3018.8481	3068.2132	3077.039	3084.847	3091.5524	3120.3627	3133.8186	3155.7292	3762.3695
CN=C1OC2C(O)CC12	CN=C1O[C@H]2[C@@H](O)C[C@@H]12	
InChI=1S/C6H9NO2/c1-7-6-3-2-4(8)5(3)9-6/h3-5,8H,2H2,1H3	InChI=1S/C6H9NO2/c1-7-6-3-2-4(8)5(3)9-6/h3-5,8H,2H2,1H3/t3-,4+,5-/m1/s1
