18
gdb 64776	2.32654	1.58776	1.22996	3.6104	71.08	-0.2662	0.032	0.2982	1078.3074	0.146859	-439.110287	-439.101397	-439.100453	-439.144184	32.368	
C	-0.0567237183	 1.5613299911	 0.2137284306	-0.418397
C	 0.0005838044	 0.0451844503	 0.0433476762	 0.437931
C	-1.4243593179	-0.5489596776	-0.0889465695	-0.370901
C	-1.4059677778	-1.9907790712	-0.3140624173	 0.281442
N	-1.3872976664	-3.1316075438	-0.495384798	-0.320337
O	 0.7755573581	-0.259003635	-1.1046126703	-0.294564
C	 1.7651961668	-1.2231725276	-0.7422078893	-0.107319
C	 1.9316221487	-0.9802285232	 0.7556630305	-0.10272
O	 0.6250512996	-0.5777748526	 1.1536935023	-0.286293
H	 0.9550360676	 1.9466000383	 0.3582735922	 0.128959
H	-0.4813136801	 2.0307908514	-0.6776859245	 0.129837
H	-0.6634405981	 1.828857985	 1.0828627312	 0.126159
H	-1.9864952865	-0.3363370247	 0.8257846459	 0.158065
H	-1.9400455453	-0.0615018333	-0.9219470199	 0.156328
H	 1.4102829334	-2.2388159324	-0.9501480321	 0.1344
H	 2.6683786374	-1.02324958	-1.3239304825	 0.116686
H	 2.2028136752	-1.8739030718	 1.3216929554	 0.127206
H	 2.6646504093	-0.1868420929	 0.9588061593	 0.10352
70.3362	89.6657	139.3431	209.7754	215.1921	310.9234	324.8403	375.5931	396.2987	420.1015	587.3048	659.6064	674.0579	807.6046	845.8216	900.2508	907.7676	948.456	956.0464	976.5946	1066.0171	1075.2278	1123.2293	1151.9897	1169.1007	1226.8483	1233.0796	1256.4643	1258.8215	1342.7344	1379.6686	1388.8132	1406.6621	1449.8498	1482.8682	1485.3748	1515.0634	1523.0362	2365.8312	3005.4747	3044.217	3049.7336	3060.4562	3103.5049	3106.0206	3113.4754	3129.4088	3134.9928
CC1(CC#N)OCCO1	CC1(CC#N)OCCO1	
InChI=1S/C6H9NO2/c1-6(2-3-7)8-4-5-9-6/h2,4-5H2,1H3	InChI=1S/C6H9NO2/c1-6(2-3-7)8-4-5-9-6/h2,4-5H2,1H3
