21
gdb 102402	1.85683	1.4458	1.11672	2.7972	74.85	-0.2481	-0.042	0.2061	1232.7566	0.178734	-461.35557	-461.34477	-461.343825	-461.391174	38.671	
C	 0.168601454	 1.4553662131	 0.0020162601	-0.408146
C	-0.0035863635	-0.0632587618	 0.0985446075	-0.20506
C	-1.4671792549	-0.5381143467	 0.0056608524	 0.215463
C	-2.3490299289	 0.0941643805	 1.1232658383	-0.086266
O	-1.7860859557	-0.0410030205	 2.4037350276	-0.421127
O	-2.133680593	-0.1882762073	-1.1998804397	-0.283491
C	-1.4801741035	-0.5133113044	-2.4125396268	-0.252897
C	-1.5600267861	-2.0463805971	 0.2201781076	 0.129634
O	-1.1706259149	-2.6036548959	 1.2209047666	-0.276572
H	 1.2294068288	 1.7123549633	-0.0706570706	 0.115906
H	-0.3395880828	 1.8641581406	-0.8765158696	 0.124756
H	-0.2316155108	 1.9550628056	 0.8878795906	 0.140563
H	 0.5820587069	-0.5598315332	-0.6836658322	 0.096713
H	 0.3888147336	-0.4270272216	 1.051086682	 0.127227
H	-2.4441775291	 1.1618956131	 0.9109684251	 0.124245
H	-3.3578500876	-0.3422979283	 1.0578466662	 0.098597
H	-1.5839588048	-0.9782701655	 2.5330224998	 0.298569
H	-0.6078378068	 0.1256724562	-2.6002578653	 0.120584
H	-1.1527928728	-1.5623156747	-2.4482378676	 0.108099
H	-2.2096792442	-0.3523708439	-3.2097360681	 0.13522
H	-2.0920249738	-2.6061372413	-0.5801415037	 0.097983
82.5844	93.9881	144.8072	157.0225	170.0387	192.0353	220.1326	267.5534	276.4694	316.9989	332.728	416.2661	445.7241	493.6935	534.5978	626.4589	726.4194	778.9501	911.8111	939.0992	979.9217	1018.6084	1049.8558	1085.2901	1113.5268	1142.7664	1164.3297	1177.6336	1192.8269	1240.4638	1253.6612	1314.7458	1358.0093	1377.3631	1403.3223	1411.4299	1440.8807	1471.8749	1482.2562	1494.2265	1496.7569	1503.9487	1513.2738	1524.4814	1798.4749	2894.2737	2985.8877	2994.3211	3043.7041	3045.5301	3051.7461	3099.2801	3102.3562	3114.3018	3117.5753	3126.3966	3742.3667
CCC(CO)(OC)C=O	CC[C@@](CO)(OC)C=O	
InChI=1S/C6H12O3/c1-3-6(4-7,5-8)9-2/h4,8H,3,5H2,1-2H3	InChI=1S/C6H12O3/c1-3-6(4-7,5-8)9-2/h4,8H,3,5H2,1-2H3/t6-/m1/s1
