20
gdb 117384	3.90898	0.79397	0.72913	2.8985	76.96	-0.2304	-0.0156	0.2149	1613.8876	0.168266	-440.246394	-440.236396	-440.235452	-440.282749	34.945	
C	 0.1479586474	 0.8570430853	-0.1206062709	-0.241177
O	 0.0521067487	-0.4677587608	 0.36747266	-0.216008
C	 0.7328142246	-1.4141410596	-0.401145429	-0.168084
C	 0.0443842411	-1.7623972757	-1.7222087742	 0.346816
O	-0.9906368834	-1.2484928308	-2.0727392895	-0.293167
C	 0.761112026	-2.771060693	-2.6237202904	-0.253821
N	 1.599851598	-3.7001554498	-1.881512626	-0.07142
C	 0.9884862461	-4.9775593927	-1.5157391546	-0.223396
C	 2.0134875159	-4.9043236071	-2.5926869788	-0.21701
H	 1.1996611751	 1.1757045462	-0.2015668085	 0.096697
H	-0.338486889	 0.9697657126	-1.0955978195	 0.131194
H	-0.3561663682	 1.4978829445	 0.606517604	 0.127563
H	 1.7718564349	-1.1110772576	-0.6230421804	 0.110371
H	 0.8104436319	-2.3307379432	 0.194013583	 0.141182
H	-0.0019543913	-3.255680824	-3.2547128338	 0.112433
H	 1.4082173737	-2.1878134815	-3.2945182183	 0.132476
H	 1.2475083589	-5.3606024074	-0.5332040576	 0.12408
H	-0.0418604881	-5.1542849877	-1.8196587475	 0.121684
H	 1.6671563156	-5.0336970206	-3.6166293046	 0.115713
H	 3.0320715119	-5.2336895871	-2.4097634034	 0.123873
44.0632	54.9643	97.8268	129.0632	140.6395	192.4288	277.2176	318.0188	376.3609	414.8158	444.7613	491.2666	633.8929	770.4458	812.649	821.5812	883.2336	905.1047	964.9869	1027.569	1038.4839	1073.9871	1110.416	1125.3705	1134.8925	1167.3043	1174.7043	1180.4725	1204.0229	1232.3274	1260.9155	1302.283	1323.8218	1350.4008	1387.7698	1433.1893	1460.6408	1480.6283	1484.3153	1492.5702	1513.8616	1521.2709	1818.4951	2957.686	2972.792	2979.1585	3031.7376	3069.3882	3073.0413	3098.4248	3102.9677	3121.8452	3182.9066	3197.1481
COCC(=O)CN1CC1	COCC(=O)CN1CC1	
InChI=1S/C6H11NO2/c1-9-5-6(8)4-7-2-3-7/h2-5H2,1H3	InChI=1S/C6H11NO2/c1-9-5-6(8)4-7-2-3-7/h2-5H2,1H3
