21
gdb 89079	5.32886	0.60352	0.57135	1.3463	86.93	-0.2529	0.0348	0.2877	1965.8708	0.179472	-387.027596	-387.017169	-387.016225	-387.064254	37.204	
C	 0.1883416121	 1.5392263753	-0.2993268192	-0.407286
C	 0.0871394351	 0.0550384945	-0.0157414384	-0.000307
C	 1.3159583419	-0.8158199487	 0.0672088479	-0.282591
C	 0.4828520368	-0.5757297446	 1.3032155297	-0.011471
C	 1.029320152	 0.2233430307	 2.4537692945	-0.065072
O	 1.8043507059	-0.6423928632	 3.2679108281	-0.244361
C	 2.3220626506	 0.0145156745	 4.4056351816	-0.203204
C	 3.0938680991	-0.9194356626	 5.2155011906	 0.281652
C	 3.7349889769	-1.6672336225	 5.9022240697	-0.415646
H	 1.1012736955	 1.9769972501	 0.1143099851	 0.116454
H	 0.2037842998	 1.721326568	-1.3795854843	 0.119116
H	-0.6638928692	 2.0889375801	 0.1161372059	 0.116285
H	-0.7781611971	-0.411056743	-0.4806221414	 0.085017
H	 1.3025733344	-1.8001415986	-0.3871910051	 0.111602
H	 2.2810999618	-0.3198950091	 0.0206296556	 0.11017
H	-0.1357344146	-1.4068161654	 1.6303496753	 0.091165
H	 1.6501322421	 1.0619301134	 2.0993690375	 0.083327
H	 0.2085781581	 0.6598905202	 3.0497085038	 0.085873
H	 2.964165322	 0.8619374619	 4.1067764623	 0.114828
H	 1.5051297735	 0.4423920806	 5.0132720473	 0.115491
H	 4.3003707033	-2.3347678817	 6.5041677837	 0.19896
32.8488	81.9941	85.1565	116.3086	153.8745	205.3388	253.9808	311.2778	335.1613	359.8775	448.0971	469.229	580.7041	606.527	673.582	763.2032	834.6514	876.9942	891.5234	940.687	978.0109	994.2118	1032.0191	1035.8209	1064.6797	1088.5267	1109.7016	1135.196	1150.6842	1189.4166	1200.2128	1247.1775	1252.7468	1276.9358	1359.9761	1393.3279	1414.5316	1425.2244	1459.083	1491.0913	1494.6666	1498.231	1507.6376	1522.1516	2248.0058	2941.2034	2951.533	2960.0589	2986.904	3029.7103	3086.597	3103.7728	3127.3156	3133.6656	3148.9362	3212.3987	3506.7936
CC1CC1COCC#C	C[C@H]1C[C@H]1COCC#C	
InChI=1S/C8H12O/c1-3-4-9-6-8-5-7(8)2/h1,7-8H,4-6H2,2H3	InChI=1S/C8H12O/c1-3-4-9-6-8-5-7(8)2/h1,7-8H,4-6H2,2H3/t7-,8-/m0/s1
