16
gdb 29312	3.27244	1.28446	0.92888	2.3259	84.68	-0.1947	-0.0108	0.1839	1209.1699	0.123201	-400.747926	-400.738954	-400.738009	-400.781263	33.403	
C	-0.051899899	 1.5447933063	 0.0833466046	-0.530068
C	-0.0113932948	 0.0527122962	 0.0364398394	 0.079762
C	 0.0005033908	-0.7496179723	-1.0778307384	 0.16456
O	 0.0236102594	-2.0668897169	-0.7188245756	-0.188388
C	 0.0365904661	-2.1037562581	 0.6428685426	-0.118252
C	 0.0125304756	-0.8397195536	 1.1596716227	 0.166601
N	-0.0688548062	-0.4380431886	 2.4996934334	-0.610488
C	-0.0119385336	-0.4319812069	-2.4466149985	 0.261469
C	-0.0225196943	-0.135547724	-3.615103125	-0.435924
H	 0.8476657973	 1.9626022846	 0.5541120411	 0.123033
H	-0.1205803302	 1.9610288598	-0.9243620686	 0.142376
H	-0.9124630889	 1.9001481445	 0.6620619604	 0.138262
H	 0.0514563	-3.0842020288	 1.0890108848	 0.124469
H	 0.2013197647	-1.1646498822	 3.1496672092	 0.244886
H	 0.4706824372	 0.3969786212	 2.6903002907	 0.246383
H	-0.0328501041	 0.1202711487	-4.6454226927	 0.191319
115.4665	131.2729	137.6808	208.5246	235.5674	255.2947	341.6747	387.9519	456.7546	510.3137	521.7422	576.7954	624.5183	687.1471	688.4044	693.3761	700.6721	736.2674	771.2405	936.1752	1062.3287	1086.4213	1120.354	1163.2457	1199.7582	1286.8906	1324.7727	1414.5654	1455.0478	1483.6852	1493.9289	1580.2186	1645.5282	1673.6176	2224.0157	3017.5612	3067.4532	3123.1565	3275.9392	3502.9674	3535.1857	3625.364
CC1=C(OC=C1N)C#C	Cc1c(occ1N)C#C	
InChI=1S/C7H7NO/c1-3-7-5(2)6(8)4-9-7/h1,4H,8H2,2H3	InChI=1S/C7H7NO/c1-3-7-5(2)6(8)4-9-7/h1,4H,8H2,2H3
