20
gdb 117747	2.4016	1.06464	0.92569	1.907	76.92	-0.2324	-0.058	0.1744	1379.7133	0.166817	-440.292502	-440.281702	-440.280758	-440.328923	37.613	
C	-0.0658213127	 1.6479329509	-0.0548418201	-0.393422
C	 0.1757572881	 0.1552664464	 0.1488546236	-0.116699
N	 0.6586023122	-0.4462287294	-1.1013423791	-0.323016
C	 0.7831833013	-1.8961967666	-1.1247199253	 0.06545
C	 1.4582937208	-2.493375471	 0.1222431828	-0.434987
C	-0.5687124229	-2.607052833	-1.3452711519	 0.148318
O	-1.5916697178	-2.0151099946	-1.5698191213	-0.254569
C	 1.6346022772	-2.2684882128	-2.3571569516	 0.14324
O	 2.0525969585	-3.373800903	-2.57856031	-0.254211
H	 0.8434757996	 2.1419224667	-0.4094652714	 0.127034
H	-0.857377317	 1.8207261362	-0.7927793074	 0.121507
H	-0.377399159	 2.1192069505	 0.8816373812	 0.118578
H	 0.9406287024	 0.0141316554	 0.9198473631	 0.107613
H	-0.747964754	-0.3182469471	 0.5187897212	 0.096749
H	-0.0051763078	-0.1910256066	-1.8298243998	 0.223998
H	 0.8151126819	-2.4268079763	 1.0029337696	 0.131312
H	 1.6913901468	-3.5429682143	-0.0676789726	 0.148841
H	 2.3921862322	-1.9643650794	 0.3301459723	 0.141746
H	-0.5252881167	-3.7165736239	-1.3101369598	 0.104247
H	 1.822493587	-1.408689208	-3.0355117735	 0.098272
62.8236	78.0486	97.5436	103.8413	158.3377	242.0111	248.4736	260.5777	279.1034	310.4394	330.8854	382.5758	417.4175	557.6213	669.342	778.2171	807.3424	830.9662	867.9202	913.2152	951.5329	968.5647	1031.9853	1077.0139	1123.9526	1140.8365	1169.9874	1231.5249	1248.7706	1307.6015	1378.1249	1387.6337	1397.1498	1405.2681	1413.4325	1487.6121	1491.0301	1500.0709	1501.7175	1520.7181	1533.6257	1803.924	1837.291	2907.1061	2908.7929	2973.4535	3035.7891	3051.6033	3062.3078	3104.9645	3120.1155	3127.4777	3141.6982	3484.6158
CCNC(C)(C=O)C=O	CCNC(C)(C=O)C=O	
InChI=1S/C6H11NO2/c1-3-7-6(2,4-8)5-9/h4-5,7H,3H2,1-2H3	InChI=1S/C6H11NO2/c1-3-7-6(2,4-8)5-9/h4-5,7H,3H2,1-2H3
