20
gdb 14999	4.29887	1.38987	1.1267	1.7359	71.26	-0.2581	0.0916	0.3497	1100.0305	0.178415	-386.152934	-386.144961	-386.144016	-386.185262	30.188	
C	-0.0525261774	 1.5652555802	 0.0031229071	-0.386342
C	 0.0088974383	 0.0357750582	-0.012336247	-0.188809
C	 0.7157942172	-0.5266888659	-1.2398290619	 0.14286
C	 0.845142656	-2.0552181583	-1.2340325881	-0.21405
C	 1.3843724616	-2.524083197	-2.588353424	-0.09347
O	 0.5997149697	-1.9934536707	-3.6481744067	-0.232476
C	 0.5503770721	-0.5937986637	-3.5803816739	 0.018769
O	-0.0278611028	-0.1234910034	-2.3935104532	-0.251596
H	 0.952654106	 2.0013381227	 0.0221899217	 0.109492
H	-0.5627984891	 1.9380267241	-0.8882850497	 0.135947
H	-0.5898536486	 1.9281996699	 0.8842730293	 0.110225
H	 0.5307476283	-0.3329931221	 0.8794425325	 0.093883
H	-1.0049101051	-0.3813797497	 0.0190490023	 0.106211
H	 1.7288592807	-0.0871795423	-1.3092322304	 0.058622
H	 1.5098914796	-2.3806171705	-0.4256362487	 0.095665
H	-0.14292343	-2.4971485883	-1.0632306162	 0.110637
H	 2.4347846423	-2.205743319	-2.706804649	 0.086676
H	 1.348117013	-3.6120560393	-2.6869170078	 0.111434
H	 1.572515171	-0.1791036104	-3.6877002037	 0.070731
H	-0.0825809729	-0.2549291047	-4.4031402028	 0.115591
96.1186	131.64	193.607	240.1379	261.0055	363.9413	378.2103	473.1389	493.9004	500.3788	671.7427	762.8263	841.9996	876.3537	917.803	954.1761	991.173	1005.1965	1045.9367	1063.6675	1088.2689	1127.1989	1137.7169	1187.0483	1212.7402	1234.7107	1268.9582	1292.6903	1317.4493	1334.82	1363.6904	1384.3635	1400.6679	1408.0556	1410.8841	1449.3126	1465.805	1477.3929	1495.6494	1497.919	1509.0632	1510.1073	2905.805	2925.881	2959.4677	3027.4215	3036.7356	3037.8903	3065.5482	3086.0862	3093.9611	3101.9184	3110.2928	3126.8419
CCC1CCOCO1	CC[C@H]1CCOCO1	
InChI=1S/C6H12O2/c1-2-6-3-4-7-5-8-6/h6H,2-5H2,1H3	InChI=1S/C6H12O2/c1-2-6-3-4-7-5-8-6/h6H,2-5H2,1H3/t6-/m0/s1
