15
gdb 133688	3.07405	0.99933	0.9044	3.0353	56.21	-0.2596	0.015	0.2746	1252.7508	0.107996	-585.477865	-585.468682	-585.467738	-585.513305	31.411	
C	-0.0998718496	 1.4523229624	 0.0064523146	-0.35351
N	 0.0270199929	 0.0006240714	-0.0232112167	-0.034352
C	 0.0059223799	-0.7413513534	 1.2103551093	-0.329453
C	-1.4031929123	-0.9840234698	 1.7505810833	 0.286459
F	-2.1547030687	-1.6438462558	 0.8622455358	-0.070582
F	-1.3455787696	-1.714380631	 2.8726820525	-0.069738
F	-2.0331471813	 0.1642928022	 2.042504801	-0.075686
C	 0.11202789	-0.655183503	-1.2241822113	 0.160486
O	 0.0965610096	-0.126008391	-2.3115373041	-0.32868
H	 0.6690779991	 1.885388459	 0.6560650687	 0.127184
H	 0.0376911796	 1.8109049347	-1.0133150219	 0.172888
H	-1.0831133826	 1.7614580326	 0.3713669217	 0.144229
H	 0.4602188045	-1.7252630395	 1.0617397592	 0.14928
H	 0.5757542702	-0.2201796307	 1.9867595815	 0.140905
H	 0.2118005083	-1.7492625781	-1.0860552735	 0.080569
42.011	65.888	94.3351	158.0537	246.2029	291.6794	308.0187	336.4245	385.1499	424.6323	530.4163	532.3333	647.4289	736.633	838.7123	880.8933	951.0816	1023.4986	1096.5782	1146.103	1160.8562	1197.5452	1277.2939	1284.8898	1310.0418	1410.0231	1429.9146	1441.0475	1446.0177	1468.8088	1497.6848	1523.1627	1808.2755	2945.7459	3036.8622	3055.0303	3102.1569	3109.8095	3163.3951
CN(CC(F)(F)F)C=O	CN(CC(F)(F)F)C=O	
InChI=1S/C4H6F3NO/c1-8(3-9)2-4(5,6)7/h3H,2H2,1H3	InChI=1S/C4H6F3NO/c1-8(3-9)2-4(5,6)7/h3H,2H2,1H3
