21
gdb 94450	2.99708	1.27133	1.14486	1.8549	83.91	-0.2388	0.0176	0.2564	1182.9537	0.183249	-387.088612	-387.080083	-387.079139	-387.122235	32.671	
C	-0.3408190092	 1.4739762846	 0.0060246183	-0.409933
C	 0.1622068198	 0.0466409655	-0.0616053698	 0.115298
O	 1.4053470939	-0.0616952027	-0.79272158	-0.296169
C	 2.0127448574	-0.8333871206	 0.2562081627	-0.116937
C	 0.7886389376	-0.6378253816	 1.1968675284	 0.254131
C	 1.0003838809	 0.2077852744	 2.4775215967	-0.294869
C	 0.9064058388	-0.7847614719	 3.6660645565	-0.268313
C	 0.2109286365	-1.9769590813	 3.0558142106	-0.075109
C	 0.1452031433	-1.888977123	 1.7284533896	-0.138413
H	 0.3953319492	 2.1359910971	 0.4703051404	 0.121195
H	-0.5368244098	 1.8403753855	-1.0068010287	 0.126199
H	-1.276346109	 1.5313210584	 0.5731244227	 0.116375
H	-0.6064607251	-0.5913729483	-0.5247883474	 0.063929
H	 2.1949978265	-1.8733575005	-0.0476532626	 0.092338
H	 2.9577814768	-0.3933521249	 0.599938502	 0.096788
H	 1.9402551507	 0.7659113294	 2.4616015032	 0.100845
H	 0.1938336545	 0.9424539925	 2.5620186008	 0.108727
H	 1.8976789867	-1.0684135602	 4.0460568095	 0.109108
H	 0.3636689305	-0.3632243113	 4.5196731316	 0.104981
H	-0.1511045484	-2.8116410427	 3.6462905991	 0.095235
H	-0.2740953717	-2.6399840582	 1.0664731166	 0.094591
52.4761	84.6807	193.2645	219.2151	247.0719	335.4868	356.1255	453.1666	478.228	509.4481	684.9328	757.004	776.8746	796.9131	851.5966	880.7777	914.5169	942.3477	947.9601	977.9479	997.0612	1030.1616	1033.2794	1071.8063	1092.0996	1112.4696	1124.9851	1161.4953	1177.222	1193.5975	1234.7441	1252.6759	1291.9835	1311.9319	1321.0773	1358.4242	1387.0213	1388.6099	1404.3519	1479.4609	1482.83	1491.8275	1499.7626	1525.0609	1683.4606	2974.9438	2997.8396	3012.9352	3034.8933	3041.2048	3049.4686	3060.7725	3098.9008	3104.5453	3117.7271	3174.6081	3201.6607
CC1OCC11CCC=C1	C[C@H]1OC[C@]21CCC=C2	
InChI=1S/C8H12O/c1-7-8(6-9-7)4-2-3-5-8/h2,4,7H,3,5-6H2,1H3	InChI=1S/C8H12O/c1-7-8(6-9-7)4-2-3-5-8/h2,4,7H,3,5-6H2,1H3/t7-,8-/m1/s1
