19
gdb 106923	3.9058	1.10269	0.98608	3.2963	75.63	-0.2384	-0.0267	0.2117	1249.6892	0.15868	-423.048465	-423.039883	-423.038938	-423.081946	32.332	
C	 0.3282093597	 1.4785832845	 0.2404785083	-0.384455
C	-0.1638236255	 0.0650078625	-0.0995501259	-0.276861
C	 0.4591558051	-0.4863476722	-1.3580961436	 0.423117
C	 0.2076511572	 0.1570367899	-2.7224703272	-0.288289
C	 0.7455072787	-0.8628499833	-3.7511674259	-0.339513
C	 0.725772735	-2.2139312191	-3.024840251	 0.422908
O	 0.6148971661	-3.3034764421	-3.5255561113	-0.31759
C	 0.7813556915	-1.918404771	-1.5489531406	-0.158903
O	 1.8093044349	-0.9505769087	-1.2470653713	-0.290997
H	 1.4166344585	 1.4916484643	 0.3505567585	 0.135808
H	 0.0575899006	 2.1993092368	-0.5375776741	 0.120994
H	-0.1124478542	 1.8243076791	 1.1796978964	 0.119611
H	 0.0692391764	-0.6144220866	 0.7269152985	 0.113142
H	-1.2546647609	 0.0646713591	-0.2170936782	 0.105911
H	-0.8690017145	 0.3123294972	-2.8546819502	 0.113313
H	 0.6926648993	 1.1339423621	-2.8000818709	 0.117913
H	 0.1604232968	-0.9203029765	-4.6704185301	 0.130249
H	 1.7801879834	-0.6384745458	-4.02938865	 0.145235
H	 0.6082589818	-2.6954366202	-0.8110120712	 0.108408
68.0982	109.3139	147.9344	214.2423	239.3862	327.6728	392.7384	403.3305	482.2056	539.3698	600.4818	651.037	707.9859	776.7194	809.0036	822.5263	870.1352	939.2382	958.0644	992.2157	1025.3308	1053.5357	1077.0015	1093.1537	1164.5277	1176.2877	1218.6823	1228.3477	1263.0983	1286.2662	1301.2207	1346.653	1357.5733	1410.7875	1434.4666	1453.5234	1474.1257	1489.6641	1501.7896	1508.5252	1845.1845	3031.7751	3042.0545	3048.0412	3065.281	3075.8979	3094.9986	3112.7215	3118.5158	3127.8881	3173.7618
CCC12CCC(=O)C1O2	CC[C@]12CCC(=O)[C@H]1O2	
InChI=1S/C7H10O2/c1-2-7-4-3-5(8)6(7)9-7/h6H,2-4H2,1H3	InChI=1S/C7H10O2/c1-2-7-4-3-5(8)6(7)9-7/h6H,2-4H2,1H3/t6-,7+/m1/s1
