19
gdb 114436	3.81396	1.37791	1.23338	1.0705	74.45	-0.2302	0.0899	0.3201	1069.4495	0.160542	-422.987609	-422.98008	-422.979136	-423.019719	29.496	
C	-0.0069347292	 1.3654347013	-0.1077497889	-0.240463
O	-0.0107917609	-0.0424897569	 0.0538719004	-0.236196
C	-1.2760231471	-0.6071946694	 0.0330936088	 0.24484
O	-1.8876228688	-0.4541208011	-1.2614597954	-0.291701
C	-2.5205294751	-1.6768523378	-1.5661703813	 0.112088
C	-1.691601443	-2.9400010576	-1.6948526519	-0.100765
C	-0.3805657807	-2.7585606038	-0.9300753521	-0.224872
C	-1.2000848604	-2.1193166378	 0.2383044832	-0.113231
C	-2.504833856	-2.6333583727	-0.4257499086	-0.131938
H	 1.0284451594	 1.6953428248	 0.0005084819	 0.125853
H	-0.3817100404	 1.6541317074	-1.096078638	 0.132204
H	-0.6216794748	 1.8559904842	 0.6620123844	 0.105244
H	-1.9235823067	-0.1083252146	 0.7781892713	 0.054476
H	-3.3931993319	-1.5621727414	-2.1976928543	 0.101123
H	-1.8928147153	-3.6745594334	-2.4669956914	 0.081746
H	 0.0432435224	-3.7195777459	-0.6306761478	 0.099498
H	 0.396253308	-2.1353543449	-1.3790258313	 0.114076
H	-0.9541599974	-2.4200031016	 1.2547786798	 0.079496
H	-3.351805172	-3.1263625988	 0.0322216511	 0.088521
101.6726	130.5349	179.3404	232.442	347.3447	444.7255	476.2063	548.5859	656.5989	722.5856	750.4164	788.9073	814.5181	857.0833	913.5517	932.3422	974.3885	998.5659	1005.9882	1015.0973	1042.0937	1052.8435	1066.5217	1095.1275	1121.0426	1151.4423	1167.183	1181.0888	1199.7914	1230.4896	1238.3898	1276.2044	1289.4359	1325.1425	1360.4611	1401.9064	1409.4857	1480.9562	1484.6801	1494.4868	1512.0287	2926.9029	2993.0239	3066.2223	3070.2248	3119.5064	3125.9822	3136.5097	3167.9419	3188.8717	3203.0489
COC1OC2C3CC1C23	CO[C@H]1O[C@H]2[C@H]3C[C@@H]1[C@@H]23	
InChI=1S/C7H10O2/c1-8-7-4-2-3-5(4)6(3)9-7/h3-7H,2H2,1H3	InChI=1S/C7H10O2/c1-8-7-4-2-3-5(4)6(3)9-7/h3-7H,2H2,1H3/t3-,4+,5-,6-,7-/m0/s1
