20
gdb 6968	2.39231	2.28779	1.59482	1.5998	76.96	-0.2239	0.0269	0.2508	931.2374	0.175182	-349.026993	-349.018072	-349.017128	-349.060037	33.291	
C	-0.2044371147	 1.480319098	-0.0008153432	-0.502413
C	-0.0472272491	-0.0072403633	-0.0303186615	 0.306794
C	 0.1041102042	-0.7956069229	-1.0899281728	-0.213599
C	 0.2262645053	-2.2288206731	-0.6675908162	-0.129353
O	 0.1310448809	-2.2038145923	 0.7520737977	-0.308185
C	-0.0408846379	-0.8562398672	 1.233499947	 0.292714
C	 1.1384417759	-0.5255367277	 2.1613695741	-0.40915
C	-1.3720067397	-0.7875287045	 1.9980207368	-0.409152
H	 0.593989488	 1.9558108091	 0.5814421757	 0.130635
H	-0.1828983071	 1.9009764271	-1.0093253339	 0.125581
H	-1.151334109	 1.7736123042	 0.4681851004	 0.130631
H	 0.1382968452	-0.4769533429	-2.125493246	 0.094275
H	-0.5713175278	-2.8633834857	-1.086910303	 0.09955
H	 1.184493117	-2.6799616744	-0.9724110182	 0.099543
H	 2.0829917667	-0.5803582176	 1.6131900475	 0.115846
H	 1.0407511647	 0.4768689425	 2.5906845509	 0.108304
H	 1.1742977003	-1.2464072647	 2.9834200128	 0.121915
H	-1.3639924118	-1.5113965596	 2.8181776952	 0.121918
H	-1.5383091728	 0.207669525	 2.4229853786	 0.108303
H	-2.2068782484	-1.02793425	 1.3340368882	 0.115846
62.9767	161.2669	194.0112	218.284	244.1951	259.9687	261.375	334.1566	396.4937	429.8961	578.9743	587.4555	675.4829	771.3083	817.5029	853.3331	917.4147	947.9815	958.0673	1001.7496	1024.7072	1046.5852	1070.7919	1089.7748	1152.5022	1178.9584	1196.774	1210.9284	1255.9168	1339.3316	1377.0811	1387.8436	1407.5511	1414.0069	1471.3722	1479.2213	1486.0613	1488.592	1497.2184	1503.0641	1524.8107	1736.0757	2965.8935	2977.9729	3024.2112	3034.0481	3040.1103	3072.3206	3105.748	3111.7893	3115.4899	3117.4938	3120.2032	3199.7769
CC1=CCOC1(C)C	CC1=CCOC1(C)C	
InChI=1S/C7H12O/c1-6-4-5-8-7(6,2)3/h4H,5H2,1-3H3	InChI=1S/C7H12O/c1-6-4-5-8-7(6,2)3/h4H,5H2,1-3H3
