19
gdb 13536	2.78353	1.58948	1.14584	3.9419	75.58	-0.2858	0.0374	0.3231	1092.5433	0.164694	-327.938456	-327.929472	-327.928527	-327.972204	32.598	
C	 0.0001803665	 1.4789793304	-0.2007469285	-0.391977
C	 0.05558198	-0.0265699165	 0.1280368715	-0.162566
C	 0.7528106235	-0.2484504714	 1.4032466699	 0.276524
N	 1.2914387765	-0.4177877908	 2.4119584983	-0.329797
C	-1.3354082302	-0.6494621538	 0.1676554373	 0.02277
C	-1.9923366394	-1.1216902397	-1.1081536916	-0.316181
C	-1.5860685864	-2.1231754491	-0.0531402424	 0.005299
C	-0.4775250436	-3.123634648	-0.3031721647	-0.415836
H	 1.002753848	 1.9120267754	-0.2404930917	 0.134114
H	-0.4848057519	 1.621697082	-1.1698582177	 0.128935
H	-0.5755842499	 2.0186990998	 0.556310706	 0.136197
H	 0.6494816106	-0.5258383623	-0.646013991	 0.12136
H	-1.9863768157	-0.1674710449	 0.8923788127	 0.097366
H	-3.0432522226	-0.905053637	-1.2642240167	 0.116551
H	-1.3960842902	-1.0916856819	-2.0161503001	 0.110919
H	-2.4017486245	-2.5236222165	 0.5431723215	 0.092212
H	 0.295514481	-2.7273552636	-0.9685499274	 0.114251
H	 0.0081170523	-3.4232622025	 0.6313234213	 0.137498
H	-0.8777270839	-4.0257257495	-0.7779178566	 0.122359
51.4453	116.7297	186.1769	191.8028	218.2595	232.3113	289.1856	335.8513	403.9453	481.1706	540.3273	599.4763	773.9153	786.575	848.0437	868.7126	914.6824	949.3643	1015.1199	1032.1395	1070.0061	1082.6706	1109.3108	1112.9778	1152.8382	1191.4448	1197.1013	1249.3077	1282.9532	1324.7836	1390.2086	1408.0583	1420.3241	1428.8539	1491.6241	1491.8355	1494.1078	1499.0248	1505.6209	2354.0476	3033.5702	3047.5749	3049.6783	3097.035	3102.7901	3122.4711	3125.3041	3129.7533	3136.1919	3146.3747	3209.0477
CC(C#N)C1CC1C	C[C@@H](C#N)[C@H]1C[C@H]1C	
InChI=1S/C7H11N/c1-5-3-7(5)6(2)4-8/h5-7H,3H2,1-2H3	InChI=1S/C7H11N/c1-5-3-7(5)6(2)4-8/h5-7H,3H2,1-2H3/t5-,6+,7+/m1/s1
