20
gdb 70024	3.38094	1.4309	1.23541	3.2777	77.8	-0.2169	0.072	0.2889	1077.4133	0.173189	-403.105532	-403.097856	-403.096912	-403.137423	30.654	
C	-0.0386134094	 1.558133717	 0.0659334034	-0.51269
C	 0.1068904489	 0.0692260344	 0.0224601379	 0.337452
N	-0.8066366667	-0.8357488317	 0.7607759718	-0.369279
C	 0.6577341801	-0.9064595118	 1.0040931269	-0.128859
C	 1.2463483419	-1.7842142198	-0.1187097037	-0.029482
C	 0.5846733818	-3.1215231673	-0.4843613731	-0.092987
O	 0.1306766688	-2.9709671158	-1.8302481631	-0.262892
C	-0.2807260575	-1.6170096329	-2.0254335956	-0.096613
C	 0.6614213393	-0.7697311168	-1.1583466248	-0.08045
H	 0.8670987007	 2.0525629282	-0.3018024713	 0.125742
H	-0.8766626019	 1.8946780616	-0.5564009205	 0.129249
H	-0.2198606502	 1.9079158408	 1.0884901704	 0.117068
H	-1.2114421264	-0.2960140854	 1.525211188	 0.224915
H	 1.0583329796	-0.7456693874	 1.998268425	 0.088829
H	 2.3362380754	-1.8247438838	-0.1040716127	 0.075988
H	 1.2763757152	-3.9686854127	-0.4734849634	 0.096675
H	-0.2554914656	-3.334458704	 0.1893613808	 0.104488
H	-0.1960803504	-1.4090134753	-3.0959487894	 0.096216
H	-1.324287037	-1.4780509565	-1.713915262	 0.103134
H	 1.4220979134	-0.2364533807	-1.7311781647	 0.073495
140.4007	163.3308	209.3778	230.9856	286.2098	346.6094	481.7186	541.2162	602.605	645.1431	677.3038	736.8709	828.9703	859.6309	874.064	925.9962	929.3815	959.6004	986.0805	999.9773	1036.7041	1043.2533	1071.7417	1078.6868	1094.5104	1110.8552	1137.9404	1183.334	1225.7572	1237.4915	1265.8709	1280.6876	1290.2718	1317.1839	1354.9554	1364.2649	1393.7414	1412.0937	1452.3734	1482.0891	1498.6546	1500.2332	1514.5775	3015.7279	3020.4281	3021.9686	3077.4968	3081.138	3082.1231	3092.9948	3095.5094	3108.3515	3179.5054	3473.1147
CC12NC1C1COCC21	C[C@]12N[C@H]1[C@H]1COC[C@@H]21	
InChI=1S/C7H11NO/c1-7-5-3-9-2-4(5)6(7)8-7/h4-6,8H,2-3H2,1H3	InChI=1S/C7H11NO/c1-7-5-3-9-2-4(5)6(7)8-7/h4-6,8H,2-3H2,1H3/t4-,5+,6-,7+/m0/s1
