12
gdb 132724	6.05993	1.01959	0.87275	1.1648	74.4	-0.256	-0.0676	0.1884	1185.006	0.077478	-439.648007	-439.641033	-439.640089	-439.679651	26.143	
F	-0.015257734	 0.0408558718	 0.0039835709	-0.057604
C	-0.0261047444	 1.3649821965	 0.0107744363	 0.327673
N	-1.1971049796	 1.95585931	 0.0290454578	-0.282776
C	-1.1762287459	 3.2891908088	 0.0354331838	-0.063558
C	 0.02282635	 4.0156096865	 0.0233782673	 0.156541
N	 1.2114308027	 3.3805604027	 0.0046488144	-0.278958
C	 1.1883191035	 2.0564384105	-0.0016687492	-0.148504
C	 0.005716657	 5.4413895142	 0.0307403642	 0.231558
C	-0.0462477587	 6.6433122821	 0.0374271035	-0.364301
H	-2.1326762439	 3.8022788843	 0.0505211222	 0.137431
H	 2.1334482797	 1.5220369643	-0.0167186095	 0.137597
H	-0.0774635163	 7.7050732184	 0.0431185282	 0.204902
95.8073	146.8549	253.352	409.4814	436.7644	455.9046	470.3936	545.9118	584.4192	626.3099	658.4695	669.0531	730.1095	807.033	891.2839	932.6186	965.4211	1037.0955	1237.7737	1261.837	1288.4772	1335.0838	1371.8279	1504.905	1584.9832	1607.3991	2234.6146	3178.868	3185.1167	3501.5426
FC1=NC=C(N=C1)C#C	Fc1ncc(nc1)C#C	
InChI=1S/C6H3FN2/c1-2-5-3-9-6(7)4-8-5/h1,3-4H	InChI=1S/C6H3FN2/c1-2-5-3-9-6(7)4-8-5/h1,3-4H
