25
gdb 120038	2.15327	1.15973	0.84211	0.8928	89.84	-0.2498	0.0799	0.3297	1502.6342	0.227615	-389.476984	-389.466339	-389.465395	-389.512626	39.357	
C	-0.0752087617	 1.4371176293	 0.0213810385	-0.227038
O	-0.0875978348	 0.0325762104	-0.0386741309	-0.22984
C	 0.7240594258	-0.4801487162	-1.0770436082	-0.07044
C	 0.6370022118	-1.9969837239	-1.0509677233	-0.042365
C	-0.6781043208	-2.6164794936	-1.635298872	 0.051937
C	-1.9790571943	-1.8268645907	-1.661890702	-0.404724
C	 0.0791698664	-2.8774090036	-2.9658540623	-0.246892
C	 1.4195228103	-2.722182555	-2.198569932	 0.034128
C	 2.5991256784	-2.050773234	-2.8903724256	-0.415876
H	 0.9391109876	 1.8307207209	 0.1973655213	 0.100767
H	-0.4594182511	 1.891914961	-0.9061072476	 0.100748
H	-0.7182645147	 1.7373297147	 0.8525676345	 0.124658
H	 0.4002113343	-0.0692810911	-2.0488921875	 0.080541
H	 1.769722753	-0.1583065069	-0.9309353073	 0.084797
H	 0.88791473	-2.3196375471	-0.0358359987	 0.067118
H	-0.8526910419	-3.5738353129	-1.1309268403	 0.068688
H	-1.8631166977	-0.8694130715	-2.1801269198	 0.107422
H	-2.7572025524	-2.3923906606	-2.1877146311	 0.103032
H	-2.3357334706	-1.6114529841	-0.650788977	 0.12355
H	-0.1065535955	-3.820554308	-3.4872486783	 0.089253
H	-0.0704991594	-2.0573651904	-3.6781473883	 0.090207
H	 1.7371508616	-3.7032130461	-1.8278054191	 0.071748
H	 2.3301719461	-1.0699239757	-3.2966023569	 0.112815
H	 3.4436370204	-1.9099620459	-2.2063091161	 0.113384
H	 2.9523451492	-2.6643948388	-3.7267934201	 0.112383
75.8638	88.8434	124.5685	140.0343	213.2037	230.1275	236.5694	257.5016	289.6504	324.4703	365.3986	394.0324	483.6141	530.6623	616.3726	752.233	840.059	875.082	901.1188	923.4812	962.8931	977.1687	1001.0636	1029.8547	1042.5238	1103.6078	1147.0032	1152.4768	1159.6483	1177.0041	1190.2365	1193.3295	1230.0052	1246.0836	1255.377	1265.8915	1278.6022	1311.4213	1351.6397	1363.6924	1390.2999	1409.4305	1413.8943	1428.7989	1480.0965	1485.1901	1487.5102	1492.8644	1495.7069	1497.865	1500.3922	1504.6254	1529.0649	2944.8431	2966.2214	2969.4176	3006.1397	3025.2687	3028.0121	3031.2273	3032.9163	3037.7981	3060.1451	3088.1176	3088.9205	3092.919	3098.6094	3110.513	3112.0259
COCC1C(C)CC1C	COC[C@H]1[C@@H](C)C[C@H]1C	
InChI=1S/C8H16O/c1-6-4-7(2)8(6)5-9-3/h6-8H,4-5H2,1-3H3	InChI=1S/C8H16O/c1-6-4-7(2)8(6)5-9-3/h6-8H,4-5H2,1-3H3/t6-,7+,8-
