13
gdb 127988	3.83585	1.25664	0.95577	2.2402	66.43	-0.2791	-0.0993	0.1798	1147.4042	0.087381	-489.86653	-489.858417	-489.857473	-489.900672	27.786	
C	 0.27383561	 1.4910393957	 0.1846701965	-0.331817
N	 0.1110554387	 0.0524606776	 0.0707422472	-0.295088
C	 0.3402513392	-0.5466968733	-0.994443595	 0.520562
O	 0.7943808167	 0.0805077961	-2.1418238248	-0.274724
N	 0.771082075	-0.5333849538	-3.3855276899	-0.017875
C	 0.4737463144	-1.7745205874	-3.4090642555	-0.093663
C	 0.199361127	-2.6012189245	-2.2191720609	 0.427241
O	 0.0157500647	-3.7811085111	-2.2330396169	-0.296413
O	 0.1866012586	-1.9081532683	-1.0410119582	-0.234473
H	 1.2117117028	 1.706978835	 0.7088316323	 0.142553
H	 0.2834131972	 2.0182551242	-0.7747739193	 0.135151
H	-0.5388531152	 1.8821847503	 0.8025761985	 0.14043
H	 0.4605611309	-2.2543672505	-4.380625454	 0.178116
44.4661	66.1751	106.0256	212.9334	250.9427	369.4901	402.6976	486.8777	535.7654	605.2877	683.0255	713.038	748.5743	905.0858	915.943	934.9093	958.1447	1071.2447	1134.6491	1142.6542	1212.6683	1290.155	1311.1237	1445.5312	1491.1728	1502.4865	1671.0022	1816.135	1877.5414	3028.9069	3091.745	3110.6427	3218.7942
CN=C1ON=CC(=O)O1	CN=c1oncc(=O)o1	
InChI=1S/C4H4N2O3/c1-5-4-8-3(7)2-6-9-4/h2H,1H3	InChI=1S/C4H4N2O3/c1-5-4-8-3(7)2-6-9-4/h2H,1H3
