22
gdb 63914	2.89459	1.52656	1.49725	1.6441	83.67	-0.2289	0.0828	0.3117	1041.5229	0.196061	-367.190911	-367.182932	-367.181988	-367.222689	32.92	
C	-0.191949436	 1.5995692229	 0.00890519	-0.43451
C	-0.0050952483	 0.0740776114	-0.0223504501	 0.304141
C	-1.3772903126	-0.6116563499	 0.100993982	-0.438079
C	 0.7517771128	-0.4340344652	-1.2924393485	-0.266889
C	 2.110453591	-0.8926719069	-0.7710086795	 0.01444
C	 2.9573963516	 0.2672918351	-0.1911512955	-0.25467
C	 2.3627455518	-0.1125207708	 1.1557626773	-0.054539
C	 0.9109917185	-0.4261539557	 1.0981812213	-0.039458
N	 1.8692925178	-1.4538902814	 0.6386682382	-0.161634
H	 0.7571770804	 2.1309134998	-0.0987928806	 0.117863
H	-0.8563978339	 1.9276860318	-0.7982405455	 0.111208
H	-0.6430993926	 1.9163074687	 0.9559748114	 0.112011
H	-2.0076314811	-0.3761253556	-0.7635345057	 0.110643
H	-1.2679172141	-1.6994696248	 0.1541277032	 0.124145
H	-1.908293809	-0.2799567243	 1.0003429498	 0.109629
H	 0.2152159779	-1.2764548984	-1.7411665301	 0.100328
H	 0.8507867478	 0.3399701585	-2.0605345229	 0.097734
H	 2.6317529556	-1.5991357336	-1.4167624831	 0.075519
H	 4.0253108895	 0.0380460344	-0.2211240601	 0.109709
H	 2.8018398536	 1.2781708633	-0.5810444316	 0.09448
H	 2.8786892436	-0.0355528859	 2.1090077579	 0.086982
H	 0.4461448058	-0.6626276333	 2.052617352	 0.080948
134.7863	214.5765	223.8391	266.7769	327.0915	341.9992	375.5519	400.6896	511.543	580.0213	638.5271	756.3759	781.1425	802.5639	827.4903	847.4935	868.5133	934.367	943.6427	960.3806	974.2262	995.2094	1026.4863	1034.4427	1049.1858	1065.2596	1099.4076	1137.6127	1158.7491	1182.6144	1210.3618	1233.0639	1252.4042	1268.9997	1286.1585	1320.8365	1323.5602	1371.3866	1398.8125	1402.2848	1427.3774	1484.3312	1485.6698	1492.508	1498.4358	1506.9845	1511.2927	3023.9103	3030.2408	3042.7376	3047.3029	3083.6824	3089.4406	3093.7488	3099.2154	3103.1459	3113.3901	3117.6452	3133.2489	3148.1498
CC1(C)CC2CC3C1N23	CC1(C)C[C@H]2C[C@H]3[C@@H]1N23	
InChI=1S/C8H13N/c1-8(2)4-5-3-6-7(8)9(5)6/h5-7H,3-4H2,1-2H3	InChI=1S/C8H13N/c1-8(2)4-5-3-6-7(8)9(5)6/h5-7H,3-4H2,1-2H3/t5-,6+,7+,9?/m1/s1
