21
gdb 111052	3.12404	1.07009	0.93097	1.5874	78.89	-0.2346	0.0678	0.3024	1346.845	0.181099	-424.158994	-424.149567	-424.148623	-424.193576	35.213	
C	-0.0798158268	 1.5389816203	-0.0887213073	-0.381369
C	-0.0610965259	 0.0094307183	 0.0060669988	-0.318239
C	-1.4334232415	-0.5879632737	 0.1228232827	 0.410398
C	-2.5792912438	-0.2822098807	 1.1290468753	-0.265281
C	-3.1272383989	-1.1719937088	-0.004463864	 0.027862
O	-2.4096789445	-0.328564065	-0.9841636803	-0.349686
C	-1.8761419969	-2.0865348923	 0.1134464598	-0.046686
C	-1.4916078159	-2.9661881625	-1.0618293719	-0.111201
O	-2.2708566669	-4.1575776627	-1.1122539845	-0.421099
H	 0.9316001782	 1.9329979622	-0.2223235791	 0.113887
H	-0.6908119472	 1.8636525154	-0.9352233567	 0.140354
H	-0.4978052979	 1.9871157303	 0.8182700563	 0.118977
H	 0.4269137605	-0.4164998544	-0.8791239076	 0.114519
H	 0.5255798377	-0.3161538903	 0.8743831975	 0.107896
H	-2.5067138859	-0.7062253444	 2.1339139996	 0.09477
H	-2.9426004064	 0.7458710193	 1.1200503635	 0.107003
H	-4.1619661284	-1.4301305437	-0.2348219639	 0.087524
H	-1.7716114315	-2.619025031	 1.0643312636	 0.073773
H	-1.5645982971	-2.3909106402	-1.9926170813	 0.10801
H	-0.4544717327	-3.3015932282	-0.951474946	 0.106363
H	-3.1697476683	-3.9053474581	-1.3450448945	 0.282224
64.4665	82.8664	130.9574	184.4003	218.666	269.0836	289.8277	319.171	348.693	477.6009	569.4616	613.8295	669.8014	720.0078	761.5124	804.4317	858.823	903.0411	929.7479	962.4253	987.4889	1013.9106	1039.1434	1059.285	1071.1327	1110.5783	1126.522	1142.3405	1155.8657	1187.79	1211.0906	1233.1679	1242.5122	1285.9728	1318.9003	1354.6129	1384.956	1407.1827	1410.5889	1425.1097	1469.6098	1493.6177	1496.3254	1505.7558	1507.1959	3027.2629	3030.2262	3043.0015	3055.5799	3063.0743	3065.1396	3080.3983	3105.6499	3110.7567	3123.8957	3147.3795	3821.4937
CCC12CC(O1)C2CO	CC[C@@]12C[C@@H](O1)[C@H]2CO	
InChI=1S/C7H12O2/c1-2-7-3-6(9-7)5(7)4-8/h5-6,8H,2-4H2,1H3	InChI=1S/C7H12O2/c1-2-7-3-6(9-7)5(7)4-8/h5-6,8H,2-4H2,1H3/t5-,6-,7+/m1/s1
