21
gdb 121029	3.5407	0.82846	0.80322	2.0361	78.78	-0.2432	-0.0238	0.2194	1546.1239	0.181487	-424.258051	-424.248591	-424.247647	-424.293285	34.533	
C	 0.4297519802	 1.4036304776	 0.1623274617	-0.383899
C	 0.0450957205	-0.0603259798	-0.0643071248	-0.163674
C	 0.7328300068	-0.6794750222	-1.2846934713	-0.179086
C	 0.3714269048	-2.1527081178	-1.4988052606	 0.093195
C	 1.1283496687	-2.8037797954	-2.6640857139	-0.354975
C	 2.3365614957	-3.445212596	-1.9817387534	 0.370848
O	 3.3368858784	-3.8623386758	-2.5003180733	-0.298137
C	 2.0257188392	-3.4452544449	-0.4828227035	-0.182933
O	 0.7080597295	-2.9561617351	-0.3463956314	-0.263457
H	 1.508160789	 1.5103171441	 0.3250145384	 0.114317
H	 0.1644906921	 2.0242299414	-0.7010938498	 0.112667
H	-0.0801080062	 1.8172423355	 1.037844255	 0.114364
H	 0.2938383084	-0.6575522525	 0.8193117912	 0.115037
H	-1.0433261083	-0.139704087	-0.1882599417	 0.094355
H	 0.4581142723	-0.1248338778	-2.1923288954	 0.097105
H	 1.8238684855	-0.5812391102	-1.1878804415	 0.094304
H	-0.7136699414	-2.2458909251	-1.6087730947	 0.087138
H	 0.5391540741	-3.6036202089	-3.1273822539	 0.138446
H	 1.4413303453	-2.116243782	-3.4523252484	 0.13435
H	 2.0874897977	-4.4562209731	-0.0661838725	 0.137386
H	 2.7687690777	-2.8208111752	 0.0384366037	 0.122649
51.257	83.0061	94.9601	161.6189	173.4144	246.3461	315.2518	360.0443	442.717	468.565	496.7877	621.9312	713.3059	751.6134	763.5818	821.2019	836.9254	899.434	918.7742	959.4278	1004.0792	1046.2247	1059.4177	1081.1047	1117.7953	1133.0887	1176.136	1198.5199	1222.7075	1250.6345	1266.9601	1289.9265	1317.9273	1327.5163	1358.3031	1387.4531	1404.358	1414.572	1447.6517	1474.0492	1487.0221	1493.7409	1499.9226	1510.767	1860.4359	2983.2905	3004.0011	3021.0374	3028.8689	3037.0107	3049.5226	3063.5493	3071.5794	3073.482	3097.4464	3103.021	3120.228
CCCC1CC(=O)CO1	CCC[C@H]1CC(=O)CO1	
InChI=1S/C7H12O2/c1-2-3-7-4-6(8)5-9-7/h7H,2-5H2,1H3	InChI=1S/C7H12O2/c1-2-3-7-4-6(8)5-9-7/h7H,2-5H2,1H3/t7-/m0/s1
