20
gdb 112576	3.13316	0.92541	0.84242	5.1456	79.95	-0.2756	0.0387	0.3144	1436.1306	0.169836	-403.154184	-403.144424	-403.14348	-403.189169	35.677	
C	-0.0312180787	 1.4744669993	 0.088531523	-0.450413
C	 0.0064304482	-0.0545299115	 0.0251463114	 0.140607
C	 1.0803522352	-0.7131113342	-0.9134203025	-0.287773
C	 1.4138678314	-1.7294832238	 0.2091586406	 0.054156
C	 2.8708761387	-2.0513733902	 0.4643036549	-0.098635
O	 2.9355953799	-2.8569842959	 1.6302897494	-0.420001
C	 0.6815200799	-0.812985188	 1.2231177966	-0.255745
C	-1.3279432376	-0.5829422846	-0.2530355831	 0.254909
N	-2.38469026	-0.9975973977	-0.4750941664	-0.348288
H	 0.9711090521	 1.8603182818	 0.2965190509	 0.118724
H	-0.3761646657	 1.9005685974	-0.8584610767	 0.13605
H	-0.7038529042	 1.818200582	 0.8800466269	 0.137614
H	 0.7316335448	-1.1009796195	-1.8715351287	 0.122751
H	 1.9002419842	-0.0096741244	-1.0903115317	 0.104292
H	 0.860891138	-2.662820468	 0.0692901746	 0.100846
H	 3.2956062604	-2.5705789055	-0.4107769482	 0.090434
H	 3.4369135326	-1.1128659567	 0.5944887525	 0.077936
H	 3.8576853467	-3.0656581067	 1.8060532917	 0.289834
H	 1.3739785102	-0.1471713127	 1.7470740389	 0.105736
H	 0.0199272838	-1.2818907211	 1.9515474859	 0.126968
49.6556	97.2089	148.8487	177.0004	212.2396	249.5937	263.265	311.8217	336.4647	394.9355	429.1901	536.1663	585.0069	620.1772	718.769	831.9301	856.8525	905.9532	919.361	934.4843	1002.2888	1029.606	1066.1163	1086.2174	1099.2481	1148.2946	1173.4682	1185.7692	1237.8855	1248.1137	1270.534	1282.7701	1292.85	1307.8274	1372.4185	1411.2509	1462.6695	1471.671	1488.4803	1488.8905	1498.4294	1519.6321	2346.839	2949.5063	2980.8115	3037.9191	3053.7575	3061.3216	3073.9906	3113.8734	3114.7466	3126.3424	3135.8501	3830.8928
CC1(CC(CO)C1)C#N	C[C@]1(C[C@@H](CO)C1)C#N	
InChI=1S/C7H11NO/c1-7(5-8)2-6(3-7)4-9/h6,9H,2-4H2,1H3	InChI=1S/C7H11NO/c1-7(5-8)2-6(3-7)4-9/h6,9H,2-4H2,1H3/t6-,7-
