17
gdb 48735	3.4176	1.37559	1.1951	3.9257	73.7	-0.2436	-0.0237	0.2199	1052.4001	0.136209	-421.774865	-421.767568	-421.766624	-421.806709	28.359	
O	-0.122220651	-0.0042761564	 0.0891524438	-0.274812
C	-0.0083290099	 1.1948301784	-0.0215882228	 0.049153
C	 1.263692657	 1.9161274804	 0.0264512828	 0.274118
C	 1.36757757	 3.3863887233	 0.3634515456	-0.349306
C	 1.776479115	 2.9889252464	-1.0073739239	-0.119129
C	 3.1430382493	 2.2700897904	-1.0684806984	-0.067373
C	 4.2124168187	 2.6471435364	-0.0246538487	-0.108429
O	 3.620992778	 1.753270476	 0.9567596153	-0.29773
C	 2.6589059705	 1.2634488894	-0.0076766781	 0.031184
H	-0.8966198674	 1.8481161494	-0.1930153457	 0.061875
H	 0.4155436857	 3.9045381551	 0.4280078668	 0.127957
H	 2.0905816519	 3.6727267694	 1.1187876987	 0.148212
H	 1.2357645859	 3.337522453	-1.8787776902	 0.109742
H	 3.4628507769	 1.9638582369	-2.0620801488	 0.091563
H	 5.2264899507	 2.3250005441	-0.2890759879	 0.110365
H	 4.2405451528	 3.687581215	 0.3186567784	 0.106749
H	 2.6629472158	 0.1793355027	-0.123139927	 0.105859
104.8385	161.9825	207.5547	267.62	325.5071	439.8502	472.5648	559.3173	648.2032	738.7586	744.9197	834.3221	858.9968	872.5039	908.254	952.7746	978.591	985.8976	993.0863	1016.1773	1048.1276	1061.9903	1091.2698	1120.1	1159.5884	1190.0124	1211.9076	1230.0095	1262.4588	1306.856	1312.4939	1358.9064	1382.0339	1434.8907	1486.7857	1522.1888	1795.7027	2848.0625	3022.7083	3069.2902	3116.5819	3135.165	3138.6887	3189.8152	3221.3931
O=CC12CC1C1COC21	O=C[C@]12C[C@H]1[C@H]1CO[C@@H]21	
InChI=1S/C7H8O2/c8-3-7-1-5(7)4-2-9-6(4)7/h3-6H,1-2H2	InChI=1S/C7H8O2/c8-3-7-1-5(7)4-2-9-6(4)7/h3-6H,1-2H2/t4-,5+,6-,7-/m1/s1
