18
gdb 43757	3.33596	1.28056	1.08503	2.9802	78.63	-0.2513	0.0208	0.272	1153.2146	0.147842	-401.908463	-401.900625	-401.899681	-401.941187	30.559	
N	 0.10229887	 1.1166758171	-0.0997943457	-0.557189
C	-0.0009749453	-0.126236587	 0.0170935012	 0.449072
O	 0.9811131451	-1.0873138965	 0.2835031478	-0.306762
C	 0.009393148	-2.1513105052	 0.0366564689	 0.469382
C	-1.0465473379	-2.0657758053	 1.0779695108	-0.340337
C	-1.0977453909	-1.1203760057	-0.1326389755	-0.263902
C	 0.4652020524	-3.3157901943	-0.749366444	-0.110317
C	 1.4675579536	-3.1461972339	-1.8639960621	-0.269802
C	 1.879846735	-3.8237150794	-0.5823913997	-0.266762
H	 1.0665605069	 1.4210860329	 0.0444802455	 0.228842
H	-1.8012454899	-2.8465013494	 1.0522543346	 0.126627
H	-0.8129888072	-1.6791491313	 2.0652304921	 0.130646
H	-1.9382918381	-1.063507537	-0.8080710553	 0.123055
H	-0.3083454791	-4.0646767236	-0.8884253556	 0.092162
H	 1.3395203657	-3.7510114302	-2.7544189821	 0.114619
H	 1.847931423	-2.1473838896	-2.0419815028	 0.130793
H	 2.5292305004	-3.2705727803	 0.0861129362	 0.133966
H	 2.0359863882	-4.8964278214	-0.5840715744	 0.115907
69.4123	111.7927	172.2834	244.9813	369.0255	400.4927	446.1909	501.3131	615.2041	657.0228	734.6635	787.4747	813.6403	848.1569	853.3623	872.1634	918.3392	924.4183	959.7928	974.7977	986.3379	1005.6653	1040.916	1067.4771	1072.3551	1085.6994	1088.3014	1125.0476	1176.2573	1200.1679	1217.6003	1237.599	1284.8171	1333.1011	1447.5519	1461.3473	1489.8159	1517.5752	1832.5233	3120.444	3141.0754	3144.5338	3157.9471	3212.0104	3224.8594	3233.0507	3238.8853	3477.6525
N=C1OC2(CC12)C1CC1	[NH][C]1O[C@]2(C[C@@H]12)C1CC1	
InChI=1S/C7H9NO/c8-6-5-3-7(5,9-6)4-1-2-4/h4-5,8H,1-3H2	InChI=1S/C7H9NO/c8-6-5-3-7(5,9-6)4-1-2-4/h4-5,8H,1-3H2/t5-,7+/m0/s1
