21
gdb 65607	3.07822	1.26526	1.14846	0.7004	88.21	-0.2501	0.0545	0.3046	1181.1634	0.181804	-349.89764	-349.888779	-349.887835	-349.931142	34.89	
C	 0.0872127051	 1.4937382764	-0.0928659385	-0.451838
C	 0.0246564495	-0.0358893064	-0.0285410751	 0.120386
C	 1.0159411441	-0.8309373406	-0.9630145072	-0.278652
C	 1.4826903855	-1.6989839932	 0.237066063	 0.002802
C	 2.804793343	-1.2411247811	 0.8974809256	-0.222335
C	 2.010637172	-0.2099191628	 1.7571067185	-0.251045
C	 0.6681772099	-0.772392777	 1.204718627	-0.039802
C	-1.3481297812	-0.4896712828	-0.2126634859	 0.307971
C	-2.4811369754	-0.8681612403	-0.3574630543	-0.482008
H	 1.1163243515	 1.852704187	-0.003996412	 0.113126
H	-0.3111966663	 1.8490953832	-1.0481902471	 0.125644
H	-0.5072236668	 1.9451476384	 0.7076421928	 0.124132
H	 0.5280319506	-1.3675656467	-1.7776100042	 0.111571
H	 1.8046436369	-0.1993428191	-1.384028168	 0.094514
H	 1.2997413559	-2.7700159888	 0.1482787812	 0.067377
H	 3.2709798025	-2.021107326	 1.5052597837	 0.100054
H	 3.5646334474	-0.8383486642	 0.2205584794	 0.093508
H	 2.1252549691	-0.3447501627	 2.8349661992	 0.102293
H	 2.2100913829	 0.8407088995	 1.5346641401	 0.100011
H	-0.0370431504	-1.1463935168	 1.9465464379	 0.072207
H	-3.481290816	-1.1996764759	-0.4877943359	 0.190084
46.4852	145.516	165.5511	213.1749	288.451	307.544	363.6729	403.325	469.796	537.5691	608.1047	611.213	622.8259	715.1727	739.8708	771.5232	829.2124	840.4231	890.8851	910.856	934.0634	962.4698	989.0211	995.5695	1043.5188	1086.7246	1126.9434	1146.6041	1168.2215	1180.9626	1208.1621	1241.7421	1243.7981	1264.1487	1269.5233	1290.159	1304.9053	1323.149	1405.0187	1474.4406	1477.0027	1488.4896	1493.0867	1505.7426	2225.8336	3037.3549	3046.529	3051.8756	3067.6968	3089.5889	3101.103	3107.3789	3108.3577	3113.1315	3120.0121	3126.3558	3502.8521
CC1(CC2CCC12)C#C	C[C@]1(C[C@H]2CC[C@@H]12)C#C	
InChI=1S/C9H12/c1-3-9(2)6-7-4-5-8(7)9/h1,7-8H,4-6H2,2H3	InChI=1S/C9H12/c1-3-9(2)6-7-4-5-8(7)9/h1,7-8H,4-6H2,2H3/t7-,8-,9-/m1/s1
