15
gdb 42721	2.87182	1.73548	1.39435	0.8347	70.32	-0.2532	-0.0119	0.2414	929.9026	0.112464	-420.5794	-420.57254	-420.571596	-420.610544	27.254	
O	 0.0053984255	-0.0062855531	 0.2362936065	-0.295204
C	-0.0126600407	 1.1657808777	 0.0753458167	 0.424819
C	-1.0928880521	 2.3261972745	-0.0661817427	-0.301639
C	-0.6957776662	 3.0577913218	 1.2014486759	-0.082468
C	 0.6522163304	 3.0755142427	 1.1819025627	-0.082487
C	 1.0314919507	 2.3546332499	-0.097273545	-0.301638
C	-0.0524855908	 2.8865186274	-1.0697576245	 0.529554
C	-0.0745150595	 2.9376143434	-2.5268302766	-0.29289
O	-0.0783185981	 4.1272111054	-1.7000356378	-0.277321
H	-2.1378821013	 2.1557002946	-0.3088704216	 0.094551
H	-1.3739915176	 3.3861893467	 1.9749000166	 0.116621
H	 1.343713674	 3.4219761414	 1.9354572924	 0.116632
H	 2.0731250684	 2.2120864745	-0.3705154412	 0.094553
H	 0.840707357	 2.7741957469	-3.0928060812	 0.128459
H	-1.0012246398	 2.7495694662	-3.0658256601	 0.128459
124.7335	200.7612	266.1747	313.2546	395.6336	497.9223	546.6965	599.2055	612.8792	715.5773	774.117	781.725	807.3705	892.9427	905.0266	909.7501	931.4428	947.3426	1002.5328	1025.6367	1083.4511	1115.3017	1126.1557	1136.4152	1145.65	1173.8955	1209.4882	1213.0917	1323.8098	1440.466	1539.5139	1583.7038	1926.0529	3091.5665	3167.6546	3169.3676	3181.8532	3232.5213	3255.4825
O=C1C2C=CC1C21CO1	O=C1[C@H]2C=C[C@@H]1[C@]12CO1	
InChI=1S/C7H6O2/c8-6-4-1-2-5(6)7(4)3-9-7/h1-2,4-5H,3H2	InChI=1S/C7H6O2/c8-6-4-1-2-5(6)7(4)3-9-7/h1-2,4-5H,3H2/t4-,5+,7-
