15
gdb 129161	5.66928	0.99376	0.89943	2.8445	69.98	-0.2282	-0.008	0.2203	1250.1127	0.114342	-450.089868	-450.082219	-450.081275	-450.122719	28.304	
N	 0.5012001037	 1.0181657759	-0.9262255485	-0.603574
C	 0.1239608129	 0.0066488629	-0.2719665874	 0.489912
N	-0.8423243259	-0.9112694851	-0.6587860938	-0.399211
C	-0.9475732741	-1.8592250168	 0.3195219801	 0.456048
N	-0.1521840566	-1.6268366075	 1.3119470803	-0.212795
O	 0.5536393392	-0.4398773131	 0.9521223385	-0.242246
C	-1.8538778424	-3.0202680536	 0.2585237234	-0.139694
C	-1.2663527783	-4.392220608	 0.3747786917	-0.220057
N	-2.0511707935	-3.8242692258	 1.4679578263	-0.2986
H	 1.2212045498	 1.5311027866	-0.4242227369	 0.236192
H	-1.331563369	-0.8670661159	-1.5352059393	 0.288477
H	-2.7446139626	-2.8724393378	-0.3470404187	 0.111162
H	-1.7375245994	-5.2141847486	-0.1566761596	 0.132337
H	-0.1873030395	-4.4554666026	 0.4794310843	 0.138799
H	-1.4350228042	-3.4728776507	 2.1991926996	 0.263248
50.7445	132.8858	173.546	228.3485	353.8599	406.2074	427.14	492.5316	662.974	694.3916	731.4395	749.7197	768.622	832.7306	891.8046	914.5662	960.636	973.2905	1002.5874	1038.9873	1075.9208	1120.267	1135.4674	1188.1359	1224.5304	1272.3562	1311.5216	1312.9849	1389.2092	1501.2884	1523.749	1651.6354	1797.7767	3115.4381	3140.4328	3209.8641	3495.3354	3542.8199	3694.5388
N=C1NC(=NO1)C1CN1	[NH][C@H]1NC(=NO1)[C@H]1CN1	
InChI=1S/C4H6N4O/c5-4-7-3(8-9-4)2-1-6-2/h2,6H,1H2,(H2,5,7,8)	InChI=1S/C4H7N4O/c5-4-7-3(8-9-4)2-1-6-2/h2,4-6H,1H2,(H,7,8)/t2-,4+/m1/s1
