20
gdb 65113	3.34251	1.26661	1.00862	1.1253	81.05	-0.2301	0.0284	0.2585	1231.1208	0.171711	-403.162881	-403.154061	-403.153116	-403.197643	32.506	
C	 0.051681765	 1.4996408322	-0.237970507	-0.463409
C	-0.0039122991	-0.0018726157	-0.0330869264	 0.218339
C	 1.2864043504	-0.8032265085	-0.1254590422	-0.282177
C	 0.6410474468	-0.597526193	 1.2094005838	-0.282428
C	-1.2229969289	-0.6961872367	-0.515921811	 0.394662
N	-1.4661984057	-1.9427063267	-0.4318292113	-0.3398
C	-2.7820263013	-2.1638750859	-1.0408846568	-0.185483
C	-3.2440327428	-0.7539718329	-1.495790304	-0.115047
O	-2.1551313936	 0.1085912989	-1.1035276627	-0.259992
H	 0.9921629134	 1.8955659704	 0.1560170362	 0.109459
H	-0.0101498476	 1.7615249775	-1.2983766273	 0.125928
H	-0.7717263121	 2.0045304	 0.2758948028	 0.125698
H	 1.2138859526	-1.7879056105	-0.5707607379	 0.135925
H	 2.1889817553	-0.2481874911	-0.3584939985	 0.111278
H	 1.0948884737	 0.100571904	 1.9048700402	 0.111192
H	 0.1362868555	-1.4444270512	 1.6578453672	 0.136341
H	-2.6998688767	-2.8654484255	-1.8785610329	 0.112677
H	-3.4673262846	-2.6116904544	-0.312564774	 0.112709
H	-3.3803301807	-0.6640035873	-2.5773631381	 0.117071
H	-4.1533263494	-0.4072319036	-0.9963420301	 0.117057
22.3012	83.5243	161.8511	193.5556	214.0323	309.7581	315.9466	389.8502	430.1064	546.0264	727.3038	759.7181	794.6987	829.4086	832.0465	848.3022	921.6858	961.8557	961.9108	973.5843	1011.2291	1024.3353	1055.3553	1081.0581	1088.6916	1119.6957	1124.8427	1174.4055	1203.5824	1216.1125	1245.1771	1303.9187	1323.9931	1362.6598	1399.8142	1422.0507	1455.7077	1487.1694	1489.1832	1503.4851	1506.3624	1528.3122	1722.0861	3032.8701	3039.9706	3052.6797	3058.1896	3098.761	3108.3115	3111.8785	3135.8684	3138.7557	3227.6869	3240.906
CC1(CC1)C1=NCCO1	CC1(CC1)C1=NCCO1	
InChI=1S/C7H11NO/c1-7(2-3-7)6-8-4-5-9-6/h2-5H2,1H3	InChI=1S/C7H11NO/c1-7(2-3-7)6-8-4-5-9-6/h2-5H2,1H3
