16
gdb 19438	4.03232	1.95565	1.62885	0.6416	63.67	-0.2576	0.0751	0.3327	813.9176	0.13137	-383.711322	-383.704841	-383.703897	-383.741849	25.494	
C	-0.0063501569	 1.4621620496	-0.005477619	-0.254401
O	 1.1827620427	 0.6645910775	-0.0685754036	-0.278788
C	-0.085866604	 0.0012515924	 0.0193533201	 0.437908
C	-0.388329186	-0.8397719599	 1.2585586006	-0.306545
C	-0.2800181181	-2.3121020353	 0.7797762036	-0.24876
C	-0.5620888529	-2.2383588238	-0.7103337895	 0.053386
O	-1.7284984265	-1.4676031827	-1.0329961334	-0.262423
C	-0.4411384135	-0.8474530864	-1.1680658332	-0.04159
H	-0.1431543323	 2.0217111305	 0.9192480663	 0.115758
H	-0.2543080039	 2.0067207327	-0.9158676287	 0.116001
H	 0.3051172505	-0.6001673438	 2.0670189612	 0.117779
H	-1.403504508	-0.6295708279	 1.6042884787	 0.124152
H	 0.7321632914	-2.7050883143	 0.9290893628	 0.11447
H	-0.9735721647	-2.9759025978	 1.3038517789	 0.112876
H	-0.3698430144	-3.0868315035	-1.3617518311	 0.098522
H	-0.1394587434	-0.5514160674	-2.1687660136	 0.101655
116.3994	228.294	307.9775	362.4476	368.7599	473.5646	554.9074	685.278	760.4848	827.4378	835.3504	859.6494	870.5173	905.9642	945.1127	970.66	991.7128	1033.4667	1077.6458	1101.032	1126.5595	1157.8273	1188.1987	1210.6658	1238.9648	1260.0253	1307.4672	1313.0705	1333.3499	1407.4626	1451.7858	1473.0868	1488.6296	1534.6415	3047.1502	3071.9067	3079.5522	3093.7416	3125.4229	3149.2417	3163.7794	3165.4467
C1OC11CCC2OC12	C1O[C@]21CC[C@H]1O[C@@H]21	
InChI=1S/C6H8O2/c1-2-6(3-7-6)5-4(1)8-5/h4-5H,1-3H2	InChI=1S/C6H8O2/c1-2-6(3-7-6)5-4(1)8-5/h4-5H,1-3H2/t4-,5-,6+/m1/s1
