21
gdb 76632	2.35935	1.39104	1.1077	2.8365	78.2	-0.2484	0.0614	0.3098	1198.1214	0.180435	-424.185691	-424.176019	-424.175075	-424.220007	36.732	
C	-0.5620114197	 1.1794896495	-0.1879220965	-0.427036
C	 0.0264107666	-0.2058456405	-0.031462294	-0.064555
C	 1.4758741837	-0.4526821386	-0.389729476	 0.060701
O	 2.2996709582	 0.6497408423	-0.6580745346	-0.411803
C	 1.031286849	-0.6127078951	 1.0395668999	-0.128901
C	 1.5794051093	 0.2299690951	 2.1640536519	 0.40602
C	 3.0865970692	 0.2016856378	 2.3135855551	-0.456533
C	 0.8154879789	 1.3263080495	 2.7836796667	-0.223966
O	 0.8721778849	 0.0462609829	 3.4078632479	-0.280731
H	 0.1714786867	 1.9580027157	 0.030098855	 0.133039
H	-0.9085623825	 1.3258068266	-1.2181565853	 0.108857
H	-1.4267902372	 1.3271363541	 0.466558218	 0.125536
H	-0.6585008988	-1.0028243889	-0.3110089012	 0.087118
H	 1.7367123119	-1.351171564	-0.948703876	 0.085389
H	 2.0907157539	 0.9737408511	-1.5406670828	 0.29117
H	 0.9400592997	-1.6492037802	 1.3576974604	 0.102511
H	 3.563867769	 0.6516177821	 1.4399647057	 0.14547
H	 3.3897562115	 0.7400408366	 3.2152555993	 0.116182
H	 3.4390482814	-0.8323031039	 2.399582917	 0.116523
H	 1.3558984176	 2.1235413874	 3.2953454515	 0.104087
H	-0.1592983734	 1.6111765406	 2.3983441179	 0.110922
44.0723	165.5246	193.4815	216.5205	231.3091	251.9415	277.3101	310.948	335.469	364.4549	401.3133	514.9779	561.5351	615.8051	725.1902	771.6992	801.6292	829.9346	898.0187	928.9893	972.6915	997.8815	1042.827	1049.0986	1081.9049	1122.1667	1131.6394	1138.3888	1151.2378	1176.7282	1179.9411	1232.6352	1266.9653	1292.2838	1370.2653	1386.2195	1402.3405	1410.5411	1416.7663	1455.9076	1486.0832	1500.4724	1501.9221	1507.0021	1533.0931	3030.1492	3039.1387	3083.0213	3085.7129	3095.2126	3107.0032	3120.9	3129.0415	3137.2506	3141.8346	3182.3108	3802.9512
CC1C(O)C1C1(C)CO1	C[C@H]1[C@@H](O)[C@H]1[C@@]1(C)CO1	
InChI=1S/C7H12O2/c1-4-5(6(4)8)7(2)3-9-7/h4-6,8H,3H2,1-2H3	InChI=1S/C7H12O2/c1-4-5(6(4)8)7(2)3-9-7/h4-6,8H,3H2,1-2H3/t4-,5+,6-,7-/m1/s1
