16
gdb 66813	3.69578	1.81543	1.80698	1.1534	68.6	-0.2197	0.0677	0.2874	814.5115	0.126509	-400.66591	-400.66005	-400.659106	-400.695696	25.535	
O	-0.109865522	 1.407865497	-0.0420700517	-0.465985
C	 0.0186257772	 0.0379449342	-0.0406105904	 0.406773
C	-0.0827763392	-0.8736801552	 1.163265636	-0.169346
C	 0.9736893637	-1.9507275683	 1.0492304799	-0.062206
C	 0.7147309861	-2.7942524791	-0.1371421918	-0.050834
C	-0.2728672545	-1.9258157919	-0.9535905757	-0.074954
C	-1.07329994	-1.0089919016	 0.0056357498	-0.146746
C	 0.8574223871	-0.857053923	-0.985164303	-0.103355
N	 1.8010921198	-1.748604748	-0.1861035247	-0.163456
H	 0.6397089531	 1.7853607275	 0.4328496481	 0.289225
H	-0.4179746738	-0.4739062585	 2.1110350926	 0.093941
H	 1.5157610354	-2.3166186005	 1.9124190482	 0.094482
H	 0.9242237743	-3.8537959116	-0.2336238809	 0.093277
H	-0.7385584754	-2.3084677186	-1.8573780845	 0.078437
H	-2.1457743648	-0.90408774	 0.1138015907	 0.096866
H	 1.280092263	-0.4492883924	-1.9000285227	 0.08388
244.7468	301.521	341.6559	556.6505	562.7244	598.9175	677.8942	736.0525	771.3393	784.8141	802.7281	822.0663	848.28	878.0132	890.6564	904.4831	923.5501	949.7011	975.1974	979.723	1021.0963	1047.2317	1053.0049	1139.7955	1144.4391	1168.9737	1174.6721	1221.8917	1230.4316	1235.629	1266.5735	1289.6618	1317.3515	1350.226	1458.3141	3149.1431	3157.1429	3171.5131	3189.8545	3193.5631	3214.4085	3785.5285
OC12C3C4C5C(C13)C2N45	O[C@@]12[C@@H]3[C@H]4[C@H]5[C@@H]([C@H]13)[C@@H]2N45	
InChI=1S/C7H7NO/c9-7-2-1-4-5(3(2)7)8(4)6(1)7/h1-6,9H	InChI=1S/C7H7NO/c9-7-2-1-4-5(3(2)7)8(4)6(1)7/h1-6,9H/t1-,2+,3+,4-,5+,6+,7-,8?/m1/s1
