17
gdb 90529	4.65207	1.06325	0.97485	4.8267	73.36	-0.2474	0.0006	0.2479	1214.5156	0.13637	-417.969196	-417.961141	-417.960197	-418.002032	30.201	
C	 0.3801194868	 1.5866089329	-0.0838654934	-0.389307
C	 0.0771591441	 0.1031290482	-0.0123312262	 0.030844
N	 0.9796904539	-0.7786080283	-0.826276718	-0.336975
C	 1.1914917662	-1.690918902	 0.3119621255	-0.073169
C	 2.4810692663	-1.3003663965	 1.0853194453	-0.013364
O	 1.7557057211	-0.2897455514	 1.8265279369	-0.291496
C	 0.487632792	-0.6904120394	 1.2543949869	 0.090728
C	 3.0339510658	-2.332828931	 1.9652177323	 0.279979
N	 3.4545549951	-3.1745357382	 2.6363376953	-0.316745
H	 1.4100361911	 1.7773822632	 0.2258417017	 0.137313
H	 0.249455646	 1.9555340341	-1.1059434705	 0.119811
H	-0.2928758476	 2.1511391453	 0.5704030948	 0.118492
H	-0.9848464088	-0.0875738942	-0.2235139331	 0.076684
H	 0.5402445865	-1.2082920882	-1.6308442732	 0.228004
H	 0.9548483726	-2.7469374797	 0.1889953245	 0.103872
H	 3.2685772723	-0.8726206	 0.4574591584	 0.137075
H	-0.2593300734	-0.9078761345	 2.0185752527	 0.098252
76.9554	130.8678	171.5117	220.9499	266.1114	361.7768	390.089	468.8853	519.5974	586.0363	632.7364	742.1905	803.1359	868.784	872.3145	923.8272	956.4361	969.8933	986.5399	1031.4165	1055.1665	1075.0259	1108.4031	1142.1861	1170.1448	1199.0482	1236.7844	1253.2051	1311.0086	1326.7944	1352.0444	1380.6205	1384.0054	1411.7655	1486.9197	1493.484	2354.2381	2998.8939	3040.3476	3072.3734	3106.0671	3106.506	3124.3857	3133.2611	3556.6488
CC1NC2C(OC12)C#N	C[C@H]1N[C@H]2[C@@H](O[C@@H]12)C#N	
InChI=1S/C6H8N2O/c1-3-6-5(8-3)4(2-7)9-6/h3-6,8H,1H3	InChI=1S/C6H8N2O/c1-3-6-5(8-3)4(2-7)9-6/h3-6,8H,1H3/t3-,4+,5+,6+/m1/s1
