20
gdb 40990	3.71956	1.55888	1.49399	1.538	83.91	-0.2265	0.0744	0.3009	977.7628	0.173474	-365.885656	-365.879035	-365.878091	-365.916158	28.63	
C	-0.0300296605	 1.5758439234	 0.1606498183	-0.273622
C	 1.5282981567	 1.4540207263	-0.1553525671	-0.356234
C	 1.1183541726	 0.1323610611	-0.8314937221	 0.332708
C	-0.1289449279	 0.0090747934	 0.0098771173	-0.031894
C	-0.3046717909	-0.9294587402	-1.2079189892	-0.063869
C	 0.2825046638	 0.1219020206	-2.1641793942	-0.03475
C	 1.1074981892	-0.5848689774	-3.2313149813	-0.266704
C	 1.7350214039	-1.6833841918	-2.3301010175	-0.167833
N	 1.2001617865	-1.391833674	-0.9791846618	-0.203619
H	-0.2855155573	 1.9505439405	 1.1534444268	 0.10589
H	-0.5643557129	 2.163704011	-0.5864085849	 0.115464
H	 2.0008862384	 2.2293612175	-0.765135054	 0.100585
H	 2.1017172582	 1.3058851079	 0.7637852904	 0.118529
H	 0.0127689394	-0.5061401178	 0.9609256992	 0.085242
H	-1.0563300036	-1.6994904165	-1.4160096448	 0.070631
H	-0.3087648563	 0.9889145522	-2.4617266894	 0.064703
H	 0.4867740938	-0.9945800079	-4.0347806451	 0.098377
H	 1.8504134846	 0.0758005776	-3.6902896186	 0.098007
H	 1.4440074155	-2.6966533076	-2.6228193905	 0.102861
H	 2.8276916867	-1.6447383084	-2.2977721614	 0.105529
202.7996	245.2497	277.4892	326.6494	473.5175	533.5822	613.6773	668.1703	685.6634	731.7307	791.2333	802.7714	832.2718	839.6678	867.2208	877.4634	935.0061	966.3536	983.2115	997.1795	1014.4722	1039.4056	1050.1863	1082.3588	1100.3291	1130.0333	1152.0553	1165.6836	1186.0228	1199.0323	1220.8028	1231.2553	1236.4396	1251.4496	1268.1856	1276.2241	1318.2067	1342.3142	1367.3223	1472.5221	1484.1612	1489.6609	1508.4066	3039.5857	3042.0404	3052.0151	3056.2295	3077.7697	3079.6923	3099.521	3102.3535	3105.6926	3111.6311	3142.3459
C1CC23C1C1C2CCN31	C1C[C@@]23[C@@H]1[C@H]1[C@@H]2CCN31	
InChI=1S/C8H11N/c1-3-8-5(1)7-6(8)2-4-9(7)8/h5-7H,1-4H2	InChI=1S/C8H11N/c1-3-8-5(1)7-6(8)2-4-9(7)8/h5-7H,1-4H2/t5-,6-,7-,8+/m0/s1
