17
gdb 46643	2.37154	1.51486	1.37493	3.0669	77.92	-0.2387	-0.0167	0.222	1032.2847	0.136021	-384.678622	-384.670735	-384.669791	-384.711096	30.648	
O	 0.0638586658	-0.0100383191	 0.0644398612	-0.326082
C	-0.0171990303	 1.1859373459	-0.0579927056	 0.42329
C	-1.303235073	 1.9782801274	-0.3276791525	-0.337998
C	-0.8546694767	 3.3446232407	-0.8905222271	-0.2367
C	 0.6364508665	 3.4708229868	-0.5690409215	-0.06754
C	 1.0497585701	 3.3639024116	 0.8782890348	-0.212554
C	 0.1297671341	 3.4711691354	 1.9732616338	 0.335487
C	-0.6217742791	 3.5962845432	 2.9044483684	-0.452958
C	 1.1407847832	 2.14055936	-0.0541381085	-0.177635
H	-1.942165851	 1.4131742901	-1.0097312652	 0.128981
H	-1.8436511671	 2.0780229685	 0.6184094397	 0.147853
H	-0.9823044645	 3.3696006835	-1.9768970097	 0.112853
H	-1.4281870728	 4.1781263479	-0.4748072307	 0.118536
H	 1.2544086	 4.0852368881	-1.2138411947	 0.101634
H	 2.0310785113	 3.7774044536	 1.0957354189	 0.128074
H	-1.2825723774	 3.696741761	 3.7296669938	 0.202387
H	 2.1278657708	 1.7421626953	-0.2512047451	 0.112371
83.0813	131.012	165.8304	254.216	330.0929	441.983	462.1099	544.4853	596.5916	609.8143	636.2173	658.6107	680.2751	747.4661	774.9415	829.5709	838.5571	929.0403	951.2427	968.6385	1011.0553	1039.2943	1072.2399	1107.8614	1167.1736	1186.5507	1195.0728	1235.9259	1281.2184	1312.923	1332.1029	1353.4651	1402.7338	1452.4658	1494.7091	1835.6998	2233.6689	3054.4821	3070.8377	3092.202	3119.5888	3141.3944	3176.004	3202.1131	3501.8203
O=C1CCC2C(C#C)C12	O=C1CC[C@H]2[C@@H](C#C)[C@@H]12	
InChI=1S/C8H8O/c1-2-5-6-3-4-7(9)8(5)6/h1,5-6,8H,3-4H2	InChI=1S/C8H8O/c1-2-5-6-3-4-7(9)8(5)6/h1,5-6,8H,3-4H2/t5-,6+,8-/m1/s1
