17
gdb 35252	2.98098	1.3432	1.07248	1.887	74.61	-0.2469	0.0221	0.269	1139.8335	0.134202	-421.738777	-421.730234	-421.72929	-421.772736	31.073	
C	-0.1428507595	-1.2428077081	 0.3534357473	-0.41833
C	 0.0540406756	-0.0598233034	 0.2788795812	 0.349104
C	 0.1362789717	 1.3692175785	 0.1529765008	-0.155163
O	 0.8407222209	 2.1221363398	 1.1619413183	-0.245026
C	 1.3614916317	 2.1367604723	-0.1608558992	 0.052675
C	 2.7375436362	 1.55509026	-0.368248462	 0.087889
C	 3.8526276341	 2.2415027792	 0.4634072278	-0.289044
C	 3.9248669265	 0.8875918898	 1.1963817362	-0.057199
O	 2.9545104705	 0.3029207662	 0.2996317256	-0.273953
H	-0.2683293675	-2.2949491512	 0.4240991668	 0.198676
H	-0.8058329928	 1.8347171438	-0.1406536735	 0.116446
H	 1.2158595415	 3.0816362648	-0.6939821239	 0.093575
H	 2.930402451	 1.4792860417	-1.4473796113	 0.083991
H	 4.7444066107	 2.5078432246	-0.1049091691	 0.113677
H	 3.5303313801	 3.092619113	 1.0645506901	 0.122436
H	 4.885012242	 0.3617487912	 1.1508653915	 0.103207
H	 3.5624990674	 0.8973511677	 2.2301458036	 0.11704
60.3898	82.7486	119.2177	192.6468	222.6294	254.0383	379.6765	518.9121	561.4422	623.5765	669.0897	680.8541	731.669	791.1438	830.9808	838.835	909.5366	956.6643	975.2511	983.2665	1038.1608	1071.7353	1094.9653	1137.9889	1147.4327	1167.1982	1218.5323	1260.4509	1266.3723	1283.4834	1352.5739	1375.4306	1388.8837	1458.2507	1486.56	1526.7925	2242.1843	3009.2423	3030.0774	3062.1023	3074.6571	3086.2742	3096.9761	3144.3676	3504.4171
C#CC1OC1C1CCO1	C#C[C@H]1O[C@H]1[C@H]1CCO1	
InChI=1S/C7H8O2/c1-2-5-7(9-5)6-3-4-8-6/h1,5-7H,3-4H2	InChI=1S/C7H8O2/c1-2-5-7(9-5)6-3-4-8-6/h1,5-7H,3-4H2/t5-,6-,7-/m1/s1
