17
gdb 114165	4.33766	0.96618	0.87103	2.6962	74.7	-0.2479	-0.0016	0.2463	1304.9168	0.136901	-417.965149	-417.956853	-417.955909	-417.998378	31.152	
O	-0.02506371	 1.366026991	-0.2629049049	-0.418398
C	 0.038258668	 0.0343394535	 0.2104860533	-0.071636
C	-1.325114781	-0.6329266102	 0.087201207	 0.021805
N	-1.8607452574	-0.5994754224	-1.3265270807	-0.400256
C	-2.1540675771	-2.0530655223	-1.2346029826	 0.267419
C	-0.854362046	-2.7965048282	-1.1029149588	-0.308371
C	-1.4504274404	-2.1623442611	 0.1257271291	-0.166936
C	-3.3748884431	-2.6210126772	-1.6975287711	 0.183469
N	-4.3776599078	-3.060831189	-2.0741190003	-0.344573
H	-0.3026530163	 1.3046052584	-1.1856099766	 0.291057
H	 0.7960069185	-0.5504995997	-0.3316855671	 0.08979
H	 0.3436023754	 0.0819132165	 1.2612375291	 0.113494
H	-2.0301835003	-0.1663915637	 0.7820632809	 0.098249
H	-2.7224009711	-0.0643823021	-1.3674080265	 0.242986
H	-0.9303709267	-3.8778767386	-1.1319333971	 0.143907
H	 0.015641721	-2.3766385969	-1.5973347389	 0.135058
H	-1.7351376357	-2.747944878	 0.9893229252	 0.122938
82.2664	109.2169	137.5458	222.3491	253.6726	401.841	444.5894	451.9838	493.6435	536.8877	571.9756	610.5984	725.2688	833.5208	840.1644	884.8734	901.8583	953.8148	998.256	1010.2724	1043.481	1069.6286	1089.9758	1106.6451	1144.0973	1167.9524	1221.3196	1250.455	1289.8447	1311.4892	1357.6226	1396.3021	1409.8469	1434.5201	1481.0342	1501.2788	2343.0766	2995.3459	3059.1273	3079.4622	3133.0696	3206.637	3228.9097	3529.4314	3777.2287
OCC1NC2(CC12)C#N	OC[C@H]1N[C@]2(C[C@@H]12)C#N	
InChI=1S/C6H8N2O/c7-3-6-1-4(6)5(2-9)8-6/h4-5,8-9H,1-2H2	InChI=1S/C6H8N2O/c7-3-6-1-4(6)5(2-9)8-6/h4-5,8-9H,1-2H2/t4-,5+,6+/m0/s1
