16
gdb 131863	5.81134	0.78472	0.70757	2.6153	67.94	-0.2268	-0.0059	0.2209	1519.3238	0.125372	-471.194837	-471.186416	-471.185472	-471.229018	29.825	
O	 0.0156064846	 1.3657248874	-0.2862995389	-0.422438
C	-0.0245392278	-0.0220081747	 0.026173093	-0.096688
C	-1.488912977	-0.416549044	 0.1172785259	-0.125528
N	-2.1436607535	-0.1198896647	-1.1450273747	-0.389705
C	-3.4213506944	-0.5178236725	-1.374223196	 0.475082
N	-4.0579974451	-1.4072740818	-0.6382331347	-0.234424
O	-5.3016616821	-1.5262933197	-1.3073046896	-0.164063
C	-5.248816909	-0.6878088275	-2.3345868436	 0.118948
N	-4.1420065194	-0.0301390466	-2.4527706462	-0.336376
H	 0.9206573191	 1.6064656517	-0.5026568285	 0.295511
H	 0.4679707717	-0.6178958107	-0.7557200986	 0.10328
H	 0.4690124628	-0.2340639071	 0.9858161433	 0.099025
H	-1.5735187204	-1.4881515644	 0.3203190973	 0.136542
H	-1.9635238373	 0.1149485759	 0.9556260345	 0.117546
H	-1.8903291218	 0.766523007	-1.5564914485	 0.262953
H	-6.1215259004	-0.6314800383	-2.9696275348	 0.160335
47.4639	93.9218	120.9991	183.3001	262.7672	292.2951	340.7909	464.9718	490.6153	578.6443	607.6101	771.5546	774.8161	887.5745	909.5852	914.3298	928.9751	977.4299	1034.9541	1091.3938	1102.866	1149.0649	1169.7549	1211.5948	1263.1371	1285.8739	1311.6899	1333.4042	1401.1077	1458.5591	1486.1177	1504.1799	1513.9449	1592.9407	1644.3953	2990.4366	2997.227	3032.0002	3091.2625	3259.4223	3619.1204	3839.7687
OCCNC1=NOC=N1	OCCNc1nocn1	
InChI=1S/C4H7N3O2/c8-2-1-5-4-6-3-9-7-4/h3,8H,1-2H2,(H,5,7)	InChI=1S/C4H7N3O2/c8-2-1-5-4-6-3-9-7-4/h3,8H,1-2H2,(H,5,7)
