16
gdb 67068	2.91407	1.70118	1.48096	0.9172	70.42	-0.2299	-0.0345	0.1955	918.9377	0.123558	-437.748399	-437.740997	-437.740053	-437.779847	29.583	
O	 0.0479924942	 1.3512825773	 0.0623926328	-0.457793
C	 0.1387980887	-0.0528087405	-0.0594688192	 0.216861
C	-0.0791510093	-0.6687166225	-1.496531807	-0.108673
C	-0.5420258595	-1.9529288033	-0.7969692915	-0.245642
C	-1.200648233	-0.7647699808	-0.0456149941	 0.260906
C	-1.3190870869	-0.7498024501	 1.4836425493	-0.441057
C	 0.2731675481	-0.6445955598	 1.4201741298	 0.320597
O	 1.1468894604	-0.9231434238	 2.1754948214	-0.277102
N	-1.557370981	-0.1979508769	-1.437526955	-0.409206
H	 0.9425001128	 1.6970914958	 0.1452406954	 0.300354
H	 0.4955321148	-0.549076936	-2.4176624491	 0.087071
H	-1.2400917428	-2.5671928935	-1.3645957357	 0.119519
H	 0.211794221	-2.538058177	-0.2667018789	 0.116639
H	-1.7224844406	 0.1817758272	 1.8900227489	 0.15147
H	-1.7461303781	-1.6075958783	 2.0059995357	 0.134315
H	-1.5519503487	 0.8243731522	-1.3689588929	 0.23174
115.3926	246.1294	260.2115	285.2032	325.1459	397.8855	483.922	499.9312	548.8436	554.7341	644.3106	705.4471	759.7853	824.7743	858.9859	896.8972	923.2686	954.5978	990.523	1020.613	1057.3184	1091.4645	1118.5444	1130.6404	1173.1266	1187.0297	1194.8414	1203.5766	1228.797	1295.2368	1303.2857	1344.925	1443.5697	1495.7898	1894.7631	3072.1046	3079.3481	3094.0743	3138.1934	3160.4929	3409.9061	3822.2689
OC12C3CC1(CC2=O)N3	O[C@]12[C@H]3C[C@]1(CC2=O)N3	
InChI=1S/C6H7NO2/c8-4-2-5-1-3(7-5)6(4,5)9/h3,7,9H,1-2H2	InChI=1S/C6H7NO2/c8-4-2-5-1-3(7-5)6(4,5)9/h3,7,9H,1-2H2/t3-,5-,6+/m1/s1
