16
gdb 61384	4.33389	0.77696	0.71488	0.92	68.4	-0.2686	-0.0873	0.1814	1526.6703	0.120329	-475.040083	-475.03038	-475.029436	-475.075845	32.903	
C	 0.1147017636	 1.4372332713	 0.0415043967	-0.409885
C	 0.0385139986	-0.0827185184	 0.0584628031	 0.03446
O	-1.3198604831	-0.558545194	 0.1422269815	-0.262681
C	-1.8620262315	-0.6702872563	 1.3671039866	 0.31664
N	-1.2675277323	-0.3821484624	 2.4462532143	-0.501774
C	-3.2805563141	-1.1945739318	 1.27209936	 0.107531
O	-3.9514991086	-1.3822466367	 2.2518487475	-0.230248
C	 0.6213734158	-0.731730402	-1.1894096221	 0.150658
O	 1.5615781505	-0.2892970854	-1.7927210714	-0.237919
H	 1.1441146224	 1.7342119167	-0.1712843074	 0.150392
H	-0.5299655982	 1.8434524662	-0.7427972503	 0.131064
H	-0.187972774	 1.8434138411	 1.0077274647	 0.146581
H	 0.5874717057	-0.4757890491	 0.9252410593	 0.147344
H	-1.8995702343	-0.5734818751	 3.2264285069	 0.252
H	-3.6434795114	-1.3881365359	 0.2437604275	 0.111615
H	 0.111949061	-1.6745492282	-1.4865534268	 0.094221
60.3351	69.6532	79.1508	152.207	177.564	214.1595	246.13	292.7186	367.6037	390.6464	464.5783	574.3463	626.0493	731.6248	834.1394	894.3078	914.2046	921.197	958.2661	1038.6836	1093.6705	1111.4455	1135.3986	1154.8312	1309.608	1336.4622	1355.2358	1390.2678	1409.2955	1434.5636	1484.9721	1498.5437	1719.7594	1832.4043	1843.2774	2900.7157	2953.0878	3028.6482	3057.9503	3135.3551	3152.2085	3472.9225
CC(OC(=N)C=O)C=O	C[C@@H](O[C]([NH])C=O)C=O	
InChI=1S/C5H7NO3/c1-4(2-7)9-5(6)3-8/h2-4,6H,1H3	InChI=1S/C5H7NO3/c1-4(2-7)9-5(6)3-8/h2-4,6H,1H3/t4-/m1/s1
