23
gdb 100800	2.80811	0.82989	0.67803	1.1754	88.4	-0.2573	0.0547	0.312	1690.9957	0.202434	-388.257535	-388.246261	-388.245317	-388.294171	41.363	
C	-0.2455409485	 1.4946074161	-0.0461098964	-0.419461
C	 0.0270516198	-0.0174344228	-0.0457004732	 0.048551
C	 0.8271522389	-0.3799854947	-1.3035651967	-0.084531
O	 0.0205411667	-0.0986444228	-2.4397797022	-0.421177
C	 0.7394918381	-0.5176906453	 1.2376596677	 0.024478
C	 0.1885434518	 0.1170450815	 2.5220481985	-0.41089
C	 0.6527429324	-2.0653991194	 1.352278031	-0.369253
C	 1.5044404896	-2.6224551201	 2.3964703242	 0.306083
C	 2.2226002063	-3.0645197558	 3.2537443414	-0.446793
H	 0.6774725241	 2.0599890091	 0.1334927387	 0.106581
H	-0.6398907392	 1.7936516041	-1.0195024353	 0.134058
H	-0.9696038409	 1.7819722507	 0.7195932619	 0.11346
H	-0.9397009016	-0.5360569655	-0.1253938387	 0.078816
H	 1.7569543654	 0.2134874635	-1.3193449808	 0.084956
H	 1.1192625906	-1.4399986114	-1.2958526297	 0.083529
H	 0.5448114717	-0.2607600041	-3.2290468843	 0.286764
H	 1.803681721	-0.2531893259	 1.1604504393	 0.079104
H	-0.8923728381	-0.04841679	 2.6082858778	 0.111112
H	 0.666562784	-0.328767709	 3.398510064	 0.128995
H	 0.3664839897	 1.1940899492	 2.5540414735	 0.117679
H	-0.3923163893	-2.3435236237	 1.5469587684	 0.128216
H	 0.9164122032	-2.5372585172	 0.399669918	 0.127349
H	 2.8503445341	-3.4657321266	 4.010081483	 0.192373
52.0671	66.7563	94.7588	147.6065	213.6775	239.9176	253.402	276.6052	296.3816	343.1398	355.927	359.3329	403.1518	417.2083	490.1837	572.82	612.3839	635.9369	830.5433	858.9918	887.0674	922.4699	939.0561	976.8118	982.366	1056.4942	1070.8362	1109.6144	1143.861	1150.3122	1169.6712	1223.5442	1256.1536	1274.4753	1293.745	1331.0441	1354.3938	1362.8247	1384.3528	1404.0626	1413.5619	1457.2868	1469.7682	1492.746	1497.4314	1509.6888	1515.1403	1520.6724	2234.8528	2959.4003	2995.5316	3004.2337	3009.2799	3021.4735	3032.9641	3033.5962	3063.8246	3103.9902	3107.3292	3125.4107	3134.8851	3506.91	3834.5245
CC(CO)C(C)CC#C	C[C@@H](CO)[C@@H](C)CC#C	
InChI=1S/C8H14O/c1-4-5-7(2)8(3)6-9/h1,7-9H,5-6H2,2-3H3	InChI=1S/C8H14O/c1-4-5-7(2)8(3)6-9/h1,7-9H,5-6H2,2-3H3/t7-,8-/m0/s1
