15
gdb 128805	3.92571	1.14679	0.98039	1.8255	68.99	-0.2571	-0.0967	0.1604	1182.2985	0.112261	-450.080505	-450.072288	-450.071343	-450.114812	28.092	
C	 0.4267190067	 0.6626453479	-0.4034550181	-0.241758
O	-0.3472709245	 0.2333103931	 0.7052675943	-0.234674
C	 0.3745592826	-0.4955571269	 1.6770837723	-0.146603
C	 0.496935199	-1.9499890508	 1.2776937986	 0.396177
N	-0.4069642885	-2.8171789571	 1.7351424423	-0.247019
C	-0.2266255649	-4.0509079016	 1.2829791906	 0.11369
N	 0.7353814514	-4.4408833693	 0.4396760095	-0.166099
N	 1.5944943805	-3.5263169091	 0.0257205459	-0.051112
N	 1.4989143204	-2.2779039159	 0.4436503645	-0.204978
H	 0.8308139593	-0.1762387858	-0.982729592	 0.134814
H	-0.2416256642	 1.250433635	-1.0363826876	 0.133444
H	 1.2662121284	 1.2948843181	-0.078860521	 0.112865
H	 1.37791701	-0.0751801134	 1.8319124105	 0.115746
H	-0.1993454737	-0.4400679717	 2.6050008237	 0.132288
H	-0.9125895624	-4.8251881524	 1.6169390866	 0.153219
31.5599	95.523	111.1465	190.5455	268.2678	301.9821	311.906	428.139	530.5082	658.9179	707.3526	844.3999	900.2938	930.1245	950.1425	1003.6699	1018.3879	1033.9333	1130.6296	1160.3855	1182.4783	1207.6673	1275.3718	1313.1607	1324.6666	1397.2799	1426.8529	1471.1843	1480.9343	1486.4762	1511.0321	1535.2564	1566.8072	2995.6458	3014.9705	3063.2669	3112.6528	3126.3305	3177.0528
COCC1=NC=NN=N1	COCc1ncnnn1	
InChI=1S/C4H6N4O/c1-9-2-4-5-3-6-8-7-4/h3H,2H2,1H3	InChI=1S/C4H6N4O/c1-9-2-4-5-3-6-8-7-4/h3H,2H2,1H3
