23
gdb 102530	1.81177	1.16374	0.84434	2.1404	82.93	-0.2691	-0.0352	0.234	1495.5162	0.202523	-425.445298	-425.43413	-425.433186	-425.4825	39.723	
C	-0.2034706363	 2.0259656552	 0.0727445554	-0.394753
C	-0.071704975	 0.5002056987	 0.1161327053	-0.18661
C	-1.4063627292	-0.2609137324	-0.0282224627	 0.010994
C	-1.9917382194	-0.1442924274	-1.4500825619	-0.183554
C	-3.4404073024	-0.6218241964	-1.5922455535	-0.396123
C	-1.2290766402	-1.7488954369	 0.3640001421	 0.041838
O	-0.2760395024	-2.3881297022	-0.4442078719	-0.436475
C	-0.8643591651	-1.8991170812	 1.8240475384	 0.135974
O	 0.1137810429	-2.5107448789	 2.183027354	-0.269465
H	 0.7697278088	 2.5014739839	 0.2291734492	 0.116431
H	-0.5882044277	 2.3827894725	-0.8872240464	 0.121841
H	-0.8787873868	 2.3890835836	 0.8560410146	 0.111655
H	 0.6131109651	 0.1565522516	-0.6663853445	 0.116126
H	 0.401813174	 0.2219345255	 1.0666170089	 0.098112
H	-2.1328858906	 0.1694173532	 0.6794364285	 0.064319
H	-1.9397023786	 0.9034207129	-1.7644999916	 0.09617
H	-1.3443143634	-0.7057743799	-2.1333997581	 0.122233
H	-3.548284678	-1.6904409825	-1.3806462857	 0.122377
H	-4.1082292824	-0.0780607133	-0.914144532	 0.111437
H	-3.8018715114	-0.4593036347	-2.6123271096	 0.116912
H	-2.2106031061	-2.2489709256	 0.2628111728	 0.090206
H	 0.3624198223	-2.7853973484	 0.1688659709	 0.294365
H	-1.5553081081	-1.4252437571	 2.5520808677	 0.095991
39.2952	70.1159	91.5886	106.0686	181.8262	213.4075	221.3063	254.9095	266.4414	308.9271	326.395	426.4562	447.6705	453.5071	629.2213	707.0839	764.5863	792.2462	840.5578	864.9928	915.1898	976.9165	1004.9489	1029.3043	1040.3229	1055.157	1077.57	1134.4455	1179.6107	1189.0231	1255.9124	1273.9142	1279.3614	1321.593	1339.9661	1350.7699	1381.6009	1386.5749	1407.3616	1414.324	1417.2213	1433.6563	1484.7373	1491.2116	1499.7237	1502.7268	1506.7799	1509.911	1808.6105	2917.4375	2939.3758	2982.3085	3023.4912	3031.6898	3033.2247	3041.6317	3069.9802	3075.0317	3099.3847	3100.1832	3104.7988	3111.0253	3692.7046
CCC(CC)C(O)C=O	CCC(CC)[C@@H](O)C=O	
InChI=1S/C7H14O2/c1-3-6(4-2)7(9)5-8/h5-7,9H,3-4H2,1-2H3	InChI=1S/C7H14O2/c1-3-6(4-2)7(9)5-8/h5-7,9H,3-4H2,1-2H3/t7-/m0/s1
