22
gdb 64281	2.87126	1.37883	1.23918	2.3527	81.2	-0.2155	0.0595	0.275	1134.2065	0.194976	-404.334118	-404.325415	-404.32447	-404.366825	35.091	
C	-0.0164673241	 1.5561421526	 0.0249891043	-0.431032
C	-0.0030657726	 0.0251709499	-0.0194135996	 0.369376
O	-1.3466913818	-0.4705367731	 0.0622024478	-0.462848
C	 0.6761160406	-0.4979242516	-1.2968891985	-0.261511
C	 0.6067445209	-2.0314313615	-1.3670139818	-0.139373
N	 1.0396164694	-2.7502898117	-0.1701396377	-0.083884
C	 2.3328609173	-2.442712609	 0.4232553516	-0.248123
C	 1.069976875	-2.0334610288	 1.1079719189	-0.003955
C	 0.7148791357	-0.5483660398	 1.2143982422	-0.238353
H	 0.9960404172	 1.9691748872	-0.0268837118	 0.112704
H	-0.5830974575	 1.9600626805	-0.822787528	 0.100772
H	-0.4890355598	 1.9070418548	 0.9474489984	 0.12166
H	-1.8278622988	-0.1469590496	-0.7073207028	 0.274035
H	 0.1821918349	-0.0759810051	-2.1825985517	 0.083392
H	 1.7133261388	-0.1424075	-1.3277354811	 0.097448
H	-0.4343688331	-2.3207366478	-1.5420538404	 0.107645
H	 1.1944412465	-2.4018129278	-2.214316485	 0.096965
H	 2.9063882499	-3.3020109777	 0.7631317827	 0.107739
H	 2.9373690053	-1.6426484402	-0.0034186002	 0.09789
H	 0.7252285847	-2.6409389393	 1.9415847341	 0.08856
H	 1.6215056961	 0.0398807705	 1.3933852597	 0.098373
H	 0.0594810953	-0.3934300324	 2.0759888291	 0.112521
82.0579	203.0236	240.8727	271.2484	289.8777	303.1423	334.6534	393.4137	401.9226	451.3553	493.386	550.5065	640.4598	729.4909	733.5754	813.4601	871.3837	900.3791	921.6617	936.7554	948.8359	975.704	1024.7737	1054.9291	1067.3065	1111.1362	1117.5858	1128.9108	1155.8358	1168.1243	1185.368	1206.9559	1282.0784	1299.8817	1323.8717	1345.668	1371.0993	1380.8241	1392.6657	1407.0107	1412.2363	1473.6567	1480.7081	1484.2657	1491.6574	1495.2558	1514.9038	3014.2802	3024.692	3039.4141	3043.3069	3053.6391	3081.4259	3082.6442	3089.1149	3092.4287	3111.6313	3124.7414	3164.0771	3799.4309
CC1(O)CCN2CC2C1	C[C@@]1(O)CCN2C[C@H]2C1	
InChI=1S/C7H13NO/c1-7(9)2-3-8-5-6(8)4-7/h6,9H,2-5H2,1H3	InChI=1S/C7H13NO/c1-7(9)2-3-8-5-6(8)4-7/h6,9H,2-5H2,1H3/t6-,7-,8?/m1/s1
