18
gdb 37445	2.6086	2.00214	1.97026	1.2587	69.37	-0.2313	0.0893	0.3206	843.1953	0.151713	-439.052861	-439.046594	-439.04565	-439.083103	26.569	
C	 0.0548975375	 1.4883365771	-0.1612123933	-0.268879
C	 1.3018819357	 0.7032334589	-0.0003088725	-0.045304
C	 1.9736282471	 0.621480091	 1.3651362764	 0.194285
O	 1.1794819541	 1.2266621771	 2.3647841214	-0.269004
C	-0.0761334813	 0.5475723126	 2.5120909019	-0.08972
C	-0.2008744122	-0.5072148957	 1.4094220873	-0.050255
C	 0.9633853328	-1.490298461	 1.6012821416	-0.056533
O	 2.1941641836	-0.747736942	 1.6571100479	-0.273583
N	-0.0154468313	 0.0332244278	 0.0442426077	-0.103862
H	-0.2207905849	 2.1742771908	 0.6315701185	 0.133934
H	-0.2505660566	 1.7948919348	-1.157154052	 0.119929
H	 1.9345105491	 0.4658827241	-0.8529373332	 0.099481
H	 2.948830376	 1.1086808186	 1.4036656652	 0.09459
H	-0.1185930607	 0.0689231099	 3.5002197282	 0.105898
H	-0.8845694522	 1.286328532	 2.4638701516	 0.107055
H	-1.1641284169	-1.0216447944	 1.4719102183	 0.085035
H	 0.858447011	-2.0437370758	 2.5415800734	 0.105652
H	 1.0001970691	-2.2034780758	 0.7691092116	 0.111282
205.6158	310.0273	346.2089	361.0782	430.9784	538.6289	583.9608	594.9631	692.7695	728.3965	822.5806	846.3313	888.3766	896.3284	925.6117	946.894	964.2595	1013.4375	1039.1233	1064.9715	1094.2528	1100.8267	1110.9534	1127.3637	1154.2875	1167.1606	1222.898	1236.9302	1281.0727	1319.5568	1328.846	1340.7689	1352.9019	1386.6152	1405.2831	1411.2071	1499.3046	1513.2392	1533.0656	3007.0951	3023.689	3049.2793	3067.2926	3070.8776	3111.2053	3126.6309	3132.7474	3218.4278
C1C2C3OCC(CO3)N12	C1[C@H]2[C@H]3OC[C@H](CO3)N12	
InChI=1S/C6H9NO2/c1-5-6-8-2-4(3-9-6)7(1)5/h4-6H,1-3H2	InChI=1S/C6H9NO2/c1-5-6-8-2-4(3-9-6)7(1)5/h4-6H,1-3H2/t4-,5-,6+,7?/m0/s1
