15
gdb 69125	2.96209	1.47713	1.12903	4.9236	66.43	-0.2408	-0.0921	0.1486	1059.9779	0.110777	-457.781906	-457.773973	-457.773029	-457.814503	29.518	
C	-0.0119987731	 1.5191899401	-0.0221782182	-0.482589
C	-0.0705835197	 0.0223810384	 0.0992749894	 0.390687
C	-1.2506546146	-0.763420776	-0.4552008451	-0.395947
C	-1.1530553864	-2.1360589908	 0.2130576647	 0.307052
O	-1.7709386425	-3.1264549157	-0.0566486543	-0.269234
C	-0.1426265414	-2.0226169393	 1.4026725555	 0.337469
O	-0.0428971732	-2.8097743913	 2.3029530717	-0.285579
C	 0.5796514648	-0.7247894197	 1.2065441615	-0.156498
O	 1.1485486033	-0.6920937866	-0.1219279714	-0.277138
H	 0.910510926	 1.9044704158	 0.4187117906	 0.141383
H	-0.040380412	 1.816829024	-1.0757320022	 0.140311
H	-0.8654912163	 1.9821964165	 0.4827979504	 0.134358
H	-2.2104125977	-0.3043220882	-0.1874368777	 0.141694
H	-1.2152672996	-0.849840624	-1.544993516	 0.150599
H	 1.1569414622	-0.2595374032	 1.9989682711	 0.123434
81.7626	131.9829	204.2611	268.8235	309.5734	351.3557	377.8409	433.694	520.2491	536.7649	638.0003	693.7517	705.3455	758.5665	829.31	907.0924	949.9481	1006.41	1045.9435	1057.4026	1097.8037	1174.6516	1187.5144	1214.5735	1264.9246	1309.8853	1403.1518	1424.6417	1447.2976	1482.9737	1493.7824	1849.6938	1867.6917	3039.9922	3045.1867	3100.6498	3107.0303	3129.2006	3176.7671
CC12CC(=O)C(=O)C1O2	C[C@]12CC(=O)C(=O)[C@H]1O2	
InChI=1S/C6H6O3/c1-6-2-3(7)4(8)5(6)9-6/h5H,2H2,1H3	InChI=1S/C6H6O3/c1-6-2-3(7)4(8)5(6)9-6/h5H,2H2,1H3/t5-,6+/m1/s1
