23
gdb 104405	1.99792	1.49104	1.23927	2.114	80.79	-0.2427	0.0686	0.3112	1197.7289	0.204769	-425.439031	-425.42883	-425.427886	-425.473904	38.123	
C	-0.2191805761	 1.4967860703	-0.4082986974	-0.397106
C	-0.2289445911	-0.0197405014	-0.1929774637	-0.196513
C	-1.5935070364	-0.5768978606	 0.2714702505	 0.369527
C	-2.0056729336	-0.0393851244	 1.6379534126	-0.444983
O	-2.6318765416	-0.2310705627	-0.6543431554	-0.295371
C	-2.6248321828	-1.1512266585	-1.7465297478	-0.077036
C	-1.9170045073	-2.4327557458	-1.2539631002	-0.290748
C	-1.6159946099	-2.1239720969	 0.2273357207	 0.094028
O	-0.3972544812	-2.6543974116	 0.7163330135	-0.435781
H	 0.720254604	 1.8128996672	-0.8720330401	 0.105677
H	-1.0429863689	 1.7988493499	-1.061124071	 0.127998
H	-0.3186101776	 2.0465770767	 0.5324912053	 0.114242
H	 0.0517752534	-0.514468575	-1.1301684247	 0.089081
H	 0.5322337102	-0.3141294815	 0.5357739336	 0.111234
H	-2.044150986	 1.0521520129	 1.6451970092	 0.122487
H	-2.9991639921	-0.4128653509	 1.9018389904	 0.113987
H	-1.2919260792	-0.3691060596	 2.398980785	 0.123353
H	-3.6671035893	-1.3232528336	-2.0330900508	 0.104492
H	-2.108018546	-0.7186100278	-2.6142831361	 0.096246
H	-2.5372318841	-3.3245919042	-1.3753416962	 0.098873
H	-0.9749989639	-2.6063547513	-1.7814335879	 0.112637
H	-2.4557660028	-2.4623789239	 0.8519261198	 0.066782
H	-0.4791540675	-3.611599997	 0.7569717806	 0.286893
73.641	99.5117	131.5802	189.8624	204.9991	217.6824	249.2842	284.5013	316.7193	349.5212	406.5417	506.5516	541.6158	590.881	680.1455	721.4282	785.8832	837.2989	878.1499	909.6534	966.2417	1000.0402	1004.4696	1023.197	1060.8438	1074.3558	1090.6612	1131.8271	1164.4778	1186.4423	1206.4625	1239.3826	1246.534	1278.4756	1285.5202	1321.5773	1359.6614	1375.085	1392.1696	1408.4072	1408.7132	1434.6163	1476.8051	1490.1118	1493.3943	1500.0162	1507.4391	1513.1304	1531.8156	2987.7237	3002.8578	3039.622	3040.6479	3046.8102	3060.4712	3065.1817	3084.3088	3104.2897	3108.0359	3117.0044	3119.8267	3129.1628	3829.9228
CCC1(C)OCCC1O	CC[C@@]1(C)OCC[C@H]1O	
InChI=1S/C7H14O2/c1-3-7(2)6(8)4-5-9-7/h6,8H,3-5H2,1-2H3	InChI=1S/C7H14O2/c1-3-7(2)6(8)4-5-9-7/h6,8H,3-5H2,1-2H3/t6-,7-/m1/s1
