18
gdb 75035	2.27737	1.67247	1.03764	3.1834	83.88	-0.2099	-0.0203	0.1896	1154.5715	0.149273	-402.011195	-402.003034	-402.00209	-402.043782	31.466	
C	-0.1209088561	 1.5361827165	 0.0355395741	-0.478832
C	 0.0446029848	 0.0427395744	-0.0672099312	 0.325604
C	 0.0090314598	-0.6047725762	-1.2553568709	-0.167341
C	 0.0649419056	-2.0370846889	-1.4507747517	-0.058018
C	 0.7335075461	-2.8913270388	-0.6606964138	-0.114636
C	 1.6243949751	-2.4206585066	 0.4575446485	-0.360294
C	 0.8144284544	-1.7503805929	 1.5578630905	 0.381217
O	 0.7419375737	-2.1495486726	 2.7000419093	-0.354241
N	 0.1587182624	-0.5868164407	 1.1738397121	-0.367528
H	 0.7640665982	 2.0031284887	 0.4836793195	 0.138085
H	-0.2882726531	 1.9802836122	-0.9467251909	 0.137288
H	-0.977464645	 1.7947678806	 0.6717117867	 0.131569
H	-0.1473600199	 0.0136534656	-2.1337121461	 0.088722
H	-0.4841393223	-2.4285651586	-2.3043715068	 0.093523
H	 0.653343765	-3.9611313914	-0.8247412685	 0.100941
H	 2.1725409942	-3.2418348524	 0.9186374458	 0.128467
H	 2.3452666092	-1.6861066963	 0.0724826517	 0.126018
H	-0.2200702322	-0.0910522326	 1.9699185115	 0.249457
117.0236	142.1101	167.249	231.1096	305.2743	356.3284	389.6727	457.3269	519.2919	554.6134	601.9405	613.398	686.0703	743.0691	775.8159	851.6841	895.4482	943.9558	968.8341	987.3812	996.389	1044.5556	1066.8855	1101.1582	1162.2772	1211.2628	1244.9952	1307.9907	1312.1819	1378.3365	1415.43	1426.9103	1464.7151	1471.5072	1479.896	1502.281	1660.0116	1697.0359	1799.0598	3013.5045	3021.0959	3071.0431	3136.2428	3136.971	3146.9225	3174.2064	3184.7424	3588.0175
CC1=CC=CCC(=O)N1	CC1=CC=CCC(=O)N1	
InChI=1S/C7H9NO/c1-6-4-2-3-5-7(9)8-6/h2-4H,5H2,1H3,(H,8,9)	InChI=1S/C7H9NO/c1-6-4-2-3-5-7(9)8-6/h2-4H,5H2,1H3,(H,8,9)
