22
gdb 113926	2.54215	1.14821	0.98693	1.945	79.14	-0.2191	0.0589	0.278	1325.2327	0.193321	-441.440626	-441.430724	-441.42978	-441.475032	37.611	
C	 0.4057482243	 1.2788852563	 0.0252628193	-0.386207
C	-0.2237652307	-0.069695458	 0.38695135	 0.13538
O	-0.8777807379	 0.0182322702	 1.6506223483	-0.44803
C	-1.159221766	-0.5527849033	-0.7289285248	-0.1728
N	-1.5440566125	-1.9712006987	-0.6952004044	-0.098416
C	-1.7041521471	-2.7103521509	 0.5560337521	-0.271043
C	-2.8852977917	-2.3835378648	-0.2933642929	-0.003549
C	-3.961927888	-1.4088353941	 0.1557221208	-0.12577
O	-3.6386992986	-0.5965081009	 1.2823161467	-0.40273
H	 1.0087764177	 1.637456557	 0.8631958881	 0.123007
H	 1.0476569079	 1.1984736688	-0.8583938939	 0.108496
H	-0.3683545838	 2.027860036	-0.1782084514	 0.110218
H	 0.5772100028	-0.811918131	 0.5099887064	 0.085386
H	-1.8201320923	 0.1713775773	 1.4900912856	 0.287664
H	-2.0407886984	 0.105755138	-0.7436485612	 0.096836
H	-0.650233435	-0.3921772081	-1.6869405665	 0.105035
H	-1.2968752284	-3.7192768348	 0.5506311233	 0.110287
H	-1.5700661271	-2.1676900051	 1.4865153384	 0.128978
H	-3.3023224172	-3.1695498036	-0.9251971074	 0.088232
H	-4.1926012391	-0.7036433381	-0.6515471667	 0.126718
H	-4.8815657819	-1.9789063495	 0.3498315483	 0.10701
H	-3.545304757	-1.178388853	 2.0444847321	 0.295298
88.8519	116.4564	146.944	193.1776	224.8676	237.6991	274.5751	336.0648	358.9463	365.0479	431.6084	469.624	510.0014	564.0035	647.1079	741.7349	795.1455	844.8563	907.8469	920.2631	952.0283	965.1172	1008.1639	1059.8932	1075.4403	1097.1083	1126.3856	1134.6348	1147.2921	1163.9392	1181.0867	1232.0962	1246.7287	1321.7207	1351.2042	1369.9676	1379.1686	1399.9892	1402.5303	1405.5522	1422.6211	1452.0446	1487.8567	1494.433	1495.6477	1507.9894	1519.3748	2991.6522	3005.2692	3015.5353	3030.4817	3042.1951	3060.6315	3087.9428	3098.9085	3102.5006	3121.225	3197.1228	3717.2124	3812.5353
CC(O)CN1CC1CO	C[C@@H](O)CN1C[C@H]1CO	
InChI=1S/C6H13NO2/c1-5(9)2-7-3-6(7)4-8/h5-6,8-9H,2-4H2,1H3	InChI=1S/C6H13NO2/c1-5(9)2-7-3-6(7)4-8/h5-6,8-9H,2-4H2,1H3/t5-,6+,7?/m1/s1
