16
gdb 124081	4.67788	1.0525	0.98175	1.355	69.91	-0.2576	-0.0139	0.2437	1191.1213	0.125757	-437.85272	-437.845347	-437.844403	-437.885843	26.761	
C	-0.0393328346	 1.3759172867	-0.3180494712	-0.082609
O	 1.1129886715	 1.6912411418	 0.4879854535	-0.273889
C	 1.4194740575	 0.2940947281	 0.6641010331	-0.082608
C	 0.071891239	-0.1338956071	 0.0239876229	-0.155652
C	-0.95176902	-0.6507205168	 0.9751842035	 0.393578
N	-1.5990231233	-1.7627010979	 0.7118383788	-0.214545
O	-2.467107175	-1.9616444908	 1.7820674915	-0.163408
C	-2.3115577363	-0.9578614076	 2.6565718689	 0.083316
C	-1.3708047707	-0.0861191435	 2.2194039731	-0.336703
H	-0.9425097313	 1.8891030105	 0.0291292148	 0.111779
H	 0.124361994	 1.6063220544	-1.3785684126	 0.106792
H	 2.3031803821	-0.0094477173	 0.0883336483	 0.106792
H	 1.5646168858	 0.0298667672	 1.7170671035	 0.11178
H	 0.1461470453	-0.808116281	-0.8289464813	 0.105499
H	-2.9353032756	-1.0003580019	 3.5361994089	 0.153431
H	-1.0200519685	 0.8161408951	 2.6921637343	 0.136449
61.833	62.8926	158.659	218.6666	375.5341	406.9938	615.8218	635.7545	735.6692	809.6575	834.139	866.6671	878.717	906.5356	925.3711	955.5319	989.1287	1028.7687	1028.8457	1040.5221	1084.4022	1099.0044	1158.3213	1161.7022	1170.6764	1233.5305	1294.4963	1307.8189	1345.2701	1374.9854	1449.4574	1489.341	1509.1431	1536.5373	1611.3341	3011.0596	3021.1488	3070.6437	3070.9565	3119.5911	3260.9109	3285.1055
C1OCC1C1=NOC=C1	C1OCC1c1nocc1	
InChI=1S/C6H7NO2/c1-2-9-7-6(1)5-3-8-4-5/h1-2,5H,3-4H2	InChI=1S/C6H7NO2/c1-2-9-7-6(1)5-3-8-4-5/h1-2,5H,3-4H2
