19
gdb 102943	3.0093	0.74195	0.61914	3.1997	80.04	-0.2492	-0.0203	0.2289	1756.9371	0.154804	-422.98797	-422.977316	-422.976372	-423.025004	36.585	
C	 0.133309768	 1.3574437456	-0.1329972024	-0.239836
O	-0.1464135172	 0.0046017141	 0.168349845	-0.23278
C	 0.6701771093	-0.5427081275	 1.1901836341	-0.074606
C	 0.0784867793	-1.9122481192	 1.5581935618	-0.215081
C	-1.3601841687	-1.8004843312	 2.0861156481	-0.281033
C	-2.0039330243	-3.1560435954	 2.2558171751	 0.15452
O	-2.5107891839	-3.5605772236	 3.2700388477	-0.23866
C	 2.0731965355	-0.6668170473	 0.7719179951	 0.334773
C	 3.2186505222	-0.7787874078	 0.4251238497	-0.447675
H	 1.156636285	 1.4855860863	-0.5094047509	 0.124082
H	-0.5751455137	 1.6625200256	-0.9060168198	 0.131632
H	 0.0001135684	 2.001711124	 0.7495986157	 0.107415
H	 0.6310170026	 0.1129719809	 2.0781134517	 0.095254
H	 0.1074850324	-2.5416018784	 0.6616508219	 0.124158
H	 0.7272447364	-2.3807703371	 2.3047686021	 0.124602
H	-1.4026922425	-1.2703369268	 3.0423682724	 0.117612
H	-1.9502464005	-1.2381843439	 1.3508400588	 0.141361
H	-1.9805005596	-3.7889752358	 1.3366686462	 0.071978
H	 4.2321208413	-0.8751205525	 0.1216110377	 0.202282
53.0273	62.2265	92.4529	109.56	131.6846	173.5307	224.0902	264.377	298.7498	314.0972	439.8949	512.6595	573.5984	582.0694	633.1911	677.3868	755.8826	825.8805	907.0127	977.6156	1010.5027	1046.5475	1095.0734	1121.0326	1147.2647	1184.4453	1190.0998	1237.6967	1251.2396	1314.0559	1332.2712	1366.2511	1386.6402	1431.6619	1464.3804	1478.5245	1483.4473	1485.3377	1510.6191	1836.3983	2231.1625	2849.0915	2946.7922	2986.6614	3034.1239	3049.4328	3050.1909	3088.5663	3107.1948	3124.7777	3500.6649
COC(CCC=O)C#C	CO[C@@H](CCC=O)C#C	
InChI=1S/C7H10O2/c1-3-7(9-2)5-4-6-8/h1,6-7H,4-5H2,2H3	InChI=1S/C7H10O2/c1-3-7(9-2)5-4-6-8/h1,6-7H,4-5H2,2H3/t7-/m1/s1
