15
gdb 42308	2.69281	1.36867	1.14877	4.9329	71.86	-0.2409	-0.0803	0.1607	1085.2548	0.112854	-416.819718	-416.811425	-416.810481	-416.853883	29.276	
O	 1.1662377013	 2.6344275582	 1.3031471528	-0.273243
C	 0.2554508912	 2.0956481794	 0.7311164811	 0.31079
C	 0.5033689339	 0.9197827843	-0.1384431108	 0.238244
N	 0.7506569475	-0.0187505473	-0.7670868983	-0.315138
C	-1.2139532274	 2.5194638269	 0.8240197663	-0.12943
N	-1.8470420941	 2.4297059767	-0.487930396	-0.316531
C	-3.0803344203	 1.6273169023	-0.4126865352	-0.202604
C	-3.0314560475	 1.0568684801	 0.9771642955	-0.055582
C	-2.0081074952	 1.5467182599	 1.6697453185	-0.082712
H	-1.2022317736	 3.5291990929	 1.2606463241	 0.106293
H	-1.9723912971	 3.3282429754	-0.9290422639	 0.237
H	-3.9900798259	 2.2291824696	-0.5658556287	 0.109225
H	-3.0883669121	 0.8402064668	-1.1792736196	 0.130201
H	-3.7611262797	 0.3449263746	 1.3422364876	 0.119009
H	-1.737505831	 1.3138941201	 2.6912800267	 0.124478
34.8164	74.8024	159.1338	171.3988	274.8437	297.9249	405.0599	421.1224	544.1892	647.168	701.4348	721.2587	795.4385	808.0597	840.5505	934.5985	951.9703	965.9014	1012.5281	1046.1369	1118.6037	1131.5079	1174.7638	1203.9938	1255.6185	1305.2378	1336.3143	1374.1525	1446.8754	1516.3257	1683.019	1801.165	2336.3614	2978.9786	2996.0365	3017.1852	3210.3958	3234.83	3607.4095
O=C(C#N)C1NCC=C1	O=C(C#N)[C@H]1NCC=C1	
InChI=1S/C6H6N2O/c7-4-6(9)5-2-1-3-8-5/h1-2,5,8H,3H2	InChI=1S/C6H6N2O/c7-4-6(9)5-2-1-3-8-5/h1-2,5,8H,3H2/t5-/m0/s1
