15
gdb 28175	5.22625	1.26709	1.02411	1.7137	74.38	-0.1771	0.0362	0.2133	1095.3086	0.115455	-416.835596	-416.828236	-416.827292	-416.867239	28.568	
N	 0.1739297867	 1.3767711554	-0.0810288856	-0.606633
C	-0.0171867819	-0.0187805626	-0.0282465864	 0.304362
C	-1.1316943747	-0.8146557897	-0.1737318381	-0.418317
C	-0.674178104	-2.1766329549	-0.1279207523	 0.266974
C	 0.6867007607	-2.1099334569	 0.0450355507	 0.399826
N	 1.1199477942	-0.8213146041	 0.1353319863	-0.43102
O	 1.2925217977	-3.3025412016	 0.1690621116	-0.221074
C	 0.2458625439	-4.2122831752	 0.0529851336	-0.026466
C	-0.9523679941	-3.5902024226	-0.1220042541	-0.350723
H	-0.5903039034	 1.8235409549	-0.572362164	 0.247976
H	 0.2360506413	 1.7967398104	 0.8427000976	 0.244171
H	-2.1425974325	-0.4509880413	-0.2762068018	 0.088295
H	 2.0596082825	-0.47555719	 0.045757552	 0.266458
H	 0.5442802447	-5.2452692721	 0.103146599	 0.128805
H	-1.9015077512	-4.0918518597	-0.2321352384	 0.107366
115.6134	147.1167	248.1588	311.9154	337.2634	400.2161	512.4387	566.457	584.5716	628.6457	667.5869	731.3399	753.7482	762.9124	807.4848	813.132	831.7539	916.1462	997.3895	1023.4849	1126.1666	1156.6519	1157.9714	1200.6921	1241.1769	1310.6561	1393.1275	1462.2008	1522.206	1553.3719	1587.8341	1607.9491	1653.9128	3245.2607	3249.3924	3293.3164	3483.2987	3595.7171	3680.6595
NC1=CC2=C(N1)OC=C2	Nc1cc2c([nH]1)occ2	
InChI=1S/C6H6N2O/c7-5-3-4-1-2-9-6(4)8-5/h1-3,8H,7H2	InChI=1S/C6H6N2O/c7-5-3-4-1-2-9-6(4)8-5/h1-3,8H,7H2
