21
gdb 116146	3.4626	1.01681	0.82872	1.8946	75.28	-0.2602	0.0879	0.3481	1408.8567	0.183195	-461.370803	-461.361807	-461.360863	-461.404402	34.283	
C	 0.0049967716	 1.5062122737	 0.1488163066	-0.402676
C	 0.0345680364	-0.0048408466	-0.0042673755	 0.123929
C	 0.7101418716	-0.4808230575	-1.2987818968	-0.214379
C	 0.8718346467	-2.0024103965	-1.2687675087	 0.086091
C	 1.7309606565	-2.5671611685	-2.3922959387	-0.06995
O	 1.8610473993	-3.9693024475	-2.2891743006	-0.425072
O	 1.5168251768	-2.3947792321	-0.0521286397	-0.266335
C	 0.820667248	-1.9299868744	 1.0761639634	 0.014202
O	 0.7395120293	-0.5346023409	 1.1214172382	-0.246214
H	 1.0218838503	 1.910135074	 0.1412741539	 0.127534
H	-0.5579648171	 1.9635591649	-0.6704446698	 0.116024
H	-0.4674102904	 1.7837030404	 1.0949029878	 0.126615
H	-0.9977516144	-0.3981040828	 0.0166736932	 0.065794
H	 0.1156714044	-0.1792641063	-2.1686648168	 0.100691
H	 1.6975411204	-0.0110870577	-1.3794186103	 0.10819
H	-0.1210444964	-2.4830970585	-1.3075521611	 0.072329
H	 1.2619850036	-2.3545604059	-3.3588263715	 0.106583
H	 2.7123478418	-2.0657566511	-2.3738377569	 0.091549
H	 2.1245269076	-4.1405829912	-1.3770988278	 0.290595
H	-0.1955690558	-2.3694899194	 1.0904719144	 0.076754
H	 1.3835229297	-2.250340486	 1.9553170066	 0.117746
96.1724	135.7696	164.3168	212.3398	227.3234	292.8061	333.8566	373.2303	441.307	452.744	486.6557	496.0607	553.894	699.5636	821.1091	831.3984	913.3122	918.4555	987.0026	1045.0901	1057.7625	1081.4779	1086.8413	1094.4352	1133.0517	1150.3156	1175.9102	1204.0486	1239.8487	1256.2289	1273.1356	1312.514	1356.2013	1378.3054	1385.3888	1398.5099	1399.7702	1414.7519	1440.8372	1451.8398	1467.5062	1483.3581	1498.4492	1499.8114	1507.4661	2917.3495	2942.5001	2959.4271	2978.9986	3034.3775	3043.5759	3075.2772	3086.3336	3111.0216	3117.5631	3122.3751	3794.1234
CC1CC(CO)OCO1	C[C@H]1C[C@@H](CO)OCO1	
InChI=1S/C6H12O3/c1-5-2-6(3-7)9-4-8-5/h5-7H,2-4H2,1H3	InChI=1S/C6H12O3/c1-5-2-6(3-7)9-4-8-5/h5-7H,2-4H2,1H3/t5-,6-/m0/s1
