16
gdb 8448	4.05357	1.9466	1.66427	4.4569	64.52	-0.2605	0.0159	0.2765	815.1509	0.131602	-383.768635	-383.762068	-383.761124	-383.799026	26.12	
C	-0.1032935537	 1.4977227864	 0.0074876929	-0.49114
C	 0.0845291037	 0.0098996891	 0.0355534232	 0.433763
C	 1.0071855303	-0.80464925	-0.9084444531	-0.268594
C	 0.6598859099	-1.9329677979	 0.1218134691	-0.191953
C	 0.68876963	-0.8049205807	 1.2089437826	-0.268578
C	-0.8448527417	-2.000066681	-0.1045809666	 0.457664
O	-1.6054771549	-2.9124722074	-0.2186866157	-0.35224
O	-1.2047388476	-0.674792109	-0.1583647512	-0.281033
H	 0.8569982884	 2.0008153061	 0.1523240045	 0.12431
H	-0.5217669627	 1.8155374855	-0.9520086725	 0.138379
H	-0.7860274795	 1.8152327927	 0.8010995701	 0.13839
H	 0.6822813907	-0.9281306468	-1.9438292518	 0.119056
H	 2.0536856906	-0.4976217554	-0.8572192946	 0.111667
H	 1.1903285783	-2.877096977	 0.2014703527	 0.099574
H	 1.7040349871	-0.497902821	 1.4678440104	 0.111669
H	 0.0737312212	-0.9286584435	 2.1029509699	 0.119065
177.4485	213.7464	273.7487	294.4317	484.8925	488.3955	511.9967	586.7952	672.0648	760.9977	791.4209	848.4064	861.5619	890.5399	909.2267	948.6232	987.7336	1024.8546	1048.9722	1054.527	1116.4074	1120.5003	1196.0925	1211.1953	1239.1758	1246.9949	1288.5645	1339.8232	1421.6763	1479.966	1482.0422	1491.4934	1516.5681	1912.367	3044.5235	3068.4202	3074.0904	3118.4021	3121.3433	3135.704	3140.1508	3170.8739
CC12CC(C1)C(=O)O2	C[C@@]12C[C@@H](C1)C(=O)O2	
InChI=1S/C6H8O2/c1-6-2-4(3-6)5(7)8-6/h4H,2-3H2,1H3	InChI=1S/C6H8O2/c1-6-2-4(3-6)5(7)8-6/h4H,2-3H2,1H3/t4-,6+
