14
gdb 25310	2.32545	1.57264	0.93818	2.5853	83.76	-0.2298	-0.0588	0.171	1156.7236	0.101486	-399.577985	-399.570234	-399.56929	-399.610373	29.046	
O	 0.0742156982	-0.0969081112	-0.001744239	-0.31711
C	 0.0067689565	 1.120025108	 0.0094982627	 0.050957
C	 1.1748685658	 1.9723673381	 0.0031286881	 0.114966
C	 1.3276578096	 3.3654389937	 0.0133059888	 0.117807
C	 2.7255081865	 3.6246442912	-0.0009332404	-0.276942
C	 3.3712584988	 2.4034900964	-0.0188984147	-0.049233
N	 2.4307010295	 1.4238293784	-0.0162531211	-0.275655
C	 0.2837602646	 4.3173306093	 0.0337018079	 0.235156
C	-0.5960364802	 5.1401661738	 0.0509990379	-0.430381
H	-0.9618253525	 1.6556957715	 0.025414076	 0.094
H	 3.1916811272	 4.5967154642	 0.0018822055	 0.117764
H	 4.4242351231	 2.1707207931	-0.0332250687	 0.141479
H	 2.5719777004	 0.4257205689	-0.0264360078	 0.283846
H	-1.3745319176	 5.8620286446	 0.0661266147	 0.193346
119.0032	151.6778	165.578	215.4279	297.4444	434.4035	465.5343	560.9728	571.8394	597.5624	610.5978	655.3053	668.024	712.5003	771.8882	809.3933	855.481	919.9851	1030.8522	1069.2044	1100.3037	1173.0349	1267.9662	1323.2052	1384.519	1452.1562	1458.9967	1510.263	1576.2387	1749.5796	2229.5243	2950.4042	3258.5157	3276.2905	3502.0334	3651.5366
O=CC1=C(C=CN1)C#C	O=Cc1c(cc[nH]1)C#C	
InChI=1S/C7H5NO/c1-2-6-3-4-8-7(6)5-9/h1,3-5,8H	InChI=1S/C7H5NO/c1-2-6-3-4-8-7(6)5-9/h1,3-5,8H
