25
gdb 118067	3.52513	0.69017	0.60769	0.0657	86.17	-0.2485	0.068	0.3166	1954.1823	0.225822	-426.636155	-426.624241	-426.623297	-426.673622	42.934	
C	-0.0264910133	 1.5902017184	-0.0510582357	-0.381487
C	-0.0180381833	 0.059986607	-0.0116774989	-0.165989
C	 0.7055830144	-0.5032720459	 1.2155340332	-0.184765
C	 0.7856142874	-2.0319056471	 1.2305594975	 0.089705
O	 1.5052232146	-2.5352767804	 0.1050808109	-0.427278
C	 1.3755277387	-2.5803118624	 2.5488015097	 0.10691
O	 0.6549069903	-2.0795460457	 3.6743955811	-0.426937
C	 1.4566190553	-4.1093697219	 2.5631169586	-0.187011
C	 2.1673410275	-4.662984004	 3.8000315982	-0.384277
H	 0.9927469057	 1.9920035947	-0.0805393441	 0.110857
H	-0.5558926355	 1.9640395263	-0.9331232897	 0.110772
H	-0.5178187461	 2.0082116819	 0.834804131	 0.113254
H	-1.0511718943	-0.31257072	-0.0202993386	 0.091584
H	 0.4530124278	-0.3369265291	-0.9178765891	 0.104402
H	 1.7315260596	-0.1027307363	 1.2575701328	 0.076559
H	 0.2169676455	-0.1718265042	 2.1376407276	 0.112259
H	-0.2268712418	-2.4474166928	 1.1148315891	 0.072712
H	 2.3681126326	-2.1050933169	 0.0990863234	 0.278211
H	 2.3878499372	-2.1648097062	 2.66603156	 0.072545
H	-0.2092298838	-2.507328148	 3.6767255827	 0.278281
H	 0.4314784129	-4.5077292198	 2.5091899194	 0.080074
H	 1.9547928199	-4.4374107968	 1.6460990905	 0.11464
H	 1.6905889473	-4.305157015	 4.7168667693	 0.123267
H	 2.1530026457	-5.7569865586	 3.8087371553	 0.109494
H	 3.2152669657	-4.343626767	 3.8271461757	 0.112218
58.3649	81.3133	86.4424	116.6121	133.4108	209.2122	236.5778	249.8054	267.1905	288.9814	304.6117	307.1402	352.9903	411.3232	466.1878	537.2811	574.884	749.234	781.0979	854.837	871.9636	913.9049	949.4139	986.0541	1032.2717	1051.6879	1066.4359	1085.6745	1096.1968	1109.5516	1137.3538	1168.1778	1212.2486	1243.25	1261.2477	1292.3841	1315.8086	1328.541	1345.6616	1372.8262	1393.4271	1396.5058	1404.1218	1412.8243	1413.5868	1418.1281	1483.5439	1487.0052	1495.0353	1496.9728	1500.22	1509.6597	1512.2036	2982.3464	2990.355	2995.7257	3013.2098	3022.2832	3027.6788	3035.8855	3059.1149	3081.4434	3085.5498	3096.2165	3100.641	3100.8343	3118.3113	3791.0164	3792.6213
CCCC(O)C(O)CC	CCC[C@@H](O)[C@@H](O)CC	
InChI=1S/C7H16O2/c1-3-5-7(9)6(8)4-2/h6-9H,3-5H2,1-2H3	InChI=1S/C7H16O2/c1-3-5-7(9)6(8)4-2/h6-9H,3-5H2,1-2H3/t6-,7+/m0/s1
