15
gdb 15567	3.50152	1.91443	1.2737	5.0063	69.4	-0.233	-0.0457	0.1873	918.2407	0.120283	-358.861842	-358.854235	-358.853291	-358.89389	26.826	
C	-0.027765324	 1.3997758133	-0.0133757245	-0.349906
N	 0.0094758393	-0.0247335582	 0.2460300209	-0.115705
C	-1.1766418352	-0.8501251799	-0.0088851261	-0.189329
C	-0.5661390542	-2.274921385	-0.014190431	-0.17969
N	 0.8859360908	-2.0935312294	-0.2000926282	-0.308348
C	 1.0921035707	-0.8388140874	-0.0404751414	 0.296904
C	 2.4122746886	-0.2671515625	-0.1029691031	 0.269935
N	 3.457332549	 0.223391432	-0.1544666114	-0.332381
H	 0.9615034062	 1.8311939326	 0.152151822	 0.163134
H	-0.3415491605	 1.6250667977	-1.0445821422	 0.12365
H	-0.7303396918	 1.8830038953	 0.6721587535	 0.13795
H	-1.9358816457	-0.7018586923	 0.764034336	 0.1217
H	-1.6204910145	-0.5837163938	-0.9810444401	 0.107903
H	-0.7304015731	-2.7865332087	 0.9424262576	 0.127499
H	-0.9742727155	-2.9150567635	-0.8000625619	 0.126683
119.5946	150.3301	163.2141	180.8481	218.106	339.3448	431.1459	530.6849	577.8416	666.8098	711.4793	780.2753	860.8115	954.8824	1005.2015	1007.2923	1100.2292	1151.248	1160.9892	1206.1081	1247.7044	1265.882	1303.5545	1342.6839	1423.1841	1467.279	1483.7756	1490.5134	1511.7125	1534.7048	1659.9752	2364.7092	2978.8647	2986.1109	3031.2886	3078.7733	3079.6987	3096.782	3134.5411
CN1CCN=C1C#N	CN1CC[N][C]1C#N	
InChI=1S/C5H7N3/c1-8-3-2-7-5(8)4-6/h2-3H2,1H3	InChI=1S/C5H7N3/c1-8-3-2-7-5(8)4-6/h2-3H2,1H3
