17
gdb 54615	2.5848	1.47472	0.96396	14.5266	75.88	-0.1734	-0.0214	0.1521	1168.9128	0.138466	-455.127295	-455.119038	-455.118094	-455.160469	30.679	
N	 0.0169973023	 1.3702666651	-0.0281874647	-0.591684
C	 0.0227667516	 0.0008551333	-0.0973980068	 0.242937
C	-1.0699993025	-0.7858022919	-0.1376011956	 0.12151
C	-0.7198253709	-2.2067069171	-0.3855803022	-0.302083
N	 0.7906286667	-2.2124660829	-0.0369194801	-0.264602
H	 0.8804047004	-2.4263177371	 0.955560017	 0.31386
H	 1.323444999	-2.9082515041	-0.5609439365	 0.296945
C	 1.2907078891	-0.7987635684	-0.2809377243	-0.29379
C	-2.509790054	-0.3477536403	 0.1080979476	 0.310468
O	-2.6536797628	 0.8888262865	 0.2807956562	-0.491612
O	-3.3260451329	-1.2848726339	 0.1255266737	-0.477763
H	 0.7080159256	 1.7954103145	 0.5761742052	 0.229015
H	-0.9683230553	 1.6445718793	 0.1570967994	 0.284264
H	-1.2488132699	-2.9156839974	 0.2532818058	 0.171074
H	-0.7939506112	-2.5469632043	-1.4271554335	 0.145701
H	 1.6974722277	-0.7557982669	-1.2988573676	 0.160672
H	 2.0994923871	-0.5772997447	 0.4230911364	 0.145089
82.9365	118.3297	177.4961	194.3618	254.0618	319.5693	417.1017	464.4872	518.3708	527.4065	606.5495	688.6742	770.4706	783.9884	792.8162	879.4614	892.6492	913.2495	965.5343	1001.8339	1045.884	1109.5713	1161.7812	1205.8453	1230.7746	1272.1065	1299.5636	1340.0352	1346.7008	1354.4899	1424.2226	1498.0198	1506.2823	1571.0927	1621.0852	1716.9468	1744.152	3019.7505	3031.6467	3081.3154	3127.765	3153.8233	3444.1617	3523.4717	3579.7353
NC1=C(C[NH2+]C1)C([O-])=O	NC1=C(C[NH2]C1)C(=O)[O]	
InChI=1S/C5H8N2O2/c6-4-2-7-1-3(4)5(8)9/h7H,1-2,6H2,(H,8,9)	InChI=1S/C5H8N2O2/c6-4-2-7-1-3(4)5(8)9/h1-2,6-7H2
