21
gdb 65036	2.4907	1.40441	1.24534	3.0903	77.11	-0.2429	0.0673	0.3102	1135.379	0.180618	-424.187289	-424.177918	-424.176974	-424.22133	35.201	
C	 0.02410861	 1.4699914085	-0.5247938518	-0.473262
C	-0.0162461327	 0.0219541829	-0.0797661557	 0.349173
C	 1.2029673214	-0.7938054073	-0.1815904659	-0.23513
O	 0.7905745115	-0.2536973037	 1.0774572507	-0.27547
C	-1.3802250338	-0.6513792664	-0.0900704412	 0.227452
C	-1.9710266219	-0.7280841581	-1.4991100553	-0.466631
C	-1.5129304796	-1.9825549363	 0.6957293135	-0.126876
O	-2.5982745536	-1.4568968177	 1.4863674467	-0.275101
C	-2.38779295	-0.1299603438	 0.9717845798	-0.114862
H	 1.0206594765	 1.8836851036	-0.3544037959	 0.13165
H	-0.2173289531	 1.572400416	-1.5868659447	 0.126982
H	-0.6934092389	 2.0715307574	 0.0439176207	 0.129143
H	 1.1292068945	-1.8775461972	-0.2694267125	 0.11207
H	 2.1101590624	-0.3605681269	-0.6008190857	 0.11443
H	-1.3092465709	-1.2811823057	-2.1749997936	 0.117195
H	-2.9367327562	-1.2421309147	-1.4753877626	 0.130258
H	-2.1352828693	 0.266231724	-1.9260353386	 0.120263
H	-1.817147547	-2.8589570348	 0.1110176078	 0.093353
H	-0.6455816467	-2.2285514996	 1.3174710493	 0.114351
H	-1.9460907615	 0.5346232416	 1.7263225082	 0.104143
H	-3.3131926209	 0.318198408	 0.5897255069	 0.09687
70.5809	93.847	179.6368	199.9858	233.5766	262.4953	305.177	336.1666	373.1291	397.2867	471.7246	517.2345	560.7312	788.6927	845.7962	854.2183	908.8792	922.4846	927.1538	948.8794	967.7864	1014.0542	1030.7369	1041.6904	1099.4261	1133.2281	1161.7912	1168.519	1169.57	1180.637	1187.1911	1246.9876	1315.9664	1320.967	1381.1728	1392.7131	1410.1239	1418.2945	1483.7009	1493.9538	1495.5313	1498.825	1508.4079	1524.9587	1533.6475	3003.4066	3021.7202	3031.4026	3040.4338	3052.5877	3075.6231	3077.9607	3098.6412	3103.9907	3108.8223	3128.3182	3161.8406
CC1(CO1)C1(C)COC1	C[C@]1(CO1)C1(C)COC1	
InChI=1S/C7H12O2/c1-6(3-8-4-6)7(2)5-9-7/h3-5H2,1-2H3	InChI=1S/C7H12O2/c1-6(3-8-4-6)7(2)5-9-7/h3-5H2,1-2H3/t7-/m0/s1
