16
gdb 19092	3.76969	2.57203	2.45296	0.	62.07	-0.2222	0.0545	0.2767	663.2557	0.133906	-383.670805	-383.665665	-383.664721	-383.699686	22.534	
C	-0.0477911127	 1.5770896979	-0.071528969	-0.20645
C	 1.4819457172	 1.3447539822	 0.0019532658	 0.054644
O	 1.2086255647	 0.1737687987	 0.8361043746	-0.288926
C	 0.0098112156	 0.0312286202	 0.0089145179	 0.054644
C	 0.4876127374	-0.5117081206	-1.3947754925	 0.054644
C	 2.0173498709	-0.7440454124	-1.3212935832	-0.20645
C	 1.9597496526	 0.8018148953	-1.401736636	 0.054644
O	 0.7609348153	 0.659275217	-2.2289273132	-0.288926
H	-0.4197237101	 1.9988800748	 0.8623628587	 0.105055
H	-0.480680555	 2.0576251459	-0.9446234666	 0.121176
H	 2.1606662837	 2.0550578645	 0.4773738506	 0.079929
H	-0.7704208837	-0.5602284687	 0.4912361972	 0.079929
H	-0.1911073254	-1.2220115289	-1.8701975143	 0.079929
H	 2.4502388066	-1.2245792633	-0.4481980153	 0.121176
H	 2.3892804201	-1.1658391875	-2.2551845519	 0.105055
H	 2.7399823213	 1.3932731925	-1.8840559529	 0.079929
335.726	443.6226	526.4935	545.869	582.941	588.9649	764.4372	768.2862	856.8048	862.3569	866.3576	883.3799	901.9634	915.0262	927.4726	959.5804	991.2141	1047.1474	1070.5679	1096.6054	1101.2405	1119.3594	1175.1103	1198.4201	1241.5793	1244.9454	1281.7841	1293.3312	1295.6557	1302.1978	1326.0604	1345.6315	1474.5301	1477.2824	3090.1458	3094.4568	3096.5673	3104.6575	3105.6191	3114.3169	3179.572	3180.7579
C1C2OC1C1CC2O1	C1[C@H]2O[C@@H]1[C@@H]1C[C@H]2O1	
InChI=1S/C6H8O2/c1-3-5-2-6(8-5)4(1)7-3/h3-6H,1-2H2	InChI=1S/C6H8O2/c1-3-5-2-6(8-5)4(1)7-3/h3-6H,1-2H2/t3-,4+,5-,6+
