19
gdb 64295	2.62668	1.66796	1.35359	1.0882	70.02	-0.248	0.0673	0.3154	1013.7989	0.158776	-460.146567	-460.138159	-460.137215	-460.179212	32.281	
C	-0.1161886927	 1.5958103598	 0.0472536906	-0.453594
C	 0.0620210088	 0.0819210122	 0.0285068915	 0.346263
O	-1.1881131463	-0.6063948493	 0.0023809596	-0.476342
C	 0.991911417	-0.4268811294	-1.0933578724	-0.134109
O	 1.4633489199	-1.7027594952	-0.6722152945	-0.262765
C	 1.5993745838	-1.6759489471	 0.7329048216	 0.061893
C	 2.8047247181	-0.8834732174	 1.2855266055	-0.109469
O	 1.9510091818	 0.2287474046	 1.6509580706	-0.300649
C	 0.7616673901	-0.4922444054	 1.2679087611	 0.077869
H	 0.8317267002	 2.0917809099	 0.2684769409	 0.140719
H	-0.4821341842	 1.9593185058	-0.9204729452	 0.105703
H	-0.8459649443	 1.8745481765	 0.812173149	 0.127888
H	-1.6139346753	-0.4257675147	-0.8419419823	 0.279827
H	 0.4713392806	-0.5574181434	-2.0473499515	 0.100013
H	 1.8245276776	 0.2759324303	-1.246045089	 0.09913
H	 1.4443857183	-2.6846003508	 1.1154203282	 0.095836
H	 3.2884593432	-1.3248631503	 2.1653257866	 0.10469
H	 3.5650892024	-0.6074757823	 0.5464977506	 0.110278
H	 0.0679355309	-0.6442648338	 2.0987678592	 0.086819
111.3869	173.6543	196.8051	206.4854	228.5087	319.8327	339.9312	402.0992	416.7025	501.1981	589.96	670.4728	806.6346	826.1002	864.0309	896.0864	937.1155	953.7178	983.356	987.9209	1017.5969	1029.5413	1063.3908	1118.135	1134.042	1161.6905	1184.1017	1196.9342	1229.7387	1249.5593	1260.2857	1313.4155	1338.5577	1360.023	1363.5773	1399.2801	1405.8828	1488.2301	1499.0273	1500.7924	1514.1469	2994.9326	3022.2525	3032.844	3075.1219	3077.2541	3082.9461	3103.2345	3119.0718	3133.9536	3813.0016
CC1(O)COC2COC12	C[C@@]1(O)CO[C@H]2CO[C@@H]12	
InChI=1S/C6H10O3/c1-6(7)3-9-4-2-8-5(4)6/h4-5,7H,2-3H2,1H3	InChI=1S/C6H10O3/c1-6(7)3-9-4-2-8-5(4)6/h4-5,7H,2-3H2,1H3/t4-,5+,6+/m0/s1
