15
gdb 44556	3.51543	1.56154	1.4992	4.9947	63.69	-0.2391	0.0593	0.2984	898.8622	0.115145	-453.945126	-453.938509	-453.937565	-453.976065	26.432	
O	 0.0056507366	-0.0088155775	 0.2492084063	-0.395205
C	-0.0130421741	 1.1828777408	 0.0594453706	 0.425435
N	-1.1479364364	 1.9818882204	-0.0959811722	-0.321729
C	-0.8293617611	 3.3803969955	 0.0140347343	-0.054417
C	-0.7724379683	 4.0376114638	 1.4197146808	 0.004999
O	-0.0104276389	 3.1742834451	 2.260430254	-0.218302
C	 0.7051588904	 4.0575524005	 1.399858218	 0.005002
C	 0.7419806619	 3.401668412	-0.007116531	-0.054426
N	 1.0952130347	 2.0122586883	-0.1262174984	-0.321732
H	-2.0131968984	 1.5985853577	 0.2490222677	 0.254417
H	-1.3176665142	 4.0049685193	-0.7379698898	 0.096361
H	-1.4846657301	 4.70129247	 1.8967278563	 0.114408
H	 1.4117755872	 4.7403856693	 1.85780399	 0.114409
H	 1.1927848925	 4.0389732368	-0.7717488175	 0.096365
H	 1.979497328	 1.652643788	 0.1952530109	 0.254415
124.852	187.8098	324.9389	383.9925	435.7308	475.2981	536.5529	643.832	682.4491	713.7255	776.1014	776.6738	842.8189	882.104	889.0792	912.5799	946.6504	963.399	1016.3933	1041.3958	1104.1421	1137.0614	1174.3241	1230.3302	1232.8916	1243.6722	1284.9454	1338.4975	1370.5216	1385.6727	1391.6003	1408.7053	1858.4298	3072.0253	3082.4739	3177.5765	3192.7661	3649.4502	3651.4948
O=C1NC2C3OC3C2N1	O=C1N[C@H]2[C@H]3O[C@H]3[C@H]2N1	
InChI=1S/C5H6N2O2/c8-5-6-1-2(7-5)4-3(1)9-4/h1-4H,(H2,6,7,8)	InChI=1S/C5H6N2O2/c8-5-6-1-2(7-5)4-3(1)9-4/h1-4H,(H2,6,7,8)/t1-,2+,3-,4+
