23
gdb 89818	2.89263	1.19902	0.94522	0.334	94.56	-0.2102	0.0328	0.243	1354.1978	0.20555	-351.170323	-351.160977	-351.160033	-351.20421	36.425	
C	 0.0250220063	 1.600121361	-0.0354854582	-0.400358
C	 0.043093107	 0.0682056752	 0.0302272266	-0.069449
C	 0.7312466103	-0.5914082375	-1.1969733878	-0.318509
C	 1.5144450236	-1.7831795481	-0.6340648407	 0.362273
C	 1.3378197216	-3.1945477771	-1.1643627471	-0.310532
C	 2.626395211	-2.4509704427	-1.4058066146	-0.316092
C	 1.5936263596	-1.5240597607	 0.826155709	-0.253565
C	 0.8077720749	-0.5154350034	 1.2131123204	 0.3199
C	 0.6008676795	-0.024372222	 2.611851054	-0.494703
H	 1.0442644505	 2.0013347007	-0.0728757602	 0.113582
H	-0.5035610828	 1.9443294727	-0.9308302842	 0.112284
H	-0.4781975742	 2.0374744471	 0.8329595987	 0.111556
H	-1.0026986957	-0.2718194348	 0.099200918	 0.073571
H	 0.018594658	-0.8779844344	-1.975998577	 0.093967
H	 1.4284226932	 0.1276067374	-1.6452034733	 0.097563
H	 1.3424740713	-4.0133681369	-0.4521206732	 0.107866
H	 0.6638997838	-3.3373363831	-2.0033161603	 0.108498
H	 2.8281812861	-2.091626597	-2.4103302816	 0.107048
H	 3.5115046162	-2.7658379669	-0.8619217934	 0.107427
H	 2.2042294493	-2.1281048429	 1.4909375606	 0.08201
H	 1.1840891834	-0.6065202791	 3.3307276869	 0.119721
H	 0.8870684859	 1.0291365458	 2.7207351193	 0.125267
H	-0.4564540588	-0.0889696231	 2.9024929979	 0.120677
60.263	131.8971	184.6878	224.6046	236.9426	254.3543	301.1384	326.445	415.3843	451.7791	475.4966	554.6608	597.1934	753.608	779.1231	805.9082	854.525	863.356	911.092	935.7294	942.636	950.4471	983.7896	1015.5574	1029.9197	1055.0847	1070.1789	1073.8772	1115.5666	1121.7678	1174.5016	1190.5252	1204.6376	1271.5921	1287.7585	1310.2924	1328.1142	1349.037	1388.2253	1406.5338	1414.1963	1464.6041	1477.6961	1486.8782	1488.8755	1497.9326	1499.3484	1502.2739	1714.84	2968.283	3012.2207	3023.4464	3027.6252	3057.38	3079.8061	3094.6367	3098.3081	3106.6423	3118.0562	3123.1182	3171.7204	3196.6139	3213.2264
CC1CC2(CC2)C=C1C	C[C@H]1CC2(CC2)C=C1C	
InChI=1S/C9H14/c1-7-5-9(3-4-9)6-8(7)2/h5,8H,3-4,6H2,1-2H3	InChI=1S/C9H14/c1-7-5-9(3-4-9)6-8(7)2/h5,8H,3-4,6H2,1-2H3/t8-/m0/s1
