14
gdb 14590	3.98156	1.0937	0.86251	1.965	69.51	-0.2557	-0.0226	0.233	1242.747	0.105645	-378.711291	-378.702911	-378.701967	-378.744831	29.041	
O	-0.5432572481	 0.8033139103	 1.130310639	-0.293275
C	-0.1840385632	 1.3701090197	 0.1265710732	 0.16013
N	 1.0504198271	 1.2219773612	-0.4636736362	-0.312255
C	 2.0521067714	 0.3930287556	 0.0241111406	 0.13908
N	 3.1581627034	 0.3214428281	-0.5881708785	-0.271449
C	 4.2081315431	-0.5516221837	-0.0710689796	-0.259225
C	 3.9220156335	-1.3104413546	 1.1476983101	 0.28182
C	 3.6577451623	-1.9204699658	 2.1494796936	-0.453199
H	-0.8185862103	 2.0808890538	-0.4357158852	 0.091263
H	 1.2635046875	 1.7387902356	-1.3054819669	 0.264308
H	 1.7733906856	-0.1418027674	 0.9326331297	 0.154894
H	 4.4816619593	-1.2471752727	-0.8757342267	 0.145981
H	 5.1005494359	 0.0682288918	 0.0885415984	 0.145982
H	 3.4389524426	-2.466108712	 3.0342517084	 0.205945
65.8198	91.2818	174.6835	185.9279	210.6797	325.8118	343.4417	380.8201	425.0295	624.9856	655.7851	657.5017	674.5779	784.7416	933.3857	957.2205	1028.8468	1030.4538	1044.7409	1095.4252	1249.0698	1262.9881	1335.0901	1363.3949	1438.8297	1464.2605	1501.8325	1752.3905	1821.3918	2230.6702	2958.7386	3017.9215	3036.6753	3137.1941	3502.1888	3608.8526
O=CNC=NCC#C	O=CNC=NCC#C	
InChI=1S/C5H6N2O/c1-2-3-6-4-7-5-8/h1,4-5H,3H2,(H,6,7,8)	InChI=1S/C5H6N2O/c1-2-3-6-4-7-5-8/h1,4-5H,3H2,(H,6,7,8)
