20
gdb 78602	2.97533	1.43846	1.17712	2.1229	79.56	-0.2336	0.081	0.3146	1124.9193	0.170167	-403.060701	-403.052221	-403.051277	-403.093195	33.372	
C	-0.1418757535	 1.5862074411	 0.0425089359	-0.424446
C	-0.0073508324	 0.0792641509	-0.0468974931	 0.063888
C	 0.8834214761	-0.5880197654	-1.0999666071	-0.129957
C	 2.1364828279	-0.252833493	-0.2418485459	-0.067875
C	 2.6246422882	-1.7023788727	-0.2025733565	 0.108561
O	 3.3661590827	-2.1330478007	 0.9034750897	-0.452567
C	 1.0918260966	-1.7967435448	-0.1298765234	 0.31973
C	 0.2383770264	-3.0067092645	 0.101666781	-0.524386
N	 1.0610445203	-0.560880804	 0.8452891969	-0.23752
H	 0.8092326623	 2.098746344	-0.1275296595	 0.118349
H	-0.8575966651	 1.9496183853	-0.7029391101	 0.118462
H	-0.5115139664	 1.8760841666	 1.0316934954	 0.127802
H	-0.9846047588	-0.3942351966	 0.1091433788	 0.069112
H	 0.802383416	-0.6124136784	-2.1924093139	 0.061852
H	 2.7094108555	 0.6737821803	-0.2080948735	 0.084093
H	 3.1041135344	-2.0935496266	-1.1043383308	 0.082613
H	 2.9348608387	-1.7540450655	 1.6810778967	 0.292838
H	 0.588874863	-3.547847759	 0.9863066527	 0.135814
H	-0.8132914465	-2.7448011461	 0.2541238266	 0.126815
H	 0.2990918247	-3.6852299509	-0.7559484901	 0.126821
166.1037	176.1232	201.1167	206.9783	211.9408	261.18	341.0829	411.6967	484.1771	534.7672	594.7615	650.1096	728.6584	737.2014	826.3353	837.2435	851.0975	875.9499	909.2522	956.9882	1037.0277	1045.6476	1069.4413	1087.0633	1106.0022	1120.9567	1137.2692	1151.6999	1186.5752	1202.0531	1248.3459	1250.0408	1285.0607	1305.978	1334.9475	1401.3766	1408.0816	1418.7586	1456.3775	1481.1366	1485.5262	1492.8242	1494.1961	3025.7399	3034.6312	3035.4181	3042.5132	3079.4622	3100.1073	3102.8846	3108.0845	3110.9708	3120.5629	3765.0127
CC1C2C3C(O)C2(C)N13	C[C@H]1[C@H]2[C@@H]3[C@@H](O)[C@@]2(C)N13	
InChI=1S/C7H11NO/c1-3-4-5-6(9)7(4,2)8(3)5/h3-6,9H,1-2H3	InChI=1S/C7H11NO/c1-3-4-5-6(9)7(4,2)8(3)5/h3-6,9H,1-2H3/t3-,4-,5+,6+,7-/m0/s1
