16
gdb 42992	2.80526	1.52476	1.18324	3.7983	74.58	-0.2465	-0.0172	0.2294	1050.5757	0.124362	-400.71578	-400.70795	-400.707006	-400.748568	29.654	
O	-0.1014270142	 0.0473216334	 0.6673095899	-0.303048
C	-0.1396864167	 1.1711956028	 0.2596058407	 0.365155
C	-1.418812108	 2.0472669286	 0.0786176846	-0.252535
C	-0.8724883402	 3.4904868193	 0.2652335686	-0.27306
C	 0.6161778831	 3.3606156173	-0.0836721042	-0.011877
C	 1.5517421406	 2.8033392721	 0.9279505839	-0.245305
N	 0.9902201472	 1.9418228489	-0.1337874097	-0.107918
C	-1.9930571671	 1.8248850002	-1.2404332427	 0.332903
C	-2.447120274	 1.6518759043	-2.3397280503	-0.469664
H	-2.1378727976	 1.7577333891	 0.8497119817	 0.13245
H	-1.3769971565	 4.1992139108	-0.3911725781	 0.131751
H	-1.0161702636	 3.8255518568	 1.2966679242	 0.118626
H	 1.0110145782	 3.9744960572	-0.8871640439	 0.110233
H	 2.6208971861	 2.9772267473	 0.8532391291	 0.135837
H	 1.1838276369	 2.6519434927	 1.9401343566	 0.13181
H	-2.8552902942	 1.4865665092	-3.3060804203	 0.204641
53.4199	133.0172	183.4463	224.3061	361.2196	391.8835	437.4501	510.897	627.4929	638.6412	661.4879	684.775	738.2055	784.0393	822.847	858.2625	888.1248	942.0659	976.4234	1032.9546	1065.3736	1094.4015	1117.6904	1129.0154	1158.4934	1202.9041	1214.7842	1293.8841	1305.2178	1321.2199	1383.8721	1489.464	1512.8351	1864.1805	2235.2582	3062.5177	3079.0564	3109.716	3132.751	3160.3237	3200.4884	3504.0999
O=C1C(CC2CN12)C#C	O=C1[C@@H](C[C@H]2CN12)C#C	
InChI=1S/C7H7NO/c1-2-5-3-6-4-8(6)7(5)9/h1,5-6H,3-4H2	InChI=1S/C7H7NO/c1-2-5-3-6-4-8(6)7(5)9/h1,5-6H,3-4H2/t5-,6+,8?/m1/s1
