20
gdb 62121	4.95011	0.62469	0.59831	2.288	76.87	-0.248	-0.0248	0.2232	1835.881	0.169237	-440.260675	-440.250742	-440.249798	-440.296959	35.155	
O	-0.9023769301	 0.7272830653	 0.1276612903	-0.42807
C	-0.2963053648	-0.5576944471	 0.021271941	 0.080955
C	 0.6282422203	-0.6554677901	-1.1993694925	-0.223282
C	-0.1085333278	-0.4039663467	-2.5255922907	-0.273865
C	 0.8466380322	-0.2612472745	-3.6864364184	 0.158657
O	 0.8182445523	-0.9179250083	-4.694460277	-0.235037
C	 0.4178761246	-0.9607300566	 1.3050573623	 0.01644
C	 1.1168869713	 0.0370514975	 2.1516523098	-0.2498
N	-0.1461747244	-0.5766559553	 2.6018609328	-0.323445
H	-0.2032596162	 1.3905489884	 0.0983911145	 0.284958
H	-1.1436652208	-1.2414424629	-0.1211387537	 0.103572
H	 1.4465380575	 0.0697267527	-1.0776495758	 0.097526
H	 1.0977296808	-1.6459755252	-1.2142225313	 0.120396
H	-0.8180134242	-1.2057345132	-2.7495115262	 0.12474
H	-0.6726543212	 0.5344639842	-2.4340411337	 0.130425
H	 1.6220711317	 0.52974298	-3.5419524248	 0.066206
H	 0.8109084432	-1.975924336	 1.2791285984	 0.09517
H	 2.0004618879	-0.2498335967	 2.7142392482	 0.122938
H	 1.1003538845	 1.0830014122	 1.8541270189	 0.092811
H	-0.8997243767	 0.0866038723	 2.4238433876	 0.238704
50.2535	57.4851	85.867	116.6207	149.0359	259.3688	279.4073	300.1	372.7742	390.4245	502.6143	540.7876	616.313	761.8237	802.4458	834.0772	867.2237	910.469	965.5246	988.425	1001.1681	1007.6581	1075.664	1092.6999	1095.4385	1124.1198	1158.9556	1180.3068	1200.6536	1250.8241	1267.84	1289.7915	1309.0781	1333.8745	1341.8016	1382.4141	1411.8161	1426.1608	1430.9254	1464.6656	1487.9519	1510.7434	1838.4156	2838.9065	3003.2176	3024.8486	3030.9226	3064.597	3102.8091	3104.367	3121.2378	3187.3829	3477.9001	3796.3677
OC(CCC=O)C1CN1	O[C@@H](CCC=O)[C@H]1CN1	
InChI=1S/C6H11NO2/c8-3-1-2-6(9)5-4-7-5/h3,5-7,9H,1-2,4H2	InChI=1S/C6H11NO2/c8-3-1-2-6(9)5-4-7-5/h3,5-7,9H,1-2,4H2/t5-,6+/m1/s1
