17
gdb 102152	2.43144	1.14408	0.81489	3.1018	68.89	-0.261	-0.003	0.258	1344.5962	0.135566	-455.186374	-455.176876	-455.175932	-455.221755	33.149	
C	 0.5098882051	 0.9983485604	 0.7651554835	-0.344109
N	-0.2576244202	 0.2244686476	-0.2200558773	-0.319985
H	-0.8207855209	-0.4769593012	 0.2506225399	 0.238507
H	-1.3306576777	 0.8546937906	-1.6335225032	 0.303642
C	 0.5035765816	-0.3835856324	-1.3120535083	-0.135569
C	 0.9768933423	-1.8397056181	-1.0997282737	-0.355565
C	 1.9318227301	-1.9820855814	-0.0052169814	 0.270904
N	 2.6815779692	-2.0799268398	 0.8690076282	-0.308516
C	-0.3186366169	-0.3219701304	-2.6263183261	 0.440871
O	-1.3371187973	 0.5341872807	-2.5667230055	-0.362877
O	-0.038954972	-0.9708672612	-3.5992530526	-0.343239
H	 1.2726743405	 0.4121889913	 1.2910819906	 0.15322
H	 1.0005730944	 1.8346463481	 0.2583397117	 0.139544
H	-0.1831207062	 1.4145579259	 1.5008829442	 0.13529
H	 1.3857055206	 0.2436362509	-1.4874079471	 0.141139
H	 0.1128997405	-2.4866473476	-0.9040800588	 0.155392
H	 1.4220821968	-2.1927384631	-2.0342676942	 0.191355
43.4812	82.1481	131.0122	133.7249	197.987	245.1439	260.7038	375.2425	391.2359	400.4621	486.4824	516.2459	637.1841	713.5664	764.4069	854.569	908.7798	919.916	975.1904	1023.2664	1051.2398	1143.3377	1157.5412	1168.3582	1221.0261	1246.8806	1275.1271	1344.9774	1362.5083	1432.3136	1457.6671	1466.2962	1488.204	1497.9655	1522.5148	1865.4199	2359.9633	3029.1654	3042.286	3056.6725	3098.474	3105.9044	3121.1477	3410.4381	3520.4597
C[NH2+]C(CC#N)C([O-])=O	CN[C@@H](CC#N)C(=O)O	
InChI=1S/C5H8N2O2/c1-7-4(2-3-6)5(8)9/h4,7H,2H2,1H3,(H,8,9)	InChI=1S/C5H8N2O2/c1-7-4(2-3-6)5(8)9/h4,7H,2H2,1H3,(H,8,9)/t4-/m0/s1
