21
gdb 107677	3.0447	1.24282	1.04631	1.8788	77.88	-0.2479	0.0739	0.3218	1212.2433	0.18438	-424.213905	-424.205429	-424.204485	-424.246898	33.111	
O	 0.146842278	 1.3623573283	 0.2962676802	-0.418498
C	 0.034058824	 0.0155717725	-0.1464343241	-0.141114
C	-1.3819296121	-0.5059106348	-0.0676700358	 0.286061
C	-1.8617026239	-1.0828489958	 1.2429623271	-0.329533
C	-1.6058832963	-1.9990089112	 0.0666848639	-0.076626
C	-2.7857838806	-2.6552888531	-0.6479487004	-0.236568
C	-3.4928501431	-1.677092707	-1.5940895238	-0.072376
O	-3.6381853587	-0.3929714307	-1.0096594915	-0.243738
C	-2.389711904	 0.2668065857	-0.9072110952	-0.143793
H	-0.1898449959	 1.3941017679	 1.1983657766	 0.282785
H	 0.3823517669	 0.0243657827	-1.1862625055	 0.108564
H	 0.7063237523	-0.6502901794	 0.4184768338	 0.082797
H	-1.1710128702	-1.1190369378	 2.0804400895	 0.101073
H	-2.8980021169	-0.9088443931	 1.5142779124	 0.122691
H	-0.7096804566	-2.6090098732	 0.13650503	 0.082244
H	-2.4416684497	-3.5195511837	-1.2266711002	 0.09968
H	-3.5005922487	-3.0366047555	 0.0902059993	 0.107899
H	-2.9269031658	-1.5879783945	-2.5365345254	 0.085939
H	-4.5006458218	-2.0243820543	-1.8389060439	 0.105182
H	-2.590730391	 1.2480810115	-0.4688980092	 0.112235
H	-1.9684378357	 0.4310405853	-1.9152122777	 0.085096
91.196	131.7941	158.873	262.9764	309.0809	339.2372	381.8813	403.4667	404.3884	497.5735	534.618	653.4758	734.9466	792.2732	846.56	885.6216	925.0083	941.8138	959.7198	964.9784	1016.6304	1049.1322	1065.4115	1079.2585	1113.7659	1121.973	1136.7655	1144.9274	1204.6967	1243.5811	1255.4389	1279.2223	1316.5856	1327.5879	1366.2024	1367.7018	1393.4993	1417.1419	1423.0094	1427.0769	1479.9668	1490.152	1494.7559	1503.8165	1505.9866	2947.3487	2965.8874	2971.1277	3032.7044	3055.406	3071.068	3085.4419	3087.7826	3118.8152	3140.9294	3208.3023	3804.7854
OCC12CC1CCOC2	OC[C@]12C[C@H]1CCOC2	
InChI=1S/C7H12O2/c8-4-7-3-6(7)1-2-9-5-7/h6,8H,1-5H2	InChI=1S/C7H12O2/c8-4-7-3-6(7)1-2-9-5-7/h6,8H,1-5H2/t6-,7+/m1/s1
