18
gdb 102256	2.55661	1.05678	0.77738	6.0206	75.34	-0.2515	0.0135	0.265	1423.7355	0.14625	-439.080809	-439.071178	-439.070234	-439.115746	34.73	
C	 0.1521177161	 1.5895852595	 0.0163067665	-0.334014
N	 0.0584420509	 0.1267060019	-0.0336032446	-0.297579
H	 1.0352928063	-0.933150168	 1.0003534398	 0.306307
H	-0.9185878673	-0.1493519741	 0.0273591802	 0.238071
C	 0.6317317682	-0.4772155479	-1.2579198152	-0.192319
C	 0.7369162681	-2.0090486561	-1.078389757	-0.348432
C	 1.6479460856	-2.4731943931	 0.0677313126	 0.394633
O	 1.6374061074	-1.7059034562	 1.1650974124	-0.369904
O	 2.3074692795	-3.4753733317	-0.0098339386	-0.329479
C	-0.1220670333	-0.1367833454	-2.4680454612	 0.32757
C	-0.7793218411	 0.1321612371	-3.4382990499	-0.427473
H	 1.2059415116	 1.8805238164	 0.0608138218	 0.140977
H	-0.3086483192	 2.0782377187	-0.8526797138	 0.131117
H	-0.3370103355	 1.9467754691	 0.9255499352	 0.135815
H	 1.647443288	-0.070423119	-1.3509481566	 0.132313
H	-0.2678178737	-2.4152428798	-0.9032166219	 0.134261
H	 1.106756171	-2.4686758052	-1.9953726615	 0.150733
H	-1.3452209724	 0.3723338339	-4.3048770682	 0.207401
70.414	98.1988	129.3896	132.7764	207.7674	247.6476	287.2753	300.7205	367.7925	436.6502	514.3841	576.7901	631.4169	646.0712	671.3628	689.7429	777.5049	875.1386	891.2625	977.1876	994.2039	1018.5525	1053.929	1126.298	1140.2815	1170.1451	1246.0167	1269.4182	1290.2203	1348.3235	1355.4516	1454.7794	1456.4973	1484.2376	1489.7724	1503.6011	1518.5399	1861.6933	2230.0077	3013.8855	3024.1186	3042.9801	3090.799	3126.152	3135.1715	3222.4943	3498.9203	3500.401
C[NH2+]C(CC([O-])=O)C#C	CN[C@@H](CC(=O)O)C#C	
InChI=1S/C6H9NO2/c1-3-5(7-2)4-6(8)9/h1,5,7H,4H2,2H3,(H,8,9)	InChI=1S/C6H9NO2/c1-3-5(7-2)4-6(8)9/h1,5,7H,4H2,2H3,(H,8,9)/t5-/m1/s1
