18
gdb 88650	4.60894	0.90212	0.81572	3.8397	73.53	-0.2417	0.0089	0.2505	1396.2988	0.146954	-439.074839	-439.066284	-439.065339	-439.108856	31.337	
C	-0.2408661618	 1.5929338181	-0.0206565224	-0.317157
N	-0.0187036859	 0.1530596449	-0.0452705912	-0.081719
C	 1.3108737551	-0.3316342246	-0.3813180456	-0.255893
C	 0.7702604821	-0.5001326545	 0.9995542707	-0.000109
C	 1.3773100214	 0.2464355605	 2.1523631241	 0.111727
C	 0.6105890025	 0.2539650472	 3.4914050384	-0.440648
C	 1.8053681535	-0.5546906295	 3.9964779241	 0.445605
O	 2.1723805937	-1.0533110916	 5.0096507957	-0.310609
O	 2.4505569628	-0.5471188378	 2.7837543555	-0.248549
H	 0.6449564768	 2.1950196707	 0.2353208504	 0.103841
H	-0.5750579732	 1.9044240977	-1.0150175812	 0.133344
H	-1.0386223898	 1.8278656831	 0.6911955534	 0.127533
H	 1.3606443691	-1.1784764519	-1.060067599	 0.125614
H	 2.105335797	 0.4037119846	-0.5109710308	 0.11301
H	 0.3825184228	-1.4775739276	 1.2868243154	 0.099966
H	 1.7817324541	 1.2158609131	 1.8578976197	 0.09964
H	 0.4811803529	 1.2218208219	 3.9778144482	 0.145711
H	-0.3349702932	-0.2917419245	 3.4994348446	 0.148693
50.771	85.9858	146.4649	215.8974	229.9304	341.1615	358.525	411.1851	474.2338	521.5439	553.704	739.0584	776.6231	812.6671	903.944	916.5465	941.4606	959.7598	1028.5571	1042.3014	1074.8262	1111.846	1117.1344	1128.4882	1141.3396	1165.599	1201.6884	1216.9408	1224.5361	1294.3514	1314.9823	1335.3597	1444.7363	1451.7315	1458.8654	1490.3253	1504.2891	1512.4547	1943.3072	2976.4299	3069.2249	3085.6766	3088.6722	3098.2985	3105.1035	3111.8614	3147.861	3179.2949
CN1CC1C1CC(=O)O1	CN1C[C@H]1[C@H]1CC(=O)O1	
InChI=1S/C6H9NO2/c1-7-3-4(7)5-2-6(8)9-5/h4-5H,2-3H2,1H3	InChI=1S/C6H9NO2/c1-7-3-4(7)5-2-6(8)9-5/h4-5H,2-3H2,1H3/t4-,5+,7?/m0/s1
