21
gdb 106554	1.98893	1.52575	1.1686	1.9122	78.85	-0.2483	0.0765	0.3248	1186.4481	0.181538	-424.176742	-424.167336	-424.166392	-424.210628	36.011	
C	 0.0280738666	 1.4937861349	-0.0207776701	-0.383876
C	-0.0799795754	-0.034639004	 0.0217330722	-0.320689
C	-1.5000074859	-0.540998966	 0.0099162135	 0.307214
C	-2.6415210822	-0.2368016613	-1.021690787	-0.279075
C	-3.2855037277	-1.2122360682	 0.0028504914	-0.171868
C	-1.9545512251	-2.0279159374	-0.0536799217	 0.101514
O	-1.5972920245	-2.6959929211	-1.2413413941	-0.449955
C	-2.590036251	-0.3483802093	 1.0987764448	 0.106886
O	-2.2875801872	-0.8976276179	 2.3601467634	-0.446821
H	 1.0743526834	 1.8138510668	-0.0073127909	 0.111203
H	-0.433183352	 1.8992965506	-0.9274808149	 0.117253
H	-0.4705719717	 1.9518678945	 0.839968486	 0.117258
H	 0.4518578412	-0.4707491487	-0.8329399852	 0.10937
H	 0.4164748305	-0.4166373717	 0.9230335181	 0.106721
H	-3.0298144136	 0.7856897857	-1.0358085598	 0.083327
H	-2.4910854524	-0.6314522532	-2.0241023757	 0.116882
H	-4.3094884142	-1.5904412005	 0.0052936368	 0.060712
H	-1.7290708546	-2.6298634982	 0.8301598914	 0.079999
H	-1.9446275372	-3.5913375294	-1.1968216498	 0.283719
H	-2.9785963862	 0.6742851499	 1.1885853237	 0.066011
H	-3.0784036308	-0.8512745956	 2.9057903579	 0.284216
68.9847	150.2285	180.1073	227.0168	245.522	254.3234	264.3388	272.8907	378.6776	421.0472	477.6963	560.0527	629.531	665.0663	748.9088	803.834	845.218	862.2608	924.6594	942.932	943.4909	996.9764	1041.2793	1056.4282	1084.5991	1096.3548	1134.704	1141.1748	1174.3683	1182.9091	1193.0175	1215.6672	1229.138	1270.214	1296.5733	1307.5998	1336.7276	1376.9633	1410.6491	1424.7297	1450.8426	1481.4532	1500.7524	1506.221	1518.0663	3017.2492	3023.1873	3034.1613	3056.3707	3061.5192	3077.091	3096.3686	3102.3741	3104.9214	3162.9468	3824.015	3831.7727
CCC12CC(C1O)C2O	CC[C@@]12C[C@@H]([C@H]1O)[C@H]2O	
InChI=1S/C7H12O2/c1-2-7-3-4(5(7)8)6(7)9/h4-6,8-9H,2-3H2,1H3	InChI=1S/C7H12O2/c1-2-7-3-4(5(7)8)6(7)9/h4-6,8-9H,2-3H2,1H3/t4-,5-,6-,7+/m1/s1
