19
gdb 110651	2.43271	1.36917	1.05852	2.1709	75.04	-0.2087	0.0725	0.2811	1184.2832	0.157823	-422.926755	-422.918049	-422.917104	-422.960065	33.83	
O	-0.1942540693	 1.3483347097	 0.7893437675	-0.436581
C	 0.0667643232	 0.2082736337	-0.0244274179	-0.132201
C	-1.2613399118	-0.5304205695	-0.1571529673	-0.068377
C	-1.9096726954	-1.2474358204	-1.3335791542	-0.161915
C	-1.0300606838	-2.2695347889	-2.1045879847	-0.043309
C	 0.3876965008	-2.4013003139	-1.6201540424	-0.309181
C	-0.728369899	-3.0020747832	-0.8077747857	-0.124274
C	-1.6263033839	-1.9824743228	-0.0379838338	 0.34882
O	-2.5601636594	-2.4471793996	 0.8729963626	-0.453841
H	 0.6250143417	 1.8446405631	 0.8781243106	 0.283391
H	 0.4438903656	 0.5133389235	-1.0122474432	 0.099945
H	 0.8296739471	-0.4305526071	 0.4451410644	 0.095313
H	-2.0323419719	 0.0545270329	 0.3437347549	 0.115208
H	-2.8627973002	-0.9111365479	-1.7217193675	 0.095773
H	-1.3527776245	-2.6959882435	-3.0454199186	 0.090964
H	 0.971156622	-3.1378651172	-2.1675722092	 0.11136
H	 0.9785213002	-1.5583154394	-1.2886632595	 0.11028
H	-0.8058995754	-4.0631901234	-0.6092377308	 0.093367
H	-2.1621288959	-2.4218554661	 1.7507749747	 0.285259
59.5156	182.4702	206.2675	220.9319	264.5762	295.1712	322.55	387.8205	398.8806	494.4128	566.3902	647.6328	690.3254	761.6185	797.7264	842.142	875.2385	909.0371	933.4206	974.7325	980.9813	1023.8508	1044.5293	1061.1473	1063.7049	1083.916	1089.4942	1118.7928	1174.6652	1203.9371	1219.9959	1256.7298	1271.3472	1290.3919	1316.0077	1328.8923	1330.0606	1436.0047	1482.8525	1494.2424	1529.4029	2970.7626	3003.2732	3123.5844	3129.6046	3186.3045	3194.2193	3201.1766	3229.3	3781.8966	3824.5054
OCC1C2C3CC3C12O	OC[C@H]1[C@H]2[C@H]3C[C@H]3[C@@]12O	
InChI=1S/C7H10O2/c8-2-5-6-3-1-4(3)7(5,6)9/h3-6,8-9H,1-2H2	InChI=1S/C7H10O2/c8-2-5-6-3-1-4(3)7(5,6)9/h3-6,8-9H,1-2H2/t3-,4+,5-,6+,7+/m0/s1
