12
gdb 35159	2.57179	1.33379	1.02439	4.1728	72.27	-0.2932	-0.0478	0.2454	1116.9427	0.07601	-394.47278	-394.464431	-394.463487	-394.506018	29.66	
C	-0.0980541027	-1.1910611066	-0.0333782157	-0.377885
C	-0.0418216407	 0.0071745845	 0.0162929235	 0.383492
C	 0.013190288	 1.437631887	 0.0393346947	-0.3025
N	 0.5392600945	 2.0936572865	 1.2364533293	-0.312308
C	 1.3538386484	 2.1763466072	 0.0085347263	 0.029426
C	 2.595585815	 1.4345475877	 0.0191518624	 0.304316
N	 3.5850083384	 0.839873909	 0.002864741	-0.314852
C	 1.3823498353	 3.422056828	-0.7247741256	 0.255069
N	 1.3706433102	 4.4312458484	-1.2882594151	-0.314122
H	-0.137449612	-2.2526811164	-0.0686528582	 0.222739
H	-0.7724668261	 1.9488011329	-0.5131102016	 0.154517
H	 0.0736547917	 2.9840684019	 1.4013371791	 0.272107
94.9748	111.2126	138.0086	217.3292	234.38	267.0375	428.4724	481.6756	492.7522	573.9989	593.8854	632.2854	656.595	672.4739	688.7116	791.8809	900.7638	983.8285	1038.1865	1071.1419	1186.2051	1230.4526	1330.3552	1420.7233	2252.055	2358.8696	2373.9291	3138.701	3497.7106	3506.1465
C#CC1NC1(C#N)C#N	C#C[C@H]1NC1(C#N)C#N	
InChI=1S/C6H3N3/c1-2-5-6(3-7,4-8)9-5/h1,5,9H	InChI=1S/C6H3N3/c1-2-5-6(3-7,4-8)9-5/h1,5,9H/t5-/m1/s1
