21
gdb 112718	2.36151	1.30222	1.21377	3.2045	74.24	-0.2463	0.066	0.3123	1177.8077	0.1832	-461.365111	-461.356114	-461.35517	-461.398986	34.673	
C	 0.3713981383	 0.5917732198	-0.5913364346	-0.244708
O	-0.1634413403	-0.6115269108	-0.0813356803	-0.259316
C	-1.5533352695	-0.5510073092	 0.2706849732	 0.110198
C	-2.481249696	-0.5981257872	-0.9641562154	-0.268462
C	-2.8073511258	-2.105542648	-1.2181048281	 0.136388
O	-2.4885177937	-2.5545695094	-2.5127386028	-0.444558
C	-2.0020256803	-2.8792704863	-0.1293977419	 0.089986
O	-0.7389384055	-3.279539271	-0.6596164742	-0.453501
C	-1.8610058858	-1.8625122234	 1.0068536263	-0.267282
H	 1.4375801455	 0.4245092177	-0.7602169709	 0.13375
H	-0.0940037947	 0.8899257943	-1.54061978	 0.118515
H	 0.2482173662	 1.4131371636	 0.1298278556	 0.113332
H	-1.7160265097	 0.3407112766	 0.8911323344	 0.065781
H	-3.3945088076	-0.028130399	-0.7671859435	 0.100389
H	-2.0158166385	-0.1646087761	-1.8522245742	 0.115104
H	-3.8799676311	-2.2751057667	-1.0650072193	 0.075184
H	-1.6257251665	-2.9877598042	-2.4140356513	 0.281631
H	-2.506777037	-3.8003848528	 0.1723102556	 0.081339
H	-0.1676144196	-2.4957628392	-0.629591615	 0.29317
H	-1.0859905622	-2.1289237763	 1.7293589132	 0.115919
H	-2.8145358463	-1.7659810723	 1.5381628131	 0.107139
51.9733	116.5822	166.3612	208.6439	300.8781	307.6199	359.9841	404.7001	415.9103	449.2025	469.3574	549.5141	679.918	717.3294	759.6158	813.8226	827.9016	845.5863	930.1713	966.0847	985.809	1002.2422	1053.8472	1087.5041	1115.6424	1142.9317	1173.0265	1185.6171	1202.4609	1226.3703	1236.1289	1261.8115	1291.1721	1325.7186	1340.8944	1344.1673	1375.7716	1385.7969	1453.5121	1460.5441	1468.9914	1476.8003	1484.2831	1491.8185	1511.7721	2990.7178	3008.9782	3026.0997	3045.375	3051.4792	3061.6345	3085.6767	3113.0004	3113.9423	3120.8874	3676.8702	3694.9441
COC1CC(O)C(O)C1	CO[C@H]1C[C@@H](O)[C@@H](O)C1	
InChI=1S/C6H12O3/c1-9-4-2-5(7)6(8)3-4/h4-8H,2-3H2,1H3	InChI=1S/C6H12O3/c1-9-4-2-5(7)6(8)3-4/h4-8H,2-3H2,1H3/t4-,5+,6-
