18
gdb 70977	3.54881	1.3147	1.12968	2.9429	76.71	-0.2519	-0.0386	0.2133	1112.6077	0.146961	-401.90655	-401.898467	-401.897523	-401.939325	30.691	
C	-0.0292325625	 1.5024356732	 0.1211573358	-0.498025
C	 0.1103928075	 0.0195515263	-0.0316956794	 0.34176
C	 0.0616573927	-0.7862573012	-1.3230173839	-0.341464
C	-0.3045742699	-1.9549135347	-0.3981700476	 0.264807
C	 0.9542709596	-2.2372062684	 0.4624748775	-0.289102
C	 0.6723760183	-0.8650145255	 1.039684651	-0.076935
N	-0.7974299888	-0.9408678244	 0.699503722	-0.231301
C	-1.204064012	-3.0689164758	-0.8191534704	 0.049923
O	-1.4628515422	-3.3307212196	-1.9671156968	-0.242604
H	 0.8748354439	 2.0157683185	-0.2251935804	 0.125668
H	-0.8777200579	 1.8770429028	-0.4602355128	 0.130007
H	-0.192488672	 1.7709265846	 1.1693149545	 0.13149
H	-0.78900938	-0.4922838172	-1.9426199761	 0.123065
H	 0.9598367291	-0.8742122558	-1.9414747334	 0.103207
H	 0.7633853092	-3.020013883	 1.2020374984	 0.11761
H	 1.894948228	-2.4341649914	-0.0609046172	 0.109673
H	 1.0019373642	-0.4677151989	 1.9936399108	 0.098128
H	-1.6246575771	-3.6607335797	 0.024497328	 0.084091
63.5486	164.1793	194.3583	202.6422	298.1918	324.405	421.027	426.4805	467.3251	597.393	717.4372	738.5858	778.1232	818.2214	837.7422	892.1657	944.992	999.8951	1006.245	1022.3838	1024.3139	1042.668	1059.5598	1117.8879	1145.9067	1189.9872	1193.271	1250.4845	1261.9282	1300.4207	1343.6402	1401.216	1417.7343	1428.6427	1482.9314	1487.6987	1492.7162	1508.9374	1819.3866	2885.4977	3032.3077	3046.5062	3054.8708	3098.1202	3104.5877	3110.5437	3115.8518	3175.5371
CC12CC3(CC1N23)C=O	C[C@@]12C[C@]3(C[C@@H]1N23)C=O	
InChI=1S/C7H9NO/c1-6-3-7(4-9)2-5(6)8(6)7/h4-5H,2-3H2,1H3	InChI=1S/C7H9NO/c1-6-3-7(4-9)2-5(6)8(6)7/h4-5H,2-3H2,1H3/t5-,6+,7+,8?/m0/s1
