15
gdb 27910	2.06293	1.86341	0.98002	1.0733	73.28	-0.2092	0.0156	0.2247	1127.0229	0.115887	-450.222696	-450.214943	-450.213999	-450.254462	30.865	
N	 0.0496073876	 1.37100023	-0.0869145365	-0.569633
C	-0.007394058	 0.0024310794	-0.0346128404	 0.405109
C	-1.2284632061	-0.6822391719	-0.0697225156	-0.317705
C	-1.1305008328	-2.0658665769	-0.0666044291	 0.439615
O	-2.2549598362	-2.8041709298	-0.1067725639	-0.41876
N	 0.0216239947	-2.7324553826	-0.0276581292	-0.428244
C	 1.1226690169	-1.9657250943	 0.0147326018	 0.427867
N	 2.3184241168	-2.6241788176	 0.1081751228	-0.557188
N	 1.1741111871	-0.6305936463	 0.010582506	-0.391654
H	 0.9346988505	 1.771907158	 0.1806779426	 0.255912
H	-0.7693411019	 1.8889739968	 0.184809729	 0.254656
H	-2.1858902603	-0.1820386769	-0.1121396683	 0.091164
H	-1.9621882828	-3.7261573897	-0.0927888673	 0.294565
H	 2.3135763049	-3.5968733649	-0.1491574479	 0.256835
H	 3.1385725497	-2.0881519932	-0.121221674	 0.257462
180.3603	211.5397	230.7941	325.6974	340.1503	410.9141	427.3854	478.3375	486.4787	529.4914	545.0895	564.0841	576.3785	662.1092	718.3271	722.3089	792.3613	825.4195	986.5413	1004.8266	1041.4986	1123.2583	1171.2438	1206.8124	1271.3242	1357.5103	1484.4815	1491.9353	1505.8045	1616.4475	1625.051	1648.6025	1670.0369	3221.9132	3594.0782	3606.7275	3715.0853	3733.9127	3764.1037
NC1=CC(O)=NC(N)=N1	Nc1cc(O)nc(N)n1	
InChI=1S/C4H6N4O/c5-2-1-3(9)8-4(6)7-2/h1H,(H5,5,6,7,8,9)	InChI=1S/C4H6N4O/c5-2-1-3(9)8-4(6)7-2/h1H,(H5,5,6,7,8,9)
