16
gdb 126723	5.10968	0.91427	0.82766	4.7465	82.22	-0.2362	-0.0095	0.2268	1387.0516	0.124071	-396.903369	-396.894838	-396.893894	-396.937628	30.825	
C	-0.3561570582	 1.5015766399	 0.252271415	-0.378839
C	 0.2048354636	 0.1117774966	-0.0503489037	-0.148639
N	 0.7834441024	-0.5264690943	 1.1252515632	 0.075534
C	 0.1747519454	-1.2126625908	 2.114587359	-0.214517
C	 1.1906274208	-1.5304543991	 2.9964492335	 0.186457
N	 2.3609348651	-1.0152095723	 2.4924878428	-0.261632
N	 2.1077066701	-0.4128902017	 1.372077009	-0.146017
C	 1.1166979739	-2.2540687642	 4.2080972036	 0.292302
C	 1.0455668608	-2.8696358716	 5.2394028212	-0.444667
H	 0.4297537122	 2.1544007046	 0.6404429215	 0.150701
H	-0.7576995036	 1.9466195254	-0.6626682129	 0.130289
H	-1.1614268295	 1.4518523058	 0.9908706341	 0.130361
H	-0.5709990836	-0.5507164667	-0.4449253015	 0.129501
H	 1.009008142	 0.1681741965	-0.7867437099	 0.151534
H	-0.8809007212	-1.4236006746	 2.1221054064	 0.151463
H	 0.9902146298	-3.4122812034	 6.1503455988	 0.19617
29.9249	95.7273	144.8406	193.2091	223.61	351.1902	383.9154	493.8701	541.6353	558.7234	583.2979	672.2856	683.5364	713.6755	731.6958	792.4858	814.5786	970.1684	1024.8216	1053.2153	1090.4529	1105.442	1157.2901	1238.8954	1264.4267	1325.9735	1375.0473	1388.372	1410.5604	1471.6375	1489.268	1493.9993	1504.9901	1558.4033	2243.5408	3047.5046	3067.9946	3113.6736	3126.6511	3138.7032	3287.1632	3504.3349
CCN1C=C(N=N1)C#C	CCn1cc(nn1)C#C	
InChI=1S/C6H7N3/c1-3-6-5-9(4-2)8-7-6/h1,5H,4H2,2H3	InChI=1S/C6H7N3/c1-3-6-5-9(4-2)8-7-6/h1,5H,4H2,2H3
