16
gdb 124180	4.25301	0.7954	0.74756	2.9497	79.25	-0.2518	-0.0106	0.2412	1549.3708	0.123543	-400.721948	-400.71304	-400.712096	-400.758633	30.39	
C	 0.0529795525	 1.5345560311	 0.1178816577	-0.496031
C	 0.0225004905	 0.0798252285	 0.0806687244	 0.061821
C	-0.005027595	-1.1224160694	 0.0538823237	 0.080801
C	-0.0498967773	-2.5835737445	 0.0214772755	-0.460085
C	-1.4369526094	-3.1333619137	-0.1380528298	 0.444315
C	-2.0637040212	-3.799065855	-1.1452708212	-0.337585
C	-3.3664299618	-4.0271073934	-0.6281256324	 0.038337
N	-3.5120214195	-3.5452848939	 0.5809358064	-0.137903
O	-2.2800810116	-2.9749966175	 0.895937114	-0.200989
H	 0.5395208525	 1.9465364212	-0.772959091	 0.148271
H	-0.9602184839	 1.9482522856	 0.1645859081	 0.154121
H	 0.600297883	 1.8982427711	 0.9943045616	 0.150481
H	 0.5598950423	-2.9643497811	-0.8055319948	 0.146178
H	 0.3872570379	-2.9906161131	 0.9429013222	 0.155302
H	-1.661912429	-4.0786680835	-2.1045510431	 0.120595
H	-4.20279056	-4.5275571823	-1.0956937412	 0.13237
16.4889	30.3754	66.0985	194.6027	210.0759	296.5329	325.9145	374.6967	445.3577	638.2408	649.3616	743.8562	785.6329	818.0143	898.3563	917.0915	939.3271	957.0046	1014.6402	1052.5757	1053.6629	1054.683	1164.218	1192.5979	1212.0517	1276.2284	1335.2242	1388.461	1414.8655	1457.5025	1477.7477	1478.1615	1512.0235	1634.7237	2380.78	3021.5734	3028.7702	3065.7813	3089.9551	3091.4577	3243.0217	3281.2061
CC#CCC1=CC=NO1	CC#CCc1ccno1	
InChI=1S/C7H7NO/c1-2-3-4-7-5-6-8-9-7/h5-6H,4H2,1H3	InChI=1S/C7H7NO/c1-2-3-4-7-5-6-8-9-7/h5-6H,4H2,1H3
