21
gdb 103640	2.69648	1.12748	1.04506	1.0668	74.21	-0.2483	0.0536	0.3018	1276.2955	0.17991	-461.348083	-461.337805	-461.336861	-461.383047	38.473	
C	 0.1399007093	 1.543921607	 0.1568544548	-0.405911
C	 0.0422737954	 0.0197719351	 0.0295886977	-0.218497
C	 0.7111886816	-0.5188175667	-1.2292933261	 0.394273
O	 0.0566421113	-0.0778514259	-2.4170442444	-0.497972
C	 2.2628563785	-0.4061413531	-1.3643118708	-0.331258
C	 2.2777802362	-1.8431520485	-1.9620801589	 0.136635
O	 3.2550847334	-2.7488131676	-1.5301124331	-0.440991
C	 0.8384293864	-2.0582370975	-1.3903666194	 0.032544
O	 0.8946167605	-2.6989659944	-0.1229908092	-0.440964
H	 1.1826911376	 1.8795670276	 0.1821400068	 0.118925
H	-0.3580958744	 2.0493527158	-0.6782935381	 0.107948
H	-0.3416414399	 1.8915263435	 1.0753191635	 0.119277
H	 0.4957888557	-0.4616133127	 0.9010900407	 0.109834
H	-1.010918463	-0.2849658198	 0.0124607623	 0.101354
H	 0.2531746125	 0.8575468189	-2.5319773754	 0.279339
H	 2.6515818462	 0.4081406224	-1.981317773	 0.092985
H	 2.7576980257	-0.3836760176	-0.3885295912	 0.09998
H	 2.2935417025	-1.8384364078	-3.0532645158	 0.098019
H	 3.0852851646	-2.8821877745	-0.5881211282	 0.273904
H	 0.0835704126	-2.5104687919	-2.0416716127	 0.075139
H	 0.8733509172	-3.6483628524	-0.2783758695	 0.295435
69.7102	92.6208	152.2803	164.8983	221.0381	260.3592	270.7253	280.7522	339.5261	360.4231	383.2239	442.7065	508.6554	536.756	611.199	676.6392	739.623	784.3473	846.6403	917.8128	951.2248	960.4244	987.774	1015.3318	1067.4692	1079.0177	1112.6817	1135.01	1156.2122	1188.944	1216.4475	1240.0684	1259.7812	1294.7433	1310.2176	1324.4106	1332.6672	1382.6766	1406.6884	1422.0372	1434.579	1467.6839	1477.8903	1500.8983	1510.0422	3029.0196	3040.1647	3051.5436	3055.0247	3080.0649	3097.4128	3102.087	3106.4258	3115.1618	3758.3256	3814.1206	3826.9926
CCC1(O)CC(O)C1O	CC[C@@]1(O)C[C@@H](O)[C@H]1O	
InChI=1S/C6H12O3/c1-2-6(9)3-4(7)5(6)8/h4-5,7-9H,2-3H2,1H3	InChI=1S/C6H12O3/c1-2-6(9)3-4(7)5(6)8/h4-5,7-9H,2-3H2,1H3/t4-,5-,6-/m1/s1
