19
gdb 55365	3.23805	1.27263	1.11605	4.1824	74.86	-0.2295	0.0409	0.2704	1135.7516	0.162246	-419.235392	-419.227268	-419.226324	-419.268551	31.555	
N	 0.607240117	 0.1819526275	-0.834722444	-0.513738
C	-0.0786462288	 0.0262405607	 0.3325066395	 0.360064
O	 0.1915868772	 0.6301871097	 1.3537270676	-0.373495
C	-1.248097471	-0.9608180655	 0.2439764364	-0.064131
C	-2.4215443426	-0.4444049227	-0.6453237381	-0.240348
C	-3.108994925	-1.7060348244	-1.2199489615	-0.217835
C	-2.01209947	-2.7522538892	-1.2459177065	-0.030518
N	-0.7374647366	-2.2704732364	-1.8329999603	-0.347517
C	-0.9078033637	-2.3191850343	-0.3583400674	-0.06075
H	 1.4014076077	 0.7996893497	-0.8440934818	 0.252312
H	 0.3943002854	-0.4006665333	-1.6320739539	 0.270261
H	-1.5872096505	-1.1103304865	 1.2725192528	 0.096342
H	-3.1078843974	 0.1865936679	-0.0769164733	 0.112423
H	-2.0214321372	 0.1626757673	-1.4593115773	 0.121587
H	-3.9089795479	-2.0577791434	-0.557843979	 0.105193
H	-3.5511873226	-1.5237849799	-2.2042555392	 0.107386
H	-2.2623385187	-3.8008946559	-1.3705557227	 0.09094
H	-0.1861069591	-3.0716280568	-2.1289481914	 0.236017
H	-0.3084813463	-3.0226507245	 0.2099712501	 0.095803
41.8714	133.7158	196.1385	269.0555	327.6226	350.8185	397.5418	409.5734	585.5113	639.5498	654.7418	668.1527	766.7806	801.1301	823.4154	864.5131	879.3038	917.7775	937.2272	966.7192	991.6234	1015.2761	1060.1137	1079.0888	1124.4107	1127.4534	1173.6212	1198.4252	1229.9441	1259.1135	1289.6891	1312.1932	1334.7908	1340.6089	1351.5896	1381.068	1421.7812	1482.8563	1499.8926	1610.1339	1796.6109	3039.8137	3078.1284	3079.1646	3086.9235	3126.7156	3161.0222	3172.9655	3507.3537	3545.128	3709.2719
NC(=O)C1CCC2NC12	NC(=O)[C@H]1CC[C@H]2N[C@@H]12	
InChI=1S/C6H10N2O/c7-6(9)3-1-2-4-5(3)8-4/h3-5,8H,1-2H2,(H2,7,9)	InChI=1S/C6H10N2O/c7-6(9)3-1-2-4-5(3)8-4/h3-5,8H,1-2H2,(H2,7,9)/t3-,4+,5-/m0/s1
