18
gdb 46688	2.85935	1.80586	1.35209	3.0078	73.95	-0.2347	-0.0203	0.2144	964.2796	0.150439	-401.933366	-401.926457	-401.925513	-401.964641	27.96	
O	-0.0505128423	 0.162904662	 0.81039043	-0.317418
C	-0.0710135323	 1.1513754329	 0.114373145	 0.395938
C	-1.3007849312	 1.6332575508	-0.6308041124	-0.300029
C	-1.3444565504	 3.171002993	-0.6865714251	-0.265455
C	-0.0334891031	 3.734192937	-1.2280024556	-0.009431
C	 1.1314281941	 4.1140245811	-0.3995627433	-0.031602
C	 1.2305682614	 3.2840964364	 0.8735571017	-0.275587
C	 1.1561563769	 2.029224682	-0.0550745327	-0.072142
N	 1.1901908328	 2.8909411558	-1.301138972	-0.165192
H	-1.2259110404	 1.239866748	-1.6541063705	 0.138744
H	-2.1935699283	 1.1988698614	-0.1754410105	 0.124767
H	-2.1679235102	 3.4925066785	-1.3296763946	 0.114246
H	-1.5591875547	 3.5713874499	 0.3107388647	 0.116827
H	-0.1289706356	 4.3102731299	-2.1444151532	 0.10108
H	 1.7209200218	 5.0007829616	-0.6106617791	 0.09724
H	 2.2023877976	 3.3606344963	 1.3621529031	 0.12566
H	 0.4491852008	 3.4200783528	 1.6278753815	 0.112562
H	 2.048853323	 1.4064065406	-0.000387627	 0.109792
98.1855	197.0023	275.0937	374.6619	426.9115	450.4068	495.37	608.2733	647.366	730.2514	748.3959	776.9971	799.7466	870.4023	918.2818	931.7301	968.6177	997.0277	1006.9589	1030.1753	1051.7604	1072.0228	1105.1628	1143.1827	1180.781	1204.7753	1232.6476	1240.84	1258.5585	1272.9391	1309.7712	1331.4476	1351.2669	1368.3281	1423.7522	1455.3751	1489.4389	1508.4578	1816.0559	3024.3641	3041.9771	3054.0558	3088.1439	3111.0894	3112.6977	3128.6441	3143.806	3161.839
O=C1CCC2C3CC1N23	O=C1CC[C@H]2[C@H]3C[C@@H]1N23	
InChI=1S/C7H9NO/c9-7-2-1-4-5-3-6(7)8(4)5/h4-6H,1-3H2	InChI=1S/C7H9NO/c9-7-2-1-4-5-3-6(7)8(4)5/h4-6H,1-3H2/t4-,5+,6-,8?/m0/s1
