17
gdb 107092	3.51524	1.01146	0.94047	5.5578	73.08	-0.2538	0.0165	0.2702	1270.2322	0.136197	-417.963497	-417.955005	-417.954061	-417.997031	31.567	
O	 0.6317426928	 0.2327969684	 0.8872998086	-0.405373
C	-0.0721555879	 0.2855179428	-0.3406331077	-0.172779
C	-1.4391628878	-0.3474614014	-0.2614370665	 0.347366
C	-2.257279976	-0.5063211976	 0.990273743	-0.352761
C	-1.895430422	-1.7286484687	 0.1776467223	-0.117078
C	-2.7833675792	-1.7642499869	-1.0760079129	-0.141789
N	-2.2555446409	-0.4252933381	-1.4829802295	-0.36442
C	-2.4559534658	-2.8121860963	-2.0453107083	 0.309373
N	-2.2040102634	-3.6598615178	-2.7888398973	-0.321119
H	 0.2589515111	 0.8997761476	 1.4718236069	 0.289216
H	-0.1768651768	 1.3186383538	-0.7099115845	 0.096395
H	 0.5344426521	-0.2537400517	-1.0749948675	 0.134335
H	-1.7040135425	-0.4288650288	 1.9204898994	 0.122881
H	-3.2859629599	-0.1533750971	 1.0354530676	 0.104561
H	-1.3241661124	-2.559037371	 0.5679052787	 0.12671
H	-3.8615467253	-1.8026217485	-0.8760589286	 0.120852
H	-2.974210616	 0.2906082513	-1.5626453837	 0.22363
63.2458	107.0732	169.8974	210.4298	277.3709	313.5611	379.9527	399.6191	450.729	506.52	580.059	658.802	751.011	805.6458	850.3391	907.2938	944.5956	964.5482	980.4662	1022.5629	1035.9725	1059.0059	1072.0278	1086.2084	1100.9017	1190.7072	1208.4513	1247.5409	1258.4431	1332.2904	1380.3142	1391.8243	1399.7462	1413.3342	1480.9061	1499.7939	2361.3328	2976.4952	3028.046	3080.2907	3100.7971	3204.8096	3221.89	3482.1277	3826.7835
OCC12CC1C(N2)C#N	OC[C@]12C[C@H]1[C@@H](N2)C#N	
InChI=1S/C6H8N2O/c7-2-5-4-1-6(4,3-9)8-5/h4-5,8-9H,1,3H2	InChI=1S/C6H8N2O/c7-2-5-4-1-6(4,3-9)8-5/h4-5,8-9H,1,3H2/t4-,5-,6+/m0/s1
