16
gdb 24559	2.76522	1.85915	1.22561	2.8918	84.05	-0.2043	-0.0567	0.1476	980.5716	0.125824	-396.894122	-396.886703	-396.885759	-396.926029	28.688	
N	-0.135092959	 1.3830658736	 0.4909187374	-0.272602
C	 0.8127351771	 2.3695118115	 0.1699499009	-0.019956
C	 0.6777400975	 3.1743024716	-0.9187854816	-0.138478
C	-0.2338682543	 2.7309455828	-1.9604802227	-0.004299
N	-1.3089640507	 2.1109773172	-1.6548426672	-0.199672
C	-1.9653577726	 1.0079456165	-2.1250258852	 0.03317
N	-1.6710942617	-0.1942627777	-1.7634083028	-0.259406
C	-0.5866539571	-0.5621250747	-0.9608214584	-0.00709
C	 0.1194553245	 0.0705929545	 0.005261295	-0.080639
H	-1.0379710046	 1.6880443439	 0.1499267293	 0.275789
H	 1.7104821309	 2.4016346102	 0.7837344702	 0.125344
H	 1.4346009854	 3.9187186633	-1.1382576664	 0.107103
H	 0.1415534941	 2.7805159194	-2.9935989212	 0.11354
H	-2.8641153224	 1.1605239756	-2.7242239425	 0.120719
H	-0.2943324002	-1.5962152601	-1.1322294369	 0.101409
H	 0.9729985031	-0.4333695976	 0.4489908419	 0.105069
81.4779	151.7555	240.9182	321.269	379.1277	405.8027	431.2467	479.8854	578.7989	645.3167	721.9203	781.3628	795.9087	829.5817	848.6067	912.0035	925.9389	931.2622	942.5297	962.7825	985.6213	1077.7549	1127.2964	1157.369	1251.2902	1300.3685	1360.0624	1403.1156	1407.638	1427.4621	1508.3914	1579.3679	1604.3037	1646.3282	1714.8934	2999.7726	3115.6369	3142.4175	3152.9574	3177.8143	3200.5174	3522.5793
N1C=CC=NC=NC=C1	N1[CH][CH][CH][N]C=NC=C1	
InChI=1S/C6H7N3/c1-2-7-4-5-9-6-8-3-1/h1-7H/b2-1-,5-4-,8-3-,9-6-	InChI=1S/C6H7N3/c1-2-7-4-5-9-6-8-3-1/h1-7H/b2-1?,5-4-,8-3?,9-6-
