15
gdb 28528	3.21428	1.36994	0.96154	1.4583	73.4	-0.1921	-0.0081	0.1839	1143.2711	0.114416	-454.013468	-454.005624	-454.00468	-454.045324	30.892	
N	-0.0494941169	 1.4228356344	-0.07096061	-0.595662
C	 0.0027491489	 0.0229941372	-0.0366348021	 0.28239
C	-1.1581199229	-0.7499791675	-0.0463963578	-0.089814
N	-1.1431049873	-2.0909906161	-0.081529702	-0.347821
C	 0.015488256	-2.7045071099	-0.1029314195	 0.297731
O	 0.0638271935	-4.0703762826	-0.1352842083	-0.454937
C	 1.2506177994	-2.0341495456	-0.09008695	 0.299219
O	 2.4224851588	-2.7187824648	-0.1076136769	-0.4447
C	 1.2339541442	-0.6528320878	-0.0582164178	-0.244734
H	 0.7367501532	 1.8758895419	 0.3736438246	 0.246631
H	-0.9186882583	 1.8057494446	 0.2744066455	 0.246478
H	-2.1363863106	-0.2764018549	-0.0295372139	 0.092348
H	-0.8520509301	-4.3762189765	-0.140341207	 0.299781
H	 2.2060134877	-3.6595694061	-0.1326212254	 0.310747
H	 2.1739157645	-0.1109269762	-0.0560922996	 0.102345
147.8887	227.8122	252.7897	297.458	325.0629	361.2729	415.3556	463.7412	480.7789	489.7592	514.0437	601.9533	618.739	676.204	743.7805	764.8174	811.9249	877.7315	898.9326	1003.6268	1101.4922	1153.5021	1208.4757	1221.3891	1302.5715	1344.9597	1362.2118	1409.1193	1517.1863	1532.0023	1642.78	1655.4849	1673.2657	3155.0382	3187.4398	3552.796	3647.4106	3788.4924	3793.446
NC1=CN=C(O)C(O)=C1	Nc1cnc(O)c(O)c1	
InChI=1S/C5H6N2O2/c6-3-1-4(8)5(9)7-2-3/h1-2,8H,6H2,(H,7,9)	InChI=1S/C5H6N2O2/c6-3-1-4(8)5(9)7-2-3/h1-2,8H,6H2,(H,7,9)
