20
gdb 90803	3.1677	1.71816	1.37831	1.6919	80.45	-0.213	0.0691	0.2821	997.713	0.173669	-365.948292	-365.941209	-365.940265	-365.979636	29.453	
C	-0.6698459533	 1.4241886438	 0.0256875366	-0.400576
C	 0.0653014229	 0.0803724209	-0.0310751447	 0.015036
C	 0.8288049467	-0.1076544564	-1.3539632208	-0.259753
C	 2.1067164879	-0.8920404385	-1.1449890123	-0.037344
C	 3.1413551139	-0.4719769506	-0.1330234736	-0.108658
C	 2.3878991496	-1.7661729625	 0.0510732105	-0.033167
N	 1.7878099688	-1.3214775671	 1.3739320094	-0.178389
C	 2.4657096462	 0.0101713263	 1.1638278473	-0.061412
C	 0.9850329594	-0.0935250067	 1.1622462895	-0.015079
H	 0.0397223928	 2.2586833035	-0.0040049531	 0.118456
H	-1.3491021854	 1.5319404426	-0.826480587	 0.113895
H	-1.2628536456	 1.5179181564	 0.9417055141	 0.112861
H	-0.684336449	-0.7186688564	 0.0545068665	 0.08414
H	 0.1887431144	-0.6080088834	-2.0884037634	 0.100399
H	 1.0856806722	 0.8707394579	-1.7812026312	 0.09724
H	 2.5592381563	-1.2903313311	-2.0503491765	 0.087918
H	 4.1834543326	-0.3016087461	-0.3674580057	 0.089724
H	 2.7118177118	-2.7968911139	-0.0179645255	 0.095464
H	 3.0202517895	 0.476495846	 1.9726626314	 0.09068
H	 0.5236901184	 0.1963036054	 2.1061844486	 0.088565
82.294	229.6334	273.9555	328.576	408.8603	468.7381	526.6994	587.7553	686.0038	706.6688	727.6444	741.447	819.5301	853.1457	877.8458	906.7378	916.638	957.9376	975.6121	1000.8918	1035.4127	1050.2401	1059.0686	1061.1007	1072.3714	1102.8668	1134.2758	1141.2786	1174.6779	1236.13	1260.7294	1270.5764	1312.4495	1318.881	1341.4567	1355.8795	1369.0703	1407.2914	1434.2118	1443.8874	1493.95	1498.3683	1499.9722	2999.5749	3014.5401	3027.0098	3062.6932	3096.8602	3098.2982	3107.3926	3136.3803	3149.7108	3185.94	3202.5373
CC1CC2C3C2N2C3C12	C[C@H]1C[C@H]2[C@@H]3[C@H]2N2[C@@H]3[C@@H]12	
InChI=1S/C8H11N/c1-3-2-4-5-7(4)9-6(3)8(5)9/h3-8H,2H2,1H3	InChI=1S/C8H11N/c1-3-2-4-5-7(4)9-6(3)8(5)9/h3-8H,2H2,1H3/t3-,4-,5+,6+,7-,8-,9?/m0/s1
