12
gdb 130102	5.70774	1.37939	1.11298	8.4964	62.08	-0.2548	-0.0106	0.2442	975.0992	0.080957	-461.129737	-461.123236	-461.122292	-461.160462	24.778	
N	 0.0070825745	 1.319875378	-0.1292338429	-0.59109
C	-0.0038444562	-0.0488878846	-0.0269667034	 0.471962
N	-1.0895136231	-0.7873454151	 0.014189276	-0.311153
N	-0.5647464429	-2.0591618853	-0.0053424168	 0.111195
N	-1.0423536903	-3.3181691992	 0.017531666	-0.153536
N	 0.0257402089	-4.0665682361	 0.0023943115	-0.106586
N	 1.1961890123	-3.3475407706	-0.0225395428	-0.357788
C	 0.774389986	-2.1032563074	-0.0275141504	 0.533432
N	 1.1721694902	-0.7852910141	-0.027001503	-0.447827
H	 0.6643297461	 1.7921401368	 0.4774215128	 0.270421
H	-0.9229618769	 1.7107944355	-0.0555066551	 0.284684
H	 2.0952822413	-0.437875408	-0.2212408418	 0.296286
152.2956	279.3506	318.6855	326.9216	357.0978	391.0292	531.5566	604.469	655.4242	694.4048	730.4688	764.7487	818.204	872.3575	978.1881	1003.1855	1089.8817	1120.7208	1173.0353	1271.0182	1287.148	1338.7505	1473.2332	1506.3431	1602.0408	1632.0116	1673.6888	3552.7804	3651.5594	3685.5098
NC1=NN2N=NN=C2N1	Nc1nn2nnnc2[nH]1	
InChI=1S/C2H3N7/c3-1-4-2-5-7-8-9(2)6-1/h(H3,3,4,5,6,8)	InChI=1S/C2H3N7/c3-1-4-2-5-7-8-9(2)6-1/h(H3,3,4,5,6,8)
