23
gdb 114206	2.70122	1.16934	0.95001	1.5935	86.28	-0.2213	0.084	0.3053	1370.554	0.20421	-388.269703	-388.259859	-388.258915	-388.304797	37.136	
C	 0.3526111261	 1.4978372726	 0.1144240326	-0.382852
C	 0.1445296192	-0.0196049123	 0.0648737043	-0.189106
C	 0.472661185	-0.5885648839	-1.3053431011	 0.148888
O	 1.8743099779	-0.4082538446	-1.6507743164	-0.328282
C	 2.0406523663	-1.8101310661	-1.8553427263	 0.474934
C	 2.9199442674	-2.3407585305	-2.93755538	-0.337834
C	 3.3046945766	-2.5083034967	-1.471627292	-0.335225
C	 0.5852119909	-2.1292425916	-1.5120521955	-0.164803
C	 0.3168277549	-3.06960413	-0.3445230252	-0.40827
H	 1.3845381611	 1.7476705949	-0.1475462554	 0.137658
H	-0.3073633843	 2.0119988968	-0.5932684835	 0.111786
H	 0.1465485467	 1.8940430413	 1.1131093733	 0.109268
H	 0.7725564604	-0.5021488288	 0.8217699064	 0.100101
H	-0.8974812866	-0.2678541904	 0.3065496254	 0.093202
H	-0.1605901535	-0.1040138379	-2.0621804235	 0.070185
H	 2.5956585509	-3.2158767373	-3.4925003281	 0.109922
H	 3.4775744985	-1.6144906673	-3.5193346071	 0.121523
H	 4.1113170462	-1.8887801892	-1.0940913632	 0.121608
H	 3.2462543492	-3.4974741334	-1.0284378564	 0.111451
H	 0.0159912114	-2.458892555	-2.3864699554	 0.079133
H	 0.9069128274	-2.8063514751	 0.5372924028	 0.124621
H	-0.7413474721	-3.0602634032	-0.0630308187	 0.1168
H	 0.5731219003	-4.0991904824	-0.6171663368	 0.115295
35.6481	99.1702	163.3959	199.5737	202.9758	227.7933	252.1273	305.8768	356.6728	411.165	471.1434	523.1853	601.7056	751.9116	765.1866	773.5714	836.596	867.6194	884.9307	937.6766	942.1286	969.7821	978.6292	1031.6923	1044.2168	1059.9894	1065.2525	1086.9079	1108.1111	1153.6021	1178.4411	1187.9502	1226.3876	1254.6933	1286.6194	1307.2581	1349.0341	1355.2578	1391.9331	1406.7406	1409.8945	1421.7803	1447.3393	1473.5718	1494.257	1497.3788	1498.6831	1503.7195	1510.09	2994.5288	3023.9478	3035.1308	3035.6835	3055.9513	3070.3241	3094.9847	3102.7558	3117.1423	3119.9773	3123.3796	3126.7446	3206.6935	3221.1175
CCC1OC2(CC2)C1C	CC[C@H]1OC2(CC2)[C@H]1C	
InChI=1S/C8H14O/c1-3-7-6(2)8(9-7)4-5-8/h6-7H,3-5H2,1-2H3	InChI=1S/C8H14O/c1-3-7-6(2)8(9-7)4-5-8/h6-7H,3-5H2,1-2H3/t6-,7+/m0/s1
