21
gdb 120649	4.57594	0.7061	0.66589	2.4617	76.56	-0.2565	0.0779	0.3343	1745.8185	0.179096	-461.32784	-461.317114	-461.31617	-461.364413	37.674	
C	-0.4524375585	 1.2288507201	-0.0714505692	-0.22489
O	-0.2237287061	-0.1583098521	-0.1401596582	-0.232586
C	 0.8055396689	-0.4991488423	-1.0424040491	-0.091189
C	 0.9621453096	-1.9972634335	-1.018749952	-0.007026
O	 0.2169753539	-2.7654722426	-1.9729655093	-0.301082
C	 1.6596385262	-2.7710401574	-2.0579079827	 0.345874
C	 2.2563139668	-2.145606298	-3.2997505088	-0.467292
C	 2.2353456465	-4.12730167	-1.684758747	-0.115078
O	 1.9355564701	-5.0941511305	-2.6768168388	-0.416839
H	 0.4448224314	 1.7750837664	 0.2617903515	 0.103008
H	-0.7621702602	 1.6412819605	-1.0446566743	 0.106873
H	-1.2543893733	 1.3916510348	 0.6523081349	 0.130786
H	 0.5661222995	-0.1537213096	-2.0587123923	 0.0993
H	 1.7557765216	-0.0224144538	-0.7401889597	 0.089402
H	 0.9384411293	-2.4047192329	-0.0063354211	 0.09478
H	 1.6706434845	-1.2925699043	-3.6448347852	 0.126509
H	 3.2829390897	-1.814094757	-3.1089460493	 0.121335
H	 2.2879811446	-2.8932552923	-4.0972232718	 0.142465
H	 3.3279287587	-4.0785399509	-1.6217403486	 0.108923
H	 1.8496598876	-4.4301389072	-0.7005058333	 0.092733
H	 0.9739552594	-5.1138810675	-2.7514031556	 0.293993
51.607	76.0362	85.2356	124.5257	180.4625	190.4957	232.9231	272.0411	304.1597	333.788	361.4079	431.6833	456.0533	517.3781	632.3396	717.0079	844.0211	891.5054	931.5675	972.4564	984.9762	1055.1438	1063.323	1107.4276	1116.6555	1139.8341	1165.4375	1185.1708	1202.6871	1227.8765	1262.1537	1276.3266	1329.0747	1376.1261	1405.9722	1414.3766	1425.1667	1469.8062	1476.2175	1485.2331	1491.9584	1495.6946	1496.8332	1514.6997	1523.9733	2942.9726	2969.0902	2998.8304	3010.0592	3013.5678	3044.2426	3073.9399	3098.5069	3110.4178	3117.3909	3143.7623	3792.3791
COCC1OC1(C)CO	COC[C@H]1O[C@]1(C)CO	
InChI=1S/C6H12O3/c1-6(4-7)5(9-6)3-8-2/h5,7H,3-4H2,1-2H3	InChI=1S/C6H12O3/c1-6(4-7)5(9-6)3-8-2/h5,7H,3-4H2,1-2H3/t5-,6-/m1/s1
