21
gdb 120578	3.87921	0.74016	0.69216	3.322	85.68	-0.2653	0.0187	0.284	1710.3427	0.1813	-383.273813	-383.263445	-383.262501	-383.309775	37.061	
C	-0.2007473301	 1.5331533024	 0.0303900904	-0.384073
C	-0.136506671	 0.0110108154	-0.1149397003	-0.161867
C	 0.9833758165	-0.4507543387	-1.058918089	-0.19264
C	 1.0238984084	-1.9560364787	-1.1873974789	-0.041716
N	 0.0993838656	-2.5882733065	-2.1342604922	-0.354281
C	 1.5548583231	-2.6850752448	-2.3928529492	 0.149714
C	 2.0791135015	-1.9965960921	-3.6385108749	-0.454393
C	 2.1809153697	-3.960919397	-2.1105331046	 0.236979
N	 2.6737108629	-4.9859523234	-1.8967947663	-0.341266
H	 0.7373235639	 1.9344013401	 0.4298994798	 0.115797
H	-0.3816727849	 2.0157564798	-0.9363473016	 0.117835
H	-1.006117555	 1.8332650611	 0.7075337241	 0.116411
H	 0.009058918	-0.4471816255	 0.8722026848	 0.097052
H	-1.0932179777	-0.3684254283	-0.4934888091	 0.11313
H	 0.8357265226	 0.003409731	-2.0434542256	 0.10664
H	 1.9536352416	-0.0987475959	-0.6843068672	 0.104706
H	 1.1826364822	-2.4767291891	-0.2433237676	 0.104576
H	-0.2613893114	-3.4667080751	-1.7707358872	 0.249209
H	 1.5177481626	-1.0816001119	-3.8284197097	 0.140519
H	 3.1395539198	-1.7507368393	-3.5303025961	 0.136282
H	 1.9660192316	-2.6511611736	-4.5074687799	 0.141386
58.2425	78.1796	99.6358	156.3506	161.6081	200.4699	245.8403	261.4538	314.6472	373.1006	407.5627	480.3209	585.5873	603.9738	680.0458	746.5473	817.1621	845.38	898.0408	906.8248	972.8026	996.2087	1049.5475	1077.3829	1098.5973	1109.5771	1116.5497	1141.4204	1228.3145	1270.274	1286.781	1305.8702	1328.3539	1340.0262	1386.2685	1412.2217	1416.2633	1454.4847	1471.7311	1486.0386	1491.9206	1497.1928	1500.0421	1509.0065	2344.4469	3019.5214	3026.3983	3031.3444	3051.6011	3056.4954	3084.6782	3099.2022	3105.3007	3114.9515	3117.4351	3152.8516	3509.468
CCCC1NC1(C)C#N	CCC[C@H]1N[C@]1(C)C#N	
InChI=1S/C7H12N2/c1-3-4-6-7(2,5-8)9-6/h6,9H,3-4H2,1-2H3	InChI=1S/C7H12N2/c1-3-4-6-7(2,5-8)9-6/h6,9H,3-4H2,1-2H3/t6-,7-/m1/s1
