16
gdb 27237	2.19895	1.9365	1.05423	5.0729	73.37	-0.1748	0.044	0.2189	1086.734	0.126607	-434.079531	-434.071466	-434.070522	-434.112349	29.942	
N	 0.1304204516	 1.4414494727	 0.0393192061	-0.603877
C	-0.0037072269	 0.0453668937	 0.0364393712	 0.130585
C	-1.0393953356	-0.8194798987	 0.0164368157	 0.24019
C	-2.4547844178	-1.2662887043	-0.3031735329	-0.378944
C	-1.8062115177	-2.6736660768	-0.6072172026	-0.164522
N	-0.5300544322	-2.1170847977	-0.1229827363	-0.11239
C	 0.8443280392	-2.1212619748	-0.2949321624	 0.428398
O	 1.6165887325	-3.0241573846	-0.539250626	-0.431223
N	 1.145280528	-0.764777267	-0.0590261203	-0.380328
H	 0.5342984206	 1.7914314901	 0.9041808307	 0.248203
H	-0.7667573766	 1.8926815701	-0.089989795	 0.247884
H	-3.1550976389	-1.2718453758	 0.536326627	 0.124984
H	-2.9316531681	-0.7856861369	-1.1603945526	 0.125991
H	-2.1764487312	-3.5172642195	-0.020498357	 0.128473
H	-1.7903155622	-2.939504973	-1.6678514336	 0.133424
H	 2.0776238853	-0.4082114975	-0.1818420019	 0.263152
75.1664	170.3018	174.3874	212.2116	260.2729	323.4862	364.5211	439.1723	604.5974	631.6426	662.1542	685.7387	727.3233	735.5266	792.7366	816.377	903.0186	966.6465	1040.6226	1065.2158	1132.8429	1144.1602	1189.0844	1228.8356	1229.5979	1263.3373	1298.6619	1323.2689	1359.9572	1420.4261	1484.6914	1516.9725	1645.9827	1742.9516	1834.8388	3058.4414	3063.4611	3103.9454	3120.2653	3484.3829	3596.8239	3679.8136
NC1=C2CCN2C(=O)N1	N[C]1[C]2CCN2C(=O)N1	
InChI=1S/C5H7N3O/c6-4-3-1-2-8(3)5(9)7-4/h1-2,6H2,(H,7,9)	InChI=1S/C5H7N3O/c6-4-3-1-2-8(3)5(9)7-4/h1-2,6H2,(H,7,9)
