17
gdb 43280	2.83017	1.80595	1.44331	3.4598	77.6	-0.2312	-0.0503	0.1809	941.2934	0.13786	-384.678204	-384.671287	-384.670343	-384.709299	27.984	
O	-0.0468215886	-0.0399272216	-0.1187699669	-0.334013
C	-0.0436894832	 1.162159767	 0.0055353594	 0.321581
C	-1.2529460961	 2.0446641238	 0.1765593878	-0.187965
C	-0.9334353919	 3.3468429486	 0.0640246662	-0.168446
C	 0.5366354275	 3.5188572659	-0.0815446891	 0.217344
C	 1.3869109347	 3.0600593973	 1.0721272071	-0.346828
C	 1.127437204	 2.1080617257	-0.0733181418	 0.130782
C	 2.0138417089	 2.4488837151	-1.2904484428	-0.2878
C	 1.392264646	 3.8866789869	-1.3165712792	-0.285834
H	-2.2372360469	 1.631671605	 0.3622476785	 0.117544
H	-1.6389288614	 4.1704388899	 0.1190884295	 0.115747
H	 2.3945796304	 3.4502580555	 1.1946904923	 0.121281
H	 0.861785766	 2.8626046603	 1.999037809	 0.13186
H	 3.0917499654	 2.3794133429	-1.1203246721	 0.108485
H	 1.7626777887	 1.8581985357	-2.1726555348	 0.124622
H	 0.7877953121	 4.0635766914	-2.207796552	 0.115988
H	 2.0774223444	 4.7291387405	-1.1856197511	 0.105652
121.9066	224.3985	235.4444	357.728	379.3422	449.1779	577.6369	599.5535	681.7522	717.6494	745.1331	771.3741	785.8932	840.2263	851.077	921.0376	937.1928	954.057	971.4583	980.8198	1037.404	1080.3418	1106.2158	1117.1332	1133.2418	1215.6641	1240.1712	1242.9872	1259.9111	1309.0643	1340.3273	1371.1025	1475.8361	1479.7574	1498.9228	1603.3178	1807.2374	3056.4695	3063.9216	3113.1815	3116.5147	3131.2941	3173.7372	3215.8627	3221.228
O=C1C=CC23CC12CC3	O=C1C=C[C@@]23C[C@@]12CC3	
InChI=1S/C8H8O/c9-6-1-2-7-3-4-8(6,7)5-7/h1-2H,3-5H2	InChI=1S/C8H8O/c9-6-1-2-7-3-4-8(6,7)5-7/h1-2H,3-5H2/t7-,8+/m1/s1
