21
gdb 91645	2.4687	1.65277	1.34308	1.7094	77.45	-0.2437	0.0666	0.3103	1060.6402	0.18236	-424.204599	-424.195939	-424.194995	-424.237038	34.669	
C	-0.2270726438	 1.6129490565	-0.098331888	-0.475565
C	-0.0285854025	 0.1021696547	-0.0075686286	 0.338453
C	-1.3516715729	-0.617780825	-0.2893123083	-0.449544
C	 1.1704456871	-0.5887458161	-0.7286579081	 0.046016
C	 2.4306813057	 0.1655105154	-0.2658381609	-0.281459
C	 2.1109072427	 0.1484196056	 1.2707627642	 0.119488
O	 2.0130365988	 1.406031371	 1.9138327096	-0.434743
C	 0.7439897467	-0.5625979528	 1.1769473266	 0.016688
O	 1.1086296831	-1.6557344292	 0.2779365309	-0.308112
H	 0.6622824974	 2.1838037593	 0.1607808523	 0.133378
H	-0.5439924745	 1.8853304692	-1.112220982	 0.105844
H	-1.024283248	 1.9284711382	 0.5838949369	 0.115954
H	-1.7306094337	-0.3451968919	-1.2810461096	 0.107632
H	-1.2341421165	-1.7015553723	-0.2490182249	 0.134376
H	-2.1122771106	-0.3218385845	 0.4418082171	 0.110049
H	 1.1105147233	-0.9431553056	-1.7591976492	 0.072707
H	 3.3365929392	-0.390911737	-0.5158473316	 0.103776
H	 2.5158305911	 1.1812691267	-0.6601058677	 0.10232
H	 2.8092924692	-0.5037384389	 1.8089951924	 0.080964
H	 2.9023133951	 1.752822222	 2.0305665224	 0.287631
H	 0.2620808731	-0.8768524254	 2.1036892567	 0.074149
152.8888	182.6195	224.403	243.5889	247.4082	278.7997	362.0647	376.5451	385.882	454.9395	531.6804	583.4659	630.6745	716.3733	812.6506	846.1999	864.0415	912.5648	934.6487	948.2962	959.9747	977.3496	1007.2636	1029.0001	1054.2564	1075.7913	1142.6079	1165.1524	1200.2224	1209.3062	1232.1901	1246.8711	1257.8293	1267.9982	1304.2364	1331.0773	1358.0099	1399.5065	1419.9318	1427.1491	1479.7858	1484.1896	1496.3462	1507.2531	1520.6122	3025.8506	3028.3892	3034.007	3068.4861	3082.947	3088.3196	3105.7879	3116.1907	3119.7956	3138.8149	3165.7127	3828.8349
CC1(C)C2CC(O)C1O2	CC1(C)[C@H]2C[C@@H](O)[C@@H]1O2	
InChI=1S/C7H12O2/c1-7(2)5-3-4(8)6(7)9-5/h4-6,8H,3H2,1-2H3	InChI=1S/C7H12O2/c1-7(2)5-3-4(8)6(7)9-5/h4-6,8H,3H2,1-2H3/t4-,5-,6+/m1/s1
