16
gdb 46290	3.16608	1.39844	1.25851	3.9493	70.13	-0.2233	0.013	0.2363	1023.1729	0.126504	-434.093027	-434.085283	-434.084338	-434.125765	28.655	
O	-0.0013610078	 0.0254602082	-0.1400737521	-0.358612
C	-0.0274358323	 1.2229196244	-0.0419962506	 0.364401
N	-1.0377860908	 2.1433409278	 0.0679492536	-0.332667
C	-0.1813121418	 3.3336908821	 0.0515213217	-0.212449
C	 1.0429874309	 2.3603156936	-0.0035138462	 0.183417
C	 2.0477356417	 2.3550459214	 1.1905989622	-0.237569
N	 3.3958424211	 2.3090793259	 0.6061808478	-0.237985
C	 3.2359998599	 2.3204462547	-0.6563090711	 0.06745
N	 1.9396092889	 2.4600989676	-1.1436491743	-0.35678
H	-2.0386987569	 2.0327340614	 0.123330672	 0.25671
H	-0.2932854828	 3.9585122374	-0.8397762248	 0.1173
H	-0.2479702578	 3.9513527328	 0.9532987387	 0.115497
H	 1.9358274291	 3.2559257456	 1.804528508	 0.116637
H	 1.8992427292	 1.4899769336	 1.8453358179	 0.133889
H	 4.0559726872	 2.2764603671	-1.3674069753	 0.129166
H	 1.6923465823	 1.9698100165	-1.9921845376	 0.251596
83.3426	88.3051	170.0786	253.6004	286.2749	433.7692	466.3538	496.358	506.6393	629.7826	728.749	767.7047	831.8821	863.0005	882.4312	948.767	969.9856	982.7509	994.3027	1074.6371	1118.8124	1149.6646	1156.9143	1182.1943	1207.6899	1228.8669	1291.6283	1324.6082	1346.032	1387.1537	1422.8648	1486.3196	1526.1832	1704.3123	1892.4538	3036.6118	3039.0949	3073.6392	3092.1856	3187.1533	3591.8	3624.1303
O=C1NCC11CN=CN1	O=C1NC[C@]21CN=CN2	
InChI=1S/C5H7N3O/c9-4-5(2-7-4)1-6-3-8-5/h3H,1-2H2,(H,6,8)(H,7,9)	InChI=1S/C5H7N3O/c9-4-5(2-7-4)1-6-3-8-5/h3H,1-2H2,(H,6,8)(H,7,9)/t5-/m0/s1
