15
gdb 61133	6.20143	0.59862	0.55741	1.4561	91.17	-0.2523	-0.0294	0.2229	1871.7051	0.108196	-383.392296	-383.382313	-383.381369	-383.427698	35.637	
O	-0.0859320026	 1.4513217393	 0.0179188603	-0.397932
C	-0.0017593331	 0.0370962184	 0.0161278517	-0.112439
C	 0.6692458966	-0.5129020613	-1.274973684	-0.36654
C	-0.0351779574	-0.112943066	-2.4839866828	 0.310811
C	-0.6303032146	 0.2092741692	-3.4764797773	-0.437149
C	 0.6896460157	-0.4737674192	 1.2017518101	 0.390556
C	 1.2977217395	-0.8732195886	 2.1694670811	-0.227752
C	 1.9745104693	-1.3226116674	 3.2608581527	 0.281976
C	 2.5768316106	-1.7212287727	 4.2283414859	-0.543585
H	 0.8050708544	 1.802423478	 0.1295561464	 0.288493
H	-1.0424472184	-0.3065848725	 0.0279488152	 0.138671
H	 1.7085361959	-0.1610325946	-1.3015424124	 0.133234
H	 0.7153892178	-1.6061736003	-1.2041746594	 0.14601
H	-1.1513200803	 0.4974709448	-4.3556609889	 0.199137
H	 3.1041581465	-2.0719011171	 5.0807190613	 0.19651
55.1509	63.4939	119.3002	153.2902	225.6461	248.0084	305.938	339.7882	355.6523	435.8385	490.9921	512.5971	541.3101	558.0129	597.1179	611.9115	622.9833	651.2241	782.1789	861.2773	969.1076	1008.5022	1072.7025	1160.9185	1196.6971	1271.6082	1311.0913	1350.5526	1419.5013	1462.7564	2180.7263	2243.5638	2358.8003	3025.351	3050.3181	3068.3343	3503.8128	3506.5857	3799.9878
OC(CC#C)C#CC#C	O[C@@H](CC#C)C#CC#C	
InChI=1S/C8H6O/c1-3-5-7-8(9)6-4-2/h1-2,8-9H,6H2	InChI=1S/C8H6O/c1-3-5-7-8(9)6-4-2/h1-2,8-9H,6H2/t8-/m0/s1
