21
gdb 31235	2.1438	1.37289	0.8961	1.4029	88.05	-0.1638	0.049	0.2128	1365.9436	0.183385	-383.301783	-383.291955	-383.291011	-383.337165	36.179	
C	-0.288746246	 1.5591026031	 0.0042993944	-0.362202
C	 0.02395793	 0.0495906921	 0.0078077352	-0.311759
C	 0.782486002	-0.4327241523	-1.1856123216	 0.219289
C	 2.1364654095	-0.6736517642	-1.3548543406	 0.220375
N	 3.1140182508	-0.5372749381	-0.3489950473	-0.391563
C	 4.4996639892	-0.7263957803	-0.7393673077	-0.317403
C	 2.3333215493	-1.1265506391	-2.6939769125	-0.229101
C	 1.0988316987	-1.1461119576	-3.3049007489	-0.095151
N	 0.1749888042	-0.7165284867	-2.3948989704	-0.294065
H	 0.6311348544	 2.1509912794	-0.0396190103	 0.114924
H	-0.8941565426	 1.8344430463	-0.8656439029	 0.110511
H	-0.8397891788	 1.8511082304	 0.9047635165	 0.108154
H	 0.6074651531	-0.1998712102	 0.901852834	 0.113366
H	-0.9178525881	-0.5089902395	 0.1026541821	 0.096141
H	 2.9948725875	 0.3155542648	 0.180065483	 0.225977
H	 5.1418006526	-0.5578545663	 0.1294184958	 0.113265
H	 4.6527561314	-1.7591561835	-1.0703978198	 0.12907
H	 4.8349413526	-0.0613517274	-1.5535423311	 0.102032
H	 3.2677978678	-1.4058901559	-3.1536013426	 0.08586
H	 0.8109059518	-1.4292097208	-4.3043476215	 0.109733
H	-0.8130690695	-0.6473329543	-2.5625106238	 0.252547
42.2572	62.1516	140.7974	176.1615	208.2255	234.5208	293.3703	307.723	389.3689	418.9138	480.5219	572.123	626.5148	657.9809	674.0085	710.2025	763.5863	779.7015	798.2133	914.158	957.9602	1020.803	1068.3675	1079.7994	1112.7252	1113.839	1153.2516	1156.259	1207.8792	1253.58	1301.1568	1345.461	1354.1102	1406.517	1432.6926	1457.6564	1469.3488	1484.3504	1489.1531	1496.0165	1498.1309	1505.3379	1519.463	1529.6335	1636.109	2956.5777	3005.4689	3029.5136	3056.3237	3060.5982	3099.5848	3104.0826	3108.2952	3252.2496	3271.8222	3567.6579	3684.5318
CCC1=C(NC)C=CN1	CCc1c(NC)cc[nH]1	
InChI=1S/C7H12N2/c1-3-6-7(8-2)4-5-9-6/h4-5,8-9H,3H2,1-2H3	InChI=1S/C7H12N2/c1-3-6-7(8-2)4-5-9-6/h4-5,8-9H,3H2,1-2H3
