19
gdb 79361	2.34612	1.93775	1.81478	0.9162	72.45	-0.221	0.0638	0.2848	902.5539	0.1628	-423.024178	-423.017168	-423.016223	-423.055281	28.954	
O	-0.1912379841	 1.4648624651	-0.0884777874	-0.432718
C	-0.0632409826	 0.0512083205	-0.045593374	 0.110678
C	-1.4070280644	-0.6334409567	-0.1655086218	-0.123936
C	-1.9201768567	-0.7628216358	-1.5972363796	-0.075245
C	-1.2908870837	 0.0753832071	-2.7013412467	-0.220335
C	 0.2552488022	 0.1377903495	-2.560433111	-0.194337
C	 0.6858712736	-0.5578763036	-1.2663150998	 0.007418
O	 0.2499413269	-1.9227483397	-1.3016317743	-0.26605
C	-1.1234522985	-1.8735554956	-0.9695342968	 0.09165
H	 0.6700959029	 1.8491702435	 0.1035063984	 0.283903
H	 0.4239443884	-0.2617394322	 0.8895887283	 0.071059
H	-2.0945035594	-0.6159893957	 0.6709332583	 0.08667
H	-2.988076933	-0.9372037349	-1.6897109543	 0.082821
H	-1.5641314954	-0.3490595528	-3.6732548146	 0.099951
H	-1.7147904271	 1.0835498726	-2.6672683062	 0.11229
H	 0.7454909773	-0.3741092641	-3.3932667409	 0.101339
H	 0.6017253238	 1.1740949115	-2.5586542945	 0.09601
H	 1.7731038461	-0.5671555888	-1.150349218	 0.070747
H	-1.5352541763	-2.8531859299	-0.7615772449	 0.098084
126.1322	217.0329	285.9294	296.8154	406.1617	447.1105	541.2193	581.3896	630.7514	668.3876	765.8003	786.8161	814.5595	824.4169	882.9549	911.7179	921.2975	975.5056	1027.2078	1042.427	1059.6208	1076.459	1086.7661	1100.9459	1110.6582	1124.0117	1160.2923	1214.2777	1229.6922	1269.1876	1279.8651	1295.1328	1324.7797	1339.2823	1356.1758	1371.1545	1382.4567	1420.0339	1445.2707	1470.9418	1498.8897	2990.9168	3039.7744	3058.173	3074.0811	3076.1809	3106.7668	3149.7602	3184.265	3195.7123	3815.63
OC1C2C3CCC1OC23	O[C@H]1[C@H]2[C@H]3CC[C@@H]1O[C@@H]23	
InChI=1S/C7H10O2/c8-6-4-2-1-3-5(6)7(3)9-4/h3-8H,1-2H2	InChI=1S/C7H10O2/c8-6-4-2-1-3-5(6)7(3)9-4/h3-8H,1-2H2/t3-,4+,5-,6-,7-/m1/s1
