17
gdb 7654	3.93229	1.5814	1.37826	11.7255	65.18	-0.1772	-0.0034	0.1737	931.1771	0.143771	-400.962216	-400.954534	-400.95359	-400.994963	28.223	
C	 0.7778187459	 1.3596921349	 0.1701012989	-0.377268
N	 0.091286001	 0.0444109002	 0.0149488245	-0.080575
H	-0.9004036126	 0.1940122961	-0.1554131204	 0.282475
C	 0.3477977708	-0.9883398598	 1.1242974407	-0.181254
C	 1.1839469297	-1.8547689149	 0.1571719471	-0.124446
C	 0.7196703312	-0.9328400408	-0.9915999961	-0.181252
C	 2.735279948	-1.68784113	 0.4341931932	 0.353276
O	 3.3862186599	-2.7250373458	 0.5213333514	-0.440446
O	 3.068883799	-0.4748204958	 0.5245460168	-0.492553
H	 1.8319424191	 1.1149362639	 0.3489314349	 0.25149
H	 0.6373946524	 1.9329630587	-0.7490368132	 0.146044
H	 0.3275075688	 1.8867120463	 1.0142853171	 0.146043
H	 0.9037673382	-0.5311116907	 1.9414522073	 0.173584
H	-0.606906253	-1.3948445808	 1.4637497077	 0.128542
H	 0.8828591756	-2.8972186171	 0.0769104926	 0.094212
H	-0.0585604822	-1.3130061468	-1.6562523231	 0.12854
H	 1.5166952584	-0.4396334975	-1.5460386094	 0.173589
31.5386	162.129	228.1124	229.2997	296.2498	356.7178	404.5848	417.8824	603.2287	722.7759	767.4787	806.9555	814.0104	863.1059	891.4928	958.296	1012.2509	1024.7612	1051.346	1105.6628	1112.7113	1223.4076	1239.2755	1243.4895	1280.5667	1292.1738	1298.1524	1325.4046	1358.5811	1403.3406	1432.9294	1457.1738	1479.4365	1488.47	1533.5611	1788.5326	3010.6821	3079.6175	3082.6013	3122.1816	3134.1639	3144.876	3165.6546	3165.9782	3497.4567
C[NH+]1CC(C1)C([O-])=O	C[NH]1CC(C1)C(=O)[O]	
InChI=1S/C5H9NO2/c1-6-2-4(3-6)5(7)8/h4H,2-3H2,1H3,(H,7,8)	InChI=1S/C5H9NO2/c1-6-2-4(3-6)5(7)8/h4,6H,2-3H2,1H3
