14
gdb 116995	5.23606	0.57908	0.52486	4.2363	80.43	-0.2841	-0.1059	0.1782	1958.1755	0.097932	-436.659194	-436.649613	-436.648669	-436.69515	31.513	
C	-0.1174770286	 1.4076341749	 0.0109023129	-0.232331
O	-0.0026651828	-0.0004568627	 0.0021422556	-0.213612
C	-1.2314964791	-0.6450637299	 0.0103584986	-0.158901
C	-1.0258518041	-2.1506126584	 0.0002556616	 0.191639
O	 0.0459268065	-2.7009801527	-0.0129676141	-0.235464
C	-2.2704233541	-2.9183695185	 0.007999474	 0.071129
C	-3.2831345297	-3.5801412512	 0.0140268997	 0.053066
C	-4.4310615127	-4.3186767798	 0.0210564201	 0.219499
N	-5.4113912021	-4.9413953183	 0.026775865	-0.316342
H	 0.897330011	 1.8092817986	 0.003464136	 0.143726
H	-0.6564538753	 1.7765383674	-0.874891129	 0.113777
H	-0.6395150192	 1.7668094185	 0.9107276121	 0.113776
H	-1.8395693762	-0.3938757261	 0.9005137606	 0.125018
H	-1.8563771635	-0.3843372119	-0.8652981331	 0.12502
58.5235	66.8184	79.5198	130.9833	175.9923	232.7092	246.8625	311.6414	366.8011	379.8239	539.0181	558.0177	596.315	613.6673	798.3004	955.5584	1011.8426	1031.5326	1169.7315	1175.1965	1182.0436	1244.2852	1247.9065	1408.1077	1462.9878	1488.3362	1489.9797	1512.8628	1791.5819	2251.6792	2387.5416	2929.6507	2948.2279	2981.0173	3030.2259	3131.9955
COCC(=O)C#CC#N	COCC(=O)C#CC#N	
InChI=1S/C6H5NO2/c1-9-5-6(8)3-2-4-7/h5H2,1H3	InChI=1S/C6H5NO2/c1-9-5-6(8)3-2-4-7/h5H2,1H3
