21
gdb 103760	2.67698	1.20801	0.98931	2.0977	75.22	-0.2348	0.0699	0.3048	1279.3121	0.179075	-461.329772	-461.319279	-461.318335	-461.364644	39.068	
C	 0.3685413683	 1.1217519666	 0.2738840374	-0.248183
O	-0.235744143	 0.0155622743	-0.3725046771	-0.299703
C	 0.5806977086	-0.6605838346	-1.3024977613	 0.354205
C	 0.7662977038	 0.053132225	-2.6204918613	-0.474276
C	 1.6835340666	-1.5350301324	-0.7194025575	-0.423098
C	 0.3814557402	-2.1518880426	-1.2080362463	 0.345228
O	-0.5353829909	-2.6001232363	-0.2540414152	-0.474706
C	 0.3381648055	-3.0735326281	-2.4203243229	-0.151336
O	 1.4721688095	-2.9948503483	-3.268393988	-0.404862
H	 1.2960638294	 0.8331696565	 0.786332707	 0.113752
H	 0.595089903	 1.9311782094	-0.4320040672	 0.117868
H	-0.3494646883	 1.4896066416	 1.0104358989	 0.129383
H	 1.3518400555	 0.9713282897	-2.4984423278	 0.111792
H	 1.288193091	-0.5936705963	-3.3276442223	 0.153203
H	-0.206343751	 0.3234926941	-3.0447698793	 0.122054
H	 2.5890801235	-1.6507887412	-1.3060592631	 0.104275
H	 1.8247865118	-1.5200052054	 0.3560687272	 0.114201
H	-0.900973339	-1.8020989288	 0.1541227928	 0.292107
H	 0.186801026	-4.0940249833	-2.0412456693	 0.110815
H	-0.5271998744	-2.8275747772	-3.0443649274	 0.118859
H	 2.2171103439	-3.3762593229	-2.7935545273	 0.288422
93.6989	107.2328	144.8357	170.626	205.1912	237.387	257.9466	283.7186	338.5906	350.6238	391.2539	399.2399	464.1798	481.3259	516.5997	601.6956	693.2555	734.2427	859.7302	921.7768	930.1768	949.4887	1008.7326	1032.1028	1080.624	1091.4331	1131.5471	1168.6143	1183.0983	1196.9395	1215.0801	1224.5163	1272.4601	1333.6632	1389.3342	1406.5672	1416.1177	1425.8421	1472.0438	1476.8718	1486.8284	1494.7093	1506.4145	1507.7516	1512.3451	3003.1114	3009.2834	3033.4034	3059.8339	3077.2042	3092.9924	3120.6887	3125.2792	3143.6307	3219.4852	3729.8888	3823.7631
COC1(C)CC1(O)CO	CO[C@@]1(C)C[C@]1(O)CO	
InChI=1S/C6H12O3/c1-5(9-2)3-6(5,8)4-7/h7-8H,3-4H2,1-2H3	InChI=1S/C6H12O3/c1-5(9-2)3-6(5,8)4-7/h7-8H,3-4H2,1-2H3/t5-,6-/m0/s1
