17
gdb 84799	2.68002	1.47602	1.199	4.2736	68.7	-0.2444	0.0101	0.2545	1067.1478	0.13644	-455.190501	-455.18174	-455.180796	-455.224593	31.822	
C	 0.2219718378	 1.5541992238	-0.3811735563	-0.399051
C	 0.0508589175	 0.0711700286	-0.0540689986	 0.008115
N	 0.5782670356	-0.7714313361	-1.1432834875	-0.264053
C	 1.4083593341	-1.5646660365	-0.6162851558	 0.123231
O	 1.6267102701	-1.5287031729	 0.7221732231	-0.210143
C	 0.8119079115	-0.455688126	 1.2243381915	-0.015654
C	 1.732476623	 0.5763740827	 1.885186734	 0.388741
N	 1.1967172611	 1.1786287486	 2.9880644379	-0.526037
O	 2.8138284011	 0.870512157	 1.4236486848	-0.349264
H	 1.2778088158	 1.8029865805	-0.5065680994	 0.152013
H	-0.3044651972	 1.779943378	-1.3115014173	 0.128031
H	-0.1929796674	 2.1818947881	 0.4138604365	 0.111323
H	-1.018555931	-0.1438645682	 0.0549923185	 0.091704
H	 1.989344708	-2.3159459976	-1.1386800829	 0.1454
H	 0.117574085	-0.8817978465	 1.9560769612	 0.087661
H	 0.3906449802	 0.8065221958	 3.459632556	 0.261299
H	 1.7681149248	 1.8470392807	 3.4801742745	 0.266684
50.112	66.1889	176.4739	243.2446	253.138	260.5435	344.9295	377.1832	390.0441	553.9881	578.5789	624.2997	727.5834	732.31	831.6039	857.3329	885.4695	949.8415	963.2224	1035.5532	1056.464	1091.9751	1111.1387	1130.6084	1140.2199	1264.1304	1294.2809	1305.1987	1336.8095	1357.9683	1407.9034	1418.173	1490.4594	1500.5102	1619.3946	1716.2609	1813.1922	3026.0497	3047.0231	3051.343	3120.0057	3141.572	3222.5722	3595.8758	3729.271
CC1N=COC1C(N)=O	C[C@H]1N=CO[C@H]1C(=O)N	
InChI=1S/C5H8N2O2/c1-3-4(5(6)8)9-2-7-3/h2-4H,1H3,(H2,6,8)	InChI=1S/C5H8N2O2/c1-3-4(5(6)8)9-2-7-3/h2-4H,1H3,(H2,6,8)/t3-,4-/m1/s1
