17
gdb 132489	3.0332	1.28547	0.90883	2.7957	80.15	-0.1969	0.001	0.1978	1218.1914	0.136464	-426.04792	-426.039776	-426.038832	-426.080217	31.894	
C	-0.0001357471	 1.5219233979	-0.0049857896	-0.515345
C	 0.0072710427	 0.0154042197	-0.0069260567	 0.298435
C	-0.0401419135	-0.6986937884	-1.2032377003	-0.350522
C	-0.0151479062	-2.0852216503	-1.1987859775	 0.292033
F	-0.0601902942	-2.7454013569	-2.3672363405	-0.089926
C	 0.0555595787	-2.7962463607	-0.0127689836	-0.259198
C	 0.0955016213	-2.0925931838	 1.1864593954	-0.16032
C	 0.0735089194	-0.6942684145	 1.2095765979	 0.20941
N	 0.1854332054	-0.0001512836	 2.4243921372	-0.591198
H	 0.8645169726	 1.9239783197	 0.5365961575	 0.138943
H	 0.0216897159	 1.9182874141	-1.0226372825	 0.128137
H	-0.8981054701	 1.9280461114	 0.4821362794	 0.121756
H	-0.0925668201	-0.176235069	-2.1523892796	 0.098962
H	 0.0730562146	-3.8794346939	-0.0323429778	 0.105603
H	 0.1479500311	-2.6380318184	 2.1243122546	 0.086287
H	-0.0480833213	-0.5589024525	 3.2332558051	 0.242555
H	-0.3074708489	 0.881342799	 2.4511241111	 0.244386
144.8292	175.4528	206.2754	283.7187	305.3603	334.7237	376.2787	453.0586	453.8934	493.9626	564.4934	578.9551	657.3715	729.0949	739.5656	789.912	832.255	884.6438	917.9266	970.4537	1014.7632	1058.2092	1079.308	1154.2091	1174.97	1259.311	1296.1572	1325.2036	1355.6992	1411.1985	1455.8285	1482.4225	1503.244	1540.1007	1634.3595	1650.1007	1668.7859	3005.3058	3059.303	3118.4141	3164.922	3188.6799	3205.8606	3553.7471	3648.4383
CC1=CC(F)=CC=C1N	Cc1cc(F)ccc1N	
InChI=1S/C7H8FN/c1-5-4-6(8)2-3-7(5)9/h2-4H,9H2,1H3	InChI=1S/C7H8FN/c1-5-4-6(8)2-3-7(5)9/h2-4H,9H2,1H3
