16
gdb 62380	2.69179	1.8454	1.37466	2.3003	74.71	-0.2299	-0.0068	0.2232	943.7351	0.124391	-400.655451	-400.648126	-400.647181	-400.686753	30.124	
O	 0.1710555718	 1.3433360751	-0.1034513837	-0.485067
C	 0.0932242841	-0.0447791556	-0.0542180666	 0.2879
C	 1.019899642	-0.5990719232	-1.0260877751	 0.333131
C	 1.7961428158	-1.0216449867	-1.8392134372	-0.449105
C	 0.0371544986	-0.6550914871	 1.4323681404	-0.119989
N	-1.3539825056	-0.0837688376	 1.44315985	-0.347744
C	-1.4039449973	-0.6236582972	 0.0403725215	-0.119991
C	-1.1307888811	-2.1143953341	 0.2017443366	-0.089709
C	-0.1671145856	-2.1354153132	 1.1325882815	-0.089709
H	-0.4670447463	 1.6419022941	 0.5638988303	 0.289962
H	 2.4818252438	-1.3983047205	-2.5573637332	 0.193542
H	 0.7331275573	-0.3314574966	 2.2055924724	 0.080473
H	-1.9729550255	-0.5957635898	 2.0724082796	 0.210758
H	-2.1931537172	-0.2676298226	-0.6209796009	 0.080473
H	-1.5576013962	-2.9179354748	-0.3802247596	 0.112538
H	 0.4109155412	-2.9608745001	 1.521218384	 0.112537
142.9022	155.6192	296.8529	329.3086	433.0552	447.637	529.7962	559.5824	592.4995	615.6595	639.4385	647.2473	655.8813	722.1332	786.8015	818.4063	856.0526	907.1377	931.6741	936.3951	977.2458	989.9058	1048.6997	1093.6776	1121.4087	1145.9939	1159.2975	1233.7116	1235.9172	1289.7092	1304.2539	1319.008	1421.6175	1603.2872	2245.3342	3128.6946	3131.4802	3230.7718	3256.2909	3453.6106	3503.486	3703.785
OC1(C#C)C2NC1C=C2	O[C@@]1(C#C)[C@H]2N[C@@H]1C=C2	
InChI=1S/C7H7NO/c1-2-7(9)5-3-4-6(7)8-5/h1,3-6,8-9H	InChI=1S/C7H7NO/c1-2-7(9)5-3-4-6(7)8-5/h1,3-6,8-9H/t5-,6+,7-
