16
gdb 88927	3.35569	0.9386	0.77535	4.446	74.72	-0.237	-0.0364	0.2006	1412.2862	0.123637	-434.053783	-434.044569	-434.043625	-434.088818	32.965	
O	-0.1791379887	 1.4919014957	 0.1496697043	-0.423844
C	 0.0141504434	 0.1087954817	 0.0535173075	 0.056929
C	-0.5505959285	-0.7990471164	 1.119152762	-0.329279
C	-1.2269311349	-0.6812531468	-0.2372333271	 0.04771
N	-2.4274194294	 0.0753987942	-0.3598028383	-0.323066
C	-3.6528723622	-0.5111795912	-0.4228340346	 0.304501
N	-3.8198358694	-1.7818723084	-0.3886623773	-0.529979
C	-4.7507983507	 0.4380044157	-0.5452588462	 0.224866
N	-5.652944203	 1.1556809792	-0.6363512286	-0.324601
H	 0.3032107109	 1.817856626	 0.9161057113	 0.299353
H	 0.9335353576	-0.1878360106	-0.4480876883	 0.104375
H	-0.0238068337	-1.7160098211	 1.3580468575	 0.1269
H	-1.0589722117	-0.3215211027	 1.9496095857	 0.123944
H	-1.1719983337	-1.5302567272	-0.9089254041	 0.130027
H	-2.3413535056	 1.0795313525	-0.3466858405	 0.274235
H	-4.8039731905	-2.0225931006	-0.4697263332	 0.237928
39.9708	76.0889	102.8371	210.3906	245.3485	283.1563	310.4704	341.6387	424.0407	458.0738	526.2287	555.7328	627.6219	725.9729	765.8068	815.8343	834.5115	900.618	943.966	998.091	1017.6249	1054.6928	1123.1076	1148.9448	1170.556	1199.234	1246.364	1294.0083	1315.64	1379.257	1417.683	1478.8952	1547.873	1681.396	2347.3727	3118.8261	3137.705	3179.2759	3232.7096	3536.1663	3638.5048	3818.3314
OC1CC1NC(=N)C#N	O[C@H]1C[C@H]1NC(=N)C#N	
InChI=1S/C5H7N3O/c6-2-5(7)8-3-1-4(3)9/h3-4,9H,1H2,(H2,7,8)	InChI=1S/C5H7N3O/c6-2-5(7)8-3-1-4(3)9/h3-4,9H,1H2,(H2,7,8)/t3-,4+/m1/s1
