12
gdb 123297	1.99845	1.89317	0.9722	2.051	77.67	-0.2532	-0.062	0.1912	1096.1193	0.079063	-394.532569	-394.525141	-394.524197	-394.564749	27.265	
C	 0.0955265359	-1.2403038447	-0.0050122084	-0.392955
C	 0.0355213309	-0.0384136261	 0.0024313618	 0.198487
C	-0.0147122122	 1.3700084446	 0.0108296187	-0.011888
C	-1.148399392	 2.1868718878	 0.0311794306	 0.227665
N	-0.6907265993	 3.4697315629	 0.0317793408	-0.272721
N	 0.6433378252	 3.550969838	 0.0135351001	-0.189402
C	 1.0630818846	 2.2914719809	 0.0007744696	-0.081976
C	-2.5243007352	 1.8704583827	 0.0487282357	 0.221737
N	-3.6576311192	 1.6326971591	 0.0633075142	-0.336924
H	 0.1385374666	-2.301530548	-0.0114832085	 0.199843
H	-1.244393629	 4.3115128611	 0.0441267245	 0.297183
H	 2.1179487736	 2.0655702418	-0.0152316592	 0.140951
102.5266	161.4378	183.396	201.8566	446.5286	462.7088	517.0214	517.3838	547.9444	596.828	637.0643	651.5781	673.5946	691.1981	739.966	892.5021	955.8858	1145.9482	1166.9581	1234.0619	1291.8194	1373.0828	1425.815	1488.8941	1584.2117	2240.6492	2347.1439	3266.047	3500.9735	3659.6165
C#CC1=C(NN=C1)C#N	C#Cc1c([nH]nc1)C#N	
InChI=1S/C6H3N3/c1-2-5-4-8-9-6(5)3-7/h1,4H,(H,8,9)	InChI=1S/C6H3N3/c1-2-5-4-8-9-6(5)3-7/h1,4H,(H,8,9)
