17
gdb 46050	4.52771	0.99125	0.9026	4.9406	67.84	-0.2653	0.0133	0.2787	1267.2996	0.136856	-458.983073	-458.975245	-458.974301	-459.016162	28.867	
O	 0.0996649634	 0.046849867	-0.0759665885	-0.331157
C	 0.0006793265	 1.2342231877	 0.0161251736	 0.427955
C	-1.2545098268	 2.095178907	-0.0620626883	-0.375695
C	-0.817167078	 3.4373439692	 0.5454332099	-0.051507
C	 0.6940955221	 3.4250232681	 0.2453702186	-0.105445
O	 1.080101356	 2.0430626142	 0.2121350625	-0.21881
C	-1.5734605145	 4.6295352422	 0.00477947	 0.071005
C	-0.9581132875	 5.9304825485	-0.2868344095	-0.187993
O	-1.2909869042	 5.0204187342	-1.3401260169	-0.229553
H	-1.5186218052	 2.2129026046	-1.1197674338	 0.155504
H	-2.0874432913	 1.6042770147	 0.4420751008	 0.140232
H	-0.9676732641	 3.4051519336	 1.6313963615	 0.097358
H	 0.9025434442	 3.8747537389	-0.7315253125	 0.134255
H	 1.296802823	 3.9187736236	 1.0100943563	 0.124402
H	-2.6383268658	 4.625952261	 0.2442479032	 0.102879
H	-1.5634308188	 6.8340998648	-0.2426994474	 0.125685
H	 0.107308741	 6.0816044008	-0.1215091298	 0.120884
72.3152	99.7748	179.7443	190.5364	257.1394	388.259	503.7368	522.6362	591.9172	607.3836	694.6097	798.6115	843.2405	882.8907	902.306	916.3387	975.3523	1041.1932	1068.0405	1071.8777	1103.1827	1126.1649	1163.7281	1173.9264	1179.7178	1192.5101	1256.6421	1270.9603	1295.3219	1331.8425	1358.777	1410.604	1435.6382	1464.3601	1522.2972	1537.9082	1888.9583	3035.0402	3050.2909	3055.2827	3090.691	3096.7341	3114.3351	3132.6779	3177.2965
O=C1CC(CO1)C1CO1	O=C1C[C@@H](CO1)[C@H]1CO1	
InChI=1S/C6H8O3/c7-6-1-4(2-9-6)5-3-8-5/h4-5H,1-3H2	InChI=1S/C6H8O3/c7-6-1-4(2-9-6)5-3-8-5/h4-5H,1-3H2/t4-,5+/m0/s1
