17
gdb 26849	2.95938	1.45708	0.98832	4.8934	81.82	-0.2201	-0.0607	0.1594	1176.3842	0.135478	-418.050802	-418.041914	-418.04097	-418.085547	31.57	
C	 0.1368090812	 1.4816803431	-0.1415495545	-0.480772
C	-0.0392668392	 0.0018698421	-0.0611375447	 0.334271
C	-1.206267414	-0.6777799429	 0.0784213899	 0.114014
C	-2.563955163	-0.0288089651	 0.1787243515	-0.509889
C	-1.064514738	-2.1077572307	 0.1266703736	-0.013599
N	 0.0499595689	-2.7592739528	 0.0494426132	-0.315802
C	 1.2249850909	-2.0359532256	-0.0927791768	 0.417797
N	 2.3981479068	-2.5022641196	-0.1835605316	-0.530614
O	 1.1396406636	-0.6387564386	-0.144917227	-0.228083
H	 0.7920180296	 1.8240887238	 0.6665652523	 0.159393
H	 0.6265162076	 1.7486495554	-1.0841554383	 0.159394
H	-0.8172039216	 2.0037798125	-0.0738607046	 0.138738
H	-2.8123703332	 0.5593291581	-0.7112177116	 0.137711
H	-3.3375060931	-0.7948283339	 0.2849467543	 0.132454
H	-2.6462728228	 0.6352475936	 1.045824731	 0.13771
H	-1.9702588265	-2.7078271574	 0.2381333808	 0.115116
H	 2.3359811728	-3.5177220821	-0.1339247475	 0.232163
47.6155	60.9563	85.0615	174.7927	278.8424	284.3673	326.545	426.5941	485.0166	516.2421	571.4914	607.8706	724.1316	767.2857	788.2872	859.2391	873.1002	977.284	989.1379	1031.4101	1050.5441	1055.4666	1074.5549	1191.3327	1206.3071	1282.4687	1356.9642	1411.8529	1420.1976	1432.0235	1468.8	1469.0341	1492.2047	1502.4747	1592.4835	1698.7888	1732.7607	3031.7112	3044.5817	3086.3114	3099.3366	3104.9228	3108.7089	3158.4378	3520.4548
CC1=C(C)C=NC(=N)O1	C[C@@H]1C(=CN=C([NH])O1)C	
InChI=1S/C6H8N2O/c1-4-3-8-6(7)9-5(4)2/h3,7H,1-2H3	InChI=1S/C6H9N2O/c1-4-3-8-6(7)9-5(4)2/h3,5,7H,1-2H3/t5-/m1/s1
