21
gdb 95149	2.6563	1.74212	1.47926	1.0232	82.03	-0.2293	0.0171	0.2464	1006.0765	0.185498	-387.104992	-387.097542	-387.096598	-387.136343	30.986	
C	-0.0130603434	 1.5350582304	-0.0637263752	-0.402448
C	-8.7371*^-6	 0.016056308	 0.0253546429	 0.150406
O	 0.5937962895	-0.4509731046	-1.1861839637	-0.263039
C	 0.891961466	-1.8381973609	-1.2433734025	-0.071307
C	 1.6118576443	-2.3352453419	 0.0323986536	-0.07271
C	 0.6527293761	-2.0747960407	 1.2133510542	-0.232604
C	 0.7585428135	-0.535954722	 1.2665215512	-0.072179
C	 2.2609178769	-0.3536015164	 1.0803603927	-0.062789
C	 2.7460367537	-1.3779884068	 0.3781506635	-0.060975
H	 1.0076076499	 1.9267284769	-0.0979522934	 0.122895
H	-0.5303914796	 1.8553375532	-0.9720847004	 0.123177
H	-0.5273874018	 1.9666167616	 0.8006453141	 0.108575
H	-1.0397986342	-0.3520930167	 0.0849275114	 0.057957
H	-0.0285253277	-2.4285999368	-1.3908284743	 0.082917
H	 1.5179845635	-1.9639432897	-2.1327963384	 0.103278
H	 1.9082496902	-3.3808849439	-0.0908080748	 0.062112
H	-0.3662219097	-2.4336628842	 1.0312673754	 0.085943
H	 1.0271146402	-2.5285679249	 2.1353224179	 0.09439
H	 0.3491213515	-0.0881021941	 2.176724854	 0.060518
H	 2.8118537663	 0.5200857588	 1.4064072572	 0.093501
H	 3.7624179518	-1.4911805852	 0.0200679744	 0.092382
148.0736	218.1153	258.2337	291.2838	349.8762	389.4552	418.0306	493.5592	578.3467	627.7578	742.3025	768.2711	801.5311	837.7542	841.7484	881.5676	914.5946	939.168	962.3098	984.8211	989.2017	1011.3037	1038.9958	1063.1808	1096.8802	1123.8734	1130.9256	1162.8069	1186.305	1220.588	1255.4338	1281.2852	1297.8822	1310.5165	1324.2359	1342.5456	1374.9163	1385.1355	1407.0238	1408.8807	1482.0938	1492.7657	1500.7197	1505.1798	1664.4332	2937.3279	2958.6901	3040.0621	3042.2599	3064.7076	3066.7291	3072.5114	3093.0214	3116.2475	3121.1881	3190.8012	3216.5786
CC1OCC2CC1C=C2	C[C@H]1OC[C@@H]2C[C@H]1C=C2	
InChI=1S/C8H12O/c1-6-8-3-2-7(4-8)5-9-6/h2-3,6-8H,4-5H2,1H3	InChI=1S/C8H12O/c1-6-8-3-2-7(4-8)5-9-6/h2-3,6-8H,4-5H2,1H3/t6-,7+,8-/m1/s1
