14
gdb 127921	3.22438	1.49766	1.02915	4.2646	70.08	-0.2475	-0.0625	0.185	1079.9653	0.100587	-469.998962	-469.990832	-469.989888	-470.032596	28.83	
C	-0.3493580869	 1.4107357169	-0.029614972	-0.311878
N	-0.0513182547	-0.011340606	-0.056529088	-0.303137
C	 0.6730510741	-0.5491761878	-0.9424445293	 0.270799
N	 0.8991923615	-1.9250099136	-0.8769366235	-0.352659
C	 1.6694810742	-2.5852126395	-1.7808904303	 0.142928
N	 2.2769987516	-2.0773376252	-2.7883108171	-0.121442
O	 2.103834957	-0.6712872474	-2.9464949546	-0.25897
C	 1.359374951	 0.1112217554	-2.1131025266	 0.39418
O	 1.2810631522	 1.2855360895	-2.3434403871	-0.302724
H	 0.5570243872	 2.0218096539	 0.0264835775	 0.144329
H	-0.8921575563	 1.7307177246	-0.9251840888	 0.143494
H	-0.9684989725	 1.6104179953	 0.8481742571	 0.120518
H	 0.4595297002	-2.4130535077	-0.1094072732	 0.272542
H	 1.7886482314	-3.6542787885	-1.6440078144	 0.16202
43.7884	91.4407	142.1647	238.2794	260.7925	402.5399	412.2637	467.6398	524.9353	550.8814	592.5911	625.7875	681.8196	801.9824	910.4998	924.3876	964.6532	1048.2404	1093.8532	1102.9529	1140.9416	1184.4485	1318.6645	1362.8551	1434.5609	1477.2357	1497.5404	1500.7786	1711.349	1747.224	1837.1365	3032.398	3095.6221	3113.5305	3209.1927	3607.6954
CN=C1NC=NOC1=O	CN=c1[nH]cnoc1=O	
InChI=1S/C4H5N3O2/c1-5-3-4(8)9-7-2-6-3/h2H,1H3,(H,5,6,7)	InChI=1S/C4H5N3O2/c1-5-3-4(8)9-7-2-6-3/h2H,1H3,(H,5,6,7)
