20
gdb 65810	2.81368	1.1564	1.01571	3.1569	78.75	-0.272	0.015	0.287	1257.9344	0.169791	-403.143866	-403.134562	-403.133618	-403.178464	34.629	
C	 0.1867615479	 1.4876424849	-0.5377800976	-0.459815
C	-0.1502592109	 0.1184578884	 0.0441132881	 0.425872
C	 0.4906843683	-1.0734498121	-0.7346351161	-0.254907
C	 1.6260043233	-1.0999108924	 0.3243958838	-0.228385
C	 0.7204552023	-0.2612174077	 1.2664792387	-0.261327
O	-1.5362930476	-0.0070780061	 0.3844056583	-0.283496
C	-2.4905773493	 0.3016150359	-0.5950519348	-0.210064
C	-2.4917434355	-0.6087534392	-1.7604576238	 0.256211
N	-2.5040686931	-1.3102051153	-2.678602548	-0.313084
H	 1.2713278507	 1.5945057772	-0.6298683029	 0.129292
H	-0.2332153549	 1.6294144135	-1.5388469893	 0.124115
H	-0.1777383722	 2.2860168239	 0.1173522779	 0.123904
H	-0.1455233396	-1.9581625883	-0.6693112991	 0.12052
H	 0.7612292901	-0.9077804056	-1.7796440826	 0.105269
H	 1.9412440344	-2.0795492085	 0.6869193367	 0.106523
H	 2.5137777784	-0.5513386136	-0.0004146214	 0.10552
H	 1.1708094229	 0.5585759466	 1.831722133	 0.097008
H	 0.1443748877	-0.892494381	 1.9468085245	 0.115573
H	-3.4668459327	 0.2232104397	-0.106015611	 0.159727
H	-2.3969928802	 1.3288532098	-0.9731072944	 0.141544
39.5162	88.559	149.3615	204.5331	247.907	286.5158	329.7466	365.8009	382.088	416.4266	430.8181	609.1161	630.7954	712.3465	795.4733	868.3739	884.483	906.182	913.3958	928.4701	938.5054	991.0306	1031.9114	1057.2002	1108.5546	1170.2196	1193.2265	1194.4492	1218.8735	1251.8409	1273.8018	1284.2505	1293.3767	1312.6188	1394.6444	1409.6779	1467.4685	1471.3122	1481.5589	1493.4497	1505.3228	1507.4688	2355.0511	3018.791	3035.6241	3063.174	3067.4297	3074.6404	3082.7018	3103.9179	3111.9389	3113.6866	3125.396	3136.4445
CC1(CCC1)OCC#N	CC1(CCC1)OCC#N	
InChI=1S/C7H11NO/c1-7(3-2-4-7)9-6-5-8/h2-4,6H2,1H3	InChI=1S/C7H11NO/c1-7(3-2-4-7)9-6-5-8/h2-4,6H2,1H3
