21
gdb 97326	4.30646	0.66377	0.64574	1.8219	87.97	-0.2472	-0.0126	0.2345	1868.913	0.18055	-420.456534	-420.445694	-420.44475	-420.493577	37.997	
C	-0.5265633911	 1.776782773	 0.508152685	-0.31117
N	-0.617596105	 0.3731052921	 0.8549470788	-0.236585
C	-0.2270900612	-0.4663079812	-0.0073654946	 0.1144
N	-0.2842738621	-1.8284256173	 0.2565228911	-0.352491
C	 0.1271252355	-2.8034058351	-0.6334026188	 0.435119
O	 0.5628431682	-2.5314372333	-1.734534263	-0.369389
C	 0.024128648	-4.2382180285	-0.1169914313	-0.094559
C	-0.6530817265	-5.1219304292	-1.1729671881	-0.38052
C	 1.440911624	-4.7428420718	 0.2152216037	-0.380941
H	 0.1016367222	 2.2957157328	 1.2415146486	 0.128158
H	-0.1148455163	 1.9621983198	-0.4962474887	 0.104059
H	-1.5213120043	 2.2339518634	 0.5648881069	 0.128266
H	 0.1761303229	-0.240965434	-0.9987217001	 0.13193
H	-0.6481054027	-2.0884650211	 1.1614429921	 0.258887
H	-0.5768660981	-4.2491524418	 0.8012123284	 0.071694
H	-0.1058135953	-5.0594010938	-2.1167913876	 0.144779
H	-0.6706639973	-6.1650391203	-0.8436125146	 0.11212
H	-1.6839786661	-4.8053819215	-1.3590001262	 0.118054
H	 1.9142605057	-4.1343134018	 0.9922819432	 0.118066
H	 1.4031330404	-5.7772445611	 0.5695302038	 0.117947
H	 2.0708681788	-4.7040940594	-0.6779975385	 0.142178
22.5488	81.1493	118.413	132.8749	211.8394	214.2978	235.6558	241.1047	276.3184	294.7389	355.6355	371.0459	421.3332	574.3982	632.4793	667.9815	766.5122	860.754	933.2414	939.9171	973.8169	1010.714	1057.9276	1098.0984	1118.0263	1134.1099	1143.4863	1169.1146	1202.2293	1251.7603	1330.266	1351.0726	1380.4545	1392.473	1413.1425	1446.5375	1479.7378	1484.6415	1488.4174	1491.4405	1499.4363	1510.2867	1517.3032	1756.9041	1791.2952	2979.397	3021.2411	3037.7466	3042.6852	3060.9057	3075.5376	3098.7745	3107.1969	3110.2077	3121.2452	3130.4881	3621.7524
CN=CNC(=O)C(C)C	CN=CNC(=O)C(C)C	
InChI=1S/C6H12N2O/c1-5(2)6(9)8-4-7-3/h4-5H,1-3H3,(H,7,8,9)	InChI=1S/C6H12N2O/c1-5(2)6(9)8-4-7-3/h4-5H,1-3H3,(H,7,8,9)
