18
gdb 26965	3.02123	1.2616	0.95699	0.9321	79.43	-0.1752	0.0578	0.233	1230.4175	0.148328	-401.966212	-401.957567	-401.956622	-402.000324	32.566	
O	 0.2784861519	 1.3182270873	 0.1632197194	-0.439536
C	 0.117625928	-0.0235465384	-0.0018137528	 0.270806
C	-0.0390838861	-0.8210376201	-1.1147542603	 0.192033
C	-0.1470411518	-2.1620199515	-0.6126795771	-0.259343
C	-0.0444845947	-2.1237308701	 0.7525372796	-0.090687
N	 0.1181055949	-0.8017987623	 1.1196210384	-0.292381
C	-0.084916722	-0.3506183581	-2.5169691225	-0.123434
C	 0.2931234718	-1.2548243709	-3.6694004429	-0.26771
C	-1.1428843935	-0.8405302658	-3.4885176003	-0.263205
H	 0.0320795388	 1.7541688745	-0.6580127949	 0.305949
H	-0.2790113224	-3.0550257282	-1.2050325468	 0.089978
H	-0.0657799943	-2.9053778318	 1.4930994152	 0.11534
H	 0.2122416512	-0.4429852255	 2.0532383254	 0.263657
H	 0.2087602312	 0.6895074175	-2.6480874605	 0.051893
H	 0.8540913827	-0.8278681534	-4.4936498964	 0.10783
H	 0.5660664162	-2.2769190104	-3.430581836	 0.116854
H	-1.8433376998	-1.5803415684	-3.1164473489	 0.115798
H	-1.5693086021	-0.1329053846	-4.1917898786	 0.10616
29.478	128.7627	167.3367	170.309	269.2622	298.3075	412.3736	425.0434	505.2506	581.3268	627.1303	638.561	708.8146	724.1233	791.2127	803.0458	811.3611	896.0021	910.9852	931.9933	1056.5271	1058.2087	1063.782	1074.4755	1102.446	1121.5733	1160.0843	1183.2262	1200.3963	1225.7097	1288.5386	1357.5708	1398.6837	1428.3339	1469.4073	1501.592	1528.8262	1555.5323	1647.941	3107.0438	3128.4307	3134.6498	3208.9851	3224.9448	3239.5248	3278.2355	3689.7701	3843.51
OC1=C(C=CN1)C1CC1	Oc1c(cc[nH]1)C1CC1	
InChI=1S/C7H9NO/c9-7-6(3-4-8-7)5-1-2-5/h3-5,8-9H,1-2H2	InChI=1S/C7H9NO/c9-7-6(3-4-8-7)5-1-2-5/h3-5,8-9H,1-2H2
