17
gdb 77324	2.41045	1.33941	1.21385	1.6515	73.62	-0.2446	-0.0292	0.2155	1120.1376	0.134005	-421.810735	-421.80192	-421.800975	-421.844546	32.484	
C	 0.0378518621	 1.5650116889	 0.0462020532	-0.41741
C	-0.0357868035	 0.032245205	-0.0348142912	-0.107227
C	 0.7667212357	-0.547622039	-1.2220434353	-0.134051
O	 2.1021715666	-0.7210475232	-0.7137453432	-0.245089
C	 2.0022711588	-1.1759405572	 0.6240905479	-0.187197
C	 0.6950453686	-0.5912282241	 1.1636278173	 0.377621
O	 0.3226807796	-0.5999277296	 2.305765127	-0.306028
C	 0.2094580773	-1.8104502781	-1.7156461453	 0.34572
C	-0.2503868495	-2.8525290207	-2.0994499257	-0.447991
H	 1.0756785567	 1.9089806313	-0.0052304421	 0.135504
H	-0.5155905413	 2.0222155642	-0.7792716548	 0.126645
H	-0.3936818242	 1.912042007	 0.9885634843	 0.141762
H	-1.0766009269	-0.2976289374	-0.0347497547	 0.119958
H	 0.8507206338	 0.1655775009	-2.0473526037	 0.118264
H	 1.9608510465	-2.2745266373	 0.6876494769	 0.132223
H	 2.8693490979	-0.8264467146	 1.1905314174	 0.142005
H	-0.6532174281	-3.7703456361	-2.451505748	 0.205291
55.1261	125.8159	142.4783	219.8346	237.5226	239.4865	321.5764	444.2479	477.5822	538.5463	575.6989	630.8172	640.3668	677.1146	730.3514	771.221	898.7138	930.8021	951.5778	978.6859	1018.6361	1062.6576	1102.8761	1110.5435	1170.7665	1212.376	1254.8067	1281.9279	1314.1508	1337.7853	1366.1165	1402.1865	1473.7024	1495.854	1500.7219	1859.8529	2232.7764	2993.0592	3040.3427	3067.7314	3094.267	3099.7036	3115.2016	3125.2217	3500.4201
CC1C(OCC1=O)C#C	C[C@H]1[C@@H](OCC1=O)C#C	
InChI=1S/C7H8O2/c1-3-7-5(2)6(8)4-9-7/h1,5,7H,4H2,2H3	InChI=1S/C7H8O2/c1-3-7-5(2)6(8)4-9-7/h1,5,7H,4H2,2H3/t5-,7+/m1/s1
