23
gdb 93845	2.14704	1.56002	1.15926	2.6162	80.56	-0.2561	0.0668	0.323	1176.4397	0.204705	-425.440864	-425.430619	-425.429675	-425.47515	39.201	
C	 0.3275064925	 1.5401226189	 0.0298550609	-0.417733
C	 0.0456995834	 0.0269400843	-0.0042980354	 0.258073
C	-1.4660439329	-0.2176635465	 0.0014490377	-0.4494
C	 0.7395164972	-0.6432933185	-1.2103986081	 0.124712
O	 0.4959793204	 0.0954211822	-2.3955779888	-0.444435
C	 2.2325463764	-0.7529188755	-0.8157233821	-0.259828
C	 2.2444702914	-0.7898221698	 0.7352165019	-0.259809
C	 0.7577090714	-0.7001545773	 1.1574589284	 0.124723
O	 0.5324295256	-0.0194709729	 2.3803912773	-0.444436
H	 1.3978906227	 1.7645147091	 0.0266869718	 0.105214
H	-0.1139875777	 2.0221159541	-0.8450163269	 0.124413
H	-0.0997979269	 1.9793160056	 0.9338207329	 0.124419
H	-1.9355260156	 0.2458104353	-0.8716222341	 0.120965
H	-1.6947494807	-1.2896942087	-0.0224630514	 0.098463
H	-1.9219097917	 0.2033215742	 0.9027989545	 0.120966
H	 0.3208019442	-1.6582878571	-1.3161342397	 0.056203
H	 0.8822258278	-0.3854604416	-3.1335350938	 0.281841
H	 2.7074612611	-1.630484361	-1.2648842535	 0.088574
H	 2.7579821874	 0.1281133063	-1.1952626252	 0.110233
H	 2.7263006189	-1.6873513654	 1.1348323125	 0.088559
H	 2.7756001124	 0.072605508	 1.1480971522	 0.110242
H	 0.3404704624	-1.7192960983	 1.2205900899	 0.056198
H	 0.9295943403	-0.5352112752	 3.0884062891	 0.281844
92.7493	123.7358	192.6512	209.7959	249.484	252.8796	253.5211	259.3086	292.0143	332.3038	371.1512	447.6698	492.0384	553.3126	573.8021	602.9167	711.5926	823.8771	838.8194	940.8692	959.9732	988.4213	990.129	1014.2779	1019.864	1062.9867	1093.0446	1111.5929	1143.148	1194.9516	1218.9521	1240.8239	1249.7251	1256.4035	1265.2339	1315.7915	1329.9233	1349.6374	1378.6597	1395.7547	1410.0495	1424.2454	1453.7243	1481.146	1488.66	1490.6612	1504.9183	1512.1121	1512.3834	2943.2566	2955.4857	3027.1852	3045.8574	3052.5529	3057.4491	3083.5422	3093.1839	3103.7911	3111.3167	3120.0794	3136.4958	3826.5395	3826.6146
CC1(C)C(O)CCC1O	CC1(C)[C@@H](O)CC[C@H]1O	
InChI=1S/C7H14O2/c1-7(2)5(8)3-4-6(7)9/h5-6,8-9H,3-4H2,1-2H3	InChI=1S/C7H14O2/c1-7(2)5(8)3-4-6(7)9/h5-6,8-9H,3-4H2,1-2H3/t5-,6+
