20
gdb 92739	2.98364	1.27731	0.91451	3.452	83.32	-0.2337	0.0201	0.2538	1298.7405	0.171149	-403.205739	-403.196447	-403.195503	-403.240089	33.902	
C	-0.0669767717	 1.4533078084	-0.2122771613	-0.342434
N	 0.0167503366	 0.0223786457	 0.0237089872	-0.108668
C	-1.249376993	-0.6424801842	 0.2795175319	-0.192621
C	-1.1456123067	-2.1134437338	 0.5198847466	-0.162902
C	-0.0018815182	-2.7922745773	 0.5084378999	 0.301089
C	 0.0752287423	-4.2730387599	 0.753852367	-0.471461
C	 1.2970181102	-2.0870437896	 0.242097163	-0.414637
C	 1.2427058619	-0.5852034969	-0.009315623	 0.408003
O	 2.2751406327	 0.027418372	-0.2299144778	-0.392555
H	 0.9395477277	 1.8284283847	-0.3881053597	 0.170673
H	-0.6969311804	 1.6652293981	-1.0856226215	 0.118905
H	-0.5040702033	 1.9635107922	 0.6555359741	 0.118881
H	-1.7356384871	-0.1602515945	 1.1449149712	 0.113673
H	-1.927925478	-0.4538681272	-0.5701056889	 0.113666
H	-2.0884338997	-2.6187910597	 0.7118885736	 0.088103
H	-0.9122580276	-4.7042717047	 0.937636524	 0.122459
H	 0.522176194	-4.7919819301	-0.1037638952	 0.127471
H	 0.7135559442	-4.4964911488	 1.6182538581	 0.127492
H	 1.9975626152	-2.2363009667	 1.0750825869	 0.137425
H	 1.8068940311	-2.5278030276	-0.625478876	 0.137439
62.217	97.8709	136.183	185.6573	214.7554	259.8804	285.6986	364.4907	408.8742	431.3422	482.2283	573.4956	604.4582	717.2542	739.1005	811.2668	918.6182	959.0588	961.5639	1026.9953	1041.3253	1069.3144	1075.6252	1150.1914	1157.5051	1183.3982	1222.1154	1264.35	1267.8149	1321.3534	1363.8562	1389.4339	1414.6093	1429.5805	1448.8803	1468.0627	1477.7438	1491.1106	1500.0241	1500.127	1545.9331	1756.1933	1771.9189	2954.7156	2959.1229	3012.5398	3016.0026	3021.2538	3040.5482	3058.0554	3064.4376	3113.5495	3162.3066	3171.6608
CN1CC=C(C)CC1=O	CN1CC=C(C)CC1=O	
InChI=1S/C7H11NO/c1-6-3-4-8(2)7(9)5-6/h3H,4-5H2,1-2H3	InChI=1S/C7H11NO/c1-6-3-4-8(2)7(9)5-6/h3H,4-5H2,1-2H3
