23
gdb 103179	1.86987	1.46559	1.15838	2.2696	81.64	-0.2387	0.0636	0.3023	1254.6801	0.202842	-425.4221	-425.411491	-425.410547	-425.457187	39.7	
C	-0.1872119922	 1.2310713583	 0.4967694846	-0.422399
C	-0.0839677463	-0.280073883	 0.250807741	-0.220572
C	 0.5479840984	-0.6652112074	-1.088363244	 0.275909
O	-0.1266219205	-0.0672698525	-2.1791743173	-0.483349
C	 2.11233354	-0.648558069	-1.1790577627	 0.128209
C	 3.0134074149	-0.0016015286	-0.1470098879	-0.420188
O	 2.1465501397	-2.0911606134	-1.0962602546	-0.321467
C	 0.7242711411	-2.1858951009	-1.3406737542	 0.150586
C	 0.0502371173	-3.2343604494	-0.4816646766	-0.42134
H	 0.7893939118	 1.7231761065	 0.4577829012	 0.124485
H	-0.8436963595	 1.7159077762	-0.234673684	 0.114946
H	-0.6168120845	 1.4304263828	 1.4827161829	 0.123844
H	 0.4845777451	-0.7446278462	 1.0629797327	 0.109131
H	-1.0893969094	-0.715806298	 0.2867001776	 0.106609
H	-0.1531753251	 0.8847342898	-2.0391035875	 0.278442
H	 2.3973246717	-0.3157060789	-2.1890645461	 0.068897
H	 2.7130391581	-0.2527346742	 0.8737304728	 0.119122
H	 4.0381935557	-0.3597493013	-0.2908859681	 0.130206
H	 3.0223598609	 1.0877654686	-0.2575772923	 0.113724
H	 0.5288904905	-2.3875190401	-2.4039960769	 0.07889
H	 0.2103003469	-3.0519855445	 0.5840567551	 0.117616
H	-1.0263682847	-3.2601228537	-0.6800753272	 0.121359
H	 0.4601182501	-4.2207828614	-0.7206571785	 0.127342
59.7326	124.2252	164.4122	207.5712	217.4154	223.3162	245.0872	258.5888	296.3417	313.6256	336.8967	405.0311	470.4957	501.9549	535.2977	664.0414	719.5112	790.8618	866.9626	874.7938	929.5137	935.8403	1009.7865	1038.451	1052.8775	1072.708	1087.8479	1127.4445	1138.0296	1164.5259	1193.2362	1223.9643	1266.2543	1305.0979	1313.1189	1351.4477	1363.4674	1393.1419	1400.1419	1402.4069	1411.9185	1431.5051	1476.2144	1479.9927	1487.1862	1498.662	1502.8797	1503.6827	1513.6553	2981.8756	2999.9169	3034.363	3036.328	3036.9905	3040.9602	3076.2274	3100.1227	3102.7258	3107.5671	3114.9843	3117.7546	3120.7316	3815.6781
CCC1(O)C(C)OC1C	CC[C@@]1(O)[C@@H](C)O[C@H]1C	
InChI=1S/C7H14O2/c1-4-7(8)5(2)9-6(7)3/h5-6,8H,4H2,1-3H3	InChI=1S/C7H14O2/c1-4-7(8)5(2)9-6(7)3/h5-6,8H,4H2,1-3H3/t5-,6+,7-
