16
gdb 12448	3.40297	1.98724	1.35616	4.2366	66.25	-0.2455	-0.0034	0.2421	890.9656	0.131566	-383.770708	-383.763439	-383.762495	-383.802885	26.749	
O	 0.0092587549	-0.0101355125	-0.5495152819	-0.304079
C	-0.0296621599	 1.0862276563	-0.0604810088	 0.394457
C	-1.3529409061	 1.8318263141	 0.1166947859	-0.37095
C	-1.6392184878	 2.4592025065	 1.4603667754	-0.06526
C	-0.8744281324	 3.4104335103	 1.9873868226	-0.059567
C	 0.3881502221	 3.8704554064	 1.3034496722	-0.273749
C	 1.4123387049	 2.7447960968	 1.1620366725	-0.044523
O	 1.1459685369	 1.7113539267	 0.2000911562	-0.232894
H	-1.3642920706	 2.6131068481	-0.658656113	 0.139851
H	-2.1226702307	 1.1089231866	-0.1526191744	 0.138375
H	-2.5303058623	 2.1180589294	 1.9782448748	 0.105617
H	-1.1324722991	 3.8536723202	 2.9445419713	 0.098547
H	 0.1709107506	 4.2906939305	 0.3112370496	 0.12112
H	 0.869367486	 4.6682876785	 1.8783871345	 0.113425
H	 2.3724186747	 3.1535598685	 0.8338091632	 0.12161
H	 1.5642921089	 2.2648127034	 2.1365080898	 0.118022
59.9883	83.7464	247.0684	308.7446	322.0665	452.3857	498.539	557.0117	601.9509	685.65	719.3624	825.8175	868.6519	930.0072	953.0315	989.4171	991.9764	1050.7521	1075.6292	1100.1827	1173.1047	1215.3119	1243.073	1255.1165	1309.3498	1331.2275	1360.1827	1406.1958	1438.5211	1458.9742	1477.6539	1505.6263	1727.0999	1829.7104	2999.1674	3014.0623	3032.1889	3078.9351	3089.3318	3132.2111	3164.3612	3187.2934
O=C1CC=CCCO1	O=C1CC=CCCO1	
InChI=1S/C6H8O2/c7-6-4-2-1-3-5-8-6/h1-2H,3-5H2	InChI=1S/C6H8O2/c7-6-4-2-1-3-5-8-6/h1-2H,3-5H2
