17
gdb 43088	3.25651	1.70679	1.59631	1.9939	70.11	-0.2348	-0.0186	0.2162	887.1251	0.139491	-421.849365	-421.84321	-421.842266	-421.879762	25.807	
O	-0.0122034553	 0.0045323639	-0.0172441528	-0.323517
C	-0.0216877121	 1.2025273495	 0.0212866147	 0.427279
C	-1.1225175506	 2.2632896062	-0.0203987861	-0.19614
C	-1.2891837069	 2.911063062	 1.3883128759	-0.23031
C	-0.0368572323	 3.8106420144	 1.4404978475	 0.060679
C	 1.2293158257	 2.9313352081	 1.3779672639	-0.23031
C	 1.0615377936	 2.2808736831	-0.029378738	-0.196141
C	-0.0407882324	 3.2448148534	-0.6254844284	 0.098888
O	-0.0471263492	 4.4257199807	 0.1459412845	-0.251594
H	-2.0556273435	 2.0426522546	-0.5368945484	 0.092538
H	-2.1926186045	 3.5253012597	 1.4137446762	 0.11924
H	-1.3401766482	 2.1778951056	 2.1969846119	 0.11742
H	-0.0398581258	 4.578231804	 2.2140092378	 0.086145
H	 2.1229265936	 3.5600350705	 1.3960220645	 0.11924
H	 1.2987425187	 2.1991311707	 2.1861397071	 0.11742
H	 1.9938102203	 2.0752645278	-0.5535305972	 0.092538
H	-0.0468790112	 3.4571840757	-1.6909351428	 0.096626
141.2402	265.978	374.6466	436.4028	525.8951	539.9655	604.8805	695.2398	770.9869	803.8694	809.8344	848.6867	866.5351	887.339	918.0822	930.6122	978.6159	986.3957	1007.2879	1042.9863	1072.278	1074.557	1084.0898	1124.3816	1174.1815	1198.2711	1226.2113	1226.5724	1249.4852	1268.7595	1295.6561	1327.0313	1334.4144	1358.5077	1479.4056	1492.7087	1886.4962	3066.1476	3068.3583	3116.4472	3119.5926	3126.2833	3127.2677	3130.2505	3166.6111
O=C1C2CC3CC1C2O3	O=C1[C@H]2C[C@H]3C[C@@H]1[C@@H]2O3	
InChI=1S/C7H8O2/c8-6-4-1-3-2-5(6)7(4)9-3/h3-5,7H,1-2H2	InChI=1S/C7H8O2/c8-6-4-1-3-2-5(6)7(4)9-3/h3-5,7H,1-2H2/t3-,4+,5-,7+
