16
gdb 15900	2.84387	1.8601	1.2831	4.3156	61.26	-0.2492	-0.0299	0.2193	943.9613	0.129025	-420.87109	-420.8629	-420.861956	-420.904006	29.841	
O	-0.2403193689	 1.5439860258	-0.0164094621	-0.426224
C	-0.0794233655	 0.1876011712	-0.3890379725	-0.082007
C	-1.3488457769	-0.5984393845	-0.0512781643	-0.120072
C	-1.3868285755	-2.1591852154	-0.0716848871	 0.07409
O	-0.0659066808	-2.6584140951	-0.0595984963	-0.424106
C	-2.0672915223	-2.1633542587	 1.3396420542	-0.365562
C	-1.6835037506	-0.6806692263	 1.4409486341	 0.397808
O	-1.5461816958	 0.0966602887	 2.345904472	-0.313583
H	-0.4481474542	 1.5514937799	 0.9270728994	 0.296155
H	 0.1117367583	 0.1725759227	-1.466518468	 0.112378
H	 0.7827053009	-0.2771839794	 0.1060598639	 0.109736
H	-2.198901773	-0.1778132106	-0.6005717533	 0.112315
H	-1.9784938351	-2.6032375979	-0.8800693736	 0.077265
H	-0.1025243214	-3.6111430926	 0.0714476905	 0.290612
H	-3.1533005153	-2.2981539899	 1.2990813988	 0.132816
H	-1.6463136838	-2.8348078279	 2.0924150543	 0.128378
63.3755	118.863	155.4457	212.0289	299.2316	341.2577	397.7854	436.1239	489.9624	505.8625	551.3649	729.0369	749.8078	854.5955	885.6059	913.2181	994.4096	1048.7802	1067.2703	1079.5648	1123.3294	1132.6054	1189.8491	1196.7042	1212.6819	1258.1811	1293.8821	1333.044	1379.543	1410.0484	1427.3657	1440.7051	1515.8616	1870.8271	3023.7971	3034.565	3052.4976	3059.7007	3082.9707	3118.0273	3765.9853	3819.8195
OCC1C(O)CC1=O	OC[C@H]1[C@@H](O)CC1=O	
InChI=1S/C5H8O3/c6-2-3-4(7)1-5(3)8/h3-4,6-7H,1-2H2	InChI=1S/C5H8O3/c6-2-3-4(7)1-5(3)8/h3-4,6-7H,1-2H2/t3-,4-/m0/s1
