16
gdb 11007	4.13401	1.87292	1.57139	4.177	66.23	-0.2549	0.03	0.285	845.5648	0.13157	-379.917893	-379.910834	-379.90989	-379.948999	26.892	
C	-0.0672699457	 1.4989465268	 0.0208294765	-0.480434
C	-0.0072335751	-0.0058644897	 0.0251472004	 0.30955
C	 0.3851585175	-0.7815982417	 1.2237211345	-0.289257
N	 1.3181207861	-0.6592168026	 0.0680611207	-0.165244
C	 1.2287856837	-1.7971674152	-0.7807819312	 0.434776
N	 2.1900949562	-2.5773822666	-1.0050962589	-0.539448
O	-0.0348386335	-1.9272559141	-1.3140688017	-0.247849
C	-0.8204741786	-0.7732220232	-1.0095849521	-0.154588
H	 0.6470226242	 1.9137329688	 0.7357033159	 0.14018
H	 0.1715449528	 1.8968926285	-0.970928921	 0.131423
H	-1.0690538804	 1.8467719502	 0.2961612828	 0.126298
H	 0.7233557182	-0.2643701473	 2.1157522681	 0.131178
H	-0.0724851512	-1.7523473666	 1.3954629623	 0.134699
H	 1.8999237384	-3.3109824267	-1.651483594	 0.227596
H	-1.8017391668	-1.100693302	-0.6520336756	 0.12355
H	-0.9579385759	-0.1744851086	-1.9186320069	 0.117571
125.7229	172.4222	192.0067	298.1242	374.9475	385.025	483.368	588.7345	688.5666	715.2427	782.6396	810.3931	859.6965	874.6526	930.5614	955.6188	990.7654	1017.5493	1038.16	1079.3973	1121.0101	1132.3643	1146.167	1224.1093	1250.5435	1318.5236	1370.1688	1410.2425	1425.5042	1487.1032	1493.1473	1506.3205	1524.1183	1785.4741	3026.6819	3037.0881	3079.186	3100.2968	3115.2386	3127.6011	3208.9132	3499.0681
CC12CN1C(=N)OC2	C[C@]12CN1[C]([NH])OC2	
InChI=1S/C5H8N2O/c1-5-2-7(5)4(6)8-3-5/h6H,2-3H2,1H3	InChI=1S/C5H8N2O/c1-5-2-7(5)4(6)8-3-5/h6H,2-3H2,1H3/t5-,7?/m1/s1
