21
gdb 107491	2.05975	1.73504	1.24006	1.4171	83.14	-0.2372	0.0707	0.3079	1118.5093	0.182249	-387.039328	-387.030552	-387.029608	-387.072525	34.29	
O	 0.0570112783	 1.445243796	 0.079901641	-0.415665
C	 0.0165561965	 0.0301421137	-0.0775456604	-0.213617
C	-1.4006160032	-0.4398589747	 0.0054432405	 0.316385
C	-1.8929308266	-1.6395177941	-0.7657518143	-0.341708
C	-2.5479814983	-0.3070205992	-1.0036179312	-0.09023
C	-3.5374373397	 0.0109712256	 0.1267502175	-0.318306
C	-2.3803382905	-0.154565605	 1.1359217591	 0.337264
C	-2.4055196373	-0.772281651	 2.506601834	-0.335131
C	-2.1331781713	 0.7071453346	 2.3323448308	-0.325418
H	 0.9806129916	 1.7123104505	 0.1128408046	 0.285317
H	 0.4403638154	-0.2727454104	-1.0487078748	 0.085941
H	 0.6189925801	-0.4654240155	 0.7032741228	 0.085515
H	-1.2385580233	-1.9843492048	-1.5612236961	 0.104673
H	-2.4276228661	-2.4346902464	-0.2512287214	 0.105266
H	-2.5321223048	 0.1709789806	-1.9753169998	 0.087997
H	-3.9088649668	 1.0386349691	 0.0905017381	 0.106508
H	-4.3880646808	-0.673178419	 0.2249809312	 0.091211
H	-3.3655315706	-1.0699589714	 2.9168172557	 0.106769
H	-1.5803888244	-1.4158012201	 2.7971054943	 0.104527
H	-1.1249738321	 1.0726116826	 2.4892047284	 0.117087
H	-2.9106047561	 1.4076464289	 2.6224097701	 0.105615
83.5536	142.9369	162.3691	205.9611	262.6752	272.099	359.5358	402.8409	421.2675	517.0347	576.7621	636.4259	764.8177	778.3654	843.4916	853.2666	881.0668	910.6711	937.7833	965.8734	983.2567	996.9681	1025.8462	1042.4662	1049.2654	1064.8998	1070.6917	1087.2474	1107.4631	1168.1973	1180.1097	1184.7814	1232.8758	1237.7363	1260.1271	1282.5982	1305.701	1377.4807	1399.2539	1466.0098	1468.4569	1482.978	1499.2971	1507.7089	1510.3207	2949.4459	2981.0011	3033.6202	3092.9793	3104.1644	3118.4707	3128.1719	3183.7005	3194.3146	3198.2319	3219.7434	3823.8789
OCC12CC1CC21CC1	OC[C@]12C[C@H]1CC12CC1	
InChI=1S/C8H12O/c9-5-8-4-6(8)3-7(8)1-2-7/h6,9H,1-5H2	InChI=1S/C8H12O/c9-5-8-4-6(8)3-7(8)1-2-7/h6,9H,1-5H2/t6-,8-/m1/s1
