19
gdb 89609	3.66305	1.10576	0.94159	3.6774	77.06	-0.2381	-0.0136	0.2245	1263.6448	0.157584	-423.019106	-423.010006	-423.009062	-423.053243	33.926	
C	 0.4796759449	 1.3384595669	 0.124340823	-0.490644
C	-0.2435026221	 0.0129944275	-0.0351735468	 0.278419
O	-0.8997807337	-0.4671869403	 0.8676664089	-0.322816
C	-0.1029628695	-0.6826995207	-1.3391406195	 0.250049
C	-1.1398302322	-1.6961175336	-1.7738397237	-0.310264
C	 0.2299509101	-2.1971280988	-1.4921096438	-0.080035
C	 1.1818309213	-1.8699973795	-2.6360776463	 0.11943
O	 0.8690236969	-2.5526411958	-3.8290776403	-0.429028
C	 0.8099636764	-0.3469806594	-2.5256488293	-0.365946
H	 1.5636842112	 1.19468665	 0.0474777154	 0.13749
H	 0.1953177519	 2.0344843906	-0.672753401	 0.13731
H	 0.2401866825	 1.7677955597	 1.0975933279	 0.140951
H	-1.8767046203	-1.9189705876	-1.0111867204	 0.142164
H	-1.5051931564	-1.6604006093	-2.7956065225	 0.124125
H	 0.4289648792	-2.8904419325	-0.6846880231	 0.10569
H	 2.2272506151	-2.036447588	-2.3453287919	 0.07477
H	 1.4941623092	-2.2778621392	-4.5075775044	 0.285335
H	 0.3049853204	 0.0704772948	-3.4027855403	 0.100411
H	 1.6694294352	 0.2785745152	-2.2752417919	 0.102588
54.964	105.	151.7291	167.3502	233.9096	283.4343	331.011	370.342	425.5753	484.8406	560.4019	596.3801	627.0219	700.6157	793.6032	854.397	868.3641	948.9524	954.2171	970.3564	982.7781	1021.3897	1046.8776	1070.6789	1085.7362	1115.716	1142.6122	1186.3039	1209.9417	1229.011	1251.9295	1311.5857	1328.613	1374.3638	1402.7197	1425.5779	1462.0436	1468.0129	1475.7428	1490.557	1777.1453	3013.0596	3034.3187	3047.8373	3093.7392	3111.7864	3130.4855	3153.2941	3197.3448	3232.4296	3815.4294
CC(=O)C12CC1C(O)C2	CC(=O)[C@]12C[C@H]1[C@@H](O)C2	
InChI=1S/C7H10O2/c1-4(8)7-2-5(7)6(9)3-7/h5-6,9H,2-3H2,1H3	InChI=1S/C7H10O2/c1-4(8)7-2-5(7)6(9)3-7/h5-6,9H,2-3H2,1H3/t5-,6-,7+/m0/s1
