16
gdb 124088	5.0112	1.03036	0.9775	4.7556	69.04	-0.2556	0.0066	0.2623	1192.6157	0.126546	-434.045568	-434.038129	-434.037185	-434.079393	26.42	
C	 0.0062125496	 1.4846951321	-0.1885566302	-0.088779
O	 1.3926950266	 1.5857297301	 0.1863058059	-0.264198
C	 1.465461167	 0.1879856687	 0.5240632604	-0.088779
C	 0.0211849637	-0.0491938562	 0.019812067	-0.025017
N	-0.9370985394	-0.6258774653	 0.9327571109	-0.013999
C	-1.2341040719	-0.2537391564	 2.2180990261	 0.013339
N	-2.1636738394	-1.0213810143	 2.7247715766	-0.221018
N	-2.5080591594	-1.9424370704	 1.7539898918	-0.22408
C	-1.7706984872	-1.6885223898	 0.7061115294	 0.019377
H	-0.6568166221	 2.0253399792	 0.4980615333	 0.120248
H	-0.1746927863	 1.8295100839	-1.2123485123	 0.120687
H	 2.2581465447	-0.3323461935	-0.0242783801	 0.120687
H	 1.5993735383	 0.0204567147	 1.599865548	 0.120248
H	-0.0299654762	-0.6171835951	-0.9089810414	 0.114895
H	-0.7514129987	 0.567618579	 2.7242539836	 0.152027
H	-1.7900420006	-2.2249412723	-0.230365925	 0.144358
32.9733	54.9312	133.7496	227.3645	385.8683	393.7981	613.4965	656.8086	695.6924	819.6782	839.8389	848.8685	878.1412	928.4287	958.7356	1018.0986	1031.4669	1036.212	1044.4084	1090.4728	1109.3309	1156.3483	1161.5838	1214.9851	1235.7377	1246.7171	1292.9841	1306.1487	1369.5877	1393.3832	1440.6901	1504.1792	1509.531	1534.998	1544.461	3018.4442	3029.104	3072.981	3074.3694	3116.5523	3259.6788	3266.3515	32.9753	54.9314	133.7497	227.3646	385.8683	393.7982	613.4965	656.8086	695.6924	819.6783	839.8389	848.8685	878.1412	928.4288	958.7356	1018.0986	1031.4669	1036.212	1044.4086	1090.4728	1109.3309	1156.3482	1161.5837	1214.9851	1235.7376	1246.7172	1292.9842	1306.1486	1369.5876	1393.3832	1440.6902	1504.1793	1509.5309	1534.9979	1544.461	3018.4442	3029.104	3072.9811	3074.3695	3116.5523	3259.6788	3266.3514
C1OCC1N1C=NN=C1	C1OCC1n1cnnc1	
InChI=1S/C5H7N3O/c1-5(2-9-1)8-3-6-7-4-8/h3-5H,1-2H2	InChI=1S/C5H7N3O/c1-5(2-9-1)8-3-6-7-4-8/h3-5H,1-2H2
