14
gdb 21227	3.49929	1.88303	1.23856	4.9055	60.68	-0.2262	-0.0134	0.2128	926.6816	0.108293	-411.99426	-411.986717	-411.985773	-412.026105	27.359	
C	-0.0556136303	 1.4377279125	 0.0152597849	-0.322831
N	 0.0099855938	-0.0169020452	 0.100433188	-0.394119
C	-1.1705527228	-0.7195396011	 0.0312331646	 0.370807
N	-2.3675254221	-0.1974917536	 0.0596119054	-0.180936
O	-3.2373026214	-1.2703149141	 0.020945116	-0.181001
N	-2.5551532904	-2.4651295381	-0.0302656487	-0.156856
C	-1.2919999045	-2.1498291541	-0.0273218083	 0.276427
N	-0.2390912689	-3.0467196343	-0.1383813483	-0.601677
H	 0.9541933558	 1.8418480538	 0.1106484052	 0.125547
H	-0.502772635	 1.7919805584	-0.9233730765	 0.132846
H	-0.6654318984	 1.8160259045	 0.8391144857	 0.157054
H	 0.7393547737	-0.434356489	-0.4625376891	 0.248859
H	-0.5509612253	-4.0091977909	-0.0980164904	 0.266731
H	 0.4891988859	-2.8813684587	 0.5465772015	 0.259148
112.1023	162.1833	173.1147	259.2796	293.9737	322.256	410.3575	531.3835	575.5224	592.3951	675.4089	734.8548	791.3048	819.184	903.038	946.8741	1030.2904	1080.1503	1150.2103	1163.9004	1184.3843	1299.7815	1449.9137	1457.9695	1483.3131	1508.6016	1528.7987	1604.8788	1633.2297	1680.2318	3014.8648	3097.8123	3138.0359	3527.9211	3573.6924	3624.0714
CNC1=NON=C1N	CNc1nonc1N	
InChI=1S/C3H6N4O/c1-5-3-2(4)6-8-7-3/h1H3,(H2,4,6)(H,5,7)	InChI=1S/C3H6N4O/c1-5-3-2(4)6-8-7-3/h1H3,(H2,4,6)(H,5,7)
