16
gdb 50291	2.92315	1.3621	1.17298	4.1677	69.27	-0.2365	-0.0369	0.1996	1064.04	0.12469	-437.869973	-437.862443	-437.861499	-437.902623	28.379	
O	-0.5604283892	 0.7457517241	 0.8857083035	-0.250267
C	 0.2332822592	 0.7613891263	-0.0179217318	 0.176162
C	 1.4372660864	 1.687026905	-0.0750894864	-0.082776
N	 2.6398009481	 0.943785875	-0.5775492809	-0.320922
C	 3.0496451864	 1.7656774494	-1.7369583066	-0.118834
C	 2.815862752	 3.2412605164	-1.2726433318	-0.258496
C	 1.3172910579	 2.784662487	-1.1667905663	-0.17216
C	 1.6792628281	 1.9579865206	-2.4257834591	 0.45983
O	 1.2009077916	 1.7572393273	-3.4981263267	-0.311578
H	 0.1494050605	 0.0801826819	-0.8934916171	 0.094854
H	 1.5798976248	 2.12340264	 0.9183773484	 0.098534
H	 3.365980635	 0.9365706095	 0.1302417291	 0.23457
H	 3.9407000433	 1.4166385056	-2.2520418415	 0.100395
H	 3.2985157131	 3.5328836532	-0.3367857626	 0.113031
H	 2.9797152893	 3.9872592892	-2.0527776944	 0.129193
H	 0.4754252634	 3.4705099495	-1.1180002458	 0.108463
64.5643	108.9709	173.7444	295.5353	384.4686	417.7967	460.4882	473.5989	630.3392	656.514	768.0188	803.55	815.9537	869.2732	899.6643	942.7964	986.9144	987.9141	1016.8473	1022.9415	1063.4724	1076.389	1099.1327	1142.1575	1175.9598	1212.7587	1234.9263	1242.7472	1286.1433	1334.3645	1412.6305	1417.6304	1483.0838	1836.1511	1915.3964	2896.109	3060.7741	3067.6556	3137.6063	3162.2268	3164.8971	3530.673
O=CC1NC2CC1C2=O	O=C[C@H]1N[C@@H]2C[C@H]1C2=O	
InChI=1S/C6H7NO2/c8-2-5-3-1-4(7-5)6(3)9/h2-5,7H,1H2	InChI=1S/C6H7NO2/c8-2-5-3-1-4(7-5)6(3)9/h2-5,7H,1H2/t3-,4-,5-/m1/s1
