18
gdb 34909	2.87948	1.59699	1.28841	2.0267	80.04	-0.2326	0.0616	0.2942	1021.6059	0.149111	-364.740871	-364.733462	-364.732518	-364.772546	30.281	
C	 0.0595517664	-1.2376372581	-0.0341283535	-0.477619
C	 0.0310916821	-0.0365606844	 0.004666599	 0.35422
C	-0.0092990625	 1.4210696506	 0.0410052766	-0.197763
C	-0.7089131433	 2.0226983421	 1.2800889713	-0.052387
C	-0.1232726241	 1.8246973834	 2.6513433831	-0.287235
C	 0.19296092	 3.0842803035	 1.8807793819	-0.042243
C	 1.4748983049	 3.0935984619	 1.0727529546	-0.050528
N	 2.2441491616	 1.8312397075	 1.136412207	-0.324678
C	 1.3749654439	 2.0924053051	-0.0201990617	-0.049834
H	 0.0887164498	-2.2984736634	-0.0600970849	 0.190303
H	-0.5621324032	 1.7712691019	-0.8414506772	 0.10302
H	-1.779625814	 2.1732862192	 1.2007648151	 0.089473
H	-0.8091359451	 1.9111293873	 3.4872932166	 0.103159
H	 0.6767311462	 1.1064201815	 2.7771626946	 0.149749
H	-0.1974111342	 4.0379324377	 2.2158528173	 0.082092
H	 2.0100667433	 4.02849558	 0.9462898514	 0.085972
H	 3.2126207821	 1.9985875215	 0.876260061	 0.231975
H	 1.8294309862	 2.2323102027	-0.9959923321	 0.092322
107.3264	132.2644	284.3645	300.3813	379.7393	500.6196	514.0507	549.759	617.8925	624.0188	679.4589	720.9287	736.848	797.4731	836.3945	855.3518	876.1525	892.896	954.46	973.5386	1019.6584	1034.3133	1051.7238	1067.5108	1086.0834	1100.4968	1109.3441	1141.3783	1171.5995	1204.2948	1241.8749	1284.8707	1313.45	1323.2044	1371.9132	1387.9445	1418.6484	1477.9853	2236.0982	3012.7153	3140.5099	3155.0034	3166.0744	3168.5888	3183.4377	3239.0177	3504.5101	3506.1298
C#CC1C2CC2C2NC12	C#C[C@H]1[C@H]2C[C@H]2[C@H]2N[C@@H]12	
InChI=1S/C8H9N/c1-2-4-5-3-6(5)8-7(4)9-8/h1,4-9H,3H2	InChI=1S/C8H9N/c1-2-4-5-3-6(5)8-7(4)9-8/h1,4-9H,3H2/t4-,5+,6+,7-,8+/m0/s1
