25
gdb 91357	1.93018	1.90559	1.32986	0.1686	90.81	-0.273	0.0742	0.3472	1138.8409	0.232532	-352.384645	-352.376153	-352.375209	-352.417201	35.011	
C	-0.3395167064	 1.5152499079	 0.6548300436	-0.426861
C	-0.1985784734	-0.0039499757	 0.5440129732	 0.074295
C	 0.0601647949	-0.5444222164	-0.9021387947	-0.229974
C	 1.1540357731	-1.6189699926	-0.6926989587	 0.007178
C	 2.4998317224	-0.8972228963	-0.4417611416	-0.229987
C	 2.3619300883	-0.3727543567	 1.0267862132	 0.074112
C	 2.8618603726	 1.0545247286	 1.2570391162	-0.426721
C	 0.8910897343	-0.7382333161	 1.3763305984	-0.03996
C	 0.812188213	-2.1391958159	 0.7225016604	-0.224726
H	 0.4761932187	 2.052223929	 0.1656549064	 0.117134
H	-1.2698309651	 1.8412276411	 0.1760149093	 0.108596
H	-0.3774047841	 1.8411190408	 1.7001918371	 0.108046
H	-1.1502753083	-0.4251358822	 0.8930653198	 0.069391
H	-0.8491416628	-0.972888341	-1.3356997225	 0.088137
H	 0.397793686	 0.246577988	-1.5810007615	 0.087662
H	 1.1960322036	-2.3665941255	-1.4875805194	 0.050466
H	 3.3491865545	-1.5805277085	-0.5422883747	 0.088141
H	 2.6581173714	-0.0810542406	-1.1554718148	 0.087659
H	 2.9729084769	-1.0179934715	 1.6712561825	 0.069381
H	 2.4544829969	 1.7664304985	 0.5357587171	 0.117146
H	 2.6103573045	 1.4124381072	 2.2615584405	 0.108057
H	 3.9529026171	 1.0896131644	 1.160146436	 0.108594
H	 0.6936784901	-0.7006856016	 2.4516609073	 0.045615
H	-0.1805732819	-2.5953067329	 0.7894351655	 0.084314
H	 1.5505970437	-2.845124622	 1.1155879017	 0.084303
89.8533	173.7695	197.4541	274.1791	299.1525	324.2535	395.9558	402.6981	458.9352	502.3046	542.0513	665.1061	770.0346	791.4869	802.6184	838.9253	886.295	917.5098	919.4819	944.6525	957.252	965.9513	979.941	1020.8257	1029.6299	1076.035	1083.2921	1109.4193	1125.0365	1139.5008	1154.8866	1179.6508	1198.6585	1231.3887	1253.2551	1269.7876	1292.666	1300.4625	1329.1764	1334.8433	1349.5194	1368.3757	1378.0617	1404.3675	1408.2565	1417.3671	1487.8117	1491.2159	1492.9817	1495.4257	1505.799	1514.9882	1519.7006	3004.3621	3005.0891	3029.6246	3032.8296	3035.1706	3037.8426	3044.2496	3069.3345	3073.5503	3076.8565	3086.3805	3088.8247	3090.2337	3092.8904	3111.2126	3129.1159
CC1CC2CC(C)C1C2	C[C@H]1C[C@H]2C[C@@H](C)[C@@H]1C2	
InChI=1S/C9H16/c1-6-3-8-4-7(2)9(6)5-8/h6-9H,3-5H2,1-2H3	InChI=1S/C9H16/c1-6-3-8-4-7(2)9(6)5-8/h6-9H,3-5H2,1-2H3/t6-,7+,8-,9+
