20
gdb 78772	3.18744	1.41699	1.29516	1.21	77.58	-0.2308	0.0677	0.2985	1070.861	0.170111	-403.080201	-403.071823	-403.070878	-403.112354	33.657	
C	-0.0057435929	 1.5345182717	-0.071252471	-0.452962
C	 0.0401216915	 0.0110628471	-0.0963394137	 0.339185
C	-1.3348520077	-0.5728754784	 0.2150350331	-0.428301
C	 0.7520236606	-0.72970107	-1.2568675508	-0.148307
C	 1.313216173	-1.6862050074	-0.1290412117	-0.089169
C	 2.3469994424	-0.6407732812	 0.1120690991	-0.097649
C	 2.1687757965	-0.0974634918	-1.3117658599	 0.135084
O	 3.0459453208	-0.6969584397	-2.2411306139	-0.447979
N	 1.0469833977	-0.6127347017	 0.8589789015	-0.162667
H	 0.9871520898	 1.9855745567	-0.1212445755	 0.124517
H	-0.597777934	 1.9158580749	-0.9106035215	 0.117966
H	-0.4768635917	 1.8780423688	 0.8554205407	 0.12358
H	-2.0778732474	-0.2029067692	-0.4990682528	 0.112728
H	-1.3278325006	-1.6654779264	 0.1643095049	 0.115584
H	-1.6513324966	-0.2823208991	 1.2218242909	 0.124079
H	 0.2456422714	-0.9999514769	-2.1830520448	 0.071557
H	 1.2575255162	-2.7437366094	 0.0918462188	 0.099851
H	 3.25198889	-0.6865604258	 0.7049536468	 0.10032
H	 2.2465909824	 0.9754739283	-1.4988072185	 0.083792
H	 3.0719711884	-1.6433769807	-2.0538147218	 0.27879
158.2349	207.0389	214.0977	235.0405	260.3246	323.1852	350.7086	362.1171	418.857	501.2164	574.5102	621.8622	768.1504	798.6771	829.5308	863.8735	870.0823	907.3288	937.764	948.5153	960.0833	976.989	1008.1794	1015.2101	1046.1113	1084.7919	1139.2535	1152.0761	1161.8027	1189.5559	1225.8845	1250.9925	1270.0122	1273.9894	1295.4204	1329.0715	1400.791	1415.5992	1439.0856	1476.1286	1486.9945	1496.5516	1511.0068	3033.9321	3039.3863	3089.728	3099.719	3106.9373	3112.1117	3123.4911	3128.8716	3192.9037	3207.058	3779.2577
CC1(C)C2C3C(C2O)N13	CC1(C)[C@@H]2[C@H]3[C@@H]([C@H]2O)N13	
InChI=1S/C7H11NO/c1-7(2)3-4-5(6(3)9)8(4)7/h3-6,9H,1-2H3	InChI=1S/C7H11NO/c1-7(2)3-4-5(6(3)9)8(4)7/h3-6,9H,1-2H3/t3-,4+,5+,6+,8?/m1/s1
