18
gdb 18164	3.69075	1.59861	1.42557	1.602	67.11	-0.2333	0.0662	0.2995	954.8407	0.153292	-384.89292	-384.885108	-384.884164	-384.924965	29.797	
C	-0.1677744102	 1.492564111	 0.0844974495	-0.380196
C	 0.1958421202	 0.0235941315	-0.1568737093	-0.213184
C	 0.7469997183	-0.6458394773	 1.0893915093	 0.148411
O	-0.1811699484	-0.6813411877	 2.232212785	-0.325069
C	 0.1385328308	-2.061784552	 2.463104756	 0.020071
C	-0.3986540617	-2.8637964003	 1.3349490835	 0.12868
O	-1.57905692	-2.5109457732	 0.6845923595	-0.432423
C	 0.940818613	-2.1580309985	 1.1657277414	-0.215821
H	 0.7067796154	 2.0722373543	 0.4006643575	 0.113835
H	-0.5646559141	 1.9544908803	-0.8240487307	 0.114636
H	-0.9251097089	 1.5803933762	 0.8692170604	 0.131915
H	-0.6681068616	-0.5381736382	-0.5215975945	 0.118602
H	 0.9679039241	-0.0512880154	-0.9342649702	 0.101022
H	 1.653079039	-0.1230377305	 1.4261343636	 0.084462
H	 0.32036496	-2.3714785162	 3.4864021477	 0.103897
H	-0.2981196423	-3.9411759021	 1.4361017275	 0.109883
H	-1.8466970986	-1.6660232349	 1.0715670124	 0.293035
H	 1.8583859449	-2.6859424669	 0.9408341814	 0.098243
94.5362	153.9882	185.7713	239.7147	250.2787	370.683	440.8539	459.8175	556.0208	655.8741	729.7618	751.787	811.0624	820.5928	880.1469	927.7347	942.5673	997.7146	1022.221	1028.7328	1052.9419	1065.0548	1095.691	1114.0337	1169.4208	1189.4933	1252.002	1276.0991	1284.2968	1318.1632	1340.3576	1373.3227	1408.9196	1416.8481	1454.5518	1488.7004	1498.3202	1509.0151	3004.5896	3030.1198	3035.4278	3090.1088	3110.3364	3115.7404	3153.5823	3171.2968	3198.41	3750.539
CCC1OC2C(O)C12	CC[C@H]1O[C@H]2[C@@H](O)[C@@H]12	
InChI=1S/C6H10O2/c1-2-3-4-5(7)6(4)8-3/h3-7H,2H2,1H3	InChI=1S/C6H10O2/c1-2-3-4-5(7)6(4)8-3/h3-7H,2H2,1H3/t3-,4-,5+,6-/m1/s1
