20
gdb 61472	2.57514	0.88938	0.81931	3.6679	85.41	-0.2673	0.0304	0.2976	1516.9181	0.168327	-366.005333	-365.994754	-365.99381	-366.041417	38.	
C	-0.044843137	 1.6627057085	-0.212589556	-0.393682
C	-0.027754457	 0.123730991	-0.1072513114	-0.178974
C	-1.4294045169	-0.484607527	 0.1385557928	-0.180192
C	-2.1288372628	-0.0349893238	 1.441469071	-0.149849
C	-3.5032504876	-0.713745092	 1.604335184	-0.398514
C	-1.2845010897	-0.3026257863	 2.6118645336	 0.282262
N	-0.6152055173	-0.520108158	 3.5292213831	-0.333819
C	 0.5520949355	-0.4686779431	-1.3117840025	 0.311856
C	 1.0061598961	-0.9492893558	-2.3157623474	-0.449273
H	 0.9549598334	 2.0381147967	-0.4423538349	 0.135403
H	-0.7199255683	 1.9903761419	-1.0095815714	 0.124074
H	-0.364974817	 2.1191542161	 0.7282548232	 0.122661
H	 0.608936669	-0.1505739413	 0.7448185408	 0.133787
H	-2.0857078596	-0.2236048705	-0.6992450481	 0.114999
H	-1.3424425939	-1.5758857808	 0.1451474772	 0.125467
H	-2.2842160914	 1.0498594169	 1.4069397981	 0.130746
H	-3.3955398765	-1.8006339595	 1.6568181369	 0.140242
H	-4.0044491738	-0.3749466576	 2.5141327591	 0.138521
H	-4.1373810534	-0.4707119451	 0.7472275666	 0.127853
H	 1.4228646083	-1.3773489302	-3.1936634749	 0.196434
40.5641	83.9102	117.1981	161.1471	203.2643	214.161	244.2315	260.2254	296.2186	316.5162	397.757	510.6287	532.5766	569.0103	596.2832	630.2052	643.7729	780.4544	818.6673	895.0542	918.8573	963.0929	1011.8232	1044.3842	1099.1138	1118.7923	1137.4323	1161.368	1238.7315	1292.575	1330.6507	1339.8246	1365.3769	1377.3345	1409.1589	1415.5246	1480.8307	1492.8504	1493.5816	1500.0754	1503.8622	2236.1855	2352.8056	3019.3277	3040.1278	3044.6138	3045.6646	3049.4659	3092.0415	3115.0286	3124.4487	3126.4827	3129.7683	3503.9698
CC(CC(C)C#N)C#C	C[C@@H](C[C@@H](C)C#N)C#C	
InChI=1S/C8H11N/c1-4-7(2)5-8(3)6-9/h1,7-8H,5H2,2-3H3	InChI=1S/C8H11N/c1-4-7(2)5-8(3)6-9/h1,7-8H,5H2,2-3H3/t7-,8-/m1/s1
