23
gdb 74399	2.66764	1.47677	1.1346	0.2964	91.77	-0.2095	0.026	0.2355	1206.3621	0.204639	-351.146112	-351.136817	-351.135873	-351.179133	37.028	
C	 0.0105768799	 1.4655829538	 0.0489986947	-0.517481
C	 0.0062367668	-0.0233443494	 0.0010843526	 0.313522
C	-0.0055207396	-0.8751987889	-1.0284074505	-0.253091
C	-0.0028122575	-2.2668707583	-0.3695464368	 0.308294
C	-0.0142244313	-3.4983562302	-1.245783741	-0.505203
C	 1.07328316	-2.0220653966	 0.7469074852	-0.276265
C	 0.0154599924	-0.9683819179	 1.2322247834	 0.246604
C	 0.0299405551	-0.3786064173	 2.6246298716	-0.509152
C	-1.0564943249	-2.0167696315	 0.7669169173	-0.276251
H	 0.8956046432	 1.852933905	 0.5707153379	 0.124373
H	 0.0008643402	 1.892156146	-0.9582318386	 0.123043
H	-0.8609684612	 1.8574578003	 0.5896548979	 0.12435
H	-0.0149887513	-0.6741755779	-2.0919714553	 0.087226
H	 0.8628695	-3.5249419289	-1.902741572	 0.114781
H	-0.0086919912	-4.414391101	-0.6458219397	 0.110425
H	-0.9059471113	-3.5226107503	-1.8828398894	 0.114803
H	 1.1841780656	-2.8678579009	 1.4362326873	 0.080392
H	 2.0511428643	-1.6479553714	 0.4311068496	 0.08324
H	 0.9169978102	 0.2443829501	 2.7871395495	 0.114758
H	-0.851945375	 0.2469945382	 2.8043633009	 0.11477
H	 0.0361653203	-1.1665461274	 3.3848846974	 0.113227
H	-2.0382256131	-1.6377798452	 0.4694778915	 0.083235
H	-1.1586522216	-2.8620022602	 1.4582728366	 0.080398
153.3246	184.943	200.0569	206.0867	225.3536	234.1569	237.9851	348.171	407.6491	504.9145	506.4097	568.3799	576.5507	592.4145	664.6796	768.6789	777.6409	822.9578	857.7665	889.2828	924.5368	979.198	996.9257	1032.1789	1044.0461	1050.1322	1060.6349	1112.7023	1117.6445	1168.3922	1176.8569	1198.451	1200.6373	1220.9735	1256.4713	1327.179	1340.9088	1407.1538	1413.385	1416.5642	1473.7941	1475.2499	1481.5574	1493.2043	1493.847	1495.1964	1495.4473	1516.0472	1694.8182	3010.3727	3020.6895	3022.4202	3023.5516	3034.5269	3052.5758	3085.3697	3085.8548	3093.0147	3093.965	3096.4526	3102.589	3103.6375	3209.4758
CC1=CC2(C)CC1(C)C2	CC1=C[C@@]2(C)C[C@]1(C)C2	
InChI=1S/C9H14/c1-7-4-8(2)5-9(7,3)6-8/h4H,5-6H2,1-3H3	InChI=1S/C9H14/c1-7-4-8(2)5-9(7,3)6-8/h4H,5-6H2,1-3H3/t8-,9+
