18
gdb 57621	4.34284	0.86291	0.85009	4.7651	78.08	-0.2773	0.014	0.2913	1384.6873	0.144007	-401.935954	-401.925812	-401.924868	-401.970885	37.146	
C	 0.0826145333	 1.5972816589	-0.0027335786	-0.430401
C	 0.0113758715	 0.0659835962	 0.0020458193	 0.331209
O	 0.6502252659	-0.4739143281	 1.145932772	-0.455368
C	-1.4653699301	-0.4280136726	-0.058558367	-0.378404
C	-2.1966901761	-0.0842425916	 1.1537270888	 0.265588
C	-2.7486896416	 0.2056196849	 2.182340185	-0.414389
C	 0.7644651655	-0.5466545217	-1.2007052475	-0.3536
C	 2.1582683413	-0.118162764	-1.2897370864	 0.279416
N	 3.2568962202	 0.2272884544	-1.3804413507	-0.314833
H	 1.1212980231	 1.9232728806	 0.0841384402	 0.153726
H	-0.3402061891	 2.0143941174	-0.9228142689	 0.116383
H	-0.4842900001	 2.0005325704	 0.8411218093	 0.12922
H	 0.1535592123	-0.1836035275	 1.9211059181	 0.288642
H	-1.9668716042	-0.0011472413	-0.935685509	 0.13267
H	-1.464831027	-1.5176026445	-0.1828538519	 0.137977
H	-3.2651329549	 0.4552668382	 3.0765214926	 0.206062
H	 0.7413459309	-1.6373809957	-1.1077756921	 0.158505
H	 0.2568969691	-0.279911074	-2.1338610131	 0.147596
62.8898	94.7407	106.148	173.2517	246.776	280.8383	317.5021	345.2007	356.6053	388.7802	393.9261	403.777	428.3722	481.1267	628.119	660.2028	672.1498	782.8349	871.6256	896.687	915.944	977.1039	977.5077	993.9771	1124.3082	1130.4739	1185.2008	1220.6803	1296.5361	1319.8901	1342.5668	1395.7583	1415.2037	1450.6334	1463.3911	1494.4314	1499.6653	2232.8177	2365.854	3026.9952	3042.6085	3051.6582	3067.3184	3096.8009	3113.1142	3136.9652	3502.0252	3780.6497
CC(O)(CC#C)CC#N	C[C@@](O)(CC#C)CC#N	
InChI=1S/C7H9NO/c1-3-4-7(2,9)5-6-8/h1,9H,4-5H2,2H3	InChI=1S/C7H9NO/c1-3-4-7(2,9)5-6-8/h1,9H,4-5H2,2H3/t7-/m1/s1
