18
gdb 97385	2.79158	0.98476	0.80861	2.7444	83.44	-0.2484	0.02	0.2684	1468.8158	0.143876	-401.889093	-401.879318	-401.878373	-401.924442	35.229	
C	-0.263113566	 1.2960257939	 0.0414878104	-0.314794
N	 0.1895969672	-0.0693489096	-0.1254798357	-0.204078
C	 0.5695159927	-0.6812304513	 0.9027046771	 0.115141
O	 1.0084111648	-1.9633378776	 0.8048689615	-0.23529
C	 1.3817276181	-2.580860126	 2.0202656636	 0.234682
C	 0.2604190735	-3.1546474559	 2.8697331667	-0.31533
C	 1.1242921604	-4.0651954639	 2.0384005531	-0.310243
C	 2.558050197	-2.043737663	 2.6505775977	 0.319837
C	 3.5365374698	-1.5799704404	 3.1734481961	-0.489212
H	 0.3519214291	 1.9632430539	-0.572937068	 0.129764
H	-1.2926860355	 1.3882377521	-0.3225833102	 0.127534
H	-0.2300065426	 1.65648468	 1.0826379644	 0.097122
H	 0.5897856237	-0.2709495131	 1.9217396969	 0.091534
H	 0.3895501837	-3.1474814102	 3.9453756701	 0.133945
H	-0.7461169973	-2.9581176705	 2.5188226078	 0.13615
H	 0.700736144	-4.470343276	 1.1271110103	 0.143723
H	 1.8544458574	-4.6920791654	 2.534779361	 0.135356
H	 4.40630968	-1.1751798472	 3.6290630873	 0.204158
52.9634	64.7271	124.4382	177.4143	205.0045	212.5731	292.1448	319.0274	367.1933	431.9799	504.5887	549.9156	584.2009	603.4003	686.3366	733.2064	779.0802	909.556	933.1885	957.2451	974.3111	991.9718	1063.7035	1069.0332	1089.5766	1141.3511	1146.0785	1194.9656	1217.946	1256.5028	1314.9995	1403.7643	1449.0232	1451.4724	1480.686	1484.4208	1503.9338	1780.5001	2235.196	2969.1005	3025.4398	3059.941	3079.1715	3144.7696	3151.7344	3235.2027	3250.1443	3501.1507
CN=COC1(CC1)C#C	CN=COC1(CC1)C#C	
InChI=1S/C7H9NO/c1-3-7(4-5-7)9-6-8-2/h1,6H,4-5H2,2H3	InChI=1S/C7H9NO/c1-3-7(4-5-7)9-6-8-2/h1,6H,4-5H2,2H3
