14
gdb 133692	2.60612	1.14569	0.95669	3.6403	52.54	-0.2916	-0.0068	0.2849	1188.8427	0.094928	-605.356718	-605.347693	-605.346749	-605.391506	31.017	
C	 0.0019526856	 1.7790423393	 0.165620544	-0.413367
C	-0.0481413808	 0.2749424847	-0.0480886709	-0.035787
O	 0.5561266905	-0.0305958923	-1.3025097685	-0.187336
C	 0.05094063	-1.0658258666	-2.0189674374	 0.174046
O	 0.5354786672	-1.4221052105	-3.0463281824	-0.259704
C	 0.7046288308	-0.492644633	 1.0446006276	 0.286728
F	 0.1105317149	-0.3007920009	 2.2314991284	-0.0732
F	 0.6955954739	-1.8081260013	 0.7868871116	-0.076037
F	 1.9752748083	-0.1018757011	 1.1467714087	-0.064402
H	 1.0351759908	 2.1299021396	 0.1233176256	 0.156192
H	-0.5729050864	 2.2806063125	-0.6152697283	 0.141223
H	-0.4210703099	 2.0364491741	 1.1393100199	 0.143876
H	-1.0826219426	-0.0911707635	-0.0238269099	 0.116572
H	-0.8490394424	-1.511151551	-1.5557937282	 0.091196
58.7397	71.565	143.6675	207.1529	223.7916	226.8594	282.3148	344.0017	380.0397	483.677	527.1313	576.7117	656.1448	685.4759	816.0941	947.2561	1032.3664	1037.1143	1106.7282	1134.9277	1181.4703	1199.4955	1215.4787	1301.4761	1356.7781	1393.5637	1412.9942	1439.1387	1487.2884	1499.7547	1878.9015	2968.3425	3037.1815	3063.0975	3144.104	3147.6831
CC(OC=O)C(F)(F)F	C[C@@H](OC=O)C(F)(F)F	
InChI=1S/C4H5F3O2/c1-3(9-2-8)4(5,6)7/h2-3H,1H3	InChI=1S/C4H5F3O2/c1-3(9-2-8)4(5,6)7/h2-3H,1H3/t3-/m1/s1
