23
gdb 84882	2.1523	1.69903	1.22465	0.1219	90.54	-0.2362	0.0317	0.268	1152.5937	0.207455	-351.16668	-351.158095	-351.157151	-351.199309	34.791	
C	-0.0656968623	 1.5676863694	-0.0024293648	-0.38931
C	 0.0325335026	 0.0278675695	 0.0267574075	-0.103109
C	 0.7033962057	-0.4870665081	-1.2262928855	-0.052496
C	 1.9045407497	-1.0639136636	-1.2514938998	-0.058208
C	 2.7531748006	-1.2791819604	-0.0254979957	-0.246072
C	 2.263434577	-0.4321128114	 1.159746675	-0.293347
C	 0.7496922097	-0.4989048069	 1.27005523	 0.412277
C	 0.0977522441	-0.3209365683	 2.6151828721	-0.337216
C	 0.1628639215	-1.6934444895	 1.9849635032	-0.315471
H	 0.9276561576	 2.027083029	 0.0058000779	 0.117665
H	-0.5770715656	 1.9071322108	-0.9093467499	 0.109085
H	-0.6230683842	 1.9432125885	 0.8612599871	 0.111725
H	-0.9979838609	-0.3559131062	 0.0405301486	 0.070059
H	 0.1540515698	-0.3476460325	-2.1555361943	 0.0789
H	 2.3113247144	-1.412449878	-2.1983538006	 0.080402
H	 2.7404313697	-2.3457718278	 0.2436994361	 0.107665
H	 3.8015369386	-1.0464409169	-0.2512967012	 0.097595
H	 2.7290939569	-0.7716832568	 2.0914293335	 0.087697
H	 2.5776356495	 0.6092436955	 1.0131153632	 0.098767
H	 0.7309135117	-0.1188899184	 3.4734320616	 0.105367
H	-0.8694730595	 0.1699593036	 2.6566797715	 0.106125
H	-0.7573232889	-2.1240062817	 1.6038201062	 0.107122
H	 0.8454320721	-2.42017293	 2.4145674582	 0.104777
102.8085	162.2535	229.3666	238.4021	256.4625	303.3232	357.3784	398.6693	480.2852	503.7087	543.7304	662.139	724.173	765.2316	783.0318	835.8775	871.0597	902.275	931.0688	935.6603	958.3846	983.7985	1006.6902	1032.8399	1043.6495	1051.5127	1060.6545	1077.948	1098.8547	1115.253	1168.3592	1186.227	1200.7935	1245.5398	1295.3646	1312.0743	1322.8263	1357.4655	1366.2982	1397.6654	1406.5953	1423.8396	1468.5237	1473.8288	1488.3126	1494.5533	1501.8122	1507.8193	1721.8	2990.6331	3000.0502	3020.0649	3033.3495	3041.3328	3066.3139	3100.9281	3108.9636	3120.5152	3125.1828	3132.3234	3157.4638	3196.9974	3211.8183
CC1C=CCCC11CC1	C[C@H]1C=CCCC21CC2	
InChI=1S/C9H14/c1-8-4-2-3-5-9(8)6-7-9/h2,4,8H,3,5-7H2,1H3	InChI=1S/C9H14/c1-8-4-2-3-5-9(8)6-7-9/h2,4,8H,3,5-7H2,1H3/t8-/m0/s1
