12
gdb 24966	5.3214	1.37551	1.09299	5.2811	61.	-0.2092	0.0194	0.2286	987.4303	0.079524	-472.669932	-472.663365	-472.662421	-472.701566	24.632	
O	-0.0395433568	 0.0188078285	 0.0048035939	-0.346472
C	-0.0187232385	 1.2034432585	 0.0090002871	 0.456019
O	-1.168250495	 2.0066107232	 0.0297950719	-0.256994
C	-0.684911721	 3.2815195147	 0.029384693	 0.356388
C	 0.6615824058	 3.3074759212	 0.0107889466	 0.28036
O	 1.1055614766	 1.9915204797	-0.0019154146	-0.255636
C	 1.0944745409	 4.6536731432	 0.0118829857	-0.318056
C	-0.0766025196	 5.3935291149	 0.0320211145	-0.064391
N	-1.1810355374	 4.5422970857	 0.0430030539	-0.396327
H	 2.0953793342	 5.0504018389	 0.0001013559	 0.125195
H	-0.2205770413	 6.4604052946	 0.0395390943	 0.136416
H	-2.1448309379	 4.8242598569	 0.0578758777	 0.283499
44.4415	223.4608	325.0592	355.2234	392.1689	590.4953	604.6762	614.2717	635.2916	710.4947	760.2952	768.879	804.9407	813.3518	901.2005	947.8044	986.1572	1055.9841	1103.4541	1227.1419	1270.59	1364.5772	1467.6151	1480.0192	1577.4499	1673.0453	1947.2757	3274.4235	3291.3305	3695.9348
O=C1OC2=C(O1)C=CN2	O=c1oc2c(o1)cc[nH]2	
InChI=1S/C5H3NO3/c7-5-8-3-1-2-6-4(3)9-5/h1-2,6H	InChI=1S/C5H3NO3/c7-5-8-3-1-2-6-4(3)9-5/h1-2,6H
