24
gdb 60397	3.30698	0.8116	0.70107	2.1039	87.51	-0.2227	0.0775	0.3002	1716.6092	0.214715	-405.512955	-405.502025	-405.501081	-405.549864	39.505	
C	-0.0659636059	 1.4993429943	 0.1487009773	-0.392922
C	-0.0308085905	-0.007786851	-0.1249115348	 0.165408
C	 0.7106514618	-0.7690955715	 0.9685578954	-0.387601
O	-1.3383137264	-0.5697682853	-0.1885402707	-0.262411
C	-2.0599479401	-0.2881804966	-1.3716032143	-0.091108
C	-3.3780903221	-1.0167154155	-1.3020387062	 0.009971
C	-4.0321512921	-1.5096233466	-2.5497241008	-0.261316
N	-3.5156728925	-2.447234799	-1.5633161323	-0.069928
C	-2.3439727316	-3.2377063428	-1.9103830675	-0.310116
H	 0.9512854827	 1.8985776767	 0.2139142492	 0.114132
H	-0.5844151125	 2.047108847	-0.6433461056	 0.11559
H	-0.5773357632	 1.6988268841	 1.0959686176	 0.122604
H	 0.4759065394	-0.1817519248	-1.0902345556	 0.060947
H	 0.212936879	-0.6259583728	 1.9329388737	 0.124006
H	 0.7242433961	-1.8394618329	 0.7473290014	 0.119969
H	 1.7424530644	-0.4158319881	 1.0558066992	 0.110946
H	-2.2616968305	 0.7900842537	-1.4736795976	 0.092346
H	-1.4781838381	-0.5886137354	-2.2569214834	 0.083017
H	-4.010147782	-0.673278281	-0.4844536632	 0.093896
H	-5.1123765473	-1.4720645903	-2.6653937918	 0.113729
H	-3.4741207581	-1.3890727299	-3.4791741604	 0.101401
H	-1.6759025522	-2.7701866372	-2.6509322585	 0.094619
H	-1.7647766497	-3.4345820746	-1.0039799062	 0.133473
H	-2.6792962685	-4.1938999005	-2.324808575	 0.119348
36.5014	57.3364	116.303	128.1428	173.5793	205.2719	238.4641	273.092	304.0655	324.852	384.0656	418.0399	444.2104	511.9743	547.9047	755.357	802.1957	838.5939	907.9457	925.2226	936.776	947.5206	1013.4569	1040.7797	1085.9712	1104.606	1119.1772	1128.5054	1150.8068	1158.7651	1172.5746	1191.3505	1201.7298	1207.8962	1260.1009	1340.9878	1351.8203	1367.4945	1391.7841	1398.8609	1413.8511	1447.6434	1450.637	1480.1271	1484.6931	1486.4988	1495.2378	1498.6806	1508.8677	1512.5038	1528.1394	2948.7282	2968.3709	2979.1386	2999.9639	3036.6017	3042.7706	3068.1673	3078.962	3107.1282	3111.5858	3112.8482	3116.4485	3116.8576	3122.2669	3168.067
CC(C)OCC1CN1C	CC(C)OC[C@H]1CN1C	
InChI=1S/C7H15NO/c1-6(2)9-5-7-4-8(7)3/h6-7H,4-5H2,1-3H3	InChI=1S/C7H15NO/c1-6(2)9-5-7-4-8(7)3/h6-7H,4-5H2,1-3H3/t7-,8?/m1/s1
