25
gdb 115280	3.40532	0.90635	0.87984	1.4948	88.89	-0.2374	0.0801	0.3176	1526.4026	0.227957	-389.518694	-389.508345	-389.507401	-389.554103	39.25	
C	-0.156349945	 1.6446384374	 0.2019232717	-0.386283
C	-0.0218906649	 0.1191594019	 0.1362198286	-0.196593
C	-1.3491286712	-0.6098369206	-0.0829406186	 0.032204
C	-2.0352165384	-0.3435297152	-1.4286235223	-0.082826
O	-2.9535871343	-1.4070503506	-1.6122146969	-0.301153
C	-2.4936777611	-2.593127288	-0.921487012	 0.400902
C	-3.6323970075	-3.0447688607	-0.0016183178	-0.412097
C	-2.1741973147	-3.6677448694	-1.964468686	-0.420032
C	-1.2399995548	-2.143384489	-0.1294543681	-0.295371
H	 0.810964779	 2.1180447676	 0.396491369	 0.113205
H	-0.5419820879	 2.0569087306	-0.7364497834	 0.120543
H	-0.8412179286	 1.9470099904	 1.0020460172	 0.115306
H	 0.6730526778	-0.155673969	-0.6691248417	 0.094004
H	 0.4337240765	-0.2439733989	 1.0661071442	 0.09652
H	-2.0470100455	-0.3252606922	 0.7162435293	 0.073249
H	-2.595345479	 0.5958864054	-1.4653648783	 0.10234
H	-1.2840634399	-0.3208771315	-2.2387684322	 0.077622
H	-4.5516441252	-3.1749697666	-0.5801264308	 0.120849
H	-3.3918375488	-3.9960772545	 0.4845389857	 0.107101
H	-3.8244549859	-2.2977006606	 0.7745089502	 0.110467
H	-1.4170313407	-3.3072051484	-2.6673961431	 0.111561
H	-1.792892318	-4.5767613412	-1.4865275564	 0.108564
H	-3.0711893565	-3.9292587956	-2.5339308845	 0.118133
H	-0.3277184483	-2.4307645855	-0.6659787236	 0.092537
H	-1.194031197	-2.5993031058	 0.8631403497	 0.099248
39.7034	99.1478	135.2288	185.507	227.8486	243.0351	263.1546	301.3333	331.0219	360.9227	413.824	447.9589	451.5105	558.5389	625.147	774.1432	779.9373	862.1281	888.8908	890.7143	929.0027	955.0225	960.6205	989.5812	1009.1574	1038.4092	1066.6152	1089.7434	1126.1815	1139.6069	1185.4661	1199.3171	1229.534	1259.0018	1280.315	1292.1303	1305.9837	1339.8924	1352.8139	1379.8484	1397.3639	1403.2892	1413.4909	1416.8884	1475.6062	1484.0086	1485.9432	1493.2964	1496.9357	1501.2311	1505.8413	1507.6705	1523.1413	2939.2996	3007.8158	3015.2615	3030.3707	3031.6624	3033.5942	3038.4199	3047.9177	3072.953	3093.1633	3098.4274	3101.6754	3103.7571	3108.3466	3110.9044	3115.4779
CCC1COC(C)(C)C1	CC[C@H]1COC(C)(C)C1	
InChI=1S/C8H16O/c1-4-7-5-8(2,3)9-6-7/h7H,4-6H2,1-3H3	InChI=1S/C8H16O/c1-4-7-5-8(2,3)9-6-7/h7H,4-6H2,1-3H3/t7-/m1/s1
