18
gdb 26376	2.82673	1.37975	1.16286	4.4474	72.74	-0.2119	0.0251	0.237	1123.1938	0.147547	-439.145888	-439.13726	-439.136316	-439.179348	32.257	
C	-0.005764706	 1.5465495717	 0.0383324042	-0.391212
C	-0.0261236172	 0.0143408792	-0.0149769691	 0.035567
C	-1.449335969	-0.5535162092	 0.0393088445	-0.391209
N	 0.6874058169	-0.4766585389	-1.2028178753	-0.126179
C	 1.835187681	-1.2692827867	-1.2219075352	-0.125019
C	 2.1434874107	-1.4831505925	-2.5059574798	-0.045223
O	 1.2240798599	-0.8491664571	-3.3117108063	-0.212801
C	 0.3030617519	-0.2129423459	-2.5002732366	 0.492937
O	-0.6302999832	 0.4304156052	-2.9107045755	-0.420841
H	 1.0210697251	 1.9236602447	 0.0403173247	 0.117467
H	-0.5284595717	 1.9599985032	-0.8269298835	 0.161478
H	-0.5024103722	 1.8948675549	 0.9486543755	 0.116672
H	 0.5426901485	-0.3761927499	 0.8359571532	 0.09125
H	-2.0230679488	-0.2139254343	-0.8257826362	 0.161405
H	-1.4336215406	-1.6473001565	 0.0417285089	 0.11747
H	-1.9520338366	-0.2142465953	 0.9497265927	 0.11671
H	 2.3164217549	-1.6003951878	-0.317442718	 0.148678
H	 2.9313805966	-2.0271656649	-2.9951094483	 0.152852
58.8592	114.337	201.3928	237.8055	250.4452	270.6348	317.5939	419.3966	458.1131	513.5923	591.8915	659.6232	681.7915	772.7184	773.1932	781.323	886.4263	912.0753	933.1035	951.8171	1000.133	1071.0437	1125.0529	1148.6949	1154.3471	1189.9417	1265.205	1276.3901	1342.9285	1397.1362	1410.1208	1421.849	1428.3823	1481.3683	1497.443	1499.5938	1519.6808	1652.2767	1856.7862	3044.1291	3045.6443	3049.6858	3113.4722	3117.6536	3138.3029	3143.3384	3278.7037	3310.3817
CC(C)N1C=COC1=O	CC(C)n1ccoc1=O	
InChI=1S/C6H9NO2/c1-5(2)7-3-4-9-6(7)8/h3-5H,1-2H3	InChI=1S/C6H9NO2/c1-5(2)7-3-4-9-6(7)8/h3-5H,1-2H3
