16
gdb 16452	4.22583	1.94073	1.72617	1.7125	63.27	-0.2447	0.0673	0.312	788.1584	0.130802	-383.667555	-383.660982	-383.660037	-383.697888	26.363	
O	-0.1775587028	 1.4216282967	 0.0077629115	-0.460945
C	-0.0725142964	 0.043039477	 0.0265456344	 0.382437
C	-0.3307117657	-0.8031586678	-1.1842396132	-0.360917
C	-1.2135208623	-0.9797966507	 0.0319872291	-0.119065
C	-0.4614453887	-1.7772021807	 1.1165655205	 0.116877
O	 0.4692974768	-2.7986666544	 0.6647556092	-0.298095
C	 1.5953410949	-1.8917412375	 0.7978566469	-0.108975
C	 0.6587956548	-0.7225003315	 1.160075342	-0.14496
H	 0.4743067985	 1.7698836371	-0.6104422663	 0.28727
H	-0.8115116842	-0.2590486827	-1.9912785825	 0.113638
H	 0.3282448731	-1.6048792397	-1.5000004825	 0.130644
H	-2.2859416944	-0.8365608826	-0.0171862376	 0.092696
H	-1.0427446884	-2.0915772829	 1.985802242	 0.080946
H	 2.2570925039	-2.2053506676	 1.6145184622	 0.102513
H	 2.1778534348	-1.8098069743	-0.1277127678	 0.098776
H	 0.8611165161	-0.1219809183	 2.0449827922	 0.087158
171.0124	237.1461	287.7747	305.1677	387.6981	465.2817	530.1025	629.797	697.8986	794.6574	826.8351	866.7976	891.5381	914.3405	930.9269	961.9074	990.0158	1003.7993	1025.2961	1048.6405	1068.8996	1096.4447	1156.9985	1179.5257	1186.4232	1222.9825	1243.1346	1291.1205	1301.9526	1318.8466	1347.1539	1402.6071	1493.2317	1516.9922	3014.7275	3059.0287	3088.0213	3128.3125	3135.3135	3188.9236	3215.3694	3792.9647
OC12CC1C1OCC21	O[C@]12C[C@H]1[C@H]1OC[C@@H]21	
InChI=1S/C6H8O2/c7-6-1-3(6)5-4(6)2-8-5/h3-5,7H,1-2H2	InChI=1S/C6H8O2/c7-6-1-3(6)5-4(6)2-8-5/h3-5,7H,1-2H2/t3-,4+,5+,6+/m0/s1
