20
gdb 81892	3.06752	1.23617	1.03891	2.6494	81.63	-0.2379	-0.033	0.2049	1218.4272	0.169983	-403.125953	-403.116857	-403.115912	-403.15944	34.192	
C	-0.4034804521	 1.5562078819	 0.3229597986	-0.407964
C	-0.1197724957	 0.0612456733	 0.2630242366	 0.008858
C	 0.2596679937	-0.527069189	-1.1031048022	-0.093393
N	 1.532005314	 0.0456526251	-1.5119923483	-0.361223
C	 1.5631716994	-1.074804269	-0.5439758681	 0.253031
C	 2.1395913701	-2.3621160213	-0.9415857545	 0.042946
O	 2.4040944997	-2.6533450025	-2.0895164374	-0.288655
C	 1.2434220684	-0.5100036295	 0.8464909585	-0.081201
C	 2.2604369623	 0.4399687658	 1.464321048	-0.409505
H	 0.3855748923	 2.125511562	-0.1737436598	 0.14121
H	-1.3519137352	 1.7876762864	-0.1740920217	 0.114366
H	-0.4806957878	 1.9014314331	 1.3592039089	 0.11528
H	-0.9563424887	-0.4987530849	 0.6909473307	 0.078832
H	-0.3891595928	-1.0155340692	-1.8215855114	 0.111167
H	 1.7871989338	-0.365733299	-2.4120756878	 0.251822
H	 2.3023261173	-3.0822074954	-0.1105275488	 0.076822
H	 1.0212006738	-1.3301505514	 1.537396035	 0.077563
H	 2.5568560155	 1.2120150165	 0.7508117093	 0.141208
H	 1.8536003012	 0.9292607899	 2.3553461998	 0.114674
H	 3.1615297708	-0.104241933	 1.7678272448	 0.114161
106.5985	136.5422	181.3027	217.4004	219.961	242.4827	254.3133	306.7058	354.6832	490.7887	541.6554	617.3565	677.2669	738.3295	767.539	814.4842	873.2036	899.9105	966.8055	1003.2885	1016.8334	1048.9493	1052.8049	1085.1406	1105.8241	1146.9373	1150.1717	1172.4019	1215.6195	1247.4618	1303.8388	1315.9508	1358.5016	1384.7981	1396.3338	1403.075	1417.6695	1439.6	1483.8136	1498.3122	1498.6614	1512.5532	1775.5147	2896.9058	3034.4528	3037.3821	3046.2117	3067.1559	3094.3145	3097.8947	3126.2209	3132.3763	3181.7017	3457.7073
CC1C2NC2(C=O)C1C	C[C@H]1[C@H]2N[C@@]2(C=O)[C@H]1C	
InChI=1S/C7H11NO/c1-4-5(2)7(3-9)6(4)8-7/h3-6,8H,1-2H3	InChI=1S/C7H11NO/c1-4-5(2)7(3-9)6(4)8-7/h3-6,8H,1-2H3/t4-,5+,6-,7+/m1/s1
