18
gdb 67106	2.64708	2.07297	1.75163	1.0328	74.89	-0.2349	0.0815	0.3164	877.3777	0.148332	-401.827476	-401.820549	-401.819605	-401.858355	28.456	
C	-0.1241634213	 1.5064115409	-0.0582388224	-0.533149
C	 0.0145051455	 0.0167821714	-0.0685740976	 0.352124
C	 0.7764781823	-0.9065442812	-1.0416405869	-0.196146
C	 2.2261915865	-0.9095470843	-0.4413872376	-0.119608
O	 2.0112983109	-0.9187594392	 1.0114249046	-0.348706
C	 0.6059260728	-0.9320382986	 0.9928283519	 0.365155
C	-0.724426062	-0.9582177722	 1.7471319865	-0.26477
N	-1.1716221161	-0.935987398	 0.2632021894	-0.219056
C	 0.0240105158	-1.8458806089	-0.0929318831	-0.040765
H	 0.8594154788	 1.9835411118	-0.12633403	 0.12994
H	-0.730504532	 1.8492051572	-0.9030275932	 0.132967
H	-0.6034813507	 1.8547957214	 0.8626571328	 0.128214
H	 0.6875885788	-0.8953249534	-2.1294958502	 0.075882
H	 2.7953714014	-1.8021737505	-0.7213364173	 0.114156
H	 2.7999744583	-0.0167724067	-0.7108037554	 0.113881
H	-1.0042962657	-1.8771968116	 2.2688127956	 0.113808
H	-1.0264455938	-0.0729285693	 2.3127019165	 0.112768
H	-0.0668613797	-2.931026979	-0.0819759737	 0.083306
168.2235	208.9796	241.3312	290.2105	422.4711	467.0593	486.9505	659.0541	674.3704	724.4095	764.2039	803.7694	842.1764	843.3754	870.3496	893.9385	908.0559	948.3929	960.6835	988.1514	1057.0347	1084.132	1098.8101	1103.283	1135.0776	1161.3362	1170.3511	1200.1085	1233.9819	1248.8939	1270.759	1286.4355	1325.7833	1385.0626	1415.5816	1479.3241	1487.9582	1507.8651	1518.2552	3031.4271	3040.3963	3058.4892	3088.4043	3099.6716	3100.4293	3101.8688	3124.2623	3129.1888
CC12C3COC11CN2C31	C[C@@]12[C@H]3CO[C@]41CN2[C@@H]34	
InChI=1S/C7H9NO/c1-6-4-2-9-7(6)3-8(6)5(4)7/h4-5H,2-3H2,1H3	InChI=1S/C7H9NO/c1-6-4-2-9-7(6)3-8(6)5(4)7/h4-5H,2-3H2,1H3/t4-,5-,6+,7+/m0/s1
