17
gdb 66075	2.79499	1.20262	1.10359	3.3602	75.49	-0.2513	-0.0382	0.2131	1163.3238	0.132327	-421.773929	-421.764634	-421.76369	-421.808364	33.453	
C	-0.1385660994	 1.5743841722	-0.0174317611	-0.458338
C	-0.0530682438	 0.0417774762	 0.0032550096	 0.037956
C	 1.1903809289	-0.4992225898	-0.7667955433	-0.095222
O	 1.9027177656	-0.7512041115	 0.4581825819	-0.267028
C	 0.7303919856	-0.5556806323	 1.2423775652	 0.025455
C	 0.9038628681	 0.3391112111	 2.445037704	 0.138025
O	 1.9044041824	 0.9492175881	 2.7117594954	-0.239604
C	-1.327244338	-0.5808179931	-0.2971590643	 0.279425
C	-2.3854044392	-1.0960936857	-0.5437223202	-0.449228
H	 0.8292145357	 2.0117566172	 0.2425164988	 0.148825
H	-0.4205584571	 1.9149169058	-1.017739794	 0.132755
H	-0.890446584	 1.9405637433	 0.6869382108	 0.132267
H	 0.9985341972	-1.4195316182	-1.329958357	 0.114541
H	 1.7066013029	 0.2287884272	-1.4012089152	 0.117687
H	 0.28446506	-1.5055997678	 1.5766392581	 0.098065
H	-0.0095126742	 0.39340123	 3.0829838935	 0.082017
H	-3.3190772109	-1.5520060027	-0.7642278222	 0.2024
62.744	82.5131	141.703	175.2702	221.2434	256.8853	277.6616	347.4202	367.4079	507.9367	533.6975	589.8537	633.5861	645.0348	749.3971	769.7496	887.0415	910.4693	955.8851	965.414	1000.904	1033.2883	1119.3484	1140.0304	1157.5954	1189.8652	1212.5285	1280.4738	1338.9393	1366.6724	1412.8965	1417.0168	1493.0333	1497.0486	1521.721	1837.2172	2233.9981	2857.3447	2988.0854	3029.0768	3044.4584	3084.9898	3119.4531	3127.5572	3500.1847
CC1(COC1C=O)C#C	C[C@]1(CO[C@H]1C=O)C#C	
InChI=1S/C7H8O2/c1-3-7(2)5-9-6(7)4-8/h1,4,6H,5H2,2H3	InChI=1S/C7H8O2/c1-3-7(2)5-9-6(7)4-8/h1,4,6H,5H2,2H3/t6-,7+/m0/s1
