16
gdb 18559	3.83136	1.96185	1.58777	3.0492	64.11	-0.2396	-0.025	0.2146	821.3093	0.131769	-383.751666	-383.74506	-383.744116	-383.782888	25.217	
O	 0.0905544985	 0.1121772571	-0.7632008941	-0.29512
C	 0.0236311605	 1.1824358962	-0.232999192	 0.419075
C	-1.1209360973	 2.003772231	 0.3781928362	-0.358051
C	-0.1000585702	 3.150103015	 0.6585991556	-0.040289
C	 0.30611785	 3.3240023124	 2.1242006416	-0.093096
O	 1.124166681	 2.1988276114	 2.4257597357	-0.247399
C	 1.9553554363	 1.9879951471	 1.2930091063	-0.097198
C	 1.0655299854	 2.2743823472	 0.0684561206	-0.170633
H	-1.9218870899	 2.2386316833	-0.3288217049	 0.131168
H	-1.5644812138	 1.5433998681	 1.2672672762	 0.136698
H	-0.3161807907	 4.0910665387	 0.1536418023	 0.082465
H	 0.8702970331	 4.2618888094	 2.25732095	 0.091507
H	-0.5340158246	 3.3209396799	 2.8240800903	 0.114079
H	 2.8133361351	 2.6792860877	 1.3016933204	 0.096342
H	 2.3300733368	 0.9620968545	 1.3317843144	 0.130157
H	 1.6258531097	 2.6327955808	-0.7971343485	 0.100293
56.7215	191.5143	252.9756	361.7057	438.1508	508.3406	574.5359	698.4949	724.197	745.7136	850.5678	862.532	920.2737	940.4958	968.2563	988.3377	1028.3058	1061.4438	1104.0552	1107.6198	1151.4318	1162.0382	1201.0114	1226.0715	1240.6538	1260.9952	1284.7124	1324.0802	1350.0653	1395.5235	1428.9742	1502.6471	1516.5574	1891.9237	2969.162	2976.7226	3052.7873	3090.9124	3099.8421	3100.9023	3106.218	3122.2655
O=C1CC2COCC12	O=C1C[C@H]2COC[C@@H]12	
InChI=1S/C6H8O2/c7-6-1-4-2-8-3-5(4)6/h4-5H,1-3H2	InChI=1S/C6H8O2/c7-6-1-4-2-8-3-5(4)6/h4-5H,1-3H2/t4-,5+/m0/s1
