15
gdb 54964	3.29176	1.10122	0.99366	6.0051	68.17	-0.2617	-0.0157	0.2459	1188.7134	0.111642	-453.977069	-453.968361	-453.967417	-454.01054	32.21	
N	-0.0298966449	 1.218302169	 0.2993889131	-0.532992
C	-0.0003295906	-0.051761257	-0.1679809782	 0.466217
O	 1.0417331519	-0.5812960178	-0.5511115254	-0.408797
C	-1.3015499878	-0.7790361248	-0.1775928808	-0.229402
C	-1.5767493764	-1.7387866958	-1.3249354226	-0.333881
C	-1.2061769911	-2.3159589264	 0.0117325615	 0.279804
O	 0.0108884633	-2.9267491649	 0.2221143736	-0.456923
C	-2.2657878975	-2.9025589543	 0.8052817378	 0.277889
N	-3.1371633781	-3.3446387457	 1.4225111583	-0.337027
H	 0.8360533657	 1.7305498614	 0.3476357472	 0.274061
H	-0.8759860249	 1.6591258065	 0.6140533614	 0.272213
H	-2.1540741785	-0.2834825853	 0.2726921004	 0.115186
H	-2.5987346843	-1.8177000377	-1.6752285949	 0.14523
H	-0.8035292271	-1.8092655274	-2.0820587984	 0.152857
H	 0.6896299703	-2.3002398398	-0.1042315129	 0.315564
80.3114	108.7149	161.8513	240.8848	252.4294	275.821	369.0113	403.5085	434.8712	553.91	582.719	601.7153	619.7913	651.9347	685.4202	780.0981	811.9856	836.1731	917.1628	986.4845	1049.7477	1072.9945	1078.9764	1126.5574	1204.6297	1289.2404	1302.7305	1442.0659	1450.745	1488.5817	1620.3861	1742.1958	2362.5417	3143.4195	3176.2488	3244.1417	3509.3908	3604.5802	3741.3502
NC(=O)C1CC1(O)C#N	NC(=O)[C@H]1C[C@]1(O)C#N	
InChI=1S/C5H6N2O2/c6-2-5(9)1-3(5)4(7)8/h3,9H,1H2,(H2,7,8)	InChI=1S/C5H6N2O2/c6-2-5(9)1-3(5)4(7)8/h3,9H,1H2,(H2,7,8)/t3-,5+/m1/s1
