15
gdb 125432	3.24972	1.42211	1.00143	2.583	71.31	-0.2551	-0.0682	0.1869	1140.7193	0.110846	-453.964386	-453.955897	-453.954952	-453.998075	30.13	
C	 0.0058286032	 1.5005611231	 0.0235186971	-0.46523
C	-0.0537410915	 0.0058037556	-0.0041543294	 0.434629
N	-1.1366212137	-0.6386739515	-0.2505930882	-0.349583
C	-1.0708220938	-2.0303396673	-0.2494478281	 0.33852
O	-2.0280819182	-2.7392457964	-0.468291039	-0.323555
C	 0.2696130635	-2.6224593243	 0.041739421	 0.254341
C	 0.4093110637	-4.1108651239	 0.0581229538	-0.462171
N	 1.321688152	-1.9242667388	 0.2818771182	-0.132982
O	 1.154619227	-0.5287973272	 0.2587077022	-0.245083
H	 0.7259746053	 1.8621475681	-0.716669613	 0.160558
H	-0.9834311922	 1.9011242518	-0.1919427346	 0.166157
H	 0.34462927	 1.8456107162	 1.0049901949	 0.160558
H	 0.1048255004	-4.5198321488	-0.9099939639	 0.159364
H	 1.4370775654	-4.3993158099	 0.2811489659	 0.145134
H	-0.2710091611	-4.5362905469	 0.8020770832	 0.15934
68.3951	81.8636	153.7193	178.4879	276.2861	321.6675	329.9971	411.341	486.8888	548.1925	558.0082	620.8603	713.1993	766.1901	815.8485	889.2669	964.2218	1031.5467	1053.0337	1064.6657	1073.736	1146.0171	1282.0969	1365.5849	1404.53	1408.6644	1460.1787	1463.857	1466.1411	1473.2411	1641.9276	1673.8885	1793.2843	3052.1832	3055.3687	3113.0175	3117.1569	3155.878	3175.5303
CC1=NC(=O)C(C)=NO1	Cc1nc(=O)c(C)no1	
InChI=1S/C5H6N2O2/c1-3-5(8)6-4(2)9-7-3/h1-2H3	InChI=1S/C5H6N2O2/c1-3-5(8)6-4(2)9-7-3/h1-2H3
