23
gdb 95062	2.76264	1.49589	1.20208	1.0894	85.05	-0.2451	0.0794	0.3245	1147.111	0.20839	-388.29253	-388.284469	-388.283524	-388.324519	33.233	
C	 0.309813954	 1.5918412112	 0.1255183036	-0.396911
C	 0.0166869887	 0.0991863216	 0.0149680982	 0.141253
C	 0.4565692044	-0.4636439401	-1.3504531368	-0.205923
C	 0.4398067904	-1.9923017079	-1.4844857119	-0.007475
C	-0.7446761683	-2.6821709088	-0.7475011609	-0.238253
C	 0.1967396873	-2.8893000603	 0.4731784677	-0.00954
C	 1.3990085003	-2.7253794927	-0.4984758855	-0.220298
C	 0.1453788615	-1.7716599932	 1.5223831851	-0.092282
O	 0.686454633	-0.5318210325	 1.1033560373	-0.255712
H	 1.3892079863	 1.7671140044	 0.0762500182	 0.122974
H	-0.1675226522	 2.1445449244	-0.6894653648	 0.110315
H	-0.0570718689	 1.9850009398	 1.0772173534	 0.117183
H	-1.0685503115	-0.0549811739	 0.1336163481	 0.064353
H	-0.202589087	-0.027224279	-2.1127993743	 0.091441
H	 1.4701606018	-0.10116514	-1.5690240915	 0.095646
H	 0.5630403075	-2.2561683423	-2.5389261413	 0.060408
H	-1.6671984691	-2.1126325879	-0.5971612145	 0.088834
H	-1.0036114662	-3.637103386	-1.2133500054	 0.093454
H	 0.0990962774	-3.8496385039	 0.9895404643	 0.061403
H	 1.7312328978	-3.6864258665	-0.9000223693	 0.089723
H	 2.2622647837	-2.1661734828	-0.1311379985	 0.102581
H	-0.8940583865	-1.6360986332	 1.8691547801	 0.083453
H	 0.7492856856	-2.0592751903	 2.3898971685	 0.103373
132.0648	212.8691	244.3302	287.7617	308.1109	328.2332	360.222	389.5796	467.9929	516.9352	620.3332	753.5223	791.376	803.4272	842.0457	868.2377	885.8564	908.2417	922.3385	958.0571	1008.9022	1017.8814	1046.1534	1062.0156	1101.1824	1114.8395	1129.1208	1153.21	1171.7536	1174.6563	1195.2095	1232.8589	1257.7818	1277.3232	1301.1695	1317.8779	1325.1966	1350.7435	1358.2099	1388.3248	1400.893	1408.454	1414.7357	1470.2659	1473.177	1485.1224	1487.8863	1499.0597	1502.9809	2952.9816	2966.2168	3008.9611	3040.1872	3042.2274	3048.4265	3049.9402	3054.2709	3064.1075	3069.394	3096.5737	3112.8903	3117.3564	3120.4812
CC1CC2CC(C2)CO1	C[C@H]1C[C@@H]2C[C@@H](C2)CO1	
InChI=1S/C8H14O/c1-6-2-7-3-8(4-7)5-9-6/h6-8H,2-5H2,1H3	InChI=1S/C8H14O/c1-6-2-7-3-8(4-7)5-9-6/h6-8H,2-5H2,1H3/t6-,7-,8+/m0/s1
