19
gdb 118790	3.80802	0.90594	0.82734	6.1427	77.47	-0.2617	0.0243	0.2861	1409.0745	0.158198	-419.194182	-419.184362	-419.183418	-419.229187	35.486	
C	 0.1500726053	 1.7783372663	 0.1118832185	-0.45127
C	-0.2492903161	 0.3177487807	 0.088228554	 0.325149
C	-1.6969554204	 0.0310852708	-0.2996556118	-0.279331
C	-1.9362887813	 0.0190700089	-1.8094112791	-0.069801
O	-1.3537027335	-1.1755662619	-2.3239673434	-0.414845
N	 0.7925096189	-0.6028114564	-0.3766518905	-0.338964
C	 0.3987024841	-0.6483425435	 1.0445972116	-0.250305
C	 1.3849589971	-0.22866252	 2.01120506	 0.326418
N	 2.1476781181	 0.1145436173	 2.8098676729	-0.343357
H	 1.2080756799	 1.8863183919	 0.3565264365	 0.152492
H	-0.017501045	 2.2385733657	-0.8678531743	 0.119982
H	-0.4383738235	 2.3314625207	 0.8514234876	 0.124467
H	-2.0120854456	-0.9458795515	 0.084156379	 0.114314
H	-2.3502220021	 0.7808504591	 0.1603005485	 0.111762
H	-3.017894274	 0.0407483074	-2.0094848711	 0.097653
H	-1.4942593001	 0.9094192718	-2.2793199175	 0.10222
H	-1.3155940412	-1.1150071845	-3.282740404	 0.295311
H	 0.3691920465	-1.3758610853	-0.8850173025	 0.25316
H	-0.2118568071	-1.4795958476	 1.3880937956	 0.124944
49.1513	114.49	129.3551	166.0536	201.3448	234.9804	263.6286	328.8612	358.4106	390.1978	401.333	481.7309	576.9573	618.2431	703.9734	822.7396	878.2991	884.7859	937.1835	961.3758	995.271	1018.3576	1074.2051	1083.9079	1091.512	1136.281	1187.6038	1219.5165	1262.5822	1279.2953	1292.6069	1370.9129	1383.8473	1423.2032	1438.8898	1447.6198	1471.1177	1489.2458	1496.5172	1520.0154	2355.9373	2985.7799	3017.4522	3038.0063	3042.0758	3083.6401	3099.7333	3139.999	3143.4663	3511.1702	3837.862
CC1(CCO)NC1C#N	C[C@@]1(CCO)N[C@H]1C#N	
InChI=1S/C6H10N2O/c1-6(2-3-9)5(4-7)8-6/h5,8-9H,2-3H2,1H3	InChI=1S/C6H10N2O/c1-6(2-3-9)5(4-7)8-6/h5,8-9H,2-3H2,1H3/t5-,6-/m0/s1
