20
gdb 9505	2.74197	1.63683	1.51486	2.6792	75.39	-0.2434	-0.019	0.2244	990.1195	0.175235	-349.014257	-349.005309	-349.004365	-349.047662	32.973	
C	-0.6610518694	 1.2144976982	-0.0357826878	-0.41629
C	 0.157369512	-0.0654607012	-0.1003173325	 0.008337
C	 1.5442713634	-0.0504382514	-0.796827754	-0.231538
C	 2.092031617	-0.9934958978	 0.3037924868	-0.265
C	 0.8757692425	-0.6395171162	 1.2002462326	 0.227822
C	 1.1647896345	 0.4005187441	 2.2830829732	-0.467968
C	 0.1178741889	-1.8058183045	 1.7823318691	 0.10292
O	 0.3348133633	-2.9684189688	 1.5469499718	-0.258724
H	-0.0898811023	 2.0440659549	 0.3925142678	 0.116506
H	-0.9687943691	 1.5147578741	-1.0437267916	 0.121102
H	-1.5708308693	 1.0882088622	 0.5613278715	 0.117017
H	-0.4536596328	-0.865447849	-0.5331388961	 0.086734
H	 1.5814323497	-0.4037391409	-1.8299849399	 0.100873
H	 2.0029335796	 0.9427219913	-0.7571655455	 0.098887
H	 2.0635218953	-2.0468498578	 0.0175632673	 0.125839
H	 3.0779321063	-0.7638035396	 0.7150535718	 0.096414
H	 1.654694076	 1.2845705537	 1.8654289294	 0.124836
H	 0.2475616137	 0.7317118536	 2.7827459734	 0.120045
H	 1.8316332066	-0.0154202565	 3.0464493976	 0.125503
H	-0.7262158859	-1.5127704385	 2.4527930551	 0.066686
64.8422	100.1029	204.3992	220.8827	238.7976	262.2533	276.8881	327.5039	376.2077	438.6691	552.3226	632.8131	735.2672	786.9339	859.952	897.1572	913.059	935.5648	964.3621	974.8448	1009.6303	1068.8726	1110.267	1153.9584	1177.0044	1199.8728	1232.4989	1252.8718	1268.9852	1281.3234	1318.4952	1368.1326	1405.7649	1411.3576	1427.9642	1484.4642	1487.999	1490.0364	1500.3027	1503.0628	1505.9514	1819.6844	2837.2148	3027.3783	3030.3722	3038.9421	3051.0203	3067.7545	3090.9937	3093.8731	3100.0636	3103.089	3109.1368	3127.9632
CC1CCC1(C)C=O	C[C@H]1CC[C@]1(C)C=O	
InChI=1S/C7H12O/c1-6-3-4-7(6,2)5-8/h5-6H,3-4H2,1-2H3	InChI=1S/C7H12O/c1-6-3-4-7(6,2)5-8/h5-6H,3-4H2,1-2H3/t6-,7+/m0/s1
