21
gdb 70723	2.68984	1.54792	1.15326	1.0894	85.31	-0.2272	0.0201	0.2473	1137.1339	0.183738	-387.081063	-387.072743	-387.071799	-387.113703	33.013	
C	-0.1159468932	 1.5152414538	-0.1625780845	-0.462947
C	-0.0402986397	 0.0079071413	 0.0389018999	 0.303632
C	-0.5228812327	-0.518644452	 1.3905935216	-0.316755
C	 0.9470948318	-0.4827940514	 1.0772973588	-0.066365
C	 1.7386051564	-1.7689173467	 0.9479989422	-0.120183
O	 0.9771193998	-2.8669071797	 0.4933181847	-0.233518
C	 0.8804332692	-2.9854167145	-0.9108885002	-0.142743
C	 0.0188218525	-1.9690340364	-1.6081612484	-0.089171
C	-0.3528593312	-0.7533661217	-1.2021525718	-0.101431
H	 0.6171350595	 1.8552278902	-0.9030417724	 0.117919
H	-1.1094688595	 1.8151309356	-0.516184352	 0.116558
H	 0.0792184737	 2.050421555	 0.7714826137	 0.111781
H	-0.9309610844	 0.1939815481	 2.1003196393	 0.104037
H	-0.9928543952	-1.4948491715	 1.3896223498	 0.12847
H	 1.5235926434	 0.3046252992	 1.5597861888	 0.078286
H	 2.6169233509	-1.6168510357	 0.2988930321	 0.088945
H	 2.1113145693	-2.0517163439	 1.9405646258	 0.107195
H	 1.8925441615	-2.9831898439	-1.357794773	 0.097264
H	 0.4667077197	-3.9848622127	-1.0924094098	 0.113653
H	-0.3397973636	-2.3024167399	-2.5811669627	 0.08544
H	-0.9954485779	-0.1983245232	-1.8852318318	 0.079935
73.7364	178.2729	228.3468	246.234	297.6749	338.8051	356.4809	395.4558	471.5683	500.7783	632.4627	660.5829	714.911	766.146	810.407	878.6859	890.9722	927.3972	946.4727	954.2219	1004.7793	1013.358	1033.3446	1060.0124	1104.3897	1111.206	1120.396	1128.6399	1177.6348	1227.8851	1258.7331	1283.656	1331.6261	1335.8251	1392.645	1408.2366	1414.7993	1424.1284	1439.2621	1475.7065	1487.8418	1490.9001	1494.7363	1502.6675	1733.5589	2927.1479	2966.544	3022.3949	3041.6876	3046.4952	3083.0702	3100.7538	3116.2197	3120.0644	3130.7417	3142.1746	3228.5874
CC12CC1COCC=C2	C[C@]12C[C@H]1COCC=C2	
InChI=1S/C8H12O/c1-8-3-2-4-9-6-7(8)5-8/h2-3,7H,4-6H2,1H3	InChI=1S/C8H12O/c1-8-3-2-4-9-6-7(8)5-8/h2-3,7H,4-6H2,1H3/t7-,8-/m0/s1
