20
gdb 118445	1.68648	1.50119	1.00932	3.9769	71.54	-0.2437	0.0179	0.2616	1281.7766	0.169872	-477.43648	-477.4262	-477.425255	-477.472803	35.701	
C	-0.6429624032	 1.1148474017	-0.124440006	-0.327399
N	 0.4328425509	 0.1242683581	-0.1942213018	-0.314864
H	 0.1348596302	-0.671221004	-0.7544169022	 0.243527
H	 2.2425598315	 0.397448457	-0.4773761583	 0.299346
C	 0.8892358586	-0.404032223	 1.0983863146	-0.135384
C	 0.2552180393	-1.7675296844	 1.4439424289	-0.094372
O	 0.2272385674	-2.6464925684	 0.335880712	-0.247742
C	 1.4422385116	-3.3363570386	 0.0802959504	-0.249989
C	 2.433314171	-0.468606715	 1.1334012664	 0.42805
O	 3.0435902489	-0.9702772007	 2.0413545826	-0.354434
O	 3.0102006068	 0.0992176331	 0.0710578338	-0.372697
H	-0.2819731787	 2.01223134	 0.3873431131	 0.135603
H	-0.934216456	 1.4014046219	-1.1384727034	 0.131924
H	-1.5406666695	 0.7575932153	 0.4024905071	 0.115781
H	 0.6146313866	 0.2972610478	 1.89542027	 0.116161
H	 0.7929765198	-2.20448334	 2.294750543	 0.129867
H	-0.7920375013	-1.6169676835	 1.7255675954	 0.109257
H	 1.2131868734	-4.1099405569	-0.6565229514	 0.12823
H	 2.2193972061	-2.6788093517	-0.3303280249	 0.130168
H	 1.8325928366	-3.8068479385	 0.9918618407	 0.128967
45.6715	77.3469	97.0088	108.4109	187.9096	197.1728	227.0682	246.5827	320.7963	377.9352	429.6426	508.8759	571.282	605.4445	755.0699	802.6778	843.3037	903.9724	942.2273	994.8046	1032.2539	1076.1783	1114.9011	1142.7128	1163.1798	1178.3892	1198.3144	1218.8639	1234.4195	1274.8135	1314.3874	1350.9872	1391.6684	1439.3396	1464.4587	1471.9926	1485.8004	1490.7274	1499.4231	1501.5661	1507.1361	1519.4324	1861.2389	2990.3077	3005.7529	3028.2473	3049.963	3066.0236	3077.2291	3085.0867	3116.9488	3119.0004	3358.3358	3492.8737
C[NH2+]C(COC)C([O-])=O	CN[C@@H](COC)C(=O)O	
InChI=1S/C5H11NO3/c1-6-4(3-9-2)5(7)8/h4,6H,3H2,1-2H3,(H,7,8)	InChI=1S/C5H11NO3/c1-6-4(3-9-2)5(7)8/h4,6H,3H2,1-2H3,(H,7,8)/t4-/m0/s1
