19
gdb 71003	3.06409	1.59587	1.41751	0.6963	76.06	-0.2436	0.0315	0.2751	998.3079	0.158738	-422.900427	-422.89285	-422.891906	-422.931832	31.063	
C	-0.0561981895	 1.5339532669	-0.0214113548	-0.491741
C	 0.0834004158	 0.0404645311	-0.0540551323	 0.32081
C	 0.4179804179	-0.6974437346	-1.3496552358	-0.247322
C	 0.1974181845	-2.1393264574	-0.825358225	-0.237644
C	-0.1790340074	-1.8046431763	 0.6328614966	 0.329886
C	 0.505974219	-2.7352751987	 1.6746151079	-0.202176
O	 1.7186238523	-1.8930936428	 1.4757809523	-0.326334
C	 0.7603096286	-0.8042927064	 1.1212226911	 0.077776
O	-1.1641345699	-0.69218631	 0.4118596057	-0.397368
H	 0.8804715338	 2.0026829869	-0.3398368349	 0.13067
H	-0.8491111393	 1.8584893727	-0.7029567573	 0.13533
H	-0.3019256752	 1.884775822	 0.9841925633	 0.132415
H	-0.2684698942	-0.4162733253	-2.1518380293	 0.106504
H	 1.4419639791	-0.5035179744	-1.6815614181	 0.107551
H	-0.6354608388	-2.6482234178	-1.3167807369	 0.106904
H	 1.0889771048	-2.7643730112	-0.8947440087	 0.11601
H	 0.1389120217	-2.6520850175	 2.7022155343	 0.121853
H	 0.6908825368	-3.7761843572	 1.3968060719	 0.121507
H	 0.45018404	-0.33428402	 2.0595476599	 0.095369
193.3189	214.7349	232.9839	263.8216	300.451	370.9514	460.0274	505.611	515.089	595.8959	642.7133	732.0115	784.6993	816.0945	832.5608	843.4485	860.5352	919.0892	927.3295	982.1775	994.0565	1019.354	1071.5293	1084.8019	1119.5843	1162.8724	1192.9736	1196.9607	1234.5797	1249.0694	1263.4196	1300.5652	1325.0161	1358.4441	1398.3629	1414.5525	1469.2667	1477.2348	1490.8858	1495.5573	1500.748	3039.9501	3045.5456	3057.0616	3060.7334	3074.1075	3105.7968	3110.2931	3117.6398	3121.7598	3131.56
CC12CCC3(COC13)O2	C[C@@]12CC[C@]3(CO[C@@H]13)O2	
InChI=1S/C7H10O2/c1-6-2-3-7(9-6)4-8-5(6)7/h5H,2-4H2,1H3	InChI=1S/C7H10O2/c1-6-2-3-7(9-6)4-8-5(6)7/h5H,2-4H2,1H3/t5-,6+,7+/m0/s1
