18
gdb 74230	2.31472	1.58899	1.04324	6.2561	77.21	-0.2182	-0.0149	0.2033	1144.7951	0.149734	-439.131424	-439.123197	-439.122252	-439.164163	31.777	
N	 0.0196153354	 1.416881341	 0.0328707433	-0.556941
C	-0.0268655553	 0.0432866222	 0.081707884	 0.358334
C	-1.1966898623	-0.6377167548	 0.1647263391	-0.326131
C	-1.3321828809	-2.0965670201	 0.1953723427	 0.385475
O	-2.2740718613	-2.6890243718	-0.2691643529	-0.350729
O	-0.3157267627	-2.8323606064	 0.7667587546	-0.24013
C	 0.4441274281	-2.2367688825	 1.8226027245	-0.070789
C	 1.6533817125	-1.4509115179	 1.313484446	-0.210592
C	 1.3179670268	-0.6506376736	 0.039084792	-0.290289
H	 0.8204925338	 1.8421379816	-0.405645252	 0.256619
H	-0.8477446074	 1.9051750312	-0.1316471451	 0.258329
H	-2.1385368821	-0.1083456556	 0.0624978598	 0.090571
H	-0.2064594583	-1.5850518612	 2.4138391492	 0.116466
H	 0.7624436754	-3.0660100648	 2.4604780432	 0.116426
H	 1.9932725772	-0.7827415582	 2.1133253553	 0.108416
H	 2.4839820632	-2.1262868333	 1.083858719	 0.112417
H	 1.3110767694	-1.3430581678	-0.8077232731	 0.145701
H	 2.1115728283	 0.078589112	-0.1524015795	 0.096848
96.5586	144.4342	161.0679	280.566	328.1541	371.9015	388.2448	403.4709	491.4532	522.5898	556.5735	638.66	672.5749	745.4867	769.2609	837.7944	843.5605	873.5509	909.7259	974.6616	1063.7143	1092.7572	1096.7738	1121.9132	1205.206	1222.6249	1259.7899	1304.4789	1318.0749	1346.7586	1374.12	1413.8663	1429.0542	1478.8874	1493.3005	1500.099	1644.1844	1677.8784	1808.2299	3037.3568	3048.7633	3053.7546	3076.3984	3096.0549	3104.0296	3177.2596	3579.4738	3690.3775
NC1=CC(=O)OCCC1	NC1=CC(=O)OCCC1	
InChI=1S/C6H9NO2/c7-5-2-1-3-9-6(8)4-5/h4H,1-3,7H2	InChI=1S/C6H9NO2/c7-5-2-1-3-9-6(8)4-5/h4H,1-3,7H2
