15
gdb 5688	4.67512	2.06546	1.4755	1.88	66.19	-0.2241	0.0071	0.2312	817.2307	0.122603	-362.699722	-362.693659	-362.692715	-362.730082	23.133	
C	 0.1067446749	 1.4536031483	-0.2689850352	-0.19897
C	 1.5050095888	 1.9784175895	 0.2353698345	-0.353436
C	 2.119052616	 0.6858493029	 0.6325339291	 0.310976
C	 1.3019913727	-0.3821109739	 0.6412954408	 0.244216
C	-0.0914316251	-0.0274050732	 0.2279524537	-0.344564
N	 1.9945730383	-1.4988115478	 1.0880637777	-0.33863
C	 3.1826530416	-1.0325088496	 1.3168205686	 0.033824
O	 3.350100739	 0.303365137	 1.0694294227	-0.197981
H	-0.7049361353	 2.104469602	 0.0627406087	 0.108716
H	 0.1013516535	 1.4667261377	-1.3618466212	 0.117573
H	 2.0461065469	 2.5147647033	-0.5509845659	 0.119521
H	 1.4046768335	 2.669158386	 1.0823679929	 0.119778
H	-0.7925462004	-0.0835027137	 1.0696256049	 0.116125
H	-0.4964156536	-0.6658263566	-0.5633526228	 0.11732
H	 4.0537923093	-1.5622752119	 1.6690289415	 0.145531
103.2784	216.3213	252.191	424.9116	572.1594	642.7456	683.3338	712.6807	735.1569	812.731	819.5552	888.6789	916.9802	949.9378	983.6375	1061.1455	1076.2928	1095.6104	1157.7291	1207.1343	1225.1563	1257.1672	1271.136	1296.5105	1326.7688	1365.5296	1416.7306	1484.2982	1497.772	1512.4321	1525.6201	1676.2176	3022.5068	3030.762	3059.8708	3068.5052	3076.0787	3116.0046	3275.3973
C1CC2=C(C1)N=CO2	C1Cc2c(C1)nco2	
InChI=1S/C6H7NO/c1-2-5-6(3-1)8-4-7-5/h4H,1-3H2	InChI=1S/C6H7NO/c1-2-5-6(3-1)8-4-7-5/h4H,1-3H2
