16
gdb 31435	3.00476	1.2461	0.88567	4.7878	78.03	-0.2079	-0.0371	0.1708	1245.1977	0.124751	-437.910809	-437.902617	-437.901673	-437.944007	30.318	
O	 0.042614623	 1.4295634684	 0.0066628277	-0.408068
C	 0.0102139727	 0.0208471525	 0.0026240684	-0.158354
C	-1.4118103566	-0.4681903733	 0.0124302872	 0.262789
C	-2.4723489148	 0.3677258491	 0.0226146821	-0.236591
C	-3.8337947123	-0.1264666251	 0.0318713858	 0.380319
N	-4.8633174314	 0.6174636033	 0.0416115017	-0.536616
O	-3.9828483616	-1.5233877566	 0.0296059308	-0.239599
C	-2.9087149144	-2.3381074401	 0.0193802754	 0.077717
C	-1.6424777299	-1.8951376524	 0.0107339894	-0.251392
H	 0.960748493	 1.7130305396	-0.0010478815	 0.295806
H	 0.5151344482	-0.3967875595	-0.8862119225	 0.107847
H	 0.5292092662	-0.4021705532	 0.8807470165	 0.107822
H	-2.3506780899	 1.4412703885	 0.0243148325	 0.140987
H	-5.7141762795	 0.0545052309	 0.0467751586	 0.218064
H	-3.2014614819	-3.381281885	 0.0191038621	 0.135622
H	-0.8233284109	-2.6030859773	 0.0027466959	 0.103647
73.1603	139.9946	171.3377	190.7233	221.5871	382.8719	390.6445	466.2485	543.1174	583.0295	583.864	714.2163	745.7652	781.259	840.9844	848.2966	905.289	930.926	990.5724	1041.2132	1066.9091	1090.4007	1114.699	1167.9889	1221.1659	1255.6255	1260.4831	1301.3769	1345.7701	1444.4978	1473.1737	1506.5636	1617.4565	1689.8665	1741.2324	2946.222	2963.1345	3201.343	3221.1066	3249.4716	3489.3865	3846.4567
OCC1=CC(=N)OC=C1	OC[C@H]1C=C([NH])OC=C1	
InChI=1S/C6H7NO2/c7-6-3-5(4-8)1-2-9-6/h1-3,7-8H,4H2	InChI=1S/C6H8NO2/c7-6-3-5(4-8)1-2-9-6/h1-3,5,7-8H,4H2/t5-/m1/s1
