17
gdb 99254	2.98149	1.07424	0.94626	4.1487	65.98	-0.234	0.0088	0.2428	1282.02	0.13525	-492.334814	-492.32481	-492.323866	-492.371384	34.567	
N	 0.3390827888	-0.3598473271	-0.6550125807	-0.505865
C	-0.0196071089	 0.2483883171	 0.6335805542	-0.231909
C	 0.7743406207	-0.3913386578	 1.7565296523	 0.424859
O	 1.8552470749	-0.0432843554	 2.1586419602	-0.366023
O	 0.1410510551	-1.5162663035	 2.1947457174	-0.221837
C	 0.9473068817	-2.4056445613	 2.943556673	-0.189818
C	 1.8942452625	-3.1718285538	 2.004111688	 0.401326
N	 2.7985397239	-3.9579326145	 2.6531270537	-0.521523
O	 1.8055884126	-3.1098409692	 0.7957429279	-0.348045
H	 1.321818112	-0.1741642859	-0.839613351	 0.240046
H	 0.274380431	-1.3722734422	-0.5675790378	 0.253241
H	 0.2064578523	 1.3164108774	 0.6054958798	 0.126781
H	-1.0904440815	 0.1135787139	 0.8080424791	 0.123814
H	 1.5219853741	-1.8669986985	 3.7033773834	 0.139672
H	 0.2639281103	-3.1064681298	 3.4302377089	 0.142412
H	 2.9859128509	-3.8392467179	 3.6345120445	 0.26411
H	 3.5015804596	-4.4158585416	 2.0949321471	 0.268758
35.2875	57.5836	70.6629	83.0954	231.0212	272.373	302.8181	318.0713	335.1147	382.1914	460.6854	484.116	587.6489	641.4027	691.4762	777.885	825.9776	845.4574	915.2269	947.8709	1038.1785	1084.1957	1101.5215	1111.585	1151.6759	1252.3894	1292.0014	1317.3991	1362.3436	1395.8113	1413.4101	1458.8491	1476.7806	1624.1926	1672.1518	1808.0991	1826.1499	3058.1971	3066.3169	3114.9625	3125.6083	3481.5603	3552.9504	3593.2459	3722.1735
NCC(=O)OCC(N)=O	NCC(=O)OCC(=O)N	
InChI=1S/C4H8N2O3/c5-1-4(8)9-2-3(6)7/h1-2,5H2,(H2,6,7)	InChI=1S/C4H8N2O3/c5-1-4(8)9-2-3(6)7/h1-2,5H2,(H2,6,7)
