16
gdb 69697	4.73424	1.04715	0.98924	3.4405	71.43	-0.233	0.0021	0.2351	1185.6645	0.122546	-437.805761	-437.797921	-437.796977	-437.838103	30.153	
O	-0.1166786761	 1.4089353691	 0.2137241592	-0.451736
C	-0.0407127968	 0.0467762904	 0.0178978016	 0.374027
C	-0.3858742054	-0.6550278549	-1.263670885	-0.350743
C	-1.1807978805	-0.9520893443	-0.0050654832	-0.143472
C	-0.391653615	-1.8631084716	 0.9803113466	-0.026083
C	 0.7354277024	-0.8844697985	 1.015234374	-0.146194
N	 0.9066151358	-2.2066188472	 0.4173194663	-0.078739
C	 1.7315286647	-3.1987641794	 0.9151235176	 0.134295
O	 1.3675902394	-4.2958692703	 1.2635175845	-0.295205
H	 0.5600564294	 1.8331675499	-0.3265270593	 0.291115
H	-0.921131436	-0.0224883211	-1.9652177138	 0.119386
H	 0.2647830927	-1.4025219925	-1.7023856125	 0.13515
H	-2.2458063124	-0.7799138943	 0.0658870868	 0.110074
H	-0.8067501426	-2.4638741681	 1.7781270851	 0.127633
H	 1.3337213086	-0.5548530379	 1.8563021401	 0.117451
H	 2.7940390618	-2.8876843492	 0.8909972019	 0.083041
89.6356	150.8767	238.2803	256.9602	298.3637	350.1502	385.042	446.9936	511.3831	634.2377	689.5744	757.9589	784.7171	809.6773	864.3306	876.1478	932.0696	940.9229	969.3208	1005.7263	1024.1502	1029.8116	1077.2068	1090.3466	1158.4671	1177.1247	1204.1121	1253.2781	1274.6551	1307.5325	1386.4287	1408.4063	1415.2972	1483.1865	1793.4474	2946.261	3132.8129	3194.0866	3212.4775	3220.9555	3226.6076	3782.5039
OC12CC1C1C2N1C=O	O[C@]12C[C@H]1[C@@H]1[C@H]2N1C=O	
InChI=1S/C6H7NO2/c8-2-7-4-3-1-6(3,9)5(4)7/h2-5,9H,1H2	InChI=1S/C6H7NO2/c8-2-7-4-3-1-6(3,9)5(4)7/h2-5,9H,1H2/t3-,4+,5+,6+,7?/m0/s1
