21
gdb 77721	2.56518	1.60623	1.47238	1.2868	81.28	-0.2085	0.0826	0.291	1044.2291	0.183972	-387.052218	-387.044234	-387.04329	-387.084147	32.18	
C	-0.1372795158	 1.3338955842	 0.1377486824	-0.427883
C	 0.1847756786	-0.1337892333	-0.037716271	-0.110224
C	 0.8118755151	-0.7373445806	-1.2891551944	 0.1883
C	 1.9122649803	 0.1666174497	-1.8923396271	-0.289546
C	 2.6902662212	 0.1180890759	-0.5325271618	-0.294735
C	 1.5550714761	-0.743390083	 0.0326517317	 0.36007
O	 1.7331190599	-2.0368392907	 0.5215282432	-0.293103
C	 0.8695270609	-2.902403732	-0.236028912	-0.096144
C	 0.5560654485	-2.1970763073	-1.5988564074	-0.322726
H	 0.6429453742	 1.9835384085	-0.267095522	 0.120968
H	-1.0748777265	 1.5910208566	-0.3675478072	 0.117732
H	-0.2504554794	 1.5790663556	 1.1992068787	 0.120903
H	-0.568788527	-0.7877144617	 0.3944967279	 0.090028
H	 2.4542583025	-0.326266797	-2.7025039578	 0.103623
H	 1.5931450345	 1.1514045436	-2.2460535782	 0.100008
H	 3.6178874222	-0.4518919421	-0.6061178327	 0.113148
H	 2.8972882043	 1.0646247527	-0.0244109928	 0.097745
H	 1.3780819081	-3.864089179	-0.353626208	 0.10912
H	-0.058110073	-3.0816649045	 0.3241837501	 0.102376
H	-0.4564790473	-2.440836539	-1.9364664273	 0.104251
H	 1.2516317328	-2.5350688266	-2.3744227941	 0.106087
175.3072	177.3002	213.5256	228.7444	250.0611	328.6802	360.5952	471.7282	553.0558	647.9919	677.3961	706.8556	755.2259	770.9018	813.6982	845.9725	910.386	938.593	942.513	974.8735	994.2028	1012.9535	1034.4247	1095.155	1107.1723	1124.2609	1171.3394	1196.3213	1216.0738	1229.5742	1236.127	1243.2773	1267.3044	1274.2327	1313.8541	1331.3097	1383.4143	1413.2102	1450.6351	1471.4206	1489.0686	1497.8672	1501.3868	1503.7351	1525.1659	3009.1556	3033.5422	3041.2097	3050.5707	3057.475	3073.1331	3087.8595	3091.0448	3101.9049	3113.8062	3125.4907	3142.3791
CC1C23CCC12OCC3	C[C@H]1[C@@]23CC[C@@]12OCC3	
InChI=1S/C8H12O/c1-6-7-2-3-8(6,7)9-5-4-7/h6H,2-5H2,1H3	InChI=1S/C8H12O/c1-6-7-2-3-8(6,7)9-5-4-7/h6H,2-5H2,1H3/t6-,7-,8+/m0/s1
