17
gdb 50738	2.50726	1.46139	0.99064	2.8245	68.67	-0.249	-0.0348	0.2143	1156.3887	0.135535	-458.991325	-458.983038	-458.982094	-459.025001	30.078	
O	-0.516441507	 0.7461660178	-0.7470422248	-0.246845
C	 0.1591228763	 0.9875310367	 0.2213113254	 0.158084
C	 1.3344792438	 1.945496024	 0.1944240742	-0.227729
C	 1.4722080142	 2.6872595595	-1.1544884419	-0.094384
O	 2.5577493764	 3.5913555391	-1.1355520597	-0.238136
C	 2.3760748291	 4.6175096855	-0.181448074	-0.091451
C	 2.3301609746	 4.0466880576	 1.2499065	-0.303207
C	 1.2887250337	 2.9474904678	 1.3542877509	 0.371265
O	 0.4836597993	 2.8717835731	 2.2525853315	-0.303404
H	-0.035603446	 0.5100998059	 1.2016375099	 0.110037
H	 2.2482611658	 1.3479110418	 0.3461180081	 0.129856
H	 1.6577124741	 1.9759775001	-1.9606416385	 0.134047
H	 0.5302225703	 3.2095419421	-1.3797309681	 0.115029
H	 3.2172595777	 5.3059596695	-0.2938940327	 0.121776
H	 1.4485949821	 5.17533269	-0.3899863316	 0.105318
H	 3.3106345147	 3.6090024285	 1.4777431062	 0.131855
H	 2.1124916008	 4.8195451309	 1.991243585	 0.127886
69.733	74.2176	149.8071	206.5154	285.1198	337.2925	372.7043	443.121	494.6012	544.5042	645.216	694.308	741.4528	844.2928	886.97	901.4053	988.2012	992.7374	1033.9762	1097.876	1108.1244	1133.0729	1168.9741	1225.7653	1239.3771	1281.3735	1283.1583	1312.9441	1338.6774	1388.6171	1413.9247	1420.6881	1454.8352	1494.9478	1509.2045	1808.3122	1824.1609	2943.7344	2978.2654	2989.7835	3003.8562	3035.386	3097.7844	3113.0845	3121.1027
O=CC1COCCC1=O	O=C[C@H]1COCCC1=O	
InChI=1S/C6H8O3/c7-3-5-4-9-2-1-6(5)8/h3,5H,1-2,4H2	InChI=1S/C6H8O3/c7-3-5-4-9-2-1-6(5)8/h3,5H,1-2,4H2/t5-/m0/s1
