18
gdb 66992	2.49599	2.03276	1.39556	3.0826	75.65	-0.2378	-0.0235	0.2143	960.3051	0.148529	-401.937368	-401.929919	-401.928975	-401.969005	29.582	
C	 0.0295672072	 1.4862702606	-0.0435041068	-0.481951
C	-0.0576469923	-0.0110618403	 0.0437525323	 0.228911
C	 0.2763878185	-0.8091929604	 1.2531693499	-0.098468
C	-0.1140387182	-2.2492754034	 0.8129932879	-0.079789
C	 1.1322070529	-2.1688774417	-0.1003245052	-0.160153
N	 1.2888033159	-0.6971223016	 0.159477368	-0.1736
C	-1.3699240046	-2.0871147874	-0.0446378124	-0.328188
C	-1.1549669034	-0.7230297935	-0.7094046814	 0.350289
O	-1.7863358333	-0.2572990314	-1.6256223643	-0.324053
H	 0.8959526363	 1.8509831734	 0.5125279479	 0.129333
H	 0.1298595545	 1.7929736602	-1.0884505193	 0.1429
H	-0.8756655148	 1.9539632117	 0.355840842	 0.124311
H	 0.4291166199	-0.4078649076	 2.2489715067	 0.101462
H	-0.1525743407	-3.0388716209	 1.5615981398	 0.083053
H	 2.0106824994	-2.6704529731	 0.3121232923	 0.118051
H	 1.0121036342	-2.4497877446	-1.1529526427	 0.110151
H	-1.5194634898	-2.8772226612	-0.7857646825	 0.126566
H	-2.2750927318	-2.0265359385	 0.5728592476	 0.131175
117.8257	160.7582	252.4974	275.3047	329.835	391.1956	467.3685	555.4099	584.4686	621.611	684.3578	732.7154	806.5891	856.9798	882.5272	887.3973	934.6869	959.1283	1008.3499	1013.4461	1032.4085	1063.9402	1085.5287	1092.1468	1154.4923	1164.3388	1202.6183	1240.0414	1271.231	1295.9802	1308.7896	1326.426	1382.7373	1417.7818	1452.203	1481.0504	1491.6252	1504.882	1828.3036	3037.6976	3038.8664	3046.7584	3099.9024	3105.6452	3113.8759	3126.0402	3133.6814	3175.3793
CC12C3C(CN13)CC2=O	C[C@]12[C@H]3[C@H](CN13)CC2=O	
InChI=1S/C7H9NO/c1-7-5(9)2-4-3-8(7)6(4)7/h4,6H,2-3H2,1H3	InChI=1S/C7H9NO/c1-7-5(9)2-4-3-8(7)6(4)7/h4,6H,2-3H2,1H3/t4-,6+,7-,8?/m0/s1
