12
gdb 25523	5.79506	1.03397	0.87845	2.9532	63.64	-0.2885	-0.0725	0.216	1189.6535	0.079022	-468.874415	-468.867289	-468.866345	-468.907433	24.248	
O	 0.0768584153	-0.0383825795	 0.0828981163	-0.235634
C	-0.0271569447	 1.1389669443	-0.0266451252	 0.17428
O	 1.0947994234	 1.9439466293	 0.0948900553	-0.219911
C	 0.9854257374	 3.2919841823	 0.0588238785	 0.50656
N	-0.2164234508	 3.8594617174	 0.1154714573	-0.326673
C	-0.1874263566	 5.1920121798	 0.0835833428	 0.094355
N	 0.9041938546	 5.9497416422	 0.0158654267	-0.242669
C	 2.0417085508	 5.2500436042	-0.0288256926	 0.090417
N	 2.1519789296	 3.9248211993	-0.0159340341	-0.28297
H	-0.93982976	 1.7091909608	-0.2310544369	 0.148166
H	-1.1477971981	 5.7004978327	 0.1216744913	 0.146618
H	 2.9687354591	 5.8156362973	-0.0826960092	 0.147462
40.4305	91.5586	187.6483	224.2	367.8332	429.1076	518.0602	572.4652	705.4558	713.9132	851.5243	942.3132	994.6219	1007.8767	1047.1692	1050.7543	1063.8815	1184.3115	1216.5752	1309.452	1359.915	1393.5899	1423.0415	1460.2971	1594.6402	1608.7179	1882.6897	3097.6472	3171.6585	3175.4926
O=COC1=NC=NC=N1	O=COc1ncncn1	
InChI=1S/C4H3N3O2/c8-3-9-4-6-1-5-2-7-4/h1-3H	InChI=1S/C4H3N3O2/c8-3-9-4-6-1-5-2-7-4/h1-3H
