16
gdb 26539	2.42747	1.83102	1.05057	4.3751	83.2	-0.175	-0.0432	0.1318	1088.0668	0.124179	-437.928447	-437.920071	-437.919127	-437.961375	31.341	
C	 0.0458093729	 1.4955190231	 0.0204899239	-0.479408
C	-0.022601121	 0.0103120875	 0.067202002	 0.209428
C	-1.2158240982	-0.7199178234	-0.0838740698	 0.224161
O	-2.3608384791	-0.2419068978	-0.2734871635	-0.498488
C	-1.0509115184	-2.1762056584	-0.0027200936	 0.282268
N	-2.2024555989	-2.8371286236	-0.1503254753	-0.551554
H	-2.9998959776	-2.2230986379	-0.2945967929	 0.27919
H	-2.2870399641	-3.8364485144	-0.1252452303	 0.262416
C	 0.2126264967	-2.744116564	 0.209255171	-0.270365
C	 1.29208346	-1.9133364459	 0.3392490324	 0.049783
O	 1.1733250834	-0.5985408816	 0.2704982978	-0.17472
H	 0.7026585531	 1.8489337377	-0.7838320754	 0.129166
H	-0.9648116151	 1.8671181828	-0.1550573671	 0.165247
H	 0.4233981545	 1.9171088201	 0.9603062363	 0.129398
H	 0.3571774019	-3.8168722464	 0.272493122	 0.103886
H	 2.3117390199	-2.2326106179	 0.5047444727	 0.139591
85.3062	118.0865	204.0192	251.0784	275.5689	311.0294	324.1981	482.3998	507.1051	508.2846	553.0438	573.6027	694.8084	699.9679	771.1935	797.3475	858.5021	880.9703	934.6007	1009.9623	1051.5426	1098.4884	1111.7587	1240.9781	1332.2431	1371.6911	1386.4861	1400.3109	1443.0561	1482.305	1487.9256	1524.1686	1579.1889	1630.0647	1654.2788	3019.1008	3065.1037	3148.5648	3188.3638	3236.8587	3488.3356	3726.3458
CC1=C([O-])C(=[NH2+])C=CO1	C[C]1C(=O)[C](N)C=CO1	
InChI=1S/C6H7NO2/c1-4-6(8)5(7)2-3-9-4/h2-3,7-8H,1H3	InChI=1S/C6H7NO2/c1-4-6(8)5(7)2-3-9-4/h2-3H,7H2,1H3
