23
gdb 92905	2.37572	1.45958	1.09693	1.4537	86.86	-0.2444	0.0191	0.2635	1228.7017	0.206149	-388.316474	-388.307021	-388.306077	-388.349938	37.05	
C	-0.0040055889	 1.5685418978	 0.0174485988	-0.412818
C	 0.0413646048	 0.0388641253	 0.0184726383	 0.022788
C	 0.6840090532	-0.513836055	-1.2688493707	-0.267482
C	 1.0627510492	-1.9680890535	-1.1583526837	-0.085444
C	 1.0391428349	-2.6525286011	-0.0132983743	-0.055092
C	 0.6486233001	-2.0484612097	 1.319481152	-0.052898
C	 1.4496571348	-2.6535218711	 2.4808725665	-0.400574
C	 0.7819000379	-0.5130203114	 1.2527414832	 0.116211
O	 2.1472850878	-0.0983397768	 1.2695037992	-0.444847
H	 1.0093041489	 1.9764455627	 0.0793638946	 0.1299
H	-0.4756866921	 1.9519227776	-0.8936589931	 0.104764
H	-0.571380698	 1.9489568039	 0.8736121896	 0.107769
H	-0.9867541043	-0.3455083992	 0.0708493448	 0.070611
H	-0.0006611016	-0.371426173	-2.114819262	 0.107059
H	 1.5750488411	 0.0799242786	-1.5250434011	 0.107484
H	 1.3713911701	-2.4653113551	-2.075585716	 0.086036
H	 1.3196471345	-3.7041101506	-0.0096593835	 0.083293
H	-0.4140420769	-2.2715385604	 1.5009493717	 0.084121
H	 2.5142588701	-2.4247520097	 2.3856233679	 0.121926
H	 1.1087438489	-2.2507111972	 3.4400466332	 0.112717
H	 1.3315889725	-3.7416483757	 2.5096719165	 0.107501
H	 0.3491976423	-0.0752236147	 2.1603292548	 0.073985
H	 2.6072242808	-0.6070981317	 0.5915235534	 0.282986
109.7532	138.9985	210.9978	219.5229	236.7354	260.4347	288.1773	331.9249	362.7215	414.8949	437.731	465.068	604.8292	621.9239	685.2797	773.0737	833.8555	865.1356	895.9101	935.7636	972.9976	985.5596	1003.0109	1008.6133	1018.2769	1077.1312	1083.7839	1119.3714	1134.8279	1185.1687	1194.6821	1218.8116	1261.6734	1293.2857	1321.7348	1333.3179	1342.0782	1371.0507	1390.0041	1401.9447	1407.0142	1419.1552	1433.7739	1478.56	1493.2994	1494.204	1499.2386	1505.1729	1712.3182	2981.4831	2991.4758	3009.5079	3030.7235	3035.4649	3036.9486	3041.1621	3094.9715	3101.828	3112.4533	3120.0338	3133.7149	3157.891	3788.7203
CC1CC=CC(C)C1O	C[C@H]1CC=C[C@@H](C)[C@H]1O	
InChI=1S/C8H14O/c1-6-4-3-5-7(2)8(6)9/h3-4,6-9H,5H2,1-2H3	InChI=1S/C8H14O/c1-6-4-3-5-7(2)8(6)9/h3-4,6-9H,5H2,1-2H3/t6-,7+,8-/m1/s1
