19
gdb 64953	3.34078	1.10922	0.95194	3.5978	77.42	-0.2474	-0.0309	0.2165	1283.4894	0.157515	-423.006066	-422.996999	-422.996055	-423.040953	33.409	
C	 0.1635347474	 1.5308400364	-0.0320319294	-0.491538
C	 0.1689816489	 0.0141111436	-0.0829645272	 0.227945
C	 1.5035341622	-0.7070842176	 0.0913795925	-0.27507
C	 0.508081816	-0.747098492	 1.1986204519	-0.27263
C	-0.7985227439	-0.7068543406	-0.9757329553	 0.30967
O	-0.8000564723	-1.9165523573	-1.0760681702	-0.334562
C	-1.7774969315	 0.1110301477	-1.7896642913	-0.040822
C	-2.0102008798	-0.2846460298	-3.1970223362	-0.158455
O	-2.9622934938	-0.5727202631	-2.1926950715	-0.205513
H	 0.9580156903	 1.8862442402	 0.6305933305	 0.119643
H	 0.3401469587	 1.9760348925	-1.0174499068	 0.124003
H	-0.7813351906	 1.9275698152	 0.3552968926	 0.128172
H	 1.6352072773	-1.6104822697	-0.4919819924	 0.138897
H	 2.3818490892	-0.0798475613	 0.197529384	 0.114748
H	 0.6822561221	-0.1460747521	 2.0844881819	 0.116124
H	-0.0268178556	-1.6759129021	 1.3562102862	 0.140964
H	-1.9302248029	 1.151188188	-1.515824527	 0.103234
H	-2.2921015698	 0.478616391	-3.9212697015	 0.119799
H	-1.467857612	-1.1466148591	-3.580494591	 0.135391
36.988	43.6076	192.683	245.1613	262.5426	295.0764	312.6668	323.1727	357.9519	404.3347	564.8531	743.4564	756.993	794.6077	827.432	830.2865	878.7388	909.2436	959.2327	961.6644	1008.5315	1041.9343	1079.4146	1087.6127	1092.1112	1099.4623	1119.6002	1162.1468	1170.9215	1206.0622	1283.2538	1312.8141	1322.2326	1417.0175	1423.5985	1451.2585	1482.809	1497.6085	1504.8851	1505.4782	1775.0684	3028.2281	3085.6557	3089.5997	3103.6371	3138.2384	3140.1668	3153.889	3185.4945	3229.0827	3242.3844
CC1(CC1)C(=O)C1CO1	CC1(CC1)C(=O)[C@H]1CO1	
InChI=1S/C7H10O2/c1-7(2-3-7)6(8)5-4-9-5/h5H,2-4H2,1H3	InChI=1S/C7H10O2/c1-7(2-3-7)6(8)5-4-9-5/h5H,2-4H2,1H3/t5-/m1/s1
