18
gdb 91413	2.75597	1.73873	1.28296	3.8853	72.05	-0.2327	0.0156	0.2483	1010.5512	0.149644	-439.102315	-439.094621	-439.093676	-439.134488	29.364	
C	-0.0485074504	 1.4002811803	-0.0682760298	-0.342423
N	 0.015149036	-0.0438953605	 0.0265896537	-0.095229
C	-1.2389596804	-0.791567056	 0.0187692355	-0.158275
C	-0.942770061	-2.2852018608	 0.1056109781	 0.07266
C	 0.1040877544	-2.5971727958	 1.195539405	-0.255956
C	 1.0610175101	-2.2134852028	 0.0483539717	-0.029785
O	 0.0415102824	-2.5954005694	-0.9201486387	-0.288271
C	 1.2253399576	-0.6918923725	 0.0083900592	 0.425906
O	 2.3063048735	-0.1346322034	-0.0100967401	-0.391524
H	 0.9721777758	 1.7822491575	-0.0688362628	 0.168783
H	-0.5540210781	 1.7120339518	-0.9915889946	 0.123041
H	-0.5959457755	 1.8242276689	 0.782710979	 0.11976
H	-1.8704250728	-0.4775655991	 0.862873348	 0.107892
H	-1.7940458577	-0.5807909793	-0.906509028	 0.117083
H	-1.8491325602	-2.8901447866	 0.0265076698	 0.088269
H	 0.1130730146	-2.0004602591	 2.1096105164	 0.114586
H	 0.1474727381	-3.6628104601	 1.4233758326	 0.120178
H	 2.0172564535	-2.7146431232	-0.0963297849	 0.103303
128.0664	130.7118	161.3489	271.2145	326.3638	371.4334	404.4022	440.6367	546.1425	637.7938	729.8549	753.8612	849.9345	881.3787	897.2968	910.1627	967.3389	986.7879	1029.0604	1065.9914	1080.8576	1103.0548	1154.1914	1182.168	1206.6065	1238.2367	1251.2806	1268.3705	1308.4241	1322.9238	1330.5304	1365.1836	1430.596	1453.5119	1489.0863	1495.408	1499.0747	1535.8113	1788.6625	2992.8975	3011.9454	3025.2405	3058.9009	3077.1659	3089.661	3133.9981	3144.4708	3158.0352
CN1CC2CC(O2)C1=O	CN1C[C@@H]2C[C@@H](O2)C1=O	
InChI=1S/C6H9NO2/c1-7-3-4-2-5(9-4)6(7)8/h4-5H,2-3H2,1H3	InChI=1S/C6H9NO2/c1-7-3-4-2-5(9-4)6(7)8/h4-5H,2-3H2,1H3/t4-,5+/m0/s1
