13
gdb 124034	3.01219	1.53346	1.02335	4.7295	75.88	-0.2201	-0.0696	0.1504	1059.9559	0.089218	-452.760052	-452.752384	-452.75144	-452.793607	27.011	
C	-0.0498637059	 1.4537822113	 0.2511680415	-0.110001
O	 1.1117976702	 2.2357518254	-0.0798094382	-0.252083
C	 2.1524004918	 1.7955535701	-0.8263742714	 0.425282
C	 2.1236936514	 0.3663652566	-1.1741169726	 0.083468
C	 1.0649860225	-0.5194597301	-0.7374732454	-0.123731
C	 0.0406705195	-0.0079739649	-0.0529864298	-0.126998
N	 3.1345493245	-0.0686844839	-1.8822590931	 0.164272
N	 4.0160108979	-0.4273072449	-2.4955025146	-0.208413
O	 3.0327770662	 2.5533705186	-1.1408114895	-0.355056
H	-0.22293471	 1.618158588	 1.322146764	 0.136567
H	-0.9015385994	 1.9071045893	-0.2772078582	 0.13388
H	 1.1353570559	-1.5753599816	-0.9730060609	 0.118139
H	-0.7749560947	-0.629654834	 0.2980765582	 0.114674
27.9897	119.6643	153.0309	192.97	393.8732	439.4497	458.7437	524.4417	544.3014	599.4121	679.12	693.0918	755.8178	864.3491	924.7219	964.7518	1022.6821	1041.492	1153.029	1193.7128	1255.1517	1297.4706	1318.8785	1432.6417	1440.2607	1504.7627	1708.6544	1812.9807	2215.8998	2996.7652	3037.5737	3187.7429	3206.8415
C1OC2=C(C=C1)N=NO2	C1OC(=O)C(=C[CH]1)[N][N]	
InChI=1S/C5H4N2O2/c1-2-4-5(8-3-1)9-7-6-4/h1-2H,3H2	InChI=1S/C5H4N2O2/c6-7-4-2-1-3-9-5(4)8/h1-2H,3H2
