19
gdb 86568	3.01791	1.17796	0.9155	4.3517	73.37	-0.2333	0.0488	0.2821	1275.8406	0.158755	-456.368253	-456.358572	-456.357628	-456.403063	35.342	
C	-0.3429519064	 1.4579705648	 0.0697983225	-0.395131
C	 0.0543134579	-0.0063539438	 0.003874881	 0.051416
C	 0.8060526666	-0.5149337693	-1.2654746762	 0.078393
O	 1.1448849697	 0.538143201	-2.134621133	-0.421759
C	 1.9457170745	-1.0079678288	-0.3229451401	-0.216822
N	 1.2368602343	-0.3818998925	 0.8016353941	-0.11318
C	 1.1703068825	-0.7853166748	 2.1127422889	 0.406273
N	 2.2917753135	-1.4784362006	 2.5540584611	-0.557936
O	 0.1981168212	-0.5751910254	 2.8170288268	-0.398621
H	 0.493381998	 2.1043791979	-0.2031901048	 0.125916
H	-1.1729861393	 1.6592539787	-0.6145011144	 0.115651
H	-0.664104774	 1.6938812812	 1.0874928302	 0.14054
H	-0.8049919792	-0.6388195973	 0.2564172094	 0.091099
H	 0.2879062695	-1.3209009086	-1.7972680347	 0.078508
H	 1.5959136739	 0.1681594076	-2.8994826986	 0.288952
H	 2.0437338831	-2.0968027705	-0.2348282717	 0.113587
H	 2.9250446665	-0.5673233458	-0.5462421944	 0.10338
H	 3.1770115293	-1.2548872621	 2.1243047358	 0.250745
H	 2.3280602386	-1.5535396015	 3.5595330882	 0.25899
52.4786	106.6401	134.8029	161.3251	220.0133	246.4082	254.7168	334.3381	404.6626	421.928	470.8776	541.9815	559.5538	572.3347	697.0096	778.331	789.6648	823.5567	891.4741	1006.0795	1011.5009	1042.9426	1092.7651	1127.7834	1150.2148	1169.7834	1183.8602	1200.2197	1232.8856	1280.0264	1303.7427	1328.6134	1381.1775	1403.0847	1422.4852	1444.0334	1486.6626	1496.1943	1505.5716	1622.1087	1785.1705	3012.1667	3028.3348	3042.497	3049.9412	3063.6974	3121.8512	3141.2601	3572.1619	3687.594	3826.9315
CC1C(O)CN1C(N)=O	C[C@H]1[C@@H](O)CN1C(=O)N	
InChI=1S/C5H10N2O2/c1-3-4(8)2-7(3)5(6)9/h3-4,8H,2H2,1H3,(H2,6,9)	InChI=1S/C5H10N2O2/c1-3-4(8)2-7(3)5(6)9/h3-4,8H,2H2,1H3,(H2,6,9)/t3-,4-/m0/s1
