21
gdb 107990	2.7196	1.59994	1.35129	0.9918	82.16	-0.2441	0.0959	0.3401	1063.6816	0.184236	-387.053701	-387.045812	-387.044867	-387.086119	31.206	
C	-0.0031081995	 1.3775862837	 0.0309120745	-0.263269
O	 0.0464139994	-0.0348322139	-0.034566224	-0.298303
C	 0.6858117609	-0.5255053559	-1.1536908999	 0.450414
C	 2.152991052	-0.320969572	-1.6158875478	-0.311509
C	 1.5113690925	-1.3035300424	-2.6260315708	-0.074031
C	 0.7952528878	-2.0438958288	-1.4494905262	-0.059855
C	-0.5635324487	-2.55853123	-1.9251169808	-0.244678
C	-1.0029125689	-1.3641837787	-2.8228745454	-0.241674
C	 0.2071367352	-0.4460400567	-2.6506262266	-0.071449
H	 1.00365569	 1.8167261134	 0.0696009303	 0.113173
H	-0.5372835509	 1.8065928268	-0.8287044969	 0.110526
H	-0.5384833973	 1.6374804984	 0.9467247769	 0.12718
H	 2.4275030874	 0.6647464031	-2.0024385348	 0.086698
H	 2.9337020227	-0.7251119242	-0.965220291	 0.090694
H	 1.9897303574	-1.7683806198	-3.4860415266	 0.074163
H	 1.3927482595	-2.6627509139	-0.7772713755	 0.061753
H	-0.4776513398	-3.4967605956	-2.4821379182	 0.093568
H	-1.2485944201	-2.7306438156	-1.0898216195	 0.105568
H	-1.1592958784	-1.6547664718	-3.8665710664	 0.093769
H	-1.926004589	-0.893575593	-2.4704985947	 0.100241
H	 0.2251967279	 0.5142948169	-3.1700131365	 0.057021
79.9002	162.3646	175.6803	232.459	268.7771	381.4663	449.1265	482.1687	623.6595	687.423	725.5816	768.2154	823.0337	841.8004	892.0152	917.7403	929.4655	968.0106	985.0918	994.3767	1010.2947	1035.6723	1052.6425	1080.752	1105.8088	1110.6311	1148.8929	1160.7011	1182.1635	1199.2828	1210.7338	1225.5272	1248.0726	1252.6821	1256.5744	1288.0829	1297.0827	1318.616	1389.7247	1484.0197	1485.21	1487.7061	1506.1776	1507.2363	1521.4898	2991.6891	3042.9168	3043.4728	3047.713	3053.9852	3078.0866	3095.8293	3098.3423	3102.096	3108.1059	3120.5614	3133.4169
COC12CC3C1CCC23	CO[C@@]12C[C@H]3[C@@H]1CC[C@@H]23	
InChI=1S/C8H12O/c1-9-8-4-5-6(8)2-3-7(5)8/h5-7H,2-4H2,1H3	InChI=1S/C8H12O/c1-9-8-4-5-6(8)2-3-7(5)8/h5-7H,2-4H2,1H3/t5-,6-,7+,8-
