17
gdb 52184	4.68039	0.71407	0.65064	2.9744	70.92	-0.2557	-0.033	0.2227	1629.5994	0.133457	-458.989384	-458.980324	-458.97938	-459.025512	31.425	
O	 0.1531655245	 0.235987434	-0.7561949984	-0.269219
C	 0.2464376439	 1.4173362018	-0.619882466	 0.173767
O	 0.9911198188	 1.9837105167	 0.3495086515	-0.177689
C	 1.0460834594	 3.4130091219	 0.4281503782	-0.105012
C	 2.4762565473	 3.88772126	 0.2607366129	 0.01613
C	 3.1033373526	 3.7688122772	-1.1644591531	-0.360923
C	 3.4601038337	 5.2626242938	-1.077369501	 0.41127
O	 4.1321816732	 5.9949851368	-1.7398180094	-0.278282
C	 2.6735948116	 5.4373184636	 0.2351409045	-0.37635
H	-0.2612613167	 2.1649773942	-1.261529624	 0.077226
H	 0.3967530349	 3.8571799461	-0.339863232	 0.107487
H	 0.6526578853	 3.6983680463	 1.4096960791	 0.129266
H	 3.1033381975	 3.4099392322	 1.0165690285	 0.104966
H	 3.945848405	 3.0853859714	-1.2923564396	 0.14454
H	 2.3753871654	 3.5654568972	-1.9586618984	 0.130375
H	 1.7460354908	 6.002512221	 0.0843708152	 0.132445
H	 3.2221434429	 5.8935011858	 1.0625779622	 0.140005
33.2683	37.4374	76.8621	144.8407	197.9371	320.1505	380.228	392.9201	414.4038	483.1615	643.0263	657.6011	693.5264	773.1418	890.8765	917.233	954.7125	1008.3411	1041.8667	1044.9735	1067.1773	1107.436	1129.033	1150.982	1195.9563	1237.1649	1240.0738	1257.4705	1307.6234	1362.9281	1401.7115	1426.7247	1435.1548	1446.4825	1501.7142	1869.8561	1901.4054	2938.1881	3006.506	3045.4545	3050.2628	3070.6763	3090.6421	3115.1538	3118.3489
O=COCC1CC(=O)C1	O=COCC1CC(=O)C1	
InChI=1S/C6H8O3/c7-4-9-3-5-1-6(8)2-5/h4-5H,1-3H2	InChI=1S/C6H8O3/c7-4-9-3-5-1-6(8)2-5/h4-5H,1-3H2
