18
gdb 71817	3.34266	1.64158	1.51139	1.4066	73.68	-0.2159	0.0767	0.2926	929.037	0.149738	-401.875246	-401.868535	-401.867591	-401.90585	28.548	
O	-0.2884700609	 1.4435468239	-0.1047493313	-0.458482
C	-0.0353241974	 0.0837993919	-0.0741568686	 0.368501
C	 0.7308101789	-0.6775706334	-1.1552484084	-0.319438
C	-0.0507669933	-1.9530636738	-0.7129111968	-0.063429
C	 0.6312777862	-2.7036147105	 0.4389729898	-0.020123
C	 1.8036789516	-2.1099605306	 1.1453529152	-0.246596
N	 0.4446672973	-1.9095174975	 1.6695954646	-0.099738
C	-0.279076578	-0.7215694377	 1.2232535121	-0.095248
C	-1.0878955823	-1.0077155503	-1.9332*^-6	-0.136101
H	 0.4291585116	 1.8987438007	 0.3494316252	 0.286077
H	 0.3803026087	-0.3408807888	-2.1359371295	 0.107103
H	 1.8245077741	-0.6990102649	-1.161283869	 0.089454
H	-0.4041930506	-2.6030243239	-1.5111262963	 0.074899
H	 0.4461963346	-3.7721512488	 0.5249813832	 0.08833
H	 2.431741083	-2.7492891406	 1.7613430446	 0.11161
H	 2.3219484335	-1.2624659949	 0.7126466734	 0.115818
H	-0.7179306804	-0.1265288097	 2.0165578797	 0.099636
H	-2.1635859966	-0.9768665209	-0.1110252846	 0.097728
181.5812	253.4231	345.6671	352.8691	377.9171	487.5668	547.2559	585.3757	645.0849	703.3706	758.3771	770.2528	831.8804	843.4946	895.2016	896.2235	916.1815	939.1537	1003.0129	1014.9498	1035.9978	1058.5755	1076.815	1094.4611	1122.123	1127.4429	1158.8709	1164.3381	1176.4217	1227.079	1258.8038	1266.8362	1281.3889	1303.8693	1318.6001	1372.0544	1420.8268	1498.9422	1525.6905	3043.0665	3088.8189	3113.2099	3121.6756	3135.3632	3179.1878	3204.6597	3207.8176	3795.5732
OC12CC3C4CN4C1C23	O[C@@]12C[C@H]3[C@H]4CN4[C@@H]1[C@@H]23	
InChI=1S/C7H9NO/c9-7-1-3-4-2-8(4)6(7)5(3)7/h3-6,9H,1-2H2	InChI=1S/C7H9NO/c9-7-1-3-4-2-8(4)6(7)5(3)7/h3-6,9H,1-2H2/t3-,4+,5-,6+,7+,8?/m0/s1
