17
gdb 40508	4.45846	1.25271	1.20128	2.4131	72.06	-0.2336	0.0678	0.3015	1064.9375	0.136094	-421.727526	-421.720483	-421.719539	-421.759378	27.677	
C	 0.2595841138	 1.5104337442	 0.2375438863	-0.174997
O	 1.2829617999	 0.5379322258	 0.0227140732	-0.232147
C	-0.0670852426	 0.0807618971	 0.1529722101	-0.090112
C	-0.4087888778	-0.6936014289	 1.3607022662	 0.517209
O	-0.1478006683	-0.1519945546	 2.6549700063	-0.328883
C	-0.4158182051	-1.4869639097	 3.1758297937	 0.062895
C	-1.9467396011	-1.6457083028	 2.9818823113	-0.235252
C	-1.620248623	-1.6482343563	 1.4885457245	-0.169603
C	-0.1930390835	-2.1194242769	 1.752768184	-0.200894
H	 0.270847425	 1.9857322943	 1.2157098452	 0.135352
H	 0.0404039719	 2.1620874549	-0.6072534385	 0.113644
H	-0.5005945476	-0.3054534533	-0.7699452907	 0.097971
H	 0.1031270939	-1.7026167134	 4.1066692134	 0.092263
H	-2.2973063965	-2.6267417738	 3.312127695	 0.107556
H	-2.5737713469	-0.849241387	 3.3939890793	 0.103685
H	-2.2619061501	-1.8892080676	 0.6503186293	 0.094225
H	 0.4176449279	-2.916593712	 1.3536169916	 0.107086
71.8549	159.9427	175.7346	361.474	400.8645	471.5472	581.3118	643.4715	784.027	789.5531	796.9996	833.4814	843.741	877.6882	910.9701	935.1752	939.3474	956.9021	978.0669	1002.9567	1048.6836	1070.1971	1091.3698	1101.2664	1142.1312	1158.0771	1161.3613	1166.2541	1183.8387	1249.395	1270.0905	1282.1132	1313.9004	1365.1352	1481.2959	1486.897	1529.8806	3052.1433	3089.7515	3109.2368	3115.773	3152.8041	3185.7727	3196.7429	3219.065
C1OC1C12OC3CC1C23	C1O[C@H]1[C@@]12O[C@H]3C[C@@H]1[C@@H]23	
InChI=1S/C7H8O2/c1-3-6-4(1)9-7(3,6)5-2-8-5/h3-6H,1-2H2	InChI=1S/C7H8O2/c1-3-6-4(1)9-7(3,6)5-2-8-5/h3-6H,1-2H2/t3-,4+,5-,6-,7+/m1/s1
