19
gdb 99935	3.70638	0.71079	0.68098	1.0889	94.83	-0.246	-0.0204	0.2255	1723.539	0.154945	-385.842129	-385.831404	-385.830459	-385.877714	39.317	
C	 0.0153636023	 1.5313958883	 0.1715168059	-0.400041
C	-0.0492050121	 0.0175934112	-0.046310209	-0.182908
C	 0.6915271022	-0.4727806046	-1.3199324481	 0.073298
C	 0.1148019471	 0.1349465196	-2.6067895917	-0.39762
O	 2.065161607	-0.0650786439	-1.2910877101	-0.439137
C	 0.6094317906	-1.9400396729	-1.3748760302	 0.508211
C	 0.5592338119	-3.1500858871	-1.3785094431	-0.32459
C	 0.5015263968	-4.5095609803	-1.3950358796	 0.295962
C	 0.4512771748	-5.7160264594	-1.4060056779	-0.572258
H	 1.0494545104	 1.8824548158	 0.1254066731	 0.131415
H	-0.5620098927	 2.0786679775	-0.5792743814	 0.12084
H	-0.3933481041	 1.7903043654	 1.1526114958	 0.113219
H	 0.3990892497	-0.4984882046	 0.8118975064	 0.097758
H	-1.0893988826	-0.3237843828	-0.0963362898	 0.109178
H	 0.2577092394	 1.2177617187	-2.5972502481	 0.1305
H	 0.6344786432	-0.2747632147	-3.4750797119	 0.135692
H	-0.9514949643	-0.0868305877	-2.6942319784	 0.12392
H	 2.5007691856	-0.5497243081	-0.5809055365	 0.283936
H	 0.4055878049	-6.7766444703	-1.4207504554	 0.192624
72.8137	75.7005	120.2582	203.6954	209.2977	228.8319	262.3149	290.8496	306.3321	356.7913	364.6471	416.5316	503.2799	511.3826	543.8037	569.8292	597.6411	615.8385	666.5545	786.8187	838.0244	926.4569	985.4673	1003.771	1058.4797	1084.5558	1137.5629	1185.8173	1218.4051	1290.5358	1354.8713	1379.4342	1406.1138	1409.1003	1475.5632	1482.8375	1494.919	1504.5466	1512.736	2178.3022	2355.3718	3028.409	3046.352	3057.6374	3068.7964	3111.3684	3126.7947	3138.2671	3140.8119	3504.5546	3803.7224
CCC(C)(O)C#CC#C	CC[C@@](C)(O)C#CC#C	
InChI=1S/C8H10O/c1-4-6-7-8(3,9)5-2/h1,9H,5H2,2-3H3	InChI=1S/C8H10O/c1-4-6-7-8(3,9)5-2/h1,9H,5H2,2-3H3/t8-/m1/s1
