20
gdb 116608	3.2053	1.00621	0.8539	2.1867	84.58	-0.2413	0.0286	0.2699	1441.9503	0.170353	-403.133084	-403.123859	-403.122915	-403.168192	33.588	
C	-0.7041433318	 0.0008564636	 0.5941023195	-0.358731
C	 0.4501970033	 0.592729836	-0.2160288037	-0.149131
N	 0.9189043679	-0.3693805903	-1.2094728163	-0.352002
C	 2.1339973786	-0.654019069	-1.2763235149	 0.432037
O	 3.2258147758	-0.1929867552	-0.5411941055	-0.284395
C	 4.1447805647	-1.0482475413	-1.291674129	-0.146628
C	 2.9663470288	-1.5628237784	-2.1118516409	 0.170584
C	 2.6172559323	-2.9444436903	-2.586888108	-0.314413
C	 2.828203313	-1.8358670287	-3.5826341729	-0.31427
H	-1.5110737003	-0.3238389735	-0.069146401	 0.122212
H	-0.3700345648	-0.8685575782	 1.1689394536	 0.115885
H	-1.103753041	 0.7412319036	 1.2945609602	 0.106709
H	 0.0924076237	 1.479668832	-0.7551520436	 0.104947
H	 1.2528082101	 0.9253822263	 0.4551871865	 0.109097
H	 4.8889758227	-0.4490800305	-1.8242057017	 0.119444
H	 4.6350179796	-1.7699743599	-0.631894541	 0.119296
H	 3.3802184932	-3.7114098688	-2.5033440909	 0.120317
H	 1.6039537868	-3.2813093381	-2.3983240429	 0.139267
H	 1.9593264068	-1.4142986177	-4.0757018353	 0.139424
H	 3.7351211205	-1.8465503817	-4.1782134223	 0.120352
30.5524	98.0179	137.0705	143.944	223.9879	244.3309	281.3412	330.571	438.716	496.8718	609.3693	700.6759	759.7467	780.4655	818.7665	857.7266	890.4357	917.3864	951.0035	961.0531	1012.9011	1059.811	1071.4746	1075.4447	1079.561	1099.686	1121.0712	1146.3926	1171.3548	1195.5544	1263.2569	1303.2043	1314.3677	1381.2627	1405.6706	1414.1804	1457.3226	1488.4472	1493.2973	1501.8178	1510.5995	1516.406	1845.4969	3008.1352	3036.7774	3043.1653	3047.988	3103.5243	3107.8121	3116.2565	3131.6295	3134.1249	3216.1679	3230.3363
CCN=C1OCC11CC1	CCN=C1OCC21CC2	
InChI=1S/C7H11NO/c1-2-8-6-7(3-4-7)5-9-6/h2-5H2,1H3	InChI=1S/C7H11NO/c1-2-8-6-7(3-4-7)5-9-6/h2-5H2,1H3
