12
gdb 130822	3.29147	1.30861	0.93634	1.2745	62.9	-0.269	-0.113	0.156	1117.4774	0.076938	-472.630791	-472.623437	-472.622493	-472.663465	25.634	
O	-0.8497922154	 1.3060505411	 0.2034826588	-0.235176
C	 0.2607386281	 0.9527828288	-0.0948743936	 0.093819
C	 1.4678121688	 1.8899338439	-0.2438239252	 0.189457
O	 2.5310402003	 1.3870505667	-0.5513827055	-0.297679
C	 1.2890382755	 3.3191572804	-0.013653071	 0.05058
C	 0.1778593526	 4.0424644582	 0.3339500954	 0.013209
O	 0.4769695619	 5.3300737858	 0.437262828	-0.157997
N	 1.844789029	 5.5158379824	 0.1522359182	-0.116068
C	 2.3020188005	 4.3249768063	-0.1096344344	-0.027301
H	 0.5341892305	-0.1029374621	-0.2969917645	 0.122978
H	-0.8433233395	 3.758467409	 0.5275014748	 0.197745
H	 3.3431915577	 4.1896085895	-0.3634057709	 0.166433
77.2957	138.6522	168.1505	186.6586	260.8789	440.21	557.7894	562.5456	621.7742	665.3017	689.0592	843.0696	910.3521	927.6302	940.3718	992.8329	1028.2001	1092.8957	1171.037	1220.4318	1308.7302	1368.7512	1400.7702	1501.4281	1613.9242	1760.5035	1824.3387	2943.0095	3260.8972	3294.3373
O=CC(=O)C1=CON=C1	O=CC(=O)c1conc1	
InChI=1S/C5H3NO3/c7-2-5(8)4-1-6-9-3-4/h1-3H	InChI=1S/C5H3NO3/c7-2-5(8)4-1-6-9-3-4/h1-3H
