21
gdb 20083	3.12072	1.55414	1.25788	1.3076	79.86	-0.2145	0.0829	0.2974	1078.2336	0.187499	-329.084311	-329.075258	-329.074314	-329.118152	33.514	
C	-1.1217014664	 1.0585776819	-1.0339447116	-0.412934
C	-0.3512396921	-0.1114250678	-0.4605689707	-0.001629
C	 1.1389836392	-0.250082113	-0.5550878205	-0.001631
C	 2.0334098289	 0.7650375711	-1.2338951041	-0.41293
N	 0.4887136924	-0.0110371726	 0.7389038684	-0.114192
C	 0.6485296643	 1.2404025673	 1.4218387147	 0.082234
C	-0.0148807499	 1.3527845357	 2.7700519319	-0.274307
C	 1.4853986454	 1.2134958398	 2.6745515857	-0.274312
H	-0.5305564613	 1.9725271584	-1.1147140989	 0.117874
H	-1.4834693413	 0.8091147488	-2.0372817222	 0.11905
H	-1.9967210679	 1.2832553333	-0.4141609057	 0.12615
H	-0.9276501352	-1.0371854637	-0.4811438557	 0.082523
H	 1.5282648619	-1.2656932238	-0.6368704425	 0.082522
H	 1.614922096	 1.7729404329	-1.250628202	 0.117872
H	 3.0053653021	 0.8178385102	-0.7311061788	 0.126154
H	 2.2147455755	 0.4651068225	-2.271651398	 0.119046
H	 0.6964731161	 2.1572209807	 0.8358387891	 0.069847
H	-0.4316842268	 2.3106313103	 3.0609337192	 0.106015
H	-0.5733649337	 0.4871867696	 3.1062678677	 0.118321
H	 1.9137657772	 0.2565191429	 2.9481866966	 0.118316
H	 2.1037544056	 2.0754424056	 2.8993186975	 0.106011
53.0426	118.7842	129.9636	181.828	188.2522	260.6525	311.2904	340.7154	474.4126	505.9217	572.3385	694.9989	762.7506	777.1986	810.2412	836.4012	907.0928	959.6913	960.0413	1017.2844	1030.6293	1053.9444	1055.608	1072.6016	1115.969	1121.5353	1129.4709	1167.4905	1193.6734	1198.5535	1209.7433	1232.2693	1343.7483	1379.8454	1400.5007	1413.5978	1422.3342	1439.5688	1455.568	1485.6367	1487.4567	1494.795	1501.9398	1510.4468	3035.4884	3038.4622	3081.14	3090.1019	3092.0166	3093.0377	3098.0174	3123.0572	3136.2086	3136.2936	3141.2898	3221.8522	3235.5835
CC1C(C)N1C1CC1	C[C@H]1[C@@H](C)N1C1CC1	
InChI=1S/C7H13N/c1-5-6(2)8(5)7-3-4-7/h5-7H,3-4H2,1-2H3	InChI=1S/C7H13N/c1-5-6(2)8(5)7-3-4-7/h5-7H,3-4H2,1-2H3/t5-,6+,8?
