25
gdb 120633	4.50694	0.66746	0.64084	1.2976	90.56	-0.2495	0.0708	0.3203	1917.6054	0.226481	-389.49031	-389.479056	-389.478112	-389.52693	41.392	
C	 0.0430729687	 1.5228138425	 0.2320973266	-0.379203
C	-0.0755274979	-0.0014016751	 0.3130199082	-0.155824
C	-1.3640712939	-0.5358491603	-0.3259977162	-0.19183
C	-1.4775081798	-2.0444900793	-0.2597519126	-0.049678
C	-1.9748449327	-2.727327644	 1.006213082	-0.355575
C	-2.8083732559	-2.7425307557	-0.2556979248	 0.390352
O	-3.9268338423	-1.888225779	-0.3005376624	-0.469681
C	-2.9877271717	-4.0354844546	-1.0303209825	-0.219129
C	-4.1201750132	-4.9149030216	-0.487071786	-0.393625
H	 0.9695648432	 1.8783052291	 0.694219278	 0.107971
H	 0.0371828255	 1.8660060328	-0.8086116712	 0.112413
H	-0.7935183737	 2.0123049499	 0.7433198398	 0.112624
H	 0.7924201164	-0.4630004413	-0.1767119967	 0.089495
H	-0.0348801414	-0.3210311566	 1.362164881	 0.094877
H	-2.2372161632	-0.0884529296	 0.1600232863	 0.105205
H	-1.4068556163	-0.2153102456	-1.3761581151	 0.092114
H	-0.68884152	-2.5744437693	-0.7908687522	 0.078146
H	-1.4986268849	-3.6445434473	 1.3375234368	 0.104212
H	-2.3150710394	-2.0780959585	 1.8072002673	 0.106019
H	-4.5905677165	-2.2389263372	 0.3020565535	 0.282547
H	-3.186812788	-3.7868951411	-2.0802860815	 0.102991
H	-2.0444030526	-4.5936551592	-1.0100707612	 0.093061
H	-4.214657403	-5.839083696	-1.0646623814	 0.115463
H	-3.9431970746	-5.1890599325	 0.5588731183	 0.115157
H	-5.0832103228	-4.3961028405	-0.5440398939	 0.111899
63.9227	78.9825	81.8025	127.3316	168.4347	229.9307	242.4157	261.455	284.091	300.692	312.5336	383.8837	425.7994	486.9449	611.253	692.1167	745.6472	784.5552	843.8884	854.5287	899.6101	909.3139	912.9468	970.2855	987.3082	1029.019	1047.5097	1054.9058	1079.3493	1096.3014	1126.7265	1141.9694	1191.9566	1241.1878	1245.5755	1275.8707	1303.0591	1309.8652	1328.679	1347.8737	1372.2007	1390.7657	1406.3799	1409.8025	1425.9009	1475.7502	1482.8533	1490.8301	1495.0757	1498.7289	1500.7826	1511.0575	1511.3551	3012.1828	3017.5192	3026.0012	3027.7544	3031.699	3045.1333	3063.4368	3078.1424	3094.8894	3098.8645	3099.4936	3106.3942	3120.0892	3123.1735	3208.2279	3809.7594
CCCC1CC1(O)CC	CCC[C@H]1C[C@]1(O)CC	
InChI=1S/C8H16O/c1-3-5-7-6-8(7,9)4-2/h7,9H,3-6H2,1-2H3	InChI=1S/C8H16O/c1-3-5-7-6-8(7,9)4-2/h7,9H,3-6H2,1-2H3/t7-,8+/m0/s1
