16
gdb 26556	2.35883	1.88354	1.05051	4.4022	79.61	-0.1771	-0.0025	0.1746	1076.0942	0.127211	-434.111341	-434.103434	-434.10249	-434.143273	31.183	
N	 0.0724119345	 1.4252335426	 0.1333221552	-0.595194
C	-0.0072463491	 0.024709563	 0.0396042648	 0.247179
C	-1.1590117574	-0.6935950899	 0.0304249533	 0.29352
O	-2.3700187824	-0.0902585529	 0.0386068687	-0.464941
C	-1.170817061	-2.1480105378	 0.0071694609	 0.239735
N	-2.3559228153	-2.6823986862	 0.0042549692	-0.623751
C	 0.135510579	-2.766325571	-0.0361668225	-0.238925
C	 1.2619635363	-2.0088943561	-0.0231202339	 0.012999
N	 1.2036125153	-0.646143528	 0.0064136897	-0.373421
H	 0.4647673867	 1.8474664029	-0.7039780293	 0.247008
H	-0.8570211101	 1.8055712111	 0.2729211279	 0.268475
H	-2.9851108294	-0.8591599748	 0.0322094131	 0.30042
H	-2.3249600859	-3.6986730797	-0.0358526654	 0.203093
H	 0.218635144	-3.8459050381	-0.0773410151	 0.095363
H	 2.2580395111	-2.4332489906	-0.0399626095	 0.126956
H	 2.0336928538	-0.1049402547	 0.1849682528	 0.261482
144.6052	201.0654	225.5983	288.275	304.149	329.6232	427.995	501.2941	515.817	554.7464	561.1304	576.3871	664.5963	704.7121	732.1473	770.7116	816.577	851.8409	872.9732	917.8527	1026.3016	1074.8609	1142.445	1179.7718	1238.9465	1298.5988	1325.7969	1390.4187	1432.9617	1463.8482	1559.5952	1598.051	1648.0375	1665.7964	1737.5153	3195.1697	3216.3786	3447.0542	3490.0063	3501.1369	3593.2043	3651.0066
NC1=C(O)C(=N)C=CN1	NC1=C(O)C(=CCN1)[NH]	
InChI=1S/C5H7N3O/c6-3-1-2-8-5(7)4(3)9/h1-2,9H,(H4,6,7,8)	InChI=1S/C5H8N3O/c6-3-1-2-8-5(7)4(3)9/h1,6,8-9H,2,7H2
