16
gdb 71188	2.69334	1.64281	1.33705	1.6756	73.64	-0.2324	0.0299	0.2622	981.7347	0.123213	-400.638436	-400.630732	-400.629788	-400.670366	30.364	
O	-0.1011736556	 1.4462168408	 0.0428361114	-0.474571
C	-0.0505359678	 0.0695241804	 0.0001115939	 0.341738
C	 0.4374705843	-0.7511989245	-1.2076907897	-0.214655
N	-0.5040829014	-1.8485551345	-0.7978072849	-0.144719
C	-0.475150814	-1.85354539	 0.7062894677	-0.044384
C	-1.3119480557	-0.8712928206	-0.0178427764	-0.112862
C	 0.4802363714	-0.7694447824	 1.2265401652	-0.245659
C	 1.9024345412	-1.0096792491	 1.3734459838	 0.287171
C	 3.0886514459	-1.1820913495	 1.4803422807	-0.440935
H	 0.7988324522	 1.7855503568	 0.1171958344	 0.292226
H	 0.0890935908	-0.3365176653	-2.1564488706	 0.115137
H	 1.4941062564	-1.0307006038	-1.2665907554	 0.112718
H	-0.7503210294	-2.7798478339	 1.1923019589	 0.109202
H	-2.3768585047	-0.7158202404	-0.1191047851	 0.107447
H	 0.0588949933	-0.337340236	 2.1398999701	 0.113704
H	 4.1324537532	-1.3496926581	 1.5820826958	 0.198442
114.0182	146.9759	201.8644	302.0198	346.7603	395.9809	412.7364	542.202	567.677	630.6864	634.1765	648.1889	721.0463	777.8235	801.5093	849.5862	894.9102	930.323	973.5396	987.0152	1002.2179	1028.609	1073.1073	1100.7779	1145.1422	1159.904	1171.9953	1228.2238	1261.8222	1277.134	1328.9754	1350.2239	1392.3441	1503.8474	2226.4453	3052.3621	3062.3685	3120.3105	3204.6066	3221.723	3501.6143	3791.4823
OC12CN3C(C13)C2C#C	O[C@]12CN3[C@H]([C@@H]13)[C@H]2C#C	
InChI=1S/C7H7NO/c1-2-4-5-6-7(4,9)3-8(5)6/h1,4-6,9H,3H2	InChI=1S/C7H7NO/c1-2-4-5-6-7(4,9)3-8(5)6/h1,4-6,9H,3H2/t4-,5+,6+,7+,8?/m1/s1
