16
gdb 93191	2.9432	1.45763	1.01662	4.7979	67.53	-0.2767	-0.0568	0.2199	1131.1072	0.124764	-475.064915	-475.056851	-475.055907	-475.097879	29.762	
C	-0.2270934112	 1.4338535695	 0.0774500216	-0.405914
C	-0.0206252443	-0.0589147286	-0.1075780759	 0.103088
C	 0.9844912295	-0.4069238356	-1.1850310415	-0.100885
O	 1.1273797713	-1.8203089657	-1.2999847238	-0.225119
C	 1.3188303599	-2.498228351	-0.1440458411	 0.260873
N	 1.6635710791	-3.7110270517	-0.188209348	-0.468522
C	 1.0688285938	-1.7772406928	 1.1840817673	 0.340168
O	 1.4027634996	-2.2714821659	 2.2254916824	-0.318208
O	 0.4529732775	-0.5814142591	 1.1575313785	-0.236689
H	 0.7228600043	 1.9349437814	 0.2847312571	 0.138192
H	-0.6674279767	 1.8700088049	-0.8236963027	 0.131896
H	-0.9018726302	 1.6162410271	 0.916741914	 0.148413
H	-0.9738128996	-0.5531570531	-0.3351672413	 0.1142
H	 0.6463153	-0.0585550211	-2.1630588312	 0.138465
H	 1.9551191784	 0.0577264704	-0.962497123	 0.125386
H	 1.7474907685	-4.0543318886	 0.7700879175	 0.254656
72.7632	114.6819	219.2671	224.6123	276.6139	362.4234	425.663	436.503	470.4335	510.1439	591.3999	650.9093	752.4883	800.0615	895.6147	928.8899	949.0995	969.5159	1034.6468	1109.7355	1148.3591	1152.9452	1180.6474	1221.9275	1277.6989	1339.6554	1380.2406	1385.0599	1415.2747	1438.1863	1485.2078	1497.9056	1501.132	1736.5487	1837.8112	3016.3945	3036.1269	3050.6925	3116.6758	3126.6972	3135.7219	3488.4767
CC1COC(=N)C(=O)O1	C[C@H]1CO[C]([NH])C(=O)O1	
InChI=1S/C5H7NO3/c1-3-2-8-4(6)5(7)9-3/h3,6H,2H2,1H3	InChI=1S/C5H7NO3/c1-3-2-8-4(6)5(7)9-3/h3,6H,2H2,1H3/t3-/m0/s1
