19
gdb 58714	2.07435	1.49955	1.24269	3.1222	75.64	-0.2447	0.0182	0.2629	1129.0702	0.15813	-419.176101	-419.166626	-419.165682	-419.210405	34.131	
C	 0.0542796595	 1.3850185739	-0.196277418	-0.344926
N	-0.0190664036	-0.0510383584	 0.0634903669	-0.097633
C	 0.729867002	-0.4195718637	 1.26281764	-0.344921
C	-1.3785524682	-0.5552426343	 0.069384859	 0.112889
C	-2.0949697753	-0.554503438	-1.3125259438	-0.108197
O	-2.2817452369	-1.9776128701	-1.2712898332	-0.264612
C	-1.5163296788	-2.1000880924	-0.0625859821	-0.108201
C	-2.2007218178	 0.0162227241	 1.1565682513	 0.255622
N	-2.7895313494	 0.4995323279	 2.0270513569	-0.350327
H	 1.1030659206	 1.6696338385	-0.3169970513	 0.130279
H	-0.4689343586	 1.6259982657	-1.1260911662	 0.127388
H	-0.3795470158	 1.9946755965	 0.6140907821	 0.125698
H	 0.3447941682	 0.0597954204	 2.1785189847	 0.125695
H	 0.7027792897	-1.5038125654	 1.4044850309	 0.127387
H	 1.7743055028	-0.1233362373	 1.1327208694	 0.130278
H	-3.0427901857	-0.0111172347	-1.3695593484	 0.126422
H	-1.4280155858	-0.2459967216	-2.1256362902	 0.115363
H	-0.5504066412	-2.5901525323	-0.2298727995	 0.115367
H	-2.0700563459	-2.6093877485	 0.7316977516	 0.126429
76.8474	104.977	138.1544	195.3787	216.2034	247.1912	248.3391	294.2909	360.1808	436.4137	440.2519	524.8501	587.4233	634.361	793.1747	852.7672	957.4546	969.2423	1007.6209	1051.4442	1055.4273	1070.1612	1123.0919	1157.6906	1170.1678	1174.0578	1193.8878	1221.4185	1251.7296	1314.4265	1314.8833	1379.6323	1444.3726	1474.7562	1481.2544	1496.3132	1496.985	1500.691	1517.0137	1521.0253	2336.4946	2968.3215	2974.0316	3026.7422	3036.8401	3076.1262	3076.8452	3092.5964	3094.2746	3115.4532	3117.977
CN(C)C1(COC1)C#N	CN(C)C1(COC1)C#N	
InChI=1S/C6H10N2O/c1-8(2)6(3-7)4-9-5-6/h4-5H2,1-2H3	InChI=1S/C6H10N2O/c1-8(2)6(3-7)4-9-5-6/h4-5H2,1-2H3
