17
gdb 32635	3.07703	1.29323	0.98215	2.043	71.1	-0.1766	0.0418	0.2184	1196.1519	0.135649	-455.178483	-455.169141	-455.168197	-455.2128	33.492	
C	 0.0345724049	 1.5355193505	-0.0124559256	-0.378843
C	-0.0167256772	 0.0082330741	 0.0652925039	-0.155256
N	-1.3726425155	-0.5175531403	 0.0268492676	-0.03951
C	-2.1082955734	-1.0168621384	 1.0648797872	-0.020973
N	-3.3190712184	-1.3757802731	 0.6846715059	-0.353532
C	-3.3766548297	-1.0952136259	-0.64758704	 0.221456
O	-4.4751133238	-1.3287286477	-1.4190952169	-0.460094
C	-2.1921303554	-0.5647712254	-1.0811058389	 0.25654
O	-1.7278714667	-0.1269417703	-2.2838439896	-0.457954
H	 1.0729029175	 1.8784131611	 0.0297072273	 0.119657
H	-0.4062082121	 1.8863525379	-0.9487795652	 0.146744
H	-0.513204969	 1.9859922485	 0.8203387216	 0.128172
H	 0.5462174124	-0.4318745439	-0.7639983034	 0.132608
H	 0.4360428966	-0.3494015637	 0.9944801821	 0.120835
H	-1.7043157735	-1.0965076448	 2.062052969	 0.125226
H	-5.1353013293	-1.7211937616	-0.8364538347	 0.300016
H	-2.4195917174	-0.2869266969	-2.9348055004	 0.314908
61.2497	96.6416	166.0667	203.1653	230.3099	259.7986	261.3479	294.7923	338.2868	412.3482	533.182	588.3127	648.4124	689.0628	727.5415	735.0693	775.7297	812.7933	963.9933	1040.4354	1099.3982	1118.4645	1135.1318	1241.5168	1260.9785	1302.8522	1333.6229	1375.2437	1392.9136	1409.7942	1425.2956	1480.7117	1490.5498	1508.0579	1510.1362	1554.4129	1712.8698	3045.3602	3053.8412	3095.9301	3118.5966	3134.5719	3257.2858	3815.5881	3831.3596
CCN1C=NC(O)=C1O	CCn1cnc(O)c1O	
InChI=1S/C5H8N2O2/c1-2-7-3-6-4(8)5(7)9/h3,8-9H,2H2,1H3	InChI=1S/C5H8N2O2/c1-2-7-3-6-4(8)5(7)9/h3,8-9H,2H2,1H3
