12
gdb 131111	3.43542	1.13794	1.05409	3.0064	61.15	-0.302	-0.0708	0.2312	1106.1815	0.076708	-468.773297	-468.765491	-468.764547	-468.806677	27.162	
O	-0.1815013487	 1.3752298518	 0.055891421	-0.388961
C	 0.0121301455	-0.0178584571	-0.0228148852	-0.130976
C	 0.7635411942	-0.4031686459	-1.2398322684	 0.26843
N	 1.3495764025	-0.6857792016	-2.1938659377	-0.301444
C	 0.6802531392	-0.5725752716	 1.2055353936	 0.43587
C	 0.3210149436	-1.5041634568	 2.1258425297	-0.210552
N	 1.3365900884	-1.5502025239	 3.053592319	-0.093002
N	 2.246083607	-0.7393320865	 2.7704558222	 0.012442
O	 1.8610563202	-0.0650892748	 1.5455469209	-0.23109
H	 0.6814890566	 1.7977252975	 0.1519194396	 0.312435
H	-0.9870452534	-0.459107051	-0.0934923056	 0.168113
H	-0.5542975252	-2.1261025301	 2.1978428108	 0.158735
46.9422	101.9887	169.2662	209.6673	297.1851	370.4165	410.1314	466.1976	569.1959	598.6026	694.9113	740.7473	791.1759	835.3855	929.5671	982.9385	1044.7206	1076.7309	1113.8428	1242.3331	1261.2065	1298.1591	1389.7273	1418.6749	1473.6946	1607.5831	2362.843	3079.9055	3295.8037	3791.3658
OC(C#N)C1=CN=NO1	O[C@@H](C#N)c1cnno1	
InChI=1S/C4H3N3O2/c5-1-3(8)4-2-6-7-9-4/h2-3,8H	InChI=1S/C4H3N3O2/c5-1-3(8)4-2-6-7-9-4/h2-3,8H/t3-/m0/s1
