15
gdb 29962	3.66852	1.29409	0.96247	4.4486	70.68	-0.2184	-0.0307	0.1877	1152.9002	0.113244	-454.025904	-454.017724	-454.01678	-454.058981	29.175	
C	-0.0131261798	 1.4584019743	 0.0022500922	-0.350645
N	 0.0119151185	 0.0117896545	-0.0308084796	-0.134651
C	 0.0572482257	-0.8045857788	-1.163892	-0.103831
C	 0.0702069734	-2.0894908638	-0.7731411774	-0.107411
N	 0.0329443062	-2.091774496	 0.6289331282	-0.167389
C	 0.0315921399	-3.2114124979	 1.4503668131	 0.172173
O	 0.0635075166	-4.3399020122	 1.0285086069	-0.305656
C	-0.0042717544	-0.7616188006	 1.1151895719	 0.511474
O	-0.0412641073	-0.4001575147	 2.2724003553	-0.427141
H	 0.8866892576	 1.8787852633	-0.4583215804	 0.140334
H	-0.8952405734	 1.8487263756	-0.5153564113	 0.140283
H	-0.0515866798	 1.7555673716	 1.0512845761	 0.176466
H	 0.0757979947	-0.3826606464	-2.1546843178	 0.151484
H	 0.1014478817	-3.0125472668	-1.3228004748	 0.172066
H	-0.0018507694	-2.9266561822	 2.5128781975	 0.132443
89.7511	117.4291	189.834	193.7338	229.0418	301.7697	311.1133	414.0894	550.6318	597.6521	686.4048	726.9495	759.4838	769.4188	806.8408	866.3756	1020.0493	1048.2417	1060.9687	1098.6389	1158.8905	1228.4233	1253.1418	1325.9713	1373.472	1417.8104	1432.8885	1469.8836	1495.1843	1512.4159	1646.6022	1807.1534	1831.6819	3036.4967	3038.7297	3095.8293	3151.498	3278.2937	3315.7323
CN1C=CN(C=O)C1=O	Cn1ccn(C=O)c1=O	
InChI=1S/C5H6N2O2/c1-6-2-3-7(4-8)5(6)9/h2-4H,1H3	InChI=1S/C5H6N2O2/c1-6-2-3-7(4-8)5(6)9/h2-4H,1H3
