19
gdb 111298	3.34512	1.2377	1.07334	2.321	72.01	-0.2346	0.077	0.3115	1190.6048	0.156919	-460.114406	-460.105158	-460.104214	-460.148147	34.225	
C	 0.1574055023	 1.3412547951	-0.1055109521	-0.244257
O	-0.2235074668	 0.0019117753	 0.1579823901	-0.243265
C	 0.5143716254	-0.5858246655	 1.1857020173	 0.0898
C	 0.1379749699	-2.0300042677	 1.4863529107	-0.098409
O	 0.4665274209	-2.8111011235	 0.3239272941	-0.293926
C	 1.5196218517	-2.5097687529	 1.2568063805	 0.392503
C	 2.3082434141	-3.6351261591	 1.8397971444	-0.515198
C	 1.9822920217	-1.0974689422	 0.83450684	 0.027064
O	 2.3850983308	-0.9561571868	-0.4966710498	-0.435027
H	 1.2034459148	 1.4047920553	-0.4278768102	 0.131049
H	-0.489604719	 1.7047021225	-0.9072036759	 0.128007
H	 0.0151366692	 1.9789477318	 0.7809397151	 0.102014
H	 0.5165477758	 0.0355103399	 2.0951569522	 0.065509
H	-0.6436500243	-2.4158411141	 2.1307325837	 0.107186
H	 1.6512052254	-4.4636590143	 2.1173463438	 0.136062
H	 3.0408083106	-4.0053257781	 1.1144902067	 0.140733
H	 2.8540038289	-3.3041480889	 2.7292326643	 0.12672
H	 2.7589245626	-0.6652974528	 1.4697572502	 0.088105
H	 1.6766659859	-1.3552870539	-1.0201638552	 0.295328
101.5827	125.1855	171.7764	194.0659	212.8531	231.0765	256.3041	321.2496	346.3027	462.9801	542.5277	545.2737	645.2084	717.1611	779.5593	807.4085	852.3166	900.2233	960.8323	1003.1136	1033.4788	1054.6107	1099.8084	1125.2096	1147.9825	1174.041	1184.913	1205.6246	1232.8712	1260.4332	1283.6534	1310.856	1375.827	1400.9277	1434.1147	1470.4266	1478.9456	1484.8157	1486.5123	1494.2983	1512.0877	2979.384	2986.0304	3037.0544	3061.9099	3091.8269	3101.4993	3120.7917	3121.4536	3187.3832	3763.7043
COC1C2OC2(C)C1O	CO[C@H]1[C@H]2O[C@@]2(C)[C@H]1O	
InChI=1S/C6H10O3/c1-6-4(7)3(8-2)5(6)9-6/h3-5,7H,1-2H3	InChI=1S/C6H10O3/c1-6-4(7)3(8-2)5(6)9-6/h3-5,7H,1-2H3/t3-,4+,5-,6+/m1/s1
