23
gdb 63623	2.67412	1.11824	1.0639	1.8722	85.52	-0.2485	0.0762	0.3247	1315.8102	0.202919	-388.26689	-388.256709	-388.255765	-388.301812	38.705	
C	-0.084350853	 1.5027188607	-0.2457922752	-0.45832
C	-0.0567666767	 0.0021248096	-0.0246105846	 0.352324
C	-1.3721493953	-0.6861909349	-0.3403998793	-0.450071
C	 1.218385208	-0.7497356941	-0.3229383625	-0.350533
C	 0.7688498312	-0.5779836289	 1.111784217	-0.11459
C	 1.521454639	 0.2457276016	 2.1338259542	 0.397364
C	 2.9004376412	 0.7639443051	 1.7879638075	-0.467023
C	 0.7516994738	 0.9103330314	 3.2020705341	-0.215613
O	 1.4410457101	-0.3117024425	 3.4609594735	-0.280522
H	 0.8769230595	 1.9750569444	-0.0286370201	 0.11613
H	-0.3374020605	 1.7330888873	-1.2873513987	 0.115327
H	-0.8395830075	 1.9822370549	 0.3883068038	 0.114544
H	-1.6557413105	-0.5293074049	-1.3881982176	 0.113161
H	-1.310035473	-1.7654569033	-0.1702911322	 0.114363
H	-2.1849640614	-0.2957739483	 0.2837276159	 0.113005
H	 1.1528907081	-1.7391962763	-0.763999773	 0.107807
H	 2.0755936661	-0.1758433254	-0.6591651883	 0.107213
H	 0.3401213873	-1.4598281467	 1.5791495257	 0.096703
H	 2.8762153134	 1.466095489	 0.9486753116	 0.121867
H	 3.3344572192	 1.2752228931	 2.6506339724	 0.124285
H	 3.5596459824	-0.0646573292	 1.5098255274	 0.130698
H	 1.1570909897	 1.7927421937	 3.6976855106	 0.104708
H	-0.3357567011	 0.8419009936	 3.2004851175	 0.107173
40.7631	138.0417	152.7715	200.5749	210.8348	235.2585	295.8231	327.8115	346.284	360.7652	390.8082	408.9284	455.8869	530.405	696.7006	714.23	807.1785	863.8833	886.3538	916.4388	921.9176	962.7645	969.8385	983.8744	1026.3993	1059.4139	1073.6909	1093.234	1112.0502	1133.5617	1136.6112	1157.1218	1165.0585	1274.0279	1290.5529	1327.3587	1363.8644	1405.0189	1413.5778	1422.1956	1427.2549	1477.155	1479.4172	1491.4777	1493.4194	1496.5637	1499.3329	1514.5032	1527.0175	3018.021	3026.085	3039.1755	3071.3296	3076.3194	3080.1634	3098.5506	3102.7712	3114.5721	3124.0033	3127.3682	3148.931	3156.5302	3209.4986
CC1(C)CC1C1(C)CO1	CC1(C)C[C@H]1[C@@]1(C)CO1	
InChI=1S/C8H14O/c1-7(2)4-6(7)8(3)5-9-8/h6H,4-5H2,1-3H3	InChI=1S/C8H14O/c1-7(2)4-6(7)8(3)5-9-8/h6H,4-5H2,1-3H3/t6-,8-/m1/s1
