20
gdb 16610	2.95327	2.07458	1.37166	0.1309	81.73	-0.208	0.0341	0.2421	972.0753	0.17738	-311.884616	-311.876572	-311.875628	-311.916511	31.164	
C	 0.0789319452	 1.5056701471	 0.1318995629	-0.494381
C	 0.0093269289	 0.0150596723	 0.0105367648	 0.206096
C	-0.0440750832	-0.7330724559	-1.1042975963	 0.235418
C	-0.0808278351	-0.2821584114	-2.5320252724	-0.503915
C	-0.0187859138	-2.1944306505	-0.7762684152	-0.113599
C	 1.2487607196	-2.6841556157	-0.1015479686	-0.279181
C	 0.0626996645	-2.2788807331	 0.7349659927	-0.037081
C	 0.0086287602	-0.8488658458	 1.2626338555	-0.308219
H	 1.007299477	 1.8228142746	 0.6252282906	 0.121551
H	 0.030826991	 2.0085408863	-0.8370529746	 0.120125
H	-0.744182412	 1.8889872018	 0.749741219	 0.120222
H	-0.1085219223	 0.8057353589	-2.6293995017	 0.120055
H	 0.7942868248	-0.6488431234	-3.0840347519	 0.1258
H	-0.9622410978	-0.686231038	-3.0467568704	 0.122219
H	-0.5989551907	-2.8913784894	-1.3731496222	 0.076342
H	 1.471914008	-3.7451871078	-0.1541143161	 0.10373
H	 2.1192253618	-2.0355232194	-0.1311380408	 0.105477
H	-0.4615088939	-3.0570561037	 1.2769906076	 0.080443
H	 0.8531361987	-0.6109120341	 1.9244018025	 0.100575
H	-0.8998332609	-0.6738466627	 1.8574748447	 0.098325
148.327	158.7881	172.4197	196.6273	289.0606	335.5791	364.8635	402.2518	565.6287	589.9734	637.4419	736.1957	802.1624	813.3766	888.2073	894.3241	960.254	970.2192	997.6695	1012.2671	1058.7779	1064.1504	1076.9765	1096.5894	1101.2037	1145.5865	1185.0351	1190.5207	1212.8861	1233.5563	1325.6592	1360.1352	1380.715	1409.1838	1420.2647	1472.9048	1477.5225	1481.2401	1484.1277	1489.7098	1493.9249	1727.1614	2996.6967	3011.6966	3015.9281	3024.0149	3051.5382	3057.639	3110.8379	3116.6577	3117.3002	3152.938	3176.2942	3205.7711
CC1=C(C)C2CC2C1	CC1=C(C)[C@H]2C[C@H]2C1	
InChI=1S/C8H12/c1-5-3-7-4-8(7)6(5)2/h7-8H,3-4H2,1-2H3	InChI=1S/C8H12/c1-5-3-7-4-8(7)6(5)2/h7-8H,3-4H2,1-2H3/t7-,8-/m1/s1
