18
gdb 38793	2.69203	2.42612	1.9638	0.8268	72.77	-0.214	0.0708	0.2848	800.8369	0.151719	-401.887698	-401.882052	-401.881107	-401.917291	25.128	
C	-0.01315281	 1.5719499553	 0.1551758424	-0.259328
C	 1.536601151	 1.5454393307	-0.0172048697	 0.079733
O	 2.0120906906	 1.7771716229	-1.3324510544	-0.256003
C	 1.7391576551	 0.6472007171	-2.1395409413	 0.073158
C	 0.2387377525	 0.4073473387	-2.4729630671	-0.20441
N	 0.098372536	-0.5760714264	-1.3497438787	-0.156006
C	-0.0417433807	 0.0327740648	 0.032820416	-0.006341
C	 1.5107847364	-0.0036490173	 0.2235203891	-0.075789
C	 1.6066555007	-0.5813718577	-1.1894697196	-0.011768
H	-0.2735066568	 1.8609799947	 1.1788654235	 0.103781
H	-0.5929827086	 2.1865647264	-0.5373388725	 0.106527
H	 2.1122446567	 2.1840401225	 0.6541914387	 0.083963
H	 2.4530217202	 0.6470067276	-2.9657420124	 0.08062
H	-0.424728579	 1.2751115228	-2.4564310604	 0.110459
H	 0.1075196276	-0.1179699497	-3.4248748004	 0.108365
H	-0.75775994	-0.5163276143	 0.6457725649	 0.078703
H	 2.044614782	-0.4363518725	 1.0666019076	 0.07151
H	 2.1468536262	-1.5052918256	-1.4010186056	 0.072826
296.1242	316.6947	430.8933	474.379	608.9251	636.8109	658.4201	732.7458	796.0605	806.4101	841.189	862.1522	879.8411	891.0096	928.7077	954.0852	958.8549	966.1242	994.6294	1022.1415	1040.1291	1088.3435	1118.5032	1140.727	1170.0447	1201.4097	1204.9907	1208.5561	1218.6465	1226.153	1251.9317	1265.2077	1289.9986	1295.3819	1309.8364	1337.4906	1382.8615	1460.1194	1495.0157	3045.1976	3051.1222	3087.8006	3092.268	3099.0283	3102.1734	3105.1836	3113.4542	3139.22
C1C2OC3CN4C1C2C34	C1[C@@H]2O[C@@H]3CN4[C@H]1[C@H]2[C@H]34	
InChI=1S/C7H9NO/c1-3-6-4(1)9-5-2-8(3)7(5)6/h3-7H,1-2H2	InChI=1S/C7H9NO/c1-3-6-4(1)9-5-2-8(3)7(5)6/h3-7H,1-2H2/t3-,4+,5-,6-,7+/m1/s1
