17
gdb 39345	2.81773	1.90269	1.39606	2.7698	66.78	-0.2624	0.0746	0.3371	932.8839	0.137854	-458.948593	-458.941655	-458.940711	-458.980147	27.023	
C	 0.0050786108	 1.412758358	-0.0526713745	-0.071398
C	 1.4493347624	 1.9476733904	 0.0553502493	-0.360796
C	 2.0938292986	 0.7047121184	 0.5969877542	 0.389126
O	 3.4243755584	 0.4846364126	 1.0182954644	-0.315468
C	 2.3607682624	 0.3388742918	 1.9868567314	-0.067103
C	 1.8565429638	-1.0696632075	 2.1891850714	-0.109472
O	 1.4382679784	-1.5336863487	 0.9007683301	-0.267462
C	 1.3951639	-0.4845196471	-0.0356998911	 0.179503
O	 0.0966434817	 0.00458738	-0.3316702015	-0.275283
H	-0.534807336	 1.5712807685	 0.891280193	 0.103622
H	-0.5684259832	 1.8802098072	-0.8574525454	 0.116299
H	 1.8544062825	 2.2037771449	-0.9293607716	 0.123166
H	 1.533837848	 2.8183644165	 0.7080066087	 0.119575
H	 2.3690938611	 1.0565018795	 2.8019386529	 0.110297
H	 2.6184279907	-1.7595270722	 2.567584247	 0.123052
H	 1.0137175653	-1.0576987136	 2.8951826054	 0.109717
H	 1.8370007651	-0.8763666288	-0.9588824237	 0.092625
100.9703	142.2249	226.0114	349.3401	398.9988	454.3441	542.0399	600.8102	671.7465	757.0722	794.7939	858.8776	904.6152	915.3733	943.1058	953.7002	978.386	985.184	1020.9428	1044.432	1092.2069	1107.5046	1121.8195	1171.8873	1222.3397	1224.855	1236.8768	1297.5607	1307.6439	1336.0474	1372.7395	1393.8701	1402.1851	1485.5844	1498.9504	1508.3051	1527.498	3006.0227	3007.9411	3047.1139	3055.2877	3069.955	3088.7471	3121.8193	3163.1122
C1CC23OC2COC3O1	C1C[C@@]23O[C@@H]2CO[C@H]3O1	
InChI=1S/C6H8O3/c1-2-7-5-6(1)4(9-6)3-8-5/h4-5H,1-3H2	InChI=1S/C6H8O3/c1-2-7-5-6(1)4(9-6)3-8-5/h4-5H,1-3H2/t4-,5-,6-/m1/s1
