21
gdb 122829	6.94509	0.50699	0.47951	3.3148	77.23	-0.2679	0.0068	0.2747	2292.8155	0.180011	-461.402362	-461.391429	-461.390484	-461.440051	37.362	
C	 0.0009111679	 1.527946869	-0.0664235558	-0.381549
C	 0.0254907514	-0.0026931613	-0.0515014263	-0.168631
C	 0.7289390569	-0.5952460707	-1.2781763724	-0.187149
C	 0.745440787	-2.1136000054	-1.2499176615	-0.068579
O	 1.4263077038	-2.570798819	-2.4416271069	-0.238264
C	 1.5383754475	-3.8914263998	-2.5875002615	 0.410223
O	 1.118626074	-4.7158306934	-1.8078308573	-0.372637
C	 2.2651513381	-4.2761361	-3.8645774495	-0.144263
O	 2.3616844644	-5.6672376848	-3.9779115502	-0.419682
H	 1.0159330758	 1.9395105722	-0.0832946206	 0.117978
H	-0.5240913539	 1.9063199652	-0.9502461586	 0.117976
H	-0.5056223899	 1.9253086651	 0.8181530297	 0.116728
H	 0.5262568679	-0.3529542029	 0.8604536761	 0.102191
H	-1.0019510324	-0.385879706	-0.0000246847	 0.102181
H	 0.2289226353	-0.2603391869	-2.1951676936	 0.109027
H	 1.7609158049	-0.2276396439	-1.3324485477	 0.10903
H	 1.2737533173	-2.501719338	-0.3730498192	 0.125469
H	-0.2652151045	-2.5345102037	-1.2397527522	 0.125402
H	 1.7207177989	-3.8395516513	-4.7154348784	 0.124014
H	 3.2587585171	-3.8034520242	-3.85135213	 0.12409
H	 1.9247880323	-6.0217544503	-3.1888768792	 0.296445
36.0309	71.4472	83.6556	86.3689	122.1521	174.8741	210.3379	246.7182	274.7133	336.3006	374.7212	426.1006	509.3672	584.1281	716.7153	744.9749	807.012	897.3848	947.2691	950.0601	988.2832	1041.7268	1044.6184	1073.7271	1129.9087	1144.7518	1191.3274	1241.3537	1252.7914	1262.7811	1296.4686	1309.898	1321.5153	1329.1792	1388.1291	1413.4672	1422.2847	1469.6128	1489.1025	1495.4727	1499.1918	1499.7067	1508.1948	1520.5981	1802.5292	2995.481	3016.032	3017.5783	3030.1569	3034.3381	3044.3048	3049.9193	3068.8077	3097.7157	3102.9224	3107.051	3714.3935
CCCCOC(=O)CO	CCCCOC(=O)CO	
InChI=1S/C6H12O3/c1-2-3-4-9-6(8)5-7/h7H,2-5H2,1H3	InChI=1S/C6H12O3/c1-2-3-4-9-6(8)5-7/h7H,2-5H2,1H3
