15
gdb 54448	2.74665	1.56315	1.22886	9.1712	69.01	-0.2087	-0.0464	0.1623	1006.6617	0.111664	-453.909132	-453.90088	-453.899936	-453.942195	30.731	
O	-0.7844502793	 0.1095854995	-0.8163882602	-0.487847
C	-0.4227446727	 0.9744616952	 0.0055148241	 0.344816
O	 0.4365981582	 1.054112674	 0.8780497327	-0.439506
C	-1.3434285343	 2.2458738419	-0.1051694033	 0.202584
C	-1.4853444205	 3.4767460296	 0.6462702022	-0.318219
C	-2.5835572929	 2.4818494383	 1.032111277	-0.203931
C	-3.2452121906	 1.9325924995	-0.0992978478	 0.463525
N	-4.2717287618	 1.0937299393	-0.1215531834	-0.54434
H	-4.7172970204	 0.8157006992	 0.7384786176	 0.293212
H	-4.4493808532	 0.5318425381	-0.9394974562	 0.298479
N	-2.4077212107	 2.2015822524	-1.1616997624	-0.340731
H	-0.7609297564	 3.5921477233	 1.44612463	 0.173472
H	-1.7813864678	 4.3865538774	 0.1297586843	 0.138526
H	-2.6725954939	 2.0752253165	 2.029039524	 0.153633
H	-2.2116494038	 1.3489546558	-1.7059637488	 0.266328
79.3765	86.4599	174.4246	229.6086	325.2886	383.1136	424.3306	437.7618	480.9105	523.7793	569.5911	593.2722	729.1206	763.6271	796.1022	824.1161	852.8378	898.8757	966.7895	995.3574	1045.9589	1104.605	1125.3129	1171.8694	1217.7154	1282.5549	1295.7555	1370.5894	1459.9841	1491.1569	1591.4227	1681.6282	1825.1039	3115.7274	3219.506	3237.1469	3343.8461	3590.863	3709.3488
[O-]C(=O)C12CC1C(=[NH2+])N2	O=C([O])[C@]12C[C@H]1[C](N)N2	
InChI=1S/C5H6N2O2/c6-3-2-1-5(2,7-3)4(8)9/h2H,1H2,(H2,6,7)(H,8,9)	InChI=1S/C5H6N2O2/c6-3-2-1-5(2,7-3)4(8)9/h2,7H,1,6H2/t2-,5-/m0/s1
