21
gdb 110560	3.50779	1.12673	1.00687	1.2546	83.14	-0.2528	0.0782	0.3311	1280.5967	0.182111	-387.020335	-387.011826	-387.010882	-387.053327	33.547	
C	-0.1460658344	 1.5832531935	 0.0327618083	-0.375088
C	 0.1805852293	 0.0919788038	-0.1090516866	-0.213623
C	 0.7958944854	-0.500530943	 1.1523445076	 0.007745
C	-0.1007447729	-0.8300663316	 2.372097823	-0.121412
C	-0.5946890783	-2.1850937664	 1.7605750324	-0.053241
C	-0.2195250514	-3.001642553	 3.0162900419	-0.331296
C	 0.896975085	-1.9509839635	 2.8633987194	 0.401656
O	 2.0543806161	-1.7844511182	 3.5998181999	-0.47673
C	 0.902008304	-2.0361544471	 1.3080473684	-0.099446
H	 0.7534103833	 2.163421195	 0.2674218707	 0.113678
H	-0.5726037239	 1.9890358905	-0.889910198	 0.109503
H	-0.8685955732	 1.7559769735	 0.8378393322	 0.114381
H	-0.7293206906	-0.4596123744	-0.3765793648	 0.090446
H	 0.8788315864	-0.0491672072	-0.9450041345	 0.092985
H	 1.7175812418	 0.0319818201	 1.4179290393	 0.069383
H	-0.6887262618	-0.1659975245	 3.0100012455	 0.060993
H	-1.4535792431	-2.3191701141	 1.1085428864	 0.080656
H	-0.8840384008	-2.9027597523	 3.8820830543	 0.08429
H	 0.0636715764	-4.0474918331	 2.8592110275	 0.094498
H	 1.810804163	-1.5561500746	 4.5034548084	 0.282841
H	 1.4644379597	-2.7592436833	 0.7139566889	 0.067781
84.3183	137.5872	175.668	248.5148	267.1478	324.1771	347.2876	378.8104	477.0265	530.9185	653.9429	719.3379	740.3024	812.4207	857.0019	870.6164	882.003	895.8545	932.8923	953.2345	990.8997	1012.4973	1036.3712	1047.1485	1076.0525	1086.4195	1098.5783	1119.4541	1152.313	1162.6443	1180.3758	1208.5269	1219.1487	1235.5572	1282.4202	1293.3238	1305.2734	1347.5587	1381.8646	1407.9575	1416.5132	1485.7268	1499.5124	1506.9785	1511.9202	3015.9095	3027.4849	3030.2227	3031.3273	3052.217	3082.8728	3091.5927	3095.4161	3096.6054	3101.0825	3152.4572	3805.9967
CCC1C2C3CC2(O)C13	CC[C@H]1[C@H]2[C@@H]3C[C@@]2(O)[C@H]13	
InChI=1S/C8H12O/c1-2-4-6-5-3-8(6,9)7(4)5/h4-7,9H,2-3H2,1H3	InChI=1S/C8H12O/c1-2-4-6-5-3-8(6,9)7(4)5/h4-7,9H,2-3H2,1H3/t4-,5-,6-,7+,8-
