15
gdb 125484	2.76275	1.70632	1.06168	2.1422	68.23	-0.27	-0.0289	0.241	1057.329	0.114206	-450.203987	-450.19578	-450.194836	-450.23705	29.588	
C	-0.0316414354	 1.5084172808	-0.0481456248	-0.477409
C	-0.012785039	 0.0204342072	-0.0361699391	 0.382281
N	-0.0273050583	-0.7558211967	-1.1028552188	-0.317083
C	 0.0000585925	-2.0179016533	-0.5847376625	 0.036199
N	 0.0308341212	-2.086494458	 0.727033749	-0.263009
N	 0.0223520112	-0.7650797114	 1.0862655548	-0.099738
C	 0.0481930841	-0.3679424275	 2.4600960599	 0.512187
N	 0.0814208721	-1.4260205084	 3.2957178595	-0.559661
O	 0.0393240568	 0.8012450736	 2.7720845255	-0.376054
H	 0.8487015429	 1.9169390249	 0.4539754296	 0.157809
H	-0.0565754909	 1.8398512909	-1.0867310981	 0.145703
H	-0.9015802157	 1.8948615991	 0.4885281045	 0.157749
H	-0.0027604574	-2.9065846422	-1.1987527684	 0.13566
H	 0.0837189537	-2.3623163871	 2.9252706974	 0.289018
H	 0.0991059923	-1.2457588218	 4.2835333116	 0.276348
72.1409	140.0448	167.3863	223.1738	236.2073	288.9171	346.9758	438.1847	523.1047	603.342	672.3124	681.2599	700.0089	712.1306	774.4476	922.4893	971.6023	1012.818	1069.7502	1090.8942	1146.5013	1207.6776	1233.2685	1310.0824	1363.3776	1399.3036	1413.671	1466.4203	1473.3429	1504.4545	1577.8852	1588.3825	1840.4348	3062.6935	3124.6354	3159.1143	3256.415	3603.267	3752.3736
CC1=NC=NN1C(N)=O	Cc1ncnn1C(=O)N	
InChI=1S/C4H6N4O/c1-3-6-2-7-8(3)4(5)9/h2H,1H3,(H2,5,9)	InChI=1S/C4H6N4O/c1-3-6-2-7-8(3)4(5)9/h2H,1H3,(H2,5,9)
