20
gdb 22086	3.52392	0.99099	0.94099	1.1093	78.15	-0.2394	0.0108	0.2502	1319.5406	0.169454	-440.266455	-440.25713	-440.256186	-440.300159	36.089	
C	 0.6774737338	 1.2299997612	 0.0730159325	-0.432232
C	-0.1291491348	-0.0725078845	 0.0344952112	 0.384154
O	-1.5219353649	 0.2102434022	-0.0302483355	-0.478656
C	 0.2269010971	-0.9390123696	-1.1938080785	-0.248714
C	 1.481975611	-1.7378080701	-0.7912795487	-0.305819
C	 1.4458349146	-1.7549678422	 0.72423369	 0.413676
C	 0.2369085015	-1.0034090157	 1.2206571066	-0.342623
N	 2.2997654312	-2.2610734309	 1.5197841142	-0.234422
O	 3.3352953597	-2.8985561419	 0.8061709006	-0.397329
H	 1.7550746993	 1.0378687964	 0.0902595883	 0.126984
H	 0.4469254257	 1.8442265655	-0.8021914162	 0.124266
H	 0.4370293638	 1.807795142	 0.9740303937	 0.106829
H	-1.732901816	 0.837952836	 0.6689484087	 0.274939
H	-0.617752593	-1.6109200408	-1.3750485338	 0.114685
H	 0.3666494011	-0.3379468289	-2.095757496	 0.100908
H	 1.502131723	-2.7521633476	-1.2007857373	 0.12989
H	 2.4125263459	-1.2637719432	-1.1239315478	 0.129015
H	 0.4186093689	-0.4840355691	 2.165139764	 0.107575
H	-0.6039194607	-1.69296745	 1.3698680969	 0.122037
H	 3.9021303628	-3.2170285189	 1.516324947	 0.304838
64.8836	151.9694	205.4205	247.3122	277.308	278.7675	321.6185	348.0045	382.2028	394.9119	440.0012	490.1347	519.7114	596.7794	675.4633	752.3361	795.9571	838.4353	908.9066	943.4642	968.3498	972.1958	995.9283	1011.9292	1042.7131	1120.0686	1157.871	1185.7507	1217.6181	1225.1471	1268.335	1280.8346	1304.5211	1335.1243	1382.8437	1404.1456	1407.4852	1467.564	1471.7265	1488.3849	1494.0111	1506.3253	1754.5746	3024.5645	3029.1411	3047.5699	3057.9625	3083.3543	3090.6266	3098.7607	3107.2865	3115.9249	3807.5231	3821.8645
CC1(O)CCC(C1)=NO	C[C@@]1(O)CCC(=NO)C1	
InChI=1S/C6H11NO2/c1-6(8)3-2-5(4-6)7-9/h8-9H,2-4H2,1H3	InChI=1S/C6H11NO2/c1-6(8)3-2-5(4-6)7-9/h8-9H,2-4H2,1H3/t6-/m1/s1
