21
gdb 109020	3.4968	1.06078	0.91192	2.0055	84.59	-0.2318	0.0085	0.2403	1371.6553	0.181538	-387.097308	-387.088201	-387.087257	-387.131144	34.743	
C	 0.1043820334	 1.5018214351	 0.2169660494	-0.376015
C	-0.0418106658	 0.0128269847	-0.1429917523	-0.283744
C	-1.4582324472	-0.4792008767	-0.1112808446	 0.329532
C	-2.1443275422	-1.0226186541	-1.1253275137	-0.210732
C	-3.4849712878	-1.4853514171	-0.6697286481	-0.057148
O	-3.4181482272	-2.5043096199	 0.3631673372	-0.303822
C	-3.6059951592	-1.1391998523	 0.7590372704	 0.415452
C	-4.8889651357	-0.8253031727	 1.4783717608	-0.484289
C	-2.2978930334	-0.4524719246	 1.1595806843	-0.377829
H	 1.1530431787	 1.8100503481	 0.1683877312	 0.115451
H	-0.4663415272	 2.1294190043	-0.474839777	 0.120577
H	-0.2552130586	 1.7076059482	 1.2300168386	 0.120246
H	 0.3790123381	-0.1677063464	-1.1383913	 0.103763
H	 0.5608912749	-0.579805864	 0.5599170854	 0.108108
H	-1.7692362429	-1.163786952	-2.1322703462	 0.092844
H	-4.3338000736	-1.5742314629	-1.3419843537	 0.087896
H	-5.7245712252	-1.3612872349	 1.0214894787	 0.129031
H	-4.8282818839	-1.1267173715	 2.5303978308	 0.12555
H	-5.1016876847	 0.2486801598	 1.4498973871	 0.11904
H	-1.8053507023	-0.982906608	 1.9843490621	 0.118826
H	-2.4798724781	 0.5728782669	 1.5071204795	 0.107263
67.0317	112.4011	184.2983	197.3342	222.4384	278.3024	309.2423	378.2962	405.6156	483.476	538.5948	573.0393	666.4762	729.0731	783.6029	837.1538	853.2846	874.3241	904.982	948.3989	962.901	974.2218	1008.4222	1060.9356	1065.2362	1092.7452	1112.8895	1182.4238	1198.2055	1229.2028	1262.8288	1287.7007	1311.5762	1350.4207	1356.87	1406.8607	1409.2933	1441.114	1461.9548	1478.9885	1486.2675	1495.9421	1498.5863	1507.3376	1691.0777	3008.1823	3020.8981	3032.8442	3037.9073	3056.0185	3061.8378	3093.2346	3109.498	3109.6745	3122.0399	3153.1291	3199.3199
CCC1=CC2OC2(C)C1	CCC1=C[C@H]2O[C@@]2(C)C1	
InChI=1S/C8H12O/c1-3-6-4-7-8(2,5-6)9-7/h4,7H,3,5H2,1-2H3	InChI=1S/C8H12O/c1-3-6-4-7-8(2,5-6)9-7/h4,7H,3,5H2,1-2H3/t7-,8+/m1/s1
