20
gdb 107427	3.07522	1.3898	1.17289	3.2419	77.97	-0.2333	0.0684	0.3017	1132.6984	0.171717	-403.112179	-403.104135	-403.103191	-403.144624	31.784	
C	-0.3447853174	 1.478246696	-0.0662019971	-0.375348
C	 0.1533955037	 0.0371398062	 0.1119719561	-0.307966
C	 0.861731004	-0.5019958197	-1.107501809	 0.330735
N	 0.1031830534	-0.8808107723	-2.321450002	-0.352003
C	 0.8151917844	-1.9242184413	-1.5561334866	-0.109103
C	 2.1705044015	-2.3362890028	-2.1311852979	-0.252294
C	 3.0422105264	-1.0861770384	-2.0339158764	 0.033462
O	 2.6030621154	 0.0250533561	-2.8176443217	-0.233926
C	 2.2606574333	 0.009645971	-1.4329485867	-0.008693
H	 0.484204668	 2.1630911593	-0.2717922921	 0.125238
H	-1.0452706121	 1.5522317987	-0.9039292421	 0.125343
H	-0.8545885125	 1.8311425624	 0.835201387	 0.113899
H	 0.8312665196	-0.0139465826	 0.974539602	 0.102788
H	-0.6916286899	-0.6208552458	 0.3513460813	 0.094472
H	-0.8870428755	-0.9227413152	-2.0835850205	 0.222974
H	 0.2246256087	-2.6647035805	-1.0233929719	 0.083621
H	 2.6088303815	-3.1336131453	-1.5200226373	 0.101542
H	 2.0942988336	-2.7009738092	-3.1601492033	 0.124549
H	 4.1215882643	-1.1813185811	-1.9316899441	 0.09169
H	 2.6981798596	 0.7995352246	-0.8270232278	 0.08902
98.3717	137.6921	202.4306	263.9179	284.782	350.2244	372.4787	449.5412	535.7523	627.7126	707.7348	739.867	784.7478	806.5969	863.0033	869.5946	892.0475	914.275	952.3229	968.5003	990.202	1015.7965	1043.0614	1074.2245	1106.3941	1112.1079	1119.3825	1157.5796	1209.0646	1249.8545	1262.5654	1274.9793	1306.03	1317.0757	1365.9795	1376.558	1412.9622	1424.3232	1444.9626	1463.7195	1480.4456	1498.0479	1505.9389	3014.9571	3038.5107	3045.3832	3048.8756	3093.2811	3107.8107	3110.9906	3126.8809	3141.232	3144.2715	3469.9746
CCC12NC1CC1OC21	CC[C@]12N[C@H]1C[C@H]1O[C@@H]21	
InChI=1S/C7H11NO/c1-2-7-5(8-7)3-4-6(7)9-4/h4-6,8H,2-3H2,1H3	InChI=1S/C7H11NO/c1-2-7-5(8-7)3-4-6(7)9-4/h4-6,8H,2-3H2,1H3/t4-,5+,6-,7+/m1/s1
