19
gdb 67821	2.55679	2.24218	1.6028	1.4355	78.27	-0.2316	0.0165	0.2481	893.3989	0.162105	-385.875797	-385.869095	-385.868151	-385.906225	29.154	
O	-0.0474112734	 1.4023755909	-0.0378816486	-0.507016
C	 0.0125742726	 0.0001158832	-0.0838417488	 0.426799
C	 0.5996757042	-0.6309077381	-1.3159352535	-0.17415
C	 0.0919247506	-1.8632840571	-1.4176236033	-0.082777
C	-0.7411437038	-2.1260413476	-0.1768535654	-0.086844
C	 0.3078935097	-2.1909273856	 1.0083029686	-0.213994
C	 0.313790311	-0.6969473925	 1.3447170024	-0.102423
C	-1.1910579935	-0.4680559655	 1.6539800366	-0.246161
C	-1.3482683202	-0.7175161469	 0.139405973	-0.046616
H	 0.8228515904	 1.7326805967	 0.2064877547	 0.279509
H	 1.3194460915	-0.1490177135	-1.9662856216	 0.091808
H	 0.3388509876	-2.6148007004	-2.1579234531	 0.095494
H	-1.4344259304	-2.9652468697	-0.2254601471	 0.062844
H	-0.0476640511	-2.7860440774	 1.8553023606	 0.094791
H	 1.2679170423	-2.5933360271	 0.6779910352	 0.092556
H	 1.1072728668	-0.3126039716	 1.9877164769	 0.053944
H	-1.6732176127	-1.1537576501	 2.3559979347	 0.083037
H	-1.4173355582	 0.5669536786	 1.9095963062	 0.111214
H	-2.2265113137	-0.4190663962	-0.4350284674	 0.067984
207.4309	285.2913	326.6934	385.477	397.2568	458.5474	518.2747	602.0146	642.2895	706.8602	737.7213	770.6617	824.0679	842.8725	874.8742	901.9201	933.8877	936.1193	950.6971	969.4915	986.9166	1007.8982	1045.1299	1074.5884	1091.0417	1095.7904	1128.0169	1150.4991	1195.7606	1223.316	1228.469	1246.5593	1254.2802	1276.8023	1300.8605	1311.1435	1348.9757	1371.4562	1487.8531	1508.7246	1641.3262	3050.4337	3064.0361	3098.6544	3104.0452	3107.9905	3116.6209	3141.1993	3192.1601	3217.9911	3814.8591
OC12C=CC3CC1CC23	O[C@@]12C=C[C@H]3C[C@@H]1C[C@@H]23	
InChI=1S/C8H10O/c9-8-2-1-5-3-6(8)4-7(5)8/h1-2,5-7,9H,3-4H2	InChI=1S/C8H10O/c9-8-2-1-5-3-6(8)4-7(5)8/h1-2,5-7,9H,3-4H2/t5-,6+,7+,8-/m0/s1
