15
gdb 22652	4.5335	0.93052	0.77718	1.4871	83.01	-0.2042	-0.0811	0.1232	1361.8336	0.112369	-453.925097	-453.91685	-453.915906	-453.958156	30.241	
O	-0.0602029282	 1.3260607086	 0.0001735062	-0.390321
N	 0.0468777721	-0.0732840778	 0.004812611	-0.247573
C	-1.1131962602	-0.6208398419	 0.0134715993	 0.398486
C	-1.2752632795	-2.1397779393	 0.0181223199	-0.245732
N	-2.7143302229	-2.3098868059	-0.2140527602	-0.366052
C	-3.3272842724	-1.0835745014	-0.0811720587	 0.288974
C	-4.7924076583	-0.9946653195	-0.0246786712	 0.090154
O	-5.5096251445	-1.9709229745	 0.0042847304	-0.2759
C	-2.4452991051	-0.0504695694	 0.0070066961	-0.323839
H	 0.8625742624	 1.6006027703	-0.0149887033	 0.308639
H	-0.6788821808	-2.6239023031	-0.7604832447	 0.142499
H	-0.9744738789	-2.5618192721	 0.9864439197	 0.134805
H	-3.2021886483	-3.1157972642	 0.1464361394	 0.259169
H	-5.1960235776	 0.0366958315	 0.0155034541	 0.093366
H	-2.6805068779	 1.0007235488	 0.025545062	 0.133324
87.6238	148.1504	171.8126	243.939	246.7607	261.343	388.7753	469.4835	488.7297	530.1578	541.2434	656.0375	723.219	751.4562	795.4969	891.8233	975.1833	984.925	1002.1487	1014.5172	1070.1025	1165.7568	1192.9368	1228.7145	1293.5427	1343.0578	1396.3664	1412.7513	1476.1531	1510.3316	1622.052	1702.6415	1776.2282	2937.059	3016.1978	3080.1338	3278.6782	3626.3314	3822.4659
ON=C1CNC(C=O)=C1	ON=C1CNC(=C1)C=O	
InChI=1S/C5H6N2O2/c8-3-5-1-4(7-9)2-6-5/h1,3,6,9H,2H2	InChI=1S/C5H6N2O2/c8-3-5-1-4(7-9)2-6-5/h1,3,6,9H,2H2
