25
gdb 106276	2.6045	1.22357	0.99582	0.1295	93.95	-0.2742	0.0894	0.3635	1364.7506	0.227885	-352.32849	-352.318384	-352.31744	-352.363023	38.942	
C	 0.0325546686	 1.8380585422	 0.7774202269	-0.378863
C	-0.0138468729	 0.3162485254	 0.5979113603	-0.311435
C	 0.8202619748	-0.4371549324	 1.6056461938	 0.353134
C	 2.3650568931	-0.3560738558	 1.8153492174	-0.296945
C	 1.8661864979	-1.3934839221	 2.8661186218	 0.326252
C	 2.7000517342	-2.149699815	 3.8670778877	-0.512923
C	 0.7071701448	-0.3925014706	 3.1635988491	-0.310207
C	 0.9852654536	-1.9919775518	 1.7158121493	-0.025462
C	-0.1950714539	-2.9110845257	 1.997406245	-0.447422
H	 1.0549648544	 2.217541158	 0.6786246858	 0.117591
H	-0.5850186786	 2.3434557256	 0.0285841369	 0.109525
H	-0.3353787873	 2.1303595857	 1.7665762416	 0.117765
H	-1.0543412587	-0.0288025316	 0.6667688084	 0.09569
H	 0.3279017688	 0.053534342	-0.4124292545	 0.094165
H	 2.9915936528	-0.7413712468	 1.0038900138	 0.078976
H	 2.7590804358	 0.5844956232	 2.2121376648	 0.080872
H	 3.2115753833	-1.4649242709	 4.5526979154	 0.115995
H	 2.0814728751	-2.8240166471	 4.4701241317	 0.116111
H	 3.4642313358	-2.7550580868	 3.3664738248	 0.114894
H	 0.9994954312	 0.5464189159	 3.6440791629	 0.082441
H	-0.2028100495	-0.7869494626	 3.6204360238	 0.084222
H	 1.5853503835	-2.4133143681	 0.8979313282	 0.050566
H	-0.8459616491	-2.5539221978	 2.7995857268	 0.115138
H	-0.8132576793	-3.0282748278	 1.1000346101	 0.115248
H	 0.1560750815	-3.910470635	 2.2791754282	 0.11467
74.092	138.7094	162.361	178.6639	188.107	196.5734	255.7951	287.8914	350.1113	375.8747	461.7113	546.5965	570.4512	602.5232	641.0167	749.108	762.8294	804.0018	813.5725	934.4969	937.7673	967.0458	997.1758	999.8223	1031.3467	1032.9383	1067.5418	1098.4943	1110.9817	1129.5296	1145.344	1153.2416	1168.4515	1188.0426	1201.0908	1218.6963	1298.679	1305.5345	1333.4814	1376.0728	1404.03	1408.4028	1409.257	1424.8568	1480.9192	1487.8495	1488.7929	1491.7953	1495.5532	1498.6727	1506.7436	1510.5113	1550.8522	3006.8133	3009.8645	3022.2784	3030.1077	3032.7478	3034.0424	3040.6514	3051.7061	3083.5825	3088.6318	3089.9374	3096.2796	3102.1184	3103.4996	3105.9108	3117.8375
CCC12CC(C)(C1)C2C	CC[C@@]12C[C@@](C)(C1)[C@H]2C	
InChI=1S/C9H16/c1-4-9-5-8(3,6-9)7(9)2/h7H,4-6H2,1-3H3	InChI=1S/C9H16/c1-4-9-5-8(3,6-9)7(9)2/h7H,4-6H2,1-3H3/t7-,8-,9+/m1/s1
