18
gdb 76939	2.77794	1.19535	1.11401	1.1045	82.65	-0.2368	-0.0462	0.1907	1184.2974	0.14346	-401.889688	-401.879811	-401.878867	-401.923882	36.011	
C	-0.3554390041	 1.4216348664	-0.1189844821	-0.333008
N	-0.0069693063	 0.0089439703	 0.0212630912	-0.1158
C	 1.2983921594	-0.5036515116	-0.3931450024	-0.15308
C	 2.4255799743	 0.3321011621	-0.8823624829	 0.149311
O	 2.6293717307	 1.4992431019	-0.6285703212	-0.276921
C	 0.8629249744	-0.4526541572	 1.0869430272	 0.069994
C	 1.5253162036	 0.5007859556	 2.0686303982	-0.48315
C	 0.4771745863	-1.7195806209	 1.6702098482	 0.30736
C	 0.1845294269	-2.7679542367	 2.1804175748	-0.404363
H	 0.4723076868	 2.1218960349	 0.0184223848	 0.149091
H	-0.7641807576	 1.5644406147	-1.1236050608	 0.13072
H	-1.1491088907	 1.6414675528	 0.6010711329	 0.12991
H	 1.2506478729	-1.4773677437	-0.8764130444	 0.108991
H	 3.1154321383	-0.226936632	-1.5526705217	 0.089211
H	 1.9632588545	 1.3628536191	 1.5676139578	 0.163467
H	 0.7860849759	 0.8442640294	 2.7991995598	 0.134297
H	 2.312153686	-0.0248794251	 2.6157960904	 0.135802
H	-0.0889143511	-3.6934704202	 2.6238986503	 0.198167
116.9482	139.7762	154.8107	170.0859	181.8182	212.964	234.1579	275.4515	347.4454	365.1185	445.7595	521.0854	552.7501	626.2049	648.6214	664.4441	724.804	756.1006	866.0593	937.4021	970.4969	1030.2213	1082.7425	1095.1958	1138.1372	1151.7096	1170.6049	1252.5991	1341.5765	1383.554	1407.8104	1429.6426	1448.638	1479.2119	1493.652	1494.998	1516.5825	1788.0167	2236.3061	2886.3683	3039.4092	3051.4905	3110.6199	3114.7466	3119.7636	3131.5533	3163.0173	3501.113
CN1C(C=O)C1(C)C#C	CN1[C@@H](C=O)[C@]1(C)C#C	
InChI=1S/C7H9NO/c1-4-7(2)6(5-9)8(7)3/h1,5-6H,2-3H3	InChI=1S/C7H9NO/c1-4-7(2)6(5-9)8(7)3/h1,5-6H,2-3H3/t6-,7-,8?/m0/s1
