20
gdb 60820	3.28795	0.93915	0.91118	4.1132	77.07	-0.242	0.0294	0.2714	1373.5568	0.169205	-440.283965	-440.273975	-440.273031	-440.319628	35.265	
C	 0.094869362	 1.50304107	 0.1595869802	-0.416262
C	 0.0536560545	-0.0260824548	 0.0362988296	-0.022134
C	-1.3421518604	-0.6165513026	 0.204913223	 0.088567
C	-2.3966215114	-0.025312518	 1.0382467126	-0.187562
O	-2.4424096538	 0.0798652941	-0.3863968567	-0.227571
N	 0.6436510715	-0.497108562	-1.2164225972	-0.039665
C	 0.0639509138	-0.0868843315	-2.4895488284	-0.354373
C	 1.7507721179	-1.2959527806	-1.2122566358	 0.15251
O	 2.3201407489	-1.7258086254	-2.1930803275	-0.34546
H	 1.0928598538	 1.8685555061	-0.0940677824	 0.128427
H	-0.6349936573	 1.9725402533	-0.5034689927	 0.146623
H	-0.1272834742	 1.8141863398	 1.1836834853	 0.122848
H	 0.671156012	-0.4588279597	 0.8339374867	 0.098317
H	-1.3720924042	-1.6960501299	 0.047207315	 0.103052
H	-3.1491605702	-0.6747920173	 1.4825309027	 0.122208
H	-2.2211223379	 0.9084924522	 1.5675254008	 0.119774
H	 0.2087069523	 0.9847053329	-2.6666691183	 0.127006
H	 0.5741346194	-0.6469827934	-3.2729474019	 0.166373
H	-1.0080239266	-0.2992276969	-2.5143561092	 0.14886
H	 2.0862106499	-1.5225834165	-0.180192286	 0.068462
50.5977	72.4128	102.3319	146.2854	211.9007	231.5505	268.4997	305.1944	326.462	344.09	395.5438	447.6789	617.9069	693.8504	778.7906	848.2106	866.65	937.1855	962.4904	1026.1177	1040.2751	1057.9595	1106.0645	1109.8639	1142.6962	1161.2063	1167.1298	1176.6968	1268.4151	1290.3904	1316.5496	1347.606	1395.7582	1426.6101	1437.2747	1444.4773	1452.2118	1488.5751	1497.1342	1507.8684	1522.359	1532.7053	1795.5748	2925.9538	3031.4367	3037.8005	3054.3944	3092.9871	3101.1226	3102.1221	3124.2296	3139.5596	3161.463	3182.182
CC(C1CO1)N(C)C=O	C[C@@H]([C@H]1CO1)N(C)C=O	
InChI=1S/C6H11NO2/c1-5(6-3-9-6)7(2)4-8/h4-6H,3H2,1-2H3	InChI=1S/C6H11NO2/c1-5(6-3-9-6)7(2)4-8/h4-6H,3H2,1-2H3/t5-,6+/m0/s1
