21
gdb 75171	4.25941	0.86539	0.80251	0.9465	90.71	-0.2282	0.0321	0.2603	1499.6143	0.181615	-349.94653	-349.937104	-349.93616	-349.980965	35.635	
C	-0.120894714	 1.5226136206	 0.0598101856	-0.49368
C	-0.0172580192	 0.0316918011	-0.0063835389	 0.344919
C	-0.0768931346	-0.741435635	-1.0927008251	-0.161002
C	 0.0197981014	-2.2113965262	-0.7701809114	-0.261924
C	 0.4908053243	-2.2240467797	 0.7114764023	 0.013874
C	 2.015444057	-2.4681339291	 0.8181528655	-0.35966
C	 2.4307773209	-3.7844302251	 0.3488544813	 0.300578
C	 2.7491536445	-4.878127245	-0.0365367926	-0.446376
C	 0.1328365819	-0.8108018448	 1.2447772719	-0.321748
H	 0.7717175652	 1.9641572865	 0.521651647	 0.122467
H	-0.243278179	 1.9641502535	-0.9330360821	 0.122409
H	-0.9734503349	 1.83431541	 0.6773873902	 0.123401
H	-0.2128817447	-0.3723126802	-2.1043041332	 0.081442
H	-0.9560209167	-2.7038691954	-0.8846042405	 0.101721
H	 0.7110831547	-2.7580514726	-1.4217846573	 0.112271
H	-0.0141410971	-3.008144057	 1.2814032226	 0.078806
H	 2.5391750696	-1.690604341	 0.2455500633	 0.131777
H	 2.3272488065	-2.3432103584	 1.862948087	 0.125353
H	 3.0420897848	-5.8408641844	-0.3746538902	 0.192051
H	 0.897452779	-0.4177077384	 1.9284170297	 0.09325
H	-0.8061100797	-0.8190455693	 1.816544835	 0.100069
54.95	90.5774	141.8455	178.7843	231.2349	292.5536	343.6519	354.4727	368.3891	442.6892	503.4604	613.086	616.447	634.7101	730.0179	798.0874	838.0451	873.5268	898.2578	922.8923	947.5137	977.0426	999.5362	1034.062	1035.9982	1069.9575	1095.6897	1172.0266	1173.6874	1196.7123	1244.5813	1268.8988	1291.4832	1319.4186	1328.2299	1365.0097	1369.3167	1414.1747	1470.5896	1479.0577	1485.8245	1490.1626	1497.3762	1725.4644	2235.0892	3001.4528	3007.5201	3014.3129	3015.1694	3030.6546	3047.428	3055.9824	3058.0264	3076.8656	3108.3211	3181.8244	3507.7237
CC1=CCC(CC#C)C1	CC1=CC[C@@H](CC#C)C1	
InChI=1S/C9H12/c1-3-4-9-6-5-8(2)7-9/h1,5,9H,4,6-7H2,2H3	InChI=1S/C9H12/c1-3-4-9-6-5-8(2)7-9/h1,5,9H,4,6-7H2,2H3/t9-/m1/s1
