16
gdb 27774	1.9939	1.84344	0.96427	4.1856	76.83	-0.2187	-0.0202	0.1985	1170.3917	0.126222	-434.160842	-434.152674	-434.15173	-434.193423	31.091	
C	 0.0365247426	 1.4900246414	 0.0210590103	-0.464412
C	-0.0151040874	-0.0110450325	-0.0066416623	 0.334245
C	-1.1933235456	-0.6912958073	-0.135924515	-0.304921
C	-1.2156636039	-2.130725086	-0.1510776066	 0.417596
O	-2.1682610153	-2.8814922991	-0.2491949619	-0.395522
N	 0.0903509193	-2.6787468225	-0.0229511148	-0.394089
C	 1.2169900101	-1.927647872	 0.0950130286	 0.473975
N	 2.4043256916	-2.5949435106	 0.2649907626	-0.568555
N	 1.2099737863	-0.6219944084	 0.0996114163	-0.395045
H	 0.6728112193	 1.8578779859	-0.7908134546	 0.138847
H	-0.9565108944	 1.9329350381	-0.0752476884	 0.124577
H	 0.4912795561	 1.8311324156	 0.9571576991	 0.140271
H	-2.1425303926	-0.1802837692	-0.2247844277	 0.105175
H	 0.1217965359	-3.6885024992	 0.0211653589	 0.255885
H	 2.5004150085	-3.5064706905	-0.1548826471	 0.259763
H	 3.2100158294	-1.9961965537	 0.1627355726	 0.27221
122.3225	164.7325	184.2951	210.7046	298.7304	346.6856	360.2669	512.0476	536.2664	549.0634	557.9739	592.8638	632.7152	650.5855	737.6841	782.8374	854.475	943.1415	980.8555	1010.9628	1061.8305	1068.2248	1119.8971	1210.7554	1229.6997	1319.6869	1401.9669	1436.4872	1471.8623	1477.5657	1514.6571	1597.2603	1635.199	1660.4356	1799.4172	3040.6416	3097.7173	3136.7972	3223.8115	3581.3431	3595.4182	3695.076
CC1=CC(=O)NC(N)=N1	Cc1cc(=O)[nH]c(N)n1	
InChI=1S/C5H7N3O/c1-3-2-4(9)8-5(6)7-3/h2H,1H3,(H3,6,7,8,9)	InChI=1S/C5H7N3O/c1-3-2-4(9)8-5(6)7-3/h2H,1H3,(H3,6,7,8,9)
