15
gdb 34105	3.50193	1.57459	1.33921	3.8723	68.39	-0.2596	0.0036	0.2631	939.2317	0.114321	-416.761755	-416.755083	-416.754139	-416.792753	26.318	
N	 0.1173660709	-1.1129181273	-0.0188643196	-0.326994
C	 0.0773211262	 0.0412092178	-0.010778671	 0.224182
C	-0.0370209408	 1.4891133027	 0.0060372445	 0.266728
C	-1.0329271382	 2.1626759557	 0.9975031021	-0.202548
N	-1.5327145457	 3.084285665	-0.0767562208	-0.149317
C	-0.3358310619	 3.5887465555	-0.8178837379	-0.055343
C	 1.0370107543	 3.4901482318	-0.1724878509	-0.118032
O	 1.2434182493	 2.0907209547	 0.0795912517	-0.297398
C	-0.8328771834	 2.2354659487	-1.1035699867	-0.098608
H	-1.8494352488	 1.5051039206	 1.2997565312	 0.141251
H	-0.5846172196	 2.6371026859	 1.8751973065	 0.122635
H	-0.5628874564	 4.4205214684	-1.4740242838	 0.122305
H	 1.8231482473	 3.8413638796	-0.8482612311	 0.129836
H	 1.1041619677	 4.0590390664	 0.7634606443	 0.120226
H	-1.2906897908	 1.8459875145	-2.0031809385	 0.121075
152.5591	158.1639	265.6454	393.964	424.7827	502.2856	538.6447	558.6752	659.5337	715.6559	775.5421	794.197	856.702	928.8484	934.3609	972.149	986.2111	1018.0688	1042.0808	1062.9624	1091.0155	1109.9896	1169.6565	1192.6601	1221.085	1240.4631	1270.4088	1311.3712	1357.265	1392.4488	1490.4839	1521.1957	2369.7679	3025.3915	3062.1095	3079.6742	3132.9537	3192.3971	3209.9191
N#CC12CN3C(CO1)C23	N#C[C@@]12CN3[C@@H](CO1)[C@@H]23	
InChI=1S/C6H6N2O/c7-2-6-3-8-4(1-9-6)5(6)8/h4-5H,1,3H2	InChI=1S/C6H6N2O/c7-2-6-3-8-4(1-9-6)5(6)8/h4-5H,1,3H2/t4-,5-,6-,8?/m0/s1
