20
gdb 111470	2.2981	1.66153	1.1101	3.5506	79.45	-0.2251	0.0327	0.2578	1149.0404	0.17215	-403.186767	-403.178236	-403.177292	-403.22042	32.363	
C	-0.2194397059	 1.5431536529	-0.1409821037	-0.379218
C	 0.1033779909	 0.0509836813	-0.0163572371	-0.161046
N	 0.7253212307	-0.5121707826	-1.2007229084	-0.059818
C	 0.0421640821	-0.6771902369	-2.4513713095	-0.001418
C	 0.4461163856	 0.2387595313	-3.583356522	-0.30076
C	 1.0742537068	-1.1335746147	-3.4522784483	-0.056963
C	 2.382327533	-1.2693184473	-2.694578272	-0.355403
C	 2.0712620248	-0.7905475138	-1.2660647268	 0.391974
O	 2.8637634632	-0.658219996	-0.356624057	-0.391674
H	 0.6936487338	 2.1234681812	-0.3029615391	 0.131577
H	-0.9023980696	 1.7370709391	-0.9737875336	 0.121676
H	-0.6951403232	 1.9031623353	 0.7766549125	 0.11875
H	 0.809693046	-0.1190053179	 0.8000001444	 0.143401
H	-0.811217315	-0.5142604855	 0.2057467833	 0.101331
H	-0.9565242119	-1.0982596496	-2.3977374383	 0.098459
H	-0.2563991831	 0.3803485087	-4.3980297421	 0.116484
H	 1.0403677475	 1.112660899	-3.3351868974	 0.119688
H	 0.8163600197	-1.8814947656	-4.1914798765	 0.097886
H	 2.7290974354	-2.3068315734	-2.6521250403	 0.131403
H	 3.2034508692	-0.6725626255	-3.102377508	 0.133671
54.1197	102.2599	130.7088	219.0965	300.5905	317.548	354.8525	448.6008	503.3048	581.7718	624.3073	670.2419	741.0167	784.468	812.3167	823.0992	899.627	934.7189	962.2691	991.9737	1032.2719	1062.2335	1065.1222	1092.3619	1097.1531	1120.6281	1149.7132	1190.5278	1208.0764	1258.854	1279.8643	1296.8529	1360.77	1381.0759	1400.4096	1411.3256	1434.3448	1465.6862	1479.1826	1483.3603	1492.9111	1504.3671	1802.2537	3020.1275	3039.4205	3058.6313	3097.8286	3099.8394	3113.8017	3122.3612	3124.9556	3158.7111	3186.6679	3216.6909
CCN1C2CC2CC1=O	CCN1[C@H]2C[C@H]2CC1=O	
InChI=1S/C7H11NO/c1-2-8-6-3-5(6)4-7(8)9/h5-6H,2-4H2,1H3	InChI=1S/C7H11NO/c1-2-8-6-3-5(6)4-7(8)9/h5-6H,2-4H2,1H3/t5-,6-/m0/s1
