18
gdb 51673	3.84506	1.03587	0.96137	1.9128	73.24	-0.2525	0.024	0.2765	1247.7928	0.148579	-439.070218	-439.062078	-439.061133	-439.104539	29.874	
O	 0.0585208665	-0.1370471139	 0.7696539951	-0.319753
C	-0.0782037237	 0.9690977304	 0.2936206784	 0.151627
N	 0.9229534038	 1.7219329414	-0.2430064783	-0.281517
C	 2.2911900092	 1.2727618098	-0.3311336608	 0.032496
C	 3.0936405382	 1.7020320182	-1.6017438051	-0.274947
C	 4.1230892386	 2.408176972	-0.6980665363	 0.118394
O	 3.7631730592	 3.7862124901	-0.4484120359	-0.296179
C	 3.1748302064	 3.4477899294	 0.832020424	-0.085367
C	 3.3695427049	 1.9497710484	 0.5837504403	-0.090214
H	-1.055070267	 1.4897643977	 0.2413338665	 0.076077
H	 0.6864972216	 2.6283656688	-0.6156836221	 0.253268
H	 2.268137384	 0.1936003797	-0.180825373	 0.125157
H	 3.4847441795	 0.8538852617	-2.1696132888	 0.114011
H	 2.5793545301	 2.3816582252	-2.2863556453	 0.109481
H	 5.1901340796	 2.2809449955	-0.8943669095	 0.080908
H	 3.772047323	 3.8451212875	 1.6622675254	 0.107131
H	 2.1442773191	 3.8098094131	 0.933326183	 0.093284
H	 3.7889337472	 1.3404231551	 1.3823044622	 0.086142
33.9324	47.2687	193.3659	203.519	274.1832	374.3992	383.0486	525.024	550.431	643.7644	737.6858	773.7829	812.553	866.1944	924.9013	930.0713	980.7983	999.7001	1003.1298	1029.7636	1054.6614	1067.6959	1092.1988	1144.6353	1159.9965	1187.8243	1210.5692	1233.528	1260.8725	1277.5692	1296.5253	1323.8426	1348.7349	1375.0436	1431.0955	1462.0317	1522.0191	1531.049	1806.5269	2936.4178	3013.7261	3054.6823	3059.0881	3083.6923	3112.995	3123.6579	3131.9351	3628.7102
O=CNC1CC2OCC12	O=CN[C@H]1C[C@H]2OC[C@@H]12	
InChI=1S/C6H9NO2/c8-3-7-5-1-6-4(5)2-9-6/h3-6H,1-2H2,(H,7,8)	InChI=1S/C6H9NO2/c8-3-7-5-1-6-4(5)2-9-6/h3-6H,1-2H2,(H,7,8)/t4-,5-,6+/m0/s1
