21
gdb 123109	4.50789	0.55472	0.53812	4.9804	76.72	-0.2325	0.0204	0.2529	2090.4055	0.182608	-457.556571	-457.546179	-457.545234	-457.593651	36.212	
C	-0.0578627781	 1.4259218872	-0.1363052559	-0.311213
N	-0.1571507462	-0.0141159972	-0.3360127372	-0.280008
C	-1.3466317706	-0.597661947	 0.2638468906	-0.13644
C	-1.3621822022	-2.1113139045	 0.0632557204	-0.155264
N	-2.5435616548	-2.7124579684	 0.6902763797	-0.321922
H	-2.5489405972	-2.5067626732	 1.6826573817	 0.23445
H	-3.9733949747	-2.6602594712	-0.5978873768	 0.301732
C	-2.6783278326	-4.1503208696	 0.4618063321	-0.309181
C	-3.4905187184	-4.4361010253	-0.8130431106	 0.421949
O	-4.1990927557	-3.3764428876	-1.231795336	-0.363104
O	-3.5101530495	-5.5043217925	-1.3596150056	-0.330485
H	 0.8222643186	 1.8083733604	-0.6608347777	 0.122153
H	-0.9399729988	 1.9939008766	-0.4823869546	 0.09685
H	 0.0727552215	 1.6380297475	 0.9310104024	 0.123137
H	-0.1518440406	-0.2145947594	-1.3313815081	 0.21999
H	-1.3218766647	-0.375821825	 1.3407525202	 0.099485
H	-2.2935353466	-0.1706876637	-0.1174471755	 0.086017
H	-1.4049584951	-2.3384652959	-1.0101105858	 0.118009
H	-0.4207778626	-2.5384056171	 0.4421758939	 0.112254
H	-1.7227328935	-4.6851564637	 0.3845308198	 0.131861
H	-3.2325318781	-4.5988204702	 1.293142193	 0.13973
45.3791	59.9457	79.9827	116.733	139.5353	157.5967	255.7919	299.3331	320.8079	362.0402	460.1899	546.4679	563.9882	662.222	767.0904	783.2525	825.6448	861.2416	886.0003	948.4948	991.3005	1040.9686	1079.1068	1092.6505	1139.5678	1149.4468	1174.9167	1192.8891	1215.2218	1264.6979	1272.0995	1312.7362	1339.3113	1357.7219	1411.6156	1427.6182	1462.0589	1468.8056	1481.3847	1489.9311	1498.1138	1510.2575	1519.1088	1523.7379	1880.4245	2924.2985	2947.2602	2988.6313	3011.7282	3025.4301	3047.3596	3056.7284	3083.781	3106.9251	3476.785	3510.5321	3538.5589
CNCC[NH2+]CC([O-])=O	CNCCNCC(=O)O	
InChI=1S/C5H12N2O2/c1-6-2-3-7-4-5(8)9/h6-7H,2-4H2,1H3,(H,8,9)	InChI=1S/C5H12N2O2/c1-6-2-3-7-4-5(8)9/h6-7H,2-4H2,1H3,(H,8,9)
