23
gdb 57202	2.21098	1.27311	1.12161	2.4465	85.55	-0.2353	-0.0094	0.2258	1273.6846	0.202771	-388.308524	-388.297835	-388.296891	-388.344465	39.451	
C	 0.3071238381	 1.2792449467	-0.5315162091	-0.403306
C	 0.5019462534	-0.2232554587	-0.2896698867	-0.149294
C	 1.6499576145	-0.768847153	-1.153435485	 0.392947
C	 1.4949861296	-2.1753054085	-1.700837265	-0.484401
O	 2.6421434632	-0.1098955553	-1.3721610896	-0.312003
C	 0.7696642537	-0.5511441786	 1.19052155	 0.388724
C	 2.0211824038	 0.0564954162	 1.8019224106	-0.464748
C	-0.4433811698	-0.6677257524	 2.0847550138	-0.315742
C	 0.3310853516	-1.9060712895	 1.7018055408	-0.313044
H	 1.2474932671	 1.8165127521	-0.3946427491	 0.143305
H	-0.0320534849	 1.4679205683	-1.5547422531	 0.112404
H	-0.4395637942	 1.6850984051	 0.1571072828	 0.111996
H	-0.4147526898	-0.7562926134	-0.5717141885	 0.067546
H	 0.6360541879	-2.2182161092	-2.3811294471	 0.13729
H	 2.3991527925	-2.4703866925	-2.23488124	 0.13867
H	 1.2922567947	-2.8821532669	-0.8895394295	 0.144597
H	 1.9765086957	 1.1504098908	 1.7992987275	 0.121475
H	 2.131747646	-0.2661621551	 2.8416692356	 0.10808
H	 2.9228437074	-0.2361806315	 1.2564124367	 0.13469
H	-0.3595581427	-0.3041381936	 3.1034587281	 0.112125
H	-1.4252070919	-0.5280331733	 1.6442802251	 0.109835
H	-0.1422555848	-2.5969644533	 1.0118566484	 0.106387
H	 0.9402898986	-2.3885214145	 2.4588127533	 0.112465
32.3216	88.5449	151.6108	159.696	201.9644	218.9341	244.0226	254.6094	321.8428	326.1875	359.8392	397.8555	492.0972	574.8425	605.9987	712.9689	774.7598	799.3898	870.3207	896.0289	932.5522	951.3925	954.4004	991.4631	1024.7663	1051.5021	1073.589	1082.2119	1100.2686	1117.3229	1134.9318	1184.0624	1189.7219	1265.5785	1302.3393	1355.2715	1374.3444	1378.9526	1401.7082	1424.3612	1462.5974	1468.9124	1476.4806	1487.6754	1491.3466	1498.3388	1505.7856	1510.777	1802.1251	3022.5455	3036.3573	3038.2545	3045.1976	3099.3726	3101.2421	3109.3263	3113.3885	3125.0402	3129.8285	3136.9369	3150.2927	3202.658	3217.2136
CC(C(C)=O)C1(C)CC1	C[C@@H](C(=O)C)C1(C)CC1	
InChI=1S/C8H14O/c1-6(7(2)9)8(3)4-5-8/h6H,4-5H2,1-3H3	InChI=1S/C8H14O/c1-6(7(2)9)8(3)4-5-8/h6H,4-5H2,1-3H3/t6-/m0/s1
