15
gdb 27367	2.03842	1.9106	0.99233	6.2623	72.56	-0.2247	-0.0195	0.2052	1128.6352	0.114263	-450.187399	-450.179353	-450.178409	-450.220368	29.793	
C	-0.0197762895	 1.4759438295	 0.0513019076	-0.489514
C	-0.0003067442	-0.0196301686	-0.0481327412	 0.378037
N	-0.020782519	-0.6248915002	-1.1717157557	-0.27918
C	-0.0007062926	-2.0392160532	-1.1939547489	 0.349965
N	-0.0223597447	-2.6219508109	-2.327115563	-0.510169
N	 0.0406664633	-2.7521538377	 0.0314019029	-0.405046
C	 0.0590038806	-2.0724917272	 1.1106933379	 0.488656
O	 0.0984057396	-2.6407869873	 2.3237641764	-0.408845
N	 0.0412160129	-0.7056670194	 1.1640830794	-0.385438
H	 0.8709681601	 1.8435656387	 0.5735815185	 0.142156
H	-0.0478944083	 1.8959373962	-0.9527659045	 0.171844
H	-0.8975003412	 1.8176099799	 0.6118882902	 0.142457
H	-0.0041369032	-3.6302737112	-2.167470375	 0.213476
H	 0.1079109126	-3.5965887759	 2.1689333465	 0.316506
H	 0.0574943934	-0.2333050426	 2.0534388887	 0.275096
72.2041	123.9067	174.7194	234.0307	296.1033	368.0173	430.2593	528.8364	548.0982	548.4266	576.3316	595.3252	647.4982	729.1945	794.5341	905.9018	914.5778	969.4215	987.1806	1061.2003	1097.0998	1116.1238	1201.7592	1262.6393	1340.7232	1391.5548	1414.6661	1473.4896	1481.6495	1527.8644	1675.1927	1705.6847	1768.0877	3036.1056	3091.5383	3172.2515	3478.3605	3648.6211	3766.4393
CC1=NC(=N)N=C(O)N1	C[C@@H]1N=C([NH])N=C(O)N1	
InChI=1S/C4H6N4O/c1-2-6-3(5)8-4(9)7-2/h1H3,(H3,5,6,7,8,9)	InChI=1S/C4H7N4O/c1-2-6-3(5)8-4(9)7-2/h2,5H,1H3,(H2,6,7,8,9)/t2-/m1/s1
