20
gdb 6031	3.0346	1.49287	1.29966	1.3187	70.85	-0.2387	-0.0093	0.2294	1049.0178	0.173218	-386.1625	-386.15226	-386.151316	-386.197251	36.663	
C	-0.0006564077	 1.4904303077	-0.1045513585	-0.483003
C	 0.0252744261	-0.0202102576	 0.0694452626	 0.372943
O	 1.0764394568	-0.6027611302	 0.2255802795	-0.315373
C	-1.3115272552	-0.7799215462	 0.0396447066	 0.146826
C	-2.0796138923	-0.4801990624	 1.3484740712	-0.42427
C	-2.158823505	-0.355239202	-1.1770573938	-0.430176
C	-1.0027244155	-2.2849875756	-0.0364613419	-0.0866
O	-2.2379078586	-2.9915373159	-0.0572594879	-0.433208
H	 0.9658023449	 1.8986904862	 0.1936419875	 0.141469
H	-0.1743270648	 1.7344972514	-1.1586977857	 0.147094
H	-0.8024420306	 1.9622219151	 0.4696847632	 0.135082
H	-2.3937080851	 0.565754127	 1.4060247458	 0.111247
H	-2.9709730746	-1.1101408513	 1.3910816911	 0.14401
H	-1.4645084941	-0.7024143335	 2.226806275	 0.120759
H	-1.6077097891	-0.4938624676	-2.1138748493	 0.114199
H	-3.0580045063	-0.9732909945	-1.2240000321	 0.144009
H	-2.464527929	 0.6925936108	-1.1129211706	 0.111303
H	-0.4115838001	-2.4906531944	-0.9404683155	 0.091995
H	-0.3890493998	-2.5746958434	 0.8254827642	 0.102097
H	-2.0415906601	-3.9321145438	-0.0577827713	 0.289596
50.7339	123.4116	130.9931	195.5365	203.7586	235.7202	249.7423	265.006	309.0079	343.2359	365.2999	371.9492	489.4833	576.795	611.5362	703.2865	833.5154	934.8002	947.3552	965.6362	983.1062	998.777	1067.3242	1075.8605	1141.2843	1184.0315	1205.3175	1274.4841	1289.3905	1291.8632	1381.1949	1389.7902	1409.8729	1453.6847	1461.9064	1474.4697	1485.4151	1495.365	1498.3795	1514.5015	1518.9833	1792.7584	2997.2555	3035.9611	3039.4388	3044.2596	3045.0268	3103.8275	3106.9236	3111.1034	3128.9174	3131.7976	3152.3889	3842.2994
CC(=O)C(C)(C)CO	CC(=O)C(C)(C)CO	
InChI=1S/C6H12O2/c1-5(8)6(2,3)4-7/h7H,4H2,1-3H3	InChI=1S/C6H12O2/c1-5(8)6(2,3)4-7/h7H,4H2,1-3H3
