20
gdb 89909	4.67248	0.84846	0.82017	2.971	80.47	-0.2287	-0.0243	0.2045	1460.9968	0.16951	-403.116546	-403.107342	-403.106398	-403.151427	33.807	
C	-0.13418325	 1.5810725588	 0.1482800584	-0.404866
C	-0.0092620571	 0.0671043072	 0.0598544925	 0.042874
C	 0.9938370129	-0.5507718189	-0.9865612445	-0.297095
C	 1.7063452666	-1.269208609	 0.1724053399	 0.345675
C	 2.3792680988	-2.614397806	 0.1477635637	-0.413812
C	 3.7524084553	-2.5547669949	-0.4992665376	 0.172109
O	 4.7591798544	-2.9829235966	 0.0016027297	-0.237186
N	 2.1828528675	-0.1826022172	 1.0678339267	-0.364608
C	 0.7784454487	-0.6588331686	 1.1633820249	-0.130871
H	 0.84578216	 2.0339187206	 0.3199893342	 0.13938
H	-0.5493591798	 1.9953037358	-0.776855925	 0.111091
H	-0.7964540082	 1.8746275148	 0.9704593855	 0.110136
H	-0.9939205427	-0.3952413282	-0.0607337532	 0.074083
H	 0.5042048696	-1.2320370022	-1.6868994969	 0.099419
H	 1.6118505471	 0.1619090031	-1.5386303997	 0.106816
H	 2.4939144249	-3.0259624233	 1.1560256214	 0.119529
H	 1.7667107269	-3.3161715512	-0.4373863856	 0.124938
H	 3.7698339245	-2.0703757778	-1.5021957787	 0.082701
H	 2.698226501	-0.6224546087	 1.8310633686	 0.229723
H	 0.4003275996	-1.0581925076	 2.0979690257	 0.089965
43.5835	67.322	114.462	191.4269	227.672	259.691	316.6508	375.8324	425.7471	469.3854	567.9785	653.2043	680.3013	796.4869	806.561	859.7462	895.3575	914.5653	926.8721	976.9672	1012.1151	1028.2923	1057.2436	1083.8642	1107.7473	1119.96	1139.7124	1187.4521	1194.5137	1233.7152	1259.624	1278.0654	1315.6767	1338.5295	1379.0155	1400.8266	1425.0821	1432.0946	1450.7761	1479.7099	1491.0413	1504.09	1836.106	2874.6636	3007.2747	3031.3636	3053.8293	3061.2885	3083.199	3092.1261	3116.2121	3122.8394	3175.226	3463.0858
CC1CC2(CC=O)NC12	C[C@H]1C[C@@]2(CC=O)N[C@@H]12	
InChI=1S/C7H11NO/c1-5-4-7(2-3-9)6(5)8-7/h3,5-6,8H,2,4H2,1H3	InChI=1S/C7H11NO/c1-5-4-7(2-3-9)6(5)8-7/h3,5-6,8H,2,4H2,1H3/t5-,6-,7+/m0/s1
