14
gdb 129280	3.38544	1.69041	1.14674	4.7739	64.37	-0.2244	0.0279	0.2523	982.1554	0.103487	-469.988615	-469.981707	-469.980762	-470.020367	25.566	
N	-0.1609349451	 1.3058500899	-0.1501551991	-0.602904
C	-0.0523324481	 0.0492046621	-0.09682709	 0.482254
O	 1.0863109471	-0.7237910967	-0.111907523	-0.261732
N	 0.7652335065	-2.1376016482	 0.0563545454	-0.282184
C	-0.518453563	-2.1002667724	 0.1159297349	 0.546323
O	-1.4180609462	-3.0591330123	 0.3333804804	-0.263474
C	-2.7306389803	-2.4338195551	 0.2132501505	-0.10679
C	-2.4945695511	-0.8969518016	 0.2879173706	-0.198149
N	-1.0836415011	-0.8700798489	-0.0213870825	-0.146619
H	 0.7529527195	 1.7492544284	-0.200262087	 0.237134
H	-3.1560990609	-2.7300848154	-0.7493786852	 0.146178
H	-3.3524910062	-2.8170894351	 1.022143155	 0.149332
H	-3.0895845156	-0.3516269485	-0.4473300752	 0.154382
H	-2.6965471455	-0.4850088361	 1.2827446151	 0.146248
115.6204	131.723	167.0427	296.7588	345.8683	578.0674	630.5888	668.0189	674.3028	728.8481	759.9396	765.2737	789.6666	871.8546	887.179	948.9731	1003.758	1030.3593	1134.2845	1147.2219	1207.8291	1219.6188	1247.7325	1305.8335	1374.3214	1396.0861	1495.7619	1523.9338	1540.7387	1730.0473	1792.3223	3047.9903	3072.4953	3111.9126	3144.8887	3538.8495
N=C1ON=C2OCCN12	[NH][C@@H]1ON=C2OCCN12	
InChI=1S/C4H5N3O2/c5-3-7-1-2-8-4(7)6-9-3/h5H,1-2H2	InChI=1S/C4H6N3O2/c5-3-7-1-2-8-4(7)6-9-3/h3,5H,1-2H2/t3-/m0/s1
