14
gdb 26917	3.08583	1.4535	0.98809	3.0876	72.25	-0.1884	-0.0386	0.1499	1100.9612	0.10032	-473.852313	-473.844227	-473.843283	-473.884761	30.416	
O	 0.0709452281	 1.3323184438	-0.0012270188	-0.426247
C	-0.0233405903	-0.012936626	-0.0050863091	 0.352765
C	-1.2092645362	-0.6595440182	-0.0011897879	 0.155652
O	-2.4254267609	-0.026426417	 0.0061634504	-0.450975
C	-1.167356555	-2.086190499	-0.0052027589	-0.105829
C	 0.0102315956	-2.7547366849	-0.0128856888	-0.178226
C	 1.2726368961	-2.0553606443	-0.0173034347	 0.379351
N	 2.4196288235	-2.6001648788	-0.0248088262	-0.539459
O	 1.1662118788	-0.6434322596	-0.0125090422	-0.278346
H	 1.005595616	 1.5720999859	-0.0080962253	 0.314665
H	-2.2733983887	 0.9251740953	 0.0099243433	 0.30605
H	-2.1141982161	-2.6155777101	-0.0019434509	 0.127751
H	 0.0658710297	-3.8343851988	-0.0160917843	 0.125531
H	 3.1625675093	-1.9027359381	-0.0264970565	 0.217318
103.9235	177.0639	212.7109	275.7992	279.8624	328.001	344.5164	431.1352	470.8444	505.9934	594.3912	625.0191	706.5858	734.311	790.7625	798.4462	835.1137	890.7346	985.006	1024.8502	1124.2825	1151.8806	1194.5503	1249.7553	1298.5911	1359.4676	1394.8241	1492.0792	1607.8481	1704.6518	1774.8844	3196.6568	3237.3988	3504.1346	3811.1432	3818.2797
OC1=C(O)C=CC(=N)O1	OC1=C(O)CC=C([NH])O1	
InChI=1S/C5H5NO3/c6-4-2-1-3(7)5(8)9-4/h1-2,6-8H	InChI=1S/C5H6NO3/c6-4-2-1-3(7)5(8)9-4/h2,6-8H,1H2
