18
gdb 120370	3.20372	0.97925	0.79379	4.8714	75.1	-0.2348	-0.0081	0.2267	1410.9806	0.148636	-435.282394	-435.273389	-435.272445	-435.316907	32.542	
O	 0.1240713484	 1.4213304484	-0.1430198196	-0.420247
C	 0.0696098918	 0.005465404	-0.052997651	-0.068644
C	-1.366261504	-0.5218140903	-0.0351581842	-0.194672
C	-1.4325431294	-2.0522371982	 0.0323452156	-0.061314
N	-0.9185270575	-2.5781872096	 1.3142576123	-0.248755
C	-1.8577257272	-3.2862370245	 1.8051865014	 0.060472
N	-3.0180067973	-3.3702087721	 1.045775433	-0.346608
C	-2.8595130144	-2.5921331224	-0.1027837943	 0.380365
N	-3.6618321811	-2.3491264123	-1.0554341828	-0.543799
H	-0.2292918516	 1.7799445197	 0.6770813	 0.279807
H	 0.5894053632	-0.3670128468	-0.9432091209	 0.108783
H	 0.6157078953	-0.3682569557	 0.8240130331	 0.111458
H	-1.9006082911	-0.1066576834	 0.8299226318	 0.086625
H	-1.8976462349	-0.1928751389	-0.9335544438	 0.134046
H	-0.8205683074	-2.4678840513	-0.7794550264	 0.120374
H	-1.8009468543	-3.8137999888	 2.7523795666	 0.135904
H	-3.8615803518	-3.8499797051	 1.3113837595	 0.258337
H	-4.5621981767	-2.8149177825	-0.9332383502	 0.207868
70.0307	90.1127	108.4398	142.1753	262.7507	292.0535	296.2455	362.7429	414.2919	488.7507	609.6372	649.2255	687.8545	781.5354	851.3866	868.3512	892.6673	929.4431	944.4712	1034.0112	1074.6734	1076.6837	1081.3539	1094.1678	1109.5044	1169.4652	1243.6406	1280.2966	1293.0975	1318.1679	1346.8342	1353.5317	1398.8686	1413.1681	1422.5029	1481.8686	1514.9292	1683.0497	1762.4857	3013.2141	3016.632	3028.9115	3065.5333	3097.7825	3189.3122	3458.7091	3660.8587	3818.0391
OCCC1N=CNC1=N	OCC[C@H]1N=CN[C]1[NH]	
InChI=1S/C5H9N3O/c6-5-4(1-2-9)7-3-8-5/h3-4,9H,1-2H2,(H2,6,7,8)	InChI=1S/C5H9N3O/c6-5-4(1-2-9)7-3-8-5/h3-4,9H,1-2H2,(H2,6,7,8)/t4-/m1/s1
