18
gdb 97250	2.34652	1.55176	1.02365	1.9991	71.	-0.2589	0.0163	0.2752	1170.0638	0.14786	-476.222624	-476.213797	-476.212853	-476.256808	31.823	
C	-0.2524531421	 1.3487951261	-0.777926832	-0.335703
N	-0.333900926	-0.0922905351	-0.6138683785	-0.337853
C	-1.1439279371	-0.6061654142	 0.2060116936	 0.412527
O	-1.989448441	 0.09092384	 1.0060730269	-0.248268
C	-3.0008699877	-0.7134886578	 1.6354987945	 0.006074
O	-3.5852977997	-1.5884580971	 0.7382811786	-0.234365
C	-2.6774623231	-2.5808984596	 0.2435336855	-0.089801
C	-1.2040790167	-2.1172254984	 0.3382068056	 0.002195
O	-0.4187314844	-2.7427804661	-0.632681558	-0.441001
H	 0.6521490429	 1.7236395739	-0.2843534516	 0.131522
H	-0.1569979463	 1.580093968	-1.8431074485	 0.128805
H	-1.1157967248	 1.8847362653	-0.3692113042	 0.127782
H	-2.5535265611	-1.2321589566	 2.4981354077	 0.105177
H	-3.7659636787	-0.0135828126	 1.9732054951	 0.136856
H	-2.8224666112	-3.523003818	 0.7869283438	 0.110297
H	-2.9187908285	-2.7399446756	-0.8099264646	 0.135291
H	-0.8227051042	-2.3660901201	 1.3436195266	 0.098899
H	 0.0250872598	-2.0067686122	-1.0931845805	 0.291565
69.7808	88.1858	99.5066	205.4389	222.4505	316.4237	336.5354	415.0455	462.513	490.9975	511.2418	585.6703	654.127	749.9362	778.3423	966.2192	983.3582	1012.7436	1062.6114	1100.3741	1113.0609	1130.9452	1137.3493	1179.6829	1194.3594	1232.9973	1261.1772	1292.3257	1306.3387	1362.6183	1399.0776	1435.9236	1444.9886	1471.652	1492.6631	1498.8226	1512.8231	1528.3733	1788.1344	2948.4708	2981.532	3022.2166	3027.5656	3082.3456	3101.3223	3110.2717	3129.4196	3605.0305
CN=C1OCOCC1O	CN=C1OCOC[C@H]1O	
InChI=1S/C5H9NO3/c1-6-5-4(7)2-8-3-9-5/h4,7H,2-3H2,1H3	InChI=1S/C5H9NO3/c1-6-5-4(7)2-8-3-9-5/h4,7H,2-3H2,1H3/t4-/m1/s1
