19
gdb 89289	2.1555	1.80261	1.17796	2.1492	75.73	-0.2435	-0.0274	0.2161	1099.7616	0.156899	-423.025654	-423.016875	-423.015931	-423.058965	33.413	
C	-0.5783278103	 1.3078749997	 0.0727043522	-0.408872
C	 0.1447827846	-0.0222622959	 0.0369373205	 0.140763
O	 1.3267042528	-0.0215824375	-0.8048247141	-0.345661
C	 2.142919146	-0.6225617599	 0.2309098917	 0.45016
C	 2.826574536	-1.8881105151	-0.2131833517	-0.477089
C	 2.9435763334	 0.4685390859	 0.9944875408	-0.40073
C	 1.7512055152	 0.5965433257	 1.9637312426	 0.423284
O	 1.5409552705	 1.2673609109	 2.9324808043	-0.305362
C	 0.9618154499	-0.5159493658	 1.2598518745	-0.292369
H	 0.0700099644	 2.1106958313	 0.4334236809	 0.131829
H	-0.9254939891	 1.5687428979	-0.9319502404	 0.129688
H	-1.4509509137	 1.2471543829	 0.731427354	 0.126558
H	-0.5415787368	-0.811497907	-0.3002522822	 0.085006
H	 3.536330327	-1.6695105679	-1.0185757891	 0.134522
H	 3.3791955134	-2.3469390565	 0.612826067	 0.119941
H	 2.0987970159	-2.611419097	-0.5921977026	 0.127284
H	 3.8352685509	 0.0924323309	 1.5092845336	 0.129355
H	 3.2073625127	 1.3579720449	 0.4174445328	 0.135877
H	 0.5484205371	-1.3200283574	 1.8681565353	 0.095816
72.3593	124.1831	210.0424	219.2206	232.1549	292.6581	364.6019	386.1272	424.902	452.7044	565.6722	600.7163	618.6226	707.6431	816.1479	869.5671	877.6193	917.6139	935.0792	955.6836	1003.2394	1049.1295	1081.021	1097.4283	1120.3899	1150.0607	1168.2181	1200.6714	1212.1997	1223.6337	1316.1789	1323.401	1388.1219	1412.8274	1413.8061	1418.281	1480.46	1482.0189	1490.7641	1493.8361	1886.4097	2999.2863	3034.7591	3040.33	3049.0305	3103.7131	3111.0038	3113.87	3118.4047	3121.1489	3123.6164
CC1OC2(C)CC(=O)C12	C[C@H]1O[C@@]2(C)CC(=O)[C@@H]12	
InChI=1S/C7H10O2/c1-4-6-5(8)3-7(6,2)9-4/h4,6H,3H2,1-2H3	InChI=1S/C7H10O2/c1-4-6-5(8)3-7(6,2)9-4/h4,6H,3H2,1-2H3/t4-,6-,7+/m1/s1
