20
gdb 116812	4.35301	0.56255	0.52348	2.3737	86.7	-0.2477	0.0235	0.2712	2117.1414	0.16778	-403.109536	-403.098944	-403.098	-403.146741	37.151	
C	-0.9358594311	 1.3552197993	-0.4515643236	-0.396272
C	-0.4641223069	 0.1533112918	 0.3735787547	-0.110306
N	-0.9078136477	-1.17783735	-0.0050582864	-0.225092
C	-1.6579846019	-1.3484909311	-0.9961922377	 0.118368
O	-2.0275185336	-2.6023130639	-1.3570853195	-0.196022
C	-3.0052988358	-2.7114504129	-2.3814873469	-0.090293
C	-4.4214464586	-2.785568939	-1.7823004523	-0.345636
C	-5.4352194848	-2.9558778682	-2.8134335642	 0.287964
C	-6.2385570726	-3.0943986709	-3.696455356	-0.439227
H	-0.5137781986	 2.2739290015	-0.0333266839	 0.11682
H	-0.6114109888	 1.2872081886	-1.4955356347	 0.119582
H	-2.0264848939	 1.4570956547	-0.4395647007	 0.117755
H	 0.6338017586	 0.1314363577	 0.3836593894	 0.11445
H	-0.7553712273	 0.2988898845	 1.4223509347	 0.11354
H	-2.0594337642	-0.5677775429	-1.6559643767	 0.077287
H	-2.9343968151	-1.8713151739	-3.0838189075	 0.11752
H	-2.7814587904	-3.6298969954	-2.929059961	 0.133406
H	-4.454222423	-3.6159727193	-1.0675475614	 0.149612
H	-4.6164911488	-1.8716301012	-1.2071981386	 0.136035
H	-6.9626899756	-3.2188352492	-4.4630718378	 0.200511
38.4667	52.4847	64.9318	152.6721	171.4238	182.4527	235.5961	320.1039	342.5119	364.3602	373.312	455.4616	531.2066	609.5226	629.9171	654.8079	779.0595	780.0119	894.5999	971.4072	982.4724	1031.0797	1039.0896	1065.7279	1095.3943	1105.123	1147.6395	1197.7609	1270.1188	1303.5474	1314.6903	1330.9055	1378.3737	1394.0101	1405.3025	1425.8848	1474.5091	1484.2035	1495.5216	1507.2182	1507.5437	1780.5849	2240.9691	3014.5503	3023.0351	3029.01	3032.9055	3035.5546	3036.2893	3068.5535	3099.305	3107.6087	3111.2994	3506.6894
CCN=COCCC#C	CCN=COCCC#C	
InChI=1S/C7H11NO/c1-3-5-6-9-7-8-4-2/h1,7H,4-6H2,2H3	InChI=1S/C7H11NO/c1-3-5-6-9-7-8-4-2/h1,7H,4-6H2,2H3
