18
gdb 99590	2.26529	1.20209	0.82639	4.8805	73.75	-0.2647	-0.0422	0.2225	1370.1077	0.14371	-439.091295	-439.080758	-439.079814	-439.12801	35.521	
C	 0.1279165432	 1.3899619716	 0.1617243355	-0.254647
O	-0.1500355059	 0.0235259299	-0.1037899607	-0.234706
C	 0.5977205532	-0.5263835802	-1.1580434409	-0.021725
C	 2.0401589083	-0.5897141482	-0.8177142987	 0.269332
N	 3.1633285098	-0.6272811088	-0.548753439	-0.315873
C	 0.0397527317	-1.9302515968	-1.4651958785	-0.083943
C	-1.4490572689	-1.8508079358	-1.852765428	-0.421185
C	 0.800149413	-2.5829331773	-2.6104546335	 0.162257
O	 1.0697789366	-3.7524065596	-2.6599516463	-0.238585
H	 1.1680529247	 1.5358531904	 0.4802356745	 0.140972
H	-0.0659524919	 2.0147750036	-0.7221658123	 0.116499
H	-0.5412931219	 1.69152846	 0.969028093	 0.144125
H	 0.509780784	 0.1028239381	-2.0616197161	 0.113422
H	 0.1608559069	-2.5600034101	-0.5796183874	 0.127344
H	-2.0143747478	-1.3541945376	-1.0628993803	 0.15187
H	-1.5867910923	-1.2858650649	-2.7821203614	 0.121598
H	-1.8496631333	-2.8561735034	-2.0023843457	 0.142448
H	 1.0508600908	-1.8976116011	-3.4550374642	 0.080798
49.4122	50.936	101.4385	129.426	179.6142	184.5038	216.0964	262.2364	292.5252	340.1771	368.0642	391.077	495.3998	597.4804	622.1746	879.7951	893.2121	936.3017	982.1973	993.9078	1100.8568	1124.0055	1150.8185	1157.3992	1184.2788	1216.735	1268.682	1305.1861	1359.029	1368.4271	1397.5807	1430.7986	1479.9175	1488.9104	1493.4185	1501.4841	1507.7273	1842.0725	2352.2709	2847.8614	2952.4949	2996.6135	3039.3446	3060.8612	3086.7751	3116.2171	3138.0308	3147.7981
COC(C#N)C(C)C=O	CO[C@@H](C#N)[C@@H](C)C=O	
InChI=1S/C6H9NO2/c1-5(4-8)6(3-7)9-2/h4-6H,1-2H3	InChI=1S/C6H9NO2/c1-5(4-8)6(3-7)9-2/h4-6H,1-2H3/t5-,6-/m0/s1
