17
gdb 49180	3.86015	1.24885	1.03549	2.9755	77.49	-0.2215	-0.0605	0.161	1138.3161	0.138323	-418.021857	-418.01433	-418.013386	-418.053968	28.927	
O	-0.7950652992	 1.152952566	-0.2256809908	-0.280441
C	 0.3145177954	 0.8942828083	 0.1797139544	 0.130861
C	 1.4950373776	 1.7706708703	-0.0686400736	 0.259029
N	 2.6117638554	 1.4116419144	 0.4581513947	-0.28664
C	 3.7381963474	 2.2453264587	 0.1923523249	 0.010146
C	 4.1933927984	 2.4502956588	-1.2475819653	-0.292776
C	 3.5627669952	 3.5862537559	-0.4935661321	-0.03903
C	 2.1432002252	 4.0207315383	-0.8048545885	-0.185836
N	 1.2587737421	 2.8618687209	-0.857665423	-0.348197
H	 0.5543164867	-0.0080437437	 0.7724179413	 0.108312
H	 4.5236312488	 2.1481521466	 0.9339648434	 0.096184
H	 5.2605961691	 2.4803870305	-1.4365922948	 0.119591
H	 3.6088825994	 1.9620749219	-2.0198967823	 0.132048
H	 4.2109931729	 4.3955513462	-0.1722383804	 0.093689
H	 1.8165847101	 4.7282567208	-0.0269671611	 0.111579
H	 2.0899445161	 4.54817588	-1.7653093859	 0.114495
H	 0.2787199193	 3.0170688061	-1.052504581	 0.256986
103.2961	143.3341	217.1545	235.7306	324.0593	393.3033	479.8039	561.8052	611.4342	615.5103	671.3067	761.8269	781.287	822.2323	839.6755	944.1851	949.8114	1003.7656	1026.5533	1045.505	1056.4914	1095.1292	1128.4317	1150.4105	1194.5266	1220.5048	1266.7135	1276.7489	1338.39	1372.272	1379.9971	1407.8322	1482.3267	1514.9013	1547.8304	1697.2916	1797.5505	2973.8313	2979.9224	3033.1241	3136.8329	3154.6782	3165.8854	3226.7626	3586.8753
O=CC1=NC2CC2CN1	O=CC1=N[C@H]2C[C@H]2CN1	
InChI=1S/C6H8N2O/c9-3-6-7-2-4-1-5(4)8-6/h3-5H,1-2H2,(H,7,8)	InChI=1S/C6H8N2O/c9-3-6-7-2-4-1-5(4)8-6/h3-5H,1-2H2,(H,7,8)/t4-,5-/m0/s1
