19
gdb 31806	4.57789	0.9776	0.87172	2.0698	85.76	-0.2394	-0.0327	0.2067	1396.4755	0.160005	-382.143492	-382.134459	-382.133515	-382.179172	32.156	
C	 0.0342679839	 1.5700046263	 0.0456364863	-0.368017
C	 0.0008855419	 0.0327207685	-0.0173524108	-0.298882
C	-1.3998439818	-0.5234353088	 0.0012382162	 0.236791
C	-2.0635077217	-0.8612053268	 1.1783848723	-0.057936
N	-3.3138807619	-1.3241084221	 1.2130719004	-0.280347
C	-3.9358017466	-1.4617511003	 0.0360363554	 0.352912
C	-5.3473394796	-1.9794539557	 0.0456875888	-0.460079
N	-3.3971602965	-1.1819008983	-1.1598032942	-0.282897
C	-2.1489774383	-0.721964605	-1.1597602445	-0.05602
H	 1.0646863196	 1.9379098259	 0.0293181581	 0.118575
H	-0.4973696635	 2.0092593634	-0.8043819044	 0.124336
H	-0.4434602474	 1.9353921747	 0.960133971	 0.124534
H	 0.5134196317	-0.3039630955	-0.9260221667	 0.110509
H	 0.5652815318	-0.3773683558	 0.8280893548	 0.110317
H	-1.5615695856	-0.7594149621	 2.1405332538	 0.106701
H	-6.0111436279	-1.2822894158	-0.4747028292	 0.13857
H	-5.4051554942	-2.932344111	-0.490749036	 0.139268
H	-5.6925045263	-2.1208370036	 1.0700078375	 0.135051
H	-1.7148104474	-0.5037333883	-2.1356275087	 0.106615
24.5219	38.5312	92.868	205.2911	209.4897	302.548	393.1469	395.2254	416.7127	489.9461	566.6386	663.549	735.171	784.5658	786.8692	856.0546	959.1147	973.204	1002.2077	1004.6593	1060.7726	1069.2032	1078.0941	1085.8342	1237.1687	1250.1056	1284.9085	1298.8141	1312.8977	1354.3642	1405.2918	1409.7012	1423.7286	1470.3969	1479.4892	1483.7968	1488.8148	1496.577	1507.3034	1587.6182	1634.3364	3031.2377	3036.179	3046.3752	3066.7299	3103.1487	3110.3632	3110.7293	3125.8207	3129.2535	3154.9204
CCC1=CN=C(C)N=C1	CCc1cnc(C)nc1	
InChI=1S/C7H10N2/c1-3-7-4-8-6(2)9-5-7/h4-5H,3H2,1-2H3	InChI=1S/C7H10N2/c1-3-7-4-8-6(2)9-5-7/h4-5H,3H2,1-2H3
