15
gdb 49743	3.73576	1.44092	1.33928	1.3193	70.44	-0.2493	-0.0637	0.1857	959.4344	0.112471	-416.705384	-416.698511	-416.697567	-416.737177	26.205	
O	-0.7922895972	 0.7540711363	-0.5248836879	-0.238447
C	 0.2285199394	 0.7893129706	 0.1096021299	 0.159769
C	 1.2859437678	 1.8676629263	-0.0770007124	-0.084195
N	 2.614461801	 1.2118103732	-0.1509148288	-0.214078
C	 3.2141855412	 1.8482616354	-1.0803945875	 0.152591
C	 3.3247636997	 1.2514053116	-2.4659026144	-0.2587
C	 2.1004766182	 2.2293902577	-2.632430384	-0.06232
C	 1.2545402948	 2.6312796502	-1.407709001	-0.051973
N	 2.6218559867	 3.1360992142	-1.5639078951	-0.137777
H	 0.4702564839	 0.0421577207	 0.8941420087	 0.102812
H	 1.171553611	 2.5748494338	 0.7643955558	 0.119071
H	 4.1290440059	 1.6109440508	-3.1123110814	 0.137037
H	 3.1994509621	 0.1714999128	-2.5221927227	 0.138243
H	 1.8401897551	 2.6445374525	-3.604540681	 0.12092
H	 0.4458118103	 3.3267853638	-1.6127158183	 0.117047
64.7208	145.3782	203.3305	396.7626	415.9291	463.4627	624.1855	665.6582	690.0431	709.2093	768.6662	841.4785	863.4219	870.2893	929.1733	971.4979	1015.6141	1025.764	1032.9716	1068.6372	1075.4013	1104.922	1137.3188	1148.4446	1207.0249	1226.0065	1282.6035	1327.5196	1337.9643	1402.2403	1483.108	1627.334	1834.6002	2921.5336	2950.1007	3076.2335	3129.5654	3162.7173	3168.3355
O=CC1N=C2CC3C1N23	O=C[C@H]1[N][C]2C[C@H]3[C@@H]1N23	
InChI=1S/C6H6N2O/c9-2-3-6-4-1-5(7-3)8(4)6/h2-4,6H,1H2	InChI=1S/C6H6N2O/c9-2-3-6-4-1-5(7-3)8(4)6/h2-4,6H,1H2/t3-,4+,6-,8?/m1/s1
