21
gdb 75509	2.352	1.75376	1.11196	1.2583	85.02	-0.2309	0.0256	0.2565	1146.1237	0.183895	-387.092897	-387.084695	-387.08375	-387.125465	32.263	
C	 0.0312867424	 1.5374610176	 0.0302904424	-0.480755
C	 0.0019717453	 0.0360579965	-0.0379351802	 0.303491
C	-0.0961613352	-0.6474143551	-1.1796372127	-0.171478
C	-0.0580901962	-2.1526937827	-1.2251861621	-0.126296
O	 0.547154541	-2.7268531479	-0.0801993855	-0.265641
C	-0.0082515502	-2.267003446	 1.1364796558	 0.109578
C	 1.0552736304	-2.3818822594	 2.2492757264	-0.238126
C	 1.4254189413	-0.8890675601	 2.0205747442	-0.236579
C	 0.0688441379	-0.7206255216	 1.2550249287	-0.089024
H	 0.9497702381	 1.8928683236	 0.5149923104	 0.126761
H	-0.0228744842	 1.9885266814	-0.9644267667	 0.119251
H	-0.8042556542	 1.9234895101	 0.6285732395	 0.120538
H	-0.191509897	-0.1317730866	-2.1325359614	 0.0812
H	-1.0750129605	-2.5619566235	-1.3721982689	 0.093158
H	 0.5412051174	-2.4906737756	-2.0783809422	 0.112776
H	-0.9907695895	-2.7312627105	 1.3083478503	 0.054263
H	 0.600454408	-2.5526002846	 3.2286624633	 0.099367
H	 1.8293519353	-3.1314028156	 2.0751780138	 0.109688
H	 1.5798143755	-0.2683496124	 2.905658148	 0.095053
H	 2.2806316512	-0.7756221401	 1.3509353387	 0.110594
H	-0.7005591368	-0.3545405072	 1.9461684583	 0.072182
96.7864	168.2361	201.2761	215.5339	270.1936	311.605	373.9884	446.3857	521.046	550.5294	658.642	722.2744	777.2883	819.95	829.4595	891.134	905.8123	944.0408	955.6788	992.6885	1034.748	1042.0587	1050.0638	1065.7372	1096.5843	1123.8787	1157.2114	1186.2127	1209.9586	1249.6716	1253.0469	1266.9174	1282.4174	1294.6743	1316.5184	1358.7175	1389.5678	1402.5692	1414.2546	1468.8515	1477.7763	1488.5249	1491.0638	1491.2901	1737.8542	2930.7661	2983.5682	3013.9796	3028.6886	3054.2325	3060.8378	3065.3818	3070.1204	3107.6414	3117.2422	3132.6762	3152.6206
CC1=CCOC2CCC12	CC1=CCO[C@H]2CC[C@@H]12	
InChI=1S/C8H12O/c1-6-4-5-9-8-3-2-7(6)8/h4,7-8H,2-3,5H2,1H3	InChI=1S/C8H12O/c1-6-4-5-9-8-3-2-7(6)8/h4,7-8H,2-3,5H2,1H3/t7-,8-/m0/s1
