20
gdb 64226	3.13562	0.97451	0.90828	5.6533	79.66	-0.2619	0.0335	0.2954	1374.6106	0.169299	-403.152944	-403.143217	-403.142273	-403.188185	35.22	
C	-0.1634066477	 1.5577719974	-0.054220601	-0.448718
C	-0.0449661358	 0.0342901693	-0.0115347454	 0.239581
C	-1.3727460012	-0.6342321312	-0.3554749209	-0.455426
C	 1.2034970379	-0.500525696	-0.7630261722	-0.101835
O	 1.8728420599	-0.8192339434	 0.4755612313	-0.286219
C	 0.6836014117	-0.5574555079	 1.2367084607	 0.123296
C	 0.9540671292	 0.3255614142	 2.4594346684	-0.369706
C	 1.722608659	-0.3764057561	 3.4854019371	 0.26837
N	 2.3194043063	-0.9389255442	 4.2991104751	-0.301514
H	 0.7924660802	 2.0508899198	 0.1463721737	 0.124925
H	-0.4943822629	 1.8791149808	-1.0476610251	 0.122265
H	-0.8978082802	 1.9266714392	 0.6702837875	 0.118484
H	-1.7124336503	-0.337181605	-1.3537894353	 0.121975
H	-1.2875660018	-1.7252810105	-0.3402554934	 0.123555
H	-2.1549399007	-0.3476330074	 0.3568110486	 0.119707
H	 1.0219849262	-1.3968548012	-1.370350575	 0.101788
H	 1.7688717108	 0.2275003299	-1.3561303901	 0.105854
H	 0.2207596688	-1.495211148	 1.5765621235	 0.087418
H	 1.5016126011	 1.2243562685	 2.1622370526	 0.154691
H	 0.0006191795	 0.6453380619	 2.8969415899	 0.151511
52.8512	58.4457	115.7927	210.5865	215.2581	263.1382	282.5345	344.9145	368.0918	389.6123	395.1701	479.7476	555.0737	637.8649	827.0845	865.3957	890.2233	933.0053	947.8332	960.7111	992.3745	1022.3513	1035.2326	1055.9827	1099.5641	1159.23	1207.8342	1229.8447	1230.3268	1271.3131	1303.2731	1313.418	1369.4993	1401.6555	1405.7826	1425.7438	1448.5407	1485.3431	1489.1412	1504.0933	1508.3341	1527.2787	2364.8648	2996.6887	3011.6754	3025.676	3031.3424	3046.2699	3061.7955	3090.7266	3095.9098	3098.5612	3103.3066	3107.5719
CC1(C)COC1CC#N	CC1(C)CO[C@H]1CC#N	
InChI=1S/C7H11NO/c1-7(2)5-9-6(7)3-4-8/h6H,3,5H2,1-2H3	InChI=1S/C7H11NO/c1-7(2)5-9-6(7)3-4-8/h6H,3,5H2,1-2H3/t6-/m0/s1
