19
gdb 73617	2.21054	1.50286	1.168	3.8601	76.72	-0.2374	-0.0186	0.2188	1134.933	0.159246	-423.030994	-423.022531	-423.021587	-423.063996	31.854	
C	-0.0347067748	 1.4909296425	 0.005702523	-0.484039
C	-0.0374233658	-0.0178066018	 0.0369271926	 0.283567
C	-1.3568400359	-0.7408863217	-0.2106140624	-0.142153
O	-1.2193801554	-2.0462871972	 0.3403166431	-0.253177
C	-0.2734382391	-1.9933184783	 1.4061539455	-0.103719
C	 0.6627392381	-0.8484321491	 1.0691417413	-0.123897
C	 1.2358826079	-0.7802823775	-0.3472618236	-0.15892
C	 1.2773276825	-1.9290342154	-1.2901711794	 0.131843
O	 2.1894847763	-2.0969211887	-2.0672038072	-0.276113
H	 0.9392622279	 1.8912113898	 0.3005585675	 0.127456
H	-0.2580162282	 1.8688685282	-0.9981337196	 0.131323
H	-0.7879445859	 1.8971210613	 0.6906523185	 0.123876
H	-2.1675320266	-0.1831922716	 0.2868170392	 0.097535
H	-1.6217121373	-0.8548239859	-1.2670061759	 0.117747
H	-0.7696807425	-1.7900709984	 2.3685919231	 0.102128
H	 0.2047965382	-2.9758472005	 1.4685652821	 0.119882
H	 1.2481681635	-0.4028130548	 1.8654680934	 0.101504
H	 2.1165579434	-0.1522112717	-0.4458902671	 0.103516
H	 0.4213102137	-2.6291159492	-1.2467206841	 0.10164
93.4531	178.5911	198.2428	212.66	231.1707	247.0849	308.2057	413.1237	450.6642	495.1471	583.2073	675.255	738.6782	861.5028	897.8235	930.2298	937.0605	974.7065	996.1172	1046.3045	1063.3762	1077.5385	1100.6451	1104.5286	1140.0877	1148.1516	1219.839	1230.9719	1252.1344	1290.18	1326.8279	1352.3354	1367.257	1422.2964	1435.3974	1458.1356	1489.2643	1499.7721	1513.8665	1524.7961	1798.6486	2955.196	2969.7747	2980.5281	3028.824	3068.6948	3075.1975	3088.9891	3110.2369	3158.4655	3179.8754
CC12COCC1C2C=O	C[C@]12COC[C@H]1[C@H]2C=O	
InChI=1S/C7H10O2/c1-7-4-9-3-6(7)5(7)2-8/h2,5-6H,3-4H2,1H3	InChI=1S/C7H10O2/c1-7-4-9-3-6(7)5(7)2-8/h2,5-6H,3-4H2,1H3/t5-,6+,7-/m1/s1
