19
gdb 16430	3.32557	2.20716	1.6835	1.6971	75.69	-0.2251	0.0857	0.3108	856.5654	0.165333	-327.839123	-327.831725	-327.830781	-327.870172	29.223	
C	-0.1781554762	 1.6102381363	-0.0212414443	-0.431182
C	-0.0263802105	 0.0990012321	 0.0164720041	-0.034589
C	 1.1938993098	-0.5664255439	-0.6286114339	-0.012839
C	 2.1607372113	-0.2389494091	 0.5472800717	-0.113761
C	 2.524148734	-1.7151504555	 0.6273898398	-0.196409
N	 1.0434695183	-1.8181158821	 0.2754640259	-0.193038
C	 0.7544047786	-0.5653414913	 1.1671510655	 0.367618
C	 0.3701919971	-0.6999829083	 2.6108472585	-0.523049
H	 0.763004543	 2.1185815644	 0.2142165071	 0.115202
H	-0.4998929803	 1.9480446171	-1.0122428891	 0.119429
H	-0.9300149062	 1.9485444531	 0.7000296958	 0.118505
H	-0.9673127097	-0.416408048	-0.2123233658	 0.075367
H	 1.4538398125	-0.6853225155	-1.6827660762	 0.074537
H	 2.7790992752	 0.6530675035	 0.6950307356	 0.061222
H	 3.1813221441	-2.1250583742	-0.1469648706	 0.096886
H	 2.7784428609	-2.1420258217	 1.6031331167	 0.096502
H	 1.1166712577	-1.2694488106	 3.1742615885	 0.124647
H	 0.2760881476	 0.2863292418	 3.0781595191	 0.123402
H	-0.5914477472	-1.2151825183	 2.7033033015	 0.131549
189.5579	198.4783	207.3713	223.989	286.9646	320.7062	485.55	531.7914	625.8409	701.6587	737.9019	810.8694	841.224	858.7347	887.4375	921.0485	923.8023	1021.2909	1022.1917	1041.1719	1081.9613	1098.67	1102.784	1120.7856	1160.4931	1170.8718	1184.286	1224.9969	1245.0287	1269.8747	1298.1263	1311.8623	1396.3781	1410.3515	1419.4485	1482.5609	1486.036	1495.4082	1500.8147	1521.5775	3028.7456	3030.7209	3031.9986	3036.7854	3045.4963	3090.3957	3092.0923	3093.4676	3099.3806	3099.7278	3104.2567
CC1C2C3CN2C13C	C[C@H]1[C@H]2[C@@H]3CN2[C@]13C	
InChI=1S/C7H11N/c1-4-6-5-3-8(6)7(4,5)2/h4-6H,3H2,1-2H3	InChI=1S/C7H11N/c1-4-6-5-3-8(6)7(4,5)2/h4-6H,3H2,1-2H3/t4-,5-,6-,7+/m0/s1
