17
gdb 116131	2.26525	1.64434	1.30208	2.4202	64.18	-0.2651	0.0047	0.2697	1028.2145	0.136512	-496.129969	-496.121702	-496.120758	-496.163481	30.487	
O	-0.7212030535	 1.4226921744	 0.1124243391	-0.411645
C	-0.2885567604	 0.1021160306	 0.3798875888	-0.108749
C	-1.3970209469	-0.9501123673	 0.1909332842	 0.19567
O	-2.3311490068	-1.0179221383	 1.2173331123	-0.2481
C	-3.2326527503	 0.0885801265	 1.2640137003	-0.112782
C	-4.0072270864	 0.1398058916	-0.0513888559	-0.325565
C	-3.0975599357	 0.0407168385	-1.2602789509	 0.393078
O	-3.34193487	 0.5177667114	-2.333608998	-0.324395
O	-1.9757319482	-0.7190740977	-1.1100110031	-0.254543
H	-0.8373356688	 1.5048982124	-0.8409212964	 0.30646
H	 0.5626960515	-0.1797364636	-0.2553023267	 0.111535
H	 0.039181252	 0.0742299898	 1.4233889322	 0.128012
H	-0.9454982924	-1.9456169552	 0.1373906276	 0.109401
H	-3.8962758847	-0.1009688899	 2.1103741426	 0.119065
H	-2.6935262693	 1.0250121234	 1.4356473249	 0.138
H	-4.6879774364	-0.7184459186	-0.1050595486	 0.146518
H	-4.6060427936	 1.0473568619	-0.1489957724	 0.13804
53.3396	102.3965	130.9382	259.4619	287.6657	372.6739	425.4245	429.4314	462.0651	516.4825	581.4955	670.8049	767.9163	823.6841	844.5728	900.7877	929.5628	971.6219	1026.0367	1038.9695	1096.4009	1106.9753	1129.504	1209.7228	1235.1723	1271.0011	1286.6667	1347.6989	1360.1741	1396.5429	1399.9909	1415.0935	1427.8557	1453.9861	1486.988	1513.4925	1848.5252	3011.1343	3048.0089	3062.1061	3073.1562	3096.3502	3115.6918	3125.7716	3808.677
OCC1OCCC(=O)O1	OC[C@H]1OCCC(=O)O1	
InChI=1S/C5H8O4/c6-3-5-8-2-1-4(7)9-5/h5-6H,1-3H2	InChI=1S/C5H8O4/c6-3-5-8-2-1-4(7)9-5/h5-6H,1-3H2/t5-/m0/s1
