27
gdb 109675	2.52929	0.94553	0.87599	0.0584	96.79	-0.2492	0.0781	0.3274	1586.279	0.249854	-353.561924	-353.550192	-353.549248	-353.598706	43.25	
C	 2.2345851234	 2.310027142	-0.6568762641	-0.372926
C	 1.0759754313	 1.3309934505	-0.4253670184	-0.205136
C	 1.1335641708	 0.1381842617	-1.360982433	-0.058944
C	 1.8978059447	-1.1383441093	-1.0482966577	-0.044024
C	 2.6629787793	-1.3589751572	 0.2406349171	-0.417701
C	 0.380851416	-1.1637124506	-1.1440282053	 0.314822
C	-0.4657367933	-1.3514460673	 0.1039741748	-0.463414
C	-0.2076036664	-1.8160512655	-2.3920972256	-0.235989
C	-0.3026264459	-3.3459882391	-2.3284153414	-0.381197
H	 3.2010288264	 1.8268296049	-0.4796845093	 0.118016
H	 2.2367580183	 2.681951168	-1.6875338524	 0.112531
H	 2.1630035728	 3.1757606002	 0.009342138	 0.107111
H	 1.0820130584	 1.0128198985	 0.6217897873	 0.092935
H	 0.1232723998	 1.8576453115	-0.5718570338	 0.09429
H	 1.1880656568	 0.4471930251	-2.4045986638	 0.068645
H	 2.4023406883	-1.5791311455	-1.9066582572	 0.072141
H	 2.1831644735	-0.8969588238	 1.106408277	 0.114585
H	 2.7621568656	-2.4288058274	 0.4573416288	 0.114648
H	 3.6750848423	-0.9444355916	 0.1692232988	 0.114907
H	-0.0711719114	-0.819793075	 0.9713342109	 0.112718
H	-1.4850874088	-0.9842849995	-0.0666836586	 0.111063
H	-0.5412213361	-2.4087892833	 0.3801408016	 0.115115
H	-1.2062771805	-1.3970976936	-2.5808123225	 0.087736
H	 0.4060798995	-1.5360028882	-3.2571658641	 0.08912
H	-0.6744665471	-3.753162405	-3.2740580812	 0.10887
H	 0.6784393471	-3.793076581	-2.1340730064	 0.114353
H	-0.9825008846	-3.6805179395	-1.5388618992	 0.115727
54.2292	80.3726	131.2448	143.32	163.1961	184.3754	211.1981	245.721	259.9894	279.0472	311.8982	325.1756	376.5813	449.373	520.1223	571.3025	675.107	761.0796	776.9859	798.7508	837.9017	907.7681	937.992	975.872	1007.6308	1023.9219	1033.0161	1053.522	1074.2898	1081.5072	1114.9176	1133.9559	1140.2455	1182.2602	1191.6508	1257.2484	1276.9937	1293.3871	1336.3143	1351.3017	1366.5584	1394.9202	1407.4853	1409.0433	1413.4512	1424.0958	1455.7781	1477.1417	1482.0779	1492.6154	1494.8915	1498.4152	1500.3762	1505.3384	1506.8097	1510.3468	1519.16	3005.1803	3016.7455	3027.6378	3029.966	3030.8372	3034.0053	3044.7559	3065.2246	3080.6628	3082.2837	3094.8515	3099.398	3101.4302	3103.6496	3105.3982	3107.9994	3121.6253	3132.1763
CCC1C(C)C1(C)CC	CC[C@H]1[C@@H](C)[C@]1(C)CC	
InChI=1S/C9H18/c1-5-8-7(3)9(8,4)6-2/h7-8H,5-6H2,1-4H3	InChI=1S/C9H18/c1-5-8-7(3)9(8,4)6-2/h7-8H,5-6H2,1-4H3/t7-,8+,9+/m1/s1
