21
gdb 120152	3.08439	0.97577	0.8737	1.6592	79.8	-0.2347	0.0864	0.3211	1436.0414	0.181093	-424.167495	-424.158079	-424.157135	-424.202183	34.523	
C	-0.6620776301	 1.4880895258	-0.160667662	-0.224498
O	-0.5259499882	 0.0895920819	-0.2100283582	-0.235864
C	 0.3884796307	-0.3352872029	-1.2034868127	-0.100789
C	 0.4110978871	-1.8430143633	-1.1733018505	-0.026947
C	-0.3539980978	-2.708709442	-2.1190357096	 0.080457
O	-0.3812387068	-2.1439634435	-3.4344251812	-0.305054
C	 1.055265653	-2.3736401362	-3.5745406202	 0.15643
C	 1.8327379199	-1.2165708196	-4.1683929634	-0.414292
C	 1.1610070068	-2.7839381542	-2.1050596732	-0.201427
H	 0.2934665427	 1.9861089504	 0.0722836671	 0.099531
H	-1.0357524924	 1.8980860742	-1.1126031683	 0.104253
H	-1.3807437183	 1.7203582156	 0.6293130962	 0.124869
H	 0.0717431212	 0.0214409756	-2.1937648367	 0.104965
H	 1.390566492	 0.0799402579	-0.9973676923	 0.080728
H	 0.4088555916	-2.2329015254	-0.1569810753	 0.100524
H	-1.1303374889	-3.4187196987	-1.8586090727	 0.103065
H	 1.1917335542	-3.26392106	-4.2044134152	 0.084038
H	 1.7855047588	-0.3192247007	-3.5491481615	 0.125934
H	 2.8843863721	-1.5016167331	-4.2821520958	 0.1194
H	 1.4414740386	-0.9728158935	-5.161617317	 0.128825
H	 1.8192365539	-3.5548421584	-1.7266377274	 0.095854
70.8257	91.8708	118.4983	192.7294	213.3999	220.286	252.7372	322.0159	389.7519	411.0184	548.6346	630.4675	720.2774	759.7469	801.5783	866.0156	902.9045	945.1905	997.383	1001.3804	1016.4711	1040.9125	1058.9576	1077.6272	1098.0198	1132.703	1155.8006	1159.4049	1182.3873	1197.4777	1234.2248	1261.847	1274.9735	1308.8683	1330.4009	1394.1891	1400.9731	1410.9854	1459.6621	1481.4284	1484.6602	1485.4849	1494.2774	1503.3975	1533.4884	2947.7632	2966.0074	3002.225	3007.0932	3020.4607	3041.8378	3103.7053	3110.7211	3136.3417	3141.0626	3179.2637	3198.6489
COCC1C2OC(C)C12	COC[C@H]1[C@H]2O[C@@H](C)[C@@H]12	
InChI=1S/C7H12O2/c1-4-6-5(3-8-2)7(6)9-4/h4-7H,3H2,1-2H3	InChI=1S/C7H12O2/c1-4-6-5(3-8-2)7(6)9-4/h4-7H,3H2,1-2H3/t4-,5+,6-,7+/m0/s1
