20
gdb 57683	2.9733	0.8167	0.75068	4.0749	85.85	-0.2729	0.0307	0.3036	1570.0969	0.167859	-366.003309	-365.992757	-365.991813	-366.038973	38.48	
C	 0.0775898348	 1.5772595104	 0.0014341253	-0.409228
C	 0.0405961822	 0.0315735444	 0.0374573373	 0.045396
C	 0.8512435652	-0.4862891518	 1.2484363954	-0.409234
C	-1.4225949241	-0.4998011463	 0.065911609	-0.189477
C	-2.2484413103	-0.0663469987	 1.2960988005	-0.368651
C	-3.6063435692	-0.6041268243	 1.2480021052	 0.258839
N	-4.6767707286	-1.036379504	 1.1960645081	-0.302689
C	 0.6543545232	-0.4820214392	-1.193286869	 0.330889
C	 1.150818672	-0.9058152734	-2.202735803	-0.47275
H	 1.1058752475	 1.928034461	-0.118269631	 0.131377
H	-0.5103892453	 1.9642789795	-0.8356398696	 0.12817
H	-0.3138605908	 2.0044104095	 0.9299683352	 0.114617
H	 0.4661921771	-0.0760640234	 2.1872200099	 0.114622
H	 0.8176146421	-1.5780162941	 1.3050244272	 0.128164
H	 1.8982653132	-0.1855160737	 1.1588708876	 0.131376
H	-1.9350439378	-0.1630891186	-0.8402837461	 0.129739
H	-1.3990086182	-1.5928728688	 0.0233915505	 0.129736
H	-1.7799233394	-0.4090685684	 2.2245353737	 0.155405
H	-2.3170553477	 1.0246737243	 1.3588113404	 0.155404
H	 1.5919980642	-1.2788548144	-3.0939496466	 0.198296
59.1461	98.0701	99.1466	177.4662	187.4267	245.2214	249.4821	266.5398	347.535	358.0904	402.3232	420.4599	485.746	549.6144	585.8235	636.6301	641.7342	731.5499	762.6064	885.6476	935.6676	940.8744	975.406	997.1316	1028.0104	1046.7912	1149.3458	1217.433	1222.9822	1250.5592	1306.9561	1334.3907	1383.7433	1395.6786	1418.7674	1468.3451	1481.3992	1487.4112	1490.3521	1501.8805	1509.2337	2233.2108	2362.8218	3037.9474	3041.1409	3051.4584	3060.1856	3085.2483	3107.2779	3110.5149	3113.5704	3120.8052	3123.3251	3501.4109
CC(C)(CCC#N)C#C	CC(C)(CCC#N)C#C	
InChI=1S/C8H11N/c1-4-8(2,3)6-5-7-9/h1H,5-6H2,2-3H3	InChI=1S/C8H11N/c1-4-8(2,3)6-5-7-9/h1H,5-6H2,2-3H3
