18
gdb 51179	3.9608	1.02048	0.91568	2.6756	72.11	-0.2463	-0.0261	0.2202	1273.9154	0.147933	-439.07082	-439.062584	-439.06164	-439.104695	30.218	
O	-0.4143610209	 0.198806969	 0.2397558964	-0.239036
C	 0.011651033	 1.323940463	 0.1953148464	 0.156648
C	 1.4146485101	 1.699564069	-0.2446015795	-0.361947
C	 1.3967001014	 2.7606643104	-1.3218797717	 0.295188
C	 0.9203346564	 2.4087422598	-2.7268963082	-0.147861
O	 1.3106690704	 3.5063651746	-3.5451967212	-0.256796
C	 2.5246086064	 4.0357843331	-3.0147252421	-0.108926
C	 2.4241507961	 3.8184868553	-1.5165422614	-0.098471
N	 1.1325744661	 4.1457990059	-0.8991647962	-0.370478
H	-0.6183949253	 2.1944728699	 0.4847137633	 0.092525
H	 1.9332039692	 2.1061992547	 0.6326333528	 0.133465
H	 1.9355717945	 0.7950952573	-0.5733776612	 0.120316
H	 1.3931800069	 1.4683667388	-3.0543871297	 0.103832
H	-0.1654994142	 2.2982438844	-2.8213099327	 0.120194
H	 3.4067710296	 3.5091488131	-3.4132936158	 0.102548
H	 2.5819417099	 5.0867164593	-3.3165919427	 0.118928
H	 3.3059047129	 3.921670377	-0.8922584712	 0.099999
H	 0.5343653876	 4.6125188954	-1.5802210154	 0.239871
49.1729	68.2419	154.6553	252.0873	281.2446	305.456	392.3184	445.7598	478.3867	628.5355	704.2237	755.5386	823.4457	871.4777	901.4079	931.5965	959.8081	996.2612	1021.1966	1051.4318	1072.3018	1090.0793	1108.3899	1137.8798	1179.9367	1197.4204	1227.3139	1253.8017	1291.7319	1312.316	1326.9005	1356.4103	1373.2434	1420.2257	1446.4775	1452.43	1506.122	1518.9209	1833.5093	2889.2304	2974.7955	2981.223	3035.0804	3067.2428	3074.0439	3099.9974	3165.5707	3470.332
O=CCC12COCC1N2	O=CC[C@]12COC[C@H]1N2	
InChI=1S/C6H9NO2/c8-2-1-6-4-9-3-5(6)7-6/h2,5,7H,1,3-4H2	InChI=1S/C6H9NO2/c8-2-1-6-4-9-3-5(6)7-6/h2,5,7H,1,3-4H2/t5-,6+/m1/s1
