21
gdb 107943	3.76967	1.21937	1.10399	0.8597	82.89	-0.2297	0.0886	0.3183	1200.4594	0.181726	-387.037105	-387.028444	-387.027499	-387.070047	33.831	
C	-0.0352382076	 1.3333805812	 0.0638919253	-0.266693
O	-0.0023025544	-0.080197985	 0.0197544429	-0.295556
C	 0.6287469606	-0.5853952831	-1.0991052242	 0.436245
C	 0.0153348248	-0.4593098081	-2.5289551275	-0.302416
C	 0.7323341853	-1.7796624524	-2.8059791518	-0.107592
C	 0.7997727251	-2.134152544	-1.3372349385	-0.206277
C	 2.0779993667	-1.7641998383	-2.0539977329	 0.351989
C	 3.2225772339	-2.6490040398	-2.4483615941	-0.50243
C	 2.1612327852	-0.414506821	-1.3351232948	-0.350189
H	 0.976499879	 1.7635308463	 0.0771738153	 0.113349
H	-0.581824255	 1.7551450343	-0.791827742	 0.113115
H	-0.5507724584	 1.6130599297	 0.9850834618	 0.127901
H	-1.0697892689	-0.5946698491	-2.4992039423	 0.101324
H	 0.271172892	 0.4215965951	-3.1293067816	 0.083656
H	 0.5762420458	-2.4567982772	-3.6364409707	 0.082485
H	 0.4937313403	-3.0056615454	-0.7772886203	 0.090295
H	 2.8633939155	-3.6134039661	-2.8241734773	 0.117331
H	 3.8277693824	-2.1905536198	-3.2396091476	 0.118024
H	 3.8835114809	-2.8494572977	-1.5974536463	 0.117535
H	 2.5086889745	 0.4637361532	-1.8931585956	 0.080754
H	 2.7126607723	-0.5058338228	-0.3940555777	 0.097149
82.8403	170.9294	183.5327	212.0178	247.4996	287.6975	365.8978	390.209	447.3178	465.5218	582.6619	638.9435	738.334	750.0609	818.4166	872.4501	889.9576	942.1348	948.6685	954.8453	985.9833	1029.0831	1039.684	1063.8752	1090.9708	1116.3857	1133.3456	1154.1352	1158.6924	1181.8942	1191.3832	1211.7173	1245.2968	1254.4482	1292.22	1339.7839	1404.3499	1426.6121	1483.3312	1486.637	1487.7805	1490.5503	1499.4333	1506.4623	1511.3886	2989.9003	3018.1146	3020.7827	3029.8841	3041.2366	3079.7414	3088.4948	3090.7485	3095.7772	3121.5908	3191.0934	3225.7188
COC12CC3C1C3(C)C2	CO[C@]12C[C@@H]3[C@H]1[C@]3(C)C2	
InChI=1S/C8H12O/c1-7-4-8(9-2)3-5(7)6(7)8/h5-6H,3-4H2,1-2H3	InChI=1S/C8H12O/c1-7-4-8(9-2)3-5(7)6(7)8/h5-6H,3-4H2,1-2H3/t5-,6+,7-,8+/m1/s1
