21
gdb 103657	2.51298	1.42259	1.17486	0.7046	80.47	-0.2482	0.0127	0.261	1179.259	0.180201	-424.23673	-424.227067	-424.226123	-424.27106	36.26	
C	 0.4472827958	 1.2896598643	 0.1070757116	-0.250307
O	 0.3668634722	-0.1149093103	-0.0627990678	-0.271763
C	 0.6092166095	-0.5983558735	-1.3753765942	 0.426349
C	-0.3676255729	-0.0167018561	-2.39807379	-0.441844
O	 1.933697263	-0.2912688125	-1.8010055646	-0.296009
C	 2.7810724857	-1.4426702366	-1.6930538018	 0.064547
C	 3.8290157349	-1.2566719539	-0.5932997622	-0.39058
C	 1.8239873093	-2.5771331536	-1.4375477927	-0.094525
C	 0.5968919245	-2.1064395395	-1.2673943604	-0.131555
H	 1.3773143467	 1.6907666127	-0.3122613551	 0.123591
H	-0.4052460555	 1.8157491461	-0.3441059208	 0.104697
H	 0.4335190936	 1.4725902634	 1.1843177678	 0.121999
H	-0.1776996505	 1.0479095475	-2.5538443739	 0.12759
H	-0.2418883533	-0.5252840879	-3.3565938311	 0.124079
H	-1.3987346882	-0.1468283217	-2.0571454341	 0.120081
H	 3.2914325887	-1.5606344655	-2.6602896305	 0.083074
H	 3.3363785069	-1.1245469918	 0.3736507828	 0.131796
H	 4.490637235	-2.1278815851	-0.5377580999	 0.10989
H	 4.440997286	-0.3744768643	-0.8016356342	 0.122646
H	 2.1415686141	-3.6109280612	-1.3801846192	 0.107133
H	-0.3025399254	-2.6592934504	-1.0322907697	 0.109109
61.9738	104.0512	165.9542	185.1131	236.2581	250.9577	293.7389	305.9444	350.3391	387.4096	462.6475	528.9024	568.279	644.909	753.3237	774.32	819.4448	865.8293	879.2687	917.7953	955.7318	956.7226	1049.5378	1082.9267	1087.301	1105.4606	1121.7704	1155.6306	1175.5451	1178.4225	1203.9551	1251.3417	1343.0601	1360.3087	1372.2644	1396.5094	1401.0888	1466.8082	1483.3929	1485.5922	1487.8003	1497.3216	1504.1414	1513.3829	1696.0139	2994.2654	3003.337	3037.3292	3050.6589	3068.6701	3109.7275	3115.1215	3127.353	3128.3313	3132.4945	3207.0977	3236.0643
COC1(C)OC(C)C=C1	CO[C@@]1(C)O[C@@H](C)C=C1	
InChI=1S/C7H12O2/c1-6-4-5-7(2,8-3)9-6/h4-6H,1-3H3	InChI=1S/C7H12O2/c1-6-4-5-7(2,8-3)9-6/h4-6H,1-3H3/t6-,7-/m0/s1
