21
gdb 112663	3.17166	1.0619	0.84883	4.1472	79.26	-0.2604	0.0172	0.2776	1422.3423	0.182384	-424.294698	-424.285301	-424.284357	-424.329153	34.698	
C	-0.0663424823	 1.6359800867	-0.053650163	-0.388371
C	 0.0249442787	 0.1092699629	 0.0115409374	-0.18708
C	-1.3309902209	-0.5781583228	 0.0713271801	 0.13448
C	-1.2968301509	-2.112985261	 0.1328868262	-0.258602
C	-2.5563615531	-2.4497528962	 0.9390529952	-0.135663
C	-2.5450465878	-3.7434087484	 1.7482218516	-0.402588
C	-2.7214839171	-1.207459704	 1.8175474883	 0.437963
O	-3.3610231392	-1.0970753517	 2.8241079788	-0.345895
O	-2.0141839269	-0.1768190863	 1.2849213023	-0.235885
H	 0.9299490695	 2.0863779785	-0.0830675794	 0.115627
H	-0.6069412686	 1.962295882	-0.9489866035	 0.114692
H	-0.5939574091	 2.0291458973	 0.8191417518	 0.143349
H	 0.5550062517	-0.2777530554	-0.8682837169	 0.101595
H	 0.6045656959	-0.1989620033	 0.8902735391	 0.107461
H	-1.953455604	-0.2438044622	-0.7711726394	 0.084733
H	-1.2714208782	-2.5651189069	-0.8610704395	 0.111783
H	-0.4032215434	-2.442561659	 0.6769069354	 0.109694
H	-3.4272355984	-2.4527199358	 0.2673776076	 0.109872
H	-1.6622122947	-3.7922470432	 2.3939209731	 0.122913
H	-3.4299628947	-3.792757673	 2.3874030463	 0.14435
H	-2.5358606362	-4.6181918882	 1.0917294483	 0.11557
73.3494	106.0995	120.5998	192.2591	210.8884	244.3979	251.5513	344.2835	402.3266	440.2093	534.8686	570.008	637.0838	705.3315	771.1764	803.9889	874.5665	922.3436	942.4126	976.2836	1007.9738	1038.9644	1069.32	1099.6725	1135.652	1141.2952	1175.1514	1190.6351	1211.3772	1282.0891	1297.7836	1316.7163	1340.6522	1363.1592	1383.9047	1409.6621	1411.5995	1415.3076	1473.5124	1492.5245	1497.5909	1497.8646	1498.8711	1508.7122	1874.9216	3001.392	3008.0243	3025.0634	3039.0127	3039.1801	3043.3393	3064.9632	3105.5118	3106.8769	3111.3708	3125.5358	3128.2586
CCC1CC(C)C(=O)O1	CC[C@H]1C[C@@H](C)C(=O)O1	
InChI=1S/C7H12O2/c1-3-6-4-5(2)7(8)9-6/h5-6H,3-4H2,1-2H3	InChI=1S/C7H12O2/c1-3-6-4-5(2)7(8)9-6/h5-6H,3-4H2,1-2H3/t5-,6+/m1/s1
