21
gdb 126610	4.17868	0.839	0.74266	1.8771	87.19	-0.227	0.0313	0.2583	1619.129	0.183102	-383.309942	-383.300293	-383.299349	-383.345567	34.62	
C	 0.0097651862	 1.5097640459	 0.0375063634	-0.38109
C	-0.0302965393	-0.0115652163	 0.1967045626	-0.167825
C	-1.4097174531	-0.5903155329	-0.1374367033	-0.142363
N	-1.4575683454	-2.0367729266	-0.0301487995	 0.057782
C	-1.9980710331	-2.7870036602	 0.9605860698	-0.023655
C	-1.7400121425	-4.1052658751	 0.6524164662	-0.311271
C	-1.0211424903	-4.057068912	-0.5651767108	 0.357029
C	-0.4850413698	-5.1931613841	-1.3789460984	-0.490014
N	-0.8532356435	-2.7968851718	-0.9685973686	-0.329717
H	 1.0016067493	 1.9036419639	 0.2768747389	 0.11996
H	-0.2270604428	 1.8081028635	-0.9897094153	 0.120405
H	-0.7114138436	 2.0019900334	 0.6999474522	 0.113977
H	 0.7061766414	-0.4852055149	-0.460252535	 0.128409
H	 0.2340342366	-0.2932529182	 1.2229932514	 0.102277
H	-2.1720428542	-0.1859855503	 0.5364372925	 0.112456
H	-1.6927095205	-0.3210051907	-1.1602251448	 0.126514
H	-2.5186730277	-2.3308489951	 1.7884959276	 0.123765
H	-2.0344083051	-4.9758573436	 1.2165394348	 0.09607
H	-1.2865845559	-5.8607761014	-1.714285065	 0.125789
H	 0.0315097873	-4.807720009	-2.2605802379	 0.136305
H	 0.221838186	-5.8007957145	-0.8031535207	 0.125195
49.1953	83.8566	84.7298	92.2226	235.5637	251.8719	276.2043	299.6558	375.3886	420.1819	633.1508	656.5706	689.3679	752.7938	766.2149	766.5068	826.1443	881.3675	901.4062	982.7485	1016.7832	1037.4544	1047.2622	1064.509	1072.4847	1123.1501	1132.5029	1228.6384	1249.4444	1310.1457	1329.4536	1349.0009	1396.0943	1404.31	1409.3291	1415.5543	1447.5776	1478.9968	1484.2906	1492.6008	1494.4138	1501.0678	1511.1762	1513.5903	1572.0246	3030.7556	3033.4079	3037.1001	3049.9056	3075.3467	3083.5244	3092.0122	3108.9078	3109.2294	3130.4267	3247.2162	3267.6262
CCCN1C=CC(C)=N1	CCCn1ccc(C)n1	
InChI=1S/C7H12N2/c1-3-5-9-6-4-7(2)8-9/h4,6H,3,5H2,1-2H3	InChI=1S/C7H12N2/c1-3-5-9-6-4-7(2)8-9/h4,6H,3,5H2,1-2H3
