16
gdb 7749	3.55707	1.75532	1.20124	4.3995	67.77	-0.2547	0.0095	0.2642	975.9976	0.130413	-383.790903	-383.783157	-383.782213	-383.824219	27.708	
C	 0.0051213306	 1.5272693218	 0.0626298989	-0.473261
C	 0.0061566492	 0.0297048016	-0.0489970624	 0.297637
C	 0.0521004385	-0.6217318673	-1.2064665371	-0.169641
C	 0.0532971719	-2.1092407757	-1.3215520517	-0.108043
O	 0.0024760974	-2.8364546633	-0.0897589204	-0.228005
C	-0.0472481693	-2.2603087786	 1.1309187246	 0.413844
O	-0.088985916	-2.9634728173	 2.1035059083	-0.325508
C	-0.0484940036	-0.7430804861	 1.2385283129	-0.443537
H	 0.8616906925	 1.8784835624	 0.6520154738	 0.130496
H	 0.0462929057	 2.0053544329	-0.9192425377	 0.126516
H	-0.8949325988	 1.8826131618	 0.5803809789	 0.130488
H	 0.0920500126	-0.0859057152	-2.1513803021	 0.095509
H	-0.8039093377	-2.4497287015	-1.9187339611	 0.129517
H	 0.9539141328	-2.4537502152	-1.8483515119	 0.129535
H	 0.7944043793	-0.4779259198	 1.8908232855	 0.14723
H	-0.9409458451	-0.4741906906	 1.8194597415	 0.147223
25.0695	99.9135	182.3394	244.3016	296.5	423.8036	433.7712	483.0983	550.1357	583.3754	724.2221	806.8375	812.4656	919.3546	957.1108	960.0465	1031.3458	1051.1782	1070.4571	1127.3702	1178.5484	1222.1605	1237.2764	1261.3181	1319.0419	1385.802	1413.8085	1433.551	1449.2937	1477.7022	1490.1125	1507.1022	1773.9576	1842.1535	3007.015	3017.9783	3024.873	3028.3468	3045.782	3066.322	3116.6359	3163.3478
CC1=CCOC(=O)C1	CC1=CCOC(=O)C1	
InChI=1S/C6H8O2/c1-5-2-3-8-6(7)4-5/h2H,3-4H2,1H3	InChI=1S/C6H8O2/c1-5-2-3-8-6(7)4-5/h2H,3-4H2,1H3
