19
gdb 89169	1.87648	1.59223	1.01714	2.779	77.68	-0.2372	-0.0214	0.2158	1212.871	0.157359	-423.001228	-422.992153	-422.991209	-423.034919	34.139	
C	 0.1658416734	 1.1739718015	-0.8972683207	-0.41532
C	 0.574126031	-0.2739490355	-0.6576509166	 0.044023
C	 1.8903321508	-0.8645272195	-1.2821777951	-0.343207
C	 2.2696579106	-1.3907419759	 0.1149217698	 0.374003
O	 2.7494454969	-2.6605546245	 0.3609082624	-0.453249
C	 2.4571278268	-0.2704658829	 1.1272465434	-0.168644
C	 3.1023804374	 1.0349526314	 0.8615750976	 0.135813
O	 3.7552960659	 1.6322737217	 1.6865247632	-0.274616
C	 1.0491154607	-0.7518815795	 0.7224526818	-0.155309
H	 0.95226126	 1.8856872444	-0.6329536494	 0.121284
H	-0.0862977998	 1.3332019375	-1.9513913982	 0.119384
H	-0.7190805748	 1.4278294869	-0.3036097863	 0.122421
H	-0.2578459451	-0.9203355949	-0.9570937382	 0.091396
H	 1.691099429	-1.6840465725	-1.9754166645	 0.117414
H	 2.5821875333	-0.1634971367	-1.7568993975	 0.102894
H	 3.7087645658	-2.6520949467	 0.2664456657	 0.29152
H	 2.7187652503	-0.65620245	 2.1095268287	 0.113029
H	 2.9929401751	 1.4406993093	-0.165661638	 0.072557
H	 0.4074949228	-1.1218979741	 1.5136328718	 0.104608
75.8051	155.1974	173.6495	204.0454	245.632	258.9159	288.715	354.6614	398.4378	432.6468	504.0472	546.9597	638.5715	656.8784	806.0934	845.2773	891.1332	909.0954	951.29	984.0773	1027.7853	1047.9353	1066.0748	1091.3498	1114.3022	1148.657	1182.5733	1209.5422	1229.8007	1233.5573	1295.8829	1305.4773	1312.3357	1375.0435	1414.684	1423.6285	1473.7079	1495.6006	1496.1482	1497.6606	1797.9887	2905.4719	3035.2216	3043.7695	3063.4386	3095.8487	3117.3828	3121.8001	3153.687	3184.279	3790.9963
CC1CC2(O)C(C=O)C12	C[C@H]1C[C@@]2(O)[C@@H](C=O)[C@@H]12	
InChI=1S/C7H10O2/c1-4-2-7(9)5(3-8)6(4)7/h3-6,9H,2H2,1H3	InChI=1S/C7H10O2/c1-4-2-7(9)5(3-8)6(4)7/h3-6,9H,2H2,1H3/t4-,5-,6+,7+/m0/s1
