20
gdb 92025	2.77493	1.70983	1.2699	2.5421	78.45	-0.2331	0.0697	0.3028	1048.5387	0.172769	-403.113079	-403.105425	-403.104481	-403.144823	31.192	
C	 0.0979262552	 1.5074387831	-0.026227719	-0.397477
C	 0.0089489778	-0.0119763867	 0.0222107871	 0.13693
O	 0.6428896194	-0.4855957083	-1.164070335	-0.263657
C	 0.7090736509	-1.8727275816	-1.3151304698	 0.089022
C	 2.0782938167	-2.4906055972	-1.2723877379	-0.312742
C	 1.1216260133	-2.6924580719	-0.1180547408	-0.047684
C	 1.2601646944	-1.9472772792	 1.1804221312	-0.058272
N	 2.1233846676	-0.7502762805	 1.2068837701	-0.331306
C	 0.6611549458	-0.5912019873	 1.2688093638	-0.045687
H	 1.1467228429	 1.8152864352	 0.0000121882	 0.136449
H	-0.3538162849	 1.8841154141	-0.9476110233	 0.121643
H	-0.4236817248	 1.9529345025	 0.8266381901	 0.10611
H	-1.0510760922	-0.3221336701	 0.0276783418	 0.061827
H	-0.0357260545	-2.277173792	-1.999447558	 0.081879
H	 2.2902828047	-3.335792724	-1.9176724973	 0.104789
H	 2.8968663082	-1.8012421606	-1.1035595331	 0.141414
H	 0.6657190937	-3.6723214312	-0.0156007113	 0.083813
H	 1.2423028852	-2.5671023133	 2.0731230092	 0.081049
H	 2.5299545631	-0.6403163409	 2.1315206463	 0.231139
H	 0.2077783776	-0.27949425	 2.2076689875	 0.08076
122.6119	201.9857	232.3646	246.246	328.9618	402.4433	426.4856	494.952	538.794	640.2682	705.7744	755.021	797.4827	808.4392	833.9243	889.1201	898.5339	921.2398	955.2288	1012.1161	1033.8168	1040.3874	1063.7982	1085.3916	1101.1864	1120.9424	1125.1035	1160.7672	1167.645	1183.0956	1199.0419	1239.3627	1257.2435	1337.9619	1348.3729	1383.5314	1401.9403	1405.9006	1411.2595	1454.2661	1474.39	1483.5051	1500.6116	2945.2436	3043.6245	3103.9576	3116.9775	3124.8156	3128.34	3135.4744	3140.0756	3156.7485	3239.4187	3510.6609
CC1OC2CC2C2NC12	C[C@H]1O[C@H]2C[C@H]2[C@H]2N[C@@H]12	
InChI=1S/C7H11NO/c1-3-6-7(8-6)4-2-5(4)9-3/h3-8H,2H2,1H3	InChI=1S/C7H11NO/c1-3-6-7(8-6)4-2-5(4)9-3/h3-8H,2H2,1H3/t3-,4-,5+,6+,7-/m1/s1
