16
gdb 85623	3.96139	1.07156	0.85245	3.9285	84.49	-0.2404	-0.0573	0.1831	1297.6887	0.123698	-400.769261	-400.760627	-400.759683	-400.802658	31.43	
C	-0.0796039458	 1.3869606044	 0.0560689557	-0.342183
N	-0.0200738201	-0.0529627997	 0.0294183173	-0.108769
C	-1.177831038	-0.9090807612	 0.0345055084	-0.27361
C	-0.5715927642	-2.3006652674	-0.0012289287	 0.187071
C	 0.7680541135	-2.1973830263	-0.0234962385	-0.357582
C	 1.1658527316	-0.7633340402	-0.0047980055	 0.447904
O	 2.2832996595	-0.286633825	-0.0162127802	-0.405805
C	-1.3723596322	-3.4612192731	-0.0077289541	 0.236669
C	-2.0881984891	-4.4304033341	-0.0122599602	-0.401706
H	 0.9493642133	 1.7517344545	 0.044489258	 0.16828
H	-0.6112100053	 1.7849215459	-0.8174816078	 0.123461
H	-0.5800061506	 1.7532222334	 0.9613509441	 0.123463
H	-1.7965256001	-0.7693591989	 0.9330306248	 0.133316
H	-1.8278152928	-0.7378487875	-0.8360573359	 0.133321
H	 1.4898764006	-2.9999071442	-0.0510119301	 0.132904
H	-2.7063190303	-5.2942285108	-0.0173848475	 0.203265
95.4805	138.2999	143.5194	165.3508	208.9504	295.4119	347.1557	436.8446	487.7436	541.3799	569.4881	623.5623	647.1763	683.8137	733.8045	793.6424	901.8308	904.4193	1005.9925	1033.7946	1132.8314	1147.7772	1157.1271	1197.1034	1242.5571	1310.1959	1317.9737	1416.0975	1446.3943	1492.4602	1492.7419	1526.07	1648.614	1801.5324	2225.3818	2997.0567	3012.2212	3022.0253	3059.0376	3139.0239	3254.6563	3500.4384
CN1CC(=CC1=O)C#C	CN1CC(=CC1=O)C#C	
InChI=1S/C7H7NO/c1-3-6-4-7(9)8(2)5-6/h1,4H,5H2,2H3	InChI=1S/C7H7NO/c1-3-6-4-7(9)8(2)5-6/h1,4H,5H2,2H3
