21
gdb 87728	2.89399	1.30246	1.0577	1.206	86.98	-0.2068	0.0171	0.2239	1236.8079	0.181339	-387.090642	-387.081574	-387.08063	-387.12444	34.83	
C	 0.0327714979	 1.5627246522	 0.3095834956	-0.401821
C	-0.0202918654	 0.0594595418	 0.1586082041	-0.067891
C	 1.1852277643	-0.7067333381	-0.3555120499	-0.360818
C	 0.7743172599	-0.826532264	 1.092871515	 0.424903
O	 1.5962647409	-0.2100217736	 2.0641109276	-0.321045
C	 1.6199947543	-1.0042703778	 3.2617940211	 0.075634
C	 1.1712801321	-0.1620735918	 4.4565286347	-0.387607
C	 0.726326953	-2.177741481	 2.9469975462	-0.117915
C	 0.2484258623	-2.0607661225	 1.7119120397	-0.157961
H	 1.0020998152	 1.8795934394	 0.7017983202	 0.132633
H	-0.1314388905	 2.0612196684	-0.6520329798	 0.112172
H	-0.7352376961	 1.9156882662	 1.0064546713	 0.114751
H	-0.9890070898	-0.3364893268	-0.1384357246	 0.080757
H	 1.0382887406	-1.5532245383	-1.0185864216	 0.10727
H	 2.0895003014	-0.1353732993	-0.5397897138	 0.120094
H	 2.6582443466	-1.3339957853	 3.4341442033	 0.08216
H	 0.1371682649	 0.1688930409	 4.3242554348	 0.120372
H	 1.2383316156	-0.7428569805	 5.3828380231	 0.109744
H	 1.8108240604	 0.7194148928	 4.5573477148	 0.124156
H	 0.5264808782	-2.9722291099	 3.6543118586	 0.103159
H	-0.4231369459	-2.7370196229	 1.1987212296	 0.107253
54.236	137.0685	177.8031	184.3643	239.5014	277.9893	297.5714	394.0779	415.8637	496.9991	530.7762	592.6534	730.064	760.7824	803.449	829.3166	867.5635	886.7746	888.4748	917.6415	947.2893	955.304	1004.2478	1041.0354	1055.8436	1083.1765	1107.6837	1127.3604	1133.5444	1137.304	1187.8773	1236.7971	1282.1355	1337.697	1361.4736	1376.0684	1398.8303	1408.8193	1428.088	1478.2868	1485.6541	1492.3549	1495.1402	1503.5698	1679.2788	2956.4553	3032.3996	3036.1345	3089.59	3109.3741	3116.3233	3121.4604	3122.72	3133.4274	3207.5013	3213.6075	3231.7089
CC1CC11OC(C)C=C1	C[C@H]1C[C@]21O[C@@H](C)C=C2	
InChI=1S/C8H12O/c1-6-5-8(6)4-3-7(2)9-8/h3-4,6-7H,5H2,1-2H3	InChI=1S/C8H12O/c1-6-5-8(6)4-3-7(2)9-8/h3-4,6-7H,5H2,1-2H3/t6-,7-,8+/m0/s1
