17
gdb 54929	4.81553	0.87583	0.789	3.3016	76.7	-0.2395	0.0335	0.273	1412.3073	0.1357	-417.995043	-417.985988	-417.985044	-418.029517	33.096	
N	-0.1373350946	 1.3210797233	 0.1479040161	-0.558154
C	-0.0425284064	-0.064908337	 0.1598757397	 0.406024
O	 1.0157202439	-0.6652545385	 0.1215425939	-0.390461
N	-1.25738186	-0.7088833631	 0.1851495274	-0.0971
C	-2.5428611408	-0.2716308666	-0.3769096945	-0.196312
C	-2.8528884979	-1.7629482618	-0.7459447104	-0.195487
C	-1.4273349351	-2.1142917423	-0.1912962894	-0.171413
C	-3.9812010244	-2.3720665077	-0.0747929481	 0.332948
C	-4.9135073195	-2.8743710807	 0.4943351297	-0.465448
H	 0.7423671693	 1.7705303749	 0.3529137443	 0.261485
H	-0.9315428408	 1.7393888578	 0.6089479476	 0.253129
H	-3.2310555822	 0.1681445329	 0.3520436267	 0.11975
H	-2.4453838881	 0.3979900731	-1.2385136259	 0.123302
H	-2.9276170671	-1.9146832017	-1.8251511433	 0.118142
H	-0.7082326764	-2.4496191405	-0.9440386481	 0.129771
H	-1.4205702592	-2.8079362846	 0.6530299256	 0.127538
H	-5.7379913808	-3.3228161474	 0.9911420188	 0.202288
41.1527	103.9648	137.5271	159.8883	230.0945	242.5854	401.2662	417.9057	503.0336	519.6081	555.8161	581.666	627.7604	635.9787	679.677	764.6664	779.9373	883.3787	913.7902	1002.9952	1027.3881	1083.6482	1114.4326	1140.3919	1162.3894	1185.3285	1202.8418	1238.1909	1291.6618	1331.7515	1350.2603	1436.5132	1510.2805	1529.1665	1622.8565	1792.7699	2238.7588	3031.043	3056.8895	3074.5246	3086.6524	3109.9941	3503.7723	3573.1042	3688.0016
NC(=O)N1CC(C1)C#C	NC(=O)N1CC(C1)C#C	
InChI=1S/C6H8N2O/c1-2-5-3-8(4-5)6(7)9/h1,5H,3-4H2,(H2,7,9)	InChI=1S/C6H8N2O/c1-2-5-3-8(4-5)6(7)9/h1,5H,3-4H2,(H2,7,9)
