20
gdb 66349	2.26114	1.45239	1.35887	3.5065	78.57	-0.2717	0.0258	0.2975	1105.0312	0.17188	-403.182633	-403.173971	-403.173027	-403.21547	33.511	
C	 0.0118222981	 1.5196071646	 0.0611879703	-0.421068
C	-0.0115766276	-0.0097458029	-0.0094755656	 0.211773
C	 0.6784214929	-0.5402762654	-1.2873941894	-0.214288
C	 0.8540502319	-2.0627996812	-1.2437930928	-0.22579
C	 1.5417486098	-2.4750010674	 0.0644807232	-0.197888
C	 0.7887144158	-1.8882745267	 1.2565306537	-0.083838
O	 0.660299745	-0.4682025876	 1.1560894027	-0.273717
C	-1.4274138701	-0.4740677826	 0.014566065	 0.266581
N	-2.5226638664	-0.8433774745	 0.0327259398	-0.352714
H	 1.0516127241	 1.8553115131	 0.0736668109	 0.131686
H	-0.4971518574	 1.9543774918	-0.8025635138	 0.132663
H	-0.4795669718	 1.8629170534	 0.9738597678	 0.143568
H	 0.106180572	-0.2304503636	-2.1676345498	 0.113412
H	 1.6584060467	-0.0513473296	-1.3400804817	 0.108037
H	-0.1283249075	-2.546655382	-1.3126758458	 0.122295
H	 1.432306441	-2.3961734349	-2.1112250738	 0.102965
H	 1.5834839115	-3.5655182641	 0.1599702202	 0.102831
H	 2.5746680733	-2.1055103785	 0.076268249	 0.104597
H	-0.2085695877	-2.3459089154	 1.3416225682	 0.114798
H	 1.3200336464	-2.0596607165	 2.1961324719	 0.114095
114.0496	149.2283	194.959	219.6235	268.1426	303.0681	328.8259	407.3384	423.7714	457.5999	543.3442	601.0314	623.5927	673.0648	820.4367	851.2695	873.0272	884.6924	920.3584	983.1251	984.8431	1061.2092	1070.5137	1102.8926	1127.4864	1183.8456	1198.897	1231.1572	1242.7349	1297.1341	1315.8212	1362.3296	1374.6359	1382.9556	1405.8801	1415.3366	1469.1138	1478.9824	1483.7484	1490.6607	1494.0337	1507.4186	2345.9517	2999.4755	3030.5949	3033.6063	3036.6553	3054.4742	3076.5551	3082.3175	3090.1415	3098.0763	3135.761	3140.9805
CC1(CCCCO1)C#N	C[C@]1(CCCCO1)C#N	
InChI=1S/C7H11NO/c1-7(6-8)4-2-3-5-9-7/h2-5H2,1H3	InChI=1S/C7H11NO/c1-7(6-8)4-2-3-5-9-7/h2-5H2,1H3/t7-/m0/s1
