18
gdb 38238	3.26844	1.77909	1.44548	2.1809	76.05	-0.2376	0.0234	0.261	928.72	0.151294	-401.898204	-401.891749	-401.890804	-401.928793	26.906	
C	-0.0269229654	 1.6115873867	 0.1540239557	-0.259179
C	 1.4646606487	 1.2185701442	 0.0083532122	-0.07917
C	 1.174693914	 0.0488068035	 1.0197192298	-0.304532
C	-0.0118908356	 0.0505566608	 0.0202370252	 0.289247
C	-1.1753011291	-0.8145539772	-0.3457458611	-0.205364
O	-1.5871443234	-0.451819478	-1.6938708748	-0.242678
C	-0.7368437131	 0.1978437224	-2.5336947001	 0.132173
N	 0.4673263421	 0.5769817083	-2.3823659613	-0.296256
C	 1.0311316227	 0.2078963247	-1.1037539998	 0.053952
H	-0.3360466249	 2.0030850327	 1.1269238234	 0.087831
H	-0.4670478761	 2.1794662164	-0.6654913355	 0.11418
H	 2.3284212314	 1.8837815834	 0.0121742905	 0.078774
H	 1.8460520622	-0.8140539329	 0.9840647164	 0.095886
H	 0.9587445981	 0.3499621868	 2.0475697692	 0.097293
H	-0.9024837845	-1.8768269194	-0.3507772316	 0.118681
H	-2.0661619983	-0.6842475866	 0.2757077525	 0.120668
H	-1.2627712264	 0.3906829957	-3.4675807132	 0.124046
H	 1.7285791078	-0.6276437014	-1.2360127276	 0.074448
143.4467	271.8246	310.7542	393.553	458.5878	502.9498	532.6772	618.4961	684.5776	778.2156	804.783	859.1154	886.5253	907.2917	924.3358	946.8273	972.9801	991.3697	1014.2557	1030.9398	1063.4379	1091.3975	1096.0945	1138.5931	1155.5131	1172.4048	1177.61	1208.508	1232.7893	1239.7511	1275.1441	1318.3586	1378.7976	1397.7133	1415.0764	1496.7712	1503.7707	1537.3303	1680.2142	3029.9481	3034.8914	3052.439	3064.6638	3084.9584	3112.3308	3120.0144	3143.3815	3154.9373
C1C2CC11COC=NC21	C1[C@H]2C[C@]31CO[CH][N][C@@H]23	
InChI=1S/C7H9NO/c1-5-2-7(1)3-9-4-8-6(5)7/h4-6H,1-3H2	InChI=1S/C7H9NO/c1-5-2-7(1)3-9-4-8-6(5)7/h4-6H,1-3H2/t5-,6-,7+/m0/s1
