16
gdb 18574	3.61742	2.09638	1.7496	2.5198	67.43	-0.2236	0.0095	0.2331	794.4669	0.130922	-383.696132	-383.689208	-383.688263	-383.727125	26.54	
O	-0.2087914512	 1.4198082986	 0.0751254857	-0.41559
C	 0.0003850524	 0.0339623676	 0.0345795153	 0.071209
C	 0.150929343	-0.6354962666	 1.4666947451	-0.353963
C	-1.3520853649	-0.7923937321	 1.399961298	 0.215318
C	-2.4674761703	-0.2815602354	 1.9051935741	-0.222315
C	-3.3925360828	 0.0496247794	 0.7449498546	-0.100316
O	-2.5949390908	-0.0916443428	-0.4480557765	-0.272176
C	-1.3910236275	-0.7181833724	-0.0897726899	 0.106091
H	 0.6151612883	 1.8390936076	 0.3425010934	 0.286895
H	 0.765270131	-0.2509779314	-0.7006532629	 0.066966
H	 0.7111896733	-1.5739275941	 1.4125716166	 0.112435
H	 0.5576694083	-0.008981262	 2.2636343271	 0.109437
H	-2.6668473615	 0.0345590406	 2.9212491928	 0.101883
H	-4.277832638	-0.6011135996	 0.6699296075	 0.102343
H	-3.748398334	 1.0864618197	 0.8151879234	 0.114922
H	-1.2555228955	-1.6565799371	-0.6456095043	 0.076861
103.8738	208.8034	229.0643	273.4917	343.569	408.1551	522.511	672.0038	727.7085	756.6834	796.9085	825.0244	841.2326	917.7279	953.3231	960.9013	981.8894	1028.0861	1052.2335	1099.2825	1135.0222	1140.1606	1176.9846	1193.6877	1213.8001	1243.9479	1290.2969	1302.1636	1347.7391	1386.7559	1410.2447	1468.3418	1514.2882	1729.5983	2978.951	2996.1033	3009.9164	3024.713	3055.5958	3115.4678	3214.4417	3817.2274
OC1CC2=CCOC12	O[C@H]1C[C]2[CH]CO[C@@H]12	
InChI=1S/C6H8O2/c7-5-3-4-1-2-8-6(4)5/h1,5-7H,2-3H2	InChI=1S/C6H8O2/c7-5-3-4-1-2-8-6(4)5/h1,5-7H,2-3H2/t5-,6+/m0/s1
