14
gdb 49369	2.53456	1.36936	0.96794	3.2969	70.25	-0.2767	-0.0463	0.2304	1153.6042	0.100925	-432.891836	-432.883633	-432.882688	-432.925425	28.73	
N	-0.0641076468	 1.2027227101	 0.8941598375	-0.52415
C	-0.0750537541	 0.1146141743	 0.2731262584	 0.415279
C	-1.1719874707	-0.7229114974	-0.3764033901	-0.342055
C	-0.0473584373	-1.764230633	-0.723785513	-0.139117
C	 0.1810285237	-2.0320291702	-2.1416881706	 0.29042
N	 0.3609657578	-2.2545682321	-3.2609322981	-0.302865
N	 0.9137865956	-0.8369701204	-0.0972804278	-0.097029
C	 2.2692487936	-0.8917433475	 0.1170018262	 0.145244
O	 2.880117906	-0.0317594627	 0.7057366882	-0.288689
H	 0.8815325221	 1.4504435414	 1.1889260141	 0.258934
H	-1.9375235948	-1.0964341182	 0.3036916044	 0.156863
H	-1.6389783855	-0.2608489293	-1.2463018673	 0.166415
H	-0.1425616778	-2.7126201866	-0.1868842243	 0.150847
H	 2.7311328982	-1.8018870683	-0.3095023275	 0.109903
75.9774	82.528	162.1822	195.0665	236.4102	269.4193	421.0553	481.851	500.4639	519.7989	606.5932	753.6216	792.044	864.2112	913.5288	983.9482	995.1776	1023.7195	1039.0351	1121.5309	1150.103	1225.1055	1238.0292	1265.2196	1358.4249	1371.6177	1427.8719	1464.5616	1770.5054	1833.6432	2363.447	2964.3386	3071.0186	3102.8675	3163.5724	3492.2749
N=C1CC(C#N)N1C=O	[NH][C]1C[C@@H](C#N)N1C=O	
InChI=1S/C5H5N3O/c6-2-4-1-5(7)8(4)3-9/h3-4,7H,1H2	InChI=1S/C5H5N3O/c6-2-4-1-5(7)8(4)3-9/h3-4,7H,1H2/t4-/m0/s1
