22
gdb 104295	2.75484	1.32711	1.16226	1.7701	80.75	-0.2358	0.0673	0.3031	1168.7266	0.195559	-404.336213	-404.327333	-404.326389	-404.369215	35.164	
C	-0.514958299	 1.6321884537	 0.1780178248	-0.463468
C	 0.0125872246	 0.1983919928	 0.0423110918	 0.292358
C	-1.1516470959	-0.7955081392	-0.151055628	-0.096832
O	-1.9032151645	-0.5752265717	-1.3343374766	-0.424076
C	 1.0446177364	 0.0634368048	-1.1162190609	-0.254345
C	 2.0498739851	-1.0326645382	-0.6851547818	-0.220473
C	 2.0240245025	-0.9787082002	 0.8306654765	-0.026163
N	 2.1372957987	 0.4005820141	 1.3604312914	-0.350162
C	 0.8101662709	-0.2469334338	 1.2652162595	-0.07256
H	 0.3060468134	 2.3089373679	 0.4292182165	 0.137694
H	-0.9611618276	 1.9869757877	-0.7583111439	 0.106209
H	-1.2736439943	 1.7102912091	 0.9668101679	 0.101332
H	-0.7616210808	-1.8152972846	-0.23885466	 0.107008
H	-1.8028059603	-0.773428371	 0.7388384778	 0.079892
H	-2.3379196784	 0.2792086882	-1.2534432394	 0.28439
H	 0.5414076742	-0.1672806272	-2.0579130367	 0.108223
H	 1.5710728446	 1.0118930196	-1.2419664527	 0.108043
H	 1.723619484	-2.0266309994	-1.0136808306	 0.099771
H	 3.0486326861	-0.8639095203	-1.0999361972	 0.101339
H	 2.440187944	-1.7935495453	 1.4151745464	 0.080718
H	 2.4562036333	 0.3586854302	 2.3252671208	 0.228018
H	 0.2846339231	-0.4967946371	 2.1833802644	 0.073084
104.6496	156.4238	179.6282	243.9254	275.5097	316.1793	330.2187	344.8586	385.7801	412.5503	523.865	622.0193	667.4688	756.8252	818.0562	831.2436	861.4277	905.3865	913.5185	939.5309	946.1649	982.1655	994.3659	1025.3213	1073.3026	1076.3282	1119.2922	1124.005	1141.8332	1174.5646	1195.0622	1235.4447	1260.291	1270.6201	1275.2231	1327.4252	1343.7685	1381.0107	1382.6785	1402.8635	1423.0991	1428.4949	1483.946	1494.5584	1498.1238	1504.5181	1512.6402	2962.6071	3018.8833	3037.5281	3067.4851	3071.6262	3078.7436	3082.1329	3113.1059	3120.4686	3138.8683	3158.4035	3500.086	3824.388
CC1(CO)CCC2NC12	C[C@@]1(CO)CC[C@H]2N[C@@H]12	
InChI=1S/C7H13NO/c1-7(4-9)3-2-5-6(7)8-5/h5-6,8-9H,2-4H2,1H3	InChI=1S/C7H13NO/c1-7(4-9)3-2-5-6(7)8-5/h5-6,8-9H,2-4H2,1H3/t5-,6-,7+/m1/s1
