20
gdb 79141	2.39672	1.89636	1.45482	1.6744	76.86	-0.236	0.0565	0.2924	989.2581	0.173215	-403.118533	-403.110807	-403.109863	-403.150233	31.279	
C	-0.2993146881	 1.5105776417	-0.0729192007	-0.423786
C	 0.026984776	 0.0167735444	-0.0578767849	 0.066638
C	 0.8090315441	-0.5152140097	-1.2871766278	-0.26702
C	 1.6468005865	-1.6381573882	-0.6876708407	-0.02139
C	 2.665118592	-1.3419520895	 0.3517948892	-0.064239
C	 2.390088364	-0.046646977	 1.0748316441	 0.115342
O	 2.8201483483	 1.1275770517	 0.4134118766	-0.429714
C	 0.8871312132	-0.4803824103	 1.1060784609	-0.079857
N	 1.3009401678	-1.9019531192	 0.7318773913	-0.15602
H	 0.6088280596	 2.1090890487	-0.1692426648	 0.125109
H	-0.9564026762	 1.7536380321	-0.9145693628	 0.114475
H	-0.8190005978	 1.8111205142	 0.8438598188	 0.106619
H	-0.9150031598	-0.5440607299	 0.0082986618	 0.081697
H	 0.1401420457	-0.8920881292	-2.0662044215	 0.097902
H	 1.4378187003	 0.262461247	-1.7288906589	 0.12171
H	 1.8182415561	-2.5405451301	-1.2665259779	 0.090628
H	 3.5708504775	-1.9323895175	 0.45313603	 0.088037
H	 2.8054540338	-0.0927515453	 2.0891643023	 0.082165
H	 2.8054856669	 1.8562644299	 1.0416450156	 0.284845
H	 0.3988322302	-0.4302861038	 2.0806950894	 0.066861
145.1218	188.5363	236.4777	280.4155	294.1807	319.3579	393.7292	516.0049	553.238	605.5679	709.0484	748.9531	770.9776	802.0076	813.025	885.3554	926.6997	958.7621	975.7304	991.944	1001.4788	1060.9539	1067.1824	1075.5224	1121.8902	1144.0389	1164.1272	1184.4748	1192.8697	1226.561	1240.099	1270.1241	1300.1178	1321.6393	1341.9207	1367.6029	1379.3279	1407.2346	1413.4429	1441.0232	1495.6963	1501.6595	1513.5691	3011.2062	3022.8477	3034.8177	3056.821	3091.4675	3097.6247	3101.2629	3132.734	3150.5677	3164.2273	3821.2919
CC1CC2C3C(O)C1N23	C[C@H]1C[C@H]2[C@H]3[C@@H](O)[C@@H]1N23	
InChI=1S/C7H11NO/c1-3-2-4-6-7(9)5(3)8(4)6/h3-7,9H,2H2,1H3	InChI=1S/C7H11NO/c1-3-2-4-6-7(9)5(3)8(4)6/h3-7,9H,2H2,1H3/t3-,4-,5+,6-,7-,8?/m0/s1
