19
gdb 41582	3.37155	1.56074	1.39554	1.41	80.73	-0.2269	0.0023	0.2292	994.2438	0.161434	-385.839678	-385.832685	-385.831741	-385.870999	28.349	
C	-0.0598840636	 1.4704977193	 0.1159628119	-0.233004
C	 1.4262108766	 1.5802946345	-0.3421552633	-0.208872
C	 1.4244717416	 0.0631298867	-0.6645933018	-0.129126
C	 0.020644607	-0.0804477642	 0.0691162974	-0.0662
C	-0.5401038524	-0.785005017	-1.2175329096	 0.094603
O	-1.6743246503	-0.3706155803	-1.9534231613	-0.279625
C	-1.2047452974	-0.0205746447	-3.2719773518	-0.107868
C	 0.2875681076	 0.2524416127	-3.1127748456	-0.238358
C	 0.6528514462	-0.2560449443	-1.9415697096	 0.215185
H	-0.272236421	 1.8877024422	 1.1017444105	 0.102001
H	-0.7855424359	 1.8741448646	-0.5935703933	 0.115474
H	 1.6541785741	 2.2580763939	-1.1684574528	 0.099026
H	 2.0942288505	 1.8089536582	 0.4934090868	 0.100291
H	 2.297365952	-0.5413556112	-0.4167641938	 0.077795
H	-0.1005455896	-0.6108928392	 1.0141567322	 0.06552
H	-0.557391543	-1.8741061825	-1.0508779157	 0.075067
H	-1.4284140784	-0.8358640556	-3.9797075902	 0.102495
H	-1.7488587373	 0.8696583205	-3.6115822655	 0.111892
H	 0.8488973033	 0.8731780564	-3.7998859943	 0.103703
129.6658	156.2521	221.5676	278.7341	435.4981	477.4362	625.6236	664.4575	701.2962	753.5125	793.3889	816.492	825.0341	867.1614	886.6329	927.5745	948.4396	968.165	978.1959	1006.4021	1023.8575	1051.3731	1073.4664	1107.3814	1118.5988	1131.7409	1189.6309	1197.2294	1217.5855	1236.4282	1245.8685	1260.2108	1269.4957	1292.0994	1326.5269	1341.2866	1377.3521	1476.2657	1489.6973	1514.2519	1712.231	2965.0955	2969.9781	3038.3856	3053.1587	3074.0531	3095.9917	3104.1819	3106.9364	3128.9313	3210.4253
C1CC2C1C1OCC=C21	C1C[C@H]2[C@@H]1[C@H]1OC[CH][C]21	
InChI=1S/C8H10O/c1-2-6-5(1)7-3-4-9-8(6)7/h3,5-6,8H,1-2,4H2	InChI=1S/C8H10O/c1-2-6-5(1)7-3-4-9-8(6)7/h3,5-6,8H,1-2,4H2/t5-,6+,8+/m0/s1
