19
gdb 71755	3.47256	1.82201	1.56396	1.5976	77.37	-0.234	0.0844	0.3185	914.8315	0.161471	-385.842357	-385.83585	-385.834906	-385.872771	27.912	
C	-0.0214119618	 1.5187732501	-0.143676676	-0.516478
C	-0.0512271576	 0.0267491315	-0.0139513212	 0.463254
O	 0.2471587927	-0.7162282744	-1.2163125631	-0.333735
C	-0.3449957572	-1.8436951387	-0.5243071584	 0.085137
C	 0.6443159938	-2.2071384901	 0.6028717994	-0.054206
C	-0.2348056936	-2.6523072463	 1.8000633045	-0.251971
C	-0.7160714636	-1.1878993947	 1.7853170047	-0.057614
C	 0.653194929	-0.7346101335	 1.1705712264	-0.110124
C	-1.2478362656	-0.9021632738	 0.3504971263	-0.144723
H	 0.9891521722	 1.8594348766	-0.394714351	 0.129876
H	-0.7029184492	 1.8556611343	-0.9302917758	 0.128076
H	-0.3151195303	 1.991386966	 0.7989813045	 0.122788
H	-0.7199584279	-2.6218754747	-1.1879872905	 0.077351
H	 1.5529402808	-2.7325672975	 0.3125521557	 0.069661
H	-0.9667526458	-3.4505287475	 1.6324136734	 0.090753
H	 0.358286981	-2.882889732	 2.6897803124	 0.101197
H	-1.2019281533	-0.7038118544	 2.6309269881	 0.065602
H	 1.5056167235	-0.3631633585	 1.7355518752	 0.065314
H	-2.286357337	-0.7218490023	 0.0797262455	 0.069842
207.6146	237.1048	252.7745	380.609	486.8255	533.6324	578.9239	693.0644	747.7955	804.7588	822.4077	830.5412	847.0556	864.9565	876.2971	895.3619	924.6716	932.8601	948.419	976.747	1002.6122	1042.7911	1069.0097	1088.8426	1122.6188	1131.087	1136.8159	1160.1607	1183.9751	1207.0531	1227.1135	1236.8187	1253.6881	1281.3029	1299.2284	1313.097	1361.8266	1414.7873	1477.2098	1492.4618	1498.9834	3034.0528	3035.954	3095.0155	3102.6103	3113.1239	3120.9229	3122.7467	3129.1037	3136.934	3143.1463
CC12OC3C4CC(C14)C23	C[C@@]12O[C@H]3[C@@H]4C[C@@H]([C@H]14)[C@@H]23	
InChI=1S/C8H10O/c1-8-5-3-2-4(5)7(9-8)6(3)8/h3-7H,2H2,1H3	InChI=1S/C8H10O/c1-8-5-3-2-4(5)7(9-8)6(3)8/h3-7H,2H2,1H3/t3-,4+,5-,6+,7-,8+/m0/s1
