19
gdb 77115	3.24176	1.04586	0.87589	2.0447	77.42	-0.2525	-0.0271	0.2254	1329.4291	0.157023	-423.00704	-422.998014	-422.997069	-423.04131	33.153	
C	-0.5904724353	 1.1384662031	-0.0723292816	-0.422917
C	-0.0039929687	-0.2441364026	 0.1571025027	-0.075519
C	 1.2746577052	-0.6750263377	-0.652683691	-0.082393
C	 1.8125733189	-1.3738433362	 0.6395857307	-0.354936
C	 0.7909846506	-0.5587783553	 1.4295679407	 0.455891
C	 1.0100009552	 0.283739878	 2.6060639096	-0.267368
O	 0.2329225211	-0.924670291	 2.6716218242	-0.273069
C	 1.0344304842	-1.5553519372	-1.8440831853	 0.159342
O	 1.4010001087	-1.3260838998	-2.9678024744	-0.252499
H	 0.1723084707	 1.9160446295	 0.0381013322	 0.120157
H	-1.0144202441	 1.2240633513	-1.0779944722	 0.130035
H	-1.3922484824	 1.3441320524	 0.6449350339	 0.12956
H	-0.7789340823	-1.0129979453	 0.0370228845	 0.092384
H	 1.8782704573	 0.1855497514	-0.9483086794	 0.093034
H	 1.566219866	-2.4411848782	 0.6544081312	 0.121031
H	 2.8719851834	-1.2479857176	 0.8694061355	 0.120842
H	 1.9679548427	 0.2501407428	 3.1236951792	 0.118376
H	 0.4449215823	 1.2058434519	 2.7329857331	 0.119738
H	 0.4557799963	-2.4813990697	-1.6055808837	 0.068313
66.0887	67.4399	198.8311	211.1875	221.0413	255.8709	314.8309	342.2293	410.4139	434.4586	517.5207	600.3604	723.2384	815.0964	863.329	873.7867	900.285	913.7791	961.503	1044.371	1054.1894	1077.0595	1100.3764	1125.2134	1145.7758	1158.0497	1170.5031	1205.2656	1237.1114	1238.1129	1258.6574	1313.7621	1372.7044	1406.7814	1426.7694	1438.017	1482.4136	1493.6423	1496.8884	1538.1424	1829.4338	2834.8732	3022.6177	3032.2455	3052.0775	3083.0859	3096.161	3101.7593	3105.1344	3122.1503	3170.3998
CC1C(CC11CO1)C=O	C[C@H]1[C@@H](C[C@]21CO2)C=O	
InChI=1S/C7H10O2/c1-5-6(3-8)2-7(5)4-9-7/h3,5-6H,2,4H2,1H3	InChI=1S/C7H10O2/c1-5-6(3-8)2-7(5)4-9-7/h3,5-6H,2,4H2,1H3/t5-,6-,7+/m0/s1
