21
gdb 86589	3.45035	0.99597	0.8373	2.5405	84.08	-0.2298	-0.0143	0.2155	1442.7325	0.181459	-387.091543	-387.082176	-387.081232	-387.126484	34.599	
C	 0.0807407228	 1.6981163286	 0.2027732181	-0.405872
C	 0.0825743768	 0.184373008	 0.0462228446	-0.0838
C	 0.6116540816	-0.4853114902	-1.2622416988	-0.278147
C	 1.3972101441	-1.5474311684	-0.4214092854	-0.101828
C	 2.8062615781	-1.9232757248	-0.7831936971	 0.02552
C	 3.4214081214	-3.1889880704	-0.2418195169	-0.259884
C	 3.0795026866	-3.088098985	-1.7064888749	-0.278988
C	 1.1649464727	-0.6182099249	 0.7906292558	 0.372556
O	 1.7334312171	-0.460255086	 1.833002016	-0.304969
H	 1.0552121586	 2.1207478448	-0.0629793373	 0.119905
H	-0.6762035541	 2.1632727098	-0.4365615104	 0.118125
H	-0.129708359	 1.9765077162	 1.2397340142	 0.134421
H	-0.9007078635	-0.2291289908	 0.306504775	 0.099866
H	-0.1361515346	-0.8683967521	-1.95773988	 0.105145
H	 1.2944070212	 0.1766325743	-1.8032991334	 0.10901
H	 0.7860431449	-2.4509965301	-0.2945863783	 0.092586
H	 3.4793735336	-1.0748391778	-0.8771547212	 0.083577
H	 4.4652520634	-3.1655168922	 0.0493157926	 0.116348
H	 2.8029394289	-3.8237759743	 0.383668664	 0.114432
H	 2.2292830613	-3.6550687821	-2.0714143615	 0.109127
H	 3.8897291081	-2.9967185525	-2.421318845	 0.112871
54.402	64.1785	126.4964	177.1125	198.933	238.2826	293.0456	340.2652	386.9855	537.179	565.397	679.7503	752.4289	788.3274	806.6036	833.6623	879.3304	916.1553	924.2807	949.3693	975.1419	1001.833	1045.9272	1059.5365	1077.3147	1082.1584	1129.26	1132.6354	1143.27	1194.5376	1197.8096	1225.4045	1239.8128	1242.403	1254.7329	1295.8178	1341.4456	1407.4535	1425.0242	1470.9195	1488.8044	1494.3169	1495.325	1505.0555	1880.0654	3022.9309	3027.5911	3035.7336	3062.9596	3104.049	3111.5893	3126.5651	3130.7648	3136.1706	3139.5107	3209.6535	3225.6123
CC1CC(C2CC2)C1=O	C[C@H]1C[C@@H](C2CC2)C1=O	
InChI=1S/C8H12O/c1-5-4-7(8(5)9)6-2-3-6/h5-7H,2-4H2,1H3	InChI=1S/C8H12O/c1-5-4-7(8(5)9)6-2-3-6/h5-7H,2-4H2,1H3/t5-,7-/m0/s1
