18
gdb 80580	2.78897	1.48988	1.29514	2.5943	72.18	-0.235	0.0164	0.2514	1046.8989	0.147021	-439.072913	-439.064252	-439.063307	-439.106562	32.052	
C	-0.1221006285	 1.315252276	-0.2622736205	-0.486571
C	-0.1234313797	-0.1961171767	-0.1314208766	 0.36778
O	 0.8208498505	-0.8955752741	-0.4600556096	-0.37989
N	-1.2597206987	-0.7416311882	 0.4175302085	-0.077289
C	-2.6657691976	-0.3302332954	 0.1682844029	-0.194151
C	-3.030030744	-1.8054595652	-0.0358856343	-0.138301
C	-2.1359804822	-2.4205083196	-1.0816030659	 0.118561
O	-1.737395097	-1.6800225938	-2.1927031296	-0.4293
C	-1.5687688871	-2.159899175	 0.2795001762	-0.079227
H	 0.9102508162	 1.6661522348	-0.263597643	 0.149156
H	-0.5796863725	 1.5985784431	-1.2168634863	 0.149955
H	-0.6831863629	 1.8014430896	 0.5395334119	 0.13306
H	-3.1277272931	 0.1175071851	 1.0528580843	 0.117949
H	-2.8020701711	 0.3199616082	-0.7002879642	 0.127894
H	-3.9423733179	-2.2725473354	 0.3077996092	 0.104956
H	-2.3566396343	-3.4702200423	-1.2784923142	 0.099583
H	-0.7730691706	-1.7210894581	-2.2295127987	 0.303426
H	-1.1200112096	-2.901353823	 0.92806364	 0.11241
87.8575	90.9747	99.9014	185.805	253.2575	308.9949	390.7795	398.3571	493.6564	566.3177	600.4365	643.6067	698.4164	761.4201	824.5606	850.0764	946.1039	964.1669	988.3338	1024.7027	1040.5562	1052.6749	1064.69	1098.7705	1109.4908	1155.7261	1187.4775	1210.3962	1264.4301	1308.5157	1339.6242	1340.9338	1372.6073	1404.7589	1437.8671	1471.8182	1481.0768	1501.2933	1756.163	3045.554	3049.6362	3103.2765	3104.3955	3113.7827	3156.1621	3195.0233	3215.8835	3774.5578
CC(=O)N1CC2C(O)C12	CC(=O)N1C[C@H]2[C@@H](O)[C@@H]12	
InChI=1S/C6H9NO2/c1-3(8)7-2-4-5(7)6(4)9/h4-6,9H,2H2,1H3	InChI=1S/C6H9NO2/c1-3(8)7-2-4-5(7)6(4)9/h4-6,9H,2H2,1H3/t4-,5+,6-/m1/s1
