18
gdb 95592	2.56659	1.49479	1.064	1.6867	74.22	-0.2388	-0.0113	0.2275	1127.5878	0.149182	-439.067824	-439.059539	-439.058595	-439.100952	31.332	
O	 0.692019287	 0.412453887	 1.0268740639	-0.423725
C	 0.0645900231	-0.3543893589	-0.0063162691	 0.065205
C	-1.4485764998	-0.1111163405	 0.0565436773	-0.11299
O	-2.2040737842	-1.0937314827	-0.6541727916	-0.225228
C	-2.454286506	-1.0167031173	-1.9863065624	 0.146635
N	-2.0780484776	-0.2569948213	-2.9178452442	-0.258232
C	-1.1206248613	 0.8399730409	-2.8029477928	-0.22778
C	 0.2967706006	 0.4099354445	-2.4554337661	-0.073873
C	 0.7603439436	-0.1063580116	-1.3170404512	-0.074228
H	 0.8154744928	 1.3053310177	 0.6856530195	 0.282574
H	 0.2279318919	-1.4004677605	 0.2834906007	 0.108807
H	-1.7470651808	-0.2285836447	 1.1003100318	 0.128827
H	-1.7189826031	 0.9005496606	-0.2516375446	 0.112221
H	-3.1412503803	-1.829421569	-2.2258356684	 0.121893
H	-1.0876535405	 1.3179622193	-3.7861372801	 0.111468
H	-1.4706854672	 1.6194117412	-2.1164925842	 0.11317
H	 1.0116524352	 0.5209718606	-3.2676445843	 0.103424
H	 1.8173383267	-0.3635348256	-1.2736257344	 0.101832
53.1736	160.0794	217.4678	250.9096	284.8648	315.1307	334.1825	379.3102	478.5578	522.6507	604.0003	670.9992	755.6975	784.0937	843.8249	914.9898	935.5741	968.412	990.6084	1008.3238	1020.8898	1032.9766	1089.9154	1138.2526	1175.113	1231.0581	1247.451	1269.7692	1294.3327	1366.8827	1380.4033	1397.2106	1414.4023	1430.0435	1441.7311	1491.7708	1536.2308	1726.727	1760.9781	3025.4029	3030.2101	3065.6486	3083.419	3129.6314	3132.7464	3136.0523	3160.254	3800.9724
OC1COC=NCC=C1	O[C@H]1COC=NCC=C1	
InChI=1S/C6H9NO2/c8-6-2-1-3-7-5-9-4-6/h1-2,5-6,8H,3-4H2/b2-1-,7-5-	InChI=1S/C6H9NO2/c8-6-2-1-3-7-5-9-4-6/h1-2,5-6,8H,3-4H2/b2-1-,7-5-/t6-/m1/s1
