18
gdb 94403	2.64829	1.42534	1.20232	3.2764	71.44	-0.2375	-0.0004	0.2371	1098.6312	0.14828	-439.088109	-439.079782	-439.078837	-439.121275	30.909	
C	-0.2056808465	 1.4909290566	-0.058380294	-0.40741
C	 0.0425117856	-0.0112337899	-0.0823010977	-0.059457
C	 1.2950839892	-0.4625764178	-0.8828724998	-0.173136
N	 2.0277064776	-0.6141341959	 0.3994549599	-0.354279
C	 0.7835096932	-0.59111526	 1.1620533818	 0.139854
C	 0.6929978981	-0.0404277852	 2.5969242816	-0.139653
O	 0.08596336	-1.2981016454	 3.0484123311	-0.248183
C	 0.2156977767	-1.8690756132	 1.8068617549	 0.402105
O	-0.03781342	-2.9854969451	 1.4816528869	-0.336826
H	 0.7048052875	 2.0378092492	 0.2075720368	 0.131133
H	-0.529731834	 1.8371240152	-1.0454650229	 0.124619
H	-0.9889673614	 1.7599657488	 0.6579160556	 0.122028
H	-0.871866674	-0.5518342703	-0.3344446258	 0.098397
H	 1.1344462674	-1.4003780496	-1.4264991316	 0.113832
H	 1.7385778968	 0.2749576183	-1.5605546212	 0.103182
H	 2.590246313	-1.4528863435	 0.4985564342	 0.231332
H	 1.6564930024	 0.1250998219	 3.083538689	 0.128665
H	 0.0177565583	 0.799669036	 2.7697827113	 0.123796
84.4883	119.4126	153.8409	225.4553	254.7612	266.9882	361.5784	390.8026	509.6912	613.7954	692.956	717.5067	791.0287	814.4509	874.0684	918.6466	936.1949	955.0305	974.5068	1025.0413	1065.1292	1098.7362	1122.553	1146.4024	1157.1028	1179.7055	1200.6515	1237.3176	1261.722	1321.3336	1338.9137	1362.1892	1396.5535	1411.7982	1495.3834	1498.3794	1509.1555	1519.5289	1924.195	3026.1693	3032.4578	3071.0722	3072.3113	3086.854	3099.6241	3110.7672	3136.4437	3524.9121
CC1CNC11COC1=O	C[C@H]1CN[C@]21COC2=O	
InChI=1S/C6H9NO2/c1-4-2-7-6(4)3-9-5(6)8/h4,7H,2-3H2,1H3	InChI=1S/C6H9NO2/c1-4-2-7-6(4)3-9-5(6)8/h4,7H,2-3H2,1H3/t4-,6-/m0/s1
