18
gdb 55173	2.89249	1.42165	1.2789	4.6979	71.39	-0.2284	-0.0059	0.2225	1064.3687	0.146693	-439.046016	-439.037542	-439.036598	-439.079891	31.087	
C	 0.0600342679	 1.3378013495	 0.3243083495	-0.488787
C	 0.0508154243	-0.1650734224	 0.1186042288	 0.388757
O	 1.0539655286	-0.8302918217	 0.0609246401	-0.292968
C	-1.3362273307	-0.786835483	 0.000170861	 0.020412
O	-1.3412427343	-2.228056113	-0.0136481347	-0.287951
C	-2.1898168759	-2.2935407489	 1.1435235684	 0.112905
C	-1.4303800415	-2.315561461	 2.4931791596	-0.188829
N	-1.4003791856	-0.8150646272	 2.5136724519	-0.318144
C	-2.2192929329	-0.7549286403	 1.2799377215	-0.088248
H	 1.0587011103	 1.7311468952	 0.1293516666	 0.143855
H	-0.6748246115	 1.8432349526	-0.3110830299	 0.123602
H	-0.2050550805	 1.5382594851	 1.3687244711	 0.155256
H	-1.8372894259	-0.3835472916	-0.8931885804	 0.095129
H	-3.0424125214	-2.9608723862	 1.003754068	 0.087267
H	-2.0082465165	-2.7599745372	 3.3115380583	 0.101073
H	-0.4377421031	-2.7716563777	 2.452559104	 0.133394
H	-1.8762906636	-0.4256659562	 3.3182097195	 0.225001
H	-3.1022228777	-0.115626456	 1.2896177367	 0.078275
53.4575	86.9438	127.8823	160.1311	236.8307	357.997	383.6964	433.6571	540.2902	607.1182	688.2175	738.0802	777.0107	807.4017	851.0317	920.5802	944.1291	961.5836	979.4273	1005.9928	1036.9853	1053.8207	1067.253	1090.3024	1148.2889	1189.9238	1193.2342	1205.1563	1247.005	1279.2967	1322.1798	1344.4552	1355.8009	1374.862	1387.9164	1466.8758	1477.4621	1492.3006	1829.6506	2990.2452	3033.761	3037.2252	3088.966	3103.2302	3103.4247	3109.8622	3148.9638	3550.7091
CC(=O)C1OC2CNC12	CC(=O)[C@H]1O[C@H]2CN[C@@H]12	
InChI=1S/C6H9NO2/c1-3(8)6-5-4(9-6)2-7-5/h4-7H,2H2,1H3	InChI=1S/C6H9NO2/c1-3(8)6-5-4(9-6)2-7-5/h4-7H,2H2,1H3/t4-,5+,6+/m0/s1
