17
gdb 75843	2.51339	1.68266	1.2131	1.5518	67.51	-0.2579	-0.0339	0.224	1025.2437	0.135103	-458.972506	-458.964372	-458.963427	-459.004892	31.803	
O	 0.4033918844	 0.89771844	-0.7737481304	-0.447799
C	 0.0305821998	-0.2431892471	-0.0447941186	-0.023138
C	 0.433524098	-0.1271729461	 1.4315690684	 0.340581
O	 1.3280667446	 0.5914820178	 1.801364422	-0.320656
C	-0.5385698469	-0.9378272941	 2.2822589452	-0.332621
C	-1.7932496771	-0.9697659797	 1.4205332055	-0.090193
C	-2.2941901002	 0.3654211729	 0.8958036275	-0.355114
C	-1.4567803772	-0.5254767637	 0.0149213717	 0.397419
O	-2.0435539231	-1.1928109483	-1.0562086666	-0.475891
H	 1.1072950321	 1.3191183277	-0.2577058805	 0.292093
H	 0.5138470117	-1.1492045258	-0.4563481199	 0.098177
H	-0.1312090462	-1.946584658	 2.4304460229	 0.136483
H	-0.66181283	-0.4820754048	 3.2687981007	 0.134798
H	-2.5176655393	-1.7624346317	 1.5616893009	 0.104992
H	-3.3470564707	 0.4148347821	 0.6441441399	 0.123453
H	-1.8740152722	 1.2887758663	 1.2841266095	 0.124795
H	-2.1063681677	-0.5700116376	-1.7895372782	 0.292624
89.0678	175.4472	235.5169	279.5345	310.9654	354.193	393.9173	423.9724	455.6999	498.6092	568.223	600.3326	651.325	730.8005	811.513	851.136	910.0778	915.2861	962.3667	991.6597	1042.7743	1063.3695	1082.4971	1108.689	1154.284	1187.7377	1206.0853	1255.2188	1274.697	1297.9852	1331.6187	1367.518	1390.5647	1429.276	1457.4819	1489.1429	1842.4948	2935.8313	3033.1481	3094.4855	3126.405	3191.1224	3222.9725	3714.0291	3794.2008
OC1C(=O)CC2CC12O	O[C@H]1C(=O)C[C@H]2C[C@@]12O	
InChI=1S/C6H8O3/c7-4-1-3-2-6(3,9)5(4)8/h3,5,8-9H,1-2H2	InChI=1S/C6H8O3/c7-4-1-3-2-6(3,9)5(4)8/h3,5,8-9H,1-2H2/t3-,5-,6-/m0/s1
