13
gdb 130748	3.45113	1.65038	1.12437	2.8025	65.23	-0.2704	-0.0452	0.2252	972.881	0.093338	-452.793918	-452.787631	-452.786687	-452.824744	23.953	
O	-0.0246694125	-0.0359392662	 0.0045765616	-0.355362
C	 0.03069856	 1.1600237478	 0.0094324803	 0.418555
O	-1.0878357872	 1.9662867256	 0.0288202532	-0.252107
C	-0.7542817881	 3.3765201358	 0.031210731	-0.198447
C	 0.7409908896	 3.3925207993	 0.0109366864	 0.179549
C	 1.1635100433	 2.0901682523	-0.0012548559	 0.191824
N	 2.5128386789	 2.0970247166	-0.0194487949	-0.341851
N	 2.9943597498	 3.3548154305	-0.0197637869	-0.197426
C	 1.9221672419	 4.156397917	-0.0013196839	-0.156806
H	-1.2182068897	 3.8343271775	-0.8487867226	 0.144542
H	-1.1939761768	 3.82557472	 0.9279990724	 0.14455
H	 3.1528959789	 1.32017745	-0.0319399043	 0.292777
H	 2.0645295918	 5.2261637539	 0.0020398835	 0.130203
163.0006	207.8843	264.3353	302.5308	540.6823	551.1465	626.2649	638.2191	664.5526	688.9021	774.7574	789.2758	877.4576	982.9939	1010.8168	1025.9867	1049.309	1114.4519	1145.3433	1196.9844	1240.2145	1328.0942	1343.1629	1400.9508	1468.7231	1501.1082	1544.3989	1594.8618	1876.8336	3045.8309	3083.8243	3257.9132	3669.965
O=C1OCC2=C1NN=C2	O=C1OCc2c1[nH]nc2	
InChI=1S/C5H4N2O2/c8-5-4-3(2-9-5)1-6-7-4/h1H,2H2,(H,6,7)	InChI=1S/C5H4N2O2/c8-5-4-3(2-9-5)1-6-7-4/h1H,2H2,(H,6,7)
