13
gdb 54655	4.12144	1.1475	0.90261	4.8392	60.54	-0.2723	-0.0653	0.207	1179.2601	0.089319	-489.961513	-489.953644	-489.9527	-489.994622	28.177	
N	-0.075559407	 1.2963355944	 0.0077647252	-0.527547
C	 0.0439512438	-0.0525958921	 0.0017942908	 0.337384
O	 1.080495193	-0.6787014633	-0.0094425473	-0.332971
C	-1.3043435301	-0.7383916272	 0.0100157317	 0.348986
N	-2.432470161	-0.1487264841	 0.0209363013	-0.306883
C	-3.4284537097	-1.2130181589	 0.0249930471	-0.319616
C	-2.6236217527	-2.5095192921	 0.0142552772	 0.409575
O	-2.9489043936	-3.6505817201	 0.0126062304	-0.294805
O	-1.2835849085	-2.1035746227	 0.0050652074	-0.21116
H	 0.7582366087	 1.8587610592	 0.0020681598	 0.274196
H	-0.9867248599	 1.7246990515	 0.0160630149	 0.282916
H	-4.0691304764	-1.1610575436	 0.9116962624	 0.169956
H	-4.0828487366	-1.1549296908	-0.8512503009	 0.169969
53.5477	131.0837	179.3296	222.3436	277.9825	366.1479	445.5812	496.6398	551.2907	564.6539	639.6275	643.794	719.5312	817.597	848.6172	921.3236	984.7386	1041.0024	1098.3991	1102.0063	1182.6903	1238.0855	1290.8923	1405.0586	1438.1126	1602.0453	1697.8202	1821.0555	1934.6003	3058.0908	3093.9203	3598.6142	3740.4109
NC(=O)C1=NCC(=O)O1	NC(=O)C1=NCC(=O)O1	
InChI=1S/C4H4N2O3/c5-3(8)4-6-1-2(7)9-4/h1H2,(H2,5,8)	InChI=1S/C4H4N2O3/c5-3(8)4-6-1-2(7)9-4/h1H2,(H2,5,8)
