17
gdb 28769	3.19958	1.71015	1.13018	3.9316	83.04	-0.196	-0.0199	0.1761	1048.5771	0.138887	-380.927958	-380.920677	-380.919733	-380.959598	28.123	
C	-0.0200656098	 1.4895539061	 0.1057570075	-0.501438
C	-0.009912396	 0.0045485603	 0.0036596338	 0.24717
C	-0.0291980153	-0.8520699469	-1.0812438736	-0.173493
N	-0.0085461845	-2.1769569435	-0.7017723166	-0.364592
C	 0.0235477251	-2.1271178327	 0.6119078211	 0.366272
C	 0.0593819286	-3.0221341767	 1.7547396844	-0.180982
C	 0.0807833248	-2.2811478077	 2.8771312847	-0.105196
C	 0.0597431377	-0.8004125157	 2.5382760928	-0.244356
N	 0.0242994292	-0.8404291486	 1.0885378966	-0.056318
H	 0.873621565	 1.8752200637	 0.6130610026	 0.128293
H	-0.0508260713	 1.9296462386	-0.8935748223	 0.14126
H	-0.8917222564	 1.8597975871	 0.6606276008	 0.128235
H	-0.0574064676	-0.5681102213	-2.123490225	 0.101401
H	 0.0668246307	-4.0998949737	 1.6835670617	 0.124594
H	 0.1090076121	-2.6380721211	 3.8966020944	 0.113962
H	-0.8200319877	-0.2910741176	 2.9522926895	 0.137595
H	 0.9500301655	-0.2759387904	 2.9086178375	 0.137594
140.8977	165.8356	193.2457	233.4126	310.7911	452.0455	515.8062	616.6845	630.7831	681.261	687.9992	779.3291	788.7635	828.5491	870.7708	940.245	950.3233	987.3776	1005.1552	1061.4503	1062.0879	1112.8083	1175.7915	1182.6755	1221.7804	1273.4563	1293.3097	1344.2147	1386.512	1418.7384	1433.4652	1477.4798	1484.5794	1499.4415	1552.2348	1585.7642	1625.0164	3013.1125	3021.8525	3051.2217	3055.9727	3122.9437	3235.0398	3236.8699	3257.1257
CC1=CN=C2C=CCN12	Cc1cnc2C=CCn12	
InChI=1S/C7H8N2/c1-6-5-8-7-3-2-4-9(6)7/h2-3,5H,4H2,1H3	InChI=1S/C7H8N2/c1-6-5-8-7-3-2-4-9(6)7/h2-3,5H,4H2,1H3
