17
gdb 22232	2.30809	1.1573	0.83532	14.5872	71.4	-0.1776	-0.0153	0.1622	1360.0395	0.134314	-492.198403	-492.188577	-492.187633	-492.234644	34.022	
C	 0.3573477626	 1.0467827159	 0.2909700337	-0.353352
N	-0.4571611617	 0.0623120996	-0.4674855538	-0.238913
H	-0.6172735334	-0.8007990997	 0.1306908395	 0.285609
H	-1.3447223995	 0.4702337124	-0.7521343812	 0.296772
C	 0.2679373951	-0.5770622664	-1.6487415956	-0.254848
C	 0.7029027525	-1.966719645	-1.2238684267	 0.242832
N	 0.197276698	-2.3181477702	-0.1055868409	-0.229459
O	 0.515641621	-3.5822883543	 0.3517396014	-0.352394
C	 1.6306169658	-2.6567363765	-2.2975653333	 0.32469
O	 2.1600604857	-3.7161673504	-1.9839465678	-0.43413
O	 1.6476261373	-1.9317571212	-3.3171247872	-0.479025
H	 1.2713152961	 0.5448145044	 0.6100083374	 0.198109
H	 0.6031555893	 1.8907520905	-0.3545034168	 0.178296
H	-0.2016718022	 1.3892158989	 1.1634716567	 0.163933
H	-0.411995754	-0.6229892651	-2.4993011588	 0.174107
H	 1.12137289	 0.0352857023	-1.9350761731	 0.177354
H	 0.0269706573	-3.6394216953	 1.1811896966	 0.300417
26.0073	63.5965	100.8359	182.066	210.5758	242.5222	282.9626	293.3461	339.5696	403.5212	417.0829	461.3385	587.8052	682.8211	772.7224	784.2712	823.7926	892.2345	957.4293	1026.5268	1075.413	1107.066	1139.1482	1175.0589	1233.8066	1282.999	1306.6515	1384.7837	1397.9208	1427.7766	1457.6643	1466.3463	1498.6386	1499.3718	1600.0524	1708.6982	1809.9361	2825.128	3072.2509	3117.0419	3161.7962	3173.2178	3173.4956	3514.9369	3796.9137
C[NH2+]CC(=NO)C([O-])=O	C[NH2]CC(=NO)C(=O)[O]	
InChI=1S/C4H8N2O3/c1-5-2-3(6-9)4(7)8/h5,9H,2H2,1H3,(H,7,8)	InChI=1S/C4H8N2O3/c1-5-2-3(6-9)4(7)8/h9H,2,5H2,1H3
