23
gdb 60973	2.21739	1.15744	0.9228	2.5852	87.	-0.2411	-0.0171	0.224	1406.5066	0.202336	-388.300136	-388.289286	-388.288342	-388.336522	39.456	
C	-0.2706183551	 1.4640885768	 0.1121390673	-0.410064
C	 0.0244795409	-0.0325536911	-0.0951169366	-0.092106
C	 0.8571905691	-0.2188893667	-1.3503358424	 0.173741
O	 0.5261584488	-0.8468220556	-2.3226454226	-0.255392
C	 0.7841040203	-0.6107211639	 1.0920690052	-0.031277
C	 0.0528741945	-1.1317363526	 2.311207775	-0.345407
C	 0.8330995646	-2.0874399767	 1.4361329064	 0.337465
C	 0.0680089543	-3.0995583206	 0.6017121331	-0.458419
C	 2.1488303863	-2.6177665003	 1.9776778879	-0.450454
H	 0.6576821739	 2.0424173652	 0.1839054943	 0.119599
H	-0.860319105	 1.872066123	-0.7143083758	 0.12587
H	-0.8277101071	 1.6127848523	 1.0414970036	 0.129315
H	-0.9137622977	-0.5717269193	-0.2521377991	 0.091539
H	 1.852198753	 0.2886619336	-1.3079295398	 0.06543
H	 1.7042563192	-0.0678504784	 1.3041205245	 0.079008
H	 0.4413968399	-0.881635743	 3.2932772925	 0.108476
H	-1.031203367	-1.1745882799	 2.2620042686	 0.108509
H	-0.9084006233	-2.7279475999	 0.2818468474	 0.119117
H	 0.6267820338	-3.3771534405	-0.2989402319	 0.128316
H	-0.1037468827	-4.0136650663	 1.1818933152	 0.113446
H	 1.9848951526	-3.4935358786	 2.6166680932	 0.115465
H	 2.8170353109	-2.9229997463	 1.1637236131	 0.117499
H	 2.6713562858	-1.8633669612	 2.574379051	 0.110324
46.2208	49.2314	130.8481	163.4589	205.9103	220.8885	227.7967	274.667	316.3691	328.9503	363.425	373.0431	440.3159	499.7363	534.2408	704.6005	811.203	870.9752	899.3714	919.2663	945.4186	962.0195	973.2496	989.2929	1037.1471	1063.3551	1083.1261	1105.8057	1124.9197	1155.6659	1158.1364	1191.8432	1260.1745	1289.8002	1324.4188	1339.9592	1401.1841	1414.8539	1421.6947	1429.4457	1430.5305	1480.6117	1491.3142	1492.5195	1496.5305	1498.1031	1500.5523	1514.4079	1833.3276	2831.8625	3020.3964	3029.7849	3032.7625	3073.9479	3080.7174	3087.6722	3097.2674	3102.1119	3112.1028	3115.7452	3116.5137	3120.8061	3203.7816
CC(C=O)C1CC1(C)C	C[C@@H](C=O)[C@H]1CC1(C)C	
InChI=1S/C8H14O/c1-6(5-9)7-4-8(7,2)3/h5-7H,4H2,1-3H3	InChI=1S/C8H14O/c1-6(5-9)7-4-8(7,2)3/h5-7H,4H2,1-3H3/t6-,7+/m0/s1
