15
gdb 44595	3.49753	1.81275	1.46846	4.9828	70.64	-0.1872	-0.0241	0.1632	868.2655	0.115492	-416.770337	-416.76386	-416.762916	-416.800933	26.336	
O	 0.1604346627	 0.0375507378	 0.3698190307	-0.355195
C	 0.1594046701	 1.1808307102	-0.0001641936	 0.371184
N	-0.8885664264	 2.1080765456	 0.2417749333	-0.333226
C	-0.7229509592	 3.3162314957	-0.5454586888	-0.015119
C	 0.4947201993	 4.3079521267	-0.4248815744	-0.038684
N	 1.6012749991	 4.055248412	 0.4751745118	-0.256281
C	 1.8409268481	 2.7119874954	 0.4240765558	 0.026267
C	 1.22834144	 2.0741979291	-0.6318261476	-0.210904
C	 0.4855042313	 3.176047128	-1.4034635686	-0.124353
H	-1.8216345748	 1.7392036902	 0.3712551206	 0.240716
H	-1.6376810063	 3.774726217	-0.9035234377	 0.10382
H	 0.3269761911	 5.33938283	-0.7109398136	 0.106018
H	 1.7161650364	 4.5607780778	 1.3389795287	 0.257251
H	 2.3239813519	 2.2288112253	 1.2670657036	 0.1402
H	 0.5316924065	 3.2522732292	-2.4852848002	 0.088306
143.0619	227.7446	333.2731	392.1199	434.2159	527.1382	582.3907	618.9041	698.5022	716.9649	753.9057	762.7342	821.9671	843.7849	864.1197	928.5635	965.7572	1004.5991	1022.0827	1044.3382	1063.1316	1096.489	1137.8764	1153.995	1186.0904	1248.356	1285.5119	1331.4001	1353.0054	1408.0672	1447.7873	1530.3732	1844.8703	3140.6237	3175.1867	3192.3206	3196.4907	3577.7359	3639.7858
O=C1NC2C3NC=C1C23	O=C1N[C@H]2[C@H]3N[CH][C]1[C@@H]23	
InChI=1S/C6H6N2O/c9-6-2-1-7-4-3(2)5(4)8-6/h1,3-5,7H,(H,8,9)	InChI=1S/C6H6N2O/c9-6-2-1-7-4-3(2)5(4)8-6/h1,3-5,7H,(H,8,9)/t3-,4+,5-/m1/s1
