20
gdb 16570	2.85977	2.46922	2.02287	1.4025	72.43	-0.2378	0.0766	0.3144	802.0773	0.181859	-349.036021	-349.029627	-349.028683	-349.066143	26.819	
C	-0.0331907916	 1.5777002817	-0.0642228716	-0.226146
C	 1.4691661514	 1.9721243585	-0.0768438618	-0.226132
C	 2.190598807	 0.6054803642	 0.0171762529	 0.102968
C	 2.4680413599	 0.1616858619	 1.4618321809	-0.200512
C	 1.165029624	 0.147144056	 2.2841992395	-0.206279
C	 0.0102237944	-0.4836083352	 1.4823772072	-0.200514
C	 0.0112707005	 0.0333077856	 0.035393699	 0.102976
O	 1.2613357328	-0.3105997505	-0.5718652785	-0.263743
H	-0.5852043275	 2.0303950448	 0.7639464116	 0.098734
H	-0.5242891569	 1.8821479719	-0.9913432164	 0.103112
H	 1.7327669896	 2.4745977498	-1.0103625605	 0.103114
H	 1.7405692952	 2.6410914184	 0.7443371319	 0.098732
H	 3.1044146727	 0.567704121	-0.5819289463	 0.070656
H	 2.8988244828	-0.8455874332	 1.4224317379	 0.100782
H	 3.2139735096	 0.8159357088	 1.9285589336	 0.088747
H	 1.3133854692	-0.3878798685	 3.2279709515	 0.094443
H	 0.8975534982	 1.1746990416	 2.5596791936	 0.098878
H	 0.1292094751	-1.572743113	 1.4455913457	 0.100781
H	-0.953482121	-0.278212626	 1.963391591	 0.088747
H	-0.7753895954	-0.4509080878	-0.5495095411	 0.070656
168.277	251.5148	328.4868	368.4282	443.0864	476.4113	568.7427	729.6165	770.4674	784.9852	806.8782	839.7644	867.4249	889.5631	891.3951	955.7517	962.0786	996.1624	1005.1722	1044.808	1062.5816	1096.4767	1098.3333	1178.3014	1179.6933	1211.1369	1250.8439	1252.9239	1277.5214	1299.2436	1321.5447	1342.9871	1347.9501	1365.9117	1373.9729	1388.6176	1395.1911	1473.3007	1482.3027	1489.641	1495.7362	1514.9857	3025.0104	3028.2715	3029.3099	3056.602	3062.8332	3064.0594	3070.2874	3071.4973	3079.1073	3080.0626	3095.6022	3115.9384
C1CC2CCCC1O2	C1C[C@H]2CCC[C@@H]1O2	
InChI=1S/C7H12O/c1-2-6-4-5-7(3-1)8-6/h6-7H,1-5H2	InChI=1S/C7H12O/c1-2-6-4-5-7(3-1)8-6/h6-7H,1-5H2/t6-,7+
