16
gdb 26823	3.46486	1.12031	0.85233	6.1231	82.82	-0.2029	-0.0493	0.1536	1298.971	0.124699	-434.122675	-434.113851	-434.112906	-434.156304	31.761	
C	-0.0314286976	 1.5121284668	 0.1272080617	-0.517876
C	-0.0050436446	 0.0298279558	-0.0158353461	 0.262669
C	-0.0371148585	-0.7896794793	-1.1441330838	 0.221107
N	-0.1523195323	-0.3837154176	-2.4749104661	-0.6008
N	-0.0170183978	-2.0989869727	-0.7991504014	-0.327259
C	 0.0305680451	-2.1240810994	 0.5297555923	 0.240164
N	 0.0507130712	-0.8487746974	 1.0323051193	-0.331577
C	 0.0658105062	-3.2755346401	 1.4189687776	 0.081345
O	 0.0450914586	-4.4368584572	 1.0827895519	-0.267671
H	 0.9666877912	 1.9441794732	 0.2778815183	 0.137961
H	-0.4528550109	 1.959163871	-0.7774741868	 0.151125
H	-0.6555710931	 1.8270939025	 0.9708025021	 0.134589
H	 0.4984794331	 0.3438834463	-2.7398713518	 0.24511
H	-0.0556959346	-1.1784066434	-3.0945781742	 0.256744
H	 0.0853021176	-0.60019378	 2.0082997894	 0.268167
H	 0.1175966965	-2.9848687686	 2.4972259075	 0.046204
99.3997	109.611	169.1704	203.4203	228.2788	247.6606	263.2911	377.0936	422.5905	507.107	548.2795	639.6122	672.4487	704.4508	734.7362	787.3683	840.8131	998.8802	1005.4273	1038.794	1057.9196	1122.8628	1187.9406	1249.9498	1334.8041	1393.2563	1418.6275	1466.317	1482.2686	1485.6688	1499.0308	1535.5304	1622.3393	1645.5083	1795.5818	2822.0647	3015.5347	3070.4594	3113.2827	3540.8026	3633.4347	3645.0568
CC1=C(N)N=C(N1)C=O	Cc1c(N)nc([nH]1)C=O	
InChI=1S/C5H7N3O/c1-3-5(6)8-4(2-9)7-3/h2H,6H2,1H3,(H,7,8)	InChI=1S/C5H7N3O/c1-3-5(6)8-4(2-9)7-3/h2H,6H2,1H3,(H,7,8)
