15
gdb 130414	2.93586	1.35092	0.93492	1.5988	72.55	-0.2569	-0.0686	0.1883	1187.3922	0.113569	-450.095536	-450.08736	-450.086415	-450.129248	29.275	
N	-0.2065274012	 1.4272675474	-0.1667280111	-0.484921
C	 0.0207506672	 0.0041033039	-0.028023716	-0.253257
C	 0.8804621505	-0.4188922651	 1.1495167839	 0.416144
N	 1.3777609058	 0.419054764	 1.9728439923	-0.327902
C	 2.1544426141	-0.083085701	 3.0214018444	 0.311065
N	 2.6749136082	 0.7146534472	 3.8719096318	-0.484564
C	 2.2995681267	-1.5483471245	 3.0369299609	-0.004178
N	 1.7861917657	-2.3622898525	 2.1939330677	-0.061372
O	 1.0208261617	-1.7696111553	 1.1739590244	-0.257299
H	-0.6289050752	 1.7843423671	 0.6858619796	 0.242855
H	 0.6879988143	 1.9052239167	-0.2315205293	 0.242875
H	-0.9384538406	-0.5214565566	 0.0578625528	 0.1467
H	 0.4900593635	-0.3903566529	-0.9378699163	 0.146692
H	 3.2085671851	 0.1908694672	 4.5681529405	 0.221949
H	 2.887474464	-2.0283041955	 3.8169640245	 0.145215
56.691	82.0616	156.4519	181.5415	248.8631	401.3799	404.6207	457.2705	544.165	579.4464	626.2615	727.5191	763.5236	872.9944	878.7811	910.9868	921.1754	956.0733	967.2135	990.6161	1139.4823	1150.7066	1186.16	1189.0171	1315.7814	1367.2485	1390.4858	1402.003	1457.4163	1642.2088	1679.6011	1701.9958	1708.3087	3035.9595	3069.2707	3160.1779	3463.126	3498.8465	3565.5514
NCC1=NC(=N)C=NO1	NCC1=N[C]([NH])C=NO1	
InChI=1S/C4H6N4O/c5-1-4-8-3(6)2-7-9-4/h2,6H,1,5H2	InChI=1S/C4H6N4O/c5-1-4-8-3(6)2-7-9-4/h2,6H,1,5H2
