14
gdb 131297	3.95828	0.99778	0.90848	3.3999	68.91	-0.2348	-0.0023	0.2325	1246.6327	0.102362	-432.892299	-432.884468	-432.883524	-432.925842	28.333	
O	 0.2501599474	 1.3061168877	 0.1267806706	-0.422312
C	 0.1131235292	-0.0310719567	 0.0727138111	 0.451753
N	 0.3370100331	-0.7134544339	-1.0399356292	-0.371448
N	 0.1209182949	-2.0097758836	-0.6800911928	 0.048715
C	 0.1585529313	-3.0339856051	-1.6934415702	-0.289475
C	-1.1174787918	-3.1967061438	-2.411531968	 0.278902
N	-2.1171104574	-3.3409870176	-2.9710402119	-0.292534
C	-0.2517467778	-2.1259152063	 0.6199399013	-0.003512
C	-0.2601070329	-0.859408925	 1.1566366979	-0.325269
H	 0.4982309053	 1.6069060676	-0.7566351199	 0.307967
H	 0.9412044539	-2.7741709055	-2.4112170965	 0.182735
H	 0.4269150751	-3.9880946469	-1.2298893929	 0.169137
H	-0.4750607941	-3.0870824163	 1.0565830467	 0.143348
H	-0.4839608463	-0.5662279545	 2.1679324941	 0.121994
38.1491	73.3443	233.3226	285.2293	331.1248	365.718	418.4042	459.9813	488.1831	612.5134	689.6683	716.7289	766.1104	777.0587	834.7861	919.7586	960.2955	1003.7737	1038.0561	1072.0448	1199.1483	1216.7249	1277.7782	1358.2146	1377.848	1434.3475	1449.8995	1474.6405	1563.497	1605.5545	2367.2026	3066.684	3115.8743	3256.5702	3288.2472	3795.0733
OC1=NN(CC#N)C=C1	Oc1nn(CC#N)cc1	
InChI=1S/C5H5N3O/c6-2-4-8-3-1-5(9)7-8/h1,3H,4H2,(H,7,9)	InChI=1S/C5H5N3O/c6-2-4-8-3-1-5(9)7-8/h1,3H,4H2,(H,7,9)
