18
gdb 108549	2.77157	1.73362	1.28519	3.3489	71.18	-0.2377	0.077	0.3146	999.54	0.149547	-439.009268	-439.002018	-439.001074	-439.040923	29.02	
O	 0.0164164339	 1.3980747864	 0.1141603622	-0.422202
C	 0.0309966553	-0.0113303263	-0.0379979299	-0.168265
C	-1.3601064882	-0.5768110695	 0.0254691245	 0.499647
O	-2.1763923641	-0.013874691	-0.986739601	-0.339972
C	-3.4608457993	-0.6287177322	-0.763654176	-0.11575
C	-3.1417163672	-1.5191037054	 0.4248817478	-0.084009
C	-1.6959018009	-2.0872946251	 0.2145695986	-0.123101
N	-1.3531476102	-1.9466088151	 1.6762698033	-0.338735
C	-2.1686177217	-0.7196715905	 1.3532475429	-0.104362
H	-0.6191262529	 1.7316512851	-0.5294707424	 0.291025
H	 0.5008683526	-0.309472169	-0.9888293522	 0.090409
H	 0.6192840858	-0.4265765174	 0.7832436092	 0.135941
H	-4.2120217887	 0.1399248392	-0.5455350618	 0.10961
H	-3.7689849677	-1.1802814503	-1.6597915196	 0.109758
H	-3.9171265049	-2.151585697	 0.8584839106	 0.076926
H	-1.3790080731	-2.940328334	-0.3874682966	 0.082677
H	-1.9298481904	-2.5959697957	 2.2175532457	 0.211262
H	-2.4020085482	 0.0462334676	 2.0930900045	 0.08914
105.2234	160.0527	272.6714	311.9941	352.2857	421.9591	457.9523	526.1589	666.5559	710.2635	728.2487	766.3453	837.6559	882.6035	908.8427	932.2951	955.7769	962.7712	1016.7678	1025.0823	1059.2478	1064.6173	1088.7117	1115.5423	1132.4903	1154.2665	1162.2867	1216.5294	1225.7029	1246.0437	1270.3647	1287.5847	1316.2085	1351.9847	1375.4629	1379.7322	1445.7793	1498.1469	1519.9366	2980.4122	3024.156	3064.1685	3104.0522	3113.5995	3114.4599	3124.5259	3403.9506	3801.9361
OCC12OCC3C1NC23	OC[C@@]12OC[C@H]3[C@@H]1N[C@@H]23	
InChI=1S/C6H9NO2/c8-2-6-4-3(1-9-6)5(6)7-4/h3-5,7-8H,1-2H2	InChI=1S/C6H9NO2/c8-2-6-4-3(1-9-6)5(6)7-4/h3-5,7-8H,1-2H2/t3-,4-,5+,6+
