21
gdb 17654	3.37698	1.70206	1.48961	1.008	78.24	-0.2219	0.0858	0.3077	969.2248	0.188588	-329.087178	-329.078999	-329.078054	-329.119405	31.977	
C	-0.138576528	 1.3869839286	-0.344472924	-0.422302
C	 0.0733463448	-0.0892024894	-0.0108486194	 0.355239
C	 1.1744130258	-0.7337599297	-0.9302465423	-0.271942
C	 2.2006742565	-0.5174970713	 0.2152504673	-0.215744
C	 1.0228666401	-0.2999057013	 1.2019617421	-0.249706
N	-1.2471073564	-0.6904324767	 0.1489121297	-0.109849
C	-1.9206250762	-1.2343609723	-1.022076184	-0.22774
C	-1.4294161427	-2.1298822158	 0.0638791218	-0.235488
H	 0.8156138586	 1.917826041	-0.4182703222	 0.109173
H	-0.6588934071	 1.4943932857	-1.302634637	 0.111335
H	-0.7465779493	 1.8643089099	 0.4294541753	 0.121546
H	 1.0068142242	-1.7956289325	-1.1287354977	 0.098626
H	 1.3681081443	-0.2344742723	-1.8833435242	 0.09271
H	 2.8776237589	-1.3467112185	 0.4312360547	 0.096895
H	 2.8012585214	 0.384197105	 0.0723404774	 0.103886
H	 1.0973267629	 0.5216312709	 1.9191687672	 0.09531
H	 0.7685066728	-1.2149252714	 1.7438953786	 0.101299
H	-2.9779870573	-1.0031002624	-1.1203160187	 0.113451
H	-1.372129999	-1.2634279731	-1.9626759049	 0.110869
H	-0.5772000406	-2.7665884624	-0.1647523849	 0.108937
H	-2.1229096736	-2.553535632	 0.785560285	 0.113494
87.7291	134.4206	208.2937	259.0873	269.5873	307.6782	361.5149	459.0522	479.6721	557.6566	700.9711	789.2534	803.0778	844.2119	859.9401	905.2429	919.0567	926.2055	943.9101	984.5756	999.0817	1020.8083	1045.3942	1108.1442	1115.4641	1151.0351	1163.0998	1181.981	1198.0575	1200.6388	1212.5122	1250.278	1274.6888	1284.2417	1290.8447	1336.2744	1405.7468	1468.2796	1478.5471	1485.871	1492.484	1498.8432	1507.1638	1520.5687	3032.2414	3052.5658	3056.4247	3067.2812	3090.2578	3095.3572	3099.1178	3099.9657	3106.075	3114.4174	3122.8224	3169.3227	3183.7278
CC1(CCC1)N1CC1	CC1(CCC1)N1CC1	
InChI=1S/C7H13N/c1-7(3-2-4-7)8-5-6-8/h2-6H2,1H3	InChI=1S/C7H13N/c1-7(3-2-4-7)8-5-6-8/h2-6H2,1H3
