21
gdb 72868	3.03025	1.12531	0.9681	3.1438	83.66	-0.2426	-0.0196	0.223	1294.6524	0.18165	-387.081135	-387.072216	-387.071272	-387.115325	33.721	
C	-0.6819334593	 1.5229362646	-0.0090199103	-0.494246
C	-0.0909248219	 0.1308942162	-0.0246125422	 0.38852
C	-1.0885727435	-1.0653690942	 0.0965133344	-0.280594
C	-0.3386847565	-1.5788223608	 1.3634423472	-0.223819
C	 0.740245083	-0.4918617084	 1.1616833963	-0.090696
C	 1.8665092298	-0.898613825	 0.1504890723	-0.066299
C	 1.0909349156	-0.1492782902	-0.985577899	-0.314423
C	 3.2151242029	-0.3157699983	 0.4621495914	 0.157943
O	 4.2389330694	-0.9408329102	 0.5712900071	-0.258944
H	 0.0961911581	 2.2889744522	 0.0853765082	 0.112993
H	-1.2341834608	 1.7235484539	-0.9357587245	 0.119177
H	-1.3812081622	 1.6520835155	 0.8249245754	 0.11523
H	-2.1230408464	-0.7635923444	 0.2794402668	 0.102092
H	-1.0824290482	-1.7480308422	-0.7581173964	 0.098796
H	-0.9146828622	-1.4300830787	 2.2803539224	 0.104536
H	 0.0115216341	-2.6145128109	 1.3461072801	 0.103081
H	 1.0627758688	 0.0817567704	 2.0338565129	 0.067261
H	 1.9749208649	-1.9765808383	 0.0121894784	 0.087841
H	 0.8767102142	-0.7344629368	-1.8839419965	 0.105779
H	 1.6029934636	 0.7703348272	-1.2907958855	 0.101551
H	 3.2068346764	 0.7940296182	 0.5967350413	 0.064219
50.2385	70.3399	184.1069	220.0704	270.7423	294.511	317.9883	357.1237	411.8379	454.4301	620.5303	649.2187	751.3185	818.5222	852.9348	861.0458	890.5574	914.2423	947.7949	955.6946	993.3709	1018.8739	1032.5802	1044.1939	1101.7952	1149.311	1164.2965	1186.8298	1213.4727	1236.1518	1237.0872	1247.7413	1255.8068	1277.7193	1282.54	1328.3792	1339.7521	1412.4647	1432.5814	1473.2618	1480.1334	1490.5692	1491.8294	1498.4521	1828.2292	2828.7129	3016.0813	3035.7677	3050.877	3057.0616	3077.3283	3079.3946	3084.3416	3087.378	3094.8523	3098.7925	3113.9131
CC12CCC1C(C2)C=O	C[C@]12CC[C@H]1[C@@H](C2)C=O	
InChI=1S/C8H12O/c1-8-3-2-7(8)6(4-8)5-9/h5-7H,2-4H2,1H3	InChI=1S/C8H12O/c1-8-3-2-7(8)6(4-8)5-9/h5-7H,2-4H2,1H3/t6-,7-,8+/m0/s1
