18
gdb 89446	2.57561	1.74872	1.30198	2.2825	70.76	-0.2494	0.0043	0.2536	1007.6337	0.148235	-439.093877	-439.086008	-439.085064	-439.126054	30.832	
C	-0.1301801016	 1.5509300172	 0.3063521624	-0.473076
C	 0.0811455584	 0.0889315477	-0.0020110424	 0.401473
C	-1.1434191238	-0.8653837763	 0.0131572403	-0.32785
C	-0.5014938638	-1.6582626266	 1.2040419946	 0.163
O	-0.4165126689	-3.0504000009	 1.1260712664	-0.437548
C	 0.8175155339	-0.8562836953	 0.9985622242	-0.106556
N	 1.7887908271	-1.5821129911	 0.1652830851	-0.289864
C	 1.7271695003	-1.0463794995	-0.9882354218	 0.106681
O	 0.8643972482	-0.0407793081	-1.2303724869	-0.248174
H	 0.8273360066	 2.0715106379	 0.4013067751	 0.130116
H	-0.7119641523	 2.0360651734	-0.4837542548	 0.133937
H	-0.6785261559	 1.6612951352	 1.2469171812	 0.126572
H	-2.1121809588	-0.3999614215	 0.2088019852	 0.106749
H	-1.2137795067	-1.4625297363	-0.8985592982	 0.11392
H	-0.9857470701	-1.4108892519	 2.1541656074	 0.086578
H	 0.3696655808	-3.2479936313	 0.5986145522	 0.290435
H	 1.3052143015	-0.4496073993	 1.8889463507	 0.079124
H	 2.3392691851	-1.3313018734	-1.8378047507	 0.144483
84.4204	219.0045	225.704	251.5537	300.0228	356.1701	406.1313	426.385	507.9557	570.1601	616.5721	684.6858	792.3664	833.8823	836.9673	895.5113	926.3436	946.9044	959.6704	979.1229	1042.9074	1057.7067	1126.9844	1143.2513	1170.2235	1202.8447	1205.2398	1218.4823	1259.9143	1298.4314	1327.8344	1339.4586	1344.7814	1414.6389	1439.1742	1469.2443	1483.2097	1493.5274	1671.3633	3038.5428	3053.2037	3067.123	3071.693	3110.9246	3115.7785	3129.789	3207.9379	3743.803
CC12CC(O)C1N=CO2	C[C@]12C[C@@H](O)[C@H]1N=CO2	
InChI=1S/C6H9NO2/c1-6-2-4(8)5(6)7-3-9-6/h3-5,8H,2H2,1H3	InChI=1S/C6H9NO2/c1-6-2-4(8)5(6)7-3-9-6/h3-5,8H,2H2,1H3/t4-,5-,6+/m1/s1
