14
gdb 69395	3.32612	1.3202	1.04215	5.5775	65.16	-0.2567	-0.0377	0.219	1090.7003	0.099129	-473.820114	-473.811984	-473.81104	-473.853094	29.308	
O	-0.056204261	 1.4416635256	-0.1522941556	-0.438845
C	-0.0060186361	 0.0883231605	 0.0439711753	 0.243635
C	-0.2966374201	-0.9358438683	-1.0600844092	-0.352013
C	-1.1730903113	-0.8718513581	 0.1572578909	-0.076399
N	-0.5000432127	-1.5382018484	 1.2814962926	-0.127845
C	-0.6561689051	-2.8292123703	 1.7532152926	 0.144261
O	 0.0720399332	-3.3707181366	 2.5424721226	-0.271677
C	 0.6054773039	-0.6225858121	 1.2551184748	 0.373052
O	 1.5624164494	-0.4923322651	 1.9479899696	-0.310731
H	 0.7490883417	 1.7197338151	-0.6035167364	 0.306494
H	-0.7023029798	-0.474195252	-1.956050111	 0.139898
H	 0.3464041027	-1.7949274597	-1.2242381337	 0.138667
H	-2.2296622455	-0.6461586427	 0.1854144884	 0.143906
H	-1.5651053092	-3.2999015278	 1.3257103992	 0.087598
75.3271	160.389	178.1341	211.2441	232.8095	292.7648	348.7103	453.4484	498.3622	535.4983	666.8262	688.9801	764.8599	867.4481	906.7645	935.3426	952.9148	982.4678	1033.6621	1049.5337	1076.9329	1128.7801	1207.0594	1238.552	1293.8907	1358.5537	1423.6433	1431.6843	1492.8119	1810.0849	1928.2573	2925.9324	3120.1617	3214.9563	3227.1391	3798.5903
OC12CC1N(C=O)C2=O	O[C@]12C[C@H]1N(C=O)C2=O	
InChI=1S/C5H5NO3/c7-2-6-3-1-5(3,9)4(6)8/h2-3,9H,1H2	InChI=1S/C5H5NO3/c7-2-6-3-1-5(3,9)4(6)8/h2-3,9H,1H2/t3-,5-/m1/s1
