20
gdb 88235	4.21394	0.7005	0.66202	1.7323	92.55	-0.219	0.0361	0.2552	1769.3459	0.170081	-365.939385	-365.92986	-365.928916	-365.97555	34.571	
C	-1.012088673	 0.2763766757	 0.455905875	-0.307697
N	 0.2332230445	-0.3320619546	 0.0067770501	-0.078675
C	 1.2679330816	 0.5652370113	-0.4704045634	-0.238301
C	 1.438537683	-0.145239231	 0.8424328914	-0.178616
C	 1.4094750676	 0.594101312	 2.0741010767	 0.104397
C	 1.3956545102	 1.173036149	 3.1338898822	 0.059364
C	 1.3815271203	 1.8638941125	 4.3894167379	-0.158782
C	 2.5331431531	 2.7833999467	 4.7705267172	-0.249849
C	 1.1977630615	 3.373980264	 4.4327101695	-0.25117
H	-0.8785196688	 1.2484333559	 0.9528957164	 0.11218
H	-1.6625951623	 0.4116449222	-0.4137754779	 0.120714
H	-1.5104243579	-0.4002690627	 1.1566073453	 0.125464
H	 1.8305878939	 0.2346398567	-1.3398241513	 0.117045
H	 1.084563572	 1.6373582492	-0.4174289204	 0.112842
H	 2.0756422977	-1.0271691058	 0.8563562121	 0.110229
H	 0.9314966238	 1.314456376	 5.2116303384	 0.110122
H	 2.8505132863	 2.7740831365	 5.8071087288	 0.119124
H	 3.3353679207	 2.8894540298	 4.0503485507	 0.127439
H	 1.0905451778	 3.8832095282	 3.482526462	 0.125278
H	 0.5884134779	 3.7752234182	 5.2346288494	 0.118893
18.7407	78.2596	85.4737	167.4515	197.9685	230.5719	329.8522	358.551	412.3441	509.2283	552.6655	561.1695	688.296	749.516	791.0378	823.4031	841.1824	894.7542	901.0695	974.237	1028.0097	1048.135	1062.0487	1080.0171	1100.9895	1115.2139	1119.0224	1127.8835	1164.7382	1196.1139	1201.32	1208.3938	1235.9116	1321.7554	1365.1738	1403.283	1447.1186	1467.0538	1488.2399	1493.3861	1497.3463	1506.5355	2346.7836	2994.8762	3076.6648	3091.2032	3108.2545	3121.5119	3139.9456	3141.0091	3146.6236	3180.021	3225.7518	3240.93
CN1CC1C#CC1CC1	CN1C[C@H]1C#CC1CC1	
InChI=1S/C8H11N/c1-9-6-8(9)5-4-7-2-3-7/h7-8H,2-3,6H2,1H3	InChI=1S/C8H11N/c1-9-6-8(9)5-4-7-2-3-7/h7-8H,2-3,6H2,1H3/t8-,9?/m1/s1
