20
gdb 65735	2.84378	1.26205	1.16596	3.4767	80.03	-0.2417	0.0167	0.2584	1159.7478	0.17116	-403.190895	-403.182018	-403.181074	-403.224365	33.893	
C	-0.2785628431	 1.7285612812	 0.0688884067	-0.442642
C	 0.1194713154	 0.2504730666	 0.0063739137	 0.312539
C	 1.0985850635	-0.084720893	-1.163683347	-0.279521
C	 1.9827719148	-1.1629959423	-0.5882334087	-0.05903
C	 1.8663300816	-1.2493440934	 0.7355358696	-0.073589
C	 0.8839475599	-0.2351508295	 1.2718828005	-0.314141
N	-1.0882940716	-0.5923874224	-0.1109529879	-0.299266
C	-1.9707296049	-0.5606800564	-1.1397672659	 0.156543
O	-1.9258478391	 0.188135127	-2.0965539825	-0.336459
H	 0.6127004963	 2.3549030608	 0.1720974675	 0.109687
H	-0.8097342534	 2.0153091707	-0.8401285524	 0.156932
H	-0.932013688	 1.9160736669	 0.9271797586	 0.108928
H	 0.555482791	-0.3749377158	-2.065434887	 0.135599
H	 1.6926007106	 0.7997054845	-1.4322849184	 0.106325
H	 2.6515806802	-1.7595287278	-1.1987511499	 0.095534
H	 2.425781215	-1.9194468044	 1.3783571461	 0.093393
H	 1.4061984557	 0.6054731671	 1.7480100621	 0.115041
H	 0.2014186357	-0.6310898571	 2.0351227376	 0.095606
H	-1.2233264432	-1.313135547	 0.5800235768	 0.244664
H	-2.7726593263	-1.3168677659	-1.0096434292	 0.073855
79.5402	97.7113	191.4761	216.6652	259.7354	303.0241	358.4345	379.1975	418.3298	436.7285	502.0684	603.364	685.0872	764.6229	773.5673	843.406	902.0521	905.7045	955.6748	974.8191	977.4805	979.8466	1010.4046	1029.5974	1106.4456	1126.7902	1154.5124	1166.0955	1198.3957	1230.0902	1277.5075	1293.8835	1341.4474	1365.4416	1406.0585	1432.2919	1478.1345	1486.6873	1491.3603	1512.5526	1522.319	1686.9327	1793.9794	2915.4389	3014.1859	3017.5186	3039.482	3041.8726	3105.469	3108.2044	3144.6035	3184.2935	3209.5112	3630.3389
CC1(CC=CC1)NC=O	C[C@]1(CC=CC1)NC=O	
InChI=1S/C7H11NO/c1-7(8-6-9)4-2-3-5-7/h2-3,6H,4-5H2,1H3,(H,8,9)	InChI=1S/C7H11NO/c1-7(8-6-9)4-2-3-5-7/h2-3,6H,4-5H2,1H3,(H,8,9)
