19
gdb 72093	2.87152	1.73555	1.57037	1.3991	73.57	-0.2173	0.0848	0.3021	950.3798	0.161424	-423.01793	-423.010714	-423.00977	-423.049202	29.248	
C	-0.0980989909	 1.5430704723	-0.0018184209	-0.494808
C	-0.0297686299	 0.0384286576	-0.0182780401	 0.234027
C	 0.976777773	-0.6868140348	-0.9047328409	-0.276987
C	 0.4343080905	-2.1294872497	-0.8497683856	 0.019077
C	 0.7814432964	-2.7657395235	 0.4938319024	-0.056712
O	 0.424881645	-1.8922212855	 1.5674869058	-0.276056
C	-0.3881604664	-0.8127290343	 1.1902920052	 0.041045
C	-1.2449764204	-0.8811052178	-0.048294459	 0.012539
O	-0.9927824853	-1.9822215883	-0.8912647077	-0.262406
H	 0.8286898514	 1.9826942025	 0.3851159824	 0.121468
H	-0.2633975537	 1.943495492	-1.0094212973	 0.118368
H	-0.9177267957	 1.8964873989	 0.6325462187	 0.116767
H	 0.9481555703	-0.287803663	-1.9242271292	 0.104549
H	 2.0048903956	-0.6262184308	-0.5338298173	 0.1083
H	 0.735154055	-2.767876107	-1.682617537	 0.08707
H	 0.2352953829	-3.7133283108	 0.5932614633	 0.104956
H	 1.8569285385	-2.9715863212	 0.5715409593	 0.098875
H	-0.7799492897	-0.3151376959	 2.0714617569	 0.100312
H	-2.2765892367	-0.5500015607	-0.080601219	 0.099618
155.7743	195.7824	229.4575	280.3113	358.7711	402.1446	517.318	531.5995	610.1248	672.4958	721.2856	780.1191	847.0797	869.3733	886.1714	917.4523	925.8909	980.9624	1005.4313	1031.2272	1041.8862	1053.1766	1092.6825	1116.1878	1124.0473	1175.6945	1202.2485	1224.3614	1248.6585	1265.6981	1298.5934	1310.729	1340.8718	1362.9231	1404.464	1418.1372	1446.8183	1488.8409	1490.3267	1502.0053	1509.0851	3006.2768	3018.7254	3042.6125	3046.2601	3078.2242	3090.2091	3092.2703	3102.033	3163.2364	3180.797
CC12CC3COC1C2O3	C[C@@]12C[C@H]3CO[C@@H]1[C@@H]2O3	
InChI=1S/C7H10O2/c1-7-2-4-3-8-5(7)6(7)9-4/h4-6H,2-3H2,1H3	InChI=1S/C7H10O2/c1-7-2-4-3-8-5(7)6(7)9-4/h4-6H,2-3H2,1H3/t4-,5+,6-,7+/m0/s1
