19
gdb 40365	3.72246	1.31198	1.2066	2.6335	74.43	-0.2473	0.0817	0.329	1087.5333	0.160471	-422.982177	-422.974726	-422.973781	-423.014385	29.492	
C	-0.5217832771	 0.9942148015	-0.5548559676	-0.172295
O	 0.3233002583	 1.6067813131	 0.4256677869	-0.236809
C	 0.3725997194	 0.1865595443	 0.2810054377	-0.065069
C	-0.1323654306	-0.6198800639	 1.4314550824	 0.427815
C	-0.471930995	-2.1276391487	 1.3203172503	-0.279934
C	-1.3961025778	-1.6849660263	 2.4744808142	 0.076143
C	-0.4239857258	-1.3642611398	 3.6289240252	-0.219263
C	 0.5894589041	-0.5146568301	 2.7988853107	-0.25847
O	-1.5265785557	-0.3832277149	 1.8196380656	-0.327641
H	-1.5830111114	 1.0041800554	-0.3206980548	 0.135079
H	-0.2550145175	 1.1956987697	-1.5914001344	 0.1113
H	 1.3004494733	-0.191734212	-0.1534605286	 0.092751
H	-1.0296758189	-2.3528499148	 0.4106183005	 0.110291
H	 0.3102713473	-2.8671695059	 1.5109122828	 0.093667
H	-2.3481644314	-2.1659637268	 2.6965225312	 0.080222
H	-0.9159530235	-0.7845958409	 4.4122783927	 0.111482
H	 0.0153172904	-2.2590724898	 4.0781927517	 0.098422
H	 1.5997412222	-0.9321842542	 2.7785991978	 0.096847
H	 0.6433809195	 0.5263216041	 3.1203388959	 0.125461
66.3595	157.062	190.6876	285.6865	384.3156	439.0823	450.1685	570.7671	627.977	713.2552	826.6462	829.7662	843.2402	856.829	875.1779	909.3416	925.2383	949.9123	960.611	1002.5215	1003.8513	1048.1904	1085.1218	1105.9498	1153.5287	1158.6492	1162.5815	1167.5239	1188.5153	1224.4348	1237.3629	1274.785	1279.7155	1298.2699	1307.3748	1335.9095	1453.1238	1480.1094	1482.2755	1506.5383	1524.4011	3063.5183	3063.6548	3073.5707	3086.9875	3095.4227	3114.6528	3128.4436	3133.5071	3142.5545	3193.3404
C1OC1C12CC(CC1)O2	C1O[C@H]1[C@@]12C[C@@H](CC1)O2	
InChI=1S/C7H10O2/c1-2-7(6-4-8-6)3-5(1)9-7/h5-6H,1-4H2	InChI=1S/C7H10O2/c1-2-7(6-4-8-6)3-5(1)9-7/h5-6H,1-4H2/t5-,6-,7+/m1/s1
