22
gdb 11038	3.7493	1.63133	1.36949	0.2086	81.6	-0.2524	0.0873	0.3398	1021.7998	0.201598	-313.087206	-313.0791	-313.078156	-313.118915	32.473	
C	-0.0204512882	 1.5777236908	 0.0069948814	-0.39669
C	 0.0459173934	 0.0492074267	 0.0277341233	 0.038232
C	 0.7764845821	-0.5641003746	-1.1930025534	-0.237349
C	 1.2887557704	-1.9400723795	-0.7168573919	-0.266949
C	 1.5262530468	-1.7885068724	 0.7851292436	 0.363558
C	 1.610190964	-3.0426475473	 1.6217449927	-0.481325
C	 2.2871480777	-0.5520839071	 1.2067017453	-0.336086
C	 0.7736051332	-0.5512097322	 1.226584341	-0.064218
H	 0.9850880269	 2.0127602823	 0.0232968278	 0.112382
H	-0.5284873803	 1.9409225404	-0.8932726341	 0.107972
H	-0.564465642	 1.9659116379	 0.8747254992	 0.10866
H	-0.9823693473	-0.3396476743	 0.0453373965	 0.066664
H	 0.1275687683	-0.6364981887	-2.0703890378	 0.093005
H	 1.6165623026	 0.0779911498	-1.4814968643	 0.098456
H	 0.5204676178	-2.7084965561	-0.8744263163	 0.09221
H	 2.1815916046	-2.2676941588	-1.2624687396	 0.090556
H	 2.4799349493	-3.6506381916	 1.3441343379	 0.113676
H	 1.7013477877	-2.8069205653	 2.6870511989	 0.11082
H	 0.7177306024	-3.6672527579	 1.4929409595	 0.110333
H	 2.7887570578	-0.5912782675	 2.1682544874	 0.102079
H	 2.8164696809	 0.0386106004	 0.4654592799	 0.10329
H	 0.281222612	-0.5182010951	 2.1940439029	 0.070722
139.5505	209.9926	220.5714	235.9854	245.6819	348.6041	367.2568	388.4923	500.418	539.9601	591.4354	688.7508	794.9446	831.9909	854.3392	916.5819	923.5989	948.3877	968.988	977.0078	1005.3767	1029.3116	1055.5884	1063.8342	1078.6227	1102.4969	1133.8612	1168.8473	1198.7345	1235.4468	1266.6659	1293.4666	1320.8818	1330.259	1346.7753	1371.7126	1404.6655	1412.6096	1422.9788	1486.4262	1489.2586	1491.9015	1497.378	1499.6018	1504.2903	1515.5725	2996.7129	3015.2132	3019.5591	3025.5274	3039.1506	3058.5001	3073.0209	3087.7827	3092.3255	3093.2225	3096.1214	3123.2006	3149.0382	3202.7331
CC1CCC2(C)CC12	C[C@H]1CC[C@@]2(C)C[C@@H]12	
InChI=1S/C8H14/c1-6-3-4-8(2)5-7(6)8/h6-7H,3-5H2,1-2H3	InChI=1S/C8H14/c1-6-3-4-8(2)5-7(6)8/h6-7H,3-5H2,1-2H3/t6-,7-,8-/m0/s1
