22
gdb 119457	4.86907	0.77762	0.7425	2.7669	82.63	-0.2259	0.0769	0.3028	1607.4379	0.193386	-404.302776	-404.293036	-404.292091	-404.337738	36.218	
C	-0.3568354897	 1.5099242174	 0.1773971465	-0.403687
C	 0.0547099155	 0.0548674996	 0.0391313411	 0.089022
C	 1.1054269756	-0.3752402535	-1.0234179126	-0.340718
C	 1.9049859945	-0.9690379482	 0.1422447117	 0.364604
C	 2.5452438354	-2.3278062328	 0.1523714039	-0.293664
C	 3.8545479569	-2.3617208792	-0.6321694486	-0.068827
O	 4.3512237144	-3.6901179148	-0.5856720391	-0.418257
C	 2.2013470555	 0.0898906326	 1.1284065919	-0.290029
N	 0.8654931771	-0.5437636132	 1.1697121575	-0.192494
H	 0.5011981807	 2.1869245357	 0.2277922466	 0.11491
H	-0.9655170126	 1.8131204616	-0.6814736877	 0.117521
H	-0.9547511945	 1.6517977404	 1.0837018084	 0.127876
H	-0.8452610961	-0.5609015189	-0.0460664322	 0.085381
H	 0.726685337	-1.1222215195	-1.7246316721	 0.106793
H	 1.6011389735	 0.4182743087	-1.5920018003	 0.096541
H	 2.7402913391	-2.6323831674	 1.1862829895	 0.116041
H	 1.862904784	-3.0722262709	-0.2759473898	 0.10663
H	 3.6758147332	-2.0392597126	-1.6712804685	 0.086529
H	 4.5686901337	-1.6490282032	-0.189454099	 0.087981
H	 5.176450871	-3.7205875754	-1.0781912893	 0.285226
H	 2.8071347106	-0.1779561552	 1.9891917696	 0.117175
H	 2.3069418554	 1.1253443386	 0.8144206927	 0.105447
61.5319	90.591	95.6038	196.5162	224.6759	252.1255	263.0046	314.2233	372.1741	396.769	435.4292	533.511	676.6475	721.7622	798.8346	803.3998	824.5761	860.0774	905.0569	960.02	964.595	1013.5655	1031.4462	1074.8648	1091.4116	1099.1637	1112.8098	1129.8878	1137.3108	1201.1858	1206.9021	1242.4894	1243.0392	1286.1847	1302.6267	1315.1613	1342.2289	1381.2783	1397.8404	1410.5278	1461.7077	1483.6872	1486.1746	1491.4716	1496.1525	1515.5324	1527.0677	2961.135	2988.5706	3033.8322	3034.4657	3046.1854	3056.1357	3083.5994	3100.5189	3104.6982	3108.0322	3113.1042	3193.1296	3830.4269
CC1CC2(CCO)CN12	C[C@H]1C[C@@]2(CCO)CN12	
InChI=1S/C7H13NO/c1-6-4-7(2-3-9)5-8(6)7/h6,9H,2-5H2,1H3	InChI=1S/C7H13NO/c1-6-4-7(2-3-9)5-8(6)7/h6,9H,2-5H2,1H3/t6-,7-,8?/m0/s1
