16
gdb 93203	2.9005	1.35326	0.95439	5.1795	67.73	-0.2593	-0.0673	0.192	1164.2549	0.124135	-475.038391	-475.030115	-475.029171	-475.072027	30.557	
O	 0.0391573719	 1.3992848974	-0.1279929483	-0.418611
C	 0.0780717826	-0.0103482623	 0.0023328845	 0.062846
C	 0.636562205	-0.421685245	 1.3628908507	-0.1073
O	 0.6938929727	-1.8443658554	 1.5009676962	-0.252465
C	-0.3904608901	-2.6047907916	 1.1688877823	 0.289699
N	-0.4753893296	-3.8228861098	 1.4972505552	-0.460291
C	-1.4964395283	-1.9832016457	 0.3047202088	 0.320972
O	-2.443121459	-2.6444765314	-0.0314828823	-0.267131
C	-1.351349761	-0.5233003139	-0.0984475526	-0.312501
H	 0.9377581537	 1.7225357139	-0.2502556666	 0.292179
H	 0.6973347533	-0.4679295784	-0.7846628267	 0.091705
H	 1.6659799904	-0.0777809861	 1.4955039257	 0.116151
H	 0.022098761	 0.0182523591	 2.1600323174	 0.121125
H	 0.3415678032	-4.0921065768	 2.0513689564	 0.230801
H	-1.9685714172	 0.0689883768	 0.5921446504	 0.148806
H	-1.7769374286	-0.3910752009	-1.0957575911	 0.144017
40.5582	93.8668	214.5464	291.2591	306.2587	353.9013	402.489	404.9609	419.9224	475.2317	578.8268	607.322	685.9223	739.3102	889.8432	919.3654	938.3195	977.1277	1059.1223	1096.0675	1100.704	1135.5859	1168.7076	1189.2335	1241.4706	1286.5354	1304.0583	1315.1644	1364.3585	1409.4602	1439.9367	1459.2469	1512.5921	1719.3373	1825.6666	2987.3005	3021.3715	3028.8358	3096.4434	3112.1356	3458.5862	3817.846
OC1COC(=N)C(=O)C1	O[C@H]1CO[C]([NH])C(=O)C1	
InChI=1S/C5H7NO3/c6-5-4(8)1-3(7)2-9-5/h3,6-7H,1-2H2	InChI=1S/C5H7NO3/c6-5-4(8)1-3(7)2-9-5/h3,6-7H,1-2H2/t3-/m1/s1
