17
gdb 65413	3.74256	0.86087	0.77964	2.6981	80.62	-0.2661	0.0109	0.277	1457.6052	0.133961	-380.827336	-380.817792	-380.816848	-380.862129	34.437	
C	 0.078191722	 1.5399138831	-0.2215433237	-0.453654
C	-0.0008902292	 0.0472615368	 0.0380620458	 0.149184
N	 1.2759169552	-0.702234848	 0.0395903379	-0.342872
C	 0.514304808	-0.622729274	 1.2824774072	-0.03804
C	 1.1325285482	 0.144587513	 2.4425639087	-0.366238
C	 1.9529830607	-0.7233865758	 3.2805699796	 0.294455
C	 2.614790914	-1.4616796965	 3.9588664329	-0.431332
C	-1.1403821894	-0.6036325442	-0.5772045107	 0.238033
N	-2.043296018	-1.1198112563	-1.0841387233	-0.33611
H	 0.9855320944	 1.954770956	 0.2185554179	 0.139913
H	 0.1062218433	 1.7328261343	-1.297628595	 0.144841
H	-0.7920842614	 2.0547642863	 0.1957668705	 0.138838
H	 1.1724084997	-1.6106978315	-0.4048578552	 0.254146
H	-0.0326274652	-1.5108944393	 1.5911311326	 0.120682
H	 1.7426479139	 0.9670012764	 2.0572258662	 0.144143
H	 0.331689552	 0.5914116451	 3.0458076594	 0.141865
H	 3.2082313117	-2.1029181755	 4.5624289992	 0.202145
51.5008	95.8729	148.2482	167.1399	191.9504	230.6402	329.2944	333.3523	389.8571	432.4881	477.0509	586.4199	609.1732	625.0548	653.1209	683.9917	827.0499	854.9053	927.5588	961.8617	992.8883	1032.5367	1085.6094	1099.4294	1114.115	1201.3802	1259.0418	1283.2931	1321.7255	1336.8974	1418.4617	1449.4847	1459.74	1485.777	1498.328	2242.9374	2346.7771	3030.1698	3052.1068	3084.7786	3119.0031	3139.6094	3149.596	3506.1267	3515.6259
CC1(NC1CC#C)C#N	C[C@]1(N[C@H]1CC#C)C#N	
InChI=1S/C7H8N2/c1-3-4-6-7(2,5-8)9-6/h1,6,9H,4H2,2H3	InChI=1S/C7H8N2/c1-3-4-6-7(2,5-8)9-6/h1,6,9H,4H2,2H3/t6-,7-/m0/s1
