20
gdb 107419	3.10066	1.18489	1.0612	2.1414	74.34	-0.2267	0.067	0.2937	1203.4269	0.171601	-440.258914	-440.250212	-440.249268	-440.292121	33.733	
O	 0.0912401519	 1.3736341956	 0.2764930082	-0.415462
C	-0.0008776204	-0.0350165335	 0.1106845114	-0.155479
C	-1.4203570546	-0.4834821075	-0.1422874588	 0.295982
C	-2.2966007021	-0.9169952843	 0.9843535635	-0.302456
N	-1.7273630767	-1.9152355428	 0.0576193409	-0.140561
C	-2.6418244678	-2.3100817074	-1.0271971693	-0.182373
C	-3.1973217511	-1.0340155052	-1.7068359524	 0.075979
O	-4.4319850103	-0.5876529647	-1.143080468	-0.4249
C	-2.1241595331	 0.0234117049	-1.3972282049	-0.265173
H	-0.4700520031	 1.6128766187	 1.0217656951	 0.282971
H	 0.6289798024	-0.2703269377	-0.7550294357	 0.106683
H	 0.4064556921	-0.580901594	 0.9741814446	 0.095512
H	-1.8885658938	-0.9718121049	 1.9913098999	 0.104673
H	-3.3565067098	-0.694999578	 0.9191501818	 0.13577
H	-2.0619202366	-2.896637383	-1.7496162795	 0.107445
H	-3.4422136288	-2.9532504405	-0.6439073376	 0.097601
H	-3.3192877406	-1.1813056715	-2.7886990838	 0.072013
H	-5.0860259302	-1.2811401863	-1.2775114797	 0.282448
H	-2.5765806066	 1.0103383454	-1.2811620879	 0.124182
H	-1.4006687708	 0.0844419968	-2.2175272177	 0.105143
83.9598	124.7075	175.3679	268.7497	292.9456	313.5296	358.8992	394.6544	412.699	419.3301	467.8322	647.7513	705.0491	772.8659	827.3742	844.3115	890.1915	920.1629	946.3726	967.1597	977.0631	1011.3602	1057.2949	1075.3602	1086.3547	1124.2389	1171.314	1183.974	1195.8221	1214.992	1258.4688	1279.9813	1323.6509	1331.4426	1354.0517	1364.8281	1394.5422	1420.2578	1425.7037	1474.0895	1483.3697	1499.2885	1511.4043	2998.227	3000.6573	3031.5206	3053.8986	3063.6146	3073.8274	3103.8319	3115.3893	3208.3725	3806.2354	3815.584
OCC12CN1CC(O)C2	OC[C@]12CN1C[C@@H](O)C2	
InChI=1S/C6H11NO2/c8-4-6-1-5(9)2-7(6)3-6/h5,8-9H,1-4H2	InChI=1S/C6H11NO2/c8-4-6-1-5(9)2-7(6)3-6/h5,8-9H,1-4H2/t5-,6-,7?/m0/s1
