19
gdb 36940	4.92013	0.81802	0.76585	2.9614	71.98	-0.2582	0.0851	0.3433	1501.1312	0.159263	-460.136396	-460.127714	-460.12677	-460.171553	30.692	
C	-0.1683464214	 1.5036423895	-0.7135762145	-0.264173
C	-0.156037086	-0.0015388115	-0.590349105	 0.09743
C	-0.6713342959	-0.6908145766	 0.6007156742	-0.176214
O	-1.4290260945	-0.6494927251	-0.6091340382	-0.238403
C	 1.1393340052	 2.124851066	-0.2540570602	 0.225434
O	 2.2232677465	 1.640973248	-1.0369974526	-0.273849
C	 3.1234373202	 2.7237681535	-1.2602907043	-0.087535
C	 2.468950312	 3.907396224	-0.5224899514	-0.11264
O	 1.1070144604	 3.5189925159	-0.4362991329	-0.247082
H	-0.3307366089	 1.7961491947	-1.7564223055	 0.118464
H	-0.9872873693	 1.9148205357	-0.1151395493	 0.116768
H	 0.6104474138	-0.5071945491	-1.1765936662	 0.1107
H	-0.2788571137	-1.668733034	 0.8758275018	 0.115715
H	-1.0785055345	-0.1064628056	 1.4255579676	 0.110952
H	 1.3373704112	 1.8908568659	 0.8099422229	 0.062268
H	 4.1172848841	 2.4831628811	-0.865642637	 0.107004
H	 3.2065088613	 2.90320915	-2.338486413	 0.11194
H	 2.9022689426	 4.0398178614	 0.480274575	 0.101216
H	 2.527853497	 4.853967366	-1.0631475414	 0.122007
43.1291	67.2615	77.4919	128.5218	205.5412	320.3217	348.3099	425.9064	532.2703	688.9022	725.3777	824.2054	845.4175	869.344	880.6573	923.3006	951.5379	996.1507	1031.4349	1051.6226	1072.6698	1111.6964	1137.6373	1151.3554	1156.4359	1171.2784	1181.8565	1223.9873	1233.46	1246.1994	1286.6402	1312.2756	1342.868	1377.4304	1396.3101	1437.2111	1442.651	1474.8125	1515.0154	1529.9086	1532.3176	2914.3663	2993.1659	3027.0638	3051.748	3065.9523	3079.9371	3100.3541	3113.8008	3124.8566	3166.5394
C(C1CO1)C1OCCO1	C([C@H]1CO1)C1OCCO1	
InChI=1S/C6H10O3/c1-2-8-6(7-1)3-5-4-9-5/h5-6H,1-4H2	InChI=1S/C6H10O3/c1-2-8-6(7-1)3-5-4-9-5/h5-6H,1-4H2/t5-/m0/s1
