17
gdb 126973	3.33928	1.03624	0.80097	4.9807	72.39	-0.2249	-0.0124	0.2125	1401.225	0.136536	-451.285875	-451.277007	-451.276063	-451.320021	32.265	
C	-0.0811783105	 1.5007894684	 0.011260447	-0.403641
C	 0.0581838149	-0.0164103225	-0.0043448658	-0.110468
N	 0.6627160624	-0.4645037957	-1.2595374645	-0.410534
C	 0.8168675348	-1.8161754656	-1.4624521946	 0.381802
N	 0.3183734398	-2.7602143761	-0.7094792561	-0.18179
O	 0.6776147017	-3.9464676315	-1.3207428112	-0.183076
N	 1.4063415365	-3.7176184759	-2.4663273923	-0.157103
C	 1.5043385985	-2.4235099092	-2.5682981441	 0.271387
N	 2.2195089247	-1.7458490648	-3.545428369	-0.602271
H	 0.8970247691	 1.991273434	-0.0574841304	 0.116693
H	-0.6953781482	 1.8468364134	-0.8251511179	 0.129812
H	-0.5486850945	 1.8289953284	 0.9433834057	 0.129702
H	 0.6408002333	-0.3620218693	 0.8626906937	 0.113698
H	-0.9225416789	-0.4957477808	 0.0725826329	 0.138054
H	 1.4854933419	 0.062119289	-1.5273408245	 0.242538
H	 2.5653446101	-2.3671603327	-4.266270539	 0.266397
H	 1.6933865242	-0.983754199	-3.9569125098	 0.2588
62.7871	99.0485	118.9551	248.1684	250.2681	287.8746	315.4625	342.7027	410.1609	522.3344	580.4101	604.1371	684.9807	736.2507	802.3351	806.2004	845.5775	903.3149	927.9306	949.0302	1036.3025	1084.2203	1147.6471	1164.8118	1169.3564	1280.1032	1303.315	1384.1979	1415.4058	1456.5945	1492.1981	1497.3714	1519.8559	1525.2964	1602.2902	1631.3984	1679.1855	2997.0888	3034.4115	3077.2853	3105.5326	3124.4197	3527.8422	3554.4175	3624.0782
CCNC1=NON=C1N	CCNc1nonc1N	
InChI=1S/C4H8N4O/c1-2-6-4-3(5)7-9-8-4/h2H2,1H3,(H2,5,7)(H,6,8)	InChI=1S/C4H8N4O/c1-2-6-4-3(5)7-9-8-4/h2H2,1H3,(H2,5,7)(H,6,8)
