16
gdb 56939	2.26905	1.22042	0.96001	4.4149	75.56	-0.2544	0.0151	0.2694	1247.5937	0.123804	-396.864912	-396.85578	-396.854836	-396.899357	33.274	
N	 0.230720922	 1.2973426351	 0.254945715	-0.505176
C	-0.2110948305	-0.0688649198	-0.0336421782	-0.132342
C	-1.6803703984	-0.1135073647	-0.0896137921	 0.291656
N	-2.8314991165	-0.1516343887	-0.1755354827	-0.316848
C	 0.3704698381	-0.6670851728	-1.3142105278	-0.02749
N	 1.8075028349	-0.9215023934	-1.2525427266	-0.336748
C	 0.8795666057	-2.0743958072	-1.3778644124	-0.240341
C	 0.7923247091	-2.9816040284	-0.2668238886	 0.368845
C	 0.6984787958	-3.7570413786	 0.6467656742	-0.423678
H	 1.2473979118	 1.2930299067	 0.2719755752	 0.249943
H	-0.0523810582	 1.9221115817	-0.4953623809	 0.236282
H	 0.1076946183	-0.7023964107	 0.8017369579	 0.150088
H	-0.0473696618	-0.2634763975	-2.2352675156	 0.107989
H	 2.2502039025	-0.7371127149	-2.1487535539	 0.245087
H	 0.8140003765	-2.5501733084	-2.3539187399	 0.123808
H	 0.6182526706	-4.4397887683	 1.4566203764	 0.208924
43.8961	103.6016	141.0322	212.3579	229.0418	266.1218	309.5635	356.4933	440.8458	520.5715	553.9782	563.7003	624.494	643.6981	672.1947	798.2552	843.2008	890.2524	891.5226	933.9129	994.3524	1014.2972	1116.8976	1128.6743	1175.5232	1199.2937	1226.1527	1242.1893	1311.5117	1396.2012	1406.959	1446.8211	1655.7088	2242.8021	2366.377	3060.3382	3121.4004	3133.5953	3483.1786	3501.5989	3511.6885	3569.3656
NC(C#N)C1NC1C#C	N[C@@H](C#N)[C@H]1N[C@H]1C#C	
InChI=1S/C6H7N3/c1-2-5-6(9-5)4(8)3-7/h1,4-6,9H,8H2	InChI=1S/C6H7N3/c1-2-5-6(9-5)4(8)3-7/h1,4-6,9H,8H2/t4-,5-,6+/m0/s1
