23
gdb 95502	1.98309	1.61585	0.94648	1.0939	88.14	-0.2376	0.015	0.2527	1318.1288	0.205705	-388.305659	-388.296234	-388.295289	-388.340153	36.365	
C	-0.1936343024	 1.4684712487	 0.1220765504	-0.396052
C	 0.0001332052	-0.0393413665	-0.0126060213	 0.139726
C	 0.72158642	-0.4063959378	-1.3163839732	-0.178978
C	 0.7670010535	-1.908802475	-1.6389174375	-0.273548
C	 1.5624565628	-2.7654532969	-0.6831894967	-0.07654
C	 1.5067684754	-2.7359849832	 0.6476760241	-0.036371
C	 0.630767957	-1.8283659204	 1.4913395444	 0.087429
C	 0.9965239752	-1.9186264716	 2.9706917228	-0.403493
O	 0.7200369033	-0.4523259919	 1.1400627698	-0.265031
H	 0.7752779771	 1.9779894121	 0.1195223066	 0.122642
H	-0.7928108838	 1.8603583625	-0.7052629166	 0.10921
H	-0.6982877529	 1.702703501	 1.0629329306	 0.117762
H	-0.9906271832	-0.5295869728	-0.008431513	 0.056163
H	 0.2149691152	 0.1077596087	-2.1427561334	 0.088873
H	 1.7416346766	-0.0077680918	-1.2644340804	 0.103592
H	-0.2650239175	-2.2897247978	-1.6914363622	 0.108694
H	 1.174518757	-2.0349706206	-2.6476573906	 0.099896
H	 2.2335678396	-3.4875876778	-1.1439711712	 0.086666
H	 2.130003263	-3.432579965	 1.2050640988	 0.081906
H	-0.420926708	-2.1473724293	 1.3694298446	 0.071122
H	 2.0279356442	-1.586319857	 3.1248794901	 0.126633
H	 0.3365759488	-1.2822513734	 3.5646712271	 0.117477
H	 0.9079640238	-2.9494526442	 3.3270172869	 0.112219
28.45	174.3802	191.0036	213.2867	235.7468	261.2745	311.4806	338.326	362.4507	423.0517	469.6305	528.9091	539.9739	706.4152	728.7974	785.6846	830.7157	860.0882	919.8619	942.4029	961.9336	986.2735	1001.78	1061.4302	1065.078	1102.4377	1118.9449	1123.5379	1166.5388	1181.4066	1226.9913	1255.0376	1280.1088	1327.861	1335.2295	1341.474	1371.1627	1395.51	1399.7792	1404.0102	1415.7059	1429.0107	1466.4471	1480.3371	1485.4572	1486.3642	1497.4941	1500.7699	1723.479	2923.1804	2935.564	2988.4294	3022.9413	3041.2847	3042.3007	3061.3187	3071.7867	3113.177	3113.9813	3121.9572	3127.3119	3131.572	3155.5723
CC1CCC=CC(C)O1	C[C@H]1CCC=C[C@@H](C)O1	
InChI=1S/C8H14O/c1-7-5-3-4-6-8(2)9-7/h3,5,7-8H,4,6H2,1-2H3	InChI=1S/C8H14O/c1-7-5-3-4-6-8(2)9-7/h3,5,7-8H,4,6H2,1-2H3/t7-,8+/m1/s1
