16
gdb 39609	2.70313	1.71929	1.0864	0.946	78.84	-0.2298	-0.0329	0.1969	1055.1072	0.126194	-396.846518	-396.838782	-396.837838	-396.878531	29.558	
C	-0.0556835107	 1.4684888616	-0.3342815163	-0.279844
N	 0.7461196014	 2.3833766372	 0.4860857634	-0.217158
C	 1.6415015878	 2.3013679652	 1.3809532743	 0.078021
N	 2.229914333	 1.2342588453	 2.1053441807	-0.331761
C	 1.6730018774	-0.0159278128	 1.9163556796	 0.131193
N	 2.2733078216	-1.0709387975	 1.5427036747	-0.243345
C	 1.3009775998	-2.000124659	 0.8807874035	-0.262286
C	 0.4829925488	-1.1138152262	 0.0133357684	-0.148638
C	 0.1507530295	 0.0107759138	-0.2859581066	 0.207442
H	-1.1043907684	 1.6981955121	-0.1011538398	 0.149405
H	 0.0830849472	 1.829018257	-1.3614437243	 0.15148
H	 2.0809925542	 3.2508100457	 1.7017753751	 0.117347
H	 3.2394794914	 1.2873827271	 2.1832331453	 0.25679
H	 0.5887802052	 0.0600317252	 1.9932939266	 0.123733
H	 1.8756578025	-2.7365163066	 0.3142373782	 0.138321
H	 0.6775354792	-2.5589300781	 1.5932946273	 0.1293
109.6091	172.5196	250.5211	280.8365	313.7026	352.1856	364.0044	467.564	494.5161	574.4305	608.3899	629.7086	731.0381	796.3349	884.7503	913.7434	939.9011	980.1527	996.2954	1050.8276	1074.1603	1101.2517	1184.775	1261.0473	1287.2559	1305.877	1351.3661	1383.7943	1448.8019	1458.3402	1480.3926	1492.6302	1713.9244	1751.0681	2290.9197	3007.822	3017.0716	3037.7	3077.2262	3091.0607	3111.1174	3553.9579
C1N=CNC=NCC#C1	C1N=CN[CH][N]C[C][C]1	
InChI=1S/C6H7N3/c1-2-4-8-6-9-5-7-3-1/h5-6H,3-4H2,(H,7,8,9)	InChI=1S/C6H7N3/c1-2-4-8-6-9-5-7-3-1/h5-6H,3-4H2,(H,7,8,9)
