19
gdb 89044	2.86358	1.15526	1.014	5.2971	71.86	-0.2178	0.0426	0.2604	1236.0377	0.160169	-456.365283	-456.356159	-456.355215	-456.399234	34.884	
N	-0.0781418145	 0.5733322671	-0.8733419805	-0.560979
C	-0.3035737667	-0.6670953674	-0.30088873	 0.455962
O	 0.3568027942	-1.651122385	-0.6232208915	-0.406022
N	-1.31761845	-0.6986446444	 0.6149823828	-0.313911
C	-1.7362210281	-1.9513630164	 1.2371317814	-0.208866
C	-2.732904546	-2.8128929429	 0.4629730317	-0.072293
C	-2.8061579015	-2.7945106327	-1.059593478	-0.347288
C	-2.1873507577	-3.9687138941	-0.3614086696	 0.151353
O	-0.825424791	-4.2208385964	-0.4068586659	-0.435369
H	 0.7858654638	 0.6115706129	-1.3921695842	 0.266095
H	-0.2651195886	 1.3922163584	-0.3148879714	 0.252307
H	-1.9909057988	 0.0507950123	 0.5851750181	 0.244759
H	-0.823500419	-2.5262892979	 1.4176219673	 0.148585
H	-2.1594166147	-1.7005187734	 2.2134657427	 0.106074
H	-3.6741889318	-2.9816385661	 0.9776633403	 0.080649
H	-3.7827495048	-2.9043373349	-1.5197928822	 0.105897
H	-2.1383965763	-2.1275568089	-1.5938111725	 0.127102
H	-2.7418944867	-4.9019241905	-0.34054656	 0.093622
H	-0.3447308617	-3.3872486197	-0.5663238688	 0.312322
69.5483	94.8891	152.3185	198.5135	253.9537	311.3052	378.6872	414.162	440.5504	473.4311	546.7091	556.864	579.7236	644.7978	681.767	753.3002	776.3188	781.7999	848.9381	891.7196	967.5106	1007.3253	1039.4052	1069.5865	1090.2423	1120.2607	1137.7999	1155.4461	1164.005	1240.2421	1294.6532	1349.2112	1368.9351	1372.4032	1403.4506	1470.9089	1482.376	1492.3335	1552.985	1627.2919	1757.9321	3060.1624	3103.1854	3130.5914	3141.7089	3158.0281	3218.9934	3578.2124	3580.4259	3626.7022	3694.4061
NC(=O)NCC1CC1O	NC(=O)NC[C@H]1C[C@H]1O	
InChI=1S/C5H10N2O2/c6-5(9)7-2-3-1-4(3)8/h3-4,8H,1-2H2,(H3,6,7,9)	InChI=1S/C5H10N2O2/c6-5(9)7-2-3-1-4(3)8/h3-4,8H,1-2H2,(H3,6,7,9)/t3-,4-/m1/s1
