19
gdb 102030	2.16678	1.27722	0.86157	2.063	75.17	-0.2535	-0.0177	0.2358	1351.825	0.158677	-456.371462	-456.361615	-456.360671	-456.406594	35.381	
C	 0.0424161725	 1.473940009	 0.0704330469	-0.375862
C	-0.0364954344	-0.0499804822	-0.0168811435	-0.156282
N	-1.4192288059	-0.5619503024	-0.0094228221	-0.104547
C	-2.0150526625	-0.8332285858	-1.221734912	 0.154866
O	-3.1528155726	-1.2023671515	-1.408913848	-0.325375
C	-2.0619219719	-0.6929300864	 1.2406701413	 0.32331
N	-1.4216984997	-0.3416760913	 2.282347843	-0.503248
C	-3.4847435738	-1.2601224385	 1.2829012489	-0.15538
O	-3.9192861789	-1.4128207436	 2.6220464642	-0.407652
H	 1.0893876235	 1.79246932	 0.0523872768	 0.120178
H	-0.4710080473	 1.9463959096	-0.7732125701	 0.11647
H	-0.4081212311	 1.824363197	 1.0006144317	 0.153144
H	 0.4346649905	-0.4067573496	-0.9372161021	 0.110091
H	 0.4818792238	-0.5030390526	 0.8286700694	 0.146141
H	-1.3050329557	-0.6708690689	-2.0537310431	 0.092216
H	-2.0302390046	-0.4884655907	 3.0891413641	 0.229707
H	-4.1737469695	-0.5681162523	 0.7934776508	 0.155012
H	-3.5417871261	-2.1951745584	 0.7188606924	 0.13522
H	-3.5732138661	-2.2466150513	 2.9555935013	 0.291992
51.7502	94.2305	149.2405	170.7936	215.0858	239.8125	278.5512	321.739	323.8368	373.854	415.0378	439.6808	570.4829	583.8821	682.1316	785.1627	847.008	924.9311	930.1125	1002.0846	1009.8636	1035.8868	1093.5568	1107.4656	1120.238	1187.4363	1212.5078	1284.0703	1345.5968	1389.8017	1391.153	1404.1281	1412.0341	1422.079	1452.1909	1454.6194	1488.6009	1493.8726	1508.5318	1700.3893	1798.0732	2959.7412	3043.5103	3065.9247	3069.4381	3106.3779	3118.5079	3132.0781	3146.9759	3473.4293	3823.7063
CCN(C=O)C(=N)CO	CCN(C=O)C(=N)CO	
InChI=1S/C5H10N2O2/c1-2-7(4-9)5(6)3-8/h4,6,8H,2-3H2,1H3	InChI=1S/C5H10N2O2/c1-2-7(4-9)5(6)3-8/h4,6,8H,2-3H2,1H3
