13
gdb 131753	5.01381	1.0469	0.87076	6.9887	64.35	-0.2737	-0.1071	0.1666	1220.5414	0.087729	-489.859244	-489.851262	-489.850317	-489.89298	27.852	
O	 0.0566637277	 1.4364869391	 0.0081377871	-0.387025
C	 0.0185320435	 0.0377166934	 0.0016765997	-0.153288
C	-1.4091323771	-0.4462865695	 0.0125789533	 0.308806
N	-2.3703274886	 0.4106870661	 0.0233031361	-0.083125
O	-3.6487994715	-0.1069312579	 0.0326290888	-0.241576
C	-3.933220921	-1.4789208088	 0.0307324804	 0.479931
O	-5.0810043349	-1.8014459598	 0.0395476741	-0.310762
N	-2.855459909	-2.3728864809	 0.0191009889	-0.291509
C	-1.6742565431	-1.8699115642	 0.0107391927	-0.003293
H	 0.9774776827	 1.7143758691	-0.0027443808	 0.302246
H	 0.5103436843	-0.3940175371	-0.8887473929	 0.119495
H	 0.5266984163	-0.4026016336	 0.878642671	 0.1194
H	-0.8293479792	-2.562241986	 0.0015023515	 0.140699
45.518	65.3503	187.4498	217.9445	287.5902	343.9741	384.8042	494.941	533.9275	573.3807	630.3775	761.6931	800.2336	814.3541	883.5929	974.4537	1044.1301	1059.6972	1110.1223	1121.8407	1237.6374	1252.5218	1255.4326	1425.8857	1472.1042	1508.0277	1604.2733	1698.9	1875.8662	2941.3102	2957.987	3107.7087	3835.5597
OCC1=NOC(=O)N=C1	OCc1noc(=O)nc1	
InChI=1S/C4H4N2O3/c7-2-3-1-5-4(8)9-6-3/h1,7H,2H2	InChI=1S/C4H4N2O3/c7-2-3-1-5-4(8)9-6-3/h1,7H,2H2
