25
gdb 88818	2.8525	1.05239	0.85881	0.1063	93.3	-0.2542	0.0829	0.3371	1480.3055	0.229038	-352.339834	-352.329936	-352.328992	-352.374791	37.923	
C	 0.133877121	 1.6133054142	-0.3021925674	-0.406285
C	 0.0143905874	 0.1206402108	-0.0808191449	-0.000891
C	 1.2224468458	-0.7808288168	-0.1510892631	-0.309574
C	 0.5093596284	-0.579619701	 1.1700701077	-0.00593
C	 1.1706364496	 0.1458576844	 2.3099816475	 0.035017
C	 0.2987461504	 0.6829131351	 3.4818218409	-0.238956
C	 1.4271907039	 0.2754635731	 4.465273495	-0.221317
C	 2.0260318118	-0.6486016851	 3.3625206308	 0.004309
C	 1.6704161413	-2.1231811668	 3.5345593848	-0.39329
H	 1.0753903018	 2.0126854101	 0.0852335645	 0.11614
H	 0.0979725271	 1.8482016215	-1.3719742627	 0.114353
H	-0.6831834978	 2.1582091668	 0.1843186991	 0.115555
H	-0.8980827059	-0.3021865222	-0.4947936029	 0.078965
H	 1.1413749302	-1.7384839233	-0.6542050081	 0.104506
H	 2.1909479307	-0.3023773012	-0.267215915	 0.10444
H	-0.1132331146	-1.4127514266	 1.487326278	 0.073718
H	 1.7875830254	 0.9618372134	 1.919943885	 0.060677
H	 0.0044281264	 1.7350555928	 3.4491924468	 0.091944
H	-0.6051402562	 0.0813236982	 3.620578095	 0.095979
H	 2.0867103187	 1.1143178392	 4.7048661592	 0.094911
H	 1.1291503836	-0.2066157952	 5.4007079722	 0.089969
H	 3.1076321079	-0.5583067128	 3.2194123457	 0.060048
H	 0.6002995971	-2.2673541833	 3.7217785713	 0.110798
H	 1.934194757	-2.7066337332	 2.6463048667	 0.11652
H	 2.2103261592	-2.5482580619	 4.3878911138	 0.108393
52.1889	104.1402	118.8671	193.392	200.1493	241.1411	258.6113	347.4753	352.9443	400.4989	441.3703	515.9826	671.7647	755.9288	773.1922	797.5352	856.9841	876.3464	884.6828	908.9625	918.517	952.9408	979.1861	999.4645	1013.6221	1048.2338	1064.4601	1080.5334	1105.917	1116.3568	1151.4539	1164.723	1198.6237	1203.0777	1216.8332	1243.3917	1260.15	1264.7923	1281.272	1285.9044	1317.3826	1366.8578	1398.096	1409.9636	1423.9392	1440.1087	1479.3928	1491.8663	1494.7136	1496.9609	1498.1905	1500.3633	1508.1448	3025.4447	3028.1811	3036.6681	3046.2944	3051.0964	3056.8718	3084.3528	3089.7983	3091.7266	3096.8022	3104.4562	3109.4774	3120.6879	3125.3309	3136.7233	3204.3631
CC1CC1C1CCC1C	C[C@H]1C[C@H]1[C@H]1CC[C@H]1C	
InChI=1S/C9H16/c1-6-3-4-8(6)9-5-7(9)2/h6-9H,3-5H2,1-2H3	InChI=1S/C9H16/c1-6-3-4-8(6)9-5-7(9)2/h6-9H,3-5H2,1-2H3/t6-,7+,8+,9-/m1/s1
