15
gdb 52931	3.42478	0.98947	0.86787	2.9141	78.66	-0.2434	-0.0155	0.228	1356.4933	0.109902	-420.543734	-420.535067	-420.534123	-420.579655	30.451	
C	-0.0844278121	 1.4525355027	 0.0313745118	-0.518242
C	-0.0109635722	 0.0014275375	 0.033611624	 0.398331
C	 0.0475833658	-1.2023118362	 0.032227458	-0.410554
C	 0.1587114376	-2.6167402687	-0.0024155736	 0.216898
C	 0.7122807044	-3.6175754909	 1.0531614224	-0.260376
C	 0.0111953466	-4.4869932115	-0.0125741945	-0.086957
O	-1.077522764	-3.4807563119	-0.0687116226	-0.32646
C	 0.6746641109	-3.6160666085	-1.1084079149	 0.437826
O	 1.1456971253	-3.6482271424	-2.1927839377	-0.299655
H	 0.9188683935	 1.8921818833	 0.0268605703	 0.159843
H	-0.6130659421	 1.8181689123	-0.8553350284	 0.161645
H	-0.6100077014	 1.8258545724	 0.9168192857	 0.157713
H	 1.7949493172	-3.6931537737	 1.1789680452	 0.118686
H	 0.1632917529	-3.575501289	 1.994773066	 0.128779
H	-0.2736934021	-5.5348804955	 0.0122183883	 0.122523
8.5579	81.9148	103.4139	180.1094	244.6331	322.0383	381.9897	457.7959	501.5227	517.4766	567.1335	698.6232	755.176	801.1562	818.2585	905.2113	929.2743	964.0707	1021.974	1050.794	1052.7827	1055.3432	1094.9085	1174.2897	1204.2664	1210.861	1374.3833	1412.933	1471.3397	1474.105	1474.9029	1940.0989	2364.1313	3031.3889	3070.3007	3095.2573	3096.9424	3156.6943	3175.1838
CC#CC12CC(O1)C2=O	CC#C[C@@]12C[C@@H](O1)C2=O	
InChI=1S/C7H6O2/c1-2-3-7-4-5(9-7)6(7)8/h5H,4H2,1H3	InChI=1S/C7H6O2/c1-2-3-7-4-5(9-7)6(7)8/h5H,4H2,1H3/t5-,7+/m1/s1
