17
gdb 94309	3.21372	1.20651	1.03452	4.1999	68.95	-0.2362	-0.0206	0.2156	1161.7554	0.133341	-458.944268	-458.935706	-458.934762	-458.978256	31.716	
O	 0.1919155842	 1.2878159599	-0.2543406763	-0.42074
C	 0.1497317165	-0.0509644533	 0.165654023	-0.010503
C	-0.1275011506	-0.3495544449	 1.6566210958	-0.110895
O	-1.2797298672	-1.1456810003	 1.3044924978	-0.314886
C	-1.2114243899	-0.7365625205	-0.0718747787	 0.423399
C	-2.3969966512	 0.093316317	-0.6416341754	-0.412899
C	-2.4621283979	-0.9019189762	-1.8097618162	 0.409691
O	-3.0464707119	-0.9245078871	-2.852914229	-0.291301
C	-1.427608667	-1.8293915974	-1.148211959	-0.427208
H	 1.0947558206	 1.6111462062	-0.1806895152	 0.294251
H	 0.987974833	-0.6306916166	-0.2412063854	 0.083467
H	 0.6196110402	-0.9304545171	 2.208172682	 0.104434
H	-0.4001388165	 0.5481181278	 2.2256999422	 0.106737
H	-3.2779761745	 0.0453157907	 0.0068966194	 0.140925
H	-2.1905763026	 1.1330813209	-0.9034604161	 0.152105
H	-0.5701359359	-2.1290909084	-1.7575168821	 0.127083
H	-1.8905725893	-2.7257577407	-0.7209575868	 0.146339
42.478	74.2875	199.9133	220.864	256.2749	332.4894	398.2514	420.3135	463.3918	482.0414	550.84	634.9043	714.472	763.5763	838.0279	893.6241	923.1217	971.918	996.5404	1017.7476	1072.0231	1108.758	1118.0288	1128.5183	1160.32	1180.941	1182.7517	1223.924	1237.4489	1278.9053	1318.4918	1334.4891	1407.0796	1425.0125	1442.6705	1515.4055	1898.9117	3018.7504	3020.9794	3050.9906	3062.6598	3077.1765	3109.381	3131.0824	3830.2472
OC1COC11CC(=O)C1	O[C@H]1COC21CC(=O)C2	
InChI=1S/C6H8O3/c7-4-1-6(2-4)5(8)3-9-6/h5,8H,1-3H2	InChI=1S/C6H8O3/c7-4-1-6(2-4)5(8)3-9-6/h5,8H,1-3H2/t5-/m0/s1
