15
gdb 13064	4.24496	1.13926	0.96621	3.5048	71.82	-0.2349	0.0296	0.2645	1203.3322	0.11794	-362.659884	-362.651311	-362.650367	-362.695149	28.941	
C	 0.0074698202	 1.5305994249	-0.0394572071	-0.497659
C	 0.0469256241	 0.0765023178	 0.0041383519	 0.056944
C	 0.0787009827	-1.1270977043	 0.0317767317	 0.099765
C	 0.0895629509	-2.5707347201	 0.0688733445	-0.32722
C	 0.1636976463	-3.2741075619	 1.4684901851	-0.166641
N	-1.1071409805	-3.919701653	 1.1396180744	-0.316396
C	-1.2954844403	-3.3072666071	-0.0716462409	 0.42453
O	-2.1707292013	-3.3459387192	-0.8882160307	-0.348679
H	 0.7584803662	 1.9288897735	-0.7304854171	 0.149841
H	-0.9729925956	 1.8896930098	-0.371044206	 0.154177
H	 0.2025166971	 1.9634739103	 0.9479663983	 0.147694
H	 0.8139203978	-2.9867748397	-0.6386145147	 0.127711
H	 1.002241564	-3.96491611	 1.5975678217	 0.11631
H	 0.112429864	-2.5819185044	 2.3129420581	 0.124858
H	-1.6991602857	-4.5484110066	 1.6614184107	 0.254764
14.8251	82.9303	90.0108	144.1455	245.034	290.0222	394.0105	407.7286	486.8967	522.7113	644.6188	741.2576	798.1776	892.1408	946.738	997.0405	1047.0653	1051.5579	1058.444	1149.8513	1158.4589	1177.4125	1197.2497	1292.8256	1335.7439	1393.3814	1414.789	1476.7794	1478.2537	1526.574	1907.4244	2371.4564	3027.0542	3048.568	3061.9165	3087.9888	3089.158	3103.5481	3615.6868
CC#CC1CNC1=O	CC#C[C@H]1CNC1=O	
InChI=1S/C6H7NO/c1-2-3-5-4-7-6(5)8/h5H,4H2,1H3,(H,7,8)	InChI=1S/C6H7NO/c1-2-3-5-4-7-6(5)8/h5H,4H2,1H3,(H,7,8)/t5-/m0/s1
