22
gdb 88998	4.03961	0.80967	0.75202	2.1085	82.74	-0.2282	0.0829	0.3112	1587.3463	0.193748	-404.29086	-404.28133	-404.280385	-404.326625	34.428	
C	 0.1078982309	 1.54332063	-0.3453199967	-0.411988
C	 0.0945089189	 0.057641787	-0.0555450822	 0.03041
C	 1.3583324614	-0.7276502647	 0.0331616845	-0.254689
N	 0.5317032022	-0.5145455087	 1.2197900815	-0.086835
C	 1.0422230823	 0.3525903719	 2.2752822673	-0.16444
C	 1.6511090654	-0.4790792508	 3.3962383251	-0.018814
C	 3.0686677142	-1.0588207269	 3.1803706725	-0.074013
O	 3.5998029238	-0.3008374261	 4.2870585067	-0.272553
C	 2.3174763826	 0.3030082226	 4.549730905	-0.09156
H	 1.0329075457	 2.0247501131	-0.0193954217	 0.1217
H	 0.0086913271	 1.7120169193	-1.4227763148	 0.123707
H	-0.7309265492	 2.0502137192	 0.1448696579	 0.123178
H	-0.7819968521	-0.4533800804	-0.4531678993	 0.089852
H	 1.4183875339	-1.7484378305	-0.3358242989	 0.11324
H	 2.2879881215	-0.1634759594	-0.0455583883	 0.105722
H	 1.7905628252	 1.0825415358	 1.9211932991	 0.08574
H	 0.1988485403	 0.9287793444	 2.6781335452	 0.102865
H	 0.9243052524	-1.2243492793	 3.725064494	 0.089517
H	 3.1753929081	-2.1392968776	 3.3345783671	 0.101381
H	 3.5513174014	-0.7885562729	 2.2316162695	 0.09469
H	 2.343529945	 1.3944081994	 4.4216188466	 0.093468
H	 1.953985879	 0.0764460244	 5.5597054798	 0.099423
46.45	55.9744	85.5686	136.1381	186.688	242.0061	295.5546	362.6237	402.6741	441.6702	507.8991	751.3383	770.2487	818.8889	874.6753	894.6603	900.2335	917.8461	948.5065	981.5061	1033.5551	1038.3464	1047.2544	1080.9124	1112.325	1119.3793	1146.5396	1149.2506	1157.673	1164.4366	1189.6224	1200.2048	1256.0034	1286.4967	1311.8255	1335.5363	1345.6654	1387.067	1399.1176	1409.0393	1422.7496	1485.9402	1493.45	1501.1801	1511.0068	1514.6688	1538.7124	2948.2606	2995.6348	3011.3243	3034.9183	3036.3607	3042.7236	3050.0764	3082.1962	3093.1178	3095.6279	3099.8076	3126.6692	3169.8295
CC1CN1CC1COC1	C[C@H]1CN1CC1COC1	
InChI=1S/C7H13NO/c1-6-2-8(6)3-7-4-9-5-7/h6-7H,2-5H2,1H3	InChI=1S/C7H13NO/c1-6-2-8(6)3-7-4-9-5-7/h6-7H,2-5H2,1H3/t6-,8?/m0/s1
