20
gdb 71753	3.28671	1.88614	1.55945	1.4603	81.25	-0.2208	0.0793	0.3001	928.305	0.173942	-365.954038	-365.947421	-365.946477	-365.9845	28.45	
C	-0.0152720839	 1.5481852034	-0.0188374804	-0.514405
C	-0.0162196379	 0.0416990211	-0.0584951352	 0.347442
C	 0.4650709902	-0.8030125412	-1.2554424104	-0.300823
C	-0.3196813287	-1.9562162851	-0.584557883	-0.052662
C	 0.4107705937	-2.2570007044	 0.733416112	-0.05892
C	-0.7276518633	-2.489190302	 1.7483777701	-0.181786
N	-1.0888098201	-1.0409950464	 1.5761338533	-0.154338
C	 0.3737983432	-0.7608371116	 1.2170570294	-0.044992
C	-1.272283594	-0.8750424916	 0.0903016931	-0.046563
H	 1.0087578122	 1.9407344269	-0.0079794137	 0.115082
H	-0.5221677025	 1.9694275414	-0.8938557797	 0.114268
H	-0.5250015568	 1.9182416561	 0.8767303672	 0.132218
H	 0.0006908159	-0.470639923	-2.1893902339	 0.096479
H	 1.5418152741	-0.9345983257	-1.4105491765	 0.088589
H	-0.7028936467	-2.8011440148	-1.1557523517	 0.063729
H	 1.3163596155	-2.8642547618	 0.69181897	 0.06192
H	-1.5173374717	-3.2076726783	 1.5016675148	 0.096261
H	-0.3797308707	-2.6581010824	 2.7717283051	 0.104239
H	 1.0417307556	-0.3985309002	 1.9991241359	 0.067779
H	-2.2687009139	-0.6767693805	-0.3023297864	 0.066482
217.62	234.0734	257.6725	355.3379	446.6444	476.3657	568.1718	692.857	735.517	793.4524	826.9456	833.3911	854.3429	869.9733	890.5997	909.8051	920.7153	934.8336	968.3969	982.1034	998.7818	1016.4762	1051.3056	1084.0703	1116.2429	1148.3454	1151.7871	1159.3027	1193.7496	1205.5989	1214.9478	1218.6742	1233.5894	1248.5426	1269.0831	1278.1821	1316.1564	1361.6209	1412.2541	1490.493	1494.4219	1496.6483	1503.2203	3022.9813	3034.5094	3037.4045	3084.2353	3090.0532	3095.7481	3099.4281	3100.1807	3111.6327	3116.315	3126.8921
CC12CC3C4CN(C14)C23	C[C@@]12C[C@H]3[C@@H]4CN([C@H]14)[C@@H]23	
InChI=1S/C8H11N/c1-8-2-4-5-3-9(6(4)8)7(5)8/h4-7H,2-3H2,1H3	InChI=1S/C8H11N/c1-8-2-4-5-3-9(6(4)8)7(5)8/h4-7H,2-3H2,1H3/t4-,5-,6+,7-,8-/m0/s1
