23
gdb 60416	4.04354	0.66378	0.65543	1.126	82.84	-0.2416	0.0771	0.3187	1844.2963	0.204413	-425.412681	-425.402323	-425.401379	-425.449232	37.398	
C	-0.0208937868	 1.5318072981	 0.232156948	-0.400475
C	-0.0137004195	 0.0111381537	 0.0713873735	 0.134988
O	 0.6686418133	-0.6164874591	 1.1569177769	-0.4287
C	-1.4254328324	-0.5609312496	-0.1103865932	-0.194844
C	-1.442393497	-2.0757810805	-0.3370663518	-0.202316
C	-2.8475508333	-2.6487048501	-0.3439983355	 0.160095
C	-3.0137864541	-4.1832777341	-0.2630894337	-0.300061
C	-3.8152989367	-3.8861201363	 1.0191211488	-0.056946
O	-3.5211732035	-2.4770132314	 0.9322439234	-0.295728
H	 0.9963666982	 1.9023895263	 0.3847614641	 0.121868
H	-0.4427847431	 2.0234930994	-0.6505911093	 0.113702
H	-0.6268619746	 1.8269370811	 1.0981274347	 0.106983
H	 0.5904232874	-0.2502001943	-0.8074864915	 0.083833
H	 0.1806413238	-0.4090185271	 1.9622048364	 0.2766
H	-2.0208189145	-0.3293199831	 0.7837573146	 0.106891
H	-1.9148280959	-0.0481613631	-0.9490194598	 0.089998
H	-0.9600557191	-2.3214800596	-1.2937856577	 0.090333
H	-0.8569952955	-2.561968793	 0.4507906367	 0.108716
H	-3.4419183096	-2.1873520962	-1.1474188735	 0.066218
H	-3.5633602035	-4.6544889556	-1.0791129132	 0.1075
H	-2.0772609954	-4.7210776317	-0.1006772235	 0.110278
H	-4.8931686682	-4.0824510937	 0.9486311999	 0.0984
H	-3.4376176098	-4.3283103602	 1.9485944456	 0.102667
45.8947	62.2317	87.7153	117.8996	157.5821	237.635	258.5941	292.984	303.8722	417.9119	425.8493	491.2452	505.8965	736.8765	772.4889	810.368	852.247	882.4453	919.2668	936.8042	969.7588	991.2189	1019.0406	1038.513	1065.9368	1086.1869	1109.97	1143.0692	1154.1934	1166.9036	1199.1859	1221.1695	1254.4737	1267.5965	1288.0392	1305.6824	1341.4822	1350.4935	1369.0282	1390.4458	1404.1519	1410.8453	1422.0873	1473.4599	1488.2513	1489.1394	1495.3973	1496.8455	1532.5485	2982.437	3009.8728	3011.5651	3016.2579	3021.5317	3028.1112	3051.9614	3052.0933	3075.8787	3081.613	3093.736	3117.35	3132.1547	3791.4365
CC(O)CCC1CCO1	C[C@@H](O)CC[C@H]1CCO1	
InChI=1S/C7H14O2/c1-6(8)2-3-7-4-5-9-7/h6-8H,2-5H2,1H3	InChI=1S/C7H14O2/c1-6(8)2-3-7-4-5-9-7/h6-8H,2-5H2,1H3/t6-,7+/m1/s1
