14
gdb 10465	3.01364	1.65582	1.20621	3.9264	65.18	-0.2629	-0.0016	0.2613	978.3711	0.104153	-382.506584	-382.498553	-382.497609	-382.53937	28.785	
O	 0.1101625476	 0.0050477681	 0.1288267795	-0.265507
C	 0.109174187	 1.1930523716	 0.2322066195	 0.16174
O	 1.0988435146	 1.959797831	-0.2887626242	-0.217449
C	 0.9793764842	 3.3642332175	-0.0934146822	 0.227863
C	 1.4108603652	 3.9038235442	 1.258541163	-0.313455
C	 2.3075940787	 4.0594002546	 0.0604029024	-0.305498
C	-0.0907122407	 3.9895665447	-0.8195293436	 0.319975
C	-0.9947123146	 4.5011318853	-1.4248584795	-0.478299
H	-0.668853962	 1.7845182269	 0.7465014097	 0.096718
H	 0.8876136013	 4.7726400085	 1.6389930123	 0.139477
H	 1.686721655	 3.1638490476	 2.0010949564	 0.138911
H	 3.1772826103	 3.4167711307	-0.008017779	 0.14644
H	 2.4111069751	 5.0370335544	-0.3932689813	 0.140018
H	-1.7902273418	 4.9522778149	-1.9652776631	 0.209066
70.9161	123.5154	161.5122	198.579	227.139	360.9196	413.6155	516.7378	554.2447	577.2211	602.1011	692.9648	756.8621	784.4252	913.4095	937.9823	964.9529	1000.2844	1042.982	1066.1097	1089.8021	1156.1664	1194.6193	1245.3949	1318.7253	1425.6336	1453.0052	1485.681	1871.2745	2237.7	2987.222	3146.0054	3152.6263	3236.4843	3251.1964	3500.0157
O=COC1(CC1)C#C	O=COC1(CC1)C#C	
InChI=1S/C6H6O2/c1-2-6(3-4-6)8-5-7/h1,5H,3-4H2	InChI=1S/C6H6O2/c1-2-6(3-4-6)8-5-7/h1,5H,3-4H2
