14
gdb 133733	1.83629	1.61742	1.03818	0.9396	56.3	-0.2736	0.0328	0.3064	1114.9339	0.095206	-568.154734	-568.145692	-568.144748	-568.189051	32.458	
O	 0.1582469038	 1.3994494531	-0.2327836316	-0.416778
C	 0.0843159734	 0.012116906	-0.011142401	-0.076074
C	-1.375617463	-0.5246925529	 0.031476459	-0.345614
C	-1.4069309862	-1.974136321	-0.1140740486	 0.31506
C	-1.3830185206	-3.1676903898	-0.2413611108	-0.428288
C	-2.0826286689	-0.1096209134	 1.3255321616	 0.28504
F	-2.0627843838	 1.2358621641	 1.4689629991	-0.093646
F	-3.3610929395	-0.488104269	 1.3405970173	-0.062563
F	-1.4835926069	-0.6254864668	 2.4044531991	-0.070638
H	-0.2436854721	 1.8475033383	 0.5181346551	 0.292113
H	 0.587857328	-0.4663474015	-0.8537098213	 0.132172
H	 0.5998657821	-0.2991090551	 0.9081399667	 0.11732
H	-1.9269563752	-0.0489019258	-0.7882771395	 0.14409
H	-1.3791984609	-4.2239910663	-0.3540166552	 0.207808
54.5186	119.9131	133.1114	187.5836	221.4933	310.0113	341.1263	403.853	432.0213	456.5823	505.2518	537.7334	581.6695	650.8907	669.4677	680.2506	805.3131	972.0354	1018.3365	1059.4747	1084.6957	1148.6865	1166.852	1246.3813	1260.7833	1283.582	1365.984	1397.5861	1430.3583	1503.5091	2246.7674	3014.8674	3053.8126	3111.6969	3502.4809	3831.9288
OCC(C#C)C(F)(F)F	OC[C@@H](C#C)C(F)(F)F	
InChI=1S/C5H5F3O/c1-2-4(3-9)5(6,7)8/h1,4,9H,3H2	InChI=1S/C5H5F3O/c1-2-4(3-9)5(6,7)8/h1,4,9H,3H2/t4-/m1/s1
