23
gdb 121149	3.03817	0.89117	0.7543	1.8096	86.27	-0.2535	0.0751	0.3286	1606.8115	0.204796	-388.268307	-388.258604	-388.25766	-388.303461	36.168	
C	 0.1010390083	 1.5834153149	 0.0530411301	-0.38097
C	 0.010574084	 0.0552202849	 0.0664001597	-0.164178
C	-1.4274971796	-0.4639928099	-0.0598134913	-0.200753
C	-1.5253698197	-1.9834798405	-0.0430303875	-0.052293
C	-1.2369776463	-2.7640027737	 1.2803866458	-0.234627
C	-2.4424872162	-3.7025367157	 0.975403309	-0.321242
C	-2.9006696693	-2.6658549909	-0.0509836943	 0.444744
C	-4.2258447544	-2.0632110392	-0.2098340722	-0.265681
O	-3.6717868263	-2.938311555	-1.2047807007	-0.27611
H	 1.1372459977	 1.923784718	 0.1443077406	 0.111526
H	-0.3042133403	 1.9957083979	-0.8777789206	 0.114513
H	-0.4670998167	 2.0210067278	 0.8815825885	 0.112975
H	 0.6148158226	-0.3563268117	-0.752834944	 0.096295
H	 0.4544957065	-0.3303199586	 0.9933458788	 0.099008
H	-2.0362060052	-0.0522935284	 0.7574864796	 0.088086
H	-1.8677315933	-0.0848782525	-0.9926842183	 0.099547
H	-0.924217568	-2.4054711122	-0.8587711103	 0.081162
H	-0.2572577176	-3.2343710694	 1.3772394562	 0.102757
H	-1.4160379338	-2.14014901	 2.1611701714	 0.101904
H	-2.1323602225	-4.6316179389	 0.4880375319	 0.115043
H	-3.1237658511	-3.9435142211	 1.7947512557	 0.10386
H	-5.0723664843	-2.4657309591	 0.3461701099	 0.110804
H	-4.3233069148	-1.0207317869	-0.509995828	 0.113628
72.5122	83.5416	107.3115	116.1569	246.2118	250.1489	276.1156	314.4665	342.2544	458.3484	502.3185	552.6302	738.4405	744.9619	798.2959	847.0829	863.5915	891.6337	893.9762	909.6671	953.6654	957.424	1010.3617	1046.823	1078.1909	1102.1037	1126.4222	1146.2894	1157.5945	1168.9466	1182.9107	1215.5509	1240.517	1262.079	1266.5928	1278.3332	1307.6479	1330.1201	1373.2543	1397.2161	1412.1841	1427.1651	1476.0516	1481.7929	1492.6149	1498.1705	1499.9621	1510.1298	1536.9013	3001.1532	3016.9491	3022.8778	3029.0615	3034.6416	3055.25	3058.6391	3061.4402	3076.9429	3095.7354	3101.4035	3107.8899	3123.8697	3162.3963
CCCC1CCC11CO1	CCC[C@H]1CC[C@]21CO2	
InChI=1S/C8H14O/c1-2-3-7-4-5-8(7)6-9-8/h7H,2-6H2,1H3	InChI=1S/C8H14O/c1-2-3-7-4-5-8(7)6-9-8/h7H,2-6H2,1H3/t7-,8+/m0/s1
