20
gdb 12825	3.19636	1.92208	1.51965	1.2656	73.95	-0.2447	0.0848	0.3295	917.6069	0.179138	-349.00986	-349.002421	-349.001476	-349.040992	30.275	
O	-0.0507247962	 1.4036994246	 0.0489315942	-0.472177
C	 0.0082785311	-0.0000939972	-0.0265678578	 0.41584
C	-0.4983016999	-0.630524256	-1.2973772891	-0.349802
C	-1.3366136265	-0.6724284	-0.026997835	-0.051935
C	-1.5543580972	-1.9956516399	 0.7080270521	-0.22369
C	-0.4092904179	-2.3588415636	 1.6696399376	-0.182135
C	 0.9671325439	-2.1105656809	 1.0412076448	-0.209973
C	 1.1599372993	-0.6147127513	 0.7489150383	-0.26544
H	 0.7016778698	 1.7540389861	-0.4414261555	 0.275989
H	-0.8157068737	 0.0436529605	-2.0852176355	 0.106113
H	-0.052869265	-1.5594891082	-1.6416036729	 0.103835
H	-2.1735581441	 0.0179721444	-0.0191224859	 0.093353
H	-2.4946612238	-1.9488845915	 1.267038841	 0.098473
H	-1.6796693507	-2.8022753696	-0.0258976211	 0.09768
H	-0.4906039977	-1.7509072631	 2.5804537525	 0.097653
H	-0.5079338735	-3.4044641068	 1.9814574119	 0.089499
H	 1.762285194	-2.4535391063	 1.7117569001	 0.09454
H	 1.0684067953	-2.6981275337	 0.118909355	 0.0956
H	 2.1060966799	-0.4429933953	 0.2170692706	 0.081875
H	 1.230491723	-0.0714413624	 1.6998717048	 0.104702
128.4301	209.5896	292.0207	316.1377	360.9483	383.5572	395.2677	476.1633	493.7143	575.3939	685.1982	771.8619	815.9556	857.8158	895.9778	905.532	926.4522	947.0904	969.39	1001.4187	1040.4368	1069.0908	1094.2229	1112.1793	1131.5361	1181.5551	1189.0466	1230.7922	1264.963	1285.1883	1301.2376	1342.9993	1364.6537	1368.632	1379.8472	1387.6771	1412.996	1476.6216	1491.2904	1493.1098	1494.7171	1510.043	3005.3267	3016.3153	3018.9325	3022.1892	3047.6278	3064.0219	3068.5022	3073.318	3122.2401	3162.5718	3213.5522	3787.0231
OC12CC1CCCC2	O[C@]12C[C@H]1CCCC2	
InChI=1S/C7H12O/c8-7-4-2-1-3-6(7)5-7/h6,8H,1-5H2	InChI=1S/C7H12O/c8-7-4-2-1-3-6(7)5-7/h6,8H,1-5H2/t6-,7-/m1/s1
