19
gdb 93765	2.9111	1.31863	0.94241	3.649	80.94	-0.2288	-0.0495	0.1793	1259.2818	0.158172	-423.064951	-423.05595	-423.055006	-423.098658	33.372	
C	 0.1036607904	 1.554271758	-0.0771505621	-0.399688
C	 0.0876901539	 0.0374637831	-0.0007340559	 0.007309
O	 0.7320866386	-0.4735702124	-1.1621931515	-0.251573
C	 0.7643199156	-1.8777627588	-1.2223528235	-0.15908
C	 1.331084809	-2.5244844826	 0.0172714073	 0.279085
C	 1.817445524	-3.9355053387	-0.118909872	-0.478729
C	 1.3614555439	-1.8307425797	 1.1656800618	-0.245285
C	 0.7580245041	-0.4941122419	 1.2761999013	 0.364906
O	 0.7267014086	 0.1278960102	 2.3203023498	-0.336919
H	 1.131992445	 1.9130969226	-0.1754442996	 0.129117
H	-0.4708486295	 1.8978938656	-0.9404722146	 0.1179
H	-0.3216672192	 1.9706719325	 0.8371813133	 0.142023
H	-0.9594311727	-0.3229045061	 0.0261160332	 0.085148
H	-0.2458457486	-2.2927672529	-1.410994318	 0.103935
H	 1.3766825213	-2.1355697645	-2.0942343024	 0.121625
H	 2.6523254252	-3.9928136227	-0.8285310054	 0.140998
H	 2.1460693353	-4.343031003	 0.839452632	 0.138043
H	 1.0265607883	-4.5840417221	-0.5168002451	 0.138625
H	 1.7786223268	-2.2456735767	 2.0789341615	 0.102559
70.7486	136.83	181.2436	196.0907	215.6843	271.0883	300.4655	395.3577	412.1292	445.8568	494.4144	527.8804	637.5885	688.3741	797.7349	872.8403	881.9051	907.4419	994.1921	1024.0312	1040.8687	1082.7315	1102.0136	1134.1411	1161.0397	1179.6352	1237.0931	1278.3032	1333.7108	1344.7322	1361.5819	1402.1976	1408.5248	1410.0606	1474.4187	1478.185	1482.1102	1482.5789	1496.9093	1697.8707	1774.5551	2912.9437	2914.4814	3022.0005	3056.2393	3057.3792	3070.6553	3127.0959	3128.5764	3151.6109	3173.4816
CC1OCC(C)=CC1=O	C[C@H]1OCC(=CC1=O)C	
InChI=1S/C7H10O2/c1-5-3-7(8)6(2)9-4-5/h3,6H,4H2,1-2H3	InChI=1S/C7H10O2/c1-5-3-7(8)6(2)9-4-5/h3,6H,4H2,1-2H3/t6-/m1/s1
