15
gdb 20987	3.45269	2.13912	1.34309	3.2014	62.95	-0.2155	0.0239	0.2394	878.6745	0.119787	-396.036706	-396.028802	-396.027858	-396.068861	27.998	
C	-0.0129603149	 1.4667117526	 0.0104855041	-0.351241
N	 0.0185926134	 0.0215239138	 0.039655971	-0.151693
C	 0.0126335719	-0.7557473951	-1.1302110423	 0.456577
O	-0.0190694383	-0.3694433663	-2.2812967134	-0.435362
N	 0.0515549006	-2.0278941295	-0.6150064298	-0.310419
N	 0.0800162508	-2.0754146896	 0.7619466577	-0.266989
C	 0.0594240617	-0.8271108761	 1.1251042216	 0.380872
C	 0.0775212065	-0.3658966687	 2.5388424186	-0.495405
H	 0.8794849201	 1.8954389568	 0.477028581	 0.137398
H	-0.0420380936	 1.7562832608	-1.0419414	 0.176429
H	-0.9018063828	 1.857217991	 0.5157998578	 0.137382
H	 0.0590761839	-2.8766337929	-1.1515922586	 0.27911
H	 0.1085812956	-1.2382656987	 3.1928614195	 0.160891
H	 0.9524354364	 0.2606047143	 2.7454874835	 0.141242
H	-0.8139790213	 0.2237496276	 2.7800745292	 0.141208
121.8247	143.6636	163.1527	203.986	254.7474	290.6351	318.2021	447.9499	554.7129	611.3311	669.1117	744.0878	754.8903	809.1839	970.806	1004.9648	1065.9806	1108.1586	1158.2625	1206.7457	1218.9892	1333.2069	1389.8316	1406.799	1433.455	1471.4381	1476.2428	1498.4186	1500.3875	1511.6698	1647.5816	1837.9731	3034.8479	3037.5305	3087.4536	3098.1232	3141.7958	3149.5775	3702.5582
CN1C(=O)NN=C1C	Cn1c(=O)[nH]nc1C	
InChI=1S/C4H7N3O/c1-3-5-6-4(8)7(3)2/h1-2H3,(H,6,8)	InChI=1S/C4H7N3O/c1-3-5-6-4(8)7(3)2/h1-2H3,(H,6,8)
