23
gdb 68989	2.77935	1.29568	1.06276	0.3333	90.51	-0.2279	0.0911	0.319	1258.7071	0.206009	-351.122525	-351.113531	-351.112587	-351.156169	35.398	
C	-0.1936493144	 1.4389599572	 0.2629487399	-0.495403
C	 0.0519617866	-0.0283530381	 0.0563815857	 0.310259
C	-0.7153265749	-1.0984664624	 0.7919795294	-0.387288
C	 0.785203723	-1.0635059473	 0.9357870159	 0.347896
C	 1.403666779	-1.6980643505	-0.3221206979	-0.285735
C	 0.6635439291	-0.6454805038	-1.2082360369	-0.276742
C	 1.5201152428	-0.9317214149	 2.2219592402	-0.116342
C	 0.8442871615	-0.6511316442	 3.5427309769	-0.274646
C	 1.4308084436	-2.0128977308	 3.2802608138	-0.258591
H	 0.6866387314	 2.033818081	-0.0082295698	 0.111783
H	-1.0309747418	 1.7925652436	-0.352085853	 0.116396
H	-0.436106471	 1.6596911573	 1.3074645553	 0.118947
H	-1.2818965407	-0.7437883707	 1.647062969	 0.105945
H	-1.1977491254	-1.9119083243	 0.2513932265	 0.094541
H	 2.4900831228	-1.5822886545	-0.3622817398	 0.097071
H	 1.1627671874	-2.7527403734	-0.4957266681	 0.090149
H	-0.0472151383	-1.0311650675	-1.9476549119	 0.089337
H	 1.3582934465	 0.0284132544	-1.7172939046	 0.09554
H	 2.506884007	-0.4856448301	 2.1122759322	 0.076573
H	 1.355045613	 0.0047415538	 4.2392382838	 0.109168
H	-0.235818779	-0.5638338523	 3.568314919	 0.110509
H	 0.738822278	-2.8279588251	 3.0978497959	 0.112854
H	 2.3354106839	-2.3002507472	 3.8046442685	 0.10778
59.4285	123.2792	178.2386	206.8128	246.6083	266.0134	337.7173	382.273	447.8534	503.9804	579.8711	672.7532	730.759	787.2031	790.4982	820.4337	848.3463	902.4348	909.8353	939.9426	945.2839	967.3895	987.6279	1022.551	1056.0583	1060.1651	1079.3978	1087.3379	1092.3901	1137.834	1144.1769	1182.7476	1199.6884	1203.3138	1219.4048	1240.42	1250.3957	1259.4164	1334.1641	1381.5281	1415.7328	1436.626	1464.1648	1481.6695	1486.2592	1488.5089	1499.6785	1501.9207	1522.4794	3015.8975	3032.5233	3041.1482	3070.6805	3081.2261	3091.2537	3095.8836	3100.9669	3115.9825	3132.4308	3138.1016	3191.3142	3211.2171	3226.0612
CC12CC1(CC2)C1CC1	C[C@]12C[C@]1(CC2)C1CC1	
InChI=1S/C9H14/c1-8-4-5-9(8,6-8)7-2-3-7/h7H,2-6H2,1H3	InChI=1S/C9H14/c1-8-4-5-9(8,6-8)7-2-3-7/h7H,2-6H2,1H3/t8-,9+/m0/s1
