14
gdb 60712	4.23536	0.61514	0.57486	1.5419	71.62	-0.276	-0.0558	0.2202	1822.4034	0.098058	-436.664127	-436.654625	-436.653681	-436.701433	31.808	
O	-0.1816762467	 1.4390559281	 0.1052205739	-0.407542
C	 0.0062993879	 0.0540341465	 0.0403288145	-0.11113
C	 0.7473001415	-0.3256091198	-1.2496559442	 0.141321
O	 1.1017335981	 0.5210998819	-2.0276015087	-0.245081
C	 0.7649223724	-0.4822922152	 1.1774078787	 0.131974
C	 1.4017435517	-0.9335229838	 2.0916769986	 0.040797
C	 2.1629731774	-1.4629785106	 3.2207937797	-0.471378
C	 1.9515599151	-2.9019680852	 3.424772729	 0.279434
N	 1.7942254548	-4.0333841636	 3.5911142454	-0.294643
H	 0.2924016874	 1.798432855	-0.662981141	 0.300518
H	-0.9709563446	-0.4592319183	 0.004131574	 0.133324
H	 0.9368148156	-1.4038851503	-1.4060488662	 0.123858
H	 3.2371484173	-1.2886380356	 3.0788235414	 0.187372
H	 1.885048992	-0.9381803792	 4.1438267849	 0.191176
8.9421	69.7677	74.0344	144.3813	196.3969	282.9073	315.4196	350.0551	372.9122	420.1469	458.3883	530.3485	583.5013	717.9709	797.9465	871.9297	934.3129	936.9151	1017.2885	1120.9456	1164.8567	1231.7585	1241.5628	1327.0361	1336.4661	1388.0246	1432.7784	1447.7212	1824.4208	2371.2748	2378.4482	2954.7302	2972.4393	3029.2327	3060.4078	3676.9849
OC(C=O)C#CCC#N	O[C@@H](C=O)C#CCC#N	
InChI=1S/C6H5NO2/c7-4-2-1-3-6(9)5-8/h5-6,9H,2H2	InChI=1S/C6H5NO2/c7-4-2-1-3-6(9)5-8/h5-6,9H,2H2/t6-/m1/s1
