23
gdb 63180	3.00786	1.24694	1.16481	1.2291	85.92	-0.237	0.0838	0.3209	1220.6816	0.206575	-388.287959	-388.278827	-388.277883	-388.321339	35.531	
C	-0.6670166601	 1.5126465941	 0.1306512706	-0.456079
C	-0.161883402	 0.0858446892	 0.0634073673	 0.282646
C	-1.043816443	-0.9210119613	 0.7800300939	-0.45366
C	 0.5619446271	-0.4376150148	-1.1704241088	-0.097137
C	 1.0293821802	 0.4382464531	-2.3238636437	-0.234855
C	 2.5697594365	 0.4274583717	-2.3417961782	-0.218063
C	 3.1448059055	 0.8754932857	-0.9744850432	-0.057538
O	 2.1646981371	 0.9310395726	 0.0649976657	-0.253548
C	 1.323469804	-0.1808003819	 0.1138063244	 0.052206
H	 0.0778009285	 2.2251021634	-0.2255295218	 0.131322
H	-1.5827678774	 1.6345057827	-0.4595462557	 0.107946
H	-0.9034878408	 1.7802019703	 1.1669702517	 0.112042
H	-2.0434196585	-0.9566877647	 0.3308964701	 0.114279
H	-0.6241698421	-1.9311451153	 0.7332097728	 0.110252
H	-1.1619382381	-0.6568033727	 1.8374121541	 0.114922
H	 0.3640189399	-1.4744231746	-1.4299757973	 0.076178
H	 0.6417877847	 0.0612229386	-3.2749262639	 0.096733
H	 0.6613738627	 1.4630144608	-2.2225323204	 0.105954
H	 2.9039389195	-0.5902211226	-2.5724512984	 0.100706
H	 2.9597721856	 1.0730598389	-3.135319407	 0.096889
H	 3.9727566084	 0.2176089467	-0.671064345	 0.089835
H	 3.5394555982	 1.8942001725	-1.0316576923	 0.107018
H	 1.6962508341	-1.0093889227	 0.7184941153	 0.071952
98.7729	141.7368	172.0188	206.3712	220.3753	266.6978	316.1795	331.3472	435.8406	465.2235	492.2262	543.9716	686.0688	711.6002	799.039	834.7901	868.2837	873.8835	942.1277	970.3281	981.1618	988.9547	1002.8365	1026.8675	1074.8013	1082.4043	1112.4407	1149.3811	1151.9766	1165.4632	1211.0033	1244.248	1263.655	1294.9519	1324.3808	1327.9052	1361.0217	1374.029	1402.5663	1407.9162	1418.1405	1442.5495	1483.1736	1486.0183	1493.6357	1498.0629	1505.5772	1512.2638	1516.7787	2988.7143	3019.6563	3029.3115	3038.7626	3054.6166	3066.4481	3078.6007	3080.3353	3083.3484	3086.4207	3095.3306	3096.364	3137.4183	3139.5695
CC1(C)C2CCCOC12	CC1(C)[C@H]2CCCO[C@@H]12	
InChI=1S/C8H14O/c1-8(2)6-4-3-5-9-7(6)8/h6-7H,3-5H2,1-2H3	InChI=1S/C8H14O/c1-8(2)6-4-3-5-9-7(6)8/h6-7H,3-5H2,1-2H3/t6-,7+/m0/s1
