16
gdb 25904	2.73028	1.52251	0.98483	4.299	74.69	-0.18	-0.0001	0.1798	1133.9382	0.126897	-434.13824	-434.129958	-434.129014	-434.170847	32.286	
N	-0.0287206717	 1.3170943087	-0.0123757515	-0.541634
C	 0.0164762574	-0.0604500624	 0.0715569531	 0.314832
O	 1.0866357383	-0.6436791616	 0.2170004877	-0.391644
C	-1.2682347974	-0.7624021585	 0.0245138891	 0.131333
C	-2.5500607751	-0.2337104728	 0.1140479928	-0.177239
N	-3.4286523804	-1.2622032471	 0.0718473518	-0.245857
C	-2.7555722275	-2.4688293202	-0.0454972682	-0.159272
C	-1.405460764	-2.1917484761	-0.0740277394	 0.177797
N	-0.3441514271	-3.0738837419	-0.2458191493	-0.613655
H	 0.8717036886	 1.7547111085	-0.1382231366	 0.253307
H	-0.794985973	 1.745698442	-0.5057042069	 0.249205
H	-2.8853340693	 0.7817753557	 0.2517381942	 0.123698
H	-4.4263452817	-1.1703224767	 0.1429511069	 0.264387
H	-3.2897034783	-3.4021880937	-0.106121297	 0.113058
H	-0.4929767202	-3.9892971244	 0.1532371423	 0.234496
H	 0.5286350115	-2.6521611795	 0.052252611	 0.267188
77.9334	175.4373	207.0746	297.157	339.1114	366.0066	420.6732	440.574	451.7748	515.1386	530.9658	614.2146	631.5126	660.7113	691.0463	715.0499	730.289	757.573	813.4409	904.5567	1070.9228	1083.3533	1102.1431	1148.159	1199.2039	1277.0964	1316.2071	1402.5965	1435.256	1496.0195	1547.0628	1607.5521	1623.6886	1645.0954	1748.4797	3259.1347	3271.7161	3517.1412	3580.2502	3637.2274	3689.4135	3703.3641
NC(=O)C1=CNC=C1N	NC(=O)c1c[nH]cc1N	
InChI=1S/C5H7N3O/c6-4-2-8-1-3(4)5(7)9/h1-2,8H,6H2,(H2,7,9)	InChI=1S/C5H7N3O/c6-4-2-8-1-3(4)5(7)9/h1-2,8H,6H2,(H2,7,9)
