23
gdb 103306	2.39055	1.40673	1.37352	0.835	86.25	-0.2469	0.0896	0.3365	1153.7984	0.204099	-388.239381	-388.229641	-388.228697	-388.273702	37.189	
C	-0.2885834233	 1.0974578566	 0.2253777465	-0.250102
O	-0.3526531783	-0.2174133635	-0.2812332358	-0.301544
C	 0.5962669706	-0.5380471949	-1.2890937805	 0.44529
C	 0.1442288195	 0.090926248	-2.60429467	-0.480915
C	 2.1076840076	-0.5473554521	-0.8684684444	-0.120869
C	 1.7541582167	-1.7131399096	 0.1030209188	-0.26513
C	 1.0085468683	-2.050185549	-1.2321256893	 0.286518
C	 0.1207614058	-3.2326341282	-1.5141492391	-0.521067
C	 2.3362912278	-1.6447828857	-1.9466403942	-0.283385
H	 0.6990534023	 1.3254512014	 0.6522230166	 0.106761
H	-0.5196939823	 1.8580731937	-0.534179852	 0.105458
H	-1.0365644585	 1.1683228277	 1.0194751142	 0.123937
H	 0.1605764656	 1.1835327776	-2.5397494969	 0.117154
H	 0.761058444	-0.1900577364	-3.4579808877	 0.119848
H	-0.8869757901	-0.211927433	-2.811159934	 0.125043
H	 2.7499629612	 0.3116293697	-0.6681042929	 0.064383
H	 2.5818307005	-2.3793397915	 0.3604743922	 0.081213
H	 1.1341001316	-1.4800824543	 0.9658570169	 0.106116
H	-0.7503336156	-3.226685547	-0.8507081174	 0.12991
H	-0.242572031	-3.2195987968	-2.5479673501	 0.115697
H	 0.6576973375	-4.1749593951	-1.3604214023	 0.116268
H	 2.2984087796	-1.3622634108	-2.9990052461	 0.088622
H	 3.1845373105	-2.3076597668	-1.7583565524	 0.090793
55.8378	136.9725	158.0915	178.5259	192.9952	211.5004	296.9999	335.7591	368.3544	428.8225	486.7149	550.2627	575.5977	645.4871	670.8662	772.9146	803.3644	892.2978	902.9192	905.0071	953.3768	992.9229	1010.7547	1022.8137	1070.1899	1089.0831	1104.1599	1131.0501	1164.8731	1170.3414	1180.8847	1185.2794	1187.5167	1217.1266	1228.7376	1234.7981	1273.9195	1338.7149	1404.292	1410.6096	1474.6942	1481.9568	1484.7869	1489.4803	1492.077	1497.8779	1506.7446	1512.9621	1543.7511	2987.3359	3026.8009	3034.6939	3047.9681	3064.5989	3068.7304	3091.2795	3099.2444	3100.3747	3103.0859	3107.4392	3125.9094	3147.4081	3159.2505
COC1(C)C2CC1(C)C2	CO[C@@]1(C)[C@H]2C[C@]1(C)C2	
InChI=1S/C8H14O/c1-7-4-6(5-7)8(7,2)9-3/h6H,4-5H2,1-3H3	InChI=1S/C8H14O/c1-7-4-6(5-7)8(7,2)9-3/h6H,4-5H2,1-3H3/t6-,7+,8-/m0/s1
