16
gdb 33051	5.17137	0.84362	0.75592	5.2951	67.95	-0.2135	0.0321	0.2455	1473.0246	0.123406	-475.064377	-475.055632	-475.054688	-475.099097	31.023	
C	-0.0483725619	 1.5267986263	 0.1477305998	-0.38738
C	-0.1489778342	 0.0904835461	-0.3241330529	-0.063598
O	-1.1616892707	-0.5650420906	 0.4716617853	-0.275177
C	-1.3902343545	-1.8508165719	 0.1676400609	 0.352052
C	-2.4204161157	-2.4397809782	-0.4518245117	-0.137199
O	-2.2266017091	-3.8122921029	-0.4637111897	-0.207374
C	-1.0363531059	-4.1009585353	 0.1720645815	 0.495835
O	-0.6041826524	-5.2066227973	 0.3441673444	-0.397872
N	-0.5049695369	-2.8779345162	 0.5319888556	-0.436411
H	 0.7085374342	 2.0586123738	-0.4358428809	 0.127868
H	-1.0059569811	 2.0399662789	 0.026027197	 0.137318
H	 0.2341148533	 1.5683752281	 1.2031796953	 0.13461
H	-0.4391471242	 0.0286027702	-1.3803858774	 0.115676
H	 0.8074252547	-0.4354015536	-0.2049191372	 0.107545
H	-3.3162866565	-2.0573362948	-0.9049180885	 0.155446
H	 0.2880190309	-2.7937409227	 1.1439027284	 0.278661
48.6666	54.8543	106.8188	204.2845	240.8916	324.884	359.0858	398.3023	425.5449	551.9942	621.6258	680.3536	726.2676	767.9761	772.1355	815.7089	893.1564	927.0335	1012.7899	1051.2447	1098.5088	1131.2687	1163.2917	1178.8008	1263.0558	1290.3464	1325.4309	1390.0933	1409.0251	1427.4137	1482.6436	1498.7349	1522.603	1734.3447	1899.5327	3013.3182	3049.4769	3055.4126	3125.4017	3129.0714	3309.4114	3688.2276
CCOC1=COC(=O)N1	CCOc1coc(=O)[nH]1	
InChI=1S/C5H7NO3/c1-2-8-4-3-9-5(7)6-4/h3H,2H2,1H3,(H,6,7)	InChI=1S/C5H7NO3/c1-2-8-4-3-9-5(7)6-4/h3H,2H2,1H3,(H,6,7)
