22
gdb 10222	3.01304	1.14721	0.88504	3.0105	75.67	-0.2454	0.0781	0.3235	1374.1126	0.198651	-387.33207	-387.321817	-387.320873	-387.367579	36.132	
C	 0.0718383596	 1.5381584777	 0.1349805542	-0.389972
C	-0.0418680832	 0.0240449031	-0.0719244521	-0.183867
C	-1.4879998884	-0.5088114005	-0.0776183911	-0.025849
C	-2.232610653	-0.138521735	-1.3741711996	-0.047218
O	-3.6293663617	-0.3296451178	-1.2995761367	-0.433711
C	-1.4692307315	-2.0239265683	 0.1345945044	-0.066804
O	-2.7959512659	-2.5314222636	 0.1586070281	-0.244001
C	-2.8526481686	-3.9332416597	 0.3001033072	-0.234682
H	 1.1204396853	 1.8510997652	 0.149332082	 0.113404
H	-0.4270958656	 2.1011722435	-0.6593795119	 0.124972
H	-0.3792467925	 1.8388125806	 1.0867394714	 0.118853
H	 0.4500391014	-0.258395597	-1.0129272846	 0.09749
H	 0.5210833953	-0.4819769595	 0.7230514899	 0.093413
H	-2.0410002644	-0.0582136417	 0.7574709685	 0.086314
H	-2.0813787643	 0.9214333605	-1.6032198556	 0.09958
H	-1.7863202151	-0.7104802888	-2.2094180403	 0.071405
H	-3.7567790949	-1.2126366468	-0.9283498713	 0.28713
H	-0.9006674812	-2.5099567206	-0.6779708219	 0.088055
H	-0.9625242297	-2.2735100485	 1.0813703232	 0.089906
H	-2.3554314558	-4.446633805	-0.5369786622	 0.110902
H	-2.3773541693	-4.2599698959	 1.2372461016	 0.111538
H	-3.9065947168	-4.2194706221	 0.3184879869	 0.13314
65.1805	94.2896	99.9824	132.4446	171.4247	215.3016	233.3372	271.33	317.4692	356.2105	382.2773	468.7531	531.6996	545.4938	767.5005	883.5328	904.3365	931.1527	979.4609	1013.8643	1043.0845	1089.4795	1113.262	1137.6507	1161.6293	1165.0451	1187.5598	1227.7129	1238.2156	1270.6217	1290.5092	1316.1268	1357.7732	1382.7851	1398.69	1413.246	1427.6774	1469.6986	1481.7158	1485.3788	1486.9877	1501.1071	1501.7606	1505.6213	1512.2027	1527.6589	2926.3717	2948.0508	2980.2273	2984.0282	3010.5556	3026.4415	3029.0904	3036.5254	3044.8039	3067.1982	3103.1817	3109.6305	3121.02	3752.3756
CCC(CO)COC	CC[C@@H](CO)COC	
InChI=1S/C6H14O2/c1-3-6(4-7)5-8-2/h6-7H,3-5H2,1-2H3	InChI=1S/C6H14O2/c1-3-6(4-7)5-8-2/h6-7H,3-5H2,1-2H3/t6-/m0/s1
