18
gdb 56238	3.21928	0.91037	0.82876	4.965	74.12	-0.1895	0.0191	0.2087	1413.0892	0.147449	-472.417424	-472.407539	-472.406594	-472.452723	36.259	
N	 0.043443799	 1.2900537322	 0.0020741436	-0.553959
C	-0.3516217282	 0.0003246961	-0.388304195	 0.312077
N	 0.5924043573	-0.6164281781	-1.2167570579	-0.552016
H	 1.0389696547	 0.0547849155	-1.831719724	 0.254629
H	 0.1986392984	-1.3679976063	-1.7687496814	 0.245379
C	-1.5035913146	-0.5841265442	 0.0203492971	-0.196085
N	-1.902186921	-1.9066505424	-0.2972730002	-0.296561
C	-3.1079347651	-2.1208305436	-1.0878099184	-0.301141
C	-3.0612096514	-1.6632542468	-2.5548663184	 0.386672
O	-2.440753399	-0.4822174323	-2.769473032	-0.373254
O	-3.536493282	-2.291475187	-3.4609690751	-0.31839
H	 1.0021443842	 1.3105149628	 0.3340495901	 0.250816
H	-0.5645872971	 1.6848181764	 0.707623134	 0.25033
H	-2.1162514161	-0.0774641833	 0.7623460558	 0.084249
H	-2.1286041905	-0.1163830747	-1.9173014204	 0.302076
H	-1.1477204484	-2.5317093257	-0.5408291775	 0.234849
H	-3.3628318164	-3.1825890173	-1.0930683709	 0.136782
H	-3.9378912038	-1.5905709713	-0.6011649793	 0.133548
54.7292	82.7205	97.7652	142.0224	242.5054	290.0463	313.4748	332.6332	374.783	428.976	480.972	526.8013	565.1551	583.9745	595.9305	695.3605	718.763	762.8993	794.7085	840.8598	865.0575	914.3523	979.135	1062.636	1134.3605	1142.9401	1211.9692	1241.7886	1277.3411	1331.4464	1350.5234	1377.3631	1429.4739	1456.5712	1485.19	1644.1413	1647.4329	1724.412	1862.4638	3024.8381	3116.652	3142.6349	3510.1166	3515.0046	3522.7851	3590.2497	3617.1779	3619.4186
NC(=[NH2+])CNCC([O-])=O	NC(=[NH2])C=[NH]CC(=O)O	
InChI=1S/C4H9N3O2/c5-3(6)1-7-2-4(8)9/h7H,1-2H2,(H3,5,6)(H,8,9)	InChI=1S/C4H9N3O2/c5-3(6)1-7-2-4(8)9/h1,7H,2,5-6H2,(H,8,9)
