16
gdb 15926	3.47612	1.95314	1.57765	4.708	68.54	-0.2364	0.0035	0.2399	845.9463	0.131986	-342.751845	-342.74481	-342.743866	-342.783757	26.263	
N	 0.0084062618	-1.1325914183	-0.3164562007	-0.33919
C	 0.0004660198	 0.0102622926	-0.1402289007	 0.237934
C	-0.0419402639	 1.4464692221	 0.082443644	 0.221895
C	-0.5262372154	 2.3227594192	-1.1061015235	-0.303455
C	 0.8047831933	 3.1054292113	-0.9593857192	-0.164912
N	 1.2760299007	 2.2127464779	 0.1494119471	-0.150723
C	 0.9003306897	 2.7255494022	 1.5074493067	-0.164911
C	-0.4248955942	 1.9196540596	 1.5123321968	-0.303448
H	-0.6340979867	 1.7759525659	-2.0435395494	 0.13436
H	-1.4464638534	 2.8775095824	-0.9117807736	 0.118196
H	 1.4648176124	 3.0480462448	-1.8287978983	 0.122359
H	 0.7103049598	 4.1556771653	-0.6648239812	 0.10849
H	 1.6234027012	 2.417210691	 2.2669950554	 0.122359
H	 0.79622409	 3.8146136818	 1.5500595883	 0.108492
H	-1.3505922708	 2.4965219377	 1.563648377	 0.118194
H	-0.4681234543	 1.1153122744	 2.2475765115	 0.13436
41.2631	163.5673	178.4225	317.8508	383.5536	537.615	551.0519	557.5432	700.2488	752.2628	756.6821	813.8915	898.7629	926.6779	938.0199	952.6585	966.8393	1031.624	1052.5952	1145.4617	1183.7634	1185.8128	1219.8237	1224.6988	1250.932	1255.5572	1286.9911	1306.6382	1320.5894	1475.0837	1486.8506	1497.4972	1517.3469	2348.3513	3043.1079	3047.8309	3075.8378	3077.6187	3092.7349	3095.0779	3136.5458	3139.9464
N#CC12CCN1CC2	N#C[C@]12CCN1CC2	
InChI=1S/C6H8N2/c7-5-6-1-3-8(6)4-2-6/h1-4H2	InChI=1S/C6H8N2/c7-5-6-1-3-8(6)4-2-6/h1-4H2
