17
gdb 85734	2.00759	1.45697	1.15542	3.4044	74.8	-0.2428	-0.0305	0.2122	1136.0477	0.133542	-421.779264	-421.770222	-421.769278	-421.813534	33.27	
O	 0.129968127	 1.3746063335	-0.2269448306	-0.428895
C	 0.0514121452	-0.0178277854	-0.0345411274	 0.123937
C	 0.2704770309	-0.4848781377	 1.4267190219	-0.257685
C	-1.2844190709	-0.5264007085	 1.6184960377	-0.217878
C	-1.8122368448	 0.6890556268	 2.2156703067	 0.310507
C	-2.2117180816	 1.7138401861	 2.7059210431	-0.459893
C	-1.4107917146	-0.5979800277	 0.0473430454	-0.113829
C	-2.5085602335	 0.1358090982	-0.6742284483	 0.159071
O	-3.1314026264	-0.3355289356	-1.5931816651	-0.257426
H	-0.31142445	 1.8157372299	 0.5096328167	 0.287935
H	 0.6823695757	-0.4642708636	-0.8050888083	 0.102192
H	 0.7009294742	-1.4875836735	 1.4803751576	 0.117314
H	 0.833955663	 0.1902480107	 2.0733779924	 0.11893
H	-1.6786280225	-1.4015170422	 2.1409060048	 0.115555
H	-2.585252347	 2.6034046303	 3.1508359888	 0.210312
H	-1.4188233808	-1.6407714692	-0.2770655812	 0.103538
H	-2.709984564	 1.1649392078	-0.3138232942	 0.086315
54.3838	84.1715	134.6566	198.8747	219.6889	300.7208	376.2949	414.0552	452.4358	479.9197	491.639	580.6436	630.9841	648.7721	779.5847	816.6741	836.1404	871.4046	907.4769	980.1034	1017.5278	1048.7236	1110.3716	1120.1743	1128.6212	1180.5977	1214.8882	1254.3926	1257.8194	1272.742	1335.6247	1344.7549	1440.5069	1442.7754	1472.013	1818.9049	2221.2893	2926.2787	3068.6923	3076.8878	3093.7865	3104.295	3133.7227	3499.2366	3774.98
OC1CC(C#C)C1C=O	O[C@H]1C[C@@H](C#C)[C@H]1C=O	
InChI=1S/C7H8O2/c1-2-5-3-7(9)6(5)4-8/h1,4-7,9H,3H2	InChI=1S/C7H8O2/c1-2-5-3-7(9)6(5)4-8/h1,4-7,9H,3H2/t5-,6-,7+/m1/s1
