17
gdb 35002	2.31078	1.68366	1.59556	3.1262	76.99	-0.2463	0.01	0.2563	960.741	0.137942	-380.864392	-380.856779	-380.855835	-380.896755	28.957	
N	 0.2563662772	-1.2440498669	 0.2014494683	-0.347289
C	 0.1778948005	-0.0902558627	 0.1610422187	 0.301644
C	 0.0341289481	 1.3397164225	 0.0537466075	-0.16984
C	 0.4280262086	 2.2390846092	 1.1946872055	-0.024898
C	 0.9842967029	 1.6801168254	 2.4931419205	-0.290015
C	 2.3135978188	 0.9972531263	 2.3387941774	-0.060852
C	 3.0034533559	 0.9885544028	 1.2034552415	-0.035571
C	 2.543192913	 1.6564120954	-0.0608948761	-0.214402
N	 1.195098882	 2.2374905218	-0.0463362593	-0.11195
H	-0.8019028437	 1.6303313372	-0.578257271	 0.134343
H	-0.1895635631	 3.1276754093	 1.3121763664	 0.106969
H	 1.0831232499	 2.5079029319	 3.2080789961	 0.122765
H	 0.2552723841	 0.9926148029	 2.9428162232	 0.132792
H	 2.7053927501	 0.5000391728	 3.2212430607	 0.098724
H	 3.9674411135	 0.4899548215	 1.1488322228	 0.09705
H	 3.2306385031	 2.4768776915	-0.3086276097	 0.127298
H	 2.6006368791	 0.9548424492	-0.9026560824	 0.133232
83.5797	112.0263	145.2886	335.1345	344.7534	385.5378	501.2051	530.8129	596.8573	623.0621	675.966	695.0745	798.3228	844.376	916.7527	933.5538	943.0733	967.5826	995.7161	1023.3447	1052.0623	1075.3133	1119.739	1152.2915	1200.084	1236.3769	1271.1607	1328.5569	1354.6908	1364.9409	1372.1009	1399.8661	1427.4514	1475.1615	1479.8555	1741.4537	2346.7977	3012.374	3014.4396	3036.871	3045.6767	3118.366	3134.8489	3157.3668	3179.7345
N#CC1C2CC=CCN12	N#C[C@H]1[C@H]2CC=CCN12	
InChI=1S/C7H8N2/c8-5-7-6-3-1-2-4-9(6)7/h1-2,6-7H,3-4H2	InChI=1S/C7H8N2/c8-5-7-6-3-1-2-4-9(6)7/h1-2,6-7H,3-4H2/t6-,7+,9?/m1/s1
