23
gdb 106109	2.53823	1.39121	1.15951	0.4189	89.52	-0.2328	0.0911	0.3238	1220.6482	0.206177	-351.118069	-351.109215	-351.108271	-351.15142	34.795	
C	-0.4160065583	 1.5780847494	-0.058264284	-0.373124
C	-0.0076058812	 0.1019940667	 0.0477545802	-0.337572
C	 0.7473059788	-0.3941007765	-1.144089499	 0.395067
C	 0.3146481704	-0.7375718371	-2.5537472805	-0.131375
C	 1.3783511532	 0.1676698434	-3.1700240357	-0.241218
C	 2.1326150212	 0.0161226405	-1.8226874198	-0.11588
C	 2.5447622047	-1.4852495383	-1.7841930658	 0.028579
C	 3.3400067086	-1.8874777384	-0.5479249193	-0.410959
C	 1.0467117314	-1.7746005493	-1.6808260172	-0.134552
H	 0.4628643806	 2.2219935537	-0.1694884507	 0.117075
H	-1.0626862731	 1.7447483175	-0.9257998479	 0.117971
H	-0.9573496448	 1.9032894868	 0.8356454997	 0.109159
H	 0.5914820098	-0.0447078621	 0.9569855632	 0.099243
H	-0.9043471201	-0.5192123223	 0.1751371702	 0.099414
H	-0.6930587951	-0.9256669967	-2.9048405638	 0.077722
H	 1.901270216	-0.1622080123	-4.0762422335	 0.083092
H	 0.9992320396	 1.1831101318	-3.3168279804	 0.094432
H	 2.8229280485	 0.7836595813	-1.4734881114	 0.061152
H	 3.052942189	-1.8451932434	-2.6895188914	 0.054122
H	 2.86405992	-1.5168377236	 0.3666586345	 0.114229
H	 3.4178808141	-2.9771659564	-0.4632253591	 0.110263
H	 4.3578824933	-1.4835516076	-0.5864092766	 0.108819
H	 0.5655604032	-2.7067604672	-1.4062044518	 0.074339
77.6749	122.8586	172.1175	224.4999	243.197	281.13	325.7589	369.2615	448.1335	509.7099	596.5845	731.8043	750.5532	768.7583	816.8353	851.0823	893.957	913.0268	929.3459	949.8888	977.926	986.4585	1013.3813	1025.6089	1039.8714	1062.132	1081.6259	1103.248	1108.8322	1141.4478	1167.2147	1177.6008	1208.6717	1223.9847	1256.0293	1282.1475	1298.1389	1310.8985	1352.8741	1379.8	1407.197	1409.3417	1453.9423	1476.888	1494.1131	1497.1774	1498.7592	1502.04	1507.4367	3001.1531	3005.6058	3023.7893	3024.6389	3033.2029	3037.3904	3087.8766	3088.7141	3095.0998	3101.9411	3105.7921	3116.5147	3172.8814	3185.8441
CCC12C3CC1C(C)C23	CC[C@@]12[C@H]3C[C@@H]1[C@@H](C)[C@@H]23	
InChI=1S/C9H14/c1-3-9-6-4-7(9)8(9)5(6)2/h5-8H,3-4H2,1-2H3	InChI=1S/C9H14/c1-3-9-6-4-7(9)8(9)5(6)2/h5-8H,3-4H2,1-2H3/t5-,6-,7+,8-,9+/m1/s1
