20
gdb 93114	1.97992	1.67944	1.25197	3.8864	83.31	-0.2517	0.0152	0.2669	1120.9864	0.172514	-366.054831	-366.046231	-366.045287	-366.087854	32.951	
C	 0.0125649195	 1.562257015	-0.0213353162	-0.419365
C	 0.0538555726	 0.0331268752	-0.0109539456	 0.017611
C	 0.6784455246	-0.5411481942	-1.2923510694	-0.254875
C	 0.9317839776	-2.0226635573	-1.2025868115	-0.049302
C	 0.9111664536	-2.7065430815	-0.0599411214	-0.043314
C	 0.6555070394	-2.0770957065	 1.2839446706	-0.27937
C	 0.7782639017	-0.5350780828	 1.2392705168	-0.159091
C	 2.1861971484	-0.1212378462	 1.2666451658	 0.290337
N	 3.2922907477	 0.2150332562	 1.2863430381	-0.341739
H	 1.0234098536	 1.9827138088	-0.0433831809	 0.14153
H	-0.5225662152	 1.9281096777	-0.9033607112	 0.118201
H	-0.4963321902	 1.9542857811	 0.8656407268	 0.113803
H	-0.9744172883	-0.3455130755	 0.0588067506	 0.085231
H	 0.0175714871	-0.326825248	-2.1416900557	 0.106887
H	 1.6207303677	-0.0183319008	-1.5138292543	 0.129172
H	 1.1486349043	-2.5396766595	-2.1339408125	 0.091534
H	 1.0906431625	-3.7783756068	-0.06536937	 0.092182
H	-0.3527537502	-2.3325227188	 1.6382944756	 0.11617
H	 1.3468071833	-2.4831098091	 2.0307522704	 0.125531
H	 0.3113700402	-0.1151166273	 2.138420894	 0.118867
99.1858	139.0159	148.9897	231.4424	248.8009	302.2052	387.4273	399.6968	443.8084	463.7094	608.0145	617.0802	681.9328	733.9892	835.4783	885.2816	898.6729	910.4608	953.3959	1002.1254	1006.0385	1014.7297	1060.2676	1071.2329	1120.9789	1136.9831	1193.2767	1223.7779	1242.1171	1270.5973	1316.7459	1327.7048	1363.4906	1385.35	1393.378	1413.4038	1417.9771	1474.7094	1477.3626	1496.2591	1502.0856	1728.2193	2350.9821	3003.4565	3012.3488	3019.2368	3032.392	3039.6678	3045.8105	3062.0544	3100.9897	3107.7839	3149.9786	3172.7624
CC1CC=CCC1C#N	C[C@H]1CC=CC[C@H]1C#N	
InChI=1S/C8H11N/c1-7-4-2-3-5-8(7)6-9/h2-3,7-8H,4-5H2,1H3	InChI=1S/C8H11N/c1-7-4-2-3-5-8(7)6-9/h2-3,7-8H,4-5H2,1H3/t7-,8-/m0/s1
