22
gdb 97205	2.2268	1.47849	1.11988	2.4009	84.91	-0.2393	0.0371	0.2764	1226.4092	0.193341	-404.380224	-404.370152	-404.369208	-404.416306	36.653	
C	 0.2148096383	 1.4139807282	 0.1574600121	-0.333707
N	 0.2499845051	-0.0391260929	 0.127876511	-0.328882
C	 0.6926525901	-0.6376003344	-0.8874914451	 0.430556
O	 1.1780234144	-0.0218370409	-2.0126838925	-0.257013
C	 1.5926818342	-0.9988655066	-2.9787338663	-0.095833
C	 1.7694776004	-2.3022257075	-2.1938088972	-0.25964
C	 0.7453524131	-2.1556795065	-1.0466929424	 0.171629
C	 1.1761426363	-2.8417423069	 0.2518696899	-0.429139
C	-0.6520870406	-2.6530910432	-1.4737129425	-0.423065
H	 0.6295042617	 1.7616242678	 1.1099375195	 0.119728
H	 0.7597100102	 1.8944080361	-0.6630358757	 0.121281
H	-0.8278977787	 1.7532699896	 0.1242953491	 0.12143
H	 0.8192742067	-1.0824197938	-3.75253806	 0.110436
H	 2.5111817714	-0.6381484575	-3.4483027736	 0.117002
H	 1.6015452657	-3.1882337394	-2.8110289977	 0.105591
H	 2.7840073039	-2.3600588686	-1.7863356277	 0.108613
H	 2.1740753029	-2.5143750616	 0.5591264791	 0.112866
H	 0.4812370754	-2.5911349539	 1.0568659415	 0.139653
H	 1.194680628	-3.9297498206	 0.1268338207	 0.105222
H	-0.6408337719	-3.7383545616	-1.621089437	 0.112317
H	-1.3881579858	-2.4140880347	-0.7015902073	 0.136485
H	-0.9846155107	-2.1886531412	-2.407990608	 0.114473
15.2502	86.5101	156.2983	193.2349	205.3927	220.1099	258.9742	293.3172	319.9652	339.8398	390.739	540.2223	571.7093	671.1793	725.7815	735.6579	813.839	915.4122	945.4875	964.0836	972.9384	1013.0909	1033.513	1059.1229	1063.7782	1116.2274	1132.2595	1173.5086	1190.4231	1224.132	1244.0882	1249.2985	1291.8502	1344.3646	1393.9099	1397.8498	1419.7769	1438.367	1477.8157	1486.5765	1493.2487	1494.389	1498.4516	1500.3326	1508.8322	1527.6621	1797.6722	3014.0151	3025.0936	3030.897	3035.6936	3051.2318	3071.1962	3086.8647	3092.9113	3097.4387	3102.2731	3107.9725	3118.0827	3126.6818	15.2564	86.5103	156.2986	193.2345	205.3928	220.1096	258.9736	293.3174	319.9652	339.8397	390.7391	540.2221	571.7094	671.1795	725.7824	735.6581	813.839	915.4124	945.4875	964.0837	972.9386	1013.0912	1033.5136	1059.123	1063.7784	1116.2274	1132.259	1173.5082	1190.4234	1224.1322	1244.0884	1249.2989	1291.8505	1344.3648	1393.9103	1397.8501	1419.7772	1438.3668	1477.8161	1486.5768	1493.2483	1494.3894	1498.4511	1500.333	1508.8326	1527.6629	1797.6729	3014.0153	3025.0936	3030.897	3035.6935	3051.2317	3071.1963	3086.8649	3092.9113	3097.4387	3102.2731	3107.9725	3118.0827	3126.6817
CN=C1OCCC1(C)C	CN=C1OCCC1(C)C	
InChI=1S/C7H13NO/c1-7(2)4-5-9-6(7)8-3/h4-5H2,1-3H3	InChI=1S/C7H13NO/c1-7(2)4-5-9-6(7)8-3/h4-5H2,1-3H3
