18
gdb 107771	2.74206	1.63692	1.25813	2.3388	74.89	-0.2322	-0.0071	0.2251	1040.7389	0.14751	-401.902657	-401.894715	-401.893771	-401.935214	30.408	
C	 0.0469172082	 1.5494646166	 0.0005101486	-0.390249
C	 0.0603688727	 0.0136787939	-0.0159206698	-0.312298
C	-1.3287928415	-0.5637530025	 0.0405355967	 0.173043
C	-2.3169315893	-0.402167372	 1.211772777	-0.194204
N	-3.0038222257	-1.6837660641	 0.7975823714	-0.137129
C	-3.0592812893	-1.6429597182	-0.7018779999	-0.173134
C	-1.8139990762	-2.0783160244	 0.036360956	-0.116129
C	-2.2921580403	-0.4419056881	-1.1670539171	 0.422211
O	-2.2593283654	 0.1964903763	-2.1821250458	-0.345859
H	 1.0650284506	 1.9461910122	-0.0430345188	 0.116927
H	-0.5100175018	 1.9363452151	-0.856759425	 0.150136
H	-0.4211621041	 1.9336906141	 0.91323638	 0.117123
H	 0.5558550423	-0.3368248421	-0.9295728519	 0.112861
H	 0.6499920844	-0.3674182883	 0.8275369329	 0.101377
H	-1.8687165823	-0.5680955605	 2.1949409523	 0.118126
H	-2.959795061	 0.4849104849	 1.2343710442	 0.113874
H	-3.8153794268	-2.2394759458	-1.1928669082	 0.122557
H	-1.3247473044	-3.0425537072	 0.0480888174	 0.120767
81.8449	143.2773	188.1975	198.6211	277.3203	367.1145	418.1208	468.2582	617.3124	676.1611	743.5727	763.0357	782.548	804.0668	836.4457	849.7309	894.8229	954.287	970.5516	984.2074	994.0466	1047.6516	1076.6704	1109.7483	1142.6065	1158.3637	1189.2623	1212.8089	1249.8016	1281.9954	1312.001	1343.7017	1381.8384	1410.276	1486.265	1499.9984	1508.6932	1513.0691	1872.557	3022.0375	3038.7145	3041.5297	3057.5052	3104.2174	3106.9855	3127.8562	3213.4329	3226.2935
CCC12CN3C(C13)C2=O	CC[C@]12CN3[C@H]([C@@H]13)C2=O	
InChI=1S/C7H9NO/c1-2-7-3-8-4(5(7)8)6(7)9/h4-5H,2-3H2,1H3	InChI=1S/C7H9NO/c1-2-7-3-8-4(5(7)8)6(7)9/h4-5H,2-3H2,1H3/t4-,5+,7+,8?/m1/s1
