20
gdb 59635	3.03676	1.12694	1.01777	1.223	76.53	-0.2461	0.0207	0.2667	1280.9282	0.170466	-440.317214	-440.307742	-440.306798	-440.351758	34.678	
C	 0.0978906701	 1.5179823994	-0.2123846607	-0.405326
C	 0.0146242423	 0.0194250505	 0.0774735884	 0.1263
O	 0.6019225639	-0.3113538864	 1.328277097	-0.439908
C	-1.4331161637	-0.5058170768	 0.025118519	 0.000408
C	-1.5336219945	-2.0437410333	 0.1863804338	-0.131628
O	-2.4501216488	-2.2230523978	 1.2909797902	-0.249002
C	-2.7004497354	-0.9800129904	 1.7728595877	 0.406058
C	-3.5673833304	-0.9394411045	 2.9849577559	-0.473541
N	-2.203182511	 0.0237009418	 1.1662701943	-0.334168
H	 1.131519228	 1.8594870775	-0.1134000472	 0.119589
H	-0.246881481	 1.7424435423	-1.2275914233	 0.108911
H	-0.5285599655	 2.077516133	 0.488816593	 0.133943
H	 0.6046827898	-0.5277812012	-0.6689563271	 0.083402
H	 0.029084995	 0.0817411981	 1.9997448545	 0.282702
H	-1.8978232182	-0.1648470412	-0.9084819322	 0.080939
H	-1.9449362209	-2.5576144058	-0.6850575989	 0.114719
H	-0.5756132662	-2.4923678887	 0.4646963105	 0.129237
H	-4.5341200558	-1.4053551342	 2.7700886854	 0.148607
H	-3.1076084425	-1.5083252209	 3.7989015435	 0.14795
H	-3.7201841053	 0.0933144985	 3.2957900663	 0.150807
69.7828	85.8016	139.1607	167.9994	225.0593	238.2539	285.6848	326.0658	377.9689	420.1109	492.1331	577.2822	624.3802	694.4333	737.5722	827.1846	909.9572	925.9452	974.027	994.9053	1014.65	1027.9735	1053.0897	1067.6245	1082.6245	1118.0492	1159.163	1232.283	1260.5893	1273.4544	1322.0078	1337.6667	1375.8632	1390.5494	1401.2178	1415.8863	1429.44	1475.0052	1476.2647	1490.3382	1499.88	1509.3893	1726.3703	3021.4528	3030.5241	3038.5397	3052.5506	3060.2068	3108.4041	3110.5517	3114.3861	3124.8519	3166.808	3764.521
CC(O)C1COC(C)=N1	C[C@@H](O)[C@H]1COC(=N1)C	
InChI=1S/C6H11NO2/c1-4(8)6-3-9-5(2)7-6/h4,6,8H,3H2,1-2H3	InChI=1S/C6H11NO2/c1-4(8)6-3-9-5(2)7-6/h4,6,8H,3H2,1-2H3/t4-,6-/m1/s1
