19
gdb 65511	3.13591	1.35468	1.16908	1.7075	74.06	-0.2523	0.0793	0.3316	1102.4111	0.157893	-422.96122	-422.95295	-422.952005	-422.99394	31.931	
C	 0.0242444273	 1.6204040073	 0.2598048793	-0.458034
C	-0.0027614049	 0.113448977	 0.0127432089	 0.264975
C	 1.0571591779	-0.4627455288	-1.0058298904	-0.326986
C	 1.6745534505	-1.2598521078	 0.1473020959	 0.049308
O	 2.0604475691	-0.3280736916	 1.1689457605	-0.255775
C	 0.6929994908	-0.7421567614	 1.1067363525	-0.006668
C	-1.4208535539	-0.3491689888	-0.246891375	 0.023251
C	-2.0308447049	-0.3936459753	-1.5804070365	-0.184679
O	-1.6312822357	-1.595421634	-0.9143456244	-0.23771
H	 1.0254480767	 1.9281592901	 0.5694117895	 0.140491
H	-0.2451945604	 2.1721041803	-0.6470818077	 0.115164
H	-0.6819119143	 1.9075589217	 1.0479331486	 0.112264
H	 0.5947795858	-1.1117506744	-1.7512856053	 0.126867
H	 1.7175979976	 0.2641846622	-1.4842092133	 0.103522
H	 2.2006499334	-2.206255709	 0.1179301714	 0.105916
H	 0.2604599343	-1.1823115707	 1.9989022525	 0.099923
H	-2.0947204241	-0.1917550977	 0.5992250245	 0.093229
H	-3.1051658592	-0.2563210692	-1.6902283663	 0.119506
H	-1.4363052862	-0.1256920599	-2.4525116449	 0.115437
91.3527	149.6932	196.4196	231.7197	254.1817	298.2169	364.6173	418.3389	470.7744	589.6609	622.1521	781.3238	835.0626	840.447	859.507	867.9213	892.1193	921.9814	950.4605	985.0378	993.7911	1040.4635	1050.6713	1094.9328	1122.563	1151.6863	1157.6129	1173.7529	1197.9589	1237.9576	1243.7847	1262.2643	1280.4304	1313.8548	1384.401	1404.1958	1434.8521	1456.959	1490.2726	1502.3563	1527.4508	3028.7628	3070.1694	3076.0012	3088.2568	3090.9417	3127.3648	3137.7786	3172.992	3174.2729	3197.3295
CC1(CC2OC12)C1CO1	C[C@]1(C[C@H]2O[C@@H]12)[C@H]1CO1	
InChI=1S/C7H10O2/c1-7(5-3-8-5)2-4-6(7)9-4/h4-6H,2-3H2,1H3	InChI=1S/C7H10O2/c1-7(5-3-8-5)2-4-6(7)9-4/h4-6H,2-3H2,1H3/t4-,5-,6-,7+/m1/s1
