19
gdb 38184	4.7349	1.03351	0.92464	0.2476	75.35	-0.2325	0.0655	0.298	1288.4249	0.159574	-422.956087	-422.948151	-422.947207	-422.989536	29.768	
C	-0.0143714247	 1.4651133207	 0.1425692385	-0.306903
C	 1.289853147	 0.7524072893	-0.0128316515	 0.107978
O	 1.6654016528	 0.1065144608	 1.2088610147	-0.306238
C	 0.4890996169	-0.7544434253	 1.1215628461	 0.105521
C	-0.0004609397	-0.0263339808	-0.1264269714	-0.129915
C	 0.9189242012	-2.1899437778	 0.8989505312	 0.147058
C	 1.4318765538	-2.9676526962	 2.1296054576	-0.301024
C	 0.1984857322	-3.8640468529	 1.8967750852	-0.060426
O	-0.2275965909	-3.0640630883	 0.7704881403	-0.299762
H	-0.3000661788	 1.8522476374	 1.1169733946	 0.115994
H	-0.3215517736	 2.0712645984	-0.7043236309	 0.116068
H	 2.074519307	 1.0016263471	-0.7174501936	 0.103422
H	-0.1413211871	-0.679106659	 2.017330369	 0.078474
H	-0.4872215541	-0.4906506953	-0.97270604	 0.111236
H	 1.5670437103	-2.2427958107	 0.0145486968	 0.076801
H	 2.4004483212	-3.4527868354	 2.0075521206	 0.114812
H	 1.4313540152	-2.3983484935	 3.0608985816	 0.117737
H	 0.4137570594	-4.8979039572	 1.6007059779	 0.103926
H	-0.5514937382	-3.8749413914	 2.6965599135	 0.105242
62.6458	73.9594	147.4305	167.8691	318.756	415.8043	427.0611	490.5033	756.1199	776.3695	789.2833	825.2446	861.2101	889.9222	936.7447	947.7387	960.0042	981.4313	992.9852	1022.569	1033.234	1036.7413	1055.6756	1064.5193	1085.8117	1098.6133	1159.987	1185.4179	1205.602	1215.7138	1234.5963	1257.1428	1272.1024	1290.2979	1310.753	1352.5177	1363.026	1420.1284	1473.8196	1490.5133	1532.4105	3013.8167	3020.1018	3030.731	3058.1537	3084.0421	3114.269	3139.8876	3181.7679	3204.7364	3215.3121
C1C2OC(C12)C1CCO1	C1[C@H]2O[C@@H]([C@@H]12)[C@H]1CCO1	
InChI=1S/C7H10O2/c1-2-8-5(1)7-4-3-6(4)9-7/h4-7H,1-3H2	InChI=1S/C7H10O2/c1-2-8-5(1)7-4-3-6(4)9-7/h4-7H,1-3H2/t4-,5+,6+,7-/m0/s1
