17
gdb 50992	2.0927	1.41115	1.03666	3.2992	72.85	-0.2636	0.0109	0.2745	1184.5415	0.135369	-418.034885	-418.025835	-418.024891	-418.06943	32.52	
O	 2.2648908588	 2.8454092595	 2.2253347023	-0.317672
C	 1.3810918273	 2.8613174689	 1.3964665887	 0.146678
N	 1.4312464393	 2.2108787534	 0.196477569	-0.332246
C	 2.5161129984	 1.3336953207	-0.1476621281	 0.361352
C	 2.5731675682	 0.0439496642	 0.6713796447	-0.402892
C	 1.3810393595	-0.7807659547	 0.4708426596	 0.255906
N	 0.4247329897	-1.404008123	 0.2907530051	-0.308048
C	 2.9331088788	 1.3164136719	-1.5940659517	-0.318017
C	 3.8171919855	 1.9694270664	-0.559764884	-0.284738
H	 0.4349778071	 3.4228147019	 1.5235097298	 0.087898
H	 0.5807417725	 2.1511300765	-0.3439411494	 0.26023
H	 3.4584302116	-0.5388833546	 0.3981292683	 0.148979
H	 2.6634730765	 0.3024814221	 1.7315930022	 0.183163
H	 3.2388969495	 0.3670116078	-2.0190855024	 0.130358
H	 2.3919768449	 1.9606083455	-2.277956428	 0.125333
H	 3.8623876651	 3.0507712333	-0.5355571267	 0.137742
H	 4.7366897772	 1.4721277002	-0.2729448195	 0.125975
52.8605	77.5948	124.3686	170.3776	243.8463	303.5994	325.5709	397.4698	416.9297	423.101	515.3056	560.646	721.6571	770.9027	828.4279	897.3989	906.1754	938.7926	974.5469	1002.7106	1030.6707	1037.3104	1066.5573	1090.572	1170.3983	1185.4232	1219.8195	1291.7701	1321.1289	1365.6412	1428.4409	1458.593	1467.5072	1498.4832	1502.2931	1803.6649	2361.0448	2947.145	3055.8616	3100.4392	3139.5077	3150.0119	3223.513	3242.3183	3609.6226
O=CNC1(CC#N)CC1	O=CNC1(CC#N)CC1	
InChI=1S/C6H8N2O/c7-4-3-6(1-2-6)8-5-9/h5H,1-3H2,(H,8,9)	InChI=1S/C6H8N2O/c7-4-3-6(1-2-6)8-5-9/h5H,1-3H2,(H,8,9)
