21
gdb 121404	4.21858	0.84616	0.7452	1.5983	75.65	-0.2439	0.0813	0.3251	1563.0513	0.182847	-461.354202	-461.344985	-461.344041	-461.389259	33.544	
C	 0.0541289347	 1.5204963796	-0.0581646109	-0.38432
C	-0.0644627542	 0.0060354441	-0.055353015	-0.040731
O	 0.6935196962	-0.49995294	-1.1428931463	-0.257236
C	 0.7473711395	-1.9075690863	-1.2335293327	 0.106203
C	-0.4819118253	-2.495175717	-1.9481188006	-0.110709
O	-0.2873253317	-3.8802971949	-2.198250458	-0.232797
C	 0.8742362183	-4.0978784653	-2.9550828427	 0.020296
O	 2.0364577528	-3.6612845814	-2.3028943524	-0.234499
C	 1.9922670691	-2.2642773652	-2.0516995414	-0.117508
H	 1.1006473221	 1.8225671927	 0.039598047	 0.127902
H	-0.3358489932	 1.9344572214	-0.9923171973	 0.127768
H	-0.5121237506	 1.9481674456	 0.7745273037	 0.116689
H	 0.3157749322	-0.4116402031	 0.8909854891	 0.092344
H	-1.1206678688	-0.2929245129	-0.1398804727	 0.09241
H	 0.8343594708	-2.3654091659	-0.2365552285	 0.0801
H	-1.3904851677	-2.4091056971	-1.347281689	 0.109726
H	-0.634147375	-1.9440698854	-2.8913383031	 0.095495
H	 0.9694416697	-5.1765561617	-3.0923042	 0.1189
H	 0.7813375147	-3.5897837163	-3.9349775415	 0.075539
H	 1.9699062618	-1.6962432862	-2.9965326709	 0.098202
H	 2.9053341548	-2.0013839147	-1.5132436068	 0.116223
40.9972	72.8192	108.6743	217.3644	246.7127	254.4448	318.4693	344.754	412.0421	461.2731	474.1254	544.4042	677.7193	818.376	893.3264	909.7081	915.0091	968.3824	975.7021	1052.3632	1071.915	1096.8104	1117.3737	1153.1603	1155.4405	1183.8173	1188.1233	1216.586	1224.8469	1295.9252	1303.6766	1322.1953	1327.9799	1356.6364	1379.6064	1399.5609	1414.51	1441.364	1442.5309	1482.8443	1495.2403	1498.4692	1499.8875	1512.0515	1529.2562	2913.9352	2969.1886	2971.6154	2977.687	2999.4848	3000.2448	3045.4913	3098.8359	3106.7959	3117.6098	3120.4383	3122.6363
CCOC1COCOC1	CCOC1COCOC1	
InChI=1S/C6H12O3/c1-2-9-6-3-7-5-8-4-6/h6H,2-5H2,1H3	InChI=1S/C6H12O3/c1-2-9-6-3-7-5-8-4-6/h6H,2-5H2,1H3
