15
gdb 50968	3.48557	0.88786	0.74323	5.0067	69.55	-0.2703	-0.0519	0.2184	1443.613	0.108126	-457.750232	-457.740696	-457.739752	-457.785554	32.567	
O	 0.1029097394	-0.0402278548	-1.4976292513	-0.267196
C	 0.0871444919	 0.9559520154	-0.8453247486	 0.184494
O	 1.2128703935	 1.4595873659	-0.2771678478	-0.183861
C	 1.1073644711	 2.6954474677	 0.4087439519	 0.003317
C	 2.40983394	 2.868410612	 1.2165933891	-0.371985
C	 2.3772960452	 4.0338792099	 2.089295021	 0.279501
C	 2.3252134529	 4.9952281518	 2.8081708367	-0.431457
C	 0.8698655626	 3.8496547494	-0.5648047638	 0.148228
O	 0.5227521826	 3.6852442879	-1.7033878493	-0.226622
H	-0.8176573545	 1.5423150429	-0.6068125627	 0.08884
H	 0.2595836757	 2.6860089262	 1.1122158791	 0.126881
H	 2.5547303215	 1.9556296219	 1.804128623	 0.162227
H	 3.2541284075	 2.9275470787	 0.5196059973	 0.159603
H	 2.2953883601	 5.8428091899	 3.4479176835	 0.21065
H	 1.0258889506	 4.8573764253	-0.1288684481	 0.117379
57.4031	100.4415	104.9049	121.7766	173.597	227.8616	270.2237	338.7962	346.5192	406.1016	500.6457	612.5122	641.1306	670.8233	719.7795	847.4078	888.2406	970.6333	1030.5225	1051.6413	1082.2657	1119.2523	1165.364	1206.7975	1296.7434	1328.1099	1366.7967	1403.2636	1437.4567	1476.3183	1836.3763	1878.3612	2242.961	2937.2541	2981.7073	2993.8434	3042.683	3082.3505	3503.0869
O=COC(CC#C)C=O	O=CO[C@@H](CC#C)C=O	
InChI=1S/C6H6O3/c1-2-3-6(4-7)9-5-8/h1,4-6H,3H2	InChI=1S/C6H6O3/c1-2-3-6(4-7)9-5-8/h1,4-6H,3H2/t6-/m0/s1
