23
gdb 108370	2.00942	1.56571	1.18308	1.194	86.03	-0.2351	0.073	0.3081	1210.5008	0.204178	-388.268215	-388.258307	-388.257362	-388.302514	38.194	
C	 0.035130267	 1.5128108951	-0.1931214899	-0.376897
C	 0.0030940979	 0.0024215312	 0.0832420407	-0.285795
C	-1.3955995587	-0.5548973891	 0.0846388837	 0.325396
C	-2.4202868903	-0.2890030926	 1.2029084598	-0.297147
C	-2.9167666815	-1.7680270019	 1.10109732	-0.24102
C	-1.9121809173	-2.0108680089	-0.0267248195	-0.195869
C	-2.0909588683	-1.0309217884	-1.1657017703	 0.367455
C	-3.4252435929	-0.5338081649	-1.6787245496	-0.462808
O	-1.1560615907	-1.2238230282	-2.2069756464	-0.474353
H	 1.0588046648	 1.8985453507	-0.1549116393	 0.107277
H	-0.3716218219	 1.7341182882	-1.1849704657	 0.123914
H	-0.5565996414	 2.0679492488	 0.5432568034	 0.111049
H	 0.5952059012	-0.5207216903	-0.6720552431	 0.115743
H	 0.4710131752	-0.2018248435	 1.0558955892	 0.085229
H	-1.9302774267	-0.0876532033	 2.159166922	 0.102204
H	-3.1566953283	 0.5013101697	 1.0262341833	 0.093685
H	-2.6844734239	-2.3391218426	 2.0028439243	 0.103038
H	-3.9734092732	-1.9264451408	 0.8606502555	 0.092749
H	-1.3397977009	-2.9183127323	-0.1892902652	 0.076344
H	-4.1433441382	-0.3460081981	-0.8780663238	 0.122377
H	-3.2890161987	 0.3946508922	-2.2424205677	 0.124488
H	-3.8743606689	-1.2729798112	-2.3544580606	 0.103362
H	-1.4538611142	-1.9766319297	-2.7291878208	 0.27958
57.5012	132.0549	191.8998	208.7542	235.0459	257.0202	267.7843	296.4578	321.2322	404.2999	431.997	436.2269	517.3137	641.5492	698.095	707.6285	781.2694	803.6929	903.5665	928.7294	942.9049	957.6387	981.6205	989.3252	1009.6685	1040.2979	1083.5288	1101.2126	1111.9164	1179.0201	1192.2576	1219.9094	1226.8005	1249.0932	1264.0441	1292.7766	1305.4876	1324.9462	1362.4294	1407.0488	1412.2369	1454.7693	1473.9062	1481.1431	1495.5508	1499.9758	1502.7001	1506.2744	1507.9311	3014.2816	3023.5724	3031.0484	3040.7639	3049.2846	3085.7548	3086.9687	3087.5617	3103.503	3105.9609	3108.9165	3127.41	3163.304	3797.0763
CCC12CCC1C2(C)O	CC[C@]12CC[C@H]1[C@]2(C)O	
InChI=1S/C8H14O/c1-3-8-5-4-6(8)7(8,2)9/h6,9H,3-5H2,1-2H3	InChI=1S/C8H14O/c1-3-8-5-4-6(8)7(8,2)9/h6,9H,3-5H2,1-2H3/t6-,7-,8-/m0/s1
