18
gdb 96861	2.70571	1.19602	0.92163	1.5908	76.22	-0.2525	-0.0357	0.2167	1297.2366	0.144936	-439.091753	-439.082067	-439.081123	-439.127175	33.428	
C	-0.1276683086	 1.5015895435	-0.070285303	-0.341299
N	-0.2435620673	 0.053244766	-0.1796820264	-0.33106
C	 0.5441950912	-0.5705124333	-0.9220589049	 0.456267
O	 1.588471134	-0.1440730902	-1.7186230171	-0.279638
C	 1.9299244729	-1.5251571824	-2.109044229	 0.126545
C	 3.3480631533	-1.8780797287	-1.7233104466	-0.39071
C	 0.7327412241	-2.0358020151	-1.262946771	-0.281726
C	 0.9165665461	-2.9879283873	-0.1023950461	 0.140403
O	 1.7787424808	-3.8246259548	-0.0286178009	-0.241707
H	 0.7161495391	 1.925948787	-0.6263410904	 0.128638
H	-1.0534020047	 1.9632662472	-0.4310741816	 0.130713
H	-0.0268710335	 1.7715271789	 0.9862066286	 0.130424
H	 1.7724156621	-1.6371366931	-3.1856344462	 0.099927
H	 3.5190650993	-1.7292971912	-0.6549211128	 0.133171
H	 3.5540292652	-2.9253937761	-1.9564311262	 0.143206
H	 4.0447632279	-1.2449060283	-2.2807722516	 0.12682
H	-0.1000803166	-2.419794893	-1.8647986093	 0.137129
H	 0.1536180747	-2.8595658092	 0.6949449944	 0.112896
65.1987	81.7126	89.0128	143.6663	179.3252	201.399	240.6517	287.1426	351.7087	410.0382	487.222	628.3081	708.899	729.332	763.5724	856.5704	902.6232	983.5975	1034.4766	1047.3077	1068.3226	1098.0586	1127.6599	1134.09	1170.2589	1180.0894	1199.4618	1308.5654	1318.7813	1379.7864	1415.9786	1417.1756	1439.5098	1475.1135	1493.015	1493.9381	1497.5733	1820.7821	1848.395	2910.5844	3019.5976	3045.7559	3051.6637	3069.2764	3085.8561	3091.636	3126.9113	3140.1485
CN=C1OC(C)C1C=O	CN=C1O[C@@H](C)[C@H]1C=O	
InChI=1S/C6H9NO2/c1-4-5(3-8)6(7-2)9-4/h3-5H,1-2H3	InChI=1S/C6H9NO2/c1-4-5(3-8)6(7-2)9-4/h3-5H,1-2H3/t4-,5+/m0/s1
