17
gdb 79441	2.87693	1.73775	1.34461	2.039	71.72	-0.2324	-0.0067	0.2257	959.0443	0.137587	-421.800934	-421.794062	-421.793118	-421.831982	28.037	
O	-0.0056323264	 1.4005389286	 0.0812670106	-0.443539
C	 0.0776636382	-0.0037601801	 0.0111439774	 0.121346
C	-1.3421123268	-0.5785759655	-0.0798576354	-0.039079
C	-1.346633011	-0.3587682997	-1.6243137556	-0.027206
C	-2.0253500939	-1.7273420509	-1.8194903794	-0.250753
C	-1.2516286609	-2.1055109266	-0.5132900434	-0.172554
C	 0.1683756794	-2.0656385842	-1.0756064857	 0.448893
O	 0.9958478004	-2.9289534485	-1.1773695788	-0.347308
C	 0.2176561094	-0.5855782068	-1.4427475435	-0.213712
H	 0.8759545474	 1.7615793293	-0.0571336822	 0.288024
H	 0.7671102247	-0.4047342071	 0.7683092473	 0.077319
H	-2.1470257567	-0.2743461954	 0.5872498295	 0.084914
H	-1.6714126139	 0.5598710155	-2.1046862598	 0.088512
H	-3.1039095598	-1.6620417246	-1.6526568726	 0.110589
H	-1.8242317092	-2.3185176909	-2.7185829648	 0.109371
H	-1.5315936316	-2.9417226734	 0.123132366	 0.085893
H	 0.9799550708	-0.2441890296	-2.1400062495	 0.07929
146.99	212.4614	285.7275	321.8114	375.6916	453.5382	502.8291	565.2756	721.9295	748.4745	795.5968	812.2446	838.9629	853.7833	875.7145	914.6549	948.939	977.2318	1004.1262	1011.615	1069.1613	1074.8419	1097.6231	1130.9344	1142.9483	1158.6925	1180.8446	1200.811	1207.8414	1235.8887	1268.5883	1278.4661	1296.0679	1326.3211	1430.4299	1500.6688	1877.3508	2995.304	3047.2149	3106.2436	3131.194	3143.9297	3150.6135	3158.0325	3816.2841
OC1C2C3CC2C(=O)C13	O[C@H]1[C@H]2[C@@H]3C[C@H]2C(=O)[C@H]13	
InChI=1S/C7H8O2/c8-6-3-1-2-4(3)7(9)5(2)6/h2-5,7,9H,1H2	InChI=1S/C7H8O2/c8-6-3-1-2-4(3)7(9)5(2)6/h2-5,7,9H,1H2/t2-,3+,4-,5+,7-/m0/s1
