21
gdb 104189	2.48057	1.26377	1.22232	3.0819	74.22	-0.2397	0.0537	0.2933	1178.4259	0.179445	-461.34595	-461.335776	-461.334832	-461.380417	38.337	
C	-0.1132975366	 1.499310447	 0.1304488937	-0.413368
C	-0.0222725289	-0.0214020204	 0.0319132327	 0.354702
C	-1.3472201116	-0.6258640942	-0.4141473283	-0.441912
O	 1.0558197604	-0.415073659	-0.8699481624	-0.327854
C	 1.9284960353	-0.7451199321	 0.2282147623	-0.128916
C	 0.749022297	-0.6687422346	 1.2276536022	 0.329307
O	 0.8949294934	 0.1750050094	 2.3412982385	-0.485933
C	 0.2477755032	-2.0324940698	 1.6898223263	-0.157142
O	 1.165788739	-2.4576930569	 2.6975331349	-0.43806
H	 0.8408909364	 1.9349865092	 0.4312998609	 0.128343
H	-0.3953123198	 1.9072716581	-0.8451706257	 0.113329
H	-0.8643671709	 1.7977392461	 0.8676659445	 0.118705
H	-1.6364120075	-0.1943349065	-1.377732707	 0.125701
H	-1.2792589249	-1.7084299975	-0.5438105246	 0.115538
H	-2.1421459292	-0.4027389486	 0.3050774901	 0.118582
H	 2.4171009919	-1.7161394601	 0.0926498872	 0.100682
H	 2.686601889	 0.0269512797	 0.4107468975	 0.099071
H	 1.2222919406	-0.3875116489	 3.0560046154	 0.28779
H	-0.7668339138	-1.9333443295	 2.100943674	 0.098337
H	 0.2205958404	-2.7436844898	 0.8542343104	 0.106191
H	 0.7985414266	-3.2231978216	 3.1477078375	 0.296909
73.2892	125.1411	172.2649	194.9155	223.427	258.7898	276.7032	303.4212	336.8286	350.7153	379.1855	429.9325	465.5498	495.6795	550.3324	645.8194	744.5546	851.8688	900.8904	930.2721	944.7559	981.9665	994.4227	1016.3252	1040.1218	1071.5945	1142.4195	1165.4008	1176.529	1194.8939	1220.442	1255.4046	1277.6928	1291.6223	1334.4796	1396.2971	1407.658	1418.87	1446.5216	1471.3568	1478.438	1496.1956	1503.2481	1511.9509	1520.6869	2997.6627	3015.9684	3038.2709	3044.5589	3046.4244	3071.3809	3104.5012	3116.6004	3123.256	3137.6889	3758.111	3844.0388
CC1(C)OCC1(O)CO	CC1(C)OC[C@]1(O)CO	
InChI=1S/C6H12O3/c1-5(2)6(8,3-7)4-9-5/h7-8H,3-4H2,1-2H3	InChI=1S/C6H12O3/c1-5(2)6(8,3-7)4-9-5/h7-8H,3-4H2,1-2H3/t6-/m1/s1
