16
gdb 18930	3.6916	2.46993	1.97416	0.3421	62.47	-0.2414	0.063	0.3045	726.902	0.131824	-383.683838	-383.677863	-383.676919	-383.713641	24.394	
C	-0.0181875106	 1.5275560675	-0.0011009454	-0.425796
C	 0.0721827318	 0.0064910507	 0.0270001512	 0.042228
C	 1.0654176598	-0.6198622594	-0.9791197474	 0.01307
O	 2.3246688892	 0.0233727008	-0.6140920389	-0.288149
C	 2.2645290948	-0.7776156044	 0.5642038694	 0.059623
C	 1.4865525575	-1.9035893552	-0.1165020769	 0.057243
O	 0.5734683099	-2.0620960604	 0.9667966459	-0.29079
C	 0.8085324437	-0.6434002396	 1.2215558098	 0.013746
H	 0.9743467588	 1.9801802774	 0.0446241502	 0.137665
H	-0.5056271457	 1.8733594843	-0.9187212098	 0.117112
H	-0.6083317437	 1.8946200733	 0.8450960428	 0.113976
H	-0.9164309504	-0.4555041119	-0.0486464483	 0.087126
H	 0.8623488693	-0.6152832819	-2.0482082802	 0.084243
H	 3.169713092	-0.8308352589	 1.1654300386	 0.09733
H	 1.8605602986	-2.8143468106	-0.5797359652	 0.09703
H	 0.6020007451	-0.3334628217	 2.2441508244	 0.084343
198.4867	231.485	275.7793	493.8008	518.8757	573.941	702.2403	740.9199	765.8118	819.8491	847.0094	857.3152	877.2154	929.0615	952.5121	984.9916	1014.8289	1023.9156	1051.5152	1101.8123	1110.6495	1143.0442	1153.5277	1164.6071	1200.4407	1227.7328	1265.935	1280.4802	1309.7843	1341.2615	1366.1505	1407.0931	1494.6254	1508.0759	3038.6147	3073.5971	3096.9939	3133.9211	3139.5611	3142.9073	3146.4946	3157.114
CC1C2OC3C2OC13	C[C@H]1[C@H]2O[C@@H]3[C@H]2O[C@H]13	
InChI=1S/C6H8O2/c1-2-3-5-6(7-3)4(2)8-5/h2-6H,1H3	InChI=1S/C6H8O2/c1-2-3-5-6(7-3)4(2)8-5/h2-6H,1H3/t3-,4-,5+,6+/m1/s1
