20
gdb 78016	2.75148	1.27472	1.04441	3.1773	81.68	-0.2369	-0.0291	0.2077	1222.5052	0.169542	-403.118911	-403.109735	-403.108791	-403.152542	34.411	
C	-0.0965429654	 1.4758014821	-0.1295857447	-0.429889
C	 0.0521009194	-0.0270582699	-0.0199510691	-0.015652
N	 1.1978463588	-0.8631990798	-0.3866048639	-0.211078
C	 2.5130006488	-0.2379725815	 0.0525078255	 0.099297
C	 3.0756176424	 0.8978802913	-0.7857109697	-0.41545
C	 2.0332659179	-0.0409525235	 1.514719026	-0.36494
C	 0.7410274492	-0.732666891	 1.0964611691	 0.239008
C	 0.1490030677	-1.896028731	 1.7803345936	 0.072857
O	 0.4253408306	-2.2349796205	 2.9063849649	-0.265119
H	 0.667552277	 2.033448962	 0.4122859686	 0.131108
H	-0.0733514519	 1.7898113705	-1.178101848	 0.134893
H	-1.069771183	 1.7637772502	 0.2812695791	 0.129188
H	-0.8484256053	-0.5442598782	-0.3528463638	 0.104268
H	 3.2266885788	-1.0663739667	 0.0217166443	 0.098857
H	 2.4714319541	 1.8055355391	-0.7505386333	 0.120536
H	 4.0814702427	 1.1508657474	-0.4330818895	 0.123358
H	 3.1574542617	 0.5846206638	-1.8318199257	 0.130913
H	 2.5972665024	-0.6160199518	 2.249182262	 0.133586
H	 1.9305836496	 0.9852522416	 1.8776054069	 0.107592
H	-0.5835220358	-2.4600951341	 1.1597311976	 0.076667
88.0735	158.265	169.8028	201.447	225.608	248.2507	265.9428	316.1166	373.1688	448.083	495.879	590.7322	671.0633	703.0623	730.2934	834.436	843.8633	894.6286	935.4489	978.9904	1018.7539	1032.2815	1099.3282	1115.5041	1118.326	1136.7455	1153.0984	1199.7416	1242.518	1292.2202	1323.0579	1334.3772	1390.8197	1407.6292	1411.2108	1419.3852	1448.522	1484.5568	1491.8841	1499.1195	1504.7642	1509.0411	1804.0868	2879.2674	3040.7275	3043.4723	3057.5469	3065.6871	3099.7799	3101.6896	3103.9243	3135.2138	3136.0041	3146.9623
CC1N2C(C)CC12C=O	C[C@H]1N2[C@@H](C)C[C@@]12C=O	
InChI=1S/C7H11NO/c1-5-3-7(4-9)6(2)8(5)7/h4-6H,3H2,1-2H3	InChI=1S/C7H11NO/c1-5-3-7(4-9)6(2)8(5)7/h4-6H,3H2,1-2H3/t5-,6+,7+,8?/m0/s1
