22
gdb 103461	2.43839	1.39787	1.16956	2.4937	82.25	-0.2312	0.0829	0.3141	1186.7074	0.193315	-404.307131	-404.297504	-404.296559	-404.341035	36.892	
C	-0.1681564718	 1.6193433858	 0.1647085359	-0.478143
C	-0.1039039423	 0.1035788347	 0.186992933	 0.250781
C	-1.372353777	-0.5196197413	-0.3880331602	-0.110932
O	-1.4695425046	-0.2412764835	-1.7752398424	-0.424249
N	 1.0564077783	-0.6760784981	-0.3442467712	-0.22928
C	 2.3160172223	 0.0688063088	-0.0083645381	-0.154482
C	 2.0101876355	 0.0433888263	 1.5072301453	-0.313067
C	 0.7069282678	-0.6889694188	 1.1494893681	 0.295863
C	 0.2689159263	-1.9015416066	 1.9245439967	-0.497354
H	 0.7617709962	 2.11030703	 0.4509194875	 0.116713
H	-0.445896603	 1.9546231336	-0.8386944473	 0.139354
H	-0.9464051492	 1.9611559845	 0.8561338112	 0.119494
H	-1.3871040827	-1.6015211485	-0.2118882182	 0.089128
H	-2.2627806335	-0.0862725137	 0.0802028014	 0.102381
H	-0.6476973387	-0.5786987461	-2.1544871407	 0.288889
H	 3.179071509	-0.539117162	-0.2877798405	 0.109389
H	 2.4068926562	 1.0439549592	-0.4958508235	 0.105899
H	 2.6993796102	-0.5926893358	 2.0669957049	 0.108736
H	 1.9144451907	 0.9961483249	 2.0351904243	 0.10362
H	-0.0371218474	-1.6036123424	 2.9350665477	 0.123867
H	-0.5683123186	-2.4276702111	 1.4636575426	 0.130379
H	 1.0970510861	-2.6115301599	 2.0267023234	 0.123015
91.4567	141.6687	155.4782	170.6153	209.7292	277.3574	304.7646	332.9579	366.674	390.4439	479.9808	502.6797	520.7852	629.2909	700.158	757.6877	791.5615	842.0926	911.0264	934.1642	958.2584	972.7442	1002.8669	1034.0166	1061.6257	1089.9423	1100.6572	1143.1562	1163.5891	1196.4397	1219.1668	1236.9494	1263.9641	1288.5189	1313.7547	1381.1563	1404.8996	1410.6714	1430.7908	1439.41	1475.3808	1483.7931	1493.6968	1497.8204	1505.5633	1508.1531	1519.3164	3025.5608	3030.8866	3043.1013	3054.6631	3061.286	3077.1895	3084.385	3098.617	3104.5951	3117.2083	3133.5505	3145.2592	3772.1902
CC1(CO)N2CCC12C	C[C@@]1(CO)N2CC[C@@]12C	
InChI=1S/C7H13NO/c1-6-3-4-8(6)7(6,2)5-9/h9H,3-5H2,1-2H3	InChI=1S/C7H13NO/c1-6-3-4-8(6)7(6,2)5-9/h9H,3-5H2,1-2H3/t6-,7-,8?/m0/s1
