16
gdb 45018	2.45103	1.79118	1.16199	0.7414	72.6	-0.2427	-0.0232	0.2195	1027.0168	0.127015	-434.088124	-434.080845	-434.079901	-434.120013	28.289	
N	-0.0754225576	 1.2380923213	 0.3968079775	-0.521245
C	-0.0170357127	 0.0148745379	 0.0501566032	 0.398066
N	 1.1593639806	-0.7162338255	-0.1568520702	-0.383966
C	 1.2860862415	-1.9199812088	-0.8315485632	 0.377503
O	 2.360463143	-2.4612583837	-0.9617320218	-0.345101
C	-0.0012555058	-2.460595736	-1.4483304527	-0.274267
N	-1.270086319	-2.0220279267	-0.8796807541	-0.103838
C	-1.4179404513	-2.0745118655	 0.5647124733	-0.253312
C	-1.2743429082	-0.7573658678	-0.1382138537	-0.051283
H	 0.853547648	 1.6516666225	 0.4973820731	 0.212295
H	 2.0377845017	-0.3031798151	 0.1314824409	 0.254853
H	 0.016790112	-2.1703473353	-2.5065844589	 0.149046
H	 0.053796211	-3.5516431695	-1.4178608903	 0.150218
H	-2.3965420953	-2.3774130385	 0.9246823091	 0.134422
H	-0.5788134615	-2.4118391841	 1.1701497116	 0.129365
H	-2.1444038665	-0.1260345852	-0.2782194438	 0.127245
98.9517	129.9811	256.0496	348.6533	364.8035	466.515	485.0977	525.2823	549.519	633.3687	676.8403	700.8071	756.1328	861.8989	877.4301	891.3655	918.6885	995.4406	1039.4627	1058.8506	1103.2023	1112.9924	1144.1859	1163.8911	1262.1309	1304.4097	1311.085	1344.1208	1370.7967	1405.9766	1422.3709	1462.8093	1505.979	1731.2565	1811.7741	3038.1337	3102.7234	3107.8895	3182.2306	3196.3487	3455.4739	3578.0952
N=C1NC(=O)CN2CC12	[NH][C]1NC(=O)CN2C[C@@H]12	
InChI=1S/C5H7N3O/c6-5-3-1-8(3)2-4(9)7-5/h3H,1-2H2,(H2,6,7,9)	InChI=1S/C5H7N3O/c6-5-3-1-8(3)2-4(9)7-5/h3H,1-2H2,(H2,6,7,9)/t3-,8?/m0/s1
