19
gdb 31783	3.01331	1.28251	0.96484	0.1203	80.03	-0.1696	0.0621	0.2317	1241.229	0.159216	-419.226342	-419.216617	-419.215672	-419.261152	35.204	
C	-0.7435275058	 0.8674680606	-0.0652858166	-0.32294
N	 0.4857622015	 0.0959363141	 0.1520767741	-0.382478
C	 1.0092561687	-0.5530112367	-0.983098837	 0.243164
C	 1.8218805875	-0.1324078069	-2.0072394631	-0.206313
C	 2.0573624957	-1.2448726946	-2.873568621	-0.301614
C	 1.3606242749	-2.3004703799	-2.3378643206	 0.354475
O	 1.2000339973	-3.5970455671	-2.7211588423	-0.445139
N	 0.7285627822	-1.9056060442	-1.1938269409	-0.065201
C	-0.0636722664	-2.7586215531	-0.3341993472	-0.338587
H	-0.6418816066	 1.651759043	-0.8308399469	 0.108062
H	-1.5443828847	 0.1927601633	-0.3825927438	 0.125857
H	-1.0489696703	 1.3322710062	 0.877594592	 0.112273
H	 1.1930943427	 0.6783139257	 0.5822487963	 0.231123
H	 2.2128750322	 0.8669802048	-2.1263923888	 0.082319
H	 2.6532187639	-1.262465871	-3.7731532802	 0.081688
H	 1.7106661141	-3.7340941971	-3.524450492	 0.304319
H	 0.4537559275	-3.7056253345	-0.1613749415	 0.139496
H	-0.2011832824	-2.2345580347	 0.6124830416	 0.151334
H	-1.0440480721	-2.977776378	-0.7723755722	 0.128162
48.7161	111.5873	140.9638	173.4692	184.1553	240.0829	279.4934	287.0397	331.7018	400.7253	532.9082	585.9201	637.2104	666.6605	696.8156	703.8316	752.5534	764.3998	789.4603	965.6976	1027.9935	1052.8108	1130.6956	1146.9135	1158.4582	1161.4504	1223.9274	1241.4715	1278.8832	1331.298	1389.6683	1436.1832	1453.4342	1466.3948	1487.8841	1494.7738	1512.9666	1516.0105	1557.7861	1577.2005	1619.0777	2985.9447	3033.3301	3069.6895	3099.1468	3107.0765	3149.7055	3234.7591	3249.4451	3550.6896	3849.1841
CNC1=CC=C(O)N1C	CNc1ccc(O)n1C	
InChI=1S/C6H10N2O/c1-7-5-3-4-6(9)8(5)2/h3-4,7,9H,1-2H3	InChI=1S/C6H10N2O/c1-7-5-3-4-6(9)8(5)2/h3-4,7,9H,1-2H3
