18
gdb 94964	3.35105	1.37469	1.13602	3.8203	71.75	-0.2411	0.0114	0.2525	1080.7008	0.149349	-439.109372	-439.10162	-439.100676	-439.141756	30.036	
O	-0.2015475884	 1.3358597662	 0.6619301291	-0.440437
C	-0.0443723897	 0.0915609795	-0.0115674267	 0.097451
C	 0.7484685474	-0.9344021512	 0.8352165845	-0.249229
C	-0.320498933	-1.6144343517	 1.7251887445	-0.190706
N	-1.4885062015	-1.6439256386	 0.8477058264	-0.095743
C	-1.4632133901	-0.5116064844	-0.1179883892	 0.032354
C	-1.814831276	-1.5086911917	-1.2529942026	-0.407077
C	-1.6382078952	-2.5976362204	-0.172020586	 0.393762
O	-1.5595604126	-3.7938641084	-0.1500765245	-0.341556
H	 0.6716983232	 1.7218682872	 0.7832602557	 0.284848
H	 0.4123955499	 0.24250368	-0.9994046309	 0.075258
H	 1.2026647556	-1.6855796258	 0.1787874525	 0.116286
H	 1.5534542817	-0.4564808793	 1.4014040973	 0.097032
H	-0.0568335863	-2.6294294861	 2.0277583039	 0.136487
H	-0.537143626	-1.0218526945	 2.6189677622	 0.121634
H	-2.2010577978	 0.2667946425	 0.0841544305	 0.102933
H	-2.8130897077	-1.4140250258	-1.6844541312	 0.134985
H	-1.0819529735	-1.5916302776	-2.0595392853	 0.131718
89.1808	114.162	250.5312	264.1102	317.5253	364.6967	431.7651	479.4803	549.0109	612.3423	679.9281	735.8843	786.929	833.2705	854.7626	893.3535	964.9391	991.1392	1007.9269	1022.9968	1052.6843	1086.98	1091.3621	1147.3922	1178.9483	1196.69	1219.8379	1226.1183	1263.9268	1296.601	1311.6004	1336.0341	1345.5349	1366.7671	1420.9291	1454.07	1478.0463	1493.6043	1883.0474	3003.662	3045.4505	3060.7762	3076.0879	3095.1899	3098.7652	3129.4564	3132.6671	3820.6362
OC1CCN2C1CC2=O	O[C@H]1CCN2[C@@H]1CC2=O	
InChI=1S/C6H9NO2/c8-5-1-2-7-4(5)3-6(7)9/h4-5,8H,1-3H2	InChI=1S/C6H9NO2/c8-5-1-2-7-4(5)3-6(7)9/h4-5,8H,1-3H2/t4-,5+/m1/s1
