13
gdb 7020	7.499	1.00438	0.89062	7.8525	62.4	-0.2627	-0.0327	0.23	1193.4883	0.094762	-394.813656	-394.805285	-394.804341	-394.84856	27.765	
N	 0.3573706298	 1.2431225772	 0.003821317	-0.387074
C	 0.0721032806	 0.0119999202	 0.0016159736	 0.086971
N	-1.2328984537	-0.4925764849	 0.0110524471	-0.340508
C	-2.4331514225	 0.2085937161	 0.0263047067	 0.454594
O	-2.5459084759	 1.4021073145	 0.0343972429	-0.27595
C	-3.6413203836	-0.7595899237	 0.0316805595	-0.494176
C	-4.9200024657	-0.062638525	 0.0487692528	 0.299113
N	-5.9534051793	 0.4508897165	 0.062282954	-0.289768
H	 1.3690515385	 1.3633147385	-0.0046660567	 0.236682
H	 0.793493463	-0.8149998184	-0.0081568858	 0.101707
H	-1.2973930751	-1.4984880881	 0.0063561077	 0.25828
H	-3.5962310857	-1.4062288108	-0.8533180484	 0.175111
H	-3.5791531204	-1.4179972422	 0.9069141097	 0.175019
15.6002	65.9059	118.4847	171.916	227.1014	329.7166	370.8607	418.7709	519.212	561.5374	593.3681	770.4359	824.0261	937.3981	948.8376	960.4697	1046.6096	1064.773	1170.0459	1221.9301	1255.9998	1327.3011	1432.039	1448.8889	1539.0037	1743.2306	1853.2374	2380.4073	3034.6008	3036.0057	3074.9656	3502.0884	3630.7299
N=CNC(=O)CC#N	N=CNC(=O)CC#N	
InChI=1S/C4H5N3O/c5-2-1-4(8)7-3-6/h3H,1H2,(H2,6,7,8)	InChI=1S/C4H5N3O/c5-2-1-4(8)7-3-6/h3H,1H2,(H2,6,7,8)
