17
gdb 44394	3.68303	1.59421	1.42661	4.7307	71.25	-0.2403	0.0177	0.258	928.6688	0.139719	-417.979693	-417.973308	-417.972364	-418.010332	26.484	
O	-0.0603156495	-0.012113062	-0.0579373099	-0.354112
C	-0.0291675254	 1.186558039	-0.0174103167	 0.396784
N	-1.0201500179	 2.1494015862	-0.0541850461	-0.327629
C	-0.1364972957	 3.3043911257	 0.1116088227	 0.022123
C	 0.1287716803	 3.8805716259	 1.5183490297	-0.072272
C	 1.6776882635	 4.0355924979	 1.4142089106	-0.168604
N	 1.7171203621	 2.5080054102	 1.4108787204	-0.128088
C	 0.5125363685	 2.6234042089	 2.3303713379	-0.194063
C	 1.065420862	 2.2901436739	 0.0927076378	-0.146453
H	-2.0229918328	 2.0527840588	 0.0157511418	 0.248817
H	-0.2230683168	 4.0573593227	-0.6740761551	 0.08954
H	-0.5303103505	 4.6644810849	 1.8951940233	 0.06861
H	 2.1051238142	 4.5092488603	 0.525172145	 0.106313
H	 2.1514912485	 4.4259212509	 2.3171726839	 0.115706
H	 0.8532802273	 2.8523867505	 3.3413653691	 0.113545
H	-0.1523090859	 1.7585058328	 2.3507889174	 0.124864
H	 1.788110068	 2.3343626336	-0.7212494517	 0.104919
125.8521	242.2618	350.0705	423.7613	481.1623	516.3747	575.6811	645.6174	701.2989	790.6545	823.6486	835.4176	855.9008	855.9921	880.9284	936.1887	972.533	1000.4118	1019.8334	1027.4935	1046.9294	1075.5756	1103.3124	1153.3192	1164.6972	1191.4859	1204.8185	1234.4151	1239.7294	1281.772	1286.004	1314.0045	1350.6202	1364.1692	1503.8939	1538.3074	1892.6894	3055.4941	3080.8799	3090.1761	3104.876	3124.0822	3127.603	3138.2461	3601.5637
O=C1NC2C3CN(C3)C12	O=C1N[C@H]2[C@@H]3CN(C3)[C@@H]12	
InChI=1S/C6H8N2O/c9-6-5-4(7-6)3-1-8(5)2-3/h3-5H,1-2H2,(H,7,9)	InChI=1S/C6H8N2O/c9-6-5-4(7-6)3-1-8(5)2-3/h3-5H,1-2H2,(H,7,9)/t4-,5+/m0/s1
