15
gdb 42742	2.70208	1.69797	1.27874	5.0923	69.42	-0.2452	-0.0408	0.2044	971.7747	0.114474	-416.789883	-416.782905	-416.78196	-416.821478	26.821	
O	-0.0290257804	 0.0453487069	-0.0299518214	-0.303632
C	-0.0788368924	 1.2370467828	 0.0170597193	 0.434048
C	-1.2523556595	 2.1984913911	 0.0471512705	-0.145607
C	-0.7176348195	 3.2663197221	-0.9516276626	-0.19483
N	 0.3531295678	 3.5628095914	 0.0853680168	-0.119069
C	-0.7204227554	 3.2115663227	 1.1054523596	-0.202587
C	 1.113557786	 2.2768995267	 0.0353062708	-0.24911
C	 2.016299113	 2.1020133332	 1.1639032495	 0.304814
N	 2.7154326517	 1.9459587609	 2.0706186109	-0.318685
H	-2.2490651006	 1.7634076341	 0.0334715261	 0.103961
H	-0.3488355294	 2.949696767	-1.9309590067	 0.125182
H	-1.3771331417	 4.1293561656	-1.0543929475	 0.134787
H	-1.3821784734	 4.0664914037	 1.2517800234	 0.134294
H	-0.350616105	 2.845278371	 2.0655666248	 0.144657
H	 1.6838410591	 2.2121587608	-0.8967234535	 0.151776
115.4315	140.4062	192.4024	391.6892	402.4943	490.2667	514.6706	529.6099	640.6393	675.412	796.1563	820.3841	844.3966	861.8811	884.8271	948.7406	1005.6766	1009.1475	1019.2287	1068.6875	1100.6877	1151.4805	1174.3253	1196.5754	1212.1475	1237.2733	1259.8026	1299.3962	1333.2337	1501.519	1532.0072	1892.9405	2360.9728	3065.8403	3072.6992	3077.085	3134.7574	3142.177	3151.1736
O=C1C2CN(C2)C1C#N	O=C1[C@@H]2CN(C2)[C@H]1C#N	
InChI=1S/C6H6N2O/c7-1-5-6(9)4-2-8(5)3-4/h4-5H,2-3H2	InChI=1S/C6H6N2O/c7-1-5-6(9)4-2-8(5)3-4/h4-5H,2-3H2/t5-/m0/s1
