20
gdb 70189	3.37668	1.26327	1.08377	3.8333	79.55	-0.2285	0.0311	0.2596	1172.7389	0.172562	-403.190748	-403.182427	-403.181483	-403.223332	32.96	
C	 0.0295843263	 1.5142163321	-0.0020916262	-0.463787
C	-0.0449173134	 0.0008013668	 0.024540426	 0.321679
C	-0.8608810541	-0.6462765943	 1.1307774053	-0.348666
C	 0.653234355	-0.7321805147	 1.1362950064	-0.000888
N	 1.3291922458	-1.9607294599	 0.8262586494	-0.308934
C	 1.1394508412	-2.7355143142	-0.2859282637	 0.390682
O	 1.7181297595	-3.7955600385	-0.439401495	-0.377948
C	 0.1296169489	-2.1916906479	-1.2907900583	-0.343086
C	 0.0363901699	-0.6601713341	-1.3433794725	-0.269364
H	 0.9431513277	 1.8570978701	-0.5015584805	 0.119829
H	-0.8248802288	 1.938065553	-0.5428139621	 0.119951
H	 0.0220321028	 1.9335897639	 1.0087947531	 0.114172
H	-1.3409687219	 0.0077199753	 1.8514227227	 0.111738
H	-1.4090662345	-1.5583829002	 0.9229435262	 0.116486
H	 1.192048108	-0.1481759327	 1.8750456803	 0.099144
H	 1.9082766316	-2.3834083737	 1.5367445351	 0.246143
H	 0.39527866	-2.6056503993	-2.2656748592	 0.130381
H	-0.8436178346	-2.6255570938	-1.0299131256	 0.129379
H	-0.8215867862	-0.3632902909	-1.9588490241	 0.104316
H	 0.927496347	-0.2672573969	-1.8508396372	 0.108771
81.8035	184.0993	210.8157	242.6793	312.3937	346.7807	376.1216	444.4781	480.621	488.8357	552.5372	627.7584	665.2791	718.5198	758.1202	845.8863	884.4625	909.6496	923.1796	954.9681	1022.2043	1040.2427	1045.8161	1054.643	1106.6125	1118.0415	1139.1403	1209.9273	1236.9954	1257.5859	1304.2089	1346.7898	1360.2332	1392.0376	1416.4295	1426.3886	1456.423	1477.2403	1487.1063	1491.3523	1494.4012	1514.5628	1790.2823	3015.0026	3023.0405	3035.5001	3054.5891	3083.9019	3098.7064	3112.7402	3131.9521	3160.0616	3219.5447	3613.2183
CC12CC1NC(=O)CC2	C[C@]12C[C@H]1NC(=O)CC2	
InChI=1S/C7H11NO/c1-7-3-2-6(9)8-5(7)4-7/h5H,2-4H2,1H3,(H,8,9)	InChI=1S/C7H11NO/c1-7-3-2-6(9)8-5(7)4-7/h5H,2-4H2,1H3,(H,8,9)/t5-,7+/m1/s1
