15
gdb 29085	3.07122	1.41821	0.9761	6.862	73.42	-0.211	-0.0343	0.1767	1143.0094	0.114081	-454.029235	-454.02129	-454.020346	-454.06175	29.812	
C	-0.0180960678	 1.5444298184	 0.0592262164	-0.491996
C	-0.0035190778	 0.0533990464	-0.0610150354	 0.352462
C	-0.0341537328	-0.6270925584	-1.2171093441	-0.118678
N	-0.0165707269	-2.0183120893	-1.2115982579	-0.362703
C	 0.0314837411	-2.8193831483	-0.0896174259	 0.323142
O	 0.0448627643	-4.0282044125	-0.1444948465	-0.342421
C	 0.0669307806	-2.0580097749	 1.2390857706	 0.315612
O	 0.1102196944	-2.6214667708	 2.3082396317	-0.339665
N	 0.0458024661	-0.6801590511	 1.1244180848	-0.416616
H	 0.8790419742	 1.9136931117	 0.5711457709	 0.140561
H	-0.0572723779	 2.0073695088	-0.9285499501	 0.142977
H	-0.8875633821	 1.8916120246	 0.6308602229	 0.140562
H	-0.0728454831	-0.1444652975	-2.1817625647	 0.134728
H	-0.0398422233	-2.5227399384	-2.0868148018	 0.263189
H	 0.0696287409	-0.1907718787	 2.0093492092	 0.258847
96.7577	146.5169	178.7428	287.7731	313.8222	346.7734	415.5995	460.5533	518.1285	568.8988	598.8111	642.7332	670.9479	682.0476	770.8028	798.7591	812.3072	1002.9799	1028.4265	1069.2123	1137.3832	1209.0228	1238.0356	1334.7686	1385.6103	1422.9394	1453.7185	1474.7094	1477.7903	1501.9923	1738.853	1801.5397	1816.4965	3022.4728	3070.5398	3132.5212	3248.3451	3591.6599	3606.8407
CC1=CNC(=O)C(=O)N1	Cc1c[nH]c(=O)c(=O)[nH]1	
InChI=1S/C5H6N2O2/c1-3-2-6-4(8)5(9)7-3/h2H,1H3,(H,6,8)(H,7,9)	InChI=1S/C5H6N2O2/c1-3-2-6-4(8)5(9)7-3/h2H,1H3,(H,6,8)(H,7,9)
