17
gdb 99236	4.3979	0.833	0.76757	4.3437	67.26	-0.24	0.0218	0.2618	1484.5177	0.135359	-492.35748	-492.347517	-492.346573	-492.393743	34.255	
C	-0.3283899874	 1.1433307574	-0.7467720017	-0.331753
N	-0.319181565	-0.0441472116	 0.0819980972	-0.349111
C	-1.3403734101	-0.9303623358	 0.1032485627	 0.535571
O	-2.3791090337	-0.8307353271	-0.5283030917	-0.431753
O	-1.0417742643	-1.9600502767	 0.9314019141	-0.268636
C	-2.082652375	-2.917907071	 1.1857473972	-0.174753
C	-2.1462284329	-4.0621977826	 0.1589913252	 0.371813
N	-2.3271508006	-3.6604754387	-1.1242554209	-0.51487
O	-2.0570897407	-5.2224129642	 0.5117252355	-0.35412
H	-0.2716303004	 2.0530382236	-0.1391606111	 0.132953
H	 0.5080751864	 1.1406741412	-1.4541212746	 0.132271
H	-1.2651822592	 1.1502891199	-1.304352825	 0.171571
H	 0.4735263488	-0.2469244853	 0.6681353911	 0.261122
H	-1.8434016687	-3.3639674231	 2.1495084572	 0.140149
H	-3.0473875397	-2.4033775844	 1.2302679463	 0.140748
H	-2.535716473	-2.6922000469	-1.3283213976	 0.281737
H	-2.4371948046	-4.3699977744	-1.830106214	 0.257062
43.4614	60.9385	82.9452	116.0327	157.391	224.1808	268.9427	317.2992	400.1031	422.8028	499.7211	511.546	548.5953	663.4135	686.3774	737.7672	784.2365	880.6233	912.6396	1005.6776	1031.74	1144.7458	1159.0698	1173.8047	1179.3419	1263.3562	1285.6501	1369.6572	1393.9605	1448.5597	1465.8409	1497.7908	1501.5006	1576.045	1615.3953	1784.6559	1807.6163	3031.5938	3066.995	3084.0821	3158.1528	3162.0109	3534.9326	3655.1864	3699.176
CNC(=O)OCC(N)=O	CNC(=O)OCC(=O)N	
InChI=1S/C4H8N2O3/c1-6-4(8)9-2-3(5)7/h2H2,1H3,(H2,5,7)(H,6,8)	InChI=1S/C4H8N2O3/c1-6-4(8)9-2-3(5)7/h2H2,1H3,(H2,5,7)(H,6,8)
