20
gdb 127117	3.74237	1.11719	0.87951	1.3599	85.39	-0.1795	0.0357	0.2151	1355.1343	0.17125	-399.342103	-399.332379	-399.331435	-399.37734	34.463	
C	 0.0400176695	 1.3601183094	 0.1268909031	-0.328481
N	-0.0490282242	-0.025472942	-0.2873613212	-0.147566
C	 1.1491278595	-0.8226338446	-0.0897477945	-0.321704
C	-1.2632082064	-0.6665407486	-0.0914259151	 0.456612
N	-1.3337097321	-2.0002052367	-0.0380048262	-0.388701
N	-2.6574081948	-2.2734029557	 0.0939208158	 0.061837
C	-3.0893321289	-3.6462409202	 0.1865153116	-0.313957
C	-3.4068023861	-1.1520289348	 0.1427915728	-0.01948
C	-2.5509349433	-0.0770324942	 0.0306126556	-0.352437
H	 0.9841413357	 1.7790661251	-0.2324371822	 0.119656
H	-0.7702863041	 1.9436641247	-0.3182746566	 0.128198
H	-0.0006584627	 1.4950024757	 1.2216431747	 0.104931
H	 1.3432915917	-1.051389619	 0.9714586931	 0.103091
H	 1.0469987777	-1.7698768801	-0.6205652102	 0.149368
H	 2.0088898678	-0.2779306567	-0.4908044328	 0.108513
H	-4.1758778398	-3.6690551229	 0.2890581399	 0.132582
H	-2.801555425	-4.1997872965	-0.7125130991	 0.14297
H	-2.6359677966	-4.1340933325	 1.0551006644	 0.142032
H	-4.4795139669	-1.196755297	 0.2524167262	 0.124846
H	-2.8205845811	 0.9649180668	 0.0348244408	 0.09769
51.868	69.0797	132.8927	169.4801	175.7735	202.9539	224.3359	354.2883	365.5414	387.4937	525.7586	596.4382	606.9086	714.3239	726.2577	742.4538	807.3942	941.6823	1010.2187	1026.0006	1073.6867	1083.033	1095.1826	1129.3759	1152.6581	1174.2776	1213.5189	1273.4118	1304.7956	1338.1272	1402.4963	1444.2332	1454.7878	1459.8948	1470.0946	1472.6815	1483.3087	1491.307	1499.1553	1510.3134	1526.5894	1551.7637	1604.7155	2954.626	2968.429	3038.3479	3071.8811	3076.0008	3097.9399	3112.9655	3138.4381	3140.32	3249.5864	3281.1346
CN(C)C1=NN(C)C=C1	CN(C)c1nn(C)cc1	
InChI=1S/C6H11N3/c1-8(2)6-4-5-9(3)7-6/h4-5H,1-3H3	InChI=1S/C6H11N3/c1-8(2)6-4-5-9(3)7-6/h4-5H,1-3H3
