15
gdb 15203	2.45371	1.95359	1.49579	4.0344	71.69	-0.2625	0.011	0.2735	908.2132	0.117402	-325.498804	-325.490575	-325.48963	-325.531382	29.84	
C	-0.1092247082	 1.545760555	 0.0594411356	-0.414611
C	 0.0290078224	 0.0456762835	-0.0318210086	-0.030418
C	 0.705848077	-0.6195440766	-1.2144682305	-0.220992
C	 1.272484846	 0.1489369178	-2.2813706782	 0.348387
C	 1.7400087871	 0.7839876062	-3.1886282054	-0.448578
C	 1.3682122973	-0.6416061082	 0.1771972201	-0.202285
C	 2.5522183696	 0.1303439571	 0.4234242982	 0.304493
N	 3.5076643019	 0.7452617434	 0.6406382052	-0.338585
H	 0.758388789	 2.054997447	-0.3649149316	 0.154909
H	-0.9972116554	 1.8780996868	-0.4870057029	 0.129957
H	-0.2129394359	 1.8589851062	 1.1027501245	 0.131866
H	-0.8087422107	-0.5160476288	 0.3713562741	 0.109959
H	 0.3001716957	-1.581317986	-1.5146462859	 0.129356
H	 2.1649818271	 1.3455611406	-3.9835835138	 0.207183
H	 1.360346277	-1.601089774	 0.683238739	 0.139358
95.2875	126.7273	158.0315	170.9115	250.4753	327.4354	370.7779	449.2902	555.3433	612.7294	633.4679	655.5238	668.1942	741.0435	786.8164	835.4896	950.5305	966.7982	1018.2775	1087.5734	1101.7506	1148.3465	1162.5122	1237.8473	1362.7044	1369.3755	1410.7127	1426.3716	1488.3081	1498.1807	2242.6088	2355.3771	3046.3903	3110.116	3132.884	3147.7105	3156.0579	3172.3315	3503.3921
CC1C(C#C)C1C#N	C[C@H]1[C@@H](C#C)[C@H]1C#N	
InChI=1S/C7H7N/c1-3-6-5(2)7(6)4-8/h1,5-7H,2H3	InChI=1S/C7H7N/c1-3-6-5(2)7(6)4-8/h1,5-7H,2H3/t5-,6+,7-/m0/s1
