20
gdb 42393	3.19078	0.96283	0.81138	1.8066	80.66	-0.242	-0.0165	0.2256	1455.1105	0.170899	-403.125071	-403.11595	-403.115006	-403.16036	33.3	
O	-0.5359525988	 0.2435332759	-1.608110513	-0.335585
C	-0.001081162	 0.9151398565	-0.749381045	 0.368979
C	 1.4900851122	 1.2515465109	-0.8493080652	-0.320985
C	 2.2542936132	 1.2139041471	 0.4570487812	 0.015826
C	 3.5406202423	 1.9373395706	 0.6001577602	-0.249455
N	 2.344194809	 2.4017428723	 1.3280357101	-0.309597
C	-0.7678735921	 1.4566613974	 0.4090265451	-0.106718
C	-2.2132319049	 1.8672075267	 0.1455832995	-0.255546
C	-1.9406795285	 0.6212855146	 0.910030047	-0.245669
H	 1.9186436419	 0.5568308295	-1.5786140619	 0.130726
H	 1.5720573158	 2.2590592865	-1.2847801624	 0.113844
H	 2.1360545446	 0.2913122374	 1.0226334829	 0.103079
H	 4.3298189527	 1.5314437456	 1.2261310702	 0.12329
H	 3.8909447572	 2.5211234575	-0.2475901245	 0.113975
H	 1.9538877964	 3.2081436536	 0.8443755084	 0.227401
H	-0.2134456901	 2.0201672077	 1.148271529	 0.110554
H	-2.5794368366	 2.7406054946	 0.6727489907	 0.118517
H	-2.5475884407	 1.7596220734	-0.8797995947	 0.137745
H	-2.0916776057	-0.3213739756	 0.3970355002	 0.138896
H	-2.1116470358	 0.6105783778	 1.9801390423	 0.120723
41.8161	57.7557	99.5327	149.4913	243.589	264.0151	314.8461	347.692	455.8333	583.6597	681.0247	740.481	799.9225	818.7454	825.9324	830.0422	871.0989	920.4296	937.7944	942.1782	987.7735	1048.8154	1062.5068	1094.7415	1111.1937	1119.0065	1127.3945	1135.6685	1163.4643	1193.5811	1212.1921	1226.0096	1250.5971	1267.5663	1304.4796	1309.9849	1411.0542	1422.191	1450.2359	1453.0029	1485.117	1512.6763	1781.747	3004.0204	3083.5075	3108.8314	3124.9135	3141.3023	3143.6726	3194.7541	3199.6808	3229.8691	3244.6521	3483.9221
O=C(CC1CN1)C1CC1	O=C(C[C@H]1CN1)C1CC1	
InChI=1S/C7H11NO/c9-7(5-1-2-5)3-6-4-8-6/h5-6,8H,1-4H2	InChI=1S/C7H11NO/c9-7(5-1-2-5)3-6-4-8-6/h5-6,8H,1-4H2/t6-/m0/s1
