18
gdb 29656	2.33246	1.66408	0.98921	5.0282	76.09	-0.1992	0.0345	0.2337	1190.2614	0.146462	-439.160548	-439.151056	-439.150112	-439.194791	33.631	
C	 0.0262041208	 1.4538262167	 0.0153414037	-0.347607
N	-0.010499348	 0.0096926742	 0.0655038388	-0.168804
C	-0.1399283675	-0.7653491373	-1.0650535155	 0.466786
O	-0.2394322073	-0.4241761074	-2.2160752176	-0.419944
O	-0.1360398801	-2.0710430177	-0.6314748809	-0.249368
C	-0.0052129406	-2.0824920733	 0.7503172853	 0.257494
C	 0.0189993692	-3.4133973177	 1.4024164046	-0.488265
C	 0.0735851638	-0.818422045	 1.1994442718	 0.17195
C	 0.2192272022	-0.2690694597	 2.5749131313	-0.500489
H	 0.9701324698	 1.844951382	 0.4098095188	 0.133387
H	-0.0660453759	 1.7366200604	-1.0344250435	 0.174878
H	-0.802168286	 1.8958248825	 0.5792639718	 0.13338
H	 0.8536321664	-4.021144996	 1.0340764119	 0.143547
H	 0.1251189601	-3.3076928649	 2.4842554988	 0.132041
H	-0.9030437004	-3.9711926857	 1.2015658261	 0.143535
H	 0.267580497	-1.0801134655	 3.3040964577	 0.140457
H	 1.1321259339	 0.329363795	 2.6794074723	 0.138489
H	-0.6251520674	 0.3754528392	 2.8470810048	 0.138532
97.9839	128.0307	143.7585	164.4033	182.4073	234.5211	258.1893	266.1829	333.4583	342.6827	561.4353	616.2018	616.2529	630.8196	726.5882	761.2867	886.486	965.2822	1019.5284	1055.7858	1060.9669	1068.1956	1139.8695	1157.7745	1205.183	1293.5348	1358.0549	1406.8995	1420.5338	1431.7357	1459.8135	1466.6525	1475.6213	1492.5595	1496.2603	1496.3808	1514.5478	1756.1234	1871.5333	3024.5948	3028.4513	3031.3591	3071.8147	3077.3837	3085.7084	3126.2685	3132.3411	3148.0997
CN1C(=O)OC(C)=C1C	Cn1c(=O)oc(C)c1C	
InChI=1S/C6H9NO2/c1-4-5(2)9-6(8)7(4)3/h1-3H3	InChI=1S/C6H9NO2/c1-4-5(2)9-6(8)7(4)3/h1-3H3
