15
gdb 20055	4.52377	1.70025	1.55458	2.7983	60.48	-0.2509	0.0216	0.2724	839.1831	0.120238	-399.783308	-399.776525	-399.775581	-399.815007	24.493	
C	 0.3365279866	 1.4770843652	 0.2898318385	-0.170836
O	 1.2634202349	 0.4171996372	 0.0221979808	-0.23199
C	-0.1211799686	 0.0964833111	 0.1048301254	 0.062427
C	-0.5331788293	-0.7979830033	 1.2512450118	 0.055141
C	 0.1396134417	-2.2042379644	 1.2220517469	-0.197244
N	 0.9272721044	-2.2766750229	 2.4630813847	-0.254756
C	 0.7363168022	-1.1772294735	 3.0560875896	 0.127269
O	-0.0862723571	-0.2428637117	 2.511653924	-0.229802
H	 0.3840029162	 1.8856550932	 1.2952353207	 0.132832
H	 0.2078736003	 2.1973026772	-0.5164966515	 0.116919
H	-0.5829061011	-0.1773331903	-0.8464545246	 0.098507
H	-1.6265387581	-0.8565827331	 1.2854911944	 0.097171
H	-0.5913901417	-3.0177875588	 1.196198434	 0.118884
H	 0.8024154025	-2.3191763015	 0.3586242535	 0.13201
H	 1.171887597	-0.8853979544	 4.0049532118	 0.143468
73.3395	91.209	226.0393	245.8007	441.1163	489.6953	617.7889	726.4424	781.9564	864.3903	884.2047	909.8319	954.2936	962.936	981.8747	1005.3094	1049.1634	1098.2474	1104.3378	1120.241	1167.5281	1168.7744	1215.361	1289.9532	1299.6654	1321.9914	1337.0527	1381.9578	1433.2018	1496.5565	1522.4373	1719.1352	3045.4121	3052.8826	3088.6834	3090.5573	3100.0727	3197.9904	3220.9263
C1OC1C1CN=CO1	C1O[C@H]1[C@H]1CN=CO1	
InChI=1S/C5H7NO2/c1-4(5-2-7-5)8-3-6-1/h3-5H,1-2H2	InChI=1S/C5H7NO2/c1-4(5-2-7-5)8-3-6-1/h3-5H,1-2H2/t4-,5-/m1/s1
