18
gdb 81748	3.30637	1.23562	1.07175	2.3674	80.54	-0.2329	0.0263	0.2592	1169.7763	0.146452	-401.873464	-401.864636	-401.863692	-401.906623	33.947	
C	-0.1664996722	 1.5719934637	-0.0391672983	-0.407506
C	-0.0054623706	 0.0599808601	-0.0149299086	-0.021955
C	 0.7294732793	-0.6222553551	-1.1723025375	-0.126019
N	 2.1306366224	-0.1586649816	-1.1222064223	-0.389105
C	 1.6999867232	-1.2931229011	-0.2442760436	 0.227206
C	 2.3148053699	-2.5704605805	-0.3039285804	 0.091236
C	 2.8325090775	-3.6572360199	-0.3254820555	-0.382033
C	 1.0716939739	-0.5696462435	 0.9705073654	 0.063535
O	 1.9147045965	 0.2925305565	 1.6713117683	-0.429315
H	 0.7745159323	 2.0638969856	-0.2975962915	 0.126278
H	-0.9183294205	 1.8731814931	-0.7764000143	 0.111549
H	-0.4846177819	 1.9424070327	 0.9399776527	 0.125922
H	-0.9686046618	-0.4311546618	 0.1559768046	 0.078567
H	 0.3133466386	-1.016400014	-2.09171113	 0.107426
H	 2.6315949045	-0.5636248744	-1.9114304449	 0.243179
H	 3.2874104036	-4.6164702695	-0.344797103	 0.187257
H	 0.625772041	-1.2551107444	 1.6930052765	 0.09941
H	 2.4408394943	 0.7479617841	 0.9996688424	 0.294368
100.224	132.2308	167.1453	194.8949	227.2784	286.8971	376.2773	453.3993	507.1943	528.3606	548.6603	584.3594	613.5199	658.0394	678.9068	694.4336	800.6876	850.214	887.546	928.2859	985.9823	1021.4317	1026.4264	1073.2676	1133.04	1139.6762	1152.7208	1198.031	1221.6695	1256.229	1297.527	1336.9951	1375.4693	1393.5904	1412.138	1449.2874	1488.8598	1501.7613	2231.595	3039.4538	3058.1249	3103.9876	3106.2825	3123.088	3190.3182	3493.846	3502.1428	3753.3384
CC1C2NC2(C#C)C1O	C[C@H]1[C@H]2N[C@@]2(C#C)[C@H]1O	
InChI=1S/C7H9NO/c1-3-7-5(8-7)4(2)6(7)9/h1,4-6,8-9H,2H3	InChI=1S/C7H9NO/c1-3-7-5(8-7)4(2)6(7)9/h1,4-6,8-9H,2H3/t4-,5+,6-,7+/m0/s1
