21
gdb 120041	2.88344	1.09216	0.98575	2.306	75.53	-0.2506	0.0632	0.3138	1314.5265	0.182305	-461.332706	-461.323314	-461.32237	-461.366978	35.296	
C	-0.0410255868	 1.2636945728	-0.2082937808	-0.230015
O	 0.3788672978	-0.080698709	-0.1193059511	-0.24921
C	 0.2008089045	-0.6287130455	 1.1875134409	-0.109412
C	 0.6185286274	-2.0911582766	 1.163703997	-0.06103
C	 1.8277967523	-2.4985852773	 0.2661109216	 0.103686
O	 2.8069997349	-1.4670372485	 0.2061297816	-0.446656
C	 2.2428043061	-3.5089635454	 1.3572870741	-0.258986
C	 1.4277292488	-2.6710905243	 2.381430826	 0.118242
O	 2.204033396	-1.7112690093	 3.0635861221	-0.436177
H	 0.5103833985	 1.9108262556	 0.4908469422	 0.111502
H	 0.1481268788	 1.599938594	-1.230532176	 0.129975
H	-1.115516204	 1.3621785265	 0.0069340059	 0.11259
H	 0.8133250478	-0.0742513796	 1.9124545988	 0.106717
H	-0.8504189275	-0.5189921998	 1.4943509825	 0.096304
H	-0.230197544	-2.7438954026	 0.9374705548	 0.07742
H	 1.6012847893	-2.8833294122	-0.7349752792	 0.067621
H	 2.3509442771	-0.7123633992	-0.1947646092	 0.289833
H	 1.8081166114	-4.4971203335	 1.1856413032	 0.102713
H	 3.3139341287	-3.6052473525	 1.5484864657	 0.109768
H	 0.8573099926	-3.2081193785	 3.1427476508	 0.079028
H	 2.7910068402	-1.3206118951	 2.4001689691	 0.286087
78.9653	107.3506	144.3176	160.1933	230.6514	267.3226	290.8494	358.1082	371.4942	437.338	511.9949	568.3932	615.6067	669.112	750.2039	837.2642	873.6268	894.7823	908.6656	963.9233	1002.4145	1014.6464	1023.8306	1125.857	1131.639	1143.0756	1153.8541	1186.6978	1192.749	1214.3686	1235.4623	1257.1268	1261.7306	1264.5336	1326.1684	1350.1561	1354.5337	1410.7381	1430.7842	1457.4603	1469.5412	1480.8772	1485.7914	1505.8539	1534.9335	2977.647	2988.0753	3024.1894	3029.1954	3030.1793	3061.9056	3067.3544	3086.5386	3117.0314	3126.9177	3721.9494	3736.4757
COCC1C(O)CC1O	COC[C@H]1[C@@H](O)C[C@H]1O	
InChI=1S/C6H12O3/c1-9-3-4-5(7)2-6(4)8/h4-8H,2-3H2,1H3	InChI=1S/C6H12O3/c1-9-3-4-5(7)2-6(4)8/h4-8H,2-3H2,1H3/t4-,5-,6+
