16
gdb 73885	2.51476	1.56729	1.12063	5.9036	75.78	-0.2137	-0.036	0.1777	1076.1832	0.124869	-437.857172	-437.849465	-437.848521	-437.889371	29.553	
N	 0.0705632814	 1.3096242255	 0.1140481694	-0.62398
C	-0.0090859028	-0.0327152012	 0.026468048	 0.304137
C	-1.0417179026	-0.9307819253	 0.0104690222	 0.194589
C	-2.4605434237	-0.7493996341	 0.0078462903	 0.019484
O	-3.2903971804	-1.6432017558	 0.0171907398	-0.314136
C	-0.2522416488	-2.2439719953	-0.0385972425	-0.038759
C	 0.8308766289	-2.0297397183	 1.0570225827	-0.224029
C	 1.2135004452	-0.9726812985	-0.017650532	-0.012614
O	 0.7994681905	-1.9224877558	-1.0355104423	-0.284362
H	 0.9345398053	 1.7687720049	-0.1220636393	 0.27048
H	-0.7626374261	 1.8689267386	 0.0255532443	 0.274404
H	-2.78969642	 0.3195329467	-0.0058570354	 0.024392
H	-0.7845951974	-3.1750408642	-0.2120463599	 0.10714
H	 0.5143213008	-1.6973450331	 2.0477646345	 0.107132
H	 1.5649282717	-2.8369385457	 1.1039444693	 0.115435
H	 2.210447978	-0.5482002484	-0.1483314291	 0.080685
117.6996	151.3844	197.7249	260.7878	302.5151	344.2508	475.7257	498.5928	556.0618	601.1154	630.3498	703.4347	749.0104	823.5085	850.5605	872.1253	922.6348	932.9687	1020.7021	1024.0117	1060.5155	1076.4009	1154.637	1178.069	1212.2081	1241.0396	1258.1937	1271.9974	1291.1056	1413.6327	1469.7596	1484.9228	1629.5684	1690.7309	1750.1907	2804.2146	3067.0496	3110.1654	3140.3245	3173.595	3593.2414	3704.5988
NC1=C(C=O)C2CC1O2	NC1=C(C=O)[C@@H]2C[C@H]1O2	
InChI=1S/C6H7NO2/c7-6-3(2-8)4-1-5(6)9-4/h2,4-5H,1,7H2	InChI=1S/C6H7NO2/c7-6-3(2-8)4-1-5(6)9-4/h2,4-5H,1,7H2/t4-,5+/m0/s1
