16
gdb 112494	2.36041	1.20889	0.97214	3.8993	70.99	-0.2807	-0.0603	0.2204	1256.6439	0.122206	-437.891502	-437.882523	-437.881579	-437.926188	31.42	
C	-0.0208219385	 1.3425286615	-0.4718022834	-0.388429
C	-0.028960022	-0.1488689825	-0.12369621	-0.194796
C	-1.4188084457	-0.6393482818	 0.259035158	 0.016033
O	-2.3823414887	-0.5815177911	-0.8360093491	-0.290072
C	-2.6430749207	-1.9942004245	-0.843068813	-0.131433
C	-2.2938817299	-2.6543394675	-2.0958467569	 0.293059
N	-1.9945825918	-3.1862497442	-3.0773306362	-0.308697
C	-1.6263319295	-2.1536353954	 0.3369905882	 0.339334
O	-1.2155716409	-3.0571374137	 0.9856395617	-0.24944
H	 0.9820369266	 1.6644088279	-0.7650296871	 0.126643
H	-0.7014197683	 1.5476174612	-1.3024973962	 0.144833
H	-0.3347905773	 1.9506499972	 0.3831792083	 0.1208
H	 0.3358492696	-0.738492636	-0.9722650135	 0.122763
H	 0.6375478843	-0.3564591258	 0.7221430511	 0.124144
H	-1.7994613176	-0.1020736933	 1.1387287162	 0.119337
H	-3.6770727096	-2.234489542	-0.5647157483	 0.155923
46.5307	99.1264	128.3158	149.2038	217.8452	244.9164	292.7406	373.5175	441.5237	522.7365	550.4924	613.3691	708.0717	780.3126	865.4309	908.2931	931.4977	969.3727	1033.2309	1051.5269	1072.958	1105.2148	1135.576	1185.9778	1255.8897	1276.4013	1309.5183	1341.9476	1387.8336	1412.5639	1474.4421	1496.6775	1507.9312	1941.2886	2354.9472	3018.9004	3037.4794	3037.9352	3042.3584	3079.1022	3113.1451	3126.077
CCC1OC(C#N)C1=O	CC[C@H]1O[C@@H](C#N)C1=O	
InChI=1S/C6H7NO2/c1-2-4-6(8)5(3-7)9-4/h4-5H,2H2,1H3	InChI=1S/C6H7NO2/c1-2-4-6(8)5(3-7)9-4/h4-5H,2H2,1H3/t4-,5+/m1/s1
