19
gdb 35431	3.73101	1.2187	1.11349	4.2083	78.92	-0.2325	0.0247	0.2572	1132.5405	0.163224	-382.067292	-382.059913	-382.058969	-382.099129	29.668	
N	 0.1064293712	-1.156181165	 0.0631457496	-0.318337
C	 0.0369550845	-0.0043356504	 0.0017836641	 0.25242
C	-0.0530532573	 1.4559412683	-0.0466675409	-0.087851
C	-0.8565232887	 2.0155641396	 1.1716709284	-0.228167
C	-0.4148700342	 3.4630171862	 1.4402672647	-0.019491
C	 0.0402401104	 4.1466456022	 0.1149987728	-0.227197
C	 1.3875418149	 3.4029822935	 0.323737934	 0.0221
C	 1.0843897375	 3.4620766225	 1.8513947788	-0.22699
N	 1.295461745	 2.039913995	-0.2135582868	-0.312605
H	-0.6253773556	 1.6989341216	-0.9504743184	 0.135958
H	-1.9248358914	 1.9561627054	 0.9381228153	 0.112015
H	-0.6848339634	 1.4039890813	 2.0636927546	 0.1198
H	-1.1293895384	 3.9858520932	 2.0793021993	 0.071688
H	-0.5198525635	 3.9692629891	-0.8064455668	 0.102394
H	 0.1708136904	 5.2223610911	 0.248473644	 0.106282
H	 2.3064201569	 3.8641734756	-0.0454828493	 0.077172
H	 1.3891927492	 4.4153181714	 2.2925161073	 0.100585
H	 1.4484919269	 2.6375171979	 2.4724460779	 0.089355
H	 1.9854373356	 1.4508225018	 0.2416440214	 0.230868
87.4167	162.4375	288.4922	299.9667	381.0223	425.1655	478.923	527.837	550.4347	579.6858	730.4726	807.2186	813.7421	854.9691	880.9665	892.0085	928.6918	938.4978	988.1043	1009.6998	1031.4459	1081.1424	1083.487	1109.4886	1126.1793	1133.3767	1200.8171	1224.0421	1250.8912	1263.8267	1287.2026	1307.4557	1336.358	1343.6496	1370.5176	1374.8366	1475.3674	1484.8812	1494.9738	1511.6097	2360.8348	3022.9169	3040.4228	3043.8497	3065.9389	3079.1781	3084.0608	3087.9338	3103.7392	3122.0186	3519.0329
N#CC1CC2CC(C2)N1	N#C[C@H]1C[C@@H]2C[C@@H](C2)N1	
InChI=1S/C7H10N2/c8-4-7-3-5-1-6(2-5)9-7/h5-7,9H,1-3H2	InChI=1S/C7H10N2/c8-4-7-3-5-1-6(2-5)9-7/h5-7,9H,1-3H2/t5-,6+,7-/m1/s1
