25
gdb 110353	2.82402	1.05387	0.92359	0.0943	93.13	-0.2428	0.0869	0.3297	1456.9105	0.22865	-352.337604	-352.327627	-352.326683	-352.372215	38.455	
C	-0.4422272297	 1.2701909409	 0.090237502	-0.371656
C	-0.0917056212	-0.1916726769	 0.3936009975	-0.207605
C	-1.3125884077	-1.0917231834	 0.3781274998	-0.009525
C	-1.9592195938	-1.6751492563	-0.8524036672	-0.067719
C	-1.3171069836	-2.5862684771	 0.2015970857	-0.089554
C	-0.2722477752	-3.0702202821	-0.8204291084	 0.007916
C	-0.3102335215	-4.5723928775	-1.0823665242	-0.410123
C	-0.9292739441	-2.1293490854	-1.9030840982	 0.008062
C	-1.5421982664	-2.7921435582	-3.1323609255	-0.410575
H	 0.4460107562	 1.9091902335	 0.1209401953	 0.107734
H	-0.8942854378	 1.3673718017	-0.9025159303	 0.117961
H	-1.1606696632	 1.6634777681	 0.8182685539	 0.111227
H	 0.6557526628	-0.541411545	-0.3256437891	 0.099136
H	 0.3860584818	-0.2574690504	 1.3799573942	 0.092775
H	-2.0639197318	-0.7790986931	 1.1040601969	 0.077216
H	-3.0119879577	-1.522586262	-1.0673966343	 0.072532
H	-1.8013489313	-3.238091301	 0.9218645747	 0.073035
H	 0.7585242095	-2.789944892	-0.5709909919	 0.062244
H	-1.3260663847	-4.9304913408	-1.2760084344	 0.11516
H	 0.3151804222	-4.8500011918	-1.9372019035	 0.111203
H	 0.0653874247	-5.1151694433	-0.2076441818	 0.110876
H	-0.2591499792	-1.3298332913	-2.2430428747	 0.062213
H	-2.2712196937	-3.5634311853	-2.8652420383	 0.115327
H	-2.0663703302	-2.044946194	-3.7388147842	 0.110786
H	-0.7776617342	-3.2543478273	-3.7654461141	 0.111354
63.3357	107.1171	171.9663	198.0762	238.1141	245.389	263.6097	288.8635	300.3191	338.1973	440.1619	542.4905	570.6239	716.7516	727.6669	769.8343	801.542	805.1432	882.0647	914.8005	946.8745	979.7301	990.6848	1000.2699	1024.5069	1046.7105	1070.2755	1071.9668	1115.4211	1117.8874	1124.0544	1157.3848	1165.935	1215.8817	1253.8193	1259.365	1295.9002	1306.2665	1321.4303	1355.781	1370.6573	1378.5548	1407.3975	1410.5721	1418.1992	1452.215	1486.5453	1489.0452	1493.8029	1498.3221	1503.4611	1507.8821	1515.6101	3010.0228	3020.5763	3024.2412	3027.8066	3029.7239	3034.1275	3068.4375	3089.7941	3094.1185	3096.5644	3099.7719	3102.2397	3106.4593	3110.4235	3150.3782	3162.7659
CCC1C2C1C(C)C2C	CC[C@H]1[C@@H]2[C@H]1[C@@H](C)[C@H]2C	
InChI=1S/C9H16/c1-4-7-8-5(2)6(3)9(7)8/h5-9H,4H2,1-3H3	InChI=1S/C9H16/c1-4-7-8-5(2)6(3)9(7)8/h5-9H,4H2,1-3H3/t5-,6+,7+,8-,9+
