21
gdb 58452	3.00635	1.02256	0.98396	3.4566	78.66	-0.2393	-0.0178	0.2215	1318.6097	0.179035	-424.239884	-424.229814	-424.228869	-424.27509	37.832	
C	 0.1224306149	 1.4544485835	-0.1697516281	-0.423426
C	-0.0740148951	-0.0473046735	 0.0446482676	 0.076822
O	 0.6770042392	-0.5121361646	 1.1636933102	-0.437008
C	-1.5448400927	-0.4904561926	 0.1416605248	 0.340626
C	-2.3069538735	 0.1733744897	 1.2902337518	-0.474883
C	-2.3249598667	-0.4269982411	-1.2184949228	-0.404805
C	-2.6538370814	-1.9180908086	-1.0449938606	 0.40942
O	-3.4068135888	-2.6662449974	-1.5977321787	-0.292061
C	-1.7090051183	-2.0503266477	 0.1542027803	-0.392012
H	 1.1850129593	 1.6735878456	-0.3036116688	 0.128999
H	-0.4176297355	 1.8095681069	-1.05293151	 0.12363
H	-0.2344408754	 2.0300891602	 0.6920641971	 0.112988
H	 0.365329637	-0.5779515136	-0.8105862021	 0.08216
H	 0.4793305223	 0.0595230177	 1.912930754	 0.280258
H	-2.3849908032	 1.2573474571	 1.1601512931	 0.120873
H	-3.326333221	-0.2211314802	 1.3570810399	 0.124138
H	-1.8230273865	-0.025480616	 2.2530934548	 0.112793
H	-3.182304771	 0.2489870009	-1.2816857325	 0.124636
H	-1.6828031815	-0.2536696445	-2.0899666665	 0.12587
H	-0.7883653665	-2.5883643821	-0.0946777676	 0.136319
H	-2.1376726655	-2.5061991999	 1.0508689039	 0.124664
34.1075	79.4794	182.2818	233.9201	244.2125	272.5124	274.3341	305.0962	336.36	382.2171	407.945	419.4355	486.1137	532.6963	656.4975	679.2733	725.3199	853.7346	882.6648	890.7375	927.4562	957.5059	1013.3186	1026.6351	1079.9562	1082.4265	1109.7012	1138.2216	1152.9751	1174.7455	1208.0893	1252.295	1297.7022	1310.8763	1370.9618	1403.8198	1410.7835	1418.3451	1426.4739	1445.0642	1489.8517	1491.2189	1500.5114	1508.3834	1892.0286	3017.741	3029.0176	3034.9559	3041.8695	3055.9744	3092.3745	3098.8856	3102.7354	3105.0711	3109.0342	3120.265	3810.9527
CC(O)C1(C)CC(=O)C1	C[C@@H](O)C1(C)CC(=O)C1	
InChI=1S/C7H12O2/c1-5(8)7(2)3-6(9)4-7/h5,8H,3-4H2,1-2H3	InChI=1S/C7H12O2/c1-5(8)7(2)3-6(9)4-7/h5,8H,3-4H2,1-2H3/t5-/m1/s1
