19
gdb 114669	3.421	1.22613	1.11373	0.7151	71.56	-0.236	0.0692	0.3052	1160.4316	0.159493	-460.125897	-460.117665	-460.116721	-460.158594	31.734	
C	 0.1202046094	 1.2989776906	 0.0638358879	-0.246702
O	-0.0572018567	-0.1010555839	-0.0623055385	-0.241918
C	 0.6115149424	-0.6516889166	-1.1497799659	 0.241872
O	 2.0507771252	-0.584572941	-1.0009320266	-0.304557
C	 2.4095346689	-1.977306377	-0.9780654727	 0.052262
C	 1.5936738477	-2.5691220323	-2.1520239726	-0.246417
C	 0.4141870062	-2.1659682695	-1.2100049965	-0.128435
C	 1.3361314334	-2.5860964634	-0.0230473148	 0.132889
O	 1.356288255	-3.9859747964	 0.1328097756	-0.443303
H	 1.1697997199	 1.552584553	 0.2526137665	 0.129859
H	-0.2136992052	 1.8265272181	-0.8424989861	 0.10619
H	-0.4906718436	 1.62356596	 0.908687868	 0.126707
H	 0.3365853469	-0.1142883455	-2.0708475086	 0.068555
H	 3.4860644751	-2.0855257101	-0.847656435	 0.074906
H	 1.6828946399	-2.0651403742	-3.1169982549	 0.097085
H	 1.6903422957	-3.648520491	-2.2485746408	 0.12314
H	-0.6031470169	-2.5360682286	-1.3184877223	 0.085686
H	 1.1861089412	-2.059448047	 0.9243609172	 0.085314
H	 2.0444775456	-4.2020024251	 0.7697745701	 0.286869
102.6492	144.9597	177.992	275.9311	286.2056	310.5588	323.5509	412.1362	471.12	553.2019	567.3399	693.8802	841.7233	861.6706	894.9388	896.5132	954.6434	966.0657	968.0405	1012.789	1030.5676	1078.613	1096.9449	1122.0718	1132.5228	1151.4844	1179.7253	1200.9342	1231.1472	1235.1755	1259.5438	1270.2665	1273.0991	1321.5844	1349.8297	1404.7513	1422.7099	1479.1178	1484.845	1485.2205	1512.8361	2979.668	2992.9042	3065.7358	3066.048	3080.3431	3125.3205	3126.651	3146.615	3167.46	3819.5089
COC1OC2CC1C2O	CO[C@H]1O[C@@H]2C[C@H]1[C@H]2O	
InChI=1S/C6H10O3/c1-8-6-3-2-4(9-6)5(3)7/h3-7H,2H2,1H3	InChI=1S/C6H10O3/c1-8-6-3-2-4(9-6)5(3)7/h3-7H,2H2,1H3/t3-,4+,5+,6-/m0/s1
