14
gdb 8587	4.94629	1.91974	1.76433	3.5361	63.09	-0.2476	-0.0258	0.2217	752.3976	0.106244	-382.423298	-382.417282	-382.416338	-382.453215	24.124	
O	-0.0335619905	-0.0584461075	-0.183065615	-0.276838
C	 0.0038029694	 1.1100202846	 0.0299468571	 0.382149
C	-1.12025913	 2.2018439794	 0.2925959204	-0.430854
C	 0.0565395687	 3.0704965789	 0.7309017016	 0.361642
C	 1.0577936219	 4.2426246904	 0.8980709585	-0.308685
C	 1.7600725263	 2.869934107	 1.2462087989	 0.0322
O	 0.5661568485	 2.5016499732	 2.0172121901	-0.328932
C	 1.1165114955	 2.2213920262	-0.0034578637	-0.153564
H	-1.5609575483	 2.5092589015	-0.6615001251	 0.137258
H	-1.900136502	 1.9781714342	 1.0221722337	 0.143797
H	 1.3703768926	 4.7702948028	-0.0057948834	 0.111128
H	 0.8996133469	 4.9036394116	 1.7508734207	 0.12284
H	 2.7370976166	 2.7127493847	 1.7071852029	 0.108255
H	 1.4648521845	 2.4959257931	-1.0029251468	 0.099604
135.0823	288.6719	351.294	458.9672	479.7002	544.3707	627.1763	671.2906	720.5613	787.6593	829.1716	838.3186	867.127	941.0414	969.2572	978.0894	1014.2051	1038.3721	1070.8278	1107.5254	1138.133	1175.0815	1183.0001	1192.0456	1240.5743	1263.3946	1286.6283	1438.7895	1484.0698	1908.7015	3062.2138	3069.2913	3081.1445	3100.9279	3138.0027	3154.8635
O=C1CC23CC(O2)C13	O=C1C[C@@]23C[C@@H](O2)[C@@H]13	
InChI=1S/C6H6O2/c7-3-1-6-2-4(8-6)5(3)6/h4-5H,1-2H2	InChI=1S/C6H6O2/c7-3-1-6-2-4(8-6)5(3)6/h4-5H,1-2H2/t4-,5-,6+/m1/s1
