21
gdb 37963	2.52371	1.89577	1.37767	1.3127	81.13	-0.2339	0.0818	0.3157	1007.4347	0.186213	-387.063134	-387.056002	-387.055057	-387.094284	29.905	
C	-0.0001372997	 1.5548540521	-0.073373535	-0.25764
C	 1.5341523819	 1.5571076318	-0.0942631211	-0.069605
C	 2.1037373855	 0.9353759873	 1.1538083294	-0.009767
C	 1.5379006103	 1.0882864768	 2.5658313897	-0.239787
C	 0.6146646424	-0.0393368917	 3.0386535606	-0.064926
O	-0.6609503593	-0.0249489457	 2.4242073232	-0.239868
C	-0.7420718767	-0.6813536351	 1.1740713498	-0.103114
C	 0.0251001438	-0.006915087	 0.0410462122	 0.002205
C	 1.5638294284	 0.0325316686	 0.0726691416	-0.106304
H	-0.4691573185	 2.0838381798	 0.7609993075	 0.107459
H	-0.4482176899	 1.9014479174	-1.0065239216	 0.099028
H	 2.141524061	 2.1779129745	-0.7424067938	 0.080369
H	 3.1914442375	 0.9478947233	 1.1281192856	 0.083757
H	 2.3751941663	 1.1439164315	 3.2727313822	 0.092551
H	 0.9932896771	 2.0349440454	 2.6659974874	 0.109802
H	 1.1014883193	-1.0165618536	 2.888226905	 0.085068
H	 0.4271291432	 0.078714639	 4.1122702696	 0.098472
H	-0.404143723	-1.7284566293	 1.2709900577	 0.08215
H	-1.8117223182	-0.7014574734	 0.9339101587	 0.101154
H	-0.3095520302	-0.4557751833	-0.9006621525	 0.073687
H	 2.2004054285	-0.6938086285	-0.4205773762	 0.075308
163.8871	192.0776	274.2429	324.1002	383.1323	403.2666	479.3795	575.4249	646.1593	699.276	716.7433	773.623	816.9639	826.0836	885.2247	933.7552	941.3048	959.476	997.4347	1012.3317	1018.9704	1054.4384	1067.9294	1086.1795	1101.9997	1123.3602	1143.9669	1175.8544	1193.7895	1230.9447	1252.0427	1262.7972	1289.2056	1307.069	1338.8167	1341.0682	1354.4697	1376.3862	1400.0042	1421.3412	1439.3154	1471.466	1481.0427	1492.6197	1497.0681	2949.2362	2975.9601	3023.1538	3041.2851	3055.3585	3058.4996	3062.0591	3063.8249	3115.2969	3125.7874	3162.7063	3178.8743
C1C2C3CCOCC1C23	C1[C@H]2[C@H]3CCOC[C@@H]1[C@@H]23	
InChI=1S/C8H12O/c1-2-9-4-5-3-7-6(1)8(5)7/h5-8H,1-4H2	InChI=1S/C8H12O/c1-2-9-4-5-3-7-6(1)8(5)7/h5-8H,1-4H2/t5-,6-,7+,8-/m1/s1
