13
gdb 132673	3.14671	1.39304	0.96558	1.4485	64.86	-0.2187	-0.0213	0.1974	1088.4578	0.090037	-497.922292	-497.915251	-497.914307	-497.953698	27.496	
O	 0.109771259	 1.3122237147	-0.013438078	-0.419313
C	 0.0805700855	-0.0377158633	-0.0371261556	 0.435492
C	-0.0238624855	-0.6958611362	-1.2597818753	-0.226805
C	-0.0502106416	-2.0873069536	-1.2340947409	-0.183301
C	 0.0265183938	-2.7494829202	-0.02356515	 0.165393
F	 0.0043654025	-4.0836890696	 0.04292157	-0.068148
C	 0.129172493	-1.996118564	 1.1488112058	 0.315296
O	 0.2045414337	-2.6302970311	 2.3335251705	-0.406996
N	 0.1550383367	-0.6691880803	 1.1344523752	-0.453366
H	 0.1841779885	 1.5688695341	 0.9150685768	 0.298845
H	-0.08115028	-0.1342300313	-2.1821418672	 0.11572
H	-0.1299586016	-2.6673301782	-2.1465391014	 0.12596
H	 0.268684226	-1.9390492511	 3.00648164	 0.301222
140.2603	245.2651	291.0864	349.3539	375.385	452.8384	478.578	488.5562	526.6269	542.1029	601.7925	694.6155	755.8374	771.046	796.0354	834.4846	958.0628	1000.9959	1103.1973	1191.2018	1217.0309	1272.835	1296.6252	1373.6768	1405.9722	1493.8729	1539.9819	1649.4819	1681.4459	3202.4487	3228.2031	3777.0025	3785.6868
OC1=CC=C(F)C(O)=N1	Oc1ccc(F)c(O)n1	
InChI=1S/C5H4FNO2/c6-3-1-2-4(8)7-5(3)9/h1-2H,(H2,7,8,9)	InChI=1S/C5H4FNO2/c6-3-1-2-4(8)7-5(3)9/h1-2H,(H2,7,8,9)
