21
gdb 83697	2.65861	1.51591	1.13244	1.3664	84.09	-0.2335	0.0205	0.254	1151.6533	0.18352	-387.096283	-387.087717	-387.086773	-387.129186	33.548	
C	-0.2231560261	 1.5265314386	 0.0718873783	-0.485409
C	-0.0804711463	 0.0399518049	-0.0060521085	 0.276853
C	-0.0603024167	-0.7307839931	-1.0973166366	-0.189124
C	 0.0797918236	-2.1991070636	-0.7943447213	-0.056678
C	 1.4820229185	-2.8176236918	-1.070782073	-0.222619
C	 1.8832900409	-2.4933036848	 0.3956563658	-0.233368
C	 0.3880698952	-2.1982321483	 0.7363614748	-0.02942
C	 0.037617399	-0.7924671898	 1.267277503	 0.027597
O	 0.9406422235	-0.2589919405	 2.2292274516	-0.429638
H	 0.5838303424	 1.9630591663	 0.6704862298	 0.129258
H	-0.2186094445	 1.9896156102	-0.9183105667	 0.117989
H	-1.1587925064	 1.8032739006	 0.5755392523	 0.126817
H	-0.1421524735	-0.356674425	-2.1143407574	 0.084246
H	-0.7746829838	-2.7827028009	-1.1524285323	 0.070432
H	 1.4278001233	-3.8934026228	-1.2582613968	 0.099725
H	 2.0789581334	-2.3565385721	-1.8623136108	 0.094791
H	 2.3559309323	-3.2972100748	 0.963156994	 0.104854
H	 2.530445783	-1.6131444693	 0.4626607406	 0.083411
H	-0.0728726898	-2.9989294662	 1.3162520177	 0.066149
H	-0.923366326	-0.8059783219	 1.799743287	 0.086186
H	 1.820648618	-0.2630111357	 1.8373709083	 0.277948
96.2034	145.2526	171.9207	238.0226	248.8602	294.8647	355.9966	380.1462	467.2579	568.6432	595.4572	674.5545	736.4066	765.7689	807.1934	869.1812	878.521	893.0054	933.7531	958.3232	991.2702	1035.6082	1038.9149	1062.1856	1065.783	1102.1694	1119.9868	1156.2133	1213.5283	1229.3229	1245.4193	1256.5858	1265.9127	1275.2121	1284.408	1314.4313	1330.6197	1355.6856	1409.0959	1426.6126	1474.0026	1475.1841	1487.5954	1493.277	1714.3115	3010.8099	3021.4941	3043.7377	3048.3897	3056.6129	3074.1531	3093.371	3101.2046	3115.2328	3116.8676	3165.4741	3805.8384
CC1=CC2CCC2C1O	CC1=C[C@H]2CC[C@H]2[C@H]1O	
InChI=1S/C8H12O/c1-5-4-6-2-3-7(6)8(5)9/h4,6-9H,2-3H2,1H3	InChI=1S/C8H12O/c1-5-4-6-2-3-7(6)8(5)9/h4,6-9H,2-3H2,1H3/t6-,7-,8+/m1/s1
