18
gdb 47550	2.67986	1.51756	1.04999	3.5722	71.57	-0.2425	0.0223	0.2649	1115.5716	0.150089	-439.103258	-439.095498	-439.094554	-439.135846	29.818	
O	-0.0269277077	-0.0749885299	 0.3099922058	-0.361728
C	-0.0469394103	 1.1241324453	 0.0958061297	 0.366666
C	-1.3680698122	 1.8412556271	-0.1951805421	-0.336599
C	-1.3598983197	 2.728980896	-1.4232372313	 0.041706
O	-1.9339507042	 4.0380343129	-1.2883727045	-0.259036
C	-0.5197863767	 3.9296473844	-1.4500282396	 0.066569
C	 0.3629805655	 4.2328269469	-0.2569149358	-0.251715
C	 1.5059232708	 3.2225023194	-0.1488867149	-0.14857
N	 1.1167947108	 1.8510821386	 0.1813031599	-0.300784
H	-2.1169592421	 1.052881056	-0.2833876892	 0.133823
H	-1.6359489615	 2.4500074316	 0.6737551521	 0.136105
H	-1.5947919889	 2.2380610442	-2.3667520333	 0.105829
H	-0.1498913328	 4.2829025631	-2.4135150906	 0.095725
H	 0.8024115208	 5.2311516594	-0.3540247687	 0.112902
H	-0.237151771	 4.2381147958	 0.6563388749	 0.125438
H	 2.0699997045	 3.227286595	-1.0947501558	 0.111526
H	 2.2023361626	 3.5597501128	 0.6278475103	 0.116995
H	 1.891924392	 1.2345343614	 0.385344603	 0.245147
86.1204	101.9228	219.6439	293.1255	327.2702	365.8977	462.2298	502.1564	522.0818	591.1855	651.6497	700.6677	788.4658	826.3262	838.3601	901.2948	934.2483	965.261	1012.0963	1039.0968	1076.371	1117.4731	1140.3011	1160.4599	1202.218	1213.777	1271.5167	1295.1487	1316.3726	1343.9592	1359.1083	1392.3508	1414.5498	1468.5693	1483.333	1496.3339	1501.8811	1529.3701	1773.0104	2980.5547	3041.6363	3058.0747	3070.0671	3094.9029	3111.8906	3116.9788	3134.41	3587.7693
O=C1CC2OC2CCN1	O=C1C[C@H]2O[C@H]2CCN1	
InChI=1S/C6H9NO2/c8-6-3-5-4(9-5)1-2-7-6/h4-5H,1-3H2,(H,7,8)	InChI=1S/C6H9NO2/c8-6-3-5-4(9-5)1-2-7-6/h4-5H,1-3H2,(H,7,8)/t4-,5+/m0/s1
