17
gdb 32462	3.20102	1.15656	0.8579	0.6125	71.99	-0.1708	0.0558	0.2266	1285.7819	0.135588	-455.154951	-455.145206	-455.144261	-455.189872	35.086	
N	 0.0557556845	 1.4568128276	-0.1245954937	-0.623567
C	 0.0492038778	 0.0444895911	-0.0345417812	 0.051627
C	-1.0597182009	-0.7666293052	-0.0187350968	 0.250184
O	-2.3872584558	-0.4391027795	 0.0386409642	-0.44166
N	-0.6393449578	-2.0805017465	-0.023936924	-0.309904
C	 0.7331192419	-2.1127787217	-0.0195063795	-0.172441
C	 1.1922633691	-0.815973398	-0.0410783169	 0.233137
C	 2.6209198212	-0.3800104013	-0.0894118509	-0.194026
O	 3.4534338781	-1.5252909203	 0.0250246901	-0.419721
H	 0.7041036551	 1.8686078154	 0.5390224649	 0.236291
H	-0.8671408949	 1.8217667851	 0.0870871422	 0.236672
H	-2.726686737	-0.3220104634	-0.8569931285	 0.300417
H	-1.2536791035	-2.8683686702	 0.0777618204	 0.257482
H	 1.2817179742	-3.0381468074	-0.0001248789	 0.129838
H	 2.8195918873	 0.1612794139	-1.0304857603	 0.099204
H	 2.8295297542	 0.3368447487	 0.72644065	 0.079755
H	 4.3629559666	-1.2440667584	-0.1057211512	 0.286712
33.7342	152.7882	164.8791	178.5909	227.7338	249.77	275.3443	295.5022	304.8169	357.5884	389.445	520.596	621.7866	628.1924	678.2757	712.571	759.6765	769.3788	864.5109	980.9052	1047.4632	1073.1514	1099.6373	1195.9375	1209.1888	1232.6263	1236.5828	1248.4002	1293.5891	1351.6526	1430.5678	1472.462	1509.2258	1518.7371	1580.4884	1647.264	1683.3954	2921.9124	2952.3167	3289.6109	3494.3099	3579.8917	3692.61	3749.596	3839.6925
NC1=C(O)NC=C1CO	Nc1c(O)[nH]cc1CO	
InChI=1S/C5H8N2O2/c6-4-3(2-8)1-7-5(4)9/h1,7-9H,2,6H2	InChI=1S/C5H8N2O2/c6-4-3(2-8)1-7-5(4)9/h1,7-9H,2,6H2
