18
gdb 66773	2.44353	2.16141	1.76962	2.3232	72.81	-0.2185	0.0588	0.2772	869.7913	0.149501	-401.89226	-401.885238	-401.884294	-401.923646	28.36	
O	-0.0845241118	 1.4363185855	 0.011973807	-0.484787
C	-0.0122845791	 0.0554417402	 0.0202830525	 0.361149
C	-1.2451065521	-0.89680998	 0.1170813026	-0.115003
C	-0.456160337	-1.851484104	-0.6932607992	-0.041176
C	 0.5488800038	-0.7987969084	-1.1718422964	-0.10867
C	 2.0158183174	-1.1388337622	-0.8820755551	-0.241472
C	 2.0714928019	-1.2076247435	 0.6786319954	-0.232327
C	 0.6615267603	-0.8118967319	 1.1140832305	-0.023564
N	-0.3693442529	-1.8807437211	 0.8157448412	-0.154916
H	 0.7484409215	 1.7922443045	-0.3163174257	 0.284888
H	-2.3007170379	-0.7697356652	 0.311946192	 0.1012
H	-0.7576481093	-2.7722484197	-1.1774088496	 0.093771
H	 0.3188055292	-0.3993748654	-2.1613522749	 0.073317
H	 2.3161890538	-2.0794251834	-1.3530174661	 0.107215
H	 2.6861849493	-0.3638161601	-1.2715079644	 0.09084
H	 2.316568119	-2.209271252	 1.0439657509	 0.115302
H	 2.820051075	-0.5219454428	 1.0887131521	 0.097851
H	 0.5449841691	-0.4753213906	 2.1452650173	 0.076384
86.1244	171.5781	237.4903	334.2716	403.5184	469.8973	616.1535	662.5542	676.2601	741.8129	763.7098	781.3872	831.3179	880.1911	891.512	892.9026	946.1361	956.4544	986.6945	996.5287	1013.4496	1052.9996	1061.5668	1092.4371	1125.9379	1162.9861	1181.3903	1206.7561	1214.1414	1245.3614	1267.9752	1282.0816	1311.1844	1324.2753	1335.3808	1360.0882	1402.5782	1478.8722	1501.3739	3033.4969	3051.1676	3076.6862	3097.7387	3100.8996	3107.7641	3185.5882	3218.1475	3804.5402
OC12C3C4C1CCC2N34	O[C@@]12[C@H]3[C@H]4[C@@H]1CC[C@@H]2N34	
InChI=1S/C7H9NO/c9-7-3-1-2-4(7)8-5(3)6(7)8/h3-6,9H,1-2H2	InChI=1S/C7H9NO/c9-7-3-1-2-4(7)8-5(3)6(7)8/h3-6,9H,1-2H2/t3-,4-,5+,6+,7-,8?/m0/s1
