22
gdb 92333	2.21385	1.78354	1.14537	1.568	82.19	-0.2124	0.0802	0.2926	1147.7673	0.195163	-404.334293	-404.325587	-404.324642	-404.367368	33.598	
C	-0.414212949	 1.4939324057	 0.0228061092	-0.415244
C	 0.0873891238	 0.054967703	-0.0621431676	 0.014922
C	 1.2391029444	-0.1535843012	-1.0626443541	-0.093097
O	 1.8860475465	-1.3669167719	-0.6778152258	-0.271152
C	 1.7858769513	-1.5130105008	 0.7242602878	 0.098357
C	 2.8041465476	-0.7295557683	 1.5917088787	-0.197659
N	 1.8037089888	 0.340805497	 1.783488406	-0.072743
C	 1.6406401127	 0.8990640773	 3.106036711	-0.32699
C	 0.7193629545	-0.4998003878	 1.2208589838	-0.024682
H	 0.3846234645	 2.1521710803	 0.3770755029	 0.132338
H	-0.7463769651	 1.8564788432	-0.9558253562	 0.113579
H	-1.2618233034	 1.5817369838	 0.7105300381	 0.110817
H	-0.7370702534	-0.6149052787	-0.3392570911	 0.074034
H	 0.9056950234	-0.2699276076	-2.0977256193	 0.103253
H	 1.9381008701	 0.6939493535	-1.0118680239	 0.098969
H	 1.6782928791	-2.5748954586	 0.9498798155	 0.083197
H	 3.0519809494	-1.2688604848	 2.5201365887	 0.083318
H	 3.7315422569	-0.4144885035	 1.1009293498	 0.10485
H	 2.5453604296	 1.4457390899	 3.3934334709	 0.121133
H	 0.8066733454	 1.6084701463	 3.1136959158	 0.120503
H	 1.4462567146	 0.1345496974	 3.8836935446	 0.088099
H	-0.0052117517	-0.8613427741	 1.961797815	 0.054197
94.6709	159.5885	185.5309	216.9787	232.5872	283.7447	307.6018	343.5553	418.7329	501.1573	599.4644	627.4533	759.9911	818.1343	867.3478	871.7131	930.9702	954.151	965.7109	986.8048	999.2557	1023.8044	1072.9132	1108.8552	1123.0291	1154.0008	1169.2573	1181.5374	1199.2363	1222.6288	1228.5083	1257.3623	1268.9355	1307.3475	1322.6435	1332.9304	1353.3225	1368.7878	1399.8367	1409.9515	1452.8535	1485.8571	1497.5189	1498.3351	1507.6132	1508.5477	1511.8007	2915.5506	2972.5678	2998.4351	3016.0026	3028.505	3034.1343	3054.3679	3060.1233	3087.5183	3094.8967	3097.8474	3100.4521	3113.8403
CC1COC2CN(C)C12	C[C@H]1CO[C@H]2CN(C)[C@@H]12	
InChI=1S/C7H13NO/c1-5-4-9-6-3-8(2)7(5)6/h5-7H,3-4H2,1-2H3	InChI=1S/C7H13NO/c1-5-4-9-6-3-8(2)7(5)6/h5-7H,3-4H2,1-2H3/t5-,6-,7-/m0/s1
