20
gdb 28424	2.96395	1.34746	0.94248	1.5936	91.06	-0.2323	-0.0103	0.222	1285.9354	0.170683	-366.098595	-366.08928	-366.088336	-366.132837	34.308	
C	-0.0461561621	 1.5071653258	 0.0415577717	-0.466843
C	-0.0236453514	 0.0016458489	-0.0219523241	 0.312448
C	-0.083412907	-0.6874798687	-1.2304624202	-0.172349
C	-0.0580115786	-2.077719445	-1.2102776267	-0.146834
C	 0.0256774035	-2.7591327436	-0.000910683	 0.235992
C	 0.0550685208	-4.264679661	 0.0525363169	-0.501452
C	 0.0816444852	-1.9772122944	 1.1705491137	 0.245641
C	 0.1736492796	-2.6230842564	 2.5300673342	-0.482368
N	 0.0572762988	-0.6422232932	 1.1516501038	-0.367439
H	 0.8570431697	 1.8829259925	 0.5332537725	 0.136136
H	-0.1123425154	 1.9531415293	-0.9540343179	 0.113733
H	-0.8982269935	 1.8523488908	 0.6361719903	 0.136131
H	-0.1485287327	-0.1469797522	-2.168574923	 0.090809
H	-0.1035136124	-2.637385147	-2.1406189451	 0.094234
H	 0.970421678	-4.6369043196	 0.5277156956	 0.131397
H	-0.7841735341	-4.6674583726	 0.6318982215	 0.131397
H	 0.0028952905	-4.6933554126	-0.9518600324	 0.120882
H	 1.0709859252	-3.2471646494	 2.6194930359	 0.125386
H	 0.2057144177	-1.8486892736	 3.2970815928	 0.137714
H	-0.6845888918	-3.2777546181	 2.7237684136	 0.125386
59.9292	121.5169	125.2692	160.0392	216.4272	286.479	295.732	323.7116	453.2522	463.2974	481.228	576.4509	588.139	719.5263	753.1892	765.923	842.0359	938.7822	971.012	986.188	1015.6722	1042.5291	1046.3447	1059.1473	1076.8421	1148.1717	1190.5855	1270.4031	1280.8009	1306.2177	1396.2507	1407.4368	1418.1799	1424.3322	1474.3738	1475.8626	1477.5634	1481.8868	1492.1978	1497.4012	1500.7061	1614.5356	1635.8588	3024.0117	3025.7285	3038.5713	3072.4277	3074.5067	3098.0093	3109.6844	3121.6825	3145.6031	3161.3139	3188.0744
CC1=CC=C(C)C(C)=N1	Cc1ccc(C)c(C)n1	
InChI=1S/C8H11N/c1-6-4-5-7(2)9-8(6)3/h4-5H,1-3H3	InChI=1S/C8H11N/c1-6-4-5-7(2)9-8(6)3/h4-5H,1-3H3
