15
gdb 13297	5.14946	1.22113	1.09251	3.981	67.61	-0.2447	-0.0062	0.2386	1059.9353	0.119278	-362.676941	-362.669367	-362.668423	-362.709863	26.383	
N	-0.0731066899	-1.0993555506	 0.4958212254	-0.304924
C	-0.0402599256	 0.0154403846	 0.1946325401	 0.264348
C	 0.0150717028	 1.4332321869	-0.1787504812	-0.446734
C	 1.4097164326	 1.9955201254	-0.1224368486	 0.313694
C	 2.0969942239	 2.5697152967	-1.1035760232	-0.20889
C	 3.4373319288	 3.0144494421	-0.5945843738	-0.09923
O	 3.4565477497	 2.6457066634	 0.7823207818	-0.262252
C	 2.2388274485	 2.0031051332	 1.1375168788	-0.149097
H	-0.4018752014	 1.5474220827	-1.1842889118	 0.162327
H	-0.6476752388	 1.9824418651	 0.5041678007	 0.16351
H	 1.7709340567	 2.7105798779	-2.1266954835	 0.110235
H	 4.2685220294	 2.5256132817	-1.1269053526	 0.113811
H	 3.5849989955	 4.1014150334	-0.693634971	 0.110757
H	 1.7450013034	 2.5539595443	 1.9550715891	 0.105679
H	 2.4385867445	 0.9856723633	 1.5080450199	 0.126766
53.486	95.7057	112.7502	250.1542	302.2207	384.0115	429.0007	491.9694	682.6887	775.6096	825.7362	887.0685	923.7975	933.2903	943.1691	990.4897	1029.2681	1064.335	1113.7489	1171.6015	1200.7397	1212.4869	1226.0792	1306.6387	1332.0381	1371.6543	1398.9388	1453.2272	1515.1205	1527.727	1734.3381	2363.8838	2966.8624	2977.3756	2992.2992	2996.0141	3022.3341	3085.5506	3213.7888
N#CCC1=CCOC1	N#CCC1=CCOC1	
InChI=1S/C6H7NO/c7-3-1-6-2-4-8-5-6/h2H,1,4-5H2	InChI=1S/C6H7NO/c7-3-1-6-2-4-8-5-6/h2H,1,4-5H2
