20
gdb 122722	4.16327	0.54118	0.50264	3.8722	78.31	-0.2513	0.0055	0.2568	2180.6275	0.169059	-477.403409	-477.392888	-477.391944	-477.441076	36.328	
O	-0.2831598137	 1.4953253218	 0.1045750085	-0.416054
C	-0.0295443932	 0.1232580989	-0.1041880007	-0.06088
C	-1.315900731	-0.6842856085	-0.165539764	-0.089749
O	-2.0558961264	-0.1806757368	-1.2853310885	-0.221735
C	-3.3532689328	-0.5335266555	-1.3650074301	 0.134478
N	-4.0567414759	-0.1710137255	-2.3422323071	-0.234853
C	-5.4600683648	-0.5476062485	-2.3626705968	-0.159108
C	-6.2945662278	 0.7070657624	-2.639675643	-0.036503
O	-5.8939790578	 1.3310816233	-3.8396276843	-0.421373
H	-0.8573749035	 1.78096483	-0.6153052526	 0.29563
H	 0.5473701703	-0.0510031719	-1.0255122101	 0.105576
H	 0.5732675812	-0.2261542144	 0.7402068353	 0.117482
H	-1.1034706194	-1.75296386	-0.3020091562	 0.111346
H	-1.8927142637	-0.5449463775	 0.757181019	 0.118361
H	-3.7143507746	-1.1425490742	-0.5228896711	 0.084571
H	-5.6148661342	-1.2526339736	-3.1891685764	 0.116708
H	-5.7939689039	-1.0326529708	-1.4301092152	 0.081293
H	-7.3509564051	 0.4376887756	-2.7470715037	 0.102504
H	-6.2090539089	 1.3911653467	-1.7782993107	 0.080815
H	-4.9281528349	 1.3438816285	-3.8117987725	 0.29149
29.2885	44.5298	91.8857	109.4744	166.0527	180.9013	233.7558	274.7888	361.7585	397.9817	416.8668	464.0875	495.0959	571.0297	592.6551	863.4671	891.7624	904.0054	919.9228	988.2173	1047.287	1088.7071	1091.6914	1099.0749	1123.9682	1136.0169	1225.6965	1227.8267	1249.0738	1266.5366	1275.2141	1365.2532	1384.7407	1389.624	1395.7628	1424.0752	1436.4354	1443.7799	1481.7035	1496.1571	1500.9712	1509.9489	1776.0696	2958.2674	2967.669	2992.6036	3003.7093	3016.49	3047.0526	3066.7548	3069.9035	3085.6795	3763.3744	3803.5013
OCCOC=NCCO	OCCOC=NCCO	
InChI=1S/C5H11NO3/c7-2-1-6-5-9-4-3-8/h5,7-8H,1-4H2	InChI=1S/C5H11NO3/c7-2-1-6-5-9-4-3-8/h5,7-8H,1-4H2
