23
gdb 94318	2.57331	1.32157	1.08898	1.6805	86.02	-0.2495	0.074	0.3235	1262.0631	0.203131	-388.283249	-388.273115	-388.27217	-388.317989	38.215	
C	 0.4383930119	 1.6501068526	-0.0480546289	-0.388412
C	 0.0110642534	 0.1905031957	 0.0848453208	-0.086539
C	 0.7501632305	-0.8086600854	-0.8623442721	-0.234436
C	 1.5801012995	-1.3452303568	 0.3427334894	-0.320949
C	 0.655835264	-0.551319932	 1.2715328884	 0.412829
O	 1.0860053238	 0.0935580733	 2.4625569023	-0.328158
C	 0.0706890979	-0.9302196615	 2.5681422004	 0.28662
C	-1.2994604489	-0.4239120442	 2.961790234	-0.45591
C	 0.5222576276	-2.1939435824	 3.2669233026	-0.457116
H	 1.5294062049	 1.7465387412	-0.0352314466	 0.117901
H	 0.0719973865	 2.0775932487	-0.987305693	 0.109413
H	 0.0489641792	 2.2508114175	 0.7793583712	 0.124524
H	-1.0812312275	 0.1198647153	 0.0487405559	 0.067862
H	 0.0874779867	-1.5614916653	-1.2948624619	 0.101094
H	 1.3253414346	-0.3479019309	-1.668800379	 0.100154
H	 1.6089747862	-2.4291533403	 0.4795167242	 0.101777
H	 2.6055067745	-0.9657858473	 0.3658892759	 0.11415
H	-1.5454323228	 0.4997976258	 2.4343214472	 0.127852
H	-2.0692364353	-1.1704805587	 2.7364820543	 0.116684
H	-1.336761889	-0.2217309657	 4.0380086857	 0.123358
H	 0.5310709397	-2.0468463971	 4.3526612453	 0.123356
H	-0.1589894892	-3.0240945486	 3.0489453204	 0.116218
H	 1.5293626017	-2.477530794	 2.9546914135	 0.127728
56.775	133.7708	154.627	184.1059	189.6477	222.4947	238.5007	276.0573	357.8737	377.0816	447.7992	466.1611	538.8941	555.3116	699.1839	736.6851	782.0174	870.0037	879.2088	929.3413	933.5783	945.9552	956.178	990.9467	1026.7087	1066.9683	1111.862	1127.2283	1153.8664	1173.4647	1179.8724	1220.3136	1241.5859	1250.2734	1274.6497	1284.3035	1346.4217	1406.7733	1409.9133	1417.1004	1457.2496	1472.0765	1474.9386	1485.0886	1492.8944	1494.0821	1496.75	1501.1354	1527.4188	3031.2987	3032.0465	3036.1786	3043.6516	3057.5408	3068.1064	3090.8197	3095.6299	3100.0169	3102.3758	3107.5716	3122.5214	3129.3777	3131.7315
CC1CCC11OC1(C)C	C[C@H]1CC[C@]21OC2(C)C	
InChI=1S/C8H14O/c1-6-4-5-8(6)7(2,3)9-8/h6H,4-5H2,1-3H3	InChI=1S/C8H14O/c1-6-4-5-8(6)7(2,3)9-8/h6H,4-5H2,1-3H3/t6-,8+/m0/s1
