17
gdb 10714	2.61569	2.12928	1.42103	2.8396	64.91	-0.238	0.0284	0.2663	915.7846	0.141196	-401.012143	-401.003659	-401.002714	-401.044836	31.498	
C	-0.664734136	 0.4804632954	 0.1863221491	-0.261567
O	 0.6378050152	 0.0252932004	-0.1607137858	-0.297174
C	 0.6595914453	-0.916457509	-1.1967490478	 0.310679
C	 1.5613032378	-2.1113759654	-0.98858351	-0.293801
C	 0.069635342	-2.2897739938	-0.9727060899	-0.310197
C	 0.6219726229	-0.3672142276	-2.60402373	 0.344291
N	 0.7558952548	 0.9890531446	-2.6753722569	-0.537529
O	 0.491538469	-1.0859839239	-3.5783170351	-0.37662
H	-1.1603014549	 0.9757003172	-0.6586053611	 0.121914
H	-1.2994297589	-0.3451215561	 0.5314442421	 0.118216
H	-0.5382263352	 1.1979026032	 1.0003400564	 0.128066
H	 2.1111170285	-2.4670939054	-1.8514776136	 0.136127
H	 2.0849726699	-2.1398593118	-0.0402475252	 0.125334
H	-0.4042345705	-2.4656152626	-0.0139382865	 0.118595
H	-0.3979228427	-2.7557070817	-1.8313264534	 0.145716
H	 1.073767739	 1.4886965505	-1.861231216	 0.267615
H	 0.8998894538	 1.3918552461	-3.5870708364	 0.260335
79.3063	145.0989	176.1587	244.7647	256.3974	262.9734	350.1301	407.2256	467.7018	496.319	549.8141	608.5907	684.4969	764.3661	784.1221	872.2246	933.3011	964.5198	987.2316	1060.7701	1089.2028	1091.0192	1098.2356	1183.0558	1203.2543	1212.9038	1239.9644	1298.9261	1391.0249	1437.4925	1471.5241	1481.31	1489.165	1509.461	1595.3587	1790.5938	3009.4884	3069.2939	3123.106	3145.5068	3146.6972	3237.1771	3250.0661	3591.4953	3727.2038
COC1(CC1)C(N)=O	COC1(CC1)C(=O)N	
InChI=1S/C5H9NO2/c1-8-5(2-3-5)4(6)7/h2-3H2,1H3,(H2,6,7)	InChI=1S/C5H9NO2/c1-8-5(2-3-5)4(6)7/h2-3H2,1H3,(H2,6,7)
