14
gdb 124162	6.51888	0.76434	0.68706	1.2915	76.75	-0.2251	-0.0059	0.2191	1569.2136	0.10157	-432.87594	-432.867401	-432.866456	-432.91191	29.726	
C	-0.0278860991	 1.4178735373	 0.0100182551	-0.510832
C	-0.0014067367	-0.0352357657	 0.0041316392	 0.267295
C	 0.0236364169	-1.2396546055	-0.001060504	-0.046963
C	 0.0342379688	-2.6565280781	-0.0053850835	 0.155317
N	 1.1565034695	-3.3593048193	-0.1133754307	-0.280169
N	 0.6926833068	-4.6417326598	-0.0722843763	-0.252474
C	-0.6468724063	-4.6366233275	 0.0548096274	 0.423105
O	-1.338587079	-5.7773282838	 0.1178535241	-0.424021
N	-1.1145324353	-3.4141096187	 0.101932016	-0.404431
H	 0.9862018459	 1.8298443422	 0.0477063727	 0.1553
H	-0.5144511589	 1.8091702751	-0.8904193013	 0.153709
H	-0.5771527487	 1.800093884	 0.8775184927	 0.153906
H	 1.3254230733	-5.4213249627	-0.1341608959	 0.28754
H	-2.2692446574	-5.5343190973	 0.2066986945	 0.322718
6.0151	86.4447	97.1654	249.6743	298.1657	346.5359	408.7953	419.4843	466.7123	470.6276	519.867	566.7765	733.3584	748.5376	776.2629	968.6499	1050.4945	1052.7323	1055.7864	1088.8643	1145.1629	1193.4576	1319.2509	1390.1173	1411.767	1474.181	1475.2276	1504.3629	1558.4302	1639.6473	2373.5423	3028.1197	3088.2466	3093.907	3675.9796	3801.9059
CC#CC1=NNC(O)=N1	CC#Cc1n[nH]c(O)n1	
InChI=1S/C5H5N3O/c1-2-3-4-6-5(9)8-7-4/h1H3,(H2,6,7,8,9)	InChI=1S/C5H5N3O/c1-2-3-4-6-5(9)8-7-4/h1H3,(H2,6,7,8,9)
