22
gdb 117331	2.74082	0.78695	0.72197	1.5431	80.57	-0.2534	0.0286	0.282	1700.2609	0.191808	-441.499713	-441.48863	-441.487686	-441.537169	39.208	
C	-0.6317757812	 1.2107173417	 0.6953607541	-0.392009
C	-0.1291522944	-0.0908324591	 0.0866315363	 0.159274
C	 0.6852452446	-0.9369061281	 1.0603480272	-0.396361
O	-1.31410091	-0.8165219877	-0.3281875784	-0.261516
C	-1.1972595201	-1.720691364	-1.3220610789	 0.388007
N	-0.0872270821	-1.9502198628	-1.8974325843	-0.531008
C	-2.5366673012	-2.3725100003	-1.5832106824	-0.290993
C	-3.004659143	-3.2422663856	-0.4025298765	-0.058647
O	-4.2432363528	-3.8772732113	-0.6639832752	-0.41372
H	 0.2134603574	 1.8275738871	 1.0146787325	 0.118179
H	-1.2191289872	 1.7787646707	-0.0311783068	 0.120347
H	-1.2618696344	 1.0133181015	 1.568611758	 0.120518
H	 0.4656544995	 0.1059336741	-0.8097048845	 0.111826
H	 1.0229490041	-1.8552249505	 0.5767992293	 0.141907
H	 1.566382952	-0.3797816093	 1.3943872834	 0.114937
H	 0.0870072538	-1.192692649	 1.9411740855	 0.114208
H	-0.203638748	-2.6509994547	-2.625523375	 0.220026
H	-3.2811764751	-1.5855557157	-1.7578422083	 0.110493
H	-2.4801402549	-2.9885051894	-2.4843627579	 0.113346
H	-2.2847545756	-4.049529502	-0.2324796863	 0.119592
H	-3.0391566336	-2.6321992617	 0.5098206438	 0.108465
H	-4.9239543276	-3.1974489938	-0.6947517554	 0.28313
35.3909	64.8969	83.3247	96.215	177.8437	212.8616	224.4823	264.5463	300.0079	312.504	371.2192	407.7793	429.613	482.5953	622.6646	705.2332	787.2788	835.1623	849.9964	897.8918	932.1485	950.8562	981.6357	1022.3342	1056.3312	1081.0074	1106.9566	1143.807	1160.2024	1162.001	1202.9748	1287.3926	1303.3189	1343.965	1372.8843	1392.1937	1399.576	1404.62	1415.5334	1423.1387	1476.1854	1480.8079	1486.6858	1495.9982	1512.4958	1514.2918	1716.1502	3018.2632	3032.157	3038.6854	3042.8606	3074.2381	3078.0371	3106.1869	3106.9465	3117.9101	3120.2341	3139.8152	3515.5087	3816.3007
CC(C)OC(=N)CCO	CC(C)O[C]([NH])CCO	
InChI=1S/C6H13NO2/c1-5(2)9-6(7)3-4-8/h5,7-8H,3-4H2,1-2H3	InChI=1S/C6H13NO2/c1-5(2)9-6(7)3-4-8/h5,7-8H,3-4H2,1-2H3
