15
gdb 5737	3.93917	2.06956	1.38063	1.4328	69.19	-0.1808	0.0544	0.2351	857.1815	0.120425	-362.654437	-362.647394	-362.64645	-362.68696	26.065	
O	 0.0438379969	 1.4049943349	-0.1070643749	-0.44817
C	 0.0511398557	 0.0401846795	-0.0255964561	 0.126309
C	 0.1128927736	-0.838323336	-1.0841763406	 0.280187
C	 0.2339364523	-1.3190959495	-2.5184117899	-0.384575
C	 0.2259232469	-2.7671929418	-1.8874019955	-0.166941
N	 0.0971664928	-2.1094839865	-0.5781424571	 0.018369
C	 0.0344922219	-2.1156984647	 0.7783535702	-0.146178
C	-0.0027725878	-0.774355524	 1.1502428826	-0.267742
H	-0.0055943449	 1.7584484792	 0.7855385638	 0.294369
H	-0.613606653	-1.1091562618	-3.1769690871	 0.121493
H	 1.1593103391	-1.0623338487	-3.0415840917	 0.1221
H	-0.6283523314	-3.3960195712	-2.1546012177	 0.12397
H	 1.1529976847	-3.3350714847	-2.0087115589	 0.124841
H	 0.0097252791	-3.0136777066	 1.3733779881	 0.117822
H	-0.0694162359	-0.4095440677	 2.1658143547	 0.084145
17.3537	200.8758	210.3014	292.7686	341.1745	530.0843	601.5498	640.112	644.5632	679.7979	721.3161	740.7907	810.7954	841.0993	907.9461	1040.4063	1056.4413	1078.636	1091.3279	1139.5324	1179.2868	1223.9882	1245.5515	1270.1253	1305.5389	1352.4369	1429.7381	1455.1998	1479.8242	1499.1655	1524.0532	1669.1736	3048.7448	3056.0143	3090.887	3106.4822	3224.3907	3269.2808	3843.7318
OC1=C2CCN2C=C1	Oc1c2CCn2cc1	
InChI=1S/C6H7NO/c8-6-2-4-7-3-1-5(6)7/h2,4,8H,1,3H2	InChI=1S/C6H7NO/c8-6-2-4-7-3-1-5(6)7/h2,4,8H,1,3H2
