17
gdb 48774	2.91979	1.50675	1.27074	3.059	72.46	-0.252	-0.0215	0.2305	1020.4348	0.136497	-421.816788	-421.809531	-421.808587	-421.848489	28.541	
O	-0.1343742021	-0.0044751154	 0.084973817	-0.275329
C	-0.0061861529	 1.184068576	-0.0930592355	 0.076936
C	 1.2768185243	 1.9041507272	-0.0645145048	 0.239848
C	 1.310324599	 3.380638663	 0.3209020786	-0.325074
C	 1.5840424847	 3.0164191074	-1.0951920481	-0.093565
C	 3.0205543948	 2.8127074927	-1.5882390111	-0.264342
C	 3.5977664292	 1.6694447009	-0.7631434865	 0.043581
O	 3.6456718712	 1.9123043753	 0.6499035238	-0.260117
C	 2.5601205066	 1.1310101575	 0.1296597891	-0.048803
H	-0.8879135255	 1.833995722	-0.3030884724	 0.066468
H	 0.3543899087	 3.8464717661	 0.5385923641	 0.120968
H	 2.1316962378	 3.6718470916	 0.9631538781	 0.152049
H	 0.8294519971	 3.2724531983	-1.8316369159	 0.102429
H	 3.0118600329	 2.5215556421	-2.6442248888	 0.116022
H	 3.6259168674	 3.7215696745	-1.503902871	 0.124836
H	 4.4214232307	 1.0776146708	-1.1554995186	 0.103568
H	 2.502701876	 0.0994612297	 0.4585685518	 0.120526
102.1604	190.6557	237.6449	276.2005	346.716	413.6473	456.3238	555.307	644.3872	697.2131	758.8623	792.1687	817.7688	859.7029	880.3377	901.8503	958.4655	967.9214	1004.2913	1043.2484	1071.9382	1086.3084	1095.2675	1108.4528	1123.3994	1211.6335	1238.2552	1263.877	1279.4195	1301.0472	1351.1396	1401.0019	1426.0087	1437.8046	1470.7202	1479.2614	1803.7729	2855.874	3046.674	3086.7744	3136.5406	3143.0149	3164.8995	3189.0137	3238.138
O=CC12CC1CC1OC21	O=C[C@]12C[C@H]1C[C@H]1O[C@@H]21	
InChI=1S/C7H8O2/c8-3-7-2-4(7)1-5-6(7)9-5/h3-6H,1-2H2	InChI=1S/C7H8O2/c8-3-7-2-4(7)1-5-6(7)9-5/h3-6H,1-2H2/t4-,5-,6-,7-/m1/s1
