17
gdb 23570	3.00605	1.53104	1.32901	1.9868	74.9	-0.2424	0.0136	0.256	999.1063	0.137805	-417.894771	-417.887718	-417.886774	-417.9261	28.777	
O	-0.1000048308	 1.3676879956	-0.0346267055	-0.398655
N	 0.0541229838	-0.0364326837	-0.0237454688	-0.319657
C	-1.0604057702	-0.6165721902	 0.046085729	 0.52247
C	-2.5543938423	-0.3346257489	 0.0336539575	-0.110117
N	-2.5872345972	-1.52916937	-0.906347682	-0.323587
C	-1.5011904989	-2.0642058791	 0.0135569463	-0.100365
C	-2.2194619246	-2.2241489145	 1.3811898375	-0.057547
C	-1.9632989129	-1.1947084103	 2.4553623844	-0.2965
C	-3.0064901297	-0.9211603461	 1.3981751254	-0.052593
H	 0.8115284265	 1.6665212044	-0.1236640561	 0.306802
H	-2.9859169418	 0.6015436608	-0.311572259	 0.096168
H	-3.455525128	-2.0583172223	-0.7918919105	 0.208741
H	-0.873689197	-2.8740737715	-0.3527516809	 0.089609
H	-2.6572924779	-3.1831542022	 1.6327126716	 0.094523
H	-2.337475171	-1.4325754852	 3.4467382275	 0.110295
H	-1.0343142357	-0.634917803	 2.4551150425	 0.135669
H	-4.0552112723	-0.8672237238	 1.6664001213	 0.094743
113.4766	193.9191	289.0826	355.5899	377.7657	430.3181	498.8979	575.6747	666.0797	694.1663	771.7811	773.5537	802.6072	819.911	859.5202	873.4678	918.7525	957.9312	968.6625	1008.6662	1035.0164	1068.231	1087.3541	1098.4295	1111.1176	1139.7631	1150.2738	1184.2533	1209.8151	1252.8056	1264.8703	1288.2119	1333.298	1359.3079	1415.5161	1484.8593	1831.3053	3125.0474	3147.2387	3157.6928	3174.7427	3182.767	3210.468	3410.9451	3816.2274
ON=C1C2NC1C1CC21	ON=C1[C@H]2N[C@@H]1[C@H]1C[C@@H]21	
InChI=1S/C6H8N2O/c9-8-6-4-2-1-3(2)5(6)7-4/h2-5,7,9H,1H2	InChI=1S/C6H8N2O/c9-8-6-4-2-1-3(2)5(6)7-4/h2-5,7,9H,1H2/t2-,3+,4+,5-
