21
gdb 111626	2.11613	1.4981	1.12661	1.823	83.76	-0.2238	0.0218	0.2456	1194.4879	0.183026	-387.088982	-387.080025	-387.079081	-387.122631	34.312	
C	 0.1053435416	 1.4958556002	 0.1216788613	-0.498528
C	 0.0512702837	 0.0018655718	 0.0334494448	 0.337451
C	-0.0307657636	-0.7410311475	-1.0771338589	-0.17734
C	-0.091909573	-2.2240421293	-0.7839190372	-0.274807
C	 0.044779199	-2.2981348806	 0.7405800521	-0.081086
C	 1.3034056914	-1.802342895	 1.4082224268	-0.038587
C	 2.6250010329	-1.5952556511	 0.7106475696	-0.086911
O	 3.4784668814	-0.7159432578	 1.4358666916	-0.423084
C	 0.1030436479	-0.8659566763	 1.2521879395	-0.165977
H	 1.0363615585	 1.8400834415	 0.5911567271	 0.11809
H	 0.0332482179	 1.9607252226	-0.8651098297	 0.125946
H	-0.7127779888	 1.8848185239	 0.741155089	 0.127594
H	-0.0306043884	-0.345401749	-2.0875888892	 0.08578
H	-1.0462840205	-2.6582812132	-1.1109018153	 0.106753
H	 0.6911875432	-2.7863551011	-1.3096143123	 0.109432
H	-0.5297340418	-3.051079872	 1.2676162261	 0.085067
H	 1.4315243413	-2.1668412522	 2.4251758919	 0.091109
H	 3.166435706	-2.5462824912	 0.6553519154	 0.10681
H	 2.475111632	-1.2421276116	-0.3180968459	 0.092956
H	 2.9956777681	 0.1081726668	 1.5567188618	 0.278457
H	-0.4121386489	-0.5466643689	 2.1531507616	 0.080874
72.7158	116.7167	177.3693	195.0547	243.3282	282.8342	313.2345	341.9856	431.5988	508.4459	587.6188	615.3659	717.4065	776.9407	803.3006	818.5146	863.8709	920.1476	946.8749	961.4907	995.8221	1021.6175	1031.9966	1053.7383	1061.0747	1079.0287	1098.0263	1112.8908	1182.2164	1186.7562	1199.3922	1243.1825	1272.4332	1313.9109	1346.1839	1368.1271	1376.8375	1410.2234	1415.4472	1444.1375	1478.1512	1486.4753	1488.3491	1504.6413	1704.3657	3012.2609	3014.0345	3016.4301	3036.5803	3058.0721	3065.428	3111.5849	3131.8482	3151.0359	3173.9807	3184.6119	3813.2514
CC1=CCC2C(CO)C12	CC1=CC[C@H]2[C@@H](CO)[C@@H]12	
InChI=1S/C8H12O/c1-5-2-3-6-7(4-9)8(5)6/h2,6-9H,3-4H2,1H3	InChI=1S/C8H12O/c1-5-2-3-6-7(4-9)8(5)6/h2,6-9H,3-4H2,1H3/t6-,7+,8-/m0/s1
