17
gdb 54229	2.20088	1.63495	1.36939	8.3578	72.8	-0.2068	-0.0331	0.1737	1021.5826	0.13473	-455.162074	-455.153184	-455.15224	-455.195605	32.863	
C	-0.1266054402	 1.6151202339	 0.3317276638	-0.456925
C	 0.0644206832	 0.1360950723	 0.0146451656	 0.082175
C	 0.825756153	-0.2382422898	-1.2930489146	-0.2118
N	 1.8573093331	-0.8656433095	-0.4003433757	-0.334482
C	 1.1303342012	-0.6256435801	 0.6950882784	 0.473572
N	 1.1585055465	-1.0224792783	 1.9470274591	-0.54033
H	 1.7613903812	-1.7741322853	 2.2494782207	 0.268734
H	 0.1773554046	-0.9525045637	 2.3081030156	 0.310134
C	-1.3298098844	-0.6477832439	 0.3330720366	 0.347168
O	-2.0106517095	-0.9163733512	-0.6463844847	-0.418732
O	-1.4715827224	-0.8171559354	 1.567406594	-0.476407
H	 0.8030480433	 2.1850390477	 0.2227372156	 0.108887
H	-0.8713955211	 2.0337804667	-0.3513666483	 0.146827
H	-0.4993069661	 1.7313736587	 1.3515805583	 0.149389
H	 0.2875196781	-0.9650772969	-1.9023529623	 0.161768
H	 1.2280478285	 0.5785720514	-1.895143153	 0.125008
H	 2.499576401	-1.6251809167	-0.5828016192	 0.265014
66.818	135.5	197.1644	204.4438	229.3576	243.134	293.9063	386.0973	398.2155	528.4006	546.6754	596.0487	691.9591	758.9009	761.3115	791.5536	807.5572	837.7449	897.6678	942.5786	985.6773	1071.8282	1130.1368	1150.6409	1179.3835	1212.1098	1256.6345	1268.8786	1342.25	1398.2827	1462.0574	1488.1893	1495.4333	1500.3466	1559.5132	1739.045	1823.5992	3031.7782	3054.084	3080.5691	3103.3522	3134.836	3155.7784	3580.8798	3619.2816
CC1(CNC1=[NH2+])C([O-])=O	C[C@]1(CN[C]1N)C(=O)[O]	
InChI=1S/C5H8N2O2/c1-5(4(8)9)2-7-3(5)6/h2H2,1H3,(H2,6,7)(H,8,9)	InChI=1S/C5H8N2O2/c1-5(4(8)9)2-7-3(5)6/h7H,2,6H2,1H3/t5-/m1/s1
