20
gdb 52582	2.06536	1.05865	0.72937	4.1103	88.55	-0.2649	0.0218	0.2867	1593.3376	0.167859	-366.013081	-366.001967	-366.001022	-366.051164	38.299	
C	-0.0553389933	 1.5097259398	 0.0507238456	-0.501517
C	-0.0060732199	 0.0553271938	 0.0226359988	 0.132333
C	 0.0276152195	-1.1471883272	 0.0068563713	 0.045659
C	 0.0619479627	-2.6112351549	-0.0236569903	-0.320082
C	-1.3073921565	-3.1428486642	 0.0966556393	 0.291672
N	-2.376622883	-3.5723046751	 0.1815312001	-0.334701
C	 0.7767303147	-3.1860067277	-1.2933689877	 0.037409
C	 2.2097985756	-2.651659452	-1.3803083323	-0.401302
C	 0.753071688	-4.7184406045	-1.2892491125	-0.410508
H	 0.7365518696	 1.9213929572	 0.685525221	 0.153083
H	 0.0676366319	 1.9305619179	-0.9528722811	 0.153653
H	-1.0151610131	 1.8611206957	 0.4440586964	 0.159058
H	 0.6179127075	-2.9741679051	 0.854011399	 0.14542
H	 0.2117004818	-2.8241322756	-2.1603630889	 0.101475
H	 2.807250272	-2.9930360528	-0.5263334811	 0.115127
H	 2.6939525026	-3.0179403926	-2.2903838789	 0.119303
H	 2.2317557618	-1.5595599499	-1.3951508638	 0.132242
H	-0.2664314248	-5.1111254697	-1.2550606027	 0.145948
H	 1.2348229358	-5.1048398036	-2.1921978321	 0.119346
H	 1.299970127	-5.1167110397	-0.4261483603	 0.116383
15.5851	60.2134	81.0032	117.9031	154.2253	220.3285	239.2026	270.1799	282.3722	339.7773	356.5598	393.1497	417.1029	477.5092	533.6526	563.0089	791.0051	850.1301	914.8783	937.9264	964.6008	988.1942	1052.3989	1053.5674	1121.038	1135.8906	1179.2416	1187.6402	1264.7849	1312.2768	1352.7324	1356.4067	1403.0552	1414.283	1424.0107	1476.4738	1476.9228	1488.0266	1490.945	1502.5238	1511.5584	2359.0175	2377.4544	2996.0195	3030.0333	3031.4289	3032.2703	3044.694	3094.3282	3095.558	3096.8068	3103.9324	3121.5515	3126.0229
CC#CC(C#N)C(C)C	CC#C[C@@H](C#N)C(C)C	
InChI=1S/C8H11N/c1-4-5-8(6-9)7(2)3/h7-8H,1-3H3	InChI=1S/C8H11N/c1-4-5-8(6-9)7(2)3/h7-8H,1-3H3/t8-/m0/s1
