22
gdb 58257	2.60588	1.08673	0.90027	2.5633	78.38	-0.2429	0.0552	0.2981	1392.9335	0.192284	-441.457858	-441.447252	-441.446308	-441.493725	39.073	
C	 1.0636115231	 0.7581177799	-0.6149494471	-0.404778
C	-0.0814628416	 0.3639504485	 0.3085256697	 0.095608
O	-1.1074775822	-0.3613733491	-0.3875230667	-0.449063
C	 0.33533932	-0.4310184283	 1.5630539931	 0.136666
O	-0.8323531532	-0.749094248	 2.30655848	-0.445141
C	 1.1186498836	-1.6930088121	 1.2514920037	-0.053669
N	 2.5883884968	-1.5806935205	 1.1629456785	-0.344797
C	 1.9837787479	-2.3760968419	 2.2485574274	 0.004124
C	 2.1899427145	-1.9023881457	 3.6669137115	-0.39078
H	 1.5529676083	-0.1246004436	-1.0411061291	 0.111396
H	 0.6904885812	 1.3775969078	-1.4353286433	 0.121491
H	 1.8290243784	 1.317378965	-0.0697707138	 0.134474
H	-0.591995304	 1.2644664746	 0.6685015409	 0.095337
H	-0.6782622818	-1.0121363509	-0.9533639086	 0.283426
H	 0.9526609522	 0.2199808043	 2.1900380434	 0.086424
H	-1.4989278777	-0.9781077696	 1.6442036159	 0.283205
H	 0.6218895942	-2.3543157892	 0.5394238244	 0.059674
H	 2.9524068491	-2.1862541778	 0.4324827727	 0.226928
H	 2.0357431927	-3.4588735713	 2.1353604985	 0.079631
H	 2.2161665435	-0.8125827953	 3.7243600624	 0.127732
H	 1.3836080048	-2.2625965337	 4.3135196743	 0.128357
H	 3.1401992603	-2.278826273	 4.0605367324	 0.113754
46.2717	81.2806	116.5151	169.1001	193.8527	232.7856	270.159	283.3255	296.7665	357.385	400.6477	417.3559	496.5829	513.3025	575.1126	631.0045	786.5416	826.7741	856.1536	903.7466	946.575	964.6871	1009.8483	1015.8307	1044.3381	1074.1734	1092.6003	1097.8663	1139.9099	1162.6834	1206.327	1249.2412	1257.9466	1275.4802	1290.4171	1320.5887	1349.5644	1404.736	1410.98	1421.505	1423.7559	1436.179	1470.1467	1485.8206	1491.3761	1493.6152	1503.8148	3037.8501	3040.3104	3047.3467	3066.1974	3084.8045	3101.4067	3104.634	3107.3062	3123.3691	3136.179	3502.8757	3748.4357	3807.5056
CC(O)C(O)C1NC1C	C[C@@H](O)[C@@H](O)[C@H]1N[C@H]1C	
InChI=1S/C6H13NO2/c1-3-5(7-3)6(9)4(2)8/h3-9H,1-2H3	InChI=1S/C6H13NO2/c1-3-5(7-3)6(9)4(2)8/h3-9H,1-2H3/t3-,4+,5-,6+/m0/s1
