21
gdb 106616	2.30048	1.55767	1.1539	2.9463	77.91	-0.23	0.067	0.297	1144.7427	0.182856	-424.197253	-424.188495	-424.187551	-424.230448	33.925	
C	-0.1733051628	 1.5519250515	-0.0195729786	-0.440025
C	 0.0108685556	 0.0399132902	 0.0159753008	-0.019935
C	 1.1483092677	-0.601700098	-0.8303205592	 0.09271
C	 2.1368439229	-0.2344189005	 0.3004585787	-0.282074
C	 0.883029191	-0.5868821528	 1.1690946397	 0.307771
C	 0.7341039673	-0.2016580938	 2.6157841751	-0.210582
O	 1.725519949	-0.9002570765	 3.3594350924	-0.423163
C	 0.7414648238	-2.0730286961	 0.7994776931	-0.112976
O	 0.9360038164	-2.0086578776	-0.6339948357	-0.28478
H	 0.7579611454	 2.1083497469	 0.1158640784	 0.119054
H	-0.6012788307	 1.8582782585	-0.9803826401	 0.120726
H	-0.8681371985	 1.8776858741	 0.7625486155	 0.117618
H	-0.9573217166	-0.4510459136	-0.134066797	 0.07056
H	 1.3119283574	-0.3954776798	-1.8876155798	 0.073089
H	 3.0226877713	-0.8635273415	 0.4048847986	 0.106603
H	 2.4091664997	 0.8197848502	 0.3406295046	 0.098406
H	 0.847926588	 0.888208008	 2.7266378405	 0.087817
H	-0.2807827148	-0.461093361	 2.9631581627	 0.085553
H	 1.6409051028	-0.6505707207	 4.2841537658	 0.289628
H	 1.5055024317	-2.7051712116	 1.2617680477	 0.113112
H	-0.2513785766	-2.4809413758	 1.0280752467	 0.090886
85.885	146.8808	183.6033	228.4778	255.3539	267.3165	332.0228	363.1746	447.4982	486.7106	534.8036	617.7945	689.4817	793.7137	828.4345	883.4453	913.7486	938.5355	949.5084	973.8252	1000.8955	1031.604	1064.5324	1067.6436	1101.3069	1114.0144	1133.7923	1169.616	1187.6507	1191.1014	1229.3912	1231.7081	1251.515	1280.258	1292.986	1308.5789	1370.1801	1388.9172	1411.5012	1466.5343	1489.5057	1496.7483	1506.5485	1518.9248	1530.7611	2953.7011	2989.4914	3019.9819	3031.8009	3041.9785	3078.7322	3084.2926	3088.6321	3110.3708	3128.4855	3149.5299	3831.1204
CC1C2CC1(CO)CO2	C[C@H]1[C@H]2C[C@]1(CO)CO2	
InChI=1S/C7H12O2/c1-5-6-2-7(5,3-8)4-9-6/h5-6,8H,2-4H2,1H3	InChI=1S/C7H12O2/c1-5-6-2-7(5,3-8)4-9-6/h5-6,8H,2-4H2,1H3/t5-,6+,7-/m0/s1
