13
gdb 7713	3.61716	2.0469	1.36771	3.5764	56.53	-0.2894	-0.0155	0.2739	837.397	0.096783	-435.79097	-435.784368	-435.783424	-435.822248	23.983	
N	-0.1355655862	 1.3195404763	-0.227052151	-0.489653
C	-0.0760902385	 0.0961659102	 0.0551277828	 0.410536
C	-1.2162365542	-0.864549219	-0.0853976088	-0.299928
C	-1.1634476744	-1.8354070679	 1.0816646591	-0.087867
O	 0.114403996	-2.4934555437	 1.1086586324	-0.242711
C	 1.2374660467	-1.788112129	 0.9079071346	 0.482112
O	 2.321348804	-2.2555531248	 1.0501824405	-0.337794
O	 1.0989256081	-0.4687690402	 0.5382531052	-0.258851
H	 0.7627538685	 1.7772378471	-0.0600177188	 0.240233
H	-2.1522067215	-0.3059463459	-0.1164094124	 0.154459
H	-1.1155535982	-1.4211217082	-1.024957806	 0.149392
H	-1.3216144361	-1.3223095494	 2.0375609118	 0.13704
H	-1.8972422444	-2.6367192756	 0.9891101606	 0.143033
93.46	118.345	239.0799	375.0513	453.2648	477.0933	550.5938	599.3843	704.1662	758.0585	784.1684	904.7156	927.3143	947.1478	982.7076	1080.8056	1091.4929	1116.4221	1157.5858	1220.2476	1272.2536	1333.1317	1366.2627	1417.8663	1463.7052	1517.0415	1784.1503	1905.7199	3041.9535	3053.1121	3130.8948	3139.9337	3475.8468
N=C1CCOC(=O)O1	[NH][C]1CCOC(=O)O1	
InChI=1S/C4H5NO3/c5-3-1-2-7-4(6)8-3/h5H,1-2H2	InChI=1S/C4H5NO3/c5-3-1-2-7-4(6)8-3/h5H,1-2H2
