14
gdb 125350	3.4335	1.7271	1.1574	4.8556	69.05	-0.2282	-0.0278	0.2004	981.7435	0.103158	-432.871	-432.864235	-432.863291	-432.902209	25.559	
C	-0.0200213458	 1.5396051189	 0.0351554509	-0.500269
C	-0.0112205098	 0.0535115783	-0.0246982532	 0.23876
C	-0.0342497936	-0.8465912301	-1.063345007	-0.148662
N	-0.0131779957	-2.1798242926	-0.6542177847	-0.398581
C	 0.023114673	-2.0642097281	 0.6354081545	 0.524821
O	 0.0591606616	-2.9051009864	 1.6842342302	-0.244655
N	 0.0873297997	-2.113960351	 2.8596964223	-0.12406
C	 0.0674200064	-0.8762288372	 2.4666225188	 0.036606
N	 0.0273771326	-0.7723205534	 1.1033057765	-0.104886
H	 0.8777383785	 1.9420269184	 0.5205093856	 0.135138
H	-0.0550200833	 1.9419129962	-0.9798951875	 0.149456
H	-0.8910916415	 1.9291979994	 0.5763669254	 0.135067
H	-0.0661929336	-0.6028815012	-2.1153366863	 0.122742
H	 0.0814369816	-0.0491827111	 3.1585027945	 0.178524
156.1713	187.2708	223.9512	240.6516	363.216	538.5694	596.869	616.6188	618.3925	715.4879	747.7222	813.8943	854.4621	862.2916	888.3455	975.9292	1008.2994	1068.2563	1098.738	1173.2458	1219.0536	1267.0198	1290.5553	1365.4385	1423.333	1435.685	1477.7899	1496.6523	1583.4666	1587.3188	1653.0484	3019.1944	3064.882	3125.1309	3245.732	3278.4696
CC1=CN=C2ON=CN12	Cc1cnc2oncn12	
InChI=1S/C5H5N3O/c1-4-2-6-5-8(4)3-7-9-5/h2-3H,1H3	InChI=1S/C5H5N3O/c1-4-2-6-5-8(4)3-7-9-5/h2-3H,1H3
