16
gdb 18620	2.97888	2.31677	1.81639	4.7874	64.16	-0.2469	0.0372	0.284	790.2123	0.132309	-379.942109	-379.934941	-379.933996	-379.973438	26.87	
C	-0.0535033875	 1.5402634043	 0.049434221	-0.42077
C	 0.0087906768	 0.0388713804	-0.1048038895	 0.004944
C	 0.7145075466	-0.6669253564	-1.2062870469	-0.048368
C	 1.7368369268	 0.0747184371	-2.0696011199	-0.198156
N	 2.7412878671	 0.4211310169	-1.0856812974	-0.306063
C	 2.4410313312	 0.0437415535	 0.2018552933	 0.398027
O	 3.0727071065	 0.3048600839	 1.1932657912	-0.367945
N	 1.2389595065	-0.7540839028	 0.1727152424	-0.165482
H	 0.7976217677	 2.0521938772	-0.4042220124	 0.132698
H	-0.9681504071	 1.9173683968	-0.4197137468	 0.12419
H	-0.0820199704	 1.8126124983	 1.1089906693	 0.146367
H	-0.8690475497	-0.4697411316	 0.289267397	 0.104808
H	 0.2917740908	-1.5793248583	-1.6149845843	 0.104584
H	 2.1343773553	-0.5905653647	-2.8454848254	 0.120154
H	 1.3178112757	 0.9590133971	-2.5691899617	 0.114662
H	 3.5335091137	 1.0144885481	-1.2677972399	 0.256352
107.45	163.5793	197.5396	224.1145	384.1494	431.4859	498.5259	524.2328	666.4592	707.6402	764.2921	797.0163	817.896	877.4778	954.7939	988.058	1001.4934	1064.8207	1090.2626	1111.7398	1140.4159	1166.2497	1217.1772	1224.7384	1298.8145	1333.6713	1373.4888	1419.1498	1431.3135	1445.7104	1491.9169	1498.4727	1536.5539	1857.9129	3005.7394	3040.526	3044.1988	3106.2044	3117.7788	3136.5705	3157.6369	3659.7223
CC1C2CNC(=O)N12	C[C@H]1[C@H]2CNC(=O)N12	
InChI=1S/C5H8N2O/c1-3-4-2-6-5(8)7(3)4/h3-4H,2H2,1H3,(H,6,8)	InChI=1S/C5H8N2O/c1-3-4-2-6-5(8)7(3)4/h3-4H,2H2,1H3,(H,6,8)/t3-,4+,7?/m0/s1
