21
gdb 100993	2.90105	1.15183	0.9885	3.1074	73.91	-0.2506	0.0646	0.3153	1276.1929	0.181553	-461.344192	-461.33463	-461.333686	-461.378491	36.161	
C	-0.0373476814	 1.6449236462	-0.095600152	-0.455708
C	-0.0273285167	 0.1244340667	-0.0554515068	 0.405823
C	 0.7458012694	-0.5591660808	-1.2141381273	-0.322473
C	 1.7941032492	-0.9007683688	-0.1422590323	-0.07553
O	 0.9554415058	-0.3740066747	 0.914881141	-0.341607
C	-1.3932726886	-0.4967261141	 0.2661438877	 0.047595
O	-1.2403442227	-1.8980977175	 0.4894762672	-0.451612
C	-2.0974996096	 0.1131907926	 1.4876207168	-0.078426
O	-3.2489761623	-0.6352803267	 1.8114844946	-0.427687
H	 0.945736026	 2.0250792941	-0.3874816384	 0.120365
H	-0.7728339767	 2.0076749622	-0.8223880105	 0.123341
H	-0.2824419523	 2.0638247277	 0.8838781751	 0.137703
H	 0.2331190073	-1.4280236568	-1.6266506917	 0.127636
H	 1.0698400187	 0.1019750489	-2.0192096466	 0.107608
H	 2.0147185993	-1.9633649499	 0.0046847293	 0.109279
H	 2.7380857915	-0.3478549103	-0.213911192	 0.108737
H	-2.0474220047	-0.4006371558	-0.609116986	 0.094609
H	-0.472739273	-1.9654563175	 1.0775313344	 0.289161
H	-1.3853486585	 0.1506863612	 2.3303970251	 0.091762
H	-2.4228618495	 1.1373803057	 1.2804552658	 0.104418
H	-2.9872931513	-1.5582319524	 1.6922956466	 0.285006
81.3911	98.3746	134.3011	189.4814	235.8063	280.8483	311.4935	335.0577	367.6492	401.4999	479.9579	513.0993	560.6455	617.2495	734.7878	778.6374	851.1699	876.8786	903.2901	940.4757	965.8151	993.3814	1015.1797	1068.3612	1080.8184	1103.7208	1129.9866	1166.8643	1209.1046	1210.6045	1224.9234	1251.7793	1276.2837	1305.3291	1313.0416	1351.3028	1384.5716	1410.6461	1433.1155	1446.8441	1478.5245	1486.1318	1497.5598	1512.1147	1528.6726	2956.9038	3026.3723	3036.9128	3045.253	3071.2684	3078.5331	3086.6707	3107.1272	3121.9875	3148.4151	3718.9672	3757.3233
CC1(CCO1)C(O)CO	C[C@]1(CCO1)[C@@H](O)CO	
InChI=1S/C6H12O3/c1-6(2-3-9-6)5(8)4-7/h5,7-8H,2-4H2,1H3	InChI=1S/C6H12O3/c1-6(2-3-9-6)5(8)4-7/h5,7-8H,2-4H2,1H3/t5-,6-/m0/s1
