13
gdb 124354	2.87932	1.63873	1.0511	2.9428	61.79	-0.2732	-0.0615	0.2117	1040.9095	0.088652	-486.085684	-486.077755	-486.076811	-486.11881	27.837	
C	-0.0269990951	 1.5327667088	-0.0848838959	-0.488181
C	-0.0219875512	 0.0347415775	 0.0923888965	 0.42498
O	-0.0363662027	-0.5449161443	 1.1415584448	-0.268766
N	 0.0021675401	-0.7047973584	-1.1293049956	-0.161062
N	 0.0191041994	-0.0674333313	-2.3498448112	-0.110109
N	 0.039027925	-0.9415527739	-3.2631625784	-0.05106
N	 0.0357848833	-2.16524199	-2.685864993	-0.316132
C	 0.0123737583	-2.1108256602	-1.2972941073	 0.546771
O	 0.0038520978	-3.0072630729	-0.5005983064	-0.360028
H	 0.8589613171	 1.8609386001	-0.6348639678	 0.164434
H	-0.8966858919	 1.851617742	-0.6654377164	 0.164441
H	-0.0465801302	 1.9846440997	 0.9059620917	 0.154528
H	 0.0497379901	-2.9969969671	-3.2525822009	 0.300184
65.7035	130.5746	146.3726	194.5846	244.8103	343.9287	460.9991	490.5784	526.5116	581.365	656.9809	701.9378	755.324	765.84	943.3886	967.837	1043.0456	1058.8123	1107.5597	1176.5762	1229.791	1329.6094	1377.2933	1397.2689	1459.3991	1471.2112	1513.719	1827.4911	1902.6894	3062.163	3128.9774	3173.6121	3677.9726
CC(=O)N1N=NNC1=O	CC(=O)n1nn[nH]c1=O	
InChI=1S/C3H4N4O2/c1-2(8)7-3(9)4-5-6-7/h1H3,(H,4,6,9)	InChI=1S/C3H4N4O2/c1-2(8)7-3(9)4-5-6-7/h1H3,(H,4,6,9)
