23
gdb 109374	2.19969	1.34029	0.88587	1.3849	88.39	-0.2228	0.0358	0.2586	1374.3466	0.206687	-388.310167	-388.300658	-388.299714	-388.344264	36.472	
C	-0.0301408977	 1.5645669366	-0.0188026651	-0.405799
C	 0.0454982138	 0.0278202053	 0.0501653786	-0.057083
C	 0.6316024783	-0.5298876988	-1.2584266246	-0.189603
C	 0.9570384793	-2.0210475058	-1.1538885148	-0.215383
C	 2.0023368345	-2.2593280688	-0.0577109572	-0.245945
C	 1.6874085736	-1.4867600029	 1.1952030643	-0.139472
C	 0.8133033778	-0.4799861902	 1.2623655755	 0.279374
C	 0.4964284697	 0.192063791	 2.5765694646	-0.157212
O	 1.0783452652	-0.5155783044	 3.6572840202	-0.415601
H	 0.9724174997	 2.0060151049	-0.0517842993	 0.116245
H	-0.5610890774	 1.8750467634	-0.924951526	 0.110373
H	-0.56124157	 1.9965090213	 0.8345014315	 0.111885
H	-0.9907461089	-0.3382933825	 0.1414069432	 0.076726
H	-0.069501518	-0.3388628244	-2.079323384	 0.086439
H	 1.5507119954	 0.0230402306	-1.498377786	 0.091793
H	 0.0417287773	-2.5756655453	-0.9091535781	 0.095624
H	 1.3125204039	-2.4075421412	-2.1153097214	 0.087131
H	 2.0706763363	-3.328648116	 0.1795823387	 0.098517
H	 3.002468097	-1.9800481995	-0.4237654305	 0.101977
H	 2.1934607745	-1.7895347849	 2.1061881777	 0.100679
H	 0.8556482761	 1.2343668744	 2.5569453848	 0.094712
H	-0.602076876	 0.2497087436	 2.689360312	 0.087901
H	 0.9852267958	 0.0237621135	 4.4470132258	 0.286722
73.9131	115.9052	199.0212	224.3208	232.9433	257.9058	292.8605	301.9013	342.3191	418.7703	456.0656	476.7186	607.0047	646.1604	739.6261	826.3815	846.3145	884.0617	897.7339	950.776	990.8252	1015.2847	1034.6986	1056.7912	1075.4956	1100.8429	1118.1271	1133.0503	1157.3029	1188.8829	1234.5527	1244.4904	1268.7421	1283.3445	1321.7561	1332.8859	1365.1068	1373.4071	1382.335	1386.3672	1411.1017	1457.4925	1476.7838	1487.3775	1496.8183	1499.3864	1501.7617	1513.109	1735.7872	2929.9171	2959.6626	2966.6098	2988.578	3009.5503	3019.1257	3029.1068	3037.8226	3057.7624	3067.8304	3095.0284	3103.4185	3183.9326	3842.1245
CC1CCCC=C1CO	C[C@H]1CCCC=C1CO	
InChI=1S/C8H14O/c1-7-4-2-3-5-8(7)6-9/h5,7,9H,2-4,6H2,1H3	InChI=1S/C8H14O/c1-7-4-2-3-5-8(7)6-9/h5,7,9H,2-4,6H2,1H3/t7-/m0/s1
