14
gdb 124338	4.27151	1.15489	0.9142	2.0672	67.98	-0.2566	-0.0554	0.2011	1191.6012	0.101021	-470.035129	-470.027194	-470.026249	-470.068106	28.574	
C	-0.0676272171	 1.4519659476	-0.0665413249	-0.485471
C	-0.0059053377	-0.0527977468	 0.0257710588	 0.445818
O	 0.0230451772	-0.6911199676	 1.0404884909	-0.281386
N	 0.0175574244	-0.7172252129	-1.2386634307	 0.031233
N	-0.0130570128	-0.052295509	-2.4044470008	-0.204352
C	 0.0230422733	-1.0002138727	-3.321295874	-0.115482
C	 0.0760442286	-2.2522144009	-2.654143831	 0.387116
O	 0.1236219574	-3.4581373903	-3.232388726	-0.413565
N	 0.0719975388	-2.0625658132	-1.3514090618	-0.300329
H	 0.7926414936	 1.8426324882	-0.6153518093	 0.161603
H	-0.961131452	 1.7709392898	-0.6085986258	 0.161598
H	-0.0799100278	 1.8459343577	 0.9489969056	 0.149182
H	 0.0110489554	-0.7803671581	-4.3764094551	 0.146473
H	 0.1526951289	-4.1216921917	-2.5304596459	 0.317563
81.9753	123.8445	133.8082	194.6364	353.0604	357.2151	440.7863	441.5952	544.1543	579.5823	626.6147	661.9319	727.3369	747.97	868.0368	943.5826	991.6279	1049.1221	1056.4544	1144.2527	1194.4433	1235.2059	1295.1694	1344.2864	1395.081	1445.3637	1462.1455	1469.7564	1531.1034	1618.2717	1848.7976	3065.7389	3133.774	3172.2783	3275.5464	3788.4073
CC(=O)N1N=CC(O)=N1	CC(=O)n1ncc(O)n1	
InChI=1S/C4H5N3O2/c1-3(8)7-5-2-4(9)6-7/h2H,1H3,(H,6,9)	InChI=1S/C4H5N3O2/c1-3(8)7-5-2-4(9)6-7/h2H,1H3,(H,6,9)
