17
gdb 17692	4.78737	1.5572	1.51706	1.2872	68.48	-0.2316	0.0689	0.3005	895.2472	0.14306	-363.760843	-363.754016	-363.753072	-363.792251	26.511	
C	 1.1471371199	 0.9951650901	 0.1513967753	-0.231041
N	 0.4755934527	 0.0678589078	-0.7718851992	-0.312556
C	-0.2364964559	 0.5357974877	 0.4313934361	-0.206984
C	-0.5245125321	-0.5106115333	 1.4444522139	 0.505143
C	-1.7701380958	-1.4299411191	 1.5862647963	-0.263721
C	-0.8921797009	-1.5582278303	 2.8498282851	 0.046157
C	 0.3702142057	-1.6657352713	 1.9626923525	-0.255521
O	-0.7319773942	-0.0848674059	 2.8595523736	-0.352741
H	 1.9779601293	 0.5656654754	 0.702667538	 0.124777
H	 1.2843903091	 2.0308729033	-0.1470430786	 0.116353
H	 0.1370276649	 0.5689802393	-1.5886553665	 0.236664
H	-1.0344726483	 1.2649468684	 0.3038048681	 0.091653
H	-2.7161785043	-0.9062567603	 1.7315042073	 0.101833
H	-1.8497233491	-2.2902255072	 0.9172104626	 0.099145
H	-1.1125341649	-2.042718197	 3.8003916996	 0.093969
H	 0.4879642235	-2.5448061358	 1.3259225461	 0.103342
H	 1.2976591704	-1.3527399117	 2.4438970599	 0.103528
60.2101	177.5028	185.4426	374.3401	434.2018	526.3152	591.6005	630.4237	734.349	797.0994	869.1348	877.7584	900.9011	914.1059	929.1794	954.8263	966.2482	986.0889	1005.4313	1069.8541	1091.1936	1114.3469	1118.4679	1127.3796	1153.0951	1188.196	1213.6572	1233.0746	1239.975	1253.5349	1286.0522	1332.1959	1456.1724	1465.275	1509.6115	1520.1244	3061.6762	3072.3425	3114.9174	3124.8233	3127.3076	3143.877	3151.7893	3202.3938	3509.7
C1NC1C12CC(C1)O2	C1N[C@H]1[C@@]12C[C@@H](C1)O2	
InChI=1S/C6H9NO/c1-4-2-6(1,8-4)5-3-7-5/h4-5,7H,1-3H2	InChI=1S/C6H9NO/c1-4-2-6(1,8-4)5-3-7-5/h4-5,7H,1-3H2/t4-,5-,6+/m1/s1
