20
gdb 82870	2.5224	1.93637	1.43758	2.2383	77.89	-0.2202	0.0628	0.283	977.8404	0.172657	-403.085986	-403.078451	-403.077507	-403.117298	31.233	
C	 0.1146818174	 1.5920113069	-0.1190033879	-0.515332
C	 0.0374558049	 0.087463172	-0.0787526914	 0.357532
C	 0.4046910306	-0.835302147	-1.2400447302	-0.233615
N	-0.3517940172	-1.9327209444	-0.5223669214	-0.160866
C	 0.5733358888	-2.1100340905	 0.6494521144	-0.169601
C	 0.4083470603	-0.7115135832	 1.2652257374	-0.163261
C	-1.1137276987	-0.7970449409	 1.5876980347	 0.12783
O	-1.7236826797	 0.3720596025	 2.0939816003	-0.442157
C	-1.242065323	-0.8025917345	 0.0646058295	-0.038759
H	 1.1590630742	 1.9279081113	-0.1147599667	 0.110017
H	-0.3523483543	 1.982989672	-1.0302650391	 0.113329
H	-0.3936437405	 2.0357073533	 0.7393145165	 0.13354
H	-0.1224356935	-0.5589784482	-2.1591634321	 0.101811
H	 1.4490908885	-1.0707439938	-1.4738642415	 0.091334
H	 0.2279610441	-2.9155757226	 1.3043990371	 0.09884
H	 1.5799771906	-2.3546507968	 0.3032142248	 0.100457
H	 1.1335357155	-0.3398295792	 1.9905162721	 0.058621
H	-1.4420352356	-1.6869294303	 2.1442480658	 0.065403
H	-1.4184399279	 0.4946218702	 2.9985679281	 0.285094
H	-2.1807262245	-0.6595412169	-0.4682595804	 0.079783
210.4583	211.7181	237.4396	291.1289	319.0548	341.1598	412.3829	487.3512	533.4939	610.7283	674.0328	736.1464	836.9356	850.1306	859.3276	875.2433	914.2152	929.5649	937.1898	975.0852	1012.0559	1023.1182	1044.6161	1097.4489	1112.376	1150.114	1156.1869	1180.5052	1194.6087	1205.1058	1216.5287	1231.0717	1243.7351	1276.4782	1308.9232	1333.3895	1352.2956	1404.3069	1427.6275	1490.1137	1500.0073	1502.431	1527.7091	2991.1751	3023.2569	3030.1781	3055.3904	3078.7041	3085.8281	3102.6714	3108.1484	3129.5404	3133.6133	3815.4557
CC12CN3CC1C(O)C23	C[C@@]12CN3C[C@@H]1[C@@H](O)[C@@H]23	
InChI=1S/C7H11NO/c1-7-3-8-2-4(7)5(9)6(7)8/h4-6,9H,2-3H2,1H3	InChI=1S/C7H11NO/c1-7-3-8-2-4(7)5(9)6(7)8/h4-6,9H,2-3H2,1H3/t4-,5-,6+,7-/m1/s1
