20
gdb 121055	3.61709	0.87359	0.84521	2.9824	75.84	-0.2274	-0.017	0.2104	1453.2546	0.17065	-440.291931	-440.282684	-440.28174	-440.326808	33.516	
C	-0.1988365774	 1.193963017	-0.5257061579	-0.22986
O	-0.1171743736	-0.147914883	-0.105249933	-0.235966
C	-1.3745732959	-0.7762677175	 0.0139214427	-0.065504
C	-1.127516973	-2.2311661405	 0.4279105265	-0.008763
C	-2.4193885471	-3.0554842236	 0.4090954978	-0.334924
C	-2.4485200941	-3.6680733223	-0.9943999547	 0.407364
O	-3.3878606239	-4.197474873	-1.5255748742	-0.307191
C	-1.0603684143	-3.467271489	-1.607993694	-0.274291
N	-0.250532168	-2.9659133299	-0.5016531404	-0.306987
H	 0.8215694754	 1.5789014839	-0.5920097123	 0.130486
H	-0.6792513858	 1.2834061793	-1.5126410855	 0.107277
H	-0.7659356788	 1.8102735327	 0.188813228	 0.108764
H	-1.9974790103	-0.2663073848	 0.7687519993	 0.089703
H	-1.9212387332	-0.7281805824	-0.9451415608	 0.084769
H	-0.6575908445	-2.218366965	 1.4168987141	 0.087772
H	-2.3721085324	-3.8770980531	 1.1323557061	 0.141052
H	-3.3320625866	-2.4891688525	 0.6095871187	 0.127586
H	-0.6775459398	-4.4134594033	-2.0063331218	 0.131233
H	-1.1726865337	-2.7798449978	-2.464471917	 0.114698
H	 0.5117743171	-2.3711443251	-0.8038682217	 0.232782
53.072	87.1299	109.573	177.6852	184.1401	239.5921	328.7819	372.4331	450.3689	477.2248	503.0389	600.0872	678.3001	754.9698	812.5236	827.8917	899.1413	943.0848	994.2168	1017.7203	1057.4692	1084.3262	1136.2421	1158.4752	1164.2767	1187.658	1196.9585	1211.0548	1224.6017	1239.8425	1256.6902	1285.8839	1338.6785	1381.7522	1413.5259	1443.9624	1454.7552	1479.3333	1486.0967	1489.9993	1502.5253	1524.6496	1858.0146	2940.1552	2956.5669	2973.8416	2976.459	3021.0739	3048.2876	3056.1646	3060.8234	3112.0328	3116.3582	3557.1542
COCC1CC(=O)CN1	COC[C@H]1CC(=O)CN1	
InChI=1S/C6H11NO2/c1-9-4-5-2-6(8)3-7-5/h5,7H,2-4H2,1H3	InChI=1S/C6H11NO2/c1-9-4-5-2-6(8)3-7-5/h5,7H,2-4H2,1H3/t5-/m1/s1
