20
gdb 85076	2.41333	1.46431	1.10668	2.9752	83.23	-0.2503	0.0111	0.2613	1188.9128	0.171054	-403.176218	-403.167145	-403.1662	-403.210806	33.925	
C	 0.1244212548	 1.5532595267	-0.1183560498	-0.388732
C	-0.0130767746	 0.0469246993	 0.1047068598	 0.084105
O	 0.3551138022	-0.5919474114	-1.1314571853	-0.273182
C	 1.0334125575	-1.7737926081	-1.181658272	 0.366167
N	 0.9394224721	-2.5377322028	-2.1877444054	-0.50712
C	 2.0053745476	-2.1066592948	-0.0656484488	-0.106814
C	 3.4525514123	-1.8002528803	-0.517552473	-0.387436
C	 1.6708337934	-1.4023028374	 1.2164010675	-0.084289
C	 0.765876145	-0.4345037652	 1.288420678	-0.080936
H	 1.1735714876	 1.8215033274	-0.2710788791	 0.128273
H	-0.4481108966	 1.8555672557	-0.9989693196	 0.130433
H	-0.2546244038	 2.1021690745	 0.7489785188	 0.118657
H	-1.0791479222	-0.1820445739	 0.2636078505	 0.098731
H	 0.2684057954	-2.1533240754	-2.8561797857	 0.214476
H	 1.9351986209	-3.189695601	 0.0854465183	 0.11411
H	 3.5708593642	-0.7351099897	-0.7390034401	 0.120485
H	 4.1624025737	-2.0626467507	 0.273496439	 0.112716
H	 3.6925019975	-2.3751648447	-1.4142712726	 0.143226
H	 2.2218193735	-1.7097579613	 2.101628001	 0.098485
H	 0.5418338494	 0.0626051831	 2.2282243085	 0.098643
34.8368	61.2451	205.1688	230.7079	240.1953	266.412	308.9711	356.3457	454.6874	515.6919	536.2015	572.2734	684.7624	707.572	770.0323	823.4703	872.1106	899.0293	916.908	971.3035	1002.1152	1006.379	1059.1065	1083.8068	1097.9744	1117.929	1140.2006	1151.7448	1221.8493	1304.9934	1313.1897	1346.3098	1349.3957	1391.2278	1397.4644	1405.3636	1426.3963	1485.5179	1492.2021	1496.1021	1500.7186	1739.078	1743.86	2971.6045	3038.5835	3043.9678	3046.5579	3108.6193	3119.9509	3127.8583	3135.8221	3152.5251	3175.9552	3461.9407
CC1OC(=N)C(C)C=C1	C[C@H]1O[C]([NH])[C@@H](C)C=C1	
InChI=1S/C7H11NO/c1-5-3-4-6(2)9-7(5)8/h3-6,8H,1-2H3	InChI=1S/C7H11NO/c1-5-3-4-6(2)9-7(5)8/h3-6,8H,1-2H3/t5-,6+/m0/s1
