15
gdb 41226	2.45615	1.93284	1.16641	2.9525	67.48	-0.2314	-0.0324	0.1989	995.0711	0.112566	-457.733358	-457.725983	-457.725039	-457.765763	27.258	
C	-0.2778730091	 1.4146624273	-0.1208649106	-0.1586
O	 1.1250826419	 1.2783891351	 0.2675472536	-0.29338
C	 1.3104608762	 0.1856451533	-0.655939914	-0.004703
C	-0.1573630495	 0.1635442521	-0.9520049987	 0.137189
O	 2.3787658947	-1.3952711998	 0.8539637602	-0.288989
C	 1.6922791152	-1.1775801246	-0.1091946093	 0.306446
C	 1.0411093316	-2.3329193638	-0.9020489445	-0.168338
O	-0.071184131	-2.0200688966	-1.7523590017	-0.23923
C	-0.7939491572	-0.9077717717	-1.401197569	-0.079987
H	-0.9534391021	 1.3769581681	 0.7409808923	 0.130593
H	-0.4422233978	 2.3496768788	-0.6719483604	 0.119709
H	 1.9793948284	 0.4566366511	-1.4887722527	 0.113987
H	 1.8043022895	-2.7910068637	-1.5405744775	 0.149094
H	 0.7289283674	-3.080266601	-0.1638440199	 0.149499
H	-1.8603882782	-1.0191824847	-1.5631124077	 0.126709
69.7577	111.639	215.9625	274.2414	344.0964	418.7144	475.4681	522.1372	564.2435	654.7548	754.4881	822.2819	881.6039	926.6901	966.0221	971.1226	989.2443	1024.7956	1035.644	1132.6052	1143.8404	1150.5646	1157.532	1220.8775	1258.7985	1303.6451	1332.0486	1346.8419	1377.1688	1462.6455	1510.7894	1773.1781	1837.2638	2972.6358	3014.9767	3042.5823	3065.4935	3089.1284	3195.4461
C1OC2C11OC22COC12	C1O[C@@H]2[C]1[CH]OCC2=O	
InChI=1S/C6H6O3/c1-5-3(7-1)6(9-5)2-8-4(5)6/h3-4H,1-2H2	InChI=1S/C6H6O3/c7-5-3-8-1-4-2-9-6(4)5/h1,6H,2-3H2/t6-/m1/s1
