12
gdb 5468	3.73955	1.93735	1.27619	2.4837	67.64	-0.1999	-0.0041	0.1957	867.9085	0.08471	-377.532031	-377.525115	-377.52417	-377.562939	26.105	
O	 0.1264748535	 1.3701526402	 0.0524149336	-0.422314
C	 0.0814703804	 0.0289922298	-0.0062870266	 0.242655
C	 0.017741558	-0.7378101924	-1.1591201163	 0.091178
N	-0.0075988441	-2.0471049126	-0.6702374422	-0.32055
C	 0.0399299537	-1.9884787876	 0.6767572938	 0.010057
N	 0.0947649531	-0.741328088	 1.1128086632	-0.332372
C	-0.0181263061	-0.4139950839	-2.5216575145	 0.270198
C	-0.0497020208	-0.1527800617	-3.6986561545	-0.447169
H	 0.1656361229	 1.6011068336	 0.9889797038	 0.304211
H	-0.0534871909	-2.8730370038	-1.2430493101	 0.274381
H	 0.0327715932	-2.8701170617	 1.2991238907	 0.140249
H	-0.076806753	 0.094131238	-4.7305928409	 0.189476
138.7653	157.3088	315.0557	373.4451	397.1962	429.7297	486.6907	514.4424	535.4646	610.7128	667.5502	687.1734	744.0488	749.6542	806.0103	954.8643	1097.4065	1145.5546	1218.8636	1294.1092	1331.882	1404.902	1494.0669	1518.4047	1654.6547	2223.6832	3259.4854	3503.2664	3669.7929	3799.4262
OC1=C(NC=N1)C#C	Oc1c([nH]cn1)C#C	
InChI=1S/C5H4N2O/c1-2-4-5(8)7-3-6-4/h1,3,8H,(H,6,7)	InChI=1S/C5H4N2O/c1-2-4-5(8)7-3-6-4/h1,3,8H,(H,6,7)
