21
gdb 58605	2.09616	1.31973	1.1076	4.2649	82.72	-0.2142	0.0369	0.2511	1243.6843	0.180955	-383.254259	-383.244194	-383.24325	-383.289605	36.844	
C	 0.6839307373	-1.2384677178	 1.3014582746	-0.328617
N	 0.0648535418	-0.3889128346	 0.3016859377	-0.093589
C	 0.943955442	-0.0355925417	-0.7951637656	-0.332554
C	-1.3100181627	-0.7018097161	 0.0025337397	 0.330088
C	-2.2855824891	 0.1218802309	 0.8507983826	-0.383189
C	-2.20253489	 1.550520885	 0.5436680883	 0.277882
N	-2.1414480731	 2.6742331264	 0.2813610107	-0.317293
C	-1.7541038455	-1.0459968733	-1.3957485062	-0.296023
C	-1.7470094009	-2.1167467746	-0.3353680332	-0.312277
H	 1.5968303318	-0.7623567296	 1.6739922022	 0.122421
H	 0.0078183598	-1.375347563	 2.1508644611	 0.117243
H	 0.9573424884	-2.2423800551	 0.9270627392	 0.094559
H	 1.2494089923	-0.8912261646	-1.4274234289	 0.090252
H	 0.4670987432	 0.7123670508	-1.4321382351	 0.139628
H	 1.8584694305	 0.4074767487	-0.3871484689	 0.122045
H	-3.3176462246	-0.2101969726	 0.6925023642	 0.139971
H	-2.0638062526	-0.0194668584	 1.9148727864	 0.146517
H	-2.706671068	-0.6500825412	-1.7317191095	 0.121569
H	-1.0048536486	-1.1045983409	-2.1757313892	 0.125972
H	-0.9724771083	-2.8731600835	-0.3955500871	 0.122368
H	-2.6929341938	-2.4793140649	 0.052934827	 0.113025
46.2746	64.7628	126.584	211.8075	225.3655	260.3268	268.3132	314.9796	326.4432	387.9993	400.3801	411.4885	503.1375	566.1548	694.0295	781.5924	849.8885	890.8329	922.2003	956.4573	974.2598	1012.9691	1025.9246	1058.8847	1076.61	1094.2238	1125.0097	1177.1704	1189.5981	1195.9072	1250.9485	1264.0982	1310.6827	1337.1238	1366.8064	1444.7691	1455.7771	1470.2041	1473.3862	1482.0219	1497.8435	1501.9637	1507.1492	1522.7545	2361.7731	2921.1416	2934.0823	3041.0068	3057.1027	3062.9929	3081.3592	3102.5503	3121.8307	3133.567	3141.9347	3214.7245	3230.8281
CN(C)C1(CC#N)CC1	CN(C)C1(CC#N)CC1	
InChI=1S/C7H12N2/c1-9(2)7(3-4-7)5-6-8/h3-5H2,1-2H3	InChI=1S/C7H12N2/c1-9(2)7(3-4-7)5-6-8/h3-5H2,1-2H3
