19
gdb 99178	4.31048	0.79712	0.77992	2.2299	72.94	-0.2469	0.0153	0.2622	1548.1931	0.157905	-460.176035	-460.166383	-460.165439	-460.21275	32.889	
C	-0.4637170778	 1.2340241022	-0.2492645012	-0.240317
O	-0.243689943	-0.1780493552	-0.3671174818	-0.22701
C	 0.9001343384	-0.5301966501	-0.9834325993	 0.452453
O	 1.7029362397	 0.2609964828	-1.411254388	-0.363924
C	 1.0531516961	-2.0382033177	-1.0494999928	-0.342236
C	 1.5548243384	-2.4870586896	-2.4137182624	 0.175428
C	 1.676650045	-4.0044945927	-2.6739665841	-0.305692
C	 0.6947896039	-3.7360809337	-3.831998353	-0.057202
O	 0.5388233306	-2.3571698883	-3.4374010938	-0.293187
H	 0.3387773941	 1.7031326634	 0.325625107	 0.139381
H	-0.5053315712	 1.698984221	-1.2372402509	 0.145028
H	-1.4180686764	 1.3433268131	 0.2657994095	 0.132391
H	 1.7940412763	-2.3225279298	-0.2906638238	 0.131578
H	 0.1084545068	-2.5277127688	-0.8027947172	 0.122898
H	 2.4474027367	-1.907164084	-2.6771876967	 0.098945
H	 2.6677382884	-4.3677697659	-2.9486700367	 0.113367
H	 1.273301438	-4.6290757102	-1.8737605145	 0.109721
H	 1.128475636	-3.8259602621	-4.8361207099	 0.103389
H	-0.2562284499	-4.2804626542	-3.8078464604	 0.104989
26.9283	59.7225	77.9358	115.2103	134.5041	186.3914	289.9932	318.7564	386.4797	452.0148	608.3063	711.6703	755.1126	821.2611	871.5439	890.9816	904.0144	969.1417	1010.05	1030.418	1043.6033	1091.9625	1134.2737	1165.5328	1178.4989	1192.3172	1210.3588	1221.3836	1236.5719	1258.226	1300.4289	1332.1196	1369.6463	1402.1692	1450.6177	1473.4426	1480.9501	1490.3353	1496.771	1532.6623	1818.1066	3015.2491	3036.0557	3039.9472	3052.864	3057.3468	3075.6836	3113.7383	3128.0557	3132.9794	3159.821
COC(=O)CC1CCO1	COC(=O)C[C@H]1CCO1	
InChI=1S/C6H10O3/c1-8-6(7)4-5-2-3-9-5/h5H,2-4H2,1H3	InChI=1S/C6H10O3/c1-8-6(7)4-5-2-3-9-5/h5H,2-4H2,1H3/t5-/m1/s1
