19
gdb 43151	2.52616	1.72762	1.35339	2.966	79.6	-0.2303	-0.0018	0.2285	1018.5663	0.160832	-385.878141	-385.870684	-385.86974	-385.90985	30.051	
O	 0.0023357749	-0.0282477993	-0.0025533514	-0.325395
C	-0.0130038001	 1.1650380075	 0.0402040665	 0.43617
C	-1.0850940435	 2.2777901223	-0.0087003519	-0.226799
C	-0.8055965862	 3.0013564428	 1.3292934885	-0.221001
C	 0.7680751673	 3.0224286312	 1.3059292476	-0.221001
C	 1.027003818	 2.3060628434	-0.0400525258	-0.226799
C	-0.0515222751	 2.9522926671	-0.9431582201	 0.429266
C	-0.0744978957	 3.0176413043	-2.4325346377	-0.357735
C	-0.0792489245	 4.2930153277	-1.6009021907	-0.363405
H	-2.1155184805	 2.0878074901	-0.3027461284	 0.082468
H	-1.2292627687	 4.0086854575	 1.3349227509	 0.106786
H	-1.208021604	 2.4572588455	 2.1876778873	 0.110625
H	 1.1646055806	 4.0407399028	 1.2993827372	 0.106786
H	 1.2102199275	 2.4896400267	 2.1517755297	 0.110624
H	 2.0529610351	 2.1436011044	-0.3646271628	 0.082468
H	 0.8320297842	 2.7704785498	-2.9757777897	 0.120457
H	-0.9897734915	 2.7460575668	-2.9487764487	 0.120458
H	-0.9978496274	 4.8700602745	-1.5617208043	 0.118013
H	 0.8242972494	 4.8945119749	-1.5887696061	 0.118013
117.206	199.4799	212.6813	243.2759	287.3501	474.2009	496.9295	535.7314	648.782	661.0399	763.0206	768.9908	792.7486	849.3322	891.2095	904.5673	937.5813	941.3399	975.5792	977.8597	1001.4095	1032.6203	1051.492	1057.8838	1082.842	1105.1097	1138.3503	1180.8434	1182.1734	1198.7369	1220.8363	1228.9407	1249.7049	1310.9226	1318.0265	1400.3981	1465.0684	1489.9249	1504.3215	1511.7952	1902.1803	3056.7644	3066.1047	3097.29	3115.4639	3122.4523	3126.4327	3141.4138	3143.9027	3200.3177	3214.5301
O=C1C2CCC1C21CC1	O=C1[C@H]2CC[C@@H]1C12CC1	
InChI=1S/C8H10O/c9-7-5-1-2-6(7)8(5)3-4-8/h5-6H,1-4H2	InChI=1S/C8H10O/c9-7-5-1-2-6(7)8(5)3-4-8/h5-6H,1-4H2/t5-,6+
