22
gdb 82820	2.24982	1.94504	1.44226	1.7022	84.62	-0.2013	0.0808	0.2821	1035.9412	0.195374	-367.159565	-367.151447	-367.150503	-367.191537	32.972	
C	-0.1150301427	 1.5877872602	 0.0253142507	-0.425557
C	 0.0735511	 0.0772872066	 0.026956917	-0.00648
C	 1.0748361391	-0.609303466	-0.9471881615	-0.075333
C	 2.5138962418	-0.0663683561	-0.8502310666	-0.175325
N	 2.7815119162	-0.8122591128	 0.42581911	-0.145435
C	 2.1350490076	-0.0980568438	 1.5765677768	-0.22239
C	 0.7319647609	-0.657899572	 1.2405374835	 0.321251
C	-0.1618529368	-1.1146023272	 2.3710182113	-0.504588
C	 1.4777236972	-1.5763436847	 0.2113565809	-0.047936
H	 0.8288181311	 2.1242405409	 0.1636232799	 0.116633
H	-0.548751945	 1.9256628166	-0.9226365884	 0.1161
H	-0.7927196337	 1.9008736824	 0.8275977057	 0.116006
H	-0.9010976504	-0.4025645669	-0.1318313921	 0.069815
H	 0.6977170168	-0.9122417936	-1.9254171414	 0.062352
H	 3.1586194034	-0.4610583238	-1.6426379106	 0.103554
H	 2.6664035695	 1.0173894929	-0.7918482586	 0.094582
H	 2.5206867458	-0.5016825656	 2.5199163996	 0.099059
H	 2.2800962528	 0.9883208303	 1.5853781838	 0.093456
H	-0.5482929796	-0.2578517261	 2.937449606	 0.116986
H	-1.0243620418	-1.6785918006	 1.9982932221	 0.11326
H	 0.3802341335	-1.7558810717	 3.0750642842	 0.116335
H	 1.4864215641	-2.666340279	 0.1910765777	 0.063656
176.0293	180.2526	201.5936	235.9739	240.4561	302.49	413.3613	440.9948	541.5708	559.3368	599.2098	723.5182	776.4603	811.8765	840.0096	878.3591	896.325	908.1098	927.7824	972.8791	984.9142	1002.2461	1021.0491	1052.0015	1103.7736	1122.9599	1154.7283	1161.5619	1179.5726	1196.9866	1199.8585	1213.2448	1224.8015	1256.3421	1269.9396	1313.8852	1318.7299	1348.8083	1386.1737	1408.6262	1413.9836	1486.8674	1490.2297	1492.7319	1494.0634	1506.0609	1515.7338	3013.4618	3016.5138	3022.8558	3028.1479	3032.385	3068.3175	3073.9447	3078.6435	3086.5587	3089.4891	3089.503	3103.9997	3109.0086
CC1C2CN3CC1(C)C23	C[C@H]1[C@H]2CN3C[C@]1(C)[C@@H]23	
InChI=1S/C8H13N/c1-5-6-3-9-4-8(5,2)7(6)9/h5-7H,3-4H2,1-2H3	InChI=1S/C8H13N/c1-5-6-3-9-4-8(5,2)7(6)9/h5-7H,3-4H2,1-2H3/t5-,6+,7+,8-/m0/s1
