16
gdb 79663	2.63864	1.57606	1.2238	5.5775	74.96	-0.2419	-0.0014	0.2405	1032.0272	0.125163	-396.835458	-396.827693	-396.826749	-396.867522	29.998	
N	 0.1202590818	 1.5443225301	 0.0545995382	-0.519497
C	-0.0444978816	 0.117047784	-0.0311060761	-0.072531
C	-1.3229122383	-0.6408820437	 0.1388832188	-0.139143
C	-2.5444284603	-0.1130426557	-0.6292575569	-0.046801
C	-2.3363414946	 1.099129797	-1.452480713	-0.253179
N	-1.8484319452	-0.208053304	-1.9575107156	-0.177648
C	-0.5960625844	-0.6533343357	-1.2254523612	 0.183714
C	 0.1800836871	-1.6771294334	-1.8455613181	 0.24494
N	 0.8263847874	-2.5055862984	-2.3320434666	-0.349665
H	 0.0757004169	 1.8371382355	 1.0262147553	 0.242569
H	 1.0334049717	 1.8088883458	-0.3016726336	 0.245371
H	 0.7707571249	-0.4865473043	 0.3815677585	 0.112347
H	-1.403429658	-1.4627971151	 0.8383101888	 0.121187
H	-3.5159356636	-0.5769597084	-0.497351838	 0.112547
H	-3.1989179076	 1.4224920244	-2.0294439295	 0.127231
H	-1.6373644362	 1.8644317519	-1.153075861	 0.168558
135.6312	158.3728	175.702	243.6229	291.2441	416.1422	442.9594	484.5165	530.9548	570.7044	670.772	702.6652	729.6347	771.8752	850.3477	890.8079	917.3849	936.1657	990.6138	1011.3536	1047.0094	1071.8087	1097.3809	1142.0442	1153.5038	1205.2394	1229.4185	1272.6371	1276.1804	1341.8409	1356.484	1465.6425	1491.8623	1646.7761	2341.6383	3044.0609	3129.7537	3169.1136	3203.888	3265.5137	3492.9512	3574.064
NC1C2C3CN3C12C#N	N[C@H]1[C@H]2[C@H]3CN3[C@@]12C#N	
InChI=1S/C6H7N3/c7-2-6-4(5(6)8)3-1-9(3)6/h3-5H,1,8H2	InChI=1S/C6H7N3/c7-2-6-4(5(6)8)3-1-9(3)6/h3-5H,1,8H2/t3-,4-,5+,6-,9?/m1/s1
