16
gdb 98958	4.14038	0.853	0.71045	0.8051	71.3	-0.2532	-0.092	0.1613	1507.5429	0.123646	-471.259914	-471.25037	-471.249426	-471.295478	32.628	
C	-0.5342012539	 1.3507878294	-0.5374387152	-0.333645
N	-1.063831426	 0.0111219881	-0.3832790536	-0.337611
C	-0.9844202556	-0.6445186802	 0.7926009392	 0.484688
O	-0.4909139306	-0.2373850833	 1.8276077801	-0.409796
N	-1.549799777	-1.9515758762	 0.7837984288	-0.407983
C	-2.1608707841	-2.653130076	-0.2211863832	 0.331275
N	-2.3388713208	-2.2174160872	-1.4098605013	-0.527935
C	-2.6267886996	-4.0365545889	 0.2008581627	 0.108243
O	-3.1815024847	-4.7788797534	-0.5623877855	-0.225025
H	 0.2488000689	 1.3785464491	-1.3032353464	 0.129237
H	-1.3234989384	 2.0553146387	-0.8218921917	 0.129241
H	-0.1088060916	 1.6596165802	 0.4176472002	 0.168262
H	-1.5103589613	-0.4729527609	-1.1579015328	 0.283636
H	-1.4595757649	-2.3882597715	 1.6894074977	 0.261702
H	-2.8161583995	-2.9364525044	-1.9553476294	 0.246467
H	-2.4248778809	-4.3222881835	 1.2564109805	 0.099245
57.8582	63.7551	107.9757	148.6864	153.2477	205.9236	267.3265	339.2307	391.6666	443.4831	524.3654	592.4553	689.6718	694.3841	765.7988	767.1622	871.7185	897.7542	959.0635	1024.4874	1118.3616	1155.8382	1164.1507	1190.3408	1276.023	1314.2699	1422.291	1443.4591	1499.6208	1503.0599	1525.0546	1612.0308	1702.0394	1817.3931	1838.173	2897.9868	3030.1099	3081.3325	3156.1312	3460.5156	3476.9858	3623.1549
CNC(=O)NC(=N)C=O	CNC(=O)NC(=N)C=O	
InChI=1S/C4H7N3O2/c1-6-4(9)7-3(5)2-8/h2H,1H3,(H3,5,6,7,9)	InChI=1S/C4H7N3O2/c1-6-4(9)7-3(5)2-8/h2H,1H3,(H3,5,6,7,9)
