20
gdb 36841	4.2968	0.98535	0.94347	3.0782	79.3	-0.2251	0.0811	0.3062	1310.4924	0.171814	-403.041978	-403.033977	-403.033033	-403.07554	30.625	
C	-0.0581900389	 1.5674959153	 0.2703876502	-0.384801
C	-0.1461394345	 0.0608912558	 0.3446265669	 0.101811
C	-1.2473292324	-0.6982969424	-0.2587107764	-0.180838
O	 0.035603857	-0.64672011	-0.8864045359	-0.233596
C	 1.365128528	 2.0502410273	 0.0792126676	 0.329823
C	 2.3472430189	 1.7461665152	-1.0779654243	-0.190005
N	 3.1929142266	 2.6714035808	-0.1834432368	-0.145547
C	 1.8995444919	 3.4952062952	-0.0558652777	-0.220544
C	 2.6134581535	 1.8446815312	 0.9766885212	-0.206886
H	-0.6777573873	 1.9227173636	-0.561939373	 0.10582
H	-0.4744027611	 1.9977559842	 1.1914531027	 0.103521
H	 0.3745214044	-0.3945406347	 1.1894365331	 0.094185
H	-1.5298076088	-1.6673869652	 0.1502866533	 0.115317
H	-2.0429240086	-0.1650067093	-0.777937972	 0.113548
H	 2.7452220796	 0.7322277479	-1.1628100725	 0.109582
H	 2.1288178371	 2.1712342426	-2.0617036898	 0.09781
H	 1.6478384397	 4.0548790115	-0.9616555177	 0.098081
H	 1.8782691802	 4.1398019159	 0.8282538222	 0.095701
H	 2.6473944612	 2.3624787339	 1.9402425769	 0.095468
H	 3.0407925333	 0.8404736213	 1.0489597219	 0.101548
52.7991	70.4872	129.5397	280.6859	317.4347	351.5587	452.3968	585.3244	589.0477	673.3837	770.1728	787.7298	802.4796	859.2671	893.2829	900.1101	940.8738	958.6157	976.9451	989.3761	1013.9525	1023.3651	1079.4208	1092.3009	1150.	1159.0727	1162.958	1168.0853	1170.9046	1183.0769	1199.9191	1202.2483	1262.2362	1277.6287	1295.4013	1316.4784	1350.6228	1446.5217	1462.886	1510.8138	1511.6225	1530.151	1566.1013	3017.7698	3039.0048	3044.1615	3056.4549	3061.7327	3081.3504	3093.2938	3105.3977	3110.4004	3122.7947	3167.83
C(C1CO1)C12CN(C1)C2	C([C@H]1CO1)[C@@]12CN(C1)C2	
InChI=1S/C7H11NO/c1(6-2-9-6)7-3-8(4-7)5-7/h6H,1-5H2	InChI=1S/C7H11NO/c1(6-2-9-6)7-3-8(4-7)5-7/h6H,1-5H2/t6-/m0/s1
