15
gdb 49868	2.39379	1.4756	0.99749	2.0712	69.02	-0.264	-0.0435	0.2205	1136.0456	0.113231	-454.012612	-454.004646	-454.003702	-454.046163	28.836	
N	-0.281546277	 1.241843647	 0.027904689	-0.520465
C	-0.1035869762	-0.011235789	 0.005729915	 0.392206
C	-1.217614487	-1.039865836	 0.1126175841	-0.304897
C	-0.5193468966	-2.4041599942	 0.0999537782	-0.236798
C	-0.9603445066	-3.3495554677	-1.0136419146	 0.150969
O	-1.8645694284	-3.1199938896	-1.7712457345	-0.227157
C	 0.9806821951	-2.0988071453	-0.0599916328	 0.403067
O	 1.883745908	-2.8936170883	-0.1375680624	-0.35367
N	 1.0954579718	-0.7236652993	-0.115460643	-0.357672
H	 0.5940458656	 1.7600775582	-0.0595500721	 0.21497
H	-1.800895465	-0.8598859439	 1.0170120309	 0.145917
H	-1.8960596026	-0.9487840719	-0.7398607834	 0.169862
H	-0.6242069379	-2.964128957	 1.0376728059	 0.139941
H	-0.3629790782	-4.2814136241	-1.0718782367	 0.117857
H	 1.9988800451	-0.2852075686	-0.2235172636	 0.26587
49.1691	101.0709	134.9484	213.6099	289.9405	378.9191	504.7115	536.0324	583.9085	610.1393	628.8507	658.0771	721.3648	805.5974	875.559	888.9048	926.3699	974.1567	1042.1896	1087.2967	1108.0558	1183.8217	1205.1713	1230.6023	1300.1357	1309.1569	1361.8758	1380.9698	1412.5869	1474.0055	1769.6071	1827.562	1850.7526	2940.8475	3044.7039	3082.3586	3128.4249	3462.5646	3618.6795
N=C1CC(C=O)C(=O)N1	[NH][C]1C[C@@H](C=O)C(=O)N1	
InChI=1S/C5H6N2O2/c6-4-1-3(2-8)5(9)7-4/h2-3H,1H2,(H2,6,7,9)	InChI=1S/C5H6N2O2/c6-4-1-3(2-8)5(9)7-4/h2-3H,1H2,(H2,6,7,9)/t3-/m0/s1
