21
gdb 58062	1.77328	1.43437	1.25265	0.5809	89.92	-0.2601	0.0332	0.2933	1220.9851	0.177716	-349.892056	-349.881118	-349.880173	-349.927041	41.259	
C	 0.0718645246	 1.5496709555	-0.0246058553	-0.413355
C	 0.0160058364	 0.0184226827	 0.0481124803	 0.029954
C	 0.8114120344	-0.4929726315	 1.2551052635	-0.406034
C	-1.4627478866	-0.5322024577	 0.0432425193	-0.134402
C	-2.2362189275	-0.0472323879	-1.2157924928	-0.418185
C	-1.4288160743	-2.0038853574	 0.0104248569	 0.342827
C	-1.4013846847	-3.2027584633	-0.0669638381	-0.464754
C	-2.1843555892	-0.0881947013	 1.2465241301	 0.376837
C	-2.7824299192	 0.3032480752	 2.2126988826	-0.499027
H	 1.112891236	 1.8836576223	 0.0239597383	 0.113466
H	-0.354607149	 1.9422300429	-0.9511847219	 0.114734
H	-0.463958477	 2.0005973417	 0.8169545672	 0.12938
H	 0.4701090017	-0.3924884653	-0.8625645276	 0.083403
H	 0.394866189	-0.1028392946	 2.1893631084	 0.126583
H	 0.8017012414	-1.5842842268	 1.3080281132	 0.128889
H	 1.852614177	-0.1631064841	 1.1861550438	 0.108458
H	-1.6770788268	-0.3101921767	-2.1182509654	 0.123323
H	-3.214908092	-0.5288375808	-1.2600737989	 0.135205
H	-2.3850146945	 1.0333139475	-1.185549337	 0.129676
H	-1.3817320298	-4.2633818339	-0.1173761181	 0.195217
H	-3.3126195	 0.6322132533	 3.0721515915	 0.197805
80.8136	126.5045	147.1104	164.3291	211.4323	225.2998	240.2596	256.038	302.6144	360.1029	376.011	418.7472	481.014	505.7037	563.5274	602.8743	631.4242	633.5252	640.3776	642.8668	645.2205	855.383	926.3228	934.0989	938.3316	968.053	1048.3514	1083.157	1125.4322	1187.6534	1200.476	1217.6355	1347.8283	1349.9286	1398.482	1404.1329	1421.1315	1483.5433	1488.3829	1492.7704	1497.9436	1507.5811	1516.7176	2230.0275	2236.0721	3024.9994	3038.6295	3042.8519	3052.5911	3104.3391	3109.4121	3116.482	3125.055	3131.7787	3144.6663	3500.7971	3501.6194
CC(C)C(C)(C#C)C#C	CC(C)C(C)(C#C)C#C	
InChI=1S/C9H12/c1-6-9(5,7-2)8(3)4/h1-2,8H,3-5H3	InChI=1S/C9H12/c1-6-9(5,7-2)8(3)4/h1-2,8H,3-5H3
