23
gdb 114120	3.97842	0.87664	0.81837	1.6932	86.28	-0.2422	0.0862	0.3284	1552.7155	0.204263	-388.269934	-388.260057	-388.259113	-388.304924	36.875	
C	 0.1183667369	 1.511756506	-0.0101375941	-0.37981
C	 0.0534808315	-0.014963358	 0.0950065445	-0.187363
C	-1.3707450115	-0.5588988275	 0.0821288899	 0.014707
C	-2.2108523929	-0.4589831105	-1.2489507299	-0.319798
C	-2.3553809871	-1.9933878339	-1.2223118601	 0.443061
C	-3.4536773462	-2.8427345715	-1.7824553793	-0.29979
C	-3.4470543937	-2.8754420901	-3.3173950099	-0.378292
O	-1.0134111729	-2.5156391866	-1.2571877609	-0.29438
C	-1.5465445195	-2.0857838726	 0.0053568649	-0.083079
H	 1.1540021791	 1.8656147553	-0.0058408896	 0.112334
H	-0.3497244344	 1.8674344337	-0.9345134935	 0.116945
H	-0.4006671883	 1.991486036	 0.8275295314	 0.109984
H	 0.6059589871	-0.4736328262	-0.7324948009	 0.112497
H	 0.5508792411	-0.339399693	 1.0189919082	 0.090974
H	-1.9474574824	-0.1494668017	 0.9196188885	 0.069651
H	-3.1554401561	 0.0748699736	-1.1181879448	 0.100729
H	-1.687330318	-0.0650992351	-2.1241775719	 0.104545
H	-3.3429675936	-3.8583218535	-1.3862484783	 0.109267
H	-4.4166640902	-2.4600796701	-1.421057399	 0.100148
H	-4.254981985	-3.5067072489	-3.6985831781	 0.112864
H	-3.5796237146	-1.8724446506	-3.7363785849	 0.118585
H	-2.4980142226	-3.2723255113	-3.6894095321	 0.134594
H	-1.5518826464	-2.8163374636	 0.8081917299	 0.091628
72.5251	81.8276	126.797	141.725	209.4406	222.6871	262.8142	320.0605	344.229	425.545	442.6142	581.7681	655.5864	710.3268	769.5568	786.9857	814.2692	891.1459	908.9405	929.1342	943.8742	965.8807	984.4751	1014.5091	1047.026	1072.6531	1074.5475	1123.4248	1139.3024	1185.4102	1205.6482	1219.6514	1252.0053	1264.3988	1285.075	1312.5051	1339.3632	1355.2775	1386.5237	1407.6618	1411.402	1453.7031	1471.8014	1483.9962	1490.9749	1498.3184	1499.3137	1507.0141	1510.6957	3018.6027	3026.7026	3028.594	3038.8239	3039.3248	3059.5344	3068.6937	3069.1243	3096.576	3101.7738	3107.8292	3116.0043	3117.9941	3166.9064
CCC1CC2(CC)OC12	CC[C@H]1C[C@@]2(CC)O[C@@H]12	
InChI=1S/C8H14O/c1-3-6-5-8(4-2)7(6)9-8/h6-7H,3-5H2,1-2H3	InChI=1S/C8H14O/c1-3-6-5-8(4-2)7(6)9-8/h6-7H,3-5H2,1-2H3/t6-,7-,8+/m0/s1
