19
gdb 30696	3.70698	1.02007	0.85216	1.7507	77.83	-0.2176	0.0246	0.2422	1373.8568	0.158517	-423.04274	-423.033626	-423.032681	-423.077464	33.003	
C	-0.3393296726	 1.2753074337	-0.0208735343	-0.23347
O	-0.072653714	-0.1065627929	 0.0056875121	-0.24521
C	 0.7504307927	-0.5350741785	 1.0828275181	 0.008619
C	-0.0342081626	-0.6160900635	 2.4006503293	-0.396069
C	 1.3271128287	-1.8642976902	 0.6896952209	 0.239224
C	 1.0948882091	-2.5380792074	-0.4680092527	-0.086312
O	 1.78174202	-3.7134035114	-0.488853999	-0.149099
C	 2.4681502892	-3.7882446691	 0.6797105398	 0.007027
C	 2.2319344201	-2.6907514307	 1.4428988403	-0.303969
H	 0.5887754373	 1.8682573582	-0.035905162	 0.105086
H	-0.89828434	 1.4755790595	-0.9384351718	 0.127764
H	-0.9463706406	 1.6084731593	 0.8334432357	 0.10717
H	 1.5744818635	 0.1891581183	 1.2118886596	 0.072344
H	 0.609701326	-0.9747070346	 3.2091402087	 0.118877
H	-0.4215979972	 0.3639884972	 2.6935569258	 0.113802
H	-0.872425585	-1.3096960677	 2.2910885187	 0.129476
H	 0.4941204869	-2.3190791046	-1.3324826387	 0.145231
H	 3.0707092448	-4.6711613238	 0.8153892666	 0.133554
H	 2.6496677238	-2.4874969615	 2.4169728431	 0.105953
48.5506	69.9137	148.9378	166.1683	203.288	249.3662	328.7295	369.0958	423.3672	477.6699	622.7768	648.4616	725.7792	737.9123	798.2001	826.3632	860.2119	894.6821	966.8496	1034.7536	1053.2993	1080.5826	1098.9785	1110.1084	1155.8239	1183.0429	1203.2463	1221.1413	1253.9798	1264.3394	1355.6065	1372.7208	1398.3072	1415.8889	1478.183	1481.3912	1492.1207	1501.9064	1512.6576	1535.8282	1636.838	2939.7753	2977.0996	3025.944	3044.1599	3111.1512	3114.6229	3125.6743	3248.8408	3282.6284	3304.1622
COC(C)C1=COC=C1	CO[C@@H](C)c1cocc1	
InChI=1S/C7H10O2/c1-6(8-2)7-3-4-9-5-7/h3-6H,1-2H3	InChI=1S/C7H10O2/c1-6(8-2)7-3-4-9-5-7/h3-6H,1-2H3/t6-/m0/s1
