17
gdb 9211	7.53795	0.76494	0.72197	4.3921	68.31	-0.2502	-0.0201	0.2301	1521.2805	0.139902	-401.043881	-401.034308	-401.033364	-401.079984	31.598	
C	 0.0212545395	 1.4704429382	 0.1396335057	-0.334497
N	-0.1075627707	 0.0297947481	 0.2515343456	-0.314189
C	-1.2166657044	-0.6447185424	-0.160105343	 0.430262
O	-2.1974276905	-0.097338583	-0.6328296101	-0.372287
C	-1.1333627915	-2.1667527022	-0.0142997309	-0.336849
C	-2.5063690782	-2.7708426594	 0.308307687	-0.260346
C	-2.5606266251	-4.2494220847	 0.0147871639	 0.158227
O	-2.9283697376	-5.0994909209	 0.7833557246	-0.240349
H	 0.8520828621	 1.747414841	-0.5188128017	 0.128225
H	-0.9100949386	 1.8472155154	-0.2839561059	 0.174419
H	 0.1818302242	 1.9314211144	 1.1201974664	 0.128831
H	 0.6590448818	-0.4950007385	 0.6381318	 0.247164
H	-0.7771565106	-2.5574302645	-0.9778985175	 0.134556
H	-0.3891339723	-2.4556504067	 0.7357267108	 0.109644
H	-2.7944112838	-2.6006840184	 1.3488636222	 0.123983
H	-3.23778799	-2.263461228	-0.335623002	 0.155309
H	-2.2250891843	-4.5175262987	-1.016757585	 0.067898
38.852	68.3154	74.11	83.0642	152.7586	187.3226	294.8821	305.044	420.818	454.9617	523.4695	625.5632	703.937	792.1826	856.5881	892.9731	1018.1485	1049.1655	1088.2589	1106.1351	1154.092	1170.7053	1193.0325	1230.5721	1256.5536	1325.2073	1377.7149	1430.4389	1439.4239	1457.9032	1472.9502	1493.2835	1499.9619	1562.8915	1779.5498	1838.4441	2837.1946	3018.8699	3030.1853	3032.6578	3070.183	3083.2307	3110.9736	3157.2124	3650.2301
CNC(=O)CCC=O	CNC(=O)CCC=O	
InChI=1S/C5H9NO2/c1-6-5(8)3-2-4-7/h4H,2-3H2,1H3,(H,6,8)	InChI=1S/C5H9NO2/c1-6-5(8)3-2-4-7/h4H,2-3H2,1H3,(H,6,8)
