18
gdb 61229	3.45286	0.96713	0.84554	4.3369	72.66	-0.2705	0.0308	0.3013	1358.7602	0.145369	-439.078025	-439.068396	-439.067451	-439.112758	35.44	
O	-0.5483081579	 1.1971159316	 0.1480209088	-0.417751
C	-0.0099720272	-0.1052854365	 0.0494724576	 0.055868
C	 0.8307680716	-0.2967576329	-1.2326939341	-0.373409
C	 0.0642221693	-0.0771046018	-2.4546924376	 0.265606
N	-0.5442204323	 0.0922649269	-3.4221869777	-0.30475
C	 0.8123613806	-0.5083120824	 1.2737678673	 0.385604
O	 1.2927917023	-1.8271293431	 1.193937068	-0.46156
C	 1.7486870824	 0.4645605453	 1.9260061563	-0.304457
C	 0.4700845952	 0.0444273034	 2.6275046849	-0.330782
H	 0.1518400871	 1.8370003947	-0.0210123547	 0.290023
H	-0.8824697005	-0.7688158928	-0.0084701905	 0.105
H	 1.6848609926	 0.3926808866	-1.2149343274	 0.142489
H	 1.2463636676	-1.3085724265	-1.2328678548	 0.170682
H	 0.5681806317	-2.4229127498	 1.4167491814	 0.289049
H	 2.6841035417	 0.0582229685	 2.2913756284	 0.131795
H	 1.8093980578	 1.4792532809	 1.5473360777	 0.10279
H	-0.3337371932	 0.7679278261	 2.6877234554	 0.135595
H	 0.5654289112	-0.6308646881	 3.4703767911	 0.118209
56.8905	78.4244	135.3824	223.3129	250.6112	264.5718	310.0713	337.5553	383.7132	402.3547	405.018	476.3109	522.1191	561.7145	749.4708	782.233	862.0316	894.0328	933.0965	943.6965	988.2382	999.4157	1028.5546	1052.9728	1084.2375	1113.5486	1180.4269	1192.1665	1261.3723	1264.7924	1300.4886	1326.0972	1360.4488	1378.2463	1416.9888	1445.0711	1466.0758	1497.7346	2364.6996	3027.1545	3041.3405	3101.0531	3137.306	3143.8511	3226.0767	3242.7001	3790.3971	3805.3717
OC(CC#N)C1(O)CC1	O[C@@H](CC#N)C1(O)CC1	
InChI=1S/C6H9NO2/c7-4-1-5(8)6(9)2-3-6/h5,8-9H,1-3H2	InChI=1S/C6H9NO2/c7-4-1-5(8)6(9)2-3-6/h5,8-9H,1-3H2/t5-/m0/s1
