15
gdb 8819	3.0416	1.47574	1.08282	3.8059	61.96	-0.2922	-0.0545	0.2377	1075.6843	0.116245	-399.827458	-399.818588	-399.817644	-399.861881	30.427	
C	 0.1102509706	 1.5008766291	 0.1286794838	-0.381418
C	 0.1249140434	-0.0175104207	-0.0370108176	-0.298124
C	 0.801679526	-0.4793005149	-1.3021399973	 0.365581
O	 1.2942277425	 0.2555401089	-2.1243410765	-0.303774
C	 0.8603869133	-2.0096787406	-1.6002094408	-0.073016
O	 1.4515336315	-2.2383178287	-2.8391589834	-0.406628
C	 1.5835676606	-2.6928983361	-0.5077051517	 0.260307
N	 2.1395651842	-3.2098713044	 0.3634894948	-0.317463
H	 1.1270950729	 1.899736578	 0.1560951723	 0.141793
H	-0.4102999983	 1.981898985	-0.7030812972	 0.137428
H	-0.3937867631	 1.7753154124	 1.0585005524	 0.12523
H	 0.6272915173	-0.5106338391	 0.8054945893	 0.164975
H	-0.8933660364	-0.4317070277	-0.0395698834	 0.137792
H	-0.1739099417	-2.3883725234	-1.5934397823	 0.141927
H	 1.7776172972	-1.3664752077	-3.1253551023	 0.30539
42.3769	69.2351	130.8352	189.6368	213.0495	250.3567	342.8488	393.776	425.4435	459.2277	547.7988	603.3008	684.2965	759.2131	849.1987	948.1184	987.6059	1036.6634	1085.7271	1122.2698	1155.1054	1229.5608	1286.4738	1342.3404	1379.9664	1417.6511	1430.1575	1446.4536	1494.1062	1498.9529	1816.0545	2353.3102	2991.0508	3024.1767	3056.4757	3057.546	3131.2622	3132.6392	3641.2249
CCC(=O)C(O)C#N	CCC(=O)[C@@H](O)C#N	
InChI=1S/C5H7NO2/c1-2-4(7)5(8)3-6/h5,8H,2H2,1H3	InChI=1S/C5H7NO2/c1-2-4(7)5(8)3-6/h5,8H,2H2,1H3/t5-/m0/s1
