21
gdb 91794	2.28815	1.71316	1.26405	2.3254	77.71	-0.2512	0.0536	0.3049	1085.0066	0.183352	-424.228812	-424.220144	-424.2192	-424.261372	34.756	
C	-0.4386173687	 1.3078224633	 0.0208746821	-0.495097
C	 0.0694157641	-0.1139839075	 0.0145078635	 0.369861
C	-0.5803586269	-1.1502422658	 0.9075976755	-0.331345
C	 0.8487537478	-0.7354203989	 1.1570603127	-0.083031
C	 1.9398198862	-1.6341324169	 0.5843208187	-0.231007
C	 1.5523580096	-1.8676114549	-0.8880983289	 0.069617
O	 0.7882324641	-3.0536998429	-1.0233661817	-0.435268
C	 0.6945116926	-0.6231592389	-1.2716627601	 0.011247
O	-0.3059902953	-0.9526225659	-2.2421668075	-0.43686
H	 0.3511505038	 2.0181490947	-0.2540827603	 0.107079
H	-1.2601928692	 1.4296368363	-0.6939012497	 0.126646
H	-0.8122577326	 1.591482879	 1.0095074651	 0.113847
H	-1.3306873357	-0.7726527534	 1.5949426698	 0.10148
H	-0.7696252958	-2.1469140182	 0.5302488481	 0.130676
H	 1.071879512	-0.1541010047	 2.0458156423	 0.076463
H	 2.9090868513	-1.1244592573	 0.6378583523	 0.093194
H	 2.0403851106	-2.5916745522	 1.1046613322	 0.113995
H	 2.445703567	-1.9362107453	-1.5277375402	 0.057004
H	 0.0996520782	-2.837703822	-1.6705039708	 0.28298
H	 1.3491497852	 0.16337451	-1.6738704524	 0.067761
H	 0.0878498816	-0.8843211385	-3.1179046006	 0.290759
120.0652	193.7906	206.145	254.1876	285.2466	302.9901	318.3207	395.4308	405.5543	450.7283	558.0747	579.1393	629.9854	681.8641	788.6241	827.2847	842.0054	873.4001	908.083	945.4648	977.9726	1017.7107	1022.442	1066.9679	1072.8624	1085.6574	1095.9344	1122.5896	1131.6825	1212.3031	1233.4202	1241.5772	1280.341	1306.3965	1327.6608	1346.3463	1382.4084	1399.4934	1419.263	1420.6677	1440.1618	1479.2197	1488.2997	1494.5185	1504.1862	2969.1867	2999.9808	3019.9072	3038.8535	3079.7582	3085.7195	3101.1473	3134.7902	3159.7899	3231.659	3705.6761	3819.1293
CC12CC1CC(O)C2O	C[C@]12C[C@H]1C[C@@H](O)[C@H]2O	
InChI=1S/C7H12O2/c1-7-3-4(7)2-5(8)6(7)9/h4-6,8-9H,2-3H2,1H3	InChI=1S/C7H12O2/c1-7-3-4(7)2-5(8)6(7)9/h4-6,8-9H,2-3H2,1H3/t4-,5-,6-,7+/m1/s1
