17
gdb 108782	2.69191	1.22508	0.86444	5.0629	73.63	-0.2297	-0.0493	0.1804	1285.1171	0.135326	-458.975564	-458.966921	-458.965977	-459.009321	31.293	
O	 0.0532314207	 1.4145753832	-0.0229050219	-0.404648
C	-0.0047892695	 0.0082909532	 0.045045202	-0.153146
C	-1.4302846234	-0.4589594154	 0.0621856949	 0.245067
C	-2.4805849021	 0.3685029024	 0.1613024792	-0.248182
C	-3.8535819883	-0.15038014	 0.074860458	 0.356591
O	-4.8393401628	 0.559067761	 0.0728842925	-0.324986
C	-3.9729966095	-1.6661871758	-0.0899623836	-0.192859
O	-2.8787565541	-2.3736526748	 0.4632176746	-0.237445
C	-1.6383816669	-1.9499381017	-0.0494399047	-0.162142
H	 0.9708117761	 1.6858129963	 0.0681933061	 0.296782
H	 0.5112316497	-0.4646792868	-0.8105339688	 0.106756
H	 0.4933493498	-0.3785143068	 0.9521295165	 0.113174
H	-2.3532652195	 1.4406499712	 0.2511651084	 0.127542
H	-4.875363075	-2.0127071642	 0.4174331846	 0.139072
H	-4.0835026122	-1.8845834547	-1.168082025	 0.110034
H	-1.5224961644	-2.253453557	-1.108358043	 0.107333
H	-0.8705181485	-2.4879054201	 0.5189101803	 0.121056
77.4699	121.2922	148.0545	189.4609	216.1477	268.6647	373.9266	424.7205	465.5058	479.3158	516.7313	597.0884	657.9972	855.1723	872.6912	919.1704	965.7535	996.2486	1024.1106	1057.8262	1089.5579	1150.9969	1162.2541	1223.1387	1231.1699	1259.2209	1273.1553	1305.7888	1331.1365	1358.7982	1412.4262	1459.3404	1465.7536	1482.6893	1498.9356	1698.124	1783.6982	2917.7418	2939.402	2945.8883	2954.693	3055.2333	3117.9414	3213.8532	3843.049
OCC1=CC(=O)COC1	OCC1=CC(=O)COC1	
InChI=1S/C6H8O3/c7-2-5-1-6(8)4-9-3-5/h1,7H,2-4H2	InChI=1S/C6H8O3/c7-2-5-1-6(8)4-9-3-5/h1,7H,2-4H2
