16
gdb 10510	2.77015	1.74182	1.25324	3.4346	61.9	-0.2693	0.0054	0.2747	977.8848	0.128337	-420.875613	-420.867143	-420.866198	-420.908865	30.124	
O	 0.4033118934	 0.9258250629	 0.5983756555	-0.415808
C	-0.2372695779	 0.3350091855	-0.5221199973	-0.13777
C	-1.428371932	-0.5069287051	-0.1180888712	 0.409453
C	-1.9471822914	-1.56532983	-1.0397590847	-0.315423
C	-1.274327724	-1.956979254	 0.2586270004	-0.316872
O	-2.4199444113	 0.2590385042	 0.5464892077	-0.236238
C	-2.260469379	 0.4483089591	 1.8804078693	 0.140513
O	-2.9617635742	 1.1913365177	 2.4994750974	-0.278574
H	 0.0052089584	 1.7872609327	 0.7537161072	 0.300814
H	-0.5607407622	 1.0972793445	-1.2434953231	 0.11149
H	 0.4992883622	-0.3045714737	-1.0205672974	 0.113165
H	-3.0239936542	-1.6716335186	-1.0962571516	 0.137459
H	-1.4215658754	-1.7314456021	-1.9737096338	 0.122326
H	-0.2795565021	-2.3873885856	 0.2267403617	 0.130402
H	-1.9087813876	-2.3442740395	 1.0473910711	 0.130752
H	-1.4407341626	-0.1539435084	 2.3036092788	 0.104312
75.5506	98.1393	174.3047	200.9073	239.8854	277.7166	309.8236	355.9831	453.0873	526.8036	590.613	772.1454	790.5637	914.3801	916.3775	973.539	984.2059	1028.4688	1041.7108	1055.2901	1072.2153	1085.766	1160.1275	1187.1869	1203.108	1293.1739	1335.1993	1394.453	1411.587	1420.8026	1456.7873	1485.8418	1499.6239	1858.0999	3015.5189	3017.7549	3075.8676	3140.1451	3142.6249	3223.6882	3236.8284	3837.4525
OCC1(CC1)OC=O	OCC1(CC1)OC=O	
InChI=1S/C5H8O3/c6-3-5(1-2-5)8-4-7/h4,6H,1-3H2	InChI=1S/C5H8O3/c6-3-5(1-2-5)8-4-7/h4,6H,1-3H2
