17
gdb 34994	2.72826	1.65986	1.44123	5.5147	75.55	-0.242	0.0349	0.2769	961.9516	0.138833	-380.848356	-380.841291	-380.840347	-380.879854	28.119	
N	-0.2723388844	-1.1984234375	-0.272388271	-0.36598
C	-0.0310703774	-0.0768282664	-0.1222395106	 0.321991
C	 0.0713257576	 1.3523928773	 0.0150665393	-0.17977
C	 0.4741659745	 2.0807227627	 1.2892350519	-0.070425
C	 1.2814509172	 1.3771305621	 2.3871820361	-0.244892
C	 2.6569057026	 1.0918114223	 1.785985019	-0.029895
N	 2.6272307248	 0.1312410272	 0.6738817211	-0.313088
C	 2.6772665971	 1.5709830337	 0.3746232026	-0.057681
C	 1.3396843126	 2.1971911049	 0.0525432072	-0.055671
H	-0.7440200239	 1.8416333889	-0.5123709474	 0.13219
H	-0.1886746671	 2.8836058283	 1.592319041	 0.100645
H	 1.3838188541	 2.0572109846	 3.2388296061	 0.108997
H	 0.8004160435	 0.4624836369	 2.7479629788	 0.134117
H	 3.5350324754	 1.129133919	 2.4230325043	 0.092361
H	 3.5405872563	-0.2938244369	 0.5397475478	 0.237085
H	 3.5646487009	 1.9891036083	-0.0872034556	 0.09233
H	 1.339699876	 3.0881726846	-0.5642950904	 0.097688
99.6427	161.393	242.4863	324.4338	374.7087	453.7055	584.7432	632.776	673.7597	727.9129	738.0896	757.7666	834.1775	856.646	869.2289	881.0046	942.7718	955.1876	1007.1592	1030.2149	1044.3604	1055.6947	1084.2866	1118.3579	1140.1794	1158.6005	1216.4162	1217.7205	1234.5742	1315.5182	1319.1962	1365.6375	1377.5524	1407.3958	1431.0962	1475.4798	2350.4073	3052.5957	3094.4028	3137.8373	3158.0844	3167.882	3172.4412	3186.5826	3510.7507
N#CC1C2CC3NC3C12	N#C[C@H]1[C@H]2C[C@H]3N[C@H]3[C@@H]12	
InChI=1S/C7H8N2/c8-2-4-3-1-5-7(9-5)6(3)4/h3-7,9H,1H2	InChI=1S/C7H8N2/c8-2-4-3-1-5-7(9-5)6(3)4/h3-7,9H,1H2/t3-,4+,5-,6-,7-/m1/s1
