17
gdb 47141	3.03216	1.25098	0.94995	2.719	76.28	-0.2415	-0.0469	0.1946	1222.9835	0.136056	-421.843216	-421.835159	-421.834214	-421.876678	29.464	
O	-0.4213277503	 0.5015108534	 1.6539580216	-0.332433
C	-0.2475374362	 1.3803907124	 0.8405637594	 0.319891
C	-1.3312911312	 2.254430065	 0.1938170082	-0.327815
C	-0.5697856796	 3.2354920979	-0.7196477606	-0.268849
C	 0.8774362743	 2.848010559	-0.5534446799	-0.155922
C	 1.0603738217	 1.8222222937	 0.2900849164	 0.195251
C	 2.3298781974	 1.1873264205	 0.6962553413	-0.031948
C	 3.2207237251	 0.5258397521	-0.2762529505	-0.166962
O	 3.5374288966	 1.811789547	 0.249816807	-0.234385
H	-2.0300334563	 1.6145921124	-0.3532840074	 0.136449
H	-1.9097501936	 2.7538414025	 0.9761714241	 0.137351
H	-0.8775122141	 3.1621186224	-1.7699375453	 0.122842
H	-0.7271082228	 4.2828228813	-0.4345147265	 0.125494
H	 1.6830071202	 3.3671085859	-1.061215721	 0.126375
H	 2.3499488922	 0.8213623841	 1.7219001447	 0.115847
H	 3.8640286012	-0.2889646049	 0.0527047461	 0.12376
H	 2.9327784553	 0.5069930953	-1.3261078378	 0.115054
68.252	90.8469	154.3089	163.4284	278.5061	319.642	445.9877	546.7773	584.9285	641.5642	708.7528	788.2989	808.7024	853.3095	893.8189	906.9214	930.7183	989.356	1017.5447	1026.901	1064.6185	1095.9461	1151.8464	1153.652	1170.3521	1211.6722	1230.8482	1266.3011	1273.8633	1315.3911	1327.2189	1436.9966	1449.9928	1482.5813	1520.9139	1694.9715	1806.0076	3030.9835	3054.9271	3067.1041	3084.4462	3107.3234	3126.7128	3177.0984	3201.45
O=C1CCC=C1C1CO1	O=C1CCC=C1[C@H]1CO1	
InChI=1S/C7H8O2/c8-6-3-1-2-5(6)7-4-9-7/h2,7H,1,3-4H2	InChI=1S/C7H8O2/c8-6-3-1-2-5(6)7-4-9-7/h2,7H,1,3-4H2/t7-/m1/s1
