13
gdb 11148	6.78137	1.27496	1.08035	2.6554	71.97	-0.2115	-0.0296	0.1819	1008.2909	0.09535	-361.482406	-361.475279	-361.474335	-361.513688	26.768	
O	-0.0140137794	-0.0100051086	 0.0029840132	-0.35815
C	-0.0397983401	 1.1959844004	 0.0099373334	 0.422983
C	-1.2504809233	 2.1404787274	 0.0316887633	-0.465306
C	-0.6328378292	 3.5270035753	 0.0309859839	 0.113578
C	 0.7081727136	 3.3768652661	 0.0114892714	-0.106156
N	 1.070550163	 2.0333286397	-0.0007953977	-0.315911
C	-1.3595076171	 4.7304947364	 0.047700558	 0.222799
C	-2.0254178936	 5.7360973243	 0.0624691514	-0.429183
H	-1.8846688523	 1.9510503113	-0.8405848255	 0.157702
H	-1.8606612969	 1.9412754797	 0.9187766616	 0.157689
H	 1.4682007254	 4.1440867836	 0.0051844631	 0.141003
H	 2.0133018721	 1.680804937	-0.0155602409	 0.267741
H	-2.6005738021	 6.6281507673	 0.0754005149	 0.191212
105.4296	147.7849	201.6397	393.3245	431.6539	495.002	516.6038	518.2365	542.3009	559.6463	586.5912	656.9187	734.2222	845.2479	880.3998	909.1118	951.6511	1090.5122	1147.1789	1171.8861	1205.7334	1291.1403	1331.5966	1408.9154	1433.473	1658.5234	1846.1272	2220.1892	3058.7693	3095.3834	3250.0775	3505.0006	3663.4192
O=C1CC(=CN1)C#C	O=C1CC(=CN1)C#C	
InChI=1S/C6H5NO/c1-2-5-3-6(8)7-4-5/h1,4H,3H2,(H,7,8)	InChI=1S/C6H5NO/c1-2-5-3-6(8)7-4-5/h1,4H,3H2,(H,7,8)
