19
gdb 77420	1.93583	1.65006	1.61525	0.9439	74.9	-0.2222	0.0607	0.2829	1037.7096	0.155999	-422.939653	-422.930392	-422.929448	-422.973512	34.779	
C	-0.0418650028	 1.6236204062	 0.0388828964	-0.407879
C	 0.1569840419	 0.1115179733	-0.035741857	-0.126027
C	 0.688338927	-0.7434436955	-1.1798212499	 0.213871
C	-0.0845192205	-1.8394771555	-1.8542000247	-0.494694
C	 1.9889585364	-0.1430881323	-1.8150841068	-0.028946
O	 2.3568640805	 1.0888495362	-1.1698308984	-0.240263
C	 2.6773423632	-0.1522918422	-0.5311587255	-0.058982
C	 1.3989232292	-0.7257288226	 0.1691063187	 0.282365
O	 1.4826607872	-1.7727213517	 1.0701676039	-0.456775
H	 0.6764005306	 2.0960001697	 0.7139589695	 0.119747
H	 0.0712553064	 2.1013159835	-0.9346083547	 0.131784
H	-1.0475975334	 1.8459819064	 0.4113241413	 0.09891
H	-0.6651558208	-0.4412459217	 0.4212916987	 0.092851
H	-0.7120527055	-1.4488973039	-2.6645384267	 0.120634
H	 0.5843075389	-2.593146249	-2.2862720193	 0.120538
H	-0.7371176633	-2.350164271	-1.1398720811	 0.129272
H	 2.3479480304	-0.3085107922	-2.8243344461	 0.105927
H	 3.7084633218	-0.3513449788	-0.2625940552	 0.109861
H	 1.5040081528	-1.405987319	 1.9615897867	 0.287805
51.4347	153.8476	174.6292	199.1835	243.0217	258.2901	276.4411	331.5203	353.2625	425.0107	556.632	586.1379	608.4052	729.9896	762.975	780.0428	822.252	855.3237	882.5146	958.6035	970.4453	1039.8917	1044.2887	1082.4194	1101.1179	1111.8325	1151.3949	1174.152	1191.4494	1250.6913	1290.0896	1317.9207	1340.1066	1373.1981	1412.8743	1421.7571	1481.704	1487.3313	1493.8749	1494.7184	1504.0188	3019.8037	3040.7461	3075.1876	3094.2258	3103.7271	3109.5231	3138.6569	3176.4392	3191.985	3780.4311
CC1C2(C)C3OC3C12O	C[C@H]1[C@@]2(C)[C@H]3O[C@H]3[C@@]12O	
InChI=1S/C7H10O2/c1-3-6(2)4-5(9-4)7(3,6)8/h3-5,8H,1-2H3	InChI=1S/C7H10O2/c1-3-6(2)4-5(9-4)7(3,6)8/h3-5,8H,1-2H3/t3-,4-,5+,6-,7-/m0/s1
