19
gdb 38100	2.64216	2.02678	1.50257	1.6029	79.73	-0.2313	0.005	0.2363	935.3266	0.162757	-385.868618	-385.86194	-385.860996	-385.899229	28.349	
C	-0.1107570419	 1.4391774394	-0.0827825292	-0.293476
C	 1.2628308528	 0.786081141	 0.0816411388	-0.064288
C	 2.0617935786	 0.9115760218	 1.3272189148	-0.056577
C	 1.8529431611	 0.3067093965	 2.5014458383	-0.074184
C	 0.6945244225	-0.6117787554	 2.7740094425	 0.053814
C	 0.5025619329	-1.7841818954	 1.7727862191	-0.274036
C	-0.5266094451	-0.8358261223	 1.1218875133	 0.07607
O	-0.5664091653	-0.027127477	 2.3201415553	-0.286286
C	 0.0134203876	-0.0577162308	-0.0601835733	-0.03677
H	-0.5304659006	 1.8931017132	 0.8065624304	 0.14004
H	-0.328452761	 1.9411062349	-1.0190754573	 0.108337
H	 1.8757860682	 0.8398765575	-0.8147821012	 0.087359
H	 2.9185315046	 1.5781647014	 1.2432060694	 0.090669
H	 2.5333947618	 0.5041599729	 3.3253938447	 0.084471
H	 0.6385803361	-0.8722405441	 3.8348726691	 0.073971
H	 1.3655423997	-2.0766695925	 1.1742749129	 0.107514
H	 0.0466258723	-2.6599418559	 2.2385268671	 0.10569
H	-1.5170848366	-1.2453286135	 0.8933160393	 0.074198
H	-0.0912081078	-0.5809247017	-1.0080603142	 0.083484
205.5833	218.0748	306.8614	350.2556	404.996	477.5959	550.6278	616.2895	726.2944	741.9195	754.6463	820.1121	822.3638	854.406	894.5778	903.6223	933.1687	967.6554	984.6296	998.2098	1017.0062	1045.4578	1078.0056	1087.6139	1113.1532	1126.9883	1141.4264	1152.3872	1204.8807	1230.5938	1252.5981	1260.3237	1306.377	1349.4145	1378.2617	1387.6938	1408.7749	1429.0242	1477.7042	1489.8889	1704.524	3039.5317	3061.6048	3080.0728	3124.8184	3132.467	3137.7044	3142.5071	3143.191	3166.9447	3239.1803
C1C2C=CC3CC(O3)C12	C1[C@H]2C=C[C@@H]3C[C@@H](O3)[C@@H]12	
InChI=1S/C8H10O/c1-2-6-4-8(9-6)7-3-5(1)7/h1-2,5-8H,3-4H2	InChI=1S/C8H10O/c1-2-6-4-8(9-6)7-3-5(1)7/h1-2,5-8H,3-4H2/t5-,6-,7+,8-/m1/s1
