25
gdb 116446	2.43651	1.1998	0.93713	1.5526	88.19	-0.2544	0.0635	0.3178	1393.6873	0.230438	-389.520689	-389.510931	-389.509987	-389.554938	37.952	
C	-0.0658702539	 1.5562777371	-0.0981959236	-0.394874
C	 0.0003170736	 0.0281570102	-0.0091842314	-0.17613
C	 0.6913398117	-0.5154330487	 1.2521981392	 0.031731
C	-0.029819957	-0.1347340337	 2.5597917511	-0.207717
C	 0.6905019806	-0.6879976763	 3.7987598938	-0.194657
C	 0.8858623025	-2.207268723	 3.7080723749	-0.20083
C	 1.6003256823	-2.5977929247	 2.4053797881	-0.218792
C	 0.8789248207	-2.0479929663	 1.1651398945	 0.125315
O	-0.3540383482	-2.7311906248	 0.9290494286	-0.443089
H	 0.9324728704	 2.0038859666	-0.0278232672	 0.10934
H	-0.5022962485	 1.8713464769	-1.0513232338	 0.111298
H	-0.6790171909	 1.989353629	 0.6982530106	 0.11566
H	-1.0076956852	-0.3969418188	-0.0717204487	 0.102434
H	 0.5377955294	-0.3558770203	-0.8862457122	 0.089315
H	 1.7040447151	-0.0844111982	 1.2971469357	 0.06269
H	-0.1192181085	 0.9531065449	 2.6392839416	 0.097153
H	-1.0616590568	-0.5172361586	 2.5308002943	 0.082289
H	 1.673705238	-0.2049370216	 3.8861900229	 0.094374
H	 0.1357596236	-0.4276759181	 4.7073900564	 0.090186
H	 1.4505628388	-2.5757055723	 4.5712919587	 0.095411
H	-0.0931540522	-2.7063593928	 3.7608807054	 0.084789
H	 2.6230905844	-2.1985461584	 2.4212162835	 0.091867
H	 1.6804919402	-3.6863175076	 2.3163786745	 0.09842
H	 1.4775550933	-2.273250279	 0.2746678779	 0.074861
H	-0.9069033033	-2.6350123814	 1.710712715	 0.278959
78.9208	119.5895	166.4849	202.8271	230.4254	248.4034	296.9685	313.0744	345.0833	395.6287	425.5085	502.702	562.9783	654.4671	750.4645	784.945	821.4754	850.2379	876.8331	907.6059	922.5937	980.9117	1002.7997	1014.4366	1040.4121	1048.9934	1084.8102	1099.2419	1115.1088	1144.4141	1164.4775	1221.8724	1235.4011	1264.3959	1287.6838	1299.6822	1325.129	1336.8307	1346.8378	1368.0105	1376.7986	1380.2144	1389.4744	1399.1981	1413.8909	1429.7728	1475.9654	1487.2408	1491.1865	1493.6604	1501.9247	1506.4282	1508.4181	2980.0591	2996.9565	2997.2704	3014.2823	3019.867	3021.8814	3029.5423	3041.8595	3060.9026	3064.1063	3064.2885	3073.3691	3075.3566	3096.2557	3103.3314	3818.6316
CCC1CCCCC1O	CC[C@H]1CCCC[C@H]1O	
InChI=1S/C8H16O/c1-2-7-5-3-4-6-8(7)9/h7-9H,2-6H2,1H3	InChI=1S/C8H16O/c1-2-7-5-3-4-6-8(7)9/h7-9H,2-6H2,1H3/t7-,8+/m0/s1
