13
gdb 42605	2.71121	2.18984	1.50471	4.4679	62.56	-0.2752	-0.0283	0.2469	836.1376	0.090693	-452.72745	-452.721315	-452.720371	-452.758086	24.224	
N	-0.0701214344	 1.2015721384	-0.2274308632	-0.53461
C	-0.0657484691	-0.0333622074	-0.0411800698	 0.393994
C	-1.0964887811	-1.0735092456	 0.1676199345	-0.18195
C	-0.6088081667	-2.358989532	-0.5427425258	 0.079029
O	 0.3132776047	-2.2594548043	-1.6074748246	-0.219944
C	 1.3666367446	-1.490436738	-1.1653133728	 0.437976
O	 2.3132836518	-1.2191902835	-1.8260844272	-0.316688
N	 1.0590932299	-1.0131374191	 0.1772339479	-0.253782
C	 0.0353228232	-1.9648180135	 0.7125465847	-0.067819
H	 0.8780413703	 1.5764863763	-0.2900763097	 0.250752
H	-2.1222297456	-0.9521328162	 0.4882694724	 0.129073
H	-1.3003574378	-3.1830631015	-0.6483399901	 0.147156
H	 0.1678564004	-2.4768314137	 1.6546997636	 0.136814
142.8096	151.3061	407.5918	431.4662	502.7112	601.2684	666.9833	701.0456	764.8648	781.1406	809.6275	839.1492	841.2119	885.2377	914.9698	942.5048	983.5903	1014.0103	1027.0858	1052.038	1074.4987	1076.512	1132.516	1190.982	1278.3743	1290.9386	1396.2452	1824.3388	1928.3595	3217.362	3222.8811	3234.8425	3480.971
N=C1C2C3OC(=O)N1C23	[NH][C]1[C@H]2[C@H]3OC(=O)N1[C@@H]23	
InChI=1S/C5H4N2O2/c6-4-1-2-3(1)9-5(8)7(2)4/h1-3,6H	InChI=1S/C5H4N2O2/c6-4-1-2-3(1)9-5(8)7(2)4/h1-3,6H/t1-,2+,3-/m1/s1
