18
gdb 74085	2.96907	1.38602	1.02759	5.8247	82.44	-0.2185	-0.0092	0.2093	1162.237	0.148794	-401.990151	-401.981937	-401.980992	-402.02272	32.188	
N	 0.0475425595	 1.3405321373	-0.0873904792	-0.576558
C	-0.027044519	-0.0161579562	-0.0335176108	 0.379
C	-1.1377910453	-0.7963610036	-0.0195219199	-0.332597
C	-0.7678370745	-2.2053263097	-0.0127408338	 0.363062
O	-1.4927658301	-3.1834209078	 0.0025339347	-0.390672
C	 0.7469545351	-2.2643872609	-0.0229201331	 0.238098
C	 1.4126182488	-3.3921186803	 0.7321094156	-0.298607
C	 1.402394317	-3.4056978871	-0.7662843129	-0.298405
C	 1.2513138262	-0.8301609654	-0.0401622791	-0.418653
H	 0.9166807916	 1.789955296	 0.1479720533	 0.260408
H	-0.7823626701	 1.8834194827	 0.0871943877	 0.263774
H	-2.16362893	-0.4520722193	-0.0129575328	 0.092063
H	 2.3458494674	-3.1762901408	 1.242130838	 0.105406
H	 0.7459248075	-4.0775950545	 1.2443556266	 0.134224
H	 0.7287215098	-4.1001007541	-1.2568923682	 0.134523
H	 2.3283055354	-3.1991327043	-1.2930752116	 0.106173
H	 1.8480054919	-0.5935031198	-0.9302102668	 0.123712
H	 1.8682027789	-0.5816164022	 0.8338841523	 0.115049
80.618	169.4469	240.8312	244.2818	314.9819	340.2346	362.4363	441.7858	470.7577	549.1557	556.833	624.3899	724.8133	743.6183	789.6996	849.7428	863.7694	887.4596	911.9913	952.2768	1000.0835	1024.695	1064.0328	1078.9468	1089.0171	1157.9464	1187.0377	1202.7854	1240.6787	1277.2049	1299.662	1374.5295	1408.1315	1449.9467	1476.5409	1485.7555	1635.9614	1678.6877	1784.2039	3014.1079	3047.2616	3125.9333	3127.8788	3212.4289	3216.8312	3226.6549	3597.1162	3709.6186
NC1=CC(=O)C2(CC2)C1	NC1=CC(=O)C2(CC2)C1	
InChI=1S/C7H9NO/c8-5-3-6(9)7(4-5)1-2-7/h3H,1-2,4,8H2	InChI=1S/C7H9NO/c8-5-3-6(9)7(4-5)1-2-7/h3H,1-2,4,8H2
