15
gdb 30039	3.31311	1.69517	1.17834	3.9881	72.98	-0.2198	-0.0328	0.187	984.6669	0.115275	-416.835793	-416.828844	-416.8279	-416.86719	26.957	
O	 0.1349467255	 1.4032111199	-0.1881671322	-0.409568
C	 0.0255118816	 0.0010038817	-0.0344059616	-0.041048
C	 0.6144841482	-0.5554694452	 1.2668191976	-0.169559
C	-0.292468615	-1.2979006065	 1.9097390793	-0.037334
N	-1.498491999	-1.3099135341	 1.174853113	 0.005797
C	-2.7854906245	-1.7890603233	 1.2211285519	-0.154583
C	-3.3815398436	-1.2787939156	 0.0901240183	-0.095523
N	-2.4988695725	-0.5052913223	-0.6434073996	-0.351605
C	-1.3836331984	-0.5498742884	 0.041248912	 0.322506
H	-0.4618009482	 1.815384501	 0.4465971787	 0.28774
H	 0.5592280968	-0.4200889348	-0.8955654687	 0.128762
H	 1.625342492	-0.3577402871	 1.5899045798	 0.123541
H	-0.2191535784	-1.8408176128	 2.8408433183	 0.144048
H	-3.1460084021	-2.4261190802	 2.010974087	 0.134549
H	-4.3992729424	-1.4257649923	-0.2381289538	 0.112278
127.5184	142.5629	254.094	310.1099	362.7438	498.2279	566.2186	630.879	669.1978	704.8557	719.5135	734.2636	783.3969	842.1535	857.5465	910.4921	940.2125	977.3233	1067.8177	1085.8904	1098.5398	1145.1625	1197.4677	1243.5481	1259.4575	1286.1765	1310.2424	1403.0256	1421.671	1448.3548	1490.8155	1576.735	1651.754	3040.5009	3239.0808	3250.567	3263.9209	3283.7874	3804.0265
OC1C=CN2C=CN=C12	O[C@H]1C=Cn2ccnc12	
InChI=1S/C6H6N2O/c9-5-1-3-8-4-2-7-6(5)8/h1-5,9H	InChI=1S/C6H6N2O/c9-5-1-3-8-4-2-7-6(5)8/h1-5,9H/t5-/m0/s1
