17
gdb 42346	3.32227	1.0589	0.95862	2.9338	68.93	-0.2527	-0.0449	0.2077	1253.001	0.135005	-458.921208	-458.912666	-458.911722	-458.956456	29.773	
O	-0.2385406907	 0.1637123154	 1.5777858495	-0.315728
C	-0.11192573	 1.1816749116	 0.9327313701	 0.355738
C	 1.1002127693	 2.0462443965	 1.1511386208	-0.015525
C	 1.8684050391	 2.5811255313	 0.006564863	-0.181423
O	 1.0248459736	 3.4241730535	 0.7736588346	-0.213102
C	-1.1227107656	 1.6066793497	-0.1097344233	-0.16872
C	-1.349462674	 0.5998580864	-1.2755710055	-0.069921
O	-2.7461602397	 0.4761109034	-0.971855038	-0.266554
C	-2.6018703579	 1.2815978459	 0.2141370112	-0.076889
H	 1.6268415225	 1.8370036162	 2.0801510132	 0.122004
H	 2.9382106178	 2.7392606921	 0.1290573754	 0.137865
H	 1.5360345807	 2.38076028	-1.0109076139	 0.128369
H	-0.9505854473	 2.6316367866	-0.4341409077	 0.108822
H	-1.1754646267	 0.9962063742	-2.2826168289	 0.106264
H	-0.8154286689	-0.3507230608	-1.1538440774	 0.115644
H	-2.726684351	 0.6903755688	 1.1279515973	 0.124249
H	-3.2862640813	 2.1365348892	 0.2181838397	 0.108906
20.8484	87.7954	89.9111	176.8422	208.3233	288.9407	297.5153	478.6729	539.4268	697.0481	741.2393	823.6342	869.4949	884.9385	895.4825	929.7818	957.654	1012.5928	1052.2318	1063.525	1089.6146	1116.0285	1149.5121	1165.7287	1173.4993	1179.6785	1197.9836	1260.0441	1266.1655	1315.7947	1374.8961	1378.1548	1391.2659	1503.0685	1520.9937	1527.3044	1794.7109	3014.2504	3032.492	3064.0354	3083.9143	3090.181	3130.2855	3143.2127	3181.7081
O=C(C1CO1)C1COC1	O=C([C@H]1CO1)C1COC1	
InChI=1S/C6H8O3/c7-6(5-3-9-5)4-1-8-2-4/h4-5H,1-3H2	InChI=1S/C6H8O3/c7-6(5-3-9-5)4-1-8-2-4/h4-5H,1-3H2/t5-/m1/s1
