12
gdb 43621	6.3537	0.64923	0.63985	4.0194	74.71	-0.2976	-0.0729	0.2248	1628.6702	0.077185	-435.489605	-435.481805	-435.480861	-435.523072	27.209	
O	 0.1613777621	 0.3051010379	-0.716984287	-0.290807
C	-0.0194867967	 1.3097223064	-0.1177763113	 0.46011
C	-1.1990675695	 2.1689262536	 0.3373951955	-0.423366
C	-0.0923568497	 3.0468920253	 0.9763589371	-0.082821
O	 0.9319338487	 2.1325445194	 0.4515914526	-0.230638
C	 0.0604663594	 4.397844658	 0.4828330755	 0.173956
C	 0.1731708004	 5.531980942	 0.0844097434	 0.014998
C	 0.2976071224	 6.8147608825	-0.3671901918	 0.221962
N	 0.3990101366	 7.9064148249	-0.7499250033	-0.321858
H	-1.7608616327	 2.6314686765	-0.4741913212	 0.168063
H	-1.8786134421	 1.6810723706	 1.036589827	 0.163295
H	-0.0740972586	 3.0298203029	 2.0695026436	 0.147105
58.6631	91.3243	145.5094	233.3524	270.8542	431.7032	451.3105	518.5107	541.847	574.2284	595.2412	691.5693	769.9926	892.0614	914.2011	969.662	1018.9531	1100.9529	1124.9348	1193.5182	1223.4272	1265.8773	1365.7955	1452.9064	1960.9627	2270.2886	2403.646	3079.9934	3102.911	3165.9347
O=C1CC(O1)C#CC#N	O=C1C[C@@H](O1)C#CC#N	
InChI=1S/C6H3NO2/c7-3-1-2-5-4-6(8)9-5/h5H,4H2	InChI=1S/C6H3NO2/c7-3-1-2-5-4-6(8)9-5/h5H,4H2/t5-/m0/s1
