17
gdb 75747	2.92174	1.54451	1.12314	3.1795	76.91	-0.2448	-0.0534	0.1914	1069.1462	0.136151	-421.844339	-421.836474	-421.83553	-421.876722	30.542	
O	 0.1824401582	 1.2715276733	-0.3864796763	-0.439863
C	 0.0266380353	-0.083540419	-0.0587580908	-0.037873
C	 0.5337614711	-0.3940335059	 1.3621286032	 0.333639
O	 1.4861668772	 0.1709732669	 1.8565836623	-0.352051
C	-0.3849038433	-1.3846785936	 1.9433913932	-0.215248
C	-1.4780245442	-1.4694828142	 1.161400428	-0.105581
C	-1.4104786121	-0.6017241033	-0.0339704139	 0.289162
C	-2.5745794117	 0.2930036794	-0.4197933141	-0.294851
C	-2.2139386843	-0.8762567758	-1.2858176301	-0.322647
H	 0.8995724556	 1.5920113657	 0.1808562411	 0.293932
H	 0.6129648641	-0.7190677488	-0.7473578819	 0.095746
H	-0.2176767072	-1.8822185279	 2.8891681565	 0.12184
H	-2.3460837513	-2.0889725502	 1.3660705312	 0.120847
H	-3.4775896481	 0.2389242595	 0.1782942998	 0.118083
H	-2.2985812341	 1.2870691418	-0.7510642652	 0.150116
H	-1.7234620212	-0.6800714136	-2.2335518893	 0.129998
H	-2.8698715342	-1.7409156744	-1.2897147536	 0.114751
68.3811	198.3574	238.513	259.9281	278.5544	363.415	386.6832	468.8246	522.9485	581.2133	678.6212	707.6851	784.1913	795.2898	817.3656	874.344	921.3977	940.4715	958.8923	999.0966	1005.5756	1059.9338	1083.384	1092.4518	1140.6265	1187.5126	1196.3991	1217.7697	1295.1858	1311.7447	1361.5926	1375.7933	1426.2185	1464.3743	1497.0134	1610.52	1805.133	2936.3704	3127.6075	3141.0374	3181.9575	3211.9683	3231.9308	3236.8087	3720.4621
OC1C(=O)C=CC11CC1	O[C@H]1C(=O)C=CC21CC2	
InChI=1S/C7H8O2/c8-5-1-2-7(3-4-7)6(5)9/h1-2,6,9H,3-4H2	InChI=1S/C7H8O2/c8-5-1-2-7(3-4-7)6(5)9/h1-2,6,9H,3-4H2/t6-/m0/s1
