19
gdb 66683	2.50469	1.96792	1.62532	1.2449	78.37	-0.2273	0.0772	0.3045	932.5765	0.159525	-385.818066	-385.81061	-385.809665	-385.849346	30.796	
C	-0.0693309396	 1.429558535	-0.0141475768	-0.515823
C	 0.0043370664	-0.0645227886	 0.0498941648	 0.311585
C	 0.1713995575	-1.0829618793	-1.0782442604	-0.260006
C	 0.5717925338	-2.1001428724	 0.0296042631	-0.044399
C	 0.6860952069	-0.9636887961	 1.114420895	-0.103127
C	-0.4454195175	-1.6249671165	 1.9427713455	-0.256229
C	-0.9077503587	-2.1885690908	 0.5760119046	-0.121963
C	-1.1559491673	-0.9719857383	-0.3480410269	 0.350948
O	-2.3549167011	-0.4178857813	-0.7442018771	-0.465628
H	 0.9200231449	 1.8786836237	-0.1555633647	 0.113406
H	-0.7109208596	 1.7476302588	-0.8414329665	 0.129536
H	-0.4954813166	 1.8422730035	 0.9082312006	 0.119464
H	 0.4496128812	-0.9533216601	-2.1163429511	 0.084431
H	 1.2408254945	-2.9518947437	-0.0620028229	 0.066827
H	 1.6265908442	-0.6316392188	 1.5551176572	 0.05904
H	-0.0594068599	-2.4112709363	 2.5995519222	 0.093726
H	-1.1348579046	-0.9813840196	 2.4989179565	 0.094672
H	-1.5404932453	-3.0707148952	 0.4712869482	 0.056851
H	-2.7487910991	-0.9914951041	-1.4102501615	 0.286689
175.0144	199.6812	219.0888	262.706	348.1683	391.8875	456.6638	526.4951	636.6697	648.1551	734.6441	759.5571	781.1225	824.4872	837.5425	871.797	879.9323	903.3899	912.4206	967.017	991.2724	1020.5178	1029.6663	1072.8184	1100.9272	1113.5047	1137.9419	1165.2919	1172.5777	1195.0729	1217.3335	1240.7371	1252.1908	1268.7731	1296.6706	1369.1236	1416.234	1458.9404	1485.3099	1487.6835	1498.5188	3022.984	3039.5768	3079.2911	3095.3597	3105.5705	3107.1773	3108.4861	3146.3114	3194.1689	3796.9453
CC12C3C4C1CC4C23O	C[C@@]12[C@H]3[C@H]4[C@@H]1C[C@H]4[C@@]23O	
InChI=1S/C8H10O/c1-7-3-2-4-5(3)6(7)8(4,7)9/h3-6,9H,2H2,1H3	InChI=1S/C8H10O/c1-7-3-2-4-5(3)6(7)8(4,7)9/h3-6,9H,2H2,1H3/t3-,4+,5-,6+,7-,8-/m0/s1
