18
gdb 105708	2.45546	1.18159	0.99365	4.7569	69.26	-0.2646	0.0018	0.2663	1245.6661	0.146635	-476.20701	-476.197652	-476.196707	-476.242247	33.184	
O	 0.3410135699	 1.2516270698	 0.2278036735	-0.418465
C	 0.1192255937	-0.094157793	-0.1482196362	-0.148649
C	-1.3573349493	-0.4533298157	-0.21792407	 0.307576
C	-2.099049302	 0.0438062595	-1.4365345533	-0.159948
O	-1.9879819147	 1.4767493917	-1.5337158971	-0.204678
C	-2.9599534042	 2.2168838281	-0.9450767611	 0.184478
O	-2.8814063149	 3.4034692564	-0.8550413531	-0.275071
C	-1.8397530676	-1.6797390298	 0.4700187916	-0.289859
N	-2.1515933583	-0.3508253375	 1.0164923655	-0.340687
H	-0.0952490428	 1.8130033657	-0.4243987957	 0.30278
H	 0.6007612527	-0.3335130515	-1.1104731408	 0.094162
H	 0.6082404711	-0.7041600332	 0.6191527791	 0.106245
H	-1.6660699269	-0.3477730701	-2.3610941452	 0.126744
H	-3.1536291653	-0.2479179634	-1.3861994511	 0.121637
H	-3.8054442432	 1.604079046	-0.58689543	 0.103704
H	-2.6935190856	-2.2285637929	 0.0807400081	 0.120951
H	-1.1009194174	-2.2981790139	 0.9729526646	 0.122299
H	-1.5406209651	-0.1206285962	 1.7968780913	 0.246782
56.366	60.8647	97.9971	145.3954	222.075	285.1421	312.4297	328.0813	398.7313	459.1411	489.6927	532.2224	670.8209	769.2489	887.6577	911.1236	937.1479	944.6348	995.7413	1016.2575	1034.0774	1056.0747	1078.3999	1088.991	1129.5162	1154.1518	1210.8268	1258.7359	1292.324	1348.4395	1367.3625	1388.3005	1410.821	1431.1407	1446.2248	1487.5599	1500.6581	1517.2539	1867.3188	2972.4752	2993.7124	3046.7485	3066.3685	3105.8173	3106.946	3189.963	3502.316	3792.1636
OCC1(COC=O)CN1	OC[C@@]1(COC=O)CN1	
InChI=1S/C5H9NO3/c7-2-5(1-6-5)3-9-4-8/h4,6-7H,1-3H2	InChI=1S/C5H9NO3/c7-2-5(1-6-5)3-9-4-8/h4,6-7H,1-3H2/t5-/m1/s1
