15
gdb 76457	2.44435	1.33464	1.24917	2.0406	71.02	-0.2494	-0.0518	0.1976	1072.2563	0.108875	-457.715007	-457.706092	-457.705148	-457.748097	33.498	
O	 0.2197854432	 1.2807663458	-0.1980967701	-0.409451
C	 0.0936549845	-0.0597874633	 0.0341010207	 0.067306
C	-0.4874035018	-0.6316813681	 1.2562468395	 0.067316
O	-0.9663411016	 0.1133496946	 2.2966537609	-0.409445
C	-1.3444937351	-0.7731869335	-0.1004956641	-0.122646
C	-2.4564117969	 0.1600635252	-0.1924567686	 0.112666
O	-2.4483231638	 1.2741163739	 0.33266689	-0.360202
C	-1.4374750605	-2.043962151	-0.7393486549	 0.206465
C	-1.4901763835	-3.1234409454	-1.2695308603	-0.380579
H	-0.5937077918	 1.7240475308	 0.0974288657	 0.308343
H	 0.8664398354	-0.6302185176	-0.4703912863	 0.145936
H	-0.1127293383	-1.5939393614	 1.5890805798	 0.145938
H	-1.4672851356	 0.864228237	 1.9349369445	 0.308342
H	-3.3354261107	-0.177530022	-0.7682916293	 0.122363
H	-1.5456506936	-4.073636405	-1.7405308376	 0.197645
134.1472	143.2692	173.935	208.0702	219.5171	281.0442	341.5193	420.0592	448.8466	491.355	527.1404	550.0565	571.8516	593.1327	626.5042	672.321	715.257	739.0825	880.9135	976.702	1031.7895	1071.6928	1129.5773	1157.4836	1241.6709	1298.8947	1350.9792	1381.3235	1417.9045	1424.0221	1500.8957	1695.5133	2230.0723	2987.539	3176.1455	3185.2226	3501.1904	3635.9949	3657.7596
OC1C(O)C1(C=O)C#C	O[C@H]1[C@@H](O)[C@]1(C=O)C#C	
InChI=1S/C6H6O3/c1-2-6(3-7)4(8)5(6)9/h1,3-5,8-9H	InChI=1S/C6H6O3/c1-2-6(3-7)4(8)5(6)9/h1,3-5,8-9H/t4-,5+,6-
