19
gdb 82245	2.36019	2.05066	1.44563	2.8133	72.72	-0.2478	0.0585	0.3064	954.1129	0.16206	-422.998191	-422.99106	-422.990116	-423.02959	29.263	
O	-0.0101115359	 1.4396378842	-0.1215204429	-0.439188
C	-0.0258687173	 0.0322964325	-0.0004625851	 0.109261
C	-1.4118035574	-0.6176879667	 0.0501298542	-0.056992
C	-2.2953816901	-0.4515315023	-1.1549955739	-0.297505
C	-1.4848788932	-1.7167557411	-0.9942227688	-0.057128
C	-0.1453114819	-1.8132692893	-1.7231492293	-0.075118
C	-0.0220519986	-1.0836257373	-3.076933608	-0.093588
O	 0.5295748363	 0.094321634	-2.4302423201	-0.313053
C	 0.7038730383	-0.6406230291	-1.1863071634	 0.073827
H	-0.0857296751	 1.6242045025	-1.0673943787	 0.292243
H	 0.5049477728	-0.2012311021	 0.9298184599	 0.081802
H	-1.8788464561	-0.7335973643	 1.0215678756	 0.084618
H	-3.3665174876	-0.5273811979	-1.0027604772	 0.111529
H	-2.0091206405	 0.2712227962	-1.9108782079	 0.120837
H	-2.0198274526	-2.6383961359	-0.7949075296	 0.084336
H	 0.2777571623	-2.8171900055	-1.675158979	 0.077318
H	 0.7084125161	-1.5254956108	-3.7651735916	 0.104527
H	-0.9488139208	-0.865079498	-3.6163070484	 0.111142
H	 1.7667526513	-0.8196622389	-0.9917249858	 0.081133
101.021	213.6921	262.2173	293.6817	426.5092	463.1261	497.5642	527.5289	623.134	699.778	763.2728	797.7103	821.8701	855.678	880.6396	922.169	948.2122	987.6692	994.8748	1011.654	1023.5043	1077.9041	1084.9894	1101.9933	1108.0196	1113.1366	1117.6643	1167.8243	1205.6468	1224.0707	1252.667	1269.8368	1310.4962	1328.0361	1331.1337	1354.9472	1366.2192	1395.5247	1443.5691	1490.7421	1521.6379	3025.7745	3036.122	3053.3292	3082.7879	3104.3522	3136.1432	3165.8077	3175.2373	3218.6401	3756.3213
OC1C2CC2C2COC12	O[C@H]1[C@H]2C[C@H]2[C@H]2CO[C@@H]12	
InChI=1S/C7H10O2/c8-6-4-1-3(4)5-2-9-7(5)6/h3-8H,1-2H2	InChI=1S/C7H10O2/c8-6-4-1-3(4)5-2-9-7(5)6/h3-8H,1-2H2/t3-,4+,5-,6+,7-/m1/s1
