18
gdb 117057	3.2895	0.89119	0.7477	2.4419	71.19	-0.2766	-0.0743	0.2022	1522.7268	0.145194	-476.241244	-476.231257	-476.230313	-476.277007	34.948	
C	-0.2101414342	 1.0022314557	-0.4191877671	-0.388338
C	-0.673755482	-0.4442831012	-0.3406214083	-0.055675
O	-0.008794707	-1.274172555	-1.3191980486	-0.253255
C	 1.2048096686	-1.7485909764	-1.0039763387	 0.328733
N	 1.8108291686	-1.5134014257	 0.0829200222	-0.512166
C	 1.7662769861	-2.6195423566	-2.116918092	 0.282842
O	 2.852993457	-3.1405263964	-1.9856934069	-0.323589
C	 0.9604714096	-2.8279244674	-3.381094705	-0.125565
O	 1.6336876479	-3.6488747221	-4.2873474	-0.421942
H	 0.8436070157	 1.0865942143	-0.1460658198	 0.150694
H	-0.3526756212	 1.4017758185	-1.4274039717	 0.125739
H	-0.796101555	 1.610869087	 0.2768275383	 0.124677
H	-0.4927390175	-0.864333518	 0.6518150938	 0.140436
H	-1.7338199843	-0.5366632022	-0.5880919665	 0.117325
H	 2.7041375672	-2.0089046045	 0.0688783676	 0.249309
H	-0.0165761664	-3.2495047381	-3.0956156567	 0.132611
H	 0.7411151871	-1.8382005019	-3.8125073848	 0.131932
H	 2.4701756499	-3.8856841401	-3.8588840157	 0.296232
60.0703	74.8125	107.6494	127.4254	153.3661	229.0399	313.036	320.2661	349.433	386.5644	416.4889	459.3676	502.8361	677.0835	738.7617	797.0389	844.4703	888.7348	903.5799	1010.6108	1021.2704	1073.6353	1111.3859	1123.3422	1162.3769	1202.7462	1234.4984	1304.9114	1332.8473	1373.4253	1405.1434	1431.2244	1443.935	1474.5275	1485.6566	1489.016	1508.8311	1717.9039	1794.1791	2988.6952	3003.5667	3047.8287	3069.3164	3113.2655	3123.0219	3145.3878	3478.8228	3711.3872
CCOC(=N)C(=O)CO	CCO[C]([NH])C(=O)CO	
InChI=1S/C5H9NO3/c1-2-9-5(6)4(8)3-7/h6-7H,2-3H2,1H3	InChI=1S/C5H9NO3/c1-2-9-5(6)4(8)3-7/h6-7H,2-3H2,1H3
