20
gdb 69991	2.93893	1.71058	1.60475	2.8621	77.31	-0.2269	0.075	0.3019	954.9524	0.173932	-403.123128	-403.116068	-403.115124	-403.154038	29.821	
C	 0.0047505665	 1.5239150444	-0.0032369165	-0.50458
C	 0.0339657943	 0.0202736074	 0.0277256089	 0.353294
N	-0.8353803058	-0.7398299665	 0.9483520049	-0.362159
C	 0.6385378907	-0.8172311745	 1.0991409726	-0.102473
C	 1.3103666877	-1.9889996833	 0.3497435365	-0.068033
C	 0.2223723582	-2.8539874338	-0.3103530314	-0.069434
O	-0.3222620447	-1.9987956782	-1.3374769224	-0.263258
C	 0.4003447045	-0.7745966618	-1.2639104748	 0.04331
C	 1.8273746798	-1.2388837064	-0.9103982365	-0.229261
H	 0.8821268086	 1.9273629997	-0.5215362529	 0.124066
H	-0.8856752333	 1.8938105611	-0.5251514941	 0.129463
H	-0.0010508441	 1.9400548916	 1.0103516069	 0.113765
H	-1.2012072326	-0.0982235444	 1.6506689905	 0.222386
H	 1.1055255821	-0.3963003407	 1.9840504409	 0.081725
H	 2.0422108926	-2.5509984182	 0.9302936905	 0.065668
H	 0.6506010859	-3.7518856448	-0.7746930629	 0.085358
H	-0.5731702696	-3.1391942731	 0.3812691829	 0.118014
H	 0.2525639565	-0.2256996027	-2.1950392041	 0.068866
H	 2.5080886228	-0.4189422221	-0.6664148618	 0.094773
H	 2.2737875997	-1.8830878436	-1.6732441475	 0.098512
197.3414	211.1144	269.0995	316.5766	380.1887	460.3467	473.1747	541.1713	584.6974	692.7791	765.2285	804.5265	844.1614	877.257	891.4798	903.7094	924.0556	933.752	951.4893	967.8401	1000.3006	1018.5437	1041.1579	1064.2509	1095.4226	1119.7549	1134.0673	1147.7678	1177.9812	1214.1187	1254.6927	1265.0989	1297.5	1299.6464	1322.648	1340.0077	1389.9784	1414.8044	1431.3749	1483.845	1485.9403	1500.8288	1512.623	3016.363	3020.379	3057.6123	3083.6572	3090.3791	3102.3508	3110.3157	3114.8835	3116.3613	3158.83	3473.7976
CC12NC1C1COC2C1	C[C@]12N[C@H]1[C@H]1CO[C@@H]2C1	
InChI=1S/C7H11NO/c1-7-5-2-4(3-9-5)6(7)8-7/h4-6,8H,2-3H2,1H3	InChI=1S/C7H11NO/c1-7-5-2-4(3-9-5)6(7)8-7/h4-6,8H,2-3H2,1H3/t4-,5-,6+,7-/m1/s1
