15
gdb 6358	5.59051	1.17801	0.98087	1.6403	61.88	-0.2303	0.018	0.2483	1143.3589	0.119272	-433.176489	-433.167902	-433.166957	-433.209991	30.168	
C	-0.3056217554	 1.2461686286	 0.0463255304	-0.235667
O	 0.661701027	 0.2035698462	-0.121395331	-0.259704
C	 0.4352237361	-0.6208527172	-1.1640632732	 0.564405
O	-0.5094125816	-0.5147569759	-1.9220587698	-0.42613
N	 1.4205310408	-1.5647982092	-1.2162260029	-0.395484
C	 1.6030285863	-2.5960273857	-2.1587608172	 0.42572
N	 0.5475870037	-2.7965211257	-3.0075016288	-0.553867
N	 2.7043491772	-3.2383737908	-2.0644767123	-0.559624
H	-0.3343813109	 1.8931258162	-0.8337946308	 0.143663
H	-1.3012729747	 0.8275808568	 0.2114817854	 0.14468
H	 0.0210959704	 1.8081417234	 0.9211001871	 0.138143
H	 2.1722284607	-1.4981833724	-0.5469490187	 0.274952
H	-0.142447385	-2.0574633619	-3.0654027682	 0.281202
H	 0.7377002882	-3.3298721488	-3.8384519464	 0.251121
H	 2.7535171773	-3.9840349137	-2.7553520235	 0.20659
83.8917	95.3829	115.9763	171.849	189.797	343.8697	385.9447	405.6113	440.9073	547.3525	587.2387	633.9935	720.3715	759.1339	774.761	797.8045	941.9647	987.9208	1106.509	1143.1104	1159.5004	1182.7168	1218.3801	1248.0866	1450.037	1465.7492	1482.7931	1497.627	1525.252	1627.5667	1741.3177	1799.3465	3054.5701	3130.488	3161.8254	3511.3919	3524.9899	3640.0122	3699.3322
COC(=O)NC(N)=N	COC(=O)NC(=N)N	
InChI=1S/C3H7N3O2/c1-8-3(7)6-2(4)5/h1H3,(H4,4,5,6,7)	InChI=1S/C3H7N3O2/c1-8-3(7)6-2(4)5/h1H3,(H4,4,5,6,7)
