23
gdb 121801	3.25555	0.70918	0.67255	3.0214	87.28	-0.2654	0.0356	0.301	1803.6418	0.204372	-384.494232	-384.483017	-384.482073	-384.530824	40.588	
C	-0.0748456796	 1.567279807	 0.1410748708	-0.381551
C	 0.0481399711	 0.043119187	 0.0653414391	-0.168898
C	 0.632731879	-0.442640245	-1.2666913737	-0.179921
C	 0.7315936232	-1.9706031539	-1.3354370302	-0.185493
C	 1.4763133774	-2.5235604707	-2.5789839714	 0.067964
C	 0.8224577563	-2.0838364398	-3.9008278678	-0.398057
N	 2.8652737217	-2.042416681	-2.5618568542	-0.508426
C	 1.4268640961	-4.0079349443	-2.5053130037	 0.251424
N	 1.4307673193	-5.162844763	-2.4393534856	-0.344934
H	 0.9018011574	 2.0489105146	 0.0206004236	 0.116004
H	-0.7312812002	 1.9515992325	-0.6475589656	 0.114236
H	-0.4880950523	 1.8869193331	 1.1026683696	 0.113279
H	 0.6784040198	-0.3153546627	 0.8899635567	 0.096233
H	-0.938757554	-0.4131720788	 0.2194990799	 0.096411
H	 0.0043173124	-0.070938829	-2.0854626535	 0.096347
H	 1.6273950746	-0.0094300653	-1.4176578442	 0.11803
H	 1.2526387003	-2.3428257276	-0.4436099937	 0.10507
H	-0.2692526601	-2.4167135345	-1.3085466942	 0.113562
H	 0.9127359001	-1.0017361453	-4.0107904138	 0.139507
H	 1.3188657167	-2.5602310373	-4.751442321	 0.127992
H	-0.2334640527	-2.3643553658	-3.9257185298	 0.133484
H	 3.3449644	-2.3959415182	-1.7382874966	 0.239144
H	 3.3688647637	-2.4057069921	-3.3663067007	 0.238591
61.9503	73.8587	101.0314	146.0692	183.5373	193.615	239.8477	250.9295	282.6266	306.2728	362.9777	367.5141	401.6903	460.1249	589.4247	599.5725	737.2447	740.5381	794.0825	880.7544	883.1787	907.2825	937.315	995.7914	1026.3119	1049.6655	1065.9464	1086.9609	1115.4696	1175.3305	1215.6633	1259.5709	1290.0007	1313.7713	1331.7495	1357.1234	1372.491	1398.0761	1408.7472	1413.4173	1479.1921	1487.9053	1489.2552	1498.5505	1499.0294	1500.9694	1514.8467	1661.1696	2337.9948	3013.188	3021.4387	3029.4981	3033.9188	3042.7354	3051.0971	3062.3647	3086.2889	3098.104	3103.3359	3121.2028	3144.7617	3487.57	3567.1848
CCCCC(C)(N)C#N	CCCC[C@@](C)(N)C#N	
InChI=1S/C7H14N2/c1-3-4-5-7(2,9)6-8/h3-5,9H2,1-2H3	InChI=1S/C7H14N2/c1-3-4-5-7(2,9)6-8/h3-5,9H2,1-2H3/t7-/m1/s1
