15
gdb 57145	3.00904	0.79772	0.67046	1.7848	74.08	-0.2753	-0.0739	0.2015	1597.9744	0.108026	-457.751657	-457.741574	-457.74063	-457.788841	33.378	
C	-0.3216477578	 1.4450966853	 0.1984796672	-0.484385
C	-0.0023565528	-0.0072330529	-0.0233918198	 0.370479
O	 1.1073810855	-0.4363421605	-0.2304957748	-0.299211
C	-1.1749807092	-1.0356068488	-0.010620173	-0.129373
O	-0.690566237	-2.3150354579	-0.2934366337	-0.409322
C	-1.885693349	-0.9666400954	 1.2664259707	 0.15154
C	-2.4710629666	-0.8908960031	 2.3206614957	-0.023816
C	-3.1650328175	-0.831415401	 3.5821244797	 0.021764
O	-3.6576454179	 0.1742976514	 4.0393829305	-0.22808
H	 0.5797397485	 2.045803464	 0.0759523729	 0.156994
H	-1.0917699913	 1.776246798	-0.5065693994	 0.153839
H	-0.7315758419	 1.5854415027	 1.2035520244	 0.177233
H	-1.8754721014	-0.7117986581	-0.800705862	 0.132689
H	 0.2757959479	-2.209176022	-0.3405621648	 0.300295
H	-3.2146631696	-1.8004898915	 4.1174000265	 0.109355
36.776	49.763	72.9977	95.6542	139.0606	205.955	251.0831	304.7391	401.9487	427.6318	440.2092	507.0947	563.8591	622.5268	674.5143	784.1103	860.6307	972.5763	1020.7577	1036.1469	1107.892	1156.0552	1194.3399	1232.1917	1335.0228	1389.9395	1419.4464	1425.3484	1460.6379	1470.5589	1766.2597	1818.3362	2318.4997	2930.9608	2955.8755	3048.0422	3111.8953	3161.1436	3647.5456
CC(=O)C(O)C#CC=O	CC(=O)[C@@H](O)C#CC=O	
InChI=1S/C6H6O3/c1-5(8)6(9)3-2-4-7/h4,6,9H,1H3	InChI=1S/C6H6O3/c1-5(8)6(9)3-2-4-7/h4,6,9H,1H3/t6-/m0/s1
