12
gdb 23753	3.42107	2.33187	1.38668	1.6829	59.07	-0.2374	-0.0261	0.2113	795.4322	0.085355	-422.688923	-422.682912	-422.681967	-422.71898	23.263	
O	 0.0841599892	 1.3779919614	-0.0753455843	-0.433941
C	 0.0565286298	 0.023258206	-0.0644043876	 0.239849
C	 0.0221019216	-0.7107857737	-1.2409461884	-0.165045
C	-0.0050774491	-2.1035988888	-1.1593960982	-0.109773
C	 0.0031799835	-2.7089834752	 0.0895832931	-0.020085
N	 0.0363670905	-2.0051080657	 1.2324391028	-0.300481
C	 0.0611681926	-0.7083391965	 1.13058372	 0.227324
F	 0.094948888	 0.0142475181	 2.2657134032	-0.094711
H	 0.1052991241	 1.680029565	 0.8414248368	 0.307822
H	 0.0171039371	-0.189323121	-2.1912253239	 0.123836
H	-0.0322893095	-2.7070686567	-2.0591573115	 0.107733
H	-0.0172623879	-3.7891399128	 0.1917855179	 0.117473
181.8688	302.3726	314.5548	444.103	482.1587	484.4786	562.6353	588.7017	590.3423	763.9549	786.0201	824.0263	877.0325	939.4371	975.4801	1078.2082	1121.4266	1184.8133	1272.6902	1293.2744	1324.0435	1403.6164	1497.6994	1503.4581	1639.7436	1647.3027	3179.0259	3198.0261	3211.7075	3794.2916
OC1=CC=CN=C1F	Oc1cccnc1F	
InChI=1S/C5H4FNO/c6-5-4(8)2-1-3-7-5/h1-3,8H	InChI=1S/C5H4FNO/c6-5-4(8)2-1-3-7-5/h1-3,8H
