23
gdb 117340	3.99139	0.67606	0.65364	3.3814	85.42	-0.2359	0.0652	0.3011	1888.6944	0.204005	-421.661978	-421.650455	-421.649511	-421.700602	40.647	
C	-0.0050350944	 1.4116577648	-0.3978974777	-0.377067
C	-0.0664540279	 0.0816669905	 0.3505490427	-0.125589
N	-1.3778603611	-0.5398138541	 0.2410899633	-0.374626
C	-1.5014298802	-1.9117996321	 0.1273677787	 0.509599
O	-0.5515711538	-2.6563148502	-0.0572924961	-0.416483
N	-2.8018970303	-2.3679239344	 0.2456510545	-0.37776
C	-3.1196540912	-3.7598594044	-0.0760568265	 0.079248
C	-4.4126982083	-4.1589541367	 0.6370176831	-0.398711
C	-3.1904060509	-4.0036107187	-1.5897770581	-0.384943
H	 0.9893566999	 1.858480724	-0.3011062726	 0.118421
H	-0.2206892289	 1.2702241445	-1.4609371104	 0.125415
H	-0.7300217537	 2.130780001	 0.0010102535	 0.107052
H	 0.6425557823	-0.6376260119	-0.0633017779	 0.14958
H	 0.2100642869	 0.2314969082	 1.4049550656	 0.097843
H	-2.1460034332	-0.0441597465	 0.6671125465	 0.228976
H	-3.5367077955	-1.7004810684	 0.0587791067	 0.224429
H	-2.2878378607	-4.3447045517	 0.3252960609	 0.117294
H	-5.2641981347	-3.5699808669	 0.2727424429	 0.105161
H	-4.6425874073	-5.2125879896	 0.4537640402	 0.119996
H	-4.329050961	-4.003623358	 1.7161818667	 0.121086
H	-2.2417900462	-3.7305345894	-2.0579163945	 0.140037
H	-3.3901745082	-5.0584563745	-1.8057674492	 0.111747
H	-3.9917261617	-3.4097641454	-2.0461838324	 0.099292
14.4299	52.0687	73.329	113.5622	144.8813	223.7229	233.8746	263.371	279.5797	309.8574	366.8491	376.0686	421.4701	464.385	495.413	515.0659	744.3981	766.345	805.7594	846.6453	915.366	927.6751	945.6189	960.5306	1031.3332	1107.3579	1142.5201	1152.2282	1159.5713	1184.5497	1210.1725	1236.5812	1297.9361	1340.2785	1375.001	1393.3907	1394.7418	1412.027	1415.9279	1481.1645	1487.4377	1488.3174	1492.6422	1496.0746	1509.9507	1511.7714	1514.8171	1546.1745	1774.6212	2992.1381	3023.706	3028.0328	3031.2842	3077.3909	3089.8856	3092.09	3105.2739	3116.1715	3119.392	3126.5603	3126.9584	3589.9706	3612.1173
CCNC(=O)NC(C)C	CCNC(=O)NC(C)C	
InChI=1S/C6H14N2O/c1-4-7-6(9)8-5(2)3/h5H,4H2,1-3H3,(H2,7,8,9)	InChI=1S/C6H14N2O/c1-4-7-6(9)8-5(2)3/h5H,4H2,1-3H3,(H2,7,8,9)
