17
gdb 50521	2.49596	1.37213	1.04886	2.1078	68.65	-0.2577	-0.0417	0.2161	1148.9837	0.134401	-458.920291	-458.911883	-458.910939	-458.954709	29.678	
O	 0.0482221367	-0.1231465122	-0.177284172	-0.249483
C	 0.0470475168	 1.0604186764	 0.0376303771	 0.166734
C	 1.2552313586	 1.9545145566	-0.0596163669	-0.222627
C	 0.9795293433	 3.3112950924	-0.751438119	-0.102684
O	 1.1325361768	 4.0289213494	 0.4883018868	-0.29576
C	 1.5175384339	 2.8419376466	 1.1893522323	 0.344538
C	 0.9217610185	 2.5982456188	 2.5897784753	-0.133332
O	 2.2346667304	 2.5034677187	 3.1739487691	-0.268519
C	 2.8713663817	 2.8408499509	 1.9256847942	-0.124867
H	-0.8894475442	 1.5936451178	 0.3268883311	 0.084333
H	 2.1118994378	 1.3830502966	-0.4179452268	 0.106003
H	 1.727843308	 3.6018693716	-1.4967100971	 0.120918
H	-0.0228564771	 3.4395545107	-1.1769087474	 0.115819
H	 0.3530032859	 3.4601148768	 2.9613185337	 0.11817
H	 0.3382835438	 1.6811652132	 2.735809614	 0.114105
H	 3.6034778971	 2.0855708923	 1.6155187518	 0.110123
H	 3.3427428121	 3.8316351635	 1.9450216838	 0.116531
55.806	65.059	87.8074	180.7466	273.678	318.8922	378.1191	451.7308	466.0577	506.788	822.4992	864.477	870.8904	895.9387	926.1105	974.1433	993.6213	1019.3749	1037.5785	1048.4175	1093.5888	1146.1707	1152.561	1154.4077	1177.9137	1195.1529	1220.554	1252.3158	1297.2016	1303.0315	1353.7915	1378.2107	1430.7071	1492.8333	1518.8835	1524.5909	1834.1448	2854.0929	3008.9629	3020.5522	3026.2014	3064.9381	3066.8338	3073.212	3116.5479
O=CC1COC11COC1	O=C[C@H]1COC21COC2	
InChI=1S/C6H8O3/c7-1-5-2-9-6(5)3-8-4-6/h1,5H,2-4H2	InChI=1S/C6H8O3/c7-1-5-2-9-6(5)3-8-4-6/h1,5H,2-4H2/t5-/m0/s1
