17
gdb 77886	2.18148	1.69639	1.31903	5.4507	70.43	-0.2127	0.013	0.2256	1040.1965	0.134784	-455.115177	-455.106074	-455.10513	-455.148563	33.622	
C	-0.1194348381	 1.2907789569	-0.380409642	-0.338905
N	-0.0606447545	-0.0176965521	 0.2398629519	-0.084081
C	-1.1002797362	-1.0414506933	 0.2070982422	-0.153922
C	-0.9786932003	-1.9005647521	-1.0267298098	 0.060812
O	-0.5511214205	-1.4145217918	-2.2622865072	-0.40844
C	 0.0214297356	-2.1304139668	 0.072873846	 0.137838
N	 0.3075562888	-3.3921016478	 0.6342162491	-0.598383
C	 0.9833822033	-0.9330754965	 0.0707504371	 0.380988
O	 2.1664540387	-0.7757140533	-0.0337713487	-0.35051
H	 0.8987708583	 1.6858720047	-0.4180544676	 0.156365
H	-0.5157231934	 1.2439661824	-1.4032376468	 0.111237
H	-0.7372092898	 1.9734807113	 0.2110839535	 0.12228
H	-1.9564941337	-1.0015260134	 0.8693990192	 0.105416
H	-1.7273559637	-2.6981128138	-1.0847261473	 0.088036
H	-1.3051669604	-1.0059842684	-2.7023769399	 0.289123
H	 0.4624126249	-3.3492259299	 1.6348670985	 0.24465
H	-0.4035628889	-4.084234406	 0.436094712	 0.237498
125.2717	144.5982	147.7663	208.2438	226.6571	249.5512	284.7766	315.3914	336.553	445.7833	524.9158	602.0343	647.5859	715.1382	746.9164	778.991	804.5787	899.5091	919.4924	946.7449	988.7765	1040.1252	1082.4942	1146.4486	1187.4724	1219.4486	1257.2172	1278.8257	1308.3761	1361.2862	1362.5789	1443.5073	1483.3941	1486.9875	1506.2828	1652.642	1892.0278	3013.5964	3048.3634	3081.6879	3127.8408	3190.5149	3522.6578	3613.6435	3796.4964
CN1C2C(O)C2(N)C1=O	CN1[C@H]2[C@@H](O)[C@@]2(N)C1=O	
InChI=1S/C5H8N2O2/c1-7-2-3(8)5(2,6)4(7)9/h2-3,8H,6H2,1H3	InChI=1S/C5H8N2O2/c1-7-2-3(8)5(2,6)4(7)9/h2-3,8H,6H2,1H3/t2-,3+,5+/m0/s1
