20
gdb 108565	3.3258	1.36904	1.2011	0.9638	77.48	-0.2224	0.0762	0.2986	1093.3154	0.173286	-403.100639	-403.092963	-403.092019	-403.132692	30.805	
O	 0.103074436	 1.3141612632	-0.302696209	-0.416938
C	-0.0341568257	-0.0303772978	 0.1404273552	-0.16278
C	-1.4621904809	-0.5080935891	 0.128776733	 0.328808
C	-2.4979958195	 0.1482508161	 1.0425954011	-0.307387
C	-3.4721223296	-1.032326742	 1.3299545114	-0.165408
N	-3.2428455568	-2.0320634406	 0.2660131127	-0.125217
C	-3.4662134387	-1.3786910542	-1.0791946402	-0.191361
C	-1.9742286511	-1.1026833722	-1.1935762744	-0.135676
C	-1.7707626822	-1.9764490725	 0.0187112863	-0.094822
H	-0.2988474748	 1.369072096	-1.1761263026	 0.280052
H	 0.5944442354	-0.7134250434	-0.4546360428	 0.084062
H	 0.3581501878	-0.0372801264	 1.1636275769	 0.110242
H	-2.0266421087	 0.5299599361	 1.9538463967	 0.102534
H	-2.9989328438	 0.9957146322	 0.5648245746	 0.103229
H	-3.2353463926	-1.5004066589	 2.2914158929	 0.105249
H	-4.5257737281	-0.7393068435	 1.3491083279	 0.103514
H	-3.8203338738	-2.1181651084	-1.80307551	 0.111265
H	-4.1579017081	-0.5277795313	-1.0694756745	 0.097059
H	-1.3852460673	-1.0623904433	-2.104175779	 0.08315
H	-1.1092993673	-2.8086381203	 0.2255460238	 0.090424
96.5306	149.3969	235.6417	295.2671	343.0838	377.7489	403.09	444.1567	641.6696	653.6132	700.643	776.8894	826.0693	858.9444	878.3806	898.3816	925.6343	940.0795	964.5721	980.4894	1020.122	1027.1729	1054.441	1078.8368	1101.3808	1106.4353	1162.3209	1190.5124	1195.1091	1219.489	1245.7293	1258.3192	1272.2882	1297.5815	1318.6994	1342.8543	1369.9004	1405.5736	1426.8556	1490.1286	1496.4226	1503.3966	1517.4701	2966.8986	3026.2888	3043.1226	3051.8015	3061.6775	3081.5278	3083.2769	3102.0805	3158.5692	3188.1239	3808.8616
OCC12CCN3CC1C23	OC[C@@]12CCN3C[C@@H]1[C@@H]23	
InChI=1S/C7H11NO/c9-4-7-1-2-8-3-5(7)6(7)8/h5-6,9H,1-4H2	InChI=1S/C7H11NO/c9-4-7-1-2-8-3-5(7)6(7)8/h5-6,9H,1-4H2/t5-,6+,7+/m1/s1
