16
gdb 78564	2.41016	1.74808	1.27508	3.8541	69.03	-0.2436	0.0012	0.2449	1006.1382	0.12335	-437.842451	-437.83456	-437.833616	-437.874707	30.055	
C	-0.2463542954	 1.5544017559	-0.0533766278	-0.526854
C	 0.0725661378	 0.1037414294	 0.0265634282	 0.366731
C	 0.6741787352	-0.9043101025	-0.8532401603	-0.101943
C	 1.4284634965	-1.5693169837	 0.2961241537	 0.119599
O	 2.7144771304	-1.0045373267	 0.3620159372	-0.434816
C	 0.3712989648	-0.8863883541	 1.2299407331	-0.305902
C	-0.9019972327	-1.5604705961	 0.7554380504	 0.422886
O	-1.7868967439	-2.1942802897	 1.2370085871	-0.317478
N	-0.8143595174	-0.9869790302	-0.5859340267	-0.243449
H	 0.6241860221	 2.1551088862	 0.2282855348	 0.139974
H	-0.5365614527	 1.8192550363	-1.0737599576	 0.146658
H	-1.0739229302	 1.8126676611	 0.6153070735	 0.13965
H	 0.9661088378	-0.8449002487	-1.8941957912	 0.117945
H	 1.4622116814	-2.6672938116	 0.327407588	 0.086471
H	 3.1761840974	-1.389467905	 1.1137803141	 0.292584
H	 0.5848834889	-0.6662900207	 2.2726553934	 0.097942
117.5517	147.697	197.8589	272.6347	294.3682	310.8456	361.7347	470.2027	531.3449	606.7124	623.3179	691.2409	772.8044	814.9484	844.8421	905.8686	935.8315	980.5012	1007.2781	1057.3312	1078.6525	1090.1747	1106.5226	1144.4213	1164.0159	1174.4141	1217.181	1254.5399	1317.3406	1405.6524	1435.6407	1463.514	1481.117	1490.1907	1917.9687	3008.8334	3038.8277	3105.5767	3121.1029	3160.6351	3202.6856	3820.5684
CC12C3C(O)C1C(=O)N23	C[C@@]12[C@H]3[C@@H](O)[C@@H]1C(=O)N23	
InChI=1S/C6H7NO2/c1-6-2-3(8)4(6)7(6)5(2)9/h2-4,8H,1H3	InChI=1S/C6H7NO2/c1-6-2-3(8)4(6)7(6)5(2)9/h2-4,8H,1H3/t2-,3+,4-,6+,7?/m1/s1
