17
gdb 87761	4.34945	0.91665	0.87971	2.5942	69.74	-0.2356	-0.0315	0.2041	1328.0018	0.132896	-458.922257	-458.913369	-458.912425	-458.956944	32.09	
O	-0.1329883137	 1.5070002708	 0.1193728847	-0.419251
C	-0.0825093248	 0.1143661971	 0.1999363849	 0.015082
C	-0.8584284898	-0.6222108459	 1.288704045	-0.398023
C	-1.3401384024	-0.6057300205	-0.1289491787	 0.443532
C	-2.6131009121	-0.0303210909	-0.7323962142	-0.365299
C	-2.5674733109	-1.2984567505	-1.6095045926	 0.040378
O	-1.3631630182	-1.7742269605	-0.9575564695	-0.326052
C	-3.6916928653	-2.2997828089	-1.4403128965	 0.134143
O	-4.8466869694	-1.9991949942	-1.2872400448	-0.235505
H	 0.3859020102	 1.8698442718	 0.8452423634	 0.29182
H	 0.8467959086	-0.3507956565	-0.130321224	 0.099629
H	-0.4279039836	-1.5416023985	 1.6717555904	 0.126831
H	-1.4151584349	-0.0288753517	 2.007592772	 0.122714
H	-3.4823724038	 0.0222238503	-0.0754641952	 0.132109
H	-2.4833587923	 0.9164535263	-1.2556275537	 0.135016
H	-2.4031959887	-1.1274165475	-2.6833755296	 0.110021
H	-3.3488030489	-3.3585065107	-1.4626771214	 0.092856
36.529	75.8051	118.3544	216.6108	244.6731	278.351	319.3282	420.4191	446.2131	471.7948	566.5499	610.1377	783.1802	814.5267	873.0797	886.4159	915.2532	922.5956	988.6839	1016.6607	1028.9867	1069.6282	1089.1022	1101.6173	1148.8542	1169.9251	1196.9789	1235.1277	1269.1444	1291.6421	1330.6664	1362.0051	1402.0184	1415.0801	1491.7938	1506.1122	1833.9997	2890.6002	3003.7266	3092.8244	3101.8991	3125.666	3151.5329	3220.8329	3799.8278
OC1CC11CC(O1)C=O	O[C@H]1C[C@]21C[C@@H](O2)C=O	
InChI=1S/C6H8O3/c7-3-4-1-6(9-4)2-5(6)8/h3-5,8H,1-2H2	InChI=1S/C6H8O3/c7-3-4-1-6(9-4)2-5(6)8/h3-5,8H,1-2H2/t4-,5+,6+/m1/s1
