16
gdb 56945	3.81669	1.02528	0.89458	2.9147	77.84	-0.2533	0.0227	0.276	1279.3918	0.121612	-400.638008	-400.628847	-400.627902	-400.67215	34.134	
O	-0.2113425214	 1.3495992483	-0.1326823269	-0.408504
C	-0.0204452169	-0.0457914154	-0.1352060706	-0.066235
C	 0.8384460462	-0.4882873053	-1.2476693239	 0.312693
C	 1.5512191329	-0.8539646915	-2.1437648634	-0.456832
C	 0.5830683905	-0.53419227	 1.1875519099	-0.03275
N	 1.3534807141	 0.4749536561	 1.9082260832	-0.342538
C	 0.1155731818	-0.0606945319	 2.5285153351	-0.252658
C	-0.9929192126	 0.8272148371	 2.7458961287	 0.383458
C	-1.9404721655	 1.5223778474	 2.9963725079	-0.430669
H	 0.523343518	 1.7139563879	 0.3852701143	 0.296934
H	-1.0122521349	-0.5006206945	-0.2571835707	 0.124013
H	 2.1697864992	-1.1672820073	-2.9483178896	 0.198259
H	 0.9668441432	-1.5508963646	 1.1506513989	 0.108511
H	 2.1819744264	 0.0870683451	 2.3485376467	 0.247604
H	 0.2590667453	-0.7822841279	 3.3311725443	 0.117187
H	-2.7738357566	 2.1525800565	 3.1862624162	 0.201527
49.6507	101.9551	153.0497	196.9654	237.7543	273.3491	323.051	416.6064	471.1046	543.1146	553.3365	594.9896	628.3316	631.5629	664.3048	664.8234	687.87	808.9202	838.9818	885.0378	952.7637	986.1137	1013.441	1057.0834	1117.7087	1177.6026	1209.8307	1247.2329	1283.0811	1326.6001	1393.7807	1441.503	1447.8667	2231.0661	2244.4453	3027.4336	3118.0569	3143.2065	3502.3689	3504.4598	3526.4941	3704.7465
OC(C#C)C1NC1C#C	O[C@@H](C#C)[C@H]1N[C@H]1C#C	
InChI=1S/C7H7NO/c1-3-5-7(8-5)6(9)4-2/h1-2,5-9H	InChI=1S/C7H7NO/c1-3-5-7(8-5)6(9)4-2/h1-2,5-9H/t5-,6-,7-/m0/s1
