23
gdb 103078	2.02913	1.314	1.12238	2.4638	82.35	-0.2289	0.0666	0.2955	1284.5325	0.201297	-425.41168	-425.400262	-425.399318	-425.447286	42.304	
C	-0.6303704385	 0.675882513	-2.7216032435	-0.396288
C	-0.3145528896	-0.3285562089	-1.6057010539	-0.225631
C	-1.554898334	-0.771973293	-0.8451134536	 0.339099
O	-2.2323420671	 0.303034697	-0.2461583568	-0.457418
C	-2.4117707533	-1.9499947201	-1.3057862421	-0.157463
C	-2.1703190229	-2.7574410619	-2.5636277856	-0.420016
C	-1.5707055718	-2.0494235547	-0.0353634082	 0.330667
C	-0.3619091378	-2.9572347481	 0.0604146525	-0.452018
O	-2.2609607995	-1.948561376	 1.182686453	-0.450984
H	 0.2825139149	 0.9874716094	-3.2375967654	 0.114235
H	-1.3058285188	 0.2449921097	-3.4690515815	 0.114117
H	-1.1014753917	 1.5758596491	-2.3145598493	 0.117882
H	 0.2061485871	-1.1900061724	-2.0324369499	 0.091966
H	 0.3768417281	 0.1313315985	-0.8888696525	 0.107443
H	-2.7930574104	 0.7066990163	-0.9161571752	 0.280594
H	-3.4619413999	-1.7948369076	-1.066145018	 0.086137
H	-1.1076271774	-2.8754261913	-2.7904088963	 0.116819
H	-2.5965167283	-3.7633497699	-2.4730709184	 0.11582
H	-2.6374547637	-2.2827328209	-3.4339957091	 0.117449
H	 0.1886818035	-3.0466064406	-0.877727981	 0.116231
H	 0.3240702993	-2.588600018	 0.829440068	 0.130361
H	-0.6755741598	-3.9681441508	 0.3505923797	 0.104844
H	-2.6523350085	-2.8104980889	 1.3632666072	 0.276154
72.5129	137.3812	162.7266	181.8753	191.8296	212.4213	231.5807	243.8232	262.1436	275.0828	303.6785	320.2035	412.7431	425.6227	439.278	507.2016	604.1346	683.5105	726.5421	789.3908	813.5426	927.5501	976.4858	991.5139	1023.2924	1047.1634	1069.0034	1087.8875	1111.5681	1128.6689	1175.9307	1189.0934	1266.7085	1279.7599	1307.599	1322.3301	1333.9859	1367.887	1402.5458	1411.2776	1422.8861	1461.0335	1472.402	1488.4404	1493.666	1498.6191	1499.6524	1513.5419	1520.0286	3025.2632	3028.0895	3033.2247	3036.1159	3079.4912	3083.8617	3089.7337	3103.8658	3108.1648	3112.1962	3131.1298	3136.0759	3791.9015	3812.2887
CCC1(O)C(C)C1(C)O	CC[C@@]1(O)[C@@H](C)[C@]1(C)O	
InChI=1S/C7H14O2/c1-4-7(9)5(2)6(7,3)8/h5,8-9H,4H2,1-3H3	InChI=1S/C7H14O2/c1-4-7(9)5(2)6(7,3)8/h5,8-9H,4H2,1-3H3/t5-,6-,7+/m0/s1
