20
gdb 17446	3.28272	2.0515	1.61513	0.1491	78.74	-0.2522	0.0959	0.3481	895.5333	0.177503	-311.831876	-311.824209	-311.823265	-311.863158	30.606	
C	-0.0673557281	 1.5327287024	-0.0434818769	-0.418275
C	 0.1031804906	 0.0310119279	 0.0492317821	-0.002736
C	 1.3913359943	-0.7082487086	-0.204596351	-0.077772
C	 2.5926923066	-0.0052152862	 0.3786052134	-0.109918
C	 3.1843930183	-0.8367147225	 1.4892354532	-0.329309
C	 1.9445470238	-0.0242802877	 1.7779941429	 0.363699
C	 1.9142435036	 1.0297515827	 2.8526784886	-0.495278
C	 0.7354533133	-0.7265531788	 1.1946739167	-0.146402
H	 0.8166587789	 2.0680427943	 0.3095805054	 0.123962
H	-0.2442712265	 1.8348860598	-1.0820687302	 0.111912
H	-0.9250654337	 1.8700662333	 0.5494486571	 0.112132
H	-0.7513310701	-0.5150351827	-0.3510634344	 0.07977
H	 1.4449678624	-1.5335830666	-0.9070723601	 0.080321
H	 3.1476453761	 0.8044312376	-0.0834100965	 0.080602
H	 3.1379943006	-1.9217805208	 1.4371812548	 0.100318
H	 4.1014897404	-0.4511431856	 1.9271673434	 0.101778
H	 2.880179453	 1.5392642378	 2.9357381385	 0.11388
H	 1.1486730143	 1.7879832261	 2.6607073786	 0.118814
H	 1.6963066676	 0.5838273707	 3.8309889811	 0.117233
H	 0.2224607547	-1.5607398534	 1.6638155732	 0.075269
168.7302	183.6377	203.1909	225.8445	308.0612	337.4534	404.3875	488.8715	605.1646	634.5293	724.3018	758.4732	801.2529	834.5144	890.1565	905.796	965.3809	968.3585	985.665	1006.5473	1031.1505	1050.5908	1067.0064	1082.3575	1099.2952	1116.5097	1117.66	1146.6063	1206.3305	1226.7404	1275.2924	1311.6813	1336.3316	1377.6268	1407.3498	1419.4953	1440.5081	1486.2162	1494.7682	1496.1354	1499.5589	1505.892	3023.1676	3029.6676	3080.5196	3084.0236	3099.5799	3104.5064	3105.1921	3126.3389	3149.3753	3161.3829	3166.407	3189.119
CC1C2C3CC3(C)C12	C[C@H]1[C@H]2[C@@H]3C[C@]3(C)[C@@H]12	
InChI=1S/C8H12/c1-4-6-5-3-8(5,2)7(4)6/h4-7H,3H2,1-2H3	InChI=1S/C8H12/c1-4-6-5-3-8(5,2)7(4)6/h4-7H,3H2,1-2H3/t4-,5-,6-,7-,8-/m0/s1
