21
gdb 73834	2.34694	1.65469	1.09754	1.3016	85.55	-0.2103	0.026	0.2363	1172.1119	0.182438	-387.087174	-387.078237	-387.077293	-387.120502	34.308	
C	 0.1119704543	 1.5440444287	-0.0240034777	-0.486047
C	-0.0087968885	 0.0469472656	 0.0675011718	 0.16253
C	-1.1429189713	-0.667767828	 0.0015872395	 0.237765
C	-2.5328853471	-0.1006348284	-0.1217932738	-0.495081
C	-1.0795752654	-2.1566374988	 0.0556153129	-0.15541
C	-0.2207441096	-2.9034281792	-0.9751598241	-0.343284
C	 0.2405146507	-2.7599842586	 0.4459304927	 0.132353
O	 1.2808478749	-1.9235260671	 0.8430969008	-0.255605
C	 1.3274067708	-0.6525289561	 0.214757003	-0.163728
H	 0.8532957328	 1.8273166222	-0.7837789286	 0.121834
H	-0.82474345	 2.0380493176	-0.2840765357	 0.12399
H	 0.465758728	 1.9694900736	 0.9246536376	 0.126443
H	-2.5578376282	 0.9893197164	-0.1468114517	 0.120384
H	-3.0228678691	-0.4726730436	-1.0306642453	 0.126685
H	-3.1554546794	-0.4278105588	 0.7210278148	 0.125274
H	-1.9860337673	-2.6532287753	 0.3886130591	 0.080788
H	-0.5477114679	-3.8841955094	-1.3041330704	 0.111784
H	 0.2428370814	-2.3003787904	-1.7474713422	 0.121136
H	 0.2418988216	-3.6461922265	 1.0709579846	 0.101729
H	 1.8234608216	-0.7323252766	-0.7697824902	 0.095923
H	 1.9927963278	-0.0485710274	 0.842912843	 0.110537
127.284	128.9337	134.5566	151.0766	257.5555	336.3011	340.6063	358.9005	404.9342	493.7806	517.5262	586.1078	686.0785	729.0536	766.3788	811.0709	887.3412	944.9616	950.9723	986.8495	1009.1687	1030.3589	1039.5141	1065.1393	1074.9911	1081.0695	1119.3977	1154.9421	1181.5142	1191.2726	1233.8317	1265.8536	1279.8032	1373.7557	1388.5562	1404.4832	1419.5598	1431.6111	1477.4181	1479.6797	1483.056	1486.0674	1499.8146	1504.091	1738.9907	2930.7614	3010.2784	3019.1616	3048.0993	3049.5462	3060.8172	3128.8315	3133.4008	3142.4492	3145.7269	3173.3803	3224.1959
CC1=C(C)C2CC2OC1	CC1=C(C)[C@H]2C[C@H]2OC1	
InChI=1S/C8H12O/c1-5-4-9-8-3-7(8)6(5)2/h7-8H,3-4H2,1-2H3	InChI=1S/C8H12O/c1-5-4-9-8-3-7(8)6(5)2/h7-8H,3-4H2,1-2H3/t7-,8-/m1/s1
