21
gdb 101806	4.19457	0.73428	0.65335	7.9186	76.15	-0.2343	0.0383	0.2726	1699.3323	0.18362	-457.576561	-457.566544	-457.5656	-457.612133	36.589	
N	-0.267505291	 1.4939477764	-0.4506834786	-0.517772
C	-0.1018889234	 0.1844923301	 0.1894219678	-0.167481
C	-1.3572297478	-0.6727379935	-0.0444435773	 0.044153
N	-1.6750810099	-0.8119661276	-1.4767973093	-0.507649
H	-0.8735340995	-1.2253920558	-1.9528323243	 0.23961
H	-2.746332619	-2.1613305161	-1.5994702027	 0.321469
H	-1.7729944382	 0.1198226628	-1.8737923091	 0.251223
C	-1.2579301456	-2.0514673135	 0.6200070253	-0.214307
C	-2.590208567	-2.8222089999	 0.7614512093	-0.32709
C	-3.0707760846	-3.6734478934	-0.4224826126	 0.381438
O	-3.1207615228	-3.0859214972	-1.6202227483	-0.382631
O	-3.4217604997	-4.816946865	-0.2684714446	-0.334131
H	-0.8576669463	 2.0896735521	 0.1228807157	 0.232448
H	 0.6255774585	 1.9687795764	-0.5260919253	 0.237509
H	 0.7596287051	-0.3136509003	-0.2741140237	 0.103674
H	 0.1058120671	 0.2375755932	 1.2705972302	 0.091237
H	-2.2086925799	-0.1413555131	 0.4060383154	 0.085964
H	-0.5187845046	-2.6637091357	 0.0853346967	 0.107677
H	-0.852185955	-1.9053626123	 1.6274650101	 0.108629
H	-2.5221838393	-3.5185468619	 1.5988427281	 0.128396
H	-3.391624347	-2.1115750559	 1.0063397371	 0.117632
48.2668	81.759	119.5919	164.1699	214.2694	235.5563	255.6777	320.6689	367.4632	372.6177	446.3614	483.0913	526.8522	592.6235	704.8114	809.6901	825.4257	875.942	920.735	944.2821	947.4663	990.1764	1028.6465	1047.5283	1063.8891	1090.5361	1144.6287	1150.6883	1174.0462	1229.5027	1293.7955	1317.7262	1331.8376	1341.9792	1361.7919	1391.0948	1413.0366	1420.9008	1471.4856	1480.905	1485.166	1500.3129	1660.6343	1661.7218	1842.8377	2966.674	2998.6174	3018.3483	3027.1265	3044.8527	3066.5346	3116.7065	3133.4159	3460.1632	3498.5297	3538.4256	3578.1341
NCC([NH3+])CCC([O-])=O	NC[C@@H](N)CCC(=O)O	
InChI=1S/C5H12N2O2/c6-3-4(7)1-2-5(8)9/h4H,1-3,6-7H2,(H,8,9)	InChI=1S/C5H12N2O2/c6-3-4(7)1-2-5(8)9/h4H,1-3,6-7H2,(H,8,9)/t4-/m0/s1
