19
gdb 75164	3.17289	1.23537	1.03407	1.9198	75.83	-0.245	0.0227	0.2677	1210.7419	0.160585	-419.204366	-419.195825	-419.194881	-419.238299	31.314	
C	-0.0758924222	 1.3883664334	 0.2655977453	-0.473129
C	 0.0174653653	-0.0806156336	 0.0352009143	 0.400215
N	-0.2707291339	-0.7034609075	-1.0312157891	-0.298077
C	-0.0401052982	-2.1283798445	-0.7618891308	-0.206835
C	 0.5524749337	-2.179186456	 0.6768419037	 0.055378
O	 0.4626699844	-0.8015380341	 1.1133146503	-0.271095
C	-0.1809401027	-3.0884143093	 1.6368620992	-0.003025
C	-0.27396249	-2.7800453609	 3.0816614803	-0.243553
N	-1.4691990298	-2.688890572	 2.2156630466	-0.318767
H	 0.9064598292	 1.794663398	 0.5260166923	 0.146632
H	-0.448455021	 1.8764367006	-0.6341399258	 0.155511
H	-0.74741701	 1.6006506612	 1.1036095655	 0.143744
H	-0.9869214557	-2.6766351557	-0.8330209919	 0.125019
H	 0.6403466294	-2.5504828627	-1.5073490994	 0.117012
H	 1.6157455358	-2.4480528549	 0.6638399352	 0.094985
H	-0.1426449859	-4.1330936727	 1.3306316573	 0.098014
H	-0.295667887	-3.5858046185	 3.8096230754	 0.11858
H	 0.176886392	-1.8547852998	 3.4267179608	 0.125062
H	-1.6327398535	-1.706551181	 2.0027928808	 0.23433
57.614	84.7838	144.6993	184.4892	244.5335	254.5	337.8717	436.2794	569.7763	604.9851	683.3182	706.5419	795.6788	851.1356	884.1561	941.4346	952.8664	960.5575	984.9775	1013.7824	1046.4871	1066.207	1078.677	1097.2432	1131.4294	1148.8773	1189.919	1216.0383	1243.2618	1268.8815	1301.3577	1330.8461	1334.4156	1385.3362	1417.2322	1421.2158	1475.52	1476.5488	1500.5963	1508.3589	1752.5238	3027.5304	3037.4998	3050.6565	3080.7546	3107.5425	3115.021	3119.6562	3167.4441	3207.397	3490.1316
CC1=NCC(O1)C1CN1	CC1=NC[C@@H](O1)[C@H]1CN1	
InChI=1S/C6H10N2O/c1-4-7-3-6(9-4)5-2-8-5/h5-6,8H,2-3H2,1H3	InChI=1S/C6H10N2O/c1-4-7-3-6(9-4)5-2-8-5/h5-6,8H,2-3H2,1H3/t5-,6-/m1/s1
