17
gdb 76390	2.10393	1.55678	1.33017	4.7138	65.76	-0.2197	0.012	0.2317	1049.4706	0.135536	-492.28941	-492.28034	-492.279396	-492.322563	35.011	
N	 0.0574576988	 1.2219989106	 0.1338377649	-0.532879
C	 0.0444962177	-0.11130514	-0.0322570713	 0.458884
O	 1.0840052459	-0.783167134	-0.1614160083	-0.460291
C	-1.300558125	-0.7499406916	-0.0536351096	 0.026235
N	-2.4267381601	 0.1386953912	 0.1064354005	-0.603633
C	-1.3937110386	-2.0144597703	-0.960900366	 0.060931
O	-0.3715872008	-2.3774882488	-1.8109819428	-0.424569
C	-1.329394771	-2.1994020702	 0.5199383765	 0.060938
O	-0.2423648774	-2.7490649199	 1.1644432633	-0.424559
H	 0.9358770614	 1.7108490945	 0.1575744346	 0.266216
H	-0.8257577255	 1.6984649085	 0.2326397572	 0.273614
H	-3.0442646799	 0.120242095	-0.6972320584	 0.241553
H	-2.9746507019	-0.0845399876	 0.9295389675	 0.241553
H	-2.3647756839	-2.1391055619	-1.4346236099	 0.105681
H	 0.4555320662	-2.0370118569	-1.4259481728	 0.30232
H	-2.2577329223	-2.446914344	 1.0296907888	 0.105686
H	 0.5524591364	-2.3158226845	 0.8054806659	 0.302319
94.9695	188.5897	191.4682	211.2593	281.9231	282.7657	335.5695	361.9161	405.0726	466.6023	480.266	487.334	591.053	666.2075	673.8138	695.7749	699.5857	784.5418	819.2063	835.1034	835.717	970.4181	1069.0795	1094.5213	1144.4582	1149.8445	1237.0141	1246.9635	1259.3012	1337.2112	1369.1699	1425.4795	1436.9354	1504.2221	1573.4566	1657.4141	1701.0673	3133.1583	3144.028	3512.7928	3579.3101	3589.4689	3604.4695	3633.2262	3731.6341
NC(=O)C1(N)C(O)C1O	NC(=O)[C@@]1(N)[C@@H](O)[C@H]1O	
InChI=1S/C4H8N2O3/c5-3(9)4(6)1(7)2(4)8/h1-2,7-8H,6H2,(H2,5,9)	InChI=1S/C4H8N2O3/c5-3(9)4(6)1(7)2(4)8/h1-2,7-8H,6H2,(H2,5,9)/t1-,2+,4+
