27
gdb 113702	2.74893	0.93019	0.86178	0.0574	96.59	-0.2609	0.077	0.3379	1582.8479	0.250091	-353.555599	-353.544312	-353.543367	-353.591848	42.999	
C	 1.286221169	 1.7348687889	-0.3927636274	-0.374651
C	 0.6240242208	 0.3574361926	-0.2553747826	-0.204184
C	 1.2166320659	-0.6490920967	-1.2243554694	 0.003411
C	 2.3873136612	-1.5252632316	-0.8327256927	-0.325755
C	 1.0624385839	-2.1570471291	-1.1890164422	 0.004141
C	 0.2072916794	-3.0384242269	-0.2671235187	 0.239228
C	 0.2362450828	-2.6526002348	 1.2224730057	-0.420044
C	-1.2498414667	-2.9926262347	-0.7695098082	-0.397227
C	 0.74175064	-4.4812310838	-0.3982197491	-0.392166
H	 2.3616803265	 1.6740519701	-0.1953257031	 0.117884
H	 1.1581432786	 2.1360582566	-1.4043164813	 0.112139
H	 0.8540654843	 2.4556481731	 0.3085488859	 0.107514
H	 0.7386331569	 0.0106764152	 0.7753141308	 0.099857
H	-0.4556333114	 0.4573444945	-0.4304053299	 0.093304
H	 1.2631115633	-0.2536258003	-2.2382986237	 0.074842
H	 3.2279886779	-1.6422943681	-1.5087222314	 0.103119
H	 2.6700512088	-1.504440387	 0.2155432947	 0.107372
H	 1.0520256027	-2.5764139092	-2.1946036913	 0.07484
H	-0.2583889668	-1.697880663	 1.4137704535	 0.11655
H	-0.2918902935	-3.4130920139	 1.8081953633	 0.106788
H	 1.2575388488	-2.595719347	 1.6116549837	 0.109947
H	-1.3149504782	-3.3018139043	-1.8185706794	 0.105322
H	-1.8903903294	-3.6623204053	-0.184465561	 0.103771
H	-1.6605715702	-1.9806959004	-0.6936125095	 0.113662
H	 1.7778382615	-4.5494718572	-0.0502429321	 0.112056
H	 0.1387894681	-5.1776893455	 0.1948598382	 0.10322
H	 0.7164575361	-4.8207937922	-1.4394581128	 0.105058
40.31	74.0194	131.0101	197.0843	227.748	243.5073	257.9577	272.4777	282.5717	299.9981	339.4415	379.8077	389.1042	412.2821	489.4045	605.2901	677.3487	760.7307	803.2544	834.4394	866.4777	929.5732	934.1168	955.3497	959.4028	964.906	980.4133	1038.0369	1043.5142	1060.6392	1074.8021	1107.1167	1135.9496	1155.9037	1202.5819	1221.9881	1237.8128	1242.7877	1294.8911	1310.5723	1338.312	1396.8072	1397.6787	1402.1742	1408.4945	1425.8731	1439.6614	1479.8113	1484.9152	1486.8694	1489.9624	1495.9506	1498.3615	1504.5941	1506.7138	1511.9661	1522.0563	3017.2061	3022.0936	3025.7353	3030.1002	3038.4325	3075.8914	3088.3717	3090.6692	3094.4173	3097.0778	3097.5713	3100.1812	3102.4852	3103.587	3113.7868	3123.1728	3127.9857	3203.451
CCC1CC1C(C)(C)C	CC[C@H]1C[C@H]1C(C)(C)C	
InChI=1S/C9H18/c1-5-7-6-8(7)9(2,3)4/h7-8H,5-6H2,1-4H3	InChI=1S/C9H18/c1-5-7-6-8(7)9(2,3)4/h7-8H,5-6H2,1-4H3/t7-,8+/m0/s1
