15
gdb 44107	3.35543	1.73455	1.50524	2.0795	70.68	-0.256	-0.0504	0.2056	883.0696	0.114947	-416.778293	-416.772067	-416.771122	-416.808836	25.155	
O	-0.0771925351	 0.0714461229	 0.1767509525	-0.292351
C	-0.0554407782	 1.2679053376	 0.1394456765	 0.398177
C	-1.3045963449	 2.2306493648	 0.0416720639	-0.36075
C	-0.5421592069	 3.3742918597	 0.6185851351	 0.180353
N	-0.4621049793	 3.5900671926	 1.8729552933	-0.200007
C	 0.968252714	 3.7742310686	 2.1708605518	-0.192734
C	 1.6500851408	 3.3368438871	 0.8802381742	-0.042348
C	 1.1873421561	 2.1522065772	 0.0180305136	-0.173088
N	 0.6740908981	 3.5407886156	-0.1809807813	-0.122446
H	-1.5841393039	 2.341550221	-1.0097444192	 0.144828
H	-2.1401116589	 1.883744007	 0.6446171194	 0.153454
H	 1.2289999367	 4.818176415	 2.3935762506	 0.129335
H	 1.2161952204	 3.1773180138	 3.0537383113	 0.135555
H	 2.6626721978	 3.6770173839	 0.6786142029	 0.11219
H	 1.9239510732	 1.7804077334	-0.6913143747	 0.129832
120.0737	271.9272	368.7917	406.1928	436.7028	576.575	587.0635	660.2074	714.649	747.9288	792.2186	822.267	860.8415	888.5722	944.0987	974.5342	979.8655	999.5435	1049.4357	1084.1202	1095.6046	1155.2228	1175.1666	1194.525	1209.0571	1226.8638	1309.1456	1333.0073	1353.4563	1454.3852	1481.3313	1671.776	1858.063	3020.5044	3076.8788	3083.0286	3137.437	3154.2673	3180.645
O=C1CC2=NCC3C1N23	O=C1C[C]2[N]C[C@H]3[C@@H]1N23	
InChI=1S/C6H6N2O/c9-4-1-5-7-2-3-6(4)8(3)5/h3,6H,1-2H2	InChI=1S/C6H6N2O/c9-4-1-5-7-2-3-6(4)8(3)5/h3,6H,1-2H2/t3-,6-,8?/m0/s1
