23
gdb 121853	3.82397	0.52562	0.47583	1.4405	92.23	-0.2406	0.0628	0.3034	2329.6875	0.202585	-388.270381	-388.258332	-388.257387	-388.310331	40.974	
C	 0.0302186222	 1.4779344186	-0.0302191648	-0.497852
C	 0.0228728783	 0.0214632926	-0.0198367539	 0.079713
C	 0.0209128951	-1.1830586334	-0.0016319142	 0.054416
C	 0.0052629389	-2.6470423483	-0.0069304816	-0.16337
C	-1.4296608179	-3.1750850651	 0.1971052291	-0.38345
C	 0.6651222348	-3.1867916034	-1.3000251625	-0.176342
C	 0.8706454423	-4.7043891755	-1.3147755974	-0.1757
C	 1.6322047939	-5.1753783726	-2.5472763872	-0.078814
O	 1.7513320657	-6.5885814879	-2.4749442731	-0.422041
H	 0.8308288202	 1.8781044586	 0.6020532302	 0.145004
H	 0.1828457667	 1.8697552224	-1.0421724248	 0.144484
H	-0.9171637335	 1.8848644734	 0.340874812	 0.145226
H	 0.6133685407	-2.9958856768	 0.8408892409	 0.098723
H	-2.0672128571	-2.8892923385	-0.6457505892	 0.12005
H	-1.4402750592	-4.2648411659	 0.284900309	 0.117702
H	-1.8669956819	-2.7557854618	 1.1068809409	 0.122225
H	 0.0537165053	-2.8798198271	-2.1584827979	 0.100924
H	 1.6336369437	-2.6867432127	-1.4199357018	 0.102377
H	 1.4268524646	-5.0200300912	-0.4228874395	 0.103521
H	-0.0887662612	-5.2322440069	-1.2888759164	 0.110369
H	 1.0920257931	-4.8670688709	-3.4578022198	 0.083945
H	 2.6229456497	-4.6927264953	-2.5795597191	 0.084122
H	 2.2317716357	-6.8898279321	-3.2513924489	 0.284767
14.8346	51.5427	66.0584	79.5789	127.1917	148.9763	171.6416	245.7889	264.9795	276.7797	291.7238	326.7113	380.3508	439.3947	518.627	559.2762	735.7391	759.0492	853.888	887.1025	995.2095	999.6261	1041.0444	1048.6431	1053.8995	1054.2737	1080.6217	1113.4738	1155.1726	1192.8466	1219.8914	1234.4908	1289.8004	1302.2521	1318.0672	1343.5368	1346.4489	1389.7671	1407.9188	1415.3471	1462.6474	1479.6347	1479.7484	1483.4683	1495.2748	1500.2801	1503.1153	1529.0456	2368.5136	2956.8573	2982.0811	2991.4011	3021.0429	3023.8427	3032.7899	3041.1969	3055.9725	3083.0865	3083.3398	3084.6344	3113.5839	3121.0275	3830.459
CC#CC(C)CCCO	CC#C[C@@H](C)CCCO	
InChI=1S/C8H14O/c1-3-5-8(2)6-4-7-9/h8-9H,4,6-7H2,1-2H3	InChI=1S/C8H14O/c1-3-5-8(2)6-4-7-9/h8-9H,4,6-7H2,1-2H3/t8-/m1/s1
