17
gdb 55489	5.19004	0.61195	0.57057	2.786	79.8	-0.2456	-0.0183	0.2272	1917.8278	0.132076	-421.789789	-421.779724	-421.77878	-421.828243	33.676	
C	 0.0041049488	 1.454363553	 0.0625243274	-0.478213
C	 0.0783026796	-0.0594333819	 0.1520101316	 0.390828
O	 0.9917894059	-0.6362020255	 0.6829734166	-0.266194
C	-1.1102367053	-0.8027782073	-0.4911635574	-0.491822
C	-1.0668128083	-2.247378528	-0.3587461921	 0.0839
C	-1.0252854438	-3.4435419798	-0.2328889283	 0.155475
C	-0.9725349139	-4.8741556797	-0.1074194298	-0.120868
C	-0.2809275056	-5.5253807079	 1.022917456	-0.157878
O	-1.7010433663	-5.4744888716	 0.977752379	-0.216758
H	 0.9066035411	 1.8918166287	 0.48986669	 0.14784
H	-0.1078037431	 1.7769843155	-0.9784960781	 0.139384
H	-0.8733110586	 1.8229373257	 0.6062377111	 0.143721
H	-2.0354949581	-0.4009730894	-0.0542334228	 0.153358
H	-1.1485780211	-0.510315573	-1.5503705862	 0.152209
H	-1.0446701698	-5.4304783232	-1.0415001952	 0.115015
H	 0.1628367156	-6.5092704646	 0.875368169	 0.118314
H	 0.1895750529	-4.8995352309	 1.7783489991	 0.131686
18.0579	21.8422	64.9838	95.782	134.0164	182.4514	298.6066	329.706	370.2157	466.5559	509.4735	528.2864	609.2023	747.8124	797.0128	826.3355	836.7138	905.3984	962.2026	1003.9443	1052.0275	1084.5557	1150.2318	1159.8971	1169.2279	1188.2178	1226.4921	1282.7475	1335.6417	1382.6966	1409.7235	1434.7219	1464.5629	1476.6309	1518.934	1833.2822	2375.2679	3010.0384	3036.3064	3037.8719	3086.5889	3097.7558	3113.5498	3156.7341	3182.378
CC(=O)CC#CC1CO1	CC(=O)CC#C[C@H]1CO1	
InChI=1S/C7H8O2/c1-6(8)3-2-4-7-5-9-7/h7H,3,5H2,1H3	InChI=1S/C7H8O2/c1-6(8)3-2-4-7-5-9-7/h7H,3,5H2,1H3/t7-/m0/s1
