17
gdb 13515	3.15856	1.77193	1.44993	5.0543	63.63	-0.2465	0.0156	0.2621	914.1425	0.143321	-401.01931	-401.011556	-401.010612	-401.051735	28.513	
C	-0.2607680993	 1.5004046958	 0.0026990257	-0.412249
C	-0.0214903085	-0.0010854044	-0.0868590547	 0.011868
C	 1.2324618015	-0.447323912	-0.8902646672	-0.173876
N	 1.9265316899	-0.7879221819	 0.381416971	-0.338125
H	 2.3810457776	-1.6939482842	 0.4047228095	 0.233499
H	 2.4979889697	 0.4567574217	 1.7307934357	 0.301229
C	 0.6623638932	-0.6814358117	 1.1515582797	-0.140033
C	 0.799594221	 0.1658862406	 2.4143648339	 0.432367
O	 1.9973122927	 0.7600427245	 2.5215877244	-0.370277
O	-0.0880443098	 0.3105845599	 3.2124286364	-0.347278
H	 0.6512757632	 2.0339132691	 0.2894577116	 0.1292
H	-0.5924280209	 1.8928250115	-0.9639686086	 0.115762
H	-1.0286795262	 1.7287891064	 0.7473744683	 0.146151
H	-0.9386737422	-0.5098053212	-0.3883052906	 0.091155
H	 1.0480285192	-1.3114625166	-1.5382117196	 0.106333
H	 1.7416866582	 0.3274284923	-1.4728233824	 0.112733
H	 0.1909897209	-1.6311459997	 1.4222759469	 0.101544
70.8948	125.9892	158.0452	247.9849	292.656	347.7582	393.3972	485.6314	613.9242	682.8414	748.0485	797.7604	842.7276	876.3945	918.8439	925.7308	957.359	1014.1412	1030.8647	1077.4551	1109.7686	1141.9557	1175.7013	1223.6198	1242.9489	1269.666	1300.4143	1344.7756	1369.7167	1376.3607	1416.7675	1432.8887	1496.2823	1499.7793	1519.8586	1867.5419	3029.7059	3037.5474	3061.8348	3075.5113	3090.402	3109.4614	3118.0565	3456.4538	3535.3819
CC1C[NH2+]C1C([O-])=O	C[C@H]1CN[C@H]1C(=O)O	
InChI=1S/C5H9NO2/c1-3-2-6-4(3)5(7)8/h3-4,6H,2H2,1H3,(H,7,8)	InChI=1S/C5H9NO2/c1-3-2-6-4(3)5(7)8/h3-4,6H,2H2,1H3,(H,7,8)/t3-,4+/m0/s1
