20
gdb 40789	3.39084	1.36983	1.17656	1.3343	77.47	-0.2302	0.088	0.3181	1104.3785	0.172998	-403.106984	-403.099272	-403.098327	-403.139397	30.345	
C	 0.2478451445	 1.4892559058	 0.061553573	-0.179903
O	 1.0699349314	 0.4047198286	-0.3912033669	-0.240581
C	-0.2537211543	 0.1117408336	 0.0634763895	 0.08315
C	-0.4004925935	-0.7180994526	 1.3191571487	 0.013005
C	 0.0221795454	-2.2002931691	 1.137004943	-0.255225
C	 0.4067366141	-2.6398274547	 2.5638129656	-0.233262
C	 0.8492551622	-1.346491069	 3.2339164425	-0.01239
C	 1.7777096336	-0.4655304029	 2.4864237526	-0.244991
N	 0.3277306449	-0.1812753971	 2.4872646009	-0.11437
H	 0.5494490126	 1.9366981184	 1.0048749693	 0.13456
H	-0.0728087987	 2.1812525864	-0.715801134	 0.110876
H	-0.9358324286	-0.1825294056	-0.7371431425	 0.088958
H	-1.4639676016	-0.6843317461	 1.5948201382	 0.083744
H	-0.7786347581	-2.8075758062	 0.7082130019	 0.101275
H	 0.8768618412	-2.2684961255	 0.4580566659	 0.122207
H	-0.4634783694	-3.0435142193	 3.093756425	 0.104962
H	 1.1812643786	-3.4128072236	 2.5749649661	 0.107046
H	 0.7968238056	-1.282646809	 4.3171365301	 0.08721
H	 2.3673548973	 0.2711634094	 3.0240107216	 0.112239
H	 2.2395620028	-0.8289604715	 1.5755176898	 0.13149
71.9842	146.6761	190.9016	259.367	300.2258	376.1286	450.2674	578.1574	642.1746	651.275	741.3059	795.1924	840.7079	861.474	873.7632	902.0637	932.1953	956.787	985.1895	989.2706	1038.3262	1069.5857	1085.2858	1107.0602	1116.4227	1129.4071	1160.2809	1170.1196	1174.0446	1188.6955	1215.4455	1272.5894	1296.4287	1299.2445	1326.6595	1342.7221	1374.7677	1390.8083	1435.6686	1490.1194	1497.6125	1519.9721	1525.5264	3005.9688	3041.067	3062.6402	3083.1875	3085.5436	3095.7839	3109.0313	3126.1526	3147.2766	3192.9973	3215.9382
C1OC1C1CCC2CN12	C1O[C@H]1[C@H]1CC[C@H]2CN12	
InChI=1S/C7H11NO/c1-2-6(7-4-9-7)8-3-5(1)8/h5-7H,1-4H2	InChI=1S/C7H11NO/c1-2-6(7-4-9-7)8-3-5(1)8/h5-7H,1-4H2/t5-,6+,7+,8?/m0/s1
