20
gdb 14556	3.21355	1.72977	1.43081	1.3063	74.36	-0.2411	0.0703	0.3114	974.9702	0.176548	-348.973328	-348.965032	-348.964088	-349.005677	32.17	
C	 0.0662426368	 1.4578693642	-0.2826400515	-0.393472
C	 0.0101503362	 0.0006087182	 0.1933293316	-0.241881
C	-1.3757070544	-0.6039068678	 0.0730139518	 0.427274
O	-2.3336671813	 0.034659192	 0.8925508345	-0.484371
C	-1.9763016396	-1.1493083398	-1.2016560267	-0.122111
C	-0.9526377585	-1.9128827466	-2.0510341264	-0.244869
C	-0.6561002843	-2.8475873274	-0.830528037	-0.244619
C	-1.6809057891	-2.07062729	 0.0015439768	-0.096018
H	 1.0768081129	 1.8657437917	-0.1880909245	 0.115351
H	-0.2334442024	 1.5435892743	-1.3330279111	 0.117218
H	-0.5970578413	 2.095091371	 0.3122587343	 0.110575
H	 0.7322385564	-0.5940385373	-0.3736781842	 0.100211
H	 0.3142799253	-0.0557922864	 1.2456497756	 0.103496
H	-2.5583766302	 0.8763543836	 0.4824311015	 0.281936
H	-2.9360833977	-0.7819690294	-1.5475488953	 0.078114
H	-1.4162374672	-2.4566412312	-2.8771228356	 0.104785
H	-0.1156432376	-1.3322853152	-2.4528452207	 0.095035
H	-0.9714661815	-3.8756291748	-1.0210726739	 0.104975
H	 0.3710913837	-2.8711410042	-0.4524726558	 0.097057
H	-2.3787694263	-2.4962094849	 0.7123213366	 0.091312
75.2819	176.2942	207.1339	261.2611	270.8014	281.4212	335.2648	409.1846	489.3325	497.5564	657.764	730.2109	781.6974	790.6561	844.0561	878.0684	916.2916	956.3062	979.2191	993.8818	1009.8392	1020.7978	1054.5474	1096.2841	1100.206	1113.2149	1181.8817	1218.9992	1241.3676	1250.2736	1267.1793	1278.1697	1302.0277	1322.9769	1362.5476	1403.4585	1443.3801	1472.0195	1488.0836	1499.7905	1506.2304	1511.1498	3030.7352	3036.2805	3043.5396	3050.9706	3079.2662	3093.3198	3102.0943	3106.5299	3112.3025	3168.9739	3189.3786	3805.9522
CCC1(O)C2CCC12	CC[C@@]1(O)[C@H]2CC[C@@H]12	
InChI=1S/C7H12O/c1-2-7(8)5-3-4-6(5)7/h5-6,8H,2-4H2,1H3	InChI=1S/C7H12O/c1-2-7(8)5-3-4-6(5)7/h5-6,8H,2-4H2,1H3/t5-,6+,7+
