19
gdb 48211	2.16311	1.40568	0.9248	3.5158	76.41	-0.2483	-0.0327	0.2156	1269.503	0.15805	-419.143651	-419.13451	-419.133565	-419.178623	32.718	
O	-0.8201507537	 1.7505208376	-0.238742607	-0.250938
C	 0.1852946088	 1.3047060382	 0.2518369571	 0.163249
C	 1.5573754355	 1.9473098985	 0.0657204992	-0.095718
C	 1.727126617	 3.0472162666	 1.1083661003	 0.013204
C	 2.2480348396	 4.3791669151	 0.704713113	-0.241159
N	 0.8363875012	 4.2116161812	 1.0801670454	-0.313844
N	 2.5872591835	 0.9329474506	 0.2353949608	-0.072434
C	 2.9485867094	 0.1581241213	-0.9518907782	-0.229363
C	 3.8737688175	 1.1871299906	-0.4038607117	-0.217469
H	 0.179670772	 0.4030638707	 0.9018266267	 0.097514
H	 1.5561841994	 2.4104120251	-0.9379098441	 0.07474
H	 1.9456000562	 2.6708818893	 2.1049562983	 0.106457
H	 2.8405812959	 4.9664220771	 1.400414671	 0.123808
H	 2.4998541462	 4.52626331	-0.343004512	 0.110563
H	 0.2413403426	 4.1680951005	 0.2550658629	 0.243802
H	 3.1354893018	-0.8981723626	-0.784323133	 0.125004
H	 2.4423208895	 0.3906896374	-1.8871415876	 0.120598
H	 3.9892191064	 2.1080444368	-0.9718422138	 0.117149
H	 4.748772511	 0.8934478658	 0.1681964727	 0.124837
56.5221	71.4009	101.54	163.758	189.3843	214.5474	348.9358	401.0242	420.6876	464.7976	524.2728	787.9245	802.3212	853.4086	893.7386	909.2939	931.4338	956.1914	970.2256	1019.1086	1037.5608	1081.5971	1103.1771	1115.8966	1122.2005	1133.0147	1157.7576	1173.4076	1183.9954	1220.4513	1241.1546	1279.7668	1295.0901	1313.5483	1327.6688	1391.6235	1414.3549	1491.0034	1507.9153	1519.0722	1827.6333	2904.7429	2935.2602	3099.6045	3104.0778	3105.9044	3138.4898	3184.6877	3191.2194	3198.6977	3494.6918
O=CC(C1CN1)N1CC1	O=C[C@@H]([C@H]1CN1)N1CC1	
InChI=1S/C6H10N2O/c9-4-6(5-3-7-5)8-1-2-8/h4-7H,1-3H2	InChI=1S/C6H10N2O/c9-4-6(5-3-7-5)8-1-2-8/h4-7H,1-3H2/t5-,6+/m1/s1
