22
gdb 110029	2.05968	1.62005	1.04787	3.6624	82.74	-0.2309	0.0369	0.2678	1235.1419	0.194935	-404.411325	-404.401728	-404.400784	-404.44598	35.543	
C	 0.2770845587	 1.3709032269	-0.2062195212	-0.381534
C	 0.0166446175	-0.1220164275	 0.0226938249	-0.152972
N	-1.3932897664	-0.4744091516	 0.0945079562	-0.059042
C	-2.1171206248	-0.715082057	 1.3405290903	 0.028534
C	-2.3828790135	 0.564337133	 2.1443324817	-0.390221
C	-3.4145797916	-1.4127536555	 0.8502165075	-0.233734
C	-3.5658984455	-0.9744089749	-0.6140808727	-0.333706
C	-2.1456604782	-0.6059806202	-1.0413627646	 0.405931
O	-1.7352560232	-0.4393107352	-2.1738201899	-0.405903
H	 1.3535861628	 1.558256524	-0.2756560375	 0.113759
H	-0.1872269823	 1.6875715933	-1.1431421776	 0.149556
H	-0.1230632646	 1.9838589507	 0.6067592583	 0.114165
H	 0.4502818009	-0.6885671978	-0.8079166018	 0.131342
H	 0.495810252	-0.4637147127	 0.9465679832	 0.099461
H	-1.5297255763	-1.3987514437	 1.9674308165	 0.07993
H	-2.9860005	 1.2730950899	 1.5672009103	 0.121292
H	-2.9209411913	 0.3252023537	 3.0677081141	 0.117513
H	-1.4485457723	 1.061236651	 2.4218460804	 0.122361
H	-3.2875545564	-2.4978025887	 0.903314464	 0.11209
H	-4.2716766346	-1.1508877719	 1.4747232617	 0.105456
H	-3.9721488245	-1.7439594408	-1.2727776879	 0.128505
H	-4.1992556565	-0.0872130452	-0.7258421859	 0.127217
73.3906	85.2378	123.8188	141.8695	212.8623	264.862	291.5085	334.9642	360.9086	446.5639	498.2999	579.7354	632.9328	661.4436	743.6975	770.6392	798.4429	894.3317	942.139	961.1159	975.6928	1015.4537	1055.5532	1094.1304	1101.773	1122.2643	1140.8345	1194.8342	1230.0473	1255.5804	1278.2205	1306.4003	1328.7562	1363.2543	1382.6359	1392.7069	1406.4053	1409.3378	1444.4566	1472.4063	1478.4798	1488.6592	1490.6989	1500.2693	1501.9308	1508.9601	1794.7149	3008.2189	3033.1275	3040.0505	3043.3672	3053.7678	3061.7308	3084.1133	3103.6763	3106.8948	3110.2477	3113.472	3120.8053	3134.0836
CCN1C(C)CCC1=O	CCN1[C@@H](C)CCC1=O	
InChI=1S/C7H13NO/c1-3-8-6(2)4-5-7(8)9/h6H,3-5H2,1-2H3	InChI=1S/C7H13NO/c1-3-8-6(2)4-5-7(8)9/h6H,3-5H2,1-2H3/t6-/m0/s1
