19
gdb 113407	3.00018	1.30383	1.05948	2.621	76.26	-0.2306	0.0641	0.2948	1165.5808	0.15852	-422.921029	-422.912771	-422.911827	-422.954058	31.87	
O	 0.3836325394	 0.4796612847	 0.897226806	-0.413091
C	-0.0957075407	 0.1330928198	-0.3983392209	-0.08102
C	-1.4639077662	-0.508033219	-0.3676866526	-0.144647
C	-1.8468636495	-1.5625320803	-1.4103218259	-0.40492
C	-1.612175346	-1.9416072999	 0.0047654455	 0.47439
C	-0.7001749029	-2.9868901115	 0.6685810298	-0.039858
C	-1.2595812473	-2.5614251126	 2.0478813842	-0.215077
C	-2.4345953367	-2.7106157351	 1.0462452135	-0.059199
O	-1.8122321448	-3.9667065273	 0.5550693542	-0.313462
H	-0.1899244074	 1.1687812721	 1.2472125599	 0.281894
H	-0.0991239856	 1.0098991881	-1.0641490334	 0.092614
H	 0.6359274896	-0.5751371901	-0.8016506187	 0.107702
H	-2.2683178708	 0.1604605597	-0.0619558006	 0.079934
H	-2.8617668351	-1.5532437507	-1.7940542681	 0.117639
H	-1.0976176976	-1.8366267096	-2.147548161	 0.117775
H	 0.2993654518	-3.32216894	 0.3925324393	 0.096585
H	-1.2167252621	-3.3336884225	 2.8168113167	 0.102859
H	-1.0023080042	-1.562473159	 2.4044977992	 0.106846
H	-3.5107250039	-2.7147993569	 1.2229154227	 0.093036
82.1811	118.5639	162.1316	218.0298	293.102	314.8667	393.175	450.0422	528.3714	597.62	675.8234	727.7903	796.3685	828.5847	869.9419	877.0821	919.0933	943.3383	978.1116	994.5268	1025.0215	1038.3672	1055.685	1065.8132	1097.0571	1119.2426	1120.7113	1133.7138	1164.9437	1172.743	1210.196	1234.6679	1242.5742	1263.767	1346.0166	1382.4918	1410.4639	1446.4503	1478.039	1500.1505	1521.6828	2985.5082	3069.4314	3074.502	3110.8104	3114.3892	3122.6935	3124.3266	3158.213	3205.8024	3817.9761
OCC1CC11C2CC1O2	OC[C@H]1C[C@]21[C@H]1C[C@@H]2O1	
InChI=1S/C7H10O2/c8-3-4-2-7(4)5-1-6(7)9-5/h4-6,8H,1-3H2	InChI=1S/C7H10O2/c8-3-4-2-7(4)5-1-6(7)9-5/h4-6,8H,1-3H2/t4-,5-,6+,7+/m1/s1
