16
gdb 54183	2.36721	1.27088	1.05496	5.1084	67.33	-0.2399	-0.0225	0.2174	1171.1783	0.12212	-475.050225	-475.041037	-475.040093	-475.084363	33.689	
N	-0.107758685	 1.336633488	 0.1338126751	-0.53362
C	 0.0206031814	 0.027029192	-0.2001804888	 0.349988
O	 1.0526261423	-0.4756659137	-0.6101628582	-0.375359
C	-1.2586042897	-0.7692507176	-0.0394728592	 0.267901
O	-2.4066909352	-0.0217366717	 0.2649095059	-0.464602
C	-1.3978144119	-2.0346942724	-0.8243451383	-0.349967
C	-1.2032517857	-2.1213756958	 0.6796454617	-0.122302
C	 0.0476252214	-2.6977746731	 1.2466735247	 0.137217
O	 0.064718314	-3.3076920805	 2.2892518039	-0.269529
H	 0.7230253555	 1.9046390214	 0.155028135	 0.267259
H	-0.9472196225	 1.6519936047	 0.5903135874	 0.270746
H	-2.7942586346	 0.2796719446	-0.5650646543	 0.294788
H	-2.3807332416	-2.2833022854	-1.2074661786	 0.129039
H	-0.5515266268	-2.3009740747	-1.4478209248	 0.156001
H	-2.0885705727	-2.3157178883	 1.2750821896	 0.124772
H	 0.9587157711	-2.5428117675	 0.6393271887	 0.117668
66.0001	91.7732	153.3034	215.1202	267.071	295.1209	326.7376	365.727	411.7687	415.5155	477.0716	504.0933	554.2038	638.5542	683.061	774.4355	849.6863	879.6994	913.9572	977.3597	1051.1471	1075.6764	1081.4829	1097.6093	1166.8941	1214.805	1249.5578	1320.9078	1352.0063	1397.3231	1433.1756	1456.1834	1593.4867	1785.6687	1807.52	2970.3576	3139.8874	3185.4223	3240.1241	3597.4721	3735.6497	3791.7616
NC(=O)C1(O)CC1C=O	NC(=O)[C@@]1(O)C[C@H]1C=O	
InChI=1S/C5H7NO3/c6-4(8)5(9)1-3(5)2-7/h2-3,9H,1H2,(H2,6,8)	InChI=1S/C5H7NO3/c6-4(8)5(9)1-3(5)2-7/h2-3,9H,1H2,(H2,6,8)/t3-,5+/m0/s1
