22
gdb 122454	3.46874	0.6627	0.59237	4.1943	88.05	-0.2835	0.0322	0.3158	1929.91	0.193529	-367.229566	-367.219327	-367.218383	-367.266039	36.686	
C	 0.2051833029	 1.5480980137	 0.1609159791	-0.381649
C	-0.0883274617	 0.0656318662	-0.0835473336	-0.166055
C	 0.7417288293	-0.5315492076	-1.2248281276	-0.158373
C	 0.4455015266	-2.0168344521	-1.4714851427	-0.21857
C	 1.2662632039	-2.5947953755	-2.6042377999	-0.00045
C	 2.6496811843	-3.1211308748	-2.367887686	-0.281552
C	 1.5291086759	-4.0942696073	-2.7121585722	-0.188492
C	 1.0339006492	-4.9907043388	-1.7061451072	 0.287814
N	 0.6305163708	-5.7138354379	-0.8974092516	-0.345275
H	 1.2571676847	 1.7058918527	 0.4236128037	 0.114144
H	-0.0045421286	 2.1463216379	-0.7328958143	 0.11347
H	-0.4045717995	 1.9461376302	 0.9778076559	 0.11418
H	 0.1009111145	-0.5033640842	 0.8360658182	 0.100081
H	-1.1555577978	-0.0659619525	-0.3056360083	 0.097663
H	 0.5535323469	 0.0361654695	-2.1468518865	 0.092257
H	 1.8107098416	-0.4062775246	-1.005536043	 0.09675
H	 0.6336562429	-2.5892196378	-0.5550737535	 0.117157
H	-0.6214867779	-2.1463328872	-1.6951267346	 0.10809
H	 1.1022797519	-2.1198542017	-3.5684614795	 0.100303
H	 3.416530359	-2.9734300902	-3.1193680711	 0.128249
H	 3.0129081672	-3.1415274203	-1.346271265	 0.138336
H	 1.5370744839	-4.5204245578	-3.7096039903	 0.131923
46.136	70.2263	84.3261	130.1845	153.8683	211.153	246.913	294.2435	315.3684	408.9676	436.9813	555.8575	629.8052	734.5447	771.0894	788.465	816.1194	867.9215	907.6133	911.2916	950.126	990.1359	1026.1491	1063.4937	1067.7019	1077.6731	1117.8433	1132.3394	1148.5853	1198.5687	1225.877	1252.5996	1279.9184	1316.752	1331.9165	1354.9073	1376.0162	1397.7014	1412.2993	1421.7751	1478.5666	1485.4211	1489.8039	1499.5	1500.2815	1512.1228	2350.112	3005.3154	3016.237	3024.1459	3029.6116	3031.869	3051.0396	3069.6972	3095.8712	3103.2004	3139.2683	3141.9457	3170.1095	3231.656
CCCCC1CC1C#N	CCCC[C@H]1C[C@H]1C#N	
InChI=1S/C8H13N/c1-2-3-4-7-5-8(7)6-9/h7-8H,2-5H2,1H3	InChI=1S/C8H13N/c1-2-3-4-7-5-8(7)6-9/h7-8H,2-5H2,1H3/t7-,8-/m0/s1
