17
gdb 33779	3.68539	1.41001	1.20524	3.7891	77.28	-0.2349	-0.0139	0.221	1031.0738	0.138607	-380.85325	-380.8462	-380.845256	-380.884476	28.433	
N	-0.0382509405	-1.1794684433	-0.0370113781	-0.337409
C	-0.0421219671	-0.0231895669	-0.0259545197	 0.16931
C	-0.0215297927	 1.4264299803	 0.0140799074	 0.132355
C	-0.1985443241	 2.1779191653	 1.3736899274	-0.200678
N	 0.7156146661	 3.2532227211	 0.8558556085	-0.125885
C	 1.340229494	 2.1943236014	-0.0094274987	-0.20065
C	-0.064692786	 4.1714468412	-0.0013785833	-0.223683
C	-0.9486831705	 3.4400985599	-0.9935418625	-0.089402
C	-0.9377392652	 2.1088267845	-0.997157025	-0.091473
H	-1.2102974339	 2.4945614008	 1.6333918824	 0.121573
H	 0.2720343339	 1.6618536203	 2.2141387879	 0.127168
H	 2.1319903969	 1.6816840424	 0.542331796	 0.127177
H	 1.7021410505	 2.5256195915	-0.9844227099	 0.121583
H	-0.6668402981	 4.819186852	 0.6485090281	 0.123621
H	 0.6377682239	 4.8331048803	-0.5241211204	 0.123622
H	-1.5681688443	 4.0142652154	-1.6759233232	 0.105463
H	-1.5339060329	 1.5014605139	-1.6676036068	 0.117308
149.1399	150.6917	294.9646	375.5453	416.5503	451.1462	473.7211	555.4754	562.2146	589.1748	709.6246	714.2571	804.9659	894.2079	911.8322	924.2929	944.5895	972.214	984.2705	1003.9702	1008.9117	1070.1872	1122.2645	1149.608	1202.8825	1217.367	1254.7165	1271.3856	1275.1359	1292.3534	1352.2252	1382.7568	1470.7548	1486.8956	1513.6896	1694.126	2351.7209	3021.8273	3052.3462	3059.8928	3066.2701	3130.7553	3131.8396	3171.912	3206.6272
N#CC12CN(C1)CC=C2	N#C[C@@]12CN(C1)CC=C2	
InChI=1S/C7H8N2/c8-4-7-2-1-3-9(5-7)6-7/h1-2H,3,5-6H2	InChI=1S/C7H8N2/c8-4-7-2-1-3-9(5-7)6-7/h1-2H,3,5-6H2
