21
gdb 84693	2.78275	1.64382	1.39056	1.3559	82.57	-0.2352	0.0204	0.2556	1037.3982	0.185755	-387.113596	-387.106048	-387.105104	-387.145167	30.964	
C	-0.1511299732	 1.5757045689	 0.0102371651	-0.407804
C	 0.0232304338	 0.0478533654	-0.0236713972	-0.021327
C	 0.6883221914	-0.4206707306	-1.29946468	-0.050291
C	 1.8133903837	-1.1374683155	-1.3064067989	-0.08226
C	 2.4892006339	-1.5268363049	-0.0079020754	-0.083319
C	 1.6688328117	-2.6138775228	 0.7161799275	-0.063388
O	 0.5727272733	-1.9130164149	 1.3118944083	-0.280884
C	 0.795989969	-0.4984640501	 1.1986489577	 0.099936
C	 2.310181828	-0.3735680707	 0.9982709783	-0.243204
H	 0.8150074651	 2.0912105683	 0.0027038138	 0.117734
H	-0.7144033468	 1.9229402611	-0.861908822	 0.115947
H	-0.6964098232	 1.8892255457	 0.9068552432	 0.11416
H	-0.9774819643	-0.4037813106	 0.0279706461	 0.089943
H	 0.2064935353	-0.1446333026	-2.2352107104	 0.083281
H	 2.2513091275	-1.4773031626	-2.2407526848	 0.084026
H	 3.5280109243	-1.8267345236	-0.1601670123	 0.067053
H	 1.2777074693	-3.3800206833	 0.0386332324	 0.101407
H	 2.266577873	-3.1082808012	 1.4966266573	 0.087713
H	 0.4310511662	-0.032532401	 2.1194435771	 0.06869
H	 2.8441235278	-0.5676631421	 1.9334844117	 0.097956
H	 2.6230093645	 0.5936141169	 0.6010000524	 0.104633
138.6462	204.9944	220.955	266.4583	342.046	404.8029	418.2752	495.8265	566.9887	640.2043	733.0622	766.6441	808.1753	842.064	886.2343	894.1849	909.4369	943.9498	962.2624	988.3988	995.5247	1025.2241	1057.6342	1074.2842	1093.829	1107.4965	1141.1188	1145.3578	1178.9293	1213.5405	1238.3196	1297.6205	1309.4597	1319.2682	1336.2798	1342.9857	1374.4808	1385.1705	1401.1002	1422.5523	1485.0247	1497.0839	1501.3248	1523.2389	1704.6141	2988.2892	3006.4794	3030.815	3051.506	3063.7061	3065.9745	3090.9587	3100.3271	3101.6306	3120.9015	3141.2605	3170.2998
CC1C=CC2COC1C2	C[C@H]1C=C[C@@H]2CO[C@H]1C2	
InChI=1S/C8H12O/c1-6-2-3-7-4-8(6)9-5-7/h2-3,6-8H,4-5H2,1H3	InChI=1S/C8H12O/c1-6-2-3-7-4-8(6)9-5-7/h2-3,6-8H,4-5H2,1H3/t6-,7-,8-/m0/s1
