17
gdb 51780	2.68215	1.17908	0.91197	2.8809	70.77	-0.2447	-0.0418	0.2029	1259.5762	0.135929	-455.145761	-455.136943	-455.135999	-455.180585	31.021	
O	 0.1729025289	-0.3660653472	 0.274308342	-0.327098
C	 0.0774239449	 0.8309323662	 0.4520081299	 0.147255
N	 1.0779444244	 1.7334154005	 0.2634703226	-0.293691
C	 2.4070605078	 1.3344660117	-0.1062516561	 0.047376
C	 3.0025667046	 1.6948587116	-1.4952423876	-0.195423
N	 4.2819659909	 2.1376790077	-0.8517205856	-0.331947
C	 3.6282673496	 2.0810887709	 0.495501558	-0.13439
C	 3.4535253909	 3.5258435637	 0.9274892516	 0.192362
O	 2.4052122559	 4.1066284521	 1.0768010329	-0.259652
H	-0.8575430369	 1.3186302145	 0.7897766633	 0.079721
H	 0.9377208461	 2.7042144244	 0.5048161154	 0.269771
H	 2.478839978	 0.260116804	 0.0707973505	 0.127353
H	 3.1008773645	 0.873376038	-2.2090469449	 0.121552
H	 2.4991730634	 2.5346267967	-1.98538479	 0.119722
H	 5.0042759337	 1.4313651912	-0.9385981264	 0.233939
H	 4.193653764	 1.5533130415	 1.2738007735	 0.101644
H	 4.4237850492	 4.0545717926	 1.0474662611	 0.101505
43.4343	72.4619	120.7065	169.202	221.5654	242.6618	336.1157	383.1501	426.0275	630.6461	647.4144	704.197	730.8762	828.0453	874.4116	906.0878	947.7479	985.727	1001.2758	1034.5738	1060.177	1089.1981	1121.0673	1154.4935	1227.9549	1259.1942	1266.5855	1303.2427	1319.2255	1371.1439	1396.194	1422.8383	1428.7735	1507.4498	1533.3287	1799.2033	1813.9692	2907.4607	2946.8228	3031.327	3047.4444	3099.931	3114.564	3536.1703	3601.9234
O=CNC1CNC1C=O	O=CN[C@H]1CN[C@H]1C=O	
InChI=1S/C5H8N2O2/c8-2-5-4(1-6-5)7-3-9/h2-6H,1H2,(H,7,9)	InChI=1S/C5H8N2O2/c8-2-5-4(1-6-5)7-3-9/h2-6H,1H2,(H,7,9)/t4-,5-/m0/s1
