20
gdb 107565	2.71665	1.37446	1.2228	2.1454	78.51	-0.2412	0.0291	0.2703	1132.4411	0.172075	-403.150202	-403.141782	-403.140837	-403.183379	32.217	
C	 0.4839946957	-0.2888131882	 1.3790273677	-0.383977
C	-0.0773799538	-0.0479384819	-0.0281096956	-0.263822
C	 0.8575277227	-0.4485840416	-1.1595307381	 0.282804
C	 0.243414318	-0.9972124201	-2.4370445091	-0.373738
C	 0.9880985633	-1.9050710108	-1.4958482577	 0.08326
O	 2.2322123	-2.4376168397	-1.8942701649	-0.224472
C	 3.245040328	-1.5555654865	-2.0857604455	 0.122979
N	 3.2855742681	-0.3103404433	-1.8860518047	-0.26893
C	 2.1329566193	 0.3747780148	-1.3159363875	-0.232182
H	 0.7363883955	-1.3439840199	 1.5271705513	 0.120125
H	 1.3888178872	 0.2969683808	 1.5673807558	 0.124591
H	-0.2505325623	-0.0096013965	 2.1404647731	 0.116467
H	-1.0168922925	-0.6041023801	-0.1363990911	 0.0948
H	-0.3427197927	 1.0115300015	-0.1467069775	 0.101775
H	-0.835289199	-1.0962157954	-2.4985154987	 0.114734
H	 0.7330985295	-0.7567815713	-3.3755143111	 0.127276
H	 0.4436656054	-2.6480487547	-0.9237498682	 0.106256
H	 4.1129577629	-2.084023763	-2.4752135288	 0.123258
H	 1.9365800409	 1.2689941301	-1.923332446	 0.110856
H	 2.4439300237	 0.7485181359	-0.3328634033	 0.117941
82.8	93.7658	172.603	222.7267	269.6597	323.1642	400.021	468.5354	497.003	510.9338	540.7035	700.2397	781.7472	789.6405	873.4066	906.68	915.6414	944.3303	963.9685	987.7109	1013.5964	1028.4229	1049.6778	1067.1373	1094.9084	1115.8387	1130.5753	1196.1625	1249.9569	1268.5644	1290.161	1353.278	1354.5129	1372.6279	1406.6647	1413.169	1429.6081	1476.5224	1485.3537	1491.4983	1502.5132	1507.6298	1744.073	3009.1865	3014.1478	3037.2139	3045.6248	3047.0519	3106.149	3108.2704	3126.8329	3161.3695	3172.0816	3216.4179
CCC12CC1OC=NC2	CC[C@]12C[C@H]1OC=NC2	
InChI=1S/C7H11NO/c1-2-7-3-6(7)9-5-8-4-7/h5-6H,2-4H2,1H3	InChI=1S/C7H11NO/c1-2-7-3-6(7)9-5-8-4-7/h5-6H,2-4H2,1H3/t6-,7-/m1/s1
