21
gdb 75031	1.99219	1.78567	1.03386	0.8885	96.39	-0.2013	-0.022	0.1793	1222.1236	0.183096	-349.992597	-349.983763	-349.982819	-350.025637	34.386	
C	-0.0977637822	 1.5030377587	 0.064333049	-0.48101
C	 0.0070642198	 0.0060534974	 0.0035424118	 0.286431
C	 0.085176062	-0.6721981337	-1.1615414304	-0.141253
C	 0.0367441908	-2.1067307223	-1.3071242412	-0.105652
C	-0.6377147165	-2.97194023	-0.5013814852	-0.105652
C	-1.4313329951	-2.6176073139	 0.6501572808	-0.141253
C	-1.2148554613	-1.5614502136	 1.4633098314	 0.286431
C	-2.1755582128	-1.1623999575	 2.5465712394	-0.48101
C	 0.0575229321	-0.75603969	 1.310333413	-0.398007
H	 0.7353946059	 1.9381505749	 0.6323802609	 0.123681
H	-0.1081185103	 1.9514450565	-0.9326165232	 0.121486
H	-1.0160087281	 1.8131143422	 0.5808984305	 0.127702
H	 0.1686254946	-0.1007312771	-2.0846217494	 0.078743
H	 0.4785507744	-2.5134098903	-2.214401031	 0.084219
H	-0.6889274427	-4.011074662	-0.8196724446	 0.084219
H	-2.2903742739	-3.2551874061	 0.8530244719	 0.078742
H	-3.0481540481	-1.8200957377	 2.5796998362	 0.121486
H	-1.6923846201	-1.176253537	 3.5327279584	 0.123681
H	-2.5351804138	-0.1357093496	 2.3957754903	 0.127702
H	 0.9184470337	-1.4381068132	 1.2985765557	 0.118007
H	 0.1855093716	-0.0705499556	 2.1535476056	 0.091307
113.0167	138.935	185.7887	198.0495	256.1704	340.9685	346.876	376.2102	387.0134	453.1549	522.038	597.9717	606.7925	767.1703	786.0908	819.6663	877.212	890.4562	924.7606	943.4799	970.2012	991.405	1001.6087	1052.0389	1064.5423	1077.4977	1096.7928	1156.031	1191.2035	1265.6593	1281.5286	1325.0477	1356.9317	1373.9683	1406.7492	1411.651	1460.2619	1473.945	1475.6846	1478.7222	1488.8116	1489.4308	1587.4722	1681.6501	1687.886	3004.72	3008.9753	3009.4299	3051.0783	3052.4577	3078.8148	3109.9636	3110.5453	3128.6372	3133.7834	3142.9158	3159.8926
CC1=CC=CC=C(C)C1	CC1=CC=CC=C(C)C1	
InChI=1S/C9H12/c1-8-5-3-4-6-9(2)7-8/h3-6H,7H2,1-2H3	InChI=1S/C9H12/c1-8-5-3-4-6-9(2)7-8/h3-6H,7H2,1-2H3
