18
gdb 40502	4.35947	1.28949	1.17632	0.9873	75.23	-0.2239	0.0665	0.2904	1081.6125	0.148882	-401.8465	-401.839328	-401.838383	-401.878471	28.491	
C	 1.0611148691	 1.1001190005	 0.2193332872	-0.229029
N	 0.6573676369	-0.0372199216	-0.6248175905	-0.312726
C	-0.2839538589	 0.4900796508	 0.3781031982	-0.189171
C	-0.5884058903	-0.4373289907	 1.4870345347	 0.54924
O	-1.0112202501	 0.0765074966	 2.755640744	-0.339964
C	-0.7731769401	-1.2619972011	 3.2788672346	 0.059111
C	-1.9161997018	-2.1049013338	 2.6566448808	-0.236499
C	-1.2009841889	-1.8470057933	 1.3311868668	-0.155982
C	 0.1337030544	-1.6156524574	 2.0396683657	-0.198066
H	 1.8366269296	 0.8738244411	 0.9443877033	 0.123901
H	 1.1222917633	 2.088157991	-0.2283987535	 0.114344
H	 0.3923937213	 0.2903179966	-1.5494549762	 0.236355
H	-1.1329128829	 1.073310509	 0.0249125505	 0.092727
H	-0.520327705	-1.2750354891	 4.3368185361	 0.084831
H	-1.8495301693	-3.1563325531	 2.9486993347	 0.102944
H	-2.9327972696	-1.7261666049	 2.8031793883	 0.097978
H	-1.3632793084	-2.2979124497	 0.3612005752	 0.095355
H	 1.1247709009	-2.0216264408	 1.8971440503	 0.104652
68.6863	150.6424	171.7785	328.7861	442.8254	468.114	565.7859	606.5708	780.2275	785.4597	788.9459	836.5868	859.8875	884.3162	905.4018	912.5564	930.583	950.7358	956.2726	973.7726	1005.2085	1026.6689	1066.1285	1090.2769	1111.3952	1114.7585	1124.8023	1157.8742	1172.1311	1189.0854	1235.4091	1252.2571	1274.042	1284.8527	1300.0495	1402.7099	1486.43	1493.8543	1514.7928	3046.4863	3108.9048	3114.5123	3119.9923	3145.4793	3205.0279	3207.0158	3221.2258	3512.1323
C1NC1C12OC3CC1C23	C1N[C@H]1[C@@]12O[C@H]3C[C@@H]1[C@@H]23	
InChI=1S/C7H9NO/c1-3-6-4(1)9-7(3,6)5-2-8-5/h3-6,8H,1-2H2	InChI=1S/C7H9NO/c1-3-6-4(1)9-7(3,6)5-2-8-5/h3-6,8H,1-2H2/t3-,4+,5-,6-,7+/m1/s1
