19
gdb 77597	2.35132	1.66085	1.35934	2.0101	76.74	-0.2152	0.0177	0.2329	1038.837	0.158451	-423.016907	-423.008231	-423.007286	-423.049461	34.141	
C	-0.0406260468	 1.5833934706	 0.0284074424	-0.481374
C	 0.0360537089	 0.0771925554	-0.0016124073	 0.198357
C	 0.3844343124	-0.6507278343	-1.2564523777	-0.127359
C	 1.1329329303	-1.7350503568	-1.0351251526	-0.08363
C	 1.4734291435	-1.9012219393	 0.4316392425	-0.355248
C	 0.6671741135	-0.7854109533	 1.0875492651	 0.294767
O	 1.1742030931	-0.151917775	 2.2348878659	-0.481123
C	-0.8370211953	-0.765003485	 0.9504040677	 0.033809
O	-1.5428982942	-0.1307276422	 1.9668496712	-0.438901
H	 0.945691193	 2.0419961245	-0.0955525045	 0.120199
H	-0.685100597	 1.9469540498	-0.7797341085	 0.117181
H	-0.4686031884	 1.9332283001	 0.9702277765	 0.124692
H	 0.0252334789	-0.3242571611	-2.2268043258	 0.094752
H	 1.4725413794	-2.43136643	-1.7927689506	 0.096442
H	 1.2058502583	-2.8943890909	 0.8157645804	 0.106352
H	 2.5485697191	-1.76493557	 0.6201565239	 0.11094
H	 1.3101950418	-0.8282124955	 2.9093552787	 0.291138
H	-1.3696034356	-1.6193759686	 0.5400623991	 0.095165
H	-0.8797400649	 0.1819106615	 2.5989776936	 0.283843
136.3086	175.7235	211.5555	227.8156	261.6204	282.8313	307.9713	415.3383	449.1828	494.8171	524.6246	540.9356	644.6243	696.412	732.4276	753.7052	790.4106	892.1148	938.5431	956.882	963.9722	996.9743	1043.1925	1070.7758	1107.6102	1128.002	1158.9947	1198.8479	1211.5186	1240.6762	1267.7475	1306.5324	1321.0712	1365.3339	1405.0118	1415.8496	1452.8274	1482.678	1489.6493	1498.2035	1667.613	2999.8578	3034.5412	3035.7236	3092.2751	3125.6148	3137.3102	3181.5862	3209.8761	3726.8841	3781.4214
CC12C=CCC1(O)C2O	C[C@@]12C=CC[C@]1(O)[C@H]2O	
InChI=1S/C7H10O2/c1-6-3-2-4-7(6,9)5(6)8/h2-3,5,8-9H,4H2,1H3	InChI=1S/C7H10O2/c1-6-3-2-4-7(6,9)5(6)8/h2-3,5,8-9H,4H2,1H3/t5-,6-,7-/m0/s1
