18
gdb 128094	3.14792	1.24118	0.90289	3.7348	77.64	-0.1933	0.0364	0.2297	1283.8177	0.147577	-435.266006	-435.256341	-435.255397	-435.300565	34.632	
C	 0.1106277221	 1.4708845805	 0.06036667	-0.327996
N	-0.0867027679	 0.0279621095	 0.0781053404	-0.395217
C	 0.5498708462	-0.7451409532	 1.0130158044	 0.470969
C	 0.6949355836	-2.1036969578	 1.126648419	-0.023156
C	 0.190834192	-3.1885099225	 0.229345822	-0.537172
C	 1.3942526372	-2.2269013798	 2.3625753928	 0.359533
N	 1.7230876154	-3.4206266373	 2.9928969244	-0.590659
N	 1.6584234241	-1.0724069533	 2.9371711032	-0.265042
O	 1.0986629744	-0.1077583497	 2.0540808892	-0.235109
H	 1.1432849598	 1.765923878	-0.1723402062	 0.126309
H	-0.5585241145	 1.9034869853	-0.6864101761	 0.12613
H	-0.1468505693	 1.8854727265	 1.036946198	 0.158538
H	-0.1567879502	-0.4082909213	-0.8277734462	 0.249063
H	 0.937530327	-3.5363452536	-0.4977552413	 0.120007
H	-0.1216689027	-4.0601576754	 0.814905849	 0.137237
H	-0.6857354147	-2.8580899301	-0.3390429973	 0.121632
H	 2.0934351914	-4.1217448356	 2.3658778304	 0.249042
H	 2.3419818561	-3.2759203602	 3.7806795844	 0.25589
77.0678	107.3288	130.2942	178.7707	185.7853	232.7602	257.478	311.4079	351.4727	387.5875	469.5414	555.908	616.4027	649.3039	705.0641	733.0141	768.697	791.7431	932.5916	955.2014	1058.8202	1066.863	1125.9339	1144.9183	1155.3129	1202.5699	1242.3046	1383.0759	1422.6762	1448.3843	1467.6757	1485.7634	1490.0854	1499.0201	1516.8311	1531.4909	1579.3272	1646.0163	1701.802	3004.8828	3007.9667	3060.0434	3090.1455	3098.277	3139.7536	3544.7517	3625.3177	3641.3938
CNC1=C(C)C(N)=NO1	CNc1c(C)c(N)no1	
InChI=1S/C5H9N3O/c1-3-4(6)8-9-5(3)7-2/h7H,1-2H3,(H2,6,8)	InChI=1S/C5H9N3O/c1-3-4(6)8-9-5(3)7-2/h7H,1-2H3,(H2,6,8)
