14
gdb 15302	3.07947	1.64065	1.17095	5.1381	64.73	-0.2753	0.0018	0.2771	987.4861	0.106642	-378.709807	-378.702022	-378.701077	-378.742755	27.169	
N	-0.2090773429	 1.1657574776	 0.0012355266	-0.424555
C	-0.4159016749	-0.0366918731	-0.3013591866	 0.134663
O	-0.9862511203	-0.8629459862	 0.6200340869	-0.18328
C	-1.0037846823	-2.2190239055	 0.3081873325	 0.115919
C	-2.1344377454	-2.9965638994	 0.875739659	-0.310266
C	-2.079119352	-2.7683610921	-0.6330038832	-0.213043
C	-3.0088633299	-1.8730646745	-1.2564752503	 0.296057
N	-3.746915517	-1.1534903203	-1.7815485928	-0.328846
H	 0.1953912983	 1.6628339709	-0.7894274512	 0.238712
H	-0.197997788	-0.5338453802	-1.2542446085	 0.100824
H	-0.0234234379	-2.6846061075	 0.2388375866	 0.123632
H	-1.9568160443	-4.0029041351	 1.2343082929	 0.141318
H	-2.8758196906	-2.4261576492	 1.4218695845	 0.166181
H	-1.7910125027	-3.6127160354	-1.2504979864	 0.142682
62.6769	106.0711	148.5254	175.9314	243.5268	370.296	435.985	556.9612	564.1534	686.7569	774.3576	792.6199	827.427	861.3941	973.783	1022.1157	1044.1477	1068.9285	1080.7852	1123.6807	1127.3092	1179.4304	1243.1529	1275.6908	1370.6181	1395.974	1419.1679	1477.4016	1755.1632	2357.0525	3050.3187	3136.0675	3155.8264	3170.1357	3252.3965	3524.5229
N=COC1CC1C#N	[NH][CH]O[C@H]1C[C@H]1C#N	
InChI=1S/C5H6N2O/c6-2-4-1-5(4)8-3-7/h3-5,7H,1H2	InChI=1S/C5H6N2O/c6-2-4-1-5(4)8-3-7/h3-5,7H,1H2/t4-,5-/m0/s1
