19
gdb 15577	2.42978	2.11961	1.46343	3.9739	74.21	-0.3079	0.0317	0.3395	945.878	0.167267	-327.968104	-327.959965	-327.959021	-328.001013	30.003	
C	-0.3120195835	 1.5229353092	-0.0097242083	-0.421411
C	 0.012592748	 0.032622629	 0.030464781	 0.037316
C	 0.8740680438	-0.4781915544	-1.142657978	-0.211241
C	 1.5238671188	-1.8019353461	-0.6554709456	-0.206883
C	 1.2268634181	-1.891441786	 0.8654344872	-0.220053
C	 0.7964984808	-0.4611553098	 1.2802124704	-0.162361
C	 1.9583779136	 0.3844649029	 1.5664737868	 0.281342
N	 2.8799723861	 1.0487761242	 1.7830897668	-0.340044
H	 0.6016053894	 2.1252702631	 0.0155109445	 0.142022
H	-0.855462577	 1.7723456027	-0.9265365748	 0.118194
H	-0.9365175456	 1.8221296019	 0.8385802123	 0.116134
H	-0.9278959749	-0.5343049669	 0.0429522032	 0.080845
H	 0.2800021595	-0.6067848078	-2.0514137632	 0.101161
H	 1.6476078637	 0.2632789779	-1.3707230861	 0.117385
H	 1.1189712512	-2.6723560972	-1.1781179458	 0.105394
H	 2.6004257493	-1.7956977392	-0.8427129004	 0.117671
H	 0.3827603583	-2.5617593938	 1.0546189684	 0.108333
H	 2.0727998171	-2.2600342699	 1.4488341389	 0.11986
H	 0.1658413533	-0.4678125999	 2.1750824925	 0.116333
56.8577	109.9804	150.993	235.6261	242.7992	303.4656	405.9765	469.2351	559.4492	620.3617	690.5505	771.0933	808.401	857.6298	893.569	895.7839	946.8363	990.1486	1012.4682	1039.8846	1066.5024	1120.2345	1157.5608	1187.0318	1211.395	1224.3125	1278.4553	1300.7579	1313.9562	1334.8666	1338.0525	1373.2606	1381.9673	1419.3438	1488.0681	1492.3407	1499.7334	1501.1197	1513.2129	2348.6295	3014.6988	3035.1725	3047.2034	3053.4046	3063.9058	3069.6854	3087.8146	3102.1055	3104.7579	3111.0435	3120.185
CC1CCCC1C#N	C[C@H]1CCC[C@H]1C#N	
InChI=1S/C7H11N/c1-6-3-2-4-7(6)5-8/h6-7H,2-4H2,1H3	InChI=1S/C7H11N/c1-6-3-2-4-7(6)5-8/h6-7H,2-4H2,1H3/t6-,7-/m0/s1
