14
gdb 13045	4.68386	1.37542	1.12297	1.6399	60.24	-0.2655	0.0058	0.2713	997.1879	0.107614	-415.874888	-415.867282	-415.866338	-415.908444	26.267	
N	 0.4657892852	 1.2655432901	 0.1976760548	-0.544938
C	 0.2066533448	 0.0421862637	 0.1196978915	 0.40341
O	 0.9750086795	-1.0763373341	 0.3279085139	-0.249662
C	-0.1975664137	-1.9556981939	 0.2182228038	-0.086419
C	-1.0675766674	-0.7326183292	-0.1529584337	-0.064844
N	-2.1748761153	-0.369637721	 0.6925009905	-0.291171
C	-3.3509345848	-1.0491009505	 0.6292784527	 0.151781
O	-3.5185091469	-2.04180242	-0.0472012292	-0.321236
H	 1.4395553112	 1.4337793501	 0.4550513442	 0.23668
H	-0.0555465466	-2.708905027	-0.5572442399	 0.136477
H	-0.4315711779	-2.4143197336	 1.1803218114	 0.13403
H	-1.3641567825	-0.7417553936	-1.2059503495	 0.136983
H	-2.1098038649	 0.4965208374	 1.2054894732	 0.269403
H	-4.1334454306	-0.6041261284	 1.2730918862	 0.089506
20.5147	128.0314	139.1206	224.111	246.6027	399.4476	469.9683	524.9361	635.9109	726.7609	760.9762	870.4023	892.8137	951.7784	982.1317	1020.961	1034.7204	1080.4005	1113.0453	1153.0809	1202.8475	1232.767	1254.9588	1343.8348	1389.4197	1420.4908	1504.2011	1509.6746	1798.0541	1829.8295	2956.3128	3070.5793	3084.7378	3154.3782	3483.3688	3625.9042
N=C1OCC1NC=O	[NH][C]1OC[C@H]1NC=O	
InChI=1S/C4H6N2O2/c5-4-3(1-8-4)6-2-7/h2-3,5H,1H2,(H,6,7)	InChI=1S/C4H6N2O2/c5-4-3(1-8-4)6-2-7/h2-3,5H,1H2,(H,6,7)/t3-/m1/s1
