19
gdb 106735	2.55967	1.59947	1.19873	2.3308	76.18	-0.2257	0.0171	0.2428	1089.1778	0.157796	-423.00343	-422.994597	-422.993653	-423.03661	33.704	
C	 0.2425881665	 1.1657113281	 0.3092686077	-0.252724
O	-0.1628851471	-0.1033817919	-0.1757096128	-0.301082
C	 0.5460847305	-0.5556214023	-1.2843806995	 0.331926
C	 1.9466158487	-1.102113813	-1.0803917653	-0.39156
C	 0.779604649	-2.0460675559	-1.3478449808	 0.342649
O	 0.3458335216	-2.9008844778	-0.3404209946	-0.480076
C	 0.5529341322	-2.4199732219	-2.7750260936	-0.136614
C	 0.2337123506	-1.3517679757	-3.5098329993	-0.075433
C	 0.1426977625	-0.0830685874	-2.6821180545	-0.339906
H	 1.3081350956	 1.1722029816	 0.5748389318	 0.115306
H	 0.0601506777	 1.9569585684	-0.4306706069	 0.11493
H	-0.3529183881	 1.3718509302	 1.2015118396	 0.128399
H	 2.7054000251	-0.949876051	-1.8414585883	 0.109594
H	 2.3000505383	-1.1023921959	-0.054101225	 0.115242
H	-0.248453716	-2.3850995282	 0.2199688867	 0.292459
H	 0.6699099229	-3.435488944	-3.1337610427	 0.104405
H	 0.076773173	-1.3519254839	-4.5824068349	 0.097556
H	-0.8784494339	 0.3210287143	-2.668466261	 0.115842
H	 0.7954514108	 0.7089258562	-3.0698773464	 0.109088
92.6241	152.0486	163.3768	195.7109	247.0455	282.1569	311.8612	394.4491	456.8691	476.3481	510.3288	604.1377	694.278	740.4541	776.9769	813.7243	915.2881	922.4295	941.7323	945.6325	961.7004	997.2719	1040.7999	1056.1615	1102.2262	1150.7895	1175.2701	1181.9455	1212.8104	1226.9786	1253.5885	1313.0157	1332.2381	1374.7398	1415.2219	1455.7025	1472.8259	1484.6601	1489.7941	1507.4371	1665.3937	2998.5544	3018.4151	3051.9366	3054.946	3119.938	3121.7207	3191.3836	3217.0031	3217.6481	3765.0438
COC12CC1(O)C=CC2	CO[C@@]12C[C@]1(O)C=CC2	
InChI=1S/C7H10O2/c1-9-7-4-2-3-6(7,8)5-7/h2-3,8H,4-5H2,1H3	InChI=1S/C7H10O2/c1-9-7-4-2-3-6(7,8)5-7/h2-3,8H,4-5H2,1H3/t6-,7+/m1/s1
