15
gdb 17326	2.7582	2.51485	1.7286	2.0835	60.63	-0.2233	0.0569	0.2802	780.3407	0.117759	-399.684679	-399.677547	-399.676603	-399.715482	27.926	
O	 0.09535538	 1.4436290077	-0.1698820271	-0.418676
C	-0.0805006736	 0.0623882002	-0.0043968108	 0.006585
C	-0.4954877186	-0.7251793207	 1.2253931813	-0.130505
N	-1.6067300844	-0.2276471437	 2.1201119015	-0.142563
C	-2.0990427643	 1.1081555377	 1.6905580463	-0.251792
C	-2.4749997704	-0.0854812434	 0.9049665191	-0.10846
C	-1.3812794527	-0.6590981436	-0.0222658163	 0.329844
O	-1.6817646422	-1.6633349658	-0.9227516193	-0.449519
H	 0.9139808822	 1.6893660279	 0.276125093	 0.290031
H	 0.6542219074	-0.5347817383	-0.5524255614	 0.103119
H	 0.1268375189	-1.516017775	 1.6269731885	 0.109761
H	-2.8505471653	 1.4835592435	 2.3810212446	 0.118051
H	-1.4186292238	 1.8423523381	 1.2866215297	 0.147633
H	-3.4701675904	-0.5190784182	 0.8937131891	 0.105222
H	-1.8599315927	-1.2576261866	-1.7791853983	 0.291268
190.77	205.588	263.9982	289.7593	318.6552	352.1586	428.8978	533.8701	593.3781	660.5478	689.2602	756.9225	798.0598	867.3364	904.6584	960.9602	980.743	1008.1538	1045.8359	1084.1847	1121.196	1126.6776	1148.8016	1203.2049	1236.9034	1240.2822	1275.5507	1322.6374	1339.2665	1370.8653	1484.566	1505.4917	3067.4954	3126.0547	3161.6843	3184.2358	3262.3466	3785.3188	3793.6993
OC1C2N3CC3C12O	O[C@H]1[C@H]2N3C[C@H]3[C@@]12O	
InChI=1S/C5H7NO2/c7-4-3-5(4,8)2-1-6(2)3/h2-4,7-8H,1H2	InChI=1S/C5H7NO2/c7-4-3-5(4,8)2-1-6(2)3/h2-4,7-8H,1H2/t2-,3+,4-,5-,6?/m0/s1
