16
gdb 14705	3.97952	0.99071	0.85328	2.1769	69.13	-0.2662	0.0059	0.2721	1336.7854	0.128963	-379.930248	-379.921271	-379.920326	-379.965074	30.286	
C	-0.1181780659	 1.1084662552	-0.8399326084	-0.377276
C	-0.1021897742	-0.1744003748	-0.0219409205	-0.075607
O	 1.0479399273	-0.977673976	-0.3247520656	-0.199119
C	 0.9178367245	-1.8613949407	-1.3210825429	 0.142045
N	 1.9212786143	-2.5204972679	-1.7129590844	-0.243716
C	 1.7691813568	-3.5025228862	-2.7667253911	-0.23936
C	 0.4232872403	-3.6480172673	-3.3543266334	 0.230623
N	-0.6481685695	-3.722893709	-3.7818995321	-0.315664
H	 0.8048005749	 1.6733833207	-0.6841291168	 0.139946
H	-0.2151976785	 0.8939003236	-1.90867771	 0.131004
H	-0.964550111	 1.734057268	-0.5394332795	 0.126537
H	-0.025750385	 0.0410335957	 1.046704746	 0.127941
H	-1.0158551746	-0.7607384271	-0.1826916673	 0.118129
H	-0.0990667335	-1.9571946847	-1.7254189017	 0.109673
H	 2.4671609503	-3.2625660805	-3.5785190597	 0.162235
H	 2.0799252639	-4.4840592991	-2.3870040426	 0.162608
42.475	72.2728	112.2736	168.7192	207.103	266.8813	268.1037	374.707	393.9993	438.1193	524.0792	664.8656	804.3692	900.7208	905.2151	966.8269	1027.4692	1030.1711	1069.4473	1113.1366	1177.4058	1260.1579	1267.7967	1342.0113	1350.9718	1398.7099	1413.3048	1433.8372	1467.6416	1486.0396	1493.5172	1514.0331	1768.1941	2349.0527	3025.8012	3030.7978	3035.8835	3042.9153	3055.2469	3097.0602	3118.086	3128.6993
CCOC=NCC#N	CCOC=NCC#N	
InChI=1S/C5H8N2O/c1-2-8-5-7-4-3-6/h5H,2,4H2,1H3	InChI=1S/C5H8N2O/c1-2-8-5-7-4-3-6/h5H,2,4H2,1H3
