17
gdb 7655	3.78346	1.6113	1.37793	5.2257	64.77	-0.2375	0.0163	0.2537	931.7338	0.142846	-401.025687	-401.017726	-401.016781	-401.058228	29.933	
N	 0.3681542112	 0.9692905038	 0.1301825162	-0.525272
C	-0.1034256004	-0.1808731194	-0.4154356356	 0.435534
O	 0.5668277425	-0.8309825281	-1.2102498586	-0.39026
C	-1.4935896093	-0.6055331866	 0.0153644631	-0.126968
C	-2.4023245719	-0.9780444857	-1.2024950259	-0.247284
C	-2.0802711322	-2.4872069278	-0.9694646261	 0.153786
O	-1.1238978217	-3.0269788247	-1.8360401459	-0.441574
C	-1.5456536845	-2.108537413	 0.4470298848	-0.247245
H	 1.2879766015	 1.284619335	-0.1329962612	 0.265282
H	-0.1669973448	 1.5157854962	 0.7805889865	 0.264824
H	-1.9218559236	 0.1060903357	 0.725588754	 0.059726
H	-3.4488322422	-0.728940531	-1.0089246763	 0.098597
H	-2.108522506	-0.5840620241	-2.1775099889	 0.114782
H	-2.9378291667	-3.1647796426	-0.9884783317	 0.077074
H	-0.3621478436	-2.4206761134	-1.816555047	 0.295591
H	-0.5994755936	-2.57537915	 0.7280765422	 0.114794
H	-2.2812291247	-2.2696457543	 1.2392833305	 0.098611
49.9623	153.862	220.4675	233.1024	255.2163	384.9605	399.6954	415.5765	595.6833	600.4066	661.979	746.5981	761.9295	780.0345	826.1399	858.713	933.8754	975.7484	998.6791	1046.0767	1077.4469	1088.2009	1138.8091	1170.0548	1195.3453	1249.1525	1266.2773	1267.4567	1290.0909	1353.7376	1425.1673	1453.0431	1469.087	1495.3518	1618.6268	1754.5667	3058.8448	3061.0204	3070.6316	3079.905	3126.7401	3127.6149	3602.9575	3619.9903	3743.3263
NC(=O)C1CC(O)C1	NC(=O)[C@H]1C[C@@H](O)C1	
InChI=1S/C5H9NO2/c6-5(8)3-1-4(7)2-3/h3-4,7H,1-2H2,(H2,6,8)	InChI=1S/C5H9NO2/c6-5(8)3-1-4(7)2-3/h3-4,7H,1-2H2,(H2,6,8)/t3-,4+
