21
gdb 103739	2.64708	1.27126	1.01374	2.3489	80.92	-0.2478	-0.0255	0.2224	1256.5941	0.178377	-424.221708	-424.211188	-424.210244	-424.256766	38.172	
C	 0.0171652382	 1.2447907349	-0.3285753192	-0.247853
O	-0.1451951268	-0.0038522153	 0.3200182179	-0.277913
C	-1.3964085533	-0.6052859017	 0.1336306567	 0.398588
C	-2.5180025381	 0.0471978399	 0.9106784831	-0.470952
C	-1.6430311829	-1.257990442	-1.1897189711	-0.375519
C	-1.2873301332	-2.144151942	 0.0009649271	 0.161476
C	 0.0809098262	-2.7940809127	 0.0810152272	-0.478571
C	-2.3925731608	-2.9683805924	 0.5645468895	 0.096784
O	-3.5739518377	-2.8063346821	 0.3601352797	-0.273041
H	 1.0604163574	 1.5365434658	-0.1879795061	 0.130212
H	-0.1941927764	 1.1736336558	-1.4045344411	 0.110909
H	-0.6258900844	 2.0233261869	 0.102888646	 0.115703
H	-2.6961102421	 1.0622605735	 0.5403066953	 0.117348
H	-3.4460018842	-0.5143468585	 0.8074729617	 0.159862
H	-2.254993774	 0.1145492028	 1.9710718479	 0.123173
H	-2.6672020659	-1.3311946914	-1.5405896829	 0.136452
H	-0.8831298164	-1.1565720172	-1.9570871013	 0.117884
H	 0.8621210824	-2.0876325741	-0.1971081242	 0.139804
H	 0.2915718815	-3.137263186	 1.1003380649	 0.121668
H	 0.1400564659	-3.6630930183	-0.5835336874	 0.119224
H	-2.0449800756	-3.7980005758	 1.2211972263	 0.07476
91.3323	121.1295	135.4209	151.6671	187.8433	209.7021	230.4586	255.128	299.324	334.1713	374.1729	398.8588	448.449	516.665	639.3294	680.6159	741.3129	834.5691	926.4362	935.383	944.2584	991.2833	1029.6273	1061.7371	1088.1994	1115.2112	1123.7636	1180.2687	1188.6486	1217.6954	1236.1	1291.017	1349.7376	1410.2409	1416.813	1434.6068	1460.3748	1475.6406	1486.9156	1492.4819	1496.0218	1497.8335	1509.0034	1511.5049	1799.5927	2873.5348	2998.1469	3033.5487	3041.7527	3053.4786	3088.2847	3100.8576	3120.0499	3129.0919	3154.7477	3159.019	3225.3674
COC1(C)CC1(C)C=O	CO[C@@]1(C)C[C@]1(C)C=O	
InChI=1S/C7H12O2/c1-6(5-8)4-7(6,2)9-3/h5H,4H2,1-3H3	InChI=1S/C7H12O2/c1-6(5-8)4-7(6,2)9-3/h5H,4H2,1-3H3/t6-,7+/m1/s1
