18
gdb 103025	2.32414	1.74777	1.17671	2.0668	78.43	-0.2304	0.0377	0.2681	1079.6621	0.145941	-401.821573	-401.812984	-401.81204	-401.854605	33.027	
C	 0.7617957373	-0.3384544197	 1.2881044141	-0.337058
N	 0.0309324989	-0.0367680759	 0.0557071173	-0.350124
C	-1.3206539556	-0.5664379219	 0.0221959353	 0.130293
C	-2.205403931	-0.0029777253	 1.0386985168	 0.33456
C	-2.8379140421	 0.5405911513	 1.9061888114	-0.469466
C	-1.9727677382	-0.7981540277	-1.387038547	-0.00386
C	-0.9449639546	-1.9098896939	-1.6923024778	-0.240771
C	-1.494913306	-2.1014556382	-0.2608254337	 0.025051
O	-2.8516075487	-1.8113266033	-0.7679317719	-0.299272
H	 1.7456516235	 0.1358418911	 1.2413274762	 0.121769
H	 0.2509999741	-0.0027562969	 2.2031260776	 0.118552
H	 0.9173947976	-1.4199104299	 1.3625786457	 0.125159
H	-0.0154264939	 0.9703651148	-0.065884469	 0.224005
H	-3.4272377648	 0.9978882989	 2.6621199705	 0.192874
H	-2.43613107	-0.0592683418	-2.0414010618	 0.098573
H	-1.2960327134	-2.6554034521	-2.405231545	 0.10872
H	 0.0984640686	-1.625959956	-1.8117764866	 0.121323
H	-1.3861273817	-2.9328849934	 0.4356733679	 0.099673
86.0392	151.8507	157.1128	201.7477	214.6842	336.2873	393.9297	474.8479	495.8198	522.8727	632.3545	636.4516	639.7989	651.9419	757.9784	784.2602	834.7244	891.0597	922.4685	937.6586	1006.7703	1028.7107	1049.3155	1097.6174	1133.8396	1147.3094	1173.1062	1180.9126	1189.0281	1207.9016	1226.881	1276.1748	1281.1524	1455.4726	1465.4288	1474.2075	1491.1181	1520.7548	2220.7207	2992.5954	3071.6471	3097.151	3112.2126	3116.7593	3124.3408	3183.278	3500.7292	3511.7967
CNC1(C#C)C2CC1O2	CN[C@@]1(C#C)[C@H]2C[C@@H]1O2	
InChI=1S/C7H9NO/c1-3-7(8-2)5-4-6(7)9-5/h1,5-6,8H,4H2,2H3	InChI=1S/C7H9NO/c1-3-7(8-2)5-4-6(7)9-5/h1,5-6,8H,4H2,2H3/t5-,6+,7+
