18
gdb 19734	3.8348	2.42461	2.22444	1.4727	69.54	-0.233	0.0964	0.3295	717.9092	0.15845	-347.79756	-347.792094	-347.79115	-347.826733	23.754	
C	-0.0317540994	 1.5733715815	 0.0413002426	-0.249477
C	 1.5146936729	 1.4255495805	 0.0046642303	-0.067405
C	 1.78303244	 0.7863182058	 1.3807347988	-0.210498
C	 0.8390465913	-0.4502652758	 1.2307479235	-0.053962
C	 1.6756379137	-1.562114122	 0.5895594053	-0.079051
O	 2.1025945947	-0.9795978546	-0.6554816073	-0.283726
C	 1.2622589705	 0.1377478701	-0.8683163445	 0.155301
C	-0.0067646467	 0.0293945827	 0.0100314267	-0.056858
H	-0.4709476572	 2.0740754785	 0.9081174296	 0.093631
H	-0.4467089497	 1.9931160205	-0.8787638264	 0.098605
H	 2.1662056406	 2.237239268	-0.3190109684	 0.06034
H	 2.8255454877	 0.4911759206	 1.5270313986	 0.100356
H	 1.4947258895	 1.4507144927	 2.2003954616	 0.092742
H	 0.2931687556	-0.747773411	 2.1265096535	 0.06575
H	 2.5591380565	-1.8330094586	 1.1778761725	 0.102381
H	 1.0907230643	-2.4741528042	 0.3962692746	 0.088344
H	 1.1345597146	 0.3169911224	-1.9361166609	 0.079543
H	-0.867228919	-0.5783710171	-0.2702618602	 0.063983
256.9156	384.3151	401.6953	455.1817	588.841	691.967	753.3452	805.9048	823.2432	843.2416	858.1335	905.709	930.1108	949.5982	961.1141	973.9041	993.989	1014.6887	1028.5547	1078.3298	1086.6691	1088.3263	1115.9825	1178.6183	1190.0555	1198.5682	1217.3638	1229.2493	1253.2679	1265.7472	1293.6042	1315.943	1329.6386	1338.3808	1390.7426	1493.8428	1513.0928	1524.4555	2987.7699	3053.2284	3056.8153	3062.5957	3098.6835	3107.1921	3111.0422	3111.5548	3114.5695	3125.5761
C1C2CC3COC2C13	C1[C@H]2C[C@@H]3CO[C@H]2[C@H]13	
InChI=1S/C7H10O/c1-4-2-6-5(1)3-8-7(4)6/h4-7H,1-3H2	InChI=1S/C7H10O/c1-4-2-6-5(1)3-8-7(4)6/h4-7H,1-3H2/t4-,5-,6-,7-/m1/s1
