17
gdb 125646	3.26467	1.51188	1.05449	2.3564	74.49	-0.1996	0.0454	0.245	1109.9315	0.138522	-418.025034	-418.01711	-418.016166	-418.057922	29.24	
C	 0.1049354014	 1.5074302815	-0.1072485912	-0.495274
C	 0.0295992656	 0.0207072082	 0.0347141624	 0.198315
N	 0.035581955	-0.7518309814	-1.0561706398	-0.304698
N	-0.0485492635	-2.0448280563	-0.5917028786	-0.349635
C	-0.0988754039	-2.0506195719	 0.7479744685	 0.492338
C	-0.0505379504	-0.767444515	 1.2081009586	 0.081901
C	-0.1576218955	-0.820888967	 2.7075436006	-0.392822
C	-0.0980593538	-2.3737557599	 2.940666239	-0.091149
O	-0.2013592945	-3.0508624356	 1.6402810459	-0.287527
H	 0.9844842103	 1.9144574047	 0.4043390731	 0.12388
H	 0.1641331598	 1.7758076352	-1.1640361826	 0.140947
H	-0.7752899174	 1.9961381676	 0.3258181261	 0.124001
H	-0.0521574895	-2.8094878713	-1.2426640421	 0.274297
H	 0.6593216721	-0.3240019598	 3.2413608515	 0.117266
H	-1.0948753782	-0.398791964	 3.0902693846	 0.11688
H	 0.8545115753	-2.6787544499	 3.3832575559	 0.125015
H	-0.914027643	-2.7498809352	 3.5605249581	 0.126265
66.097	119.5163	186.8329	218.9323	247.9935	352.2612	426.7782	502.2423	592.3745	643.4071	669.3268	708.7139	772.4188	804.6414	840.2817	930.3281	969.7708	993.5466	1060.4199	1074.3601	1086.6254	1115.9676	1194.1254	1205.5112	1241.4288	1293.0406	1333.6555	1373.0923	1408.2233	1427.4578	1483.2525	1492.5089	1499.3083	1513.8065	1521.3558	1596.8954	1639.2533	3022.6251	3030.8593	3053.3952	3065.3907	3080.1526	3119.9971	3131.972	3693.8874
CC1=NNC2=C1CCO2	Cc1n[nH]c2c1CCO2	
InChI=1S/C6H8N2O/c1-4-5-2-3-9-6(5)8-7-4/h2-3H2,1H3,(H,7,8)	InChI=1S/C6H8N2O/c1-4-5-2-3-9-6(5)8-7-4/h2-3H2,1H3,(H,7,8)
