19
gdb 117013	4.83154	0.57273	0.51899	2.2643	85.32	-0.2612	-0.0272	0.2341	2168.7999	0.156476	-423.040905	-423.030175	-423.029231	-423.078662	36.153	
C	 0.0135298936	 1.5243783084	-0.1735523525	-0.393228
C	 0.0258797511	 0.0149411727	-0.0286334069	-0.042721
O	 0.6892390587	-0.5259029993	-1.1899265166	-0.231102
C	 0.782605005	-1.8690844314	-1.2294178338	 0.256481
O	 0.354906356	-2.60702788	-0.3741971489	-0.361974
C	 1.4591645727	-2.3061570357	-2.4261088362	-0.103665
C	 2.0164519484	-2.7347195649	-3.4053131577	 0.266449
C	 2.6854473351	-3.2676306195	-4.5839074468	-0.33172
C	 2.607222352	-4.8015772315	-4.6882243561	-0.368107
H	 1.0316463725	 1.9189662899	-0.2323765631	 0.131418
H	-0.5247765386	 1.8249773199	-1.0766594627	 0.131386
H	-0.4826540759	 1.9753411131	 0.690935283	 0.122995
H	 0.5631442598	-0.3082618498	 0.8686373524	 0.123911
H	-0.9846919427	-0.4017073965	 0.0282370741	 0.124216
H	 2.2468801985	-2.8078980581	-5.4788391387	 0.141308
H	 3.7351112026	-2.9470303091	-4.5671000419	 0.142069
H	 3.124579656	-5.1449058467	-5.5885217823	 0.119827
H	 3.0724039423	-5.2743035395	-3.8195300862	 0.136619
H	 1.5675622831	-5.1349752818	-4.7380714989	 0.135836
36.8549	57.0822	63.7066	88.8972	152.8306	174.2376	239.3511	246.7517	269.3511	373.7784	404.8915	432.7404	507.295	605.5363	772.2115	783.1905	808.6934	826.1776	883.1157	955.8366	1039.3786	1078.3608	1101.5784	1111.6759	1135.8805	1181.4573	1275.2678	1284.5709	1291.1281	1349.324	1396.5637	1413.1411	1421.5927	1465.2329	1485.536	1495.5421	1496.0477	1504.6021	1518.7698	1784.1587	2353.6721	3024.5813	3047.2648	3049.4697	3051.2476	3053.0108	3089.4284	3121.6364	3124.1428	3127.9512	3130.3528
CCOC(=O)C#CCC	CCOC(=O)C#CCC	
InChI=1S/C7H10O2/c1-3-5-6-7(8)9-4-2/h3-4H2,1-2H3	InChI=1S/C7H10O2/c1-3-5-6-7(8)9-4-2/h3-4H2,1-2H3
