20
gdb 110236	2.14689	1.55336	1.07929	4.0528	79.6	-0.24	-0.0058	0.2342	1205.0909	0.16931	-403.145403	-403.136107	-403.135163	-403.1796	34.637	
C	 0.4036111347	 1.3524918037	 0.2569377717	-0.375454
C	-0.2332975389	 0.0024174752	-0.0972279297	-0.226253
C	 0.4275230165	-0.6375417245	-1.2999447802	-0.02381
N	 1.8412718869	-1.1650032403	-1.2610705363	-0.230538
C	 1.9717136108	-1.8774339348	-0.0064533687	 0.412596
O	 2.7803514898	-1.7268729221	 0.8567523662	-0.308167
C	 0.8433909742	-2.8787451951	-0.2886972296	-0.438993
C	 0.6184707027	-2.0724105384	-1.5722924587	 0.307814
C	 0.4436836309	-2.6957473475	-2.924674124	-0.485808
H	 1.4577820018	 1.2255568545	 0.5191239662	 0.148636
H	 0.3489308603	 2.0490832396	-0.5863857975	 0.117875
H	-0.10771684	 1.8128224957	 1.1070215232	 0.116596
H	-0.1958744848	-0.6593802687	 0.7735542163	 0.113434
H	-1.2960339425	 0.1392451846	-0.3347099666	 0.10498
H	 0.3171831452	-0.0368503133	-2.2026173987	 0.104396
H	 1.2460452225	-3.877235475	-0.4818786584	 0.138844
H	 0.0320642885	-2.9580121811	 0.4386234108	 0.130221
H	-0.5629845241	-3.1173927381	-3.0270677661	 0.128703
H	 0.5831814066	-1.9554806513	-3.7172347193	 0.134662
H	 1.1644880788	-3.5049079731	-3.0817785806	 0.130266
56.7296	115.3921	161.7765	191.1801	202.2309	255.3678	299.2982	314.9593	463.894	481.6681	502.2819	596.9996	620.2218	630.0049	737.6896	785.2037	859.5169	886.4456	938.7971	963.6353	994.2102	1031.5419	1056.0117	1075.9421	1098.2583	1131.8683	1153.2322	1171.4695	1215.3005	1282.0673	1307.2926	1333.0232	1352.8562	1413.6939	1417.743	1452.311	1473.9871	1482.8596	1486.1816	1493.7215	1499.0639	1507.8336	1907.7171	3030.333	3031.5788	3039.8359	3065.7321	3075.143	3093.9337	3108.0063	3114.202	3117.8399	3118.179	3122.2357
CCC1N2C(=O)CC12C	CC[C@H]1N2C(=O)C[C@@]12C	
InChI=1S/C7H11NO/c1-3-5-7(2)4-6(9)8(5)7/h5H,3-4H2,1-2H3	InChI=1S/C7H11NO/c1-3-5-7(2)4-6(9)8(5)7/h5H,3-4H2,1-2H3/t5-,7+,8?/m1/s1
