17
gdb 66782	3.44157	2.06059	1.77142	0.3874	72.14	-0.2099	0.0493	0.2592	825.9339	0.138357	-380.785593	-380.779511	-380.778567	-380.815632	25.911	
C	-0.0074121279	 1.4556134572	 0.0082604978	-0.510783
C	-0.0176008573	-0.0472533824	 0.0493774266	 0.345318
C	-1.198404424	-0.8524748467	-0.4642100256	-0.118351
C	-0.7042685052	-2.0700062566	-1.1405760725	-0.042073
C	 0.7284872898	-2.1523871439	-0.594627244	-0.034525
C	 0.1147279244	-2.2580181154	 0.8138255719	-0.035902
C	 0.664758584	-0.854334639	 1.0880820397	-0.093514
N	 1.2530204077	-0.7489563358	-0.3068584543	-0.198676
N	-1.3025510364	-2.15653269	 0.2472218078	-0.161372
H	 0.9452381763	 1.8408188746	 0.3793033853	 0.135395
H	-0.1392991083	 1.81883022	-1.0162947081	 0.128339
H	-0.8123492458	 1.8695781371	 0.6246681405	 0.124239
H	-2.1371379369	-0.3780511887	-0.7238539823	 0.097003
H	-1.1443642659	-2.5603155144	-2.0018513863	 0.098249
H	 1.4680753085	-2.8292354101	-1.013949921	 0.085825
H	 0.2592435582	-3.0826251777	 1.5065834419	 0.085652
H	 1.1720627288	-0.4738291982	 1.9685993424	 0.095176
195.5787	246.9707	289.1838	555.5709	571.5375	579.1609	684.9366	733.3933	746.2827	773.7228	793.3602	799.1948	873.4586	885.4726	900.5736	906.6147	933.4884	957.0774	976.9476	1008.919	1028.6608	1042.7754	1059.2481	1097.0504	1162.673	1176.3953	1200.4055	1216.8809	1237.5594	1256.9077	1289.0681	1308.2553	1332.9906	1406.6827	1426.3479	1488.0064	1494.9441	3037.3261	3100.0845	3124.9623	3147.8839	3154.6339	3166.0567	3172.575	3191.8212
CC12C3C4C5C(C1N25)N34	C[C@]12[C@H]3[C@H]4[C@@H]5[C@@H]([C@H]1N25)N34	
InChI=1S/C7H8N2/c1-7-5-3-2-4(8(3)5)6(7)9(2)7/h2-6H,1H3	InChI=1S/C7H8N2/c1-7-5-3-2-4(8(3)5)6(7)9(2)7/h2-6H,1H3/t2-,3-,4+,5-,6-,7+,8?,9?/m1/s1
