16
gdb 14465	3.91426	2.22633	2.19336	1.7637	62.3	-0.2358	0.0986	0.3344	722.6692	0.132349	-383.735511	-383.729498	-383.728554	-383.765284	24.602	
C	-0.0057087579	 1.4715777307	-0.0438371668	-0.502373
C	 0.0095408859	-0.0199504178	 0.0175305763	 0.422561
O	 0.1738404702	-0.6913532329	-1.2270021704	-0.282134
C	 0.0598041886	-2.0288339104	-0.7601378521	 0.145462
C	 1.1525786146	-2.1189848642	 0.3277852775	-0.236748
C	 0.629823238	-0.9129201379	 1.0933438534	-0.215098
C	-0.8750165371	-0.9390543564	 0.8257589041	 0.000748
O	-1.1516497552	-2.047362267	-0.0112274045	-0.252151
H	 0.9549206326	 1.8612112283	-0.3960799765	 0.131178
H	-0.7890322145	 1.8218430769	-0.7232680632	 0.135882
H	-0.1988181781	 1.8895418589	 0.9482621868	 0.123998
H	 0.0297060696	-2.7387696848	-1.5818308568	 0.09831
H	 1.0991378062	-3.0542737171	 0.8890603575	 0.112483
H	 2.1533020125	-1.976200969	-0.0851143562	 0.111909
H	 1.0656787612	-0.5289132044	 2.0046521352	 0.095591
H	-1.6674445866	-0.6600595532	 1.5045397259	 0.110381
201.0417	229.6362	296.6522	434.4418	578.6128	581.3976	620.8475	712.8525	737.3049	831.7411	849.3473	864.9987	885.3718	917.0031	927.3157	969.1513	998.8242	1022.9812	1036.3267	1055.8892	1086.6055	1121.8164	1152.4039	1183.7068	1210.3025	1231.8381	1288.5297	1317.2424	1339.5918	1408.4478	1447.9792	1477.4094	1478.3099	1502.9144	3037.9747	3075.3608	3103.8605	3116.2251	3133.4137	3178.2898	3218.521	3232.0601
CC12OC3CC1C2O3	C[C@@]12O[C@H]3C[C@@H]1[C@@H]2O3	
InChI=1S/C6H8O2/c1-6-3-2-4(8-6)7-5(3)6/h3-5H,2H2,1H3	InChI=1S/C6H8O2/c1-6-3-2-4(8-6)7-5(3)6/h3-5H,2H2,1H3/t3-,4+,5+,6-/m1/s1
