17
gdb 131780	3.13552	1.27738	0.94975	4.2021	70.53	-0.1996	0.0474	0.2469	1194.3627	0.137996	-455.165824	-455.15759	-455.156646	-455.198973	31.09	
O	-0.1901374426	 0.3657609681	 1.2489885389	-0.417787
C	-0.1415349891	 0.2291913905	-0.1831511718	-0.084374
C	-1.3725083028	-0.5530323508	-0.6340726936	-0.33207
C	-1.3831949284	-2.0041947612	-0.2471969384	 0.062041
C	-1.2210944689	-2.5662859177	 1.0133276129	 0.361445
O	-0.9741732899	-2.0444396306	 2.2229713295	-0.437605
N	-1.3622307377	-3.9029466921	 0.8731700012	-0.249411
N	-1.6121634195	-4.2794442714	-0.4099754712	-0.249125
C	-1.6197468959	-3.1309889363	-1.0727163338	-0.077947
H	 0.6432630097	 0.7374624667	 1.5539292711	 0.300429
H	-0.1408904054	 1.2287470671	-0.6387623869	 0.101369
H	 0.7740182502	-0.2954463108	-0.485625363	 0.108432
H	-2.2550661982	-0.0251553317	-0.2457255385	 0.11932
H	-1.4298327813	-0.4790629359	-1.7257525752	 0.113422
H	-0.7121477088	-1.111851503	 2.0758297089	 0.311512
H	-1.2904482561	-4.5938247856	 1.6002030217	 0.271316
H	-1.8018766453	-3.1321748153	-2.1392941821	 0.099034
50.8765	164.7615	215.8943	240.5722	291.3788	325.5883	348.5619	459.6233	476.2204	487.5762	650.0673	674.8668	701.5748	724.4332	736.6402	866.3758	881.3834	944.3488	952.8338	1042.5128	1081.1296	1106.3737	1165.4643	1214.9952	1245.1374	1252.6936	1281.5652	1307.5478	1352.1903	1392.6126	1429.7744	1444.0113	1469.1663	1472.4442	1513.122	1607.8326	1637.7775	3002.8689	3007.4741	3051.0562	3071.1444	3222.9905	3497.4835	3679.665	3830.5438
OCCC1=C(O)NN=C1	OCCc1c(O)[nH]nc1	
InChI=1S/C5H8N2O2/c8-2-1-4-3-6-7-5(4)9/h3,8H,1-2H2,(H2,6,7,9)	InChI=1S/C5H8N2O2/c8-2-1-4-3-6-7-5(4)9/h3,8H,1-2H2,(H2,6,7,9)
