17
gdb 77972	3.41085	1.25187	1.04235	1.9422	69.74	-0.2514	-0.0343	0.2171	1129.2212	0.135346	-458.907856	-458.899814	-458.89887	-458.940487	30.939	
O	-0.2186391132	 1.3549969448	-0.3245854734	-0.453404
C	-0.0901343271	-0.039145244	-0.0885411842	 0.132256
C	 0.0403213255	-0.5557762872	 1.381273816	-0.185849
C	-1.4577953347	-0.125364445	 1.6011846657	 0.193565
O	-1.8162725369	 1.1983417013	 1.7926315828	-0.452583
C	-1.422112769	-0.7895726536	 0.1731493016	-0.144679
C	-0.5723509789	-1.907196518	 0.8473591594	-0.078819
C	 0.2851087752	-2.8536500909	 0.0566729549	 0.119542
O	 0.5142955701	-2.7991618528	-1.1273362225	-0.249504
H	 0.6624885524	 1.7317487104	-0.4116889201	 0.29469
H	 0.5730119943	-0.4873611585	-0.8283030163	 0.110931
H	 0.8845805126	-0.4525279923	 2.0648347331	 0.081022
H	-1.9862057221	-0.7113023891	 2.3591081204	 0.082555
H	-1.3722611486	 1.7133305944	 1.1029716635	 0.291007
H	-2.2420473978	-0.9369061495	-0.5292374329	 0.088712
H	-1.0859713502	-2.4703340868	 1.6342363003	 0.09001
H	 0.7205056285	-3.672059463	 0.6761274417	 0.080549
73.5983	172.8573	216.234	280.1936	299.8873	315.8999	351.0279	431.977	460.0116	620.0548	622.6889	714.0716	760.2687	794.4104	833.0917	883.9635	921.7739	929.5814	1013.7727	1028.6135	1048.8403	1075.822	1082.2429	1120.3981	1145.2481	1177.8713	1189.8507	1218.9974	1226.6384	1273.5144	1307.005	1348.005	1389.9327	1430.7538	1464.389	1502.962	1815.8368	2861.6011	3050.7088	3067.765	3104.1888	3117.0974	3127.3931	3711.9055	3826.9234
OC1C2C(O)C1C2C=O	O[C@H]1[C@H]2[C@@H](O)[C@@H]1[C@H]2C=O	
InChI=1S/C6H8O3/c7-1-2-3-5(8)4(2)6(3)9/h1-6,8-9H	InChI=1S/C6H8O3/c7-1-2-3-5(8)4(2)6(3)9/h1-6,8-9H/t2-,3-,4+,5-,6+
