16
gdb 87056	2.25611	1.462	1.09356	2.8347	69.48	-0.2856	-0.0031	0.2825	1138.2913	0.121997	-437.850559	-437.841745	-437.840801	-437.884472	31.447	
C	-0.312415775	 1.4608635419	 0.4059879274	-0.43637
C	-0.1776228719	-0.0343882228	 0.4942399686	 0.035152
O	 0.8765899963	-0.6475010797	-0.2575921831	-0.279432
C	 0.9521756522	-0.717389909	 1.1690814978	 0.220314
C	 2.0154232357	 0.0664115005	 1.7743983178	 0.261152
N	 2.8603892007	 0.6638502418	 2.2893951544	-0.332821
C	 0.7897561059	-2.0871088875	 1.7741869486	-0.02939
C	-0.0955940818	-2.3038941481	 2.9253482673	-0.166307
O	-0.4766390755	-2.7042778976	 1.6056654708	-0.218144
H	 0.6571971837	 1.9559024408	 0.4910196722	 0.152744
H	-0.761384144	 1.7340498462	-0.5538629719	 0.142545
H	-0.9682381336	 1.829026768	 1.2014721233	 0.13429
H	-1.1012082764	-0.6111304584	 0.4786547656	 0.128969
H	 1.6459245462	-2.7462366942	 1.6326082329	 0.126504
H	 0.116530806	-3.114840805	 3.6184345848	 0.134777
H	-0.6533170684	-1.4643408868	 3.3361296935	 0.126016
67.9256	135.5891	152.829	163.2754	184.1776	230.6426	338.5463	376.3963	486.6477	502.8231	568.7716	611.8175	646.6267	798.5437	871.1973	891.3577	940.3775	961.7875	1001.3965	1067.21	1099.1282	1138.4792	1149.7861	1166.6375	1176.9891	1224.3963	1283.5808	1331.0871	1411.3347	1421.489	1447.747	1483.1046	1497.8886	1525.6731	2355.8077	3045.732	3096.9975	3112.0012	3120.6458	3128.4224	3145.6725	3189.8686
CC1OC1(C#N)C1CO1	C[C@H]1O[C@]1(C#N)[C@H]1CO1	
InChI=1S/C6H7NO2/c1-4-6(3-7,9-4)5-2-8-5/h4-5H,2H2,1H3	InChI=1S/C6H7NO2/c1-4-6(3-7,9-4)5-2-8-5/h4-5H,2H2,1H3/t4-,5-,6+/m1/s1
