18
gdb 121684	2.04688	1.09223	0.73959	3.4221	75.65	-0.2417	0.0336	0.2753	1498.0755	0.145304	-439.080073	-439.069777	-439.068833	-439.116925	36.03	
O	-1.3299363731	 1.7868828948	 0.0121096677	-0.421714
C	-0.5862767513	 0.5982442345	-0.2303894129	-0.079546
C	-1.5160308274	-0.5723967228	 0.0503247139	-0.147317
N	-2.6848000596	-0.5224061036	-0.8051328227	-0.322084
C	-3.0935219515	-1.5741018703	-1.5516800766	 0.432581
O	-2.5496466349	-2.6636850816	-1.5682099313	-0.383759
C	-4.345407071	-1.3345543617	-2.4245000023	-0.482456
C	-4.9314252263	-0.0038463478	-2.3858847024	 0.286928
C	-5.3997115095	 1.1029914089	-2.3382491137	-0.427341
H	-0.8176608134	 2.5384538406	-0.298670117	 0.293033
H	-0.2388558577	 0.5514229866	-1.2728734159	 0.100137
H	 0.2931095878	 0.5321888511	 0.4282699944	 0.094605
H	-1.0133873382	-1.523600773	-0.1365798116	 0.145694
H	-1.8158104639	-0.5426604065	 1.1060625801	 0.117145
H	-3.1777241614	 0.3553728209	-0.8752031216	 0.264231
H	-4.0584692511	-1.6012999516	-3.447804673	 0.16301
H	-5.0798420553	-2.087085482	-2.1153593255	 0.164504
H	-5.8230696822	 2.0763289636	-2.3029413895	 0.202349
36.2936	53.2229	78.3346	126.3993	148.0987	255.613	272.1827	311.2738	333.2727	386.0936	489.2794	507.4633	552.7597	625.554	642.0132	652.5799	665.6613	827.1154	917.6489	948.448	959.9289	997.908	1085.8418	1105.7134	1129.4321	1216.8269	1221.4246	1247.6709	1265.8333	1302.5312	1313.2089	1394.4347	1444.8595	1454.2545	1487.3148	1515.2923	1549.306	1781.9519	2233.8867	2983.2341	3013.6072	3033.9329	3047.1645	3080.4568	3124.434	3503.6833	3618.5552	3839.2601
OCCNC(=O)CC#C	OCCNC(=O)CC#C	
InChI=1S/C6H9NO2/c1-2-3-6(9)7-4-5-8/h1,8H,3-5H2,(H,7,9)	InChI=1S/C6H9NO2/c1-2-3-6(9)7-4-5-8/h1,8H,3-5H2,(H,7,9)
