24
gdb 104663	1.76101	1.43615	1.06602	2.2832	85.6	-0.2208	0.0741	0.2949	1322.5901	0.215371	-405.519705	-405.508635	-405.507691	-405.555537	40.645	
C	 1.5459666794	-0.8297080144	 1.1088189342	-0.385753
C	 0.4971131245	-0.0430145515	 0.3098795082	-0.259561
C	 0.6924009568	-0.1249215897	-1.1972331883	 0.284195
C	 1.8437937187	 0.7261350485	-1.7216809136	-0.108916
O	 1.4944727031	 2.1000320303	-1.7088044832	-0.423867
C	 0.2712023688	-1.3178465313	-2.0012844176	-0.043884
C	-0.3589770288	-2.5578353237	-1.4015251173	-0.425712
N	-0.4442051052	-0.0400160406	-2.1359340293	-0.155526
C	-1.8174885078	 0.0870873484	-1.6681415161	-0.320204
H	 1.5007902817	-1.899390429	 0.8809482229	 0.117419
H	 2.5626502795	-0.487913341	 0.8920796355	 0.122767
H	 1.3829606573	-0.7085603711	 2.1842334926	 0.113899
H	-0.4994415865	-0.3894332906	 0.5957827053	 0.093275
H	 0.543326927	 1.017579841	 0.5853633149	 0.116321
H	 2.734216656	 0.6281292489	-1.0923065822	 0.102222
H	 2.1099647328	 0.3948914026	-2.7362298391	 0.084202
H	 0.687370604	 2.1540301858	-2.2363075181	 0.285653
H	 0.8715612137	-1.5468743502	-2.883162399	 0.080991
H	-0.8382926123	-2.3831072779	-0.4368543775	 0.123033
H	-1.1106755514	-2.9768938448	-2.080134342	 0.123535
H	 0.4095234218	-3.3235631054	-1.2536589554	 0.125359
H	-2.1050876758	-0.5665985378	-0.8339864617	 0.105186
H	-1.9944721615	 1.1221239093	-1.3584074674	 0.122763
H	-2.4898664657	-0.1297723258	-2.5050100457	 0.122603
70.6428	100.6355	134.1909	158.2749	172.6376	184.6303	221.3595	257.1107	284.1636	309.5057	329.1341	379.9349	475.0287	510.6984	541.0111	582.5578	702.4753	769.4706	792.4613	833.8692	924.3817	997.6655	998.6431	1009.849	1054.4598	1065.749	1088.9374	1115.0777	1149.8737	1161.3326	1172.8816	1185.2355	1211.9015	1285.8059	1304.5767	1343.511	1365.7724	1398.4154	1409.9112	1413.3441	1425.8283	1440.8415	1461.3167	1481.2576	1490.4543	1496.3968	1500.4748	1502.745	1505.8904	1508.277	1514.7358	2994.4105	3002.919	3036.9913	3038.4922	3041.8824	3067.0625	3077.066	3082.2949	3087.0545	3092.9673	3096.3229	3106.3314	3112.5922	3133.1491	3772.1752
CCC1(CO)C(C)N1C	CC[C@@]1(CO)[C@@H](C)N1C	
InChI=1S/C7H15NO/c1-4-7(5-9)6(2)8(7)3/h6,9H,4-5H2,1-3H3	InChI=1S/C7H15NO/c1-4-7(5-9)6(2)8(7)3/h6,9H,4-5H2,1-3H3/t6-,7-,8?/m1/s1
