15
gdb 96794	3.05911	1.38289	1.01473	2.0433	70.27	-0.2621	-0.038	0.2241	1130.8864	0.11282	-453.962416	-453.954544	-453.9536	-453.99539	28.738	
C	 0.0738271477	 1.4051134004	-0.0075211201	-0.344772
N	 0.0350518831	-0.0475973071	 0.0026284257	-0.311655
C	-1.0828597544	-0.6365589922	-0.0230076198	 0.447862
N	-2.3835371247	-0.1089146576	-0.0389520787	-0.405617
C	-3.3958855365	-1.0531498077	 0.1146711249	 0.446507
O	-4.5701447534	-0.8170209573	 0.2363386415	-0.348669
C	-2.6949799229	-2.4003180688	 0.1052172016	-0.106049
O	-1.9955210748	-2.6073866363	-1.1294165356	-0.236954
C	-1.2534806746	-2.1272080415	 0.0004191243	-0.058352
H	 1.0321650666	 1.7401719301	 0.3963940846	 0.138922
H	 0.0011627231	 1.7856490716	-1.0350414297	 0.136185
H	-0.7254432714	 1.8741748366	 0.5863258288	 0.107868
H	-2.6029816406	 0.8657770618	-0.1718136299	 0.270658
H	-3.1492473632	-3.2646104418	 0.575174727	 0.133032
H	-0.4625090839	-2.7622025102	 0.3801094754	 0.131033
69.1547	119.1323	162.8899	216.035	285.0386	379.4656	445.6311	479.5015	553.6427	617.9304	656.7781	731.3215	764.6496	856.1943	861.0162	911.7389	922.4309	1015.6444	1033.8847	1083.8791	1108.7092	1163.515	1194.5646	1230.933	1296.2225	1333.1299	1365.6286	1389.162	1435.3408	1486.6643	1512.3642	1788.5732	1859.8314	2984.0135	3049.3714	3107.0003	3195.3629	3207.982	3647.7961
CN=C1NC(=O)C2OC12	CN=C1NC(=O)[C@H]2O[C@@H]12	
InChI=1S/C5H6N2O2/c1-6-4-2-3(9-2)5(8)7-4/h2-3H,1H3,(H,6,7,8)	InChI=1S/C5H6N2O2/c1-6-4-2-3(9-2)5(8)7-4/h2-3H,1H3,(H,6,7,8)/t2-,3+/m1/s1
