15
gdb 79388	3.31354	1.39522	1.11444	2.6979	70.25	-0.273	0.006	0.279	1050.3347	0.113458	-416.714069	-416.706975	-416.706031	-416.745651	27.622	
O	 0.1626159684	 1.4455737828	-0.0900826583	-0.442287
C	 0.1185038505	 0.0552021498	-0.0685399084	 0.164514
C	 0.0539957052	-0.6597372078	 1.2913554729	-0.103593
N	-1.4392433016	-0.2504820252	 1.4626656765	-0.195466
C	-1.7897386174	-1.6952045773	 1.7854639932	-0.222561
C	-0.7103167466	-1.8990734759	 0.7178694937	 0.209639
C	-0.1632158477	-3.1137087083	 0.1592157994	 0.14891
N	 0.2685180769	-4.0917126551	-0.2819427705	-0.337466
C	-1.2532856663	-0.638803543	-0.034406452	-0.103593
H	-0.4851321124	 1.7619608523	 0.5536267266	 0.300438
H	 0.844410475	-0.3248138835	-0.7903282682	 0.115563
H	 0.7334849046	-0.6515268856	 2.1444843525	 0.107926
H	-1.5504996162	-1.9883607413	 2.8111812117	 0.125025
H	-2.8164650105	-1.968089418	 1.5273199962	 0.125025
H	-2.0964702018	-0.606211124	-0.7254777054	 0.107926
115.5056	165.6785	230.3921	325.1578	420.9183	452.626	484.7815	528.0558	560.6357	631.1831	727.9874	794.8252	854.3366	898.2531	898.6733	927.4467	951.4672	1033.698	1072.9615	1078.9792	1079.0578	1121.3581	1131.0256	1179.968	1190.4765	1206.3098	1236.1998	1275.4412	1290.0024	1326.7095	1451.3798	1521.7563	2347.0338	3056.2573	3103.3666	3116.9299	3122.0303	3122.3615	3771.1061
OC1C2N3CC2(C#N)C13	O[C@H]1[C@H]2N3C[C@@]2(C#N)[C@H]13	
InChI=1S/C6H6N2O/c7-1-6-2-8-4(6)3(9)5(6)8/h3-5,9H,2H2	InChI=1S/C6H6N2O/c7-1-6-2-8-4(6)3(9)5(6)8/h3-5,9H,2H2/t3-,4+,5-,6+
