20
gdb 48853	2.77178	1.37479	1.13331	3.1988	79.42	-0.2321	-0.0211	0.211	1146.8368	0.172282	-403.146733	-403.138593	-403.137649	-403.17947	31.64	
O	-0.113650712	 0.0089785201	 0.2320617208	-0.267081
C	 0.0359639742	 1.1303730855	-0.1842818413	 0.133549
C	 1.2680485362	 1.9539666079	 0.0209806903	 0.210053
C	 1.0489983352	 3.4247277318	 0.2236759418	-0.279558
N	 1.4456136915	 2.9385451486	-1.0789888867	-0.126083
C	 2.8134548607	 3.238488532	-1.5542723183	-0.146756
C	 3.8735825091	 2.2093325707	-1.1496554037	-0.194221
C	 3.7923709144	 1.8997850931	 0.3471518857	-0.218323
C	 2.444517959	 1.2406973993	 0.6666952246	-0.281357
H	-0.7493076149	 1.6527251301	-0.7744594156	 0.079924
H	 0.0418270606	 3.8311709399	 0.298024114	 0.116421
H	 1.7879210788	 3.9351715527	 0.8404630991	 0.116213
H	 2.7653613611	 3.3162473765	-2.6457861804	 0.111491
H	 3.1041761853	 4.2279263584	-1.178917706	 0.10355
H	 3.726625713	 1.2819529294	-1.7182970412	 0.106815
H	 4.8610235643	 2.5951883763	-1.4244066075	 0.100465
H	 4.602694351	 1.2299498293	 0.6513203301	 0.103319
H	 3.923374014	 2.8248264736	 0.923875748	 0.096111
H	 2.2812552415	 1.1675565401	 1.7472467723	 0.111834
H	 2.4473896568	 0.2103477847	 0.2942231041	 0.123633
83.0321	121.755	211.5628	243.5549	310.0295	369.5792	401.378	436.7716	468.3606	520.8251	632.598	711.5673	729.6836	819.72	846.4107	903.8785	933.6263	936.6833	957.52	975.1164	1038.7961	1073.055	1083.4237	1119.8306	1124.8201	1151.0317	1194.9116	1218.4	1273.7853	1281.8068	1297.565	1339.7387	1367.2064	1379.2957	1388.9735	1394.1697	1422.1195	1483.7767	1490.4458	1496.8862	1501.0305	1521.2062	1820.9864	2893.682	3019.7968	3021.1469	3027.5954	3043.6806	3061.5074	3073.1266	3076.9651	3081.5454	3084.638	3162.6631
O=CC12CN1CCCC2	O=C[C@]12CN1CCCC2	
InChI=1S/C7H11NO/c9-6-7-3-1-2-4-8(7)5-7/h6H,1-5H2	InChI=1S/C7H11NO/c9-6-7-3-1-2-4-8(7)5-7/h6H,1-5H2/t7-,8?/m0/s1
