16
gdb 127177	4.26129	1.03483	0.87274	2.9577	73.31	-0.2238	0.0038	0.2275	1269.3732	0.126102	-434.103573	-434.095284	-434.09434	-434.137555	29.565	
C	-0.3386630052	 1.4178501334	 0.0286839105	-0.359581
N	 0.0303518669	 0.0068994131	 0.0232106444	-0.175712
C	 0.3869485186	-0.6015520864	 1.2005181419	 0.139475
O	 0.3631945359	-0.0777454932	 2.2926981339	-0.33569
C	 0.0389509354	-0.6965860338	-1.1924761174	 0.240877
C	-0.3535538934	-2.0050524334	-1.4187595019	-0.110347
N	-0.1445029536	-2.2301493825	-2.7394738957	-0.175042
N	 0.3304653434	-1.1609635516	-3.3969755344	-0.212801
C	 0.4509165929	-0.2233042219	-2.462320565	-0.073186
H	 0.4194856459	 2.0290802771	-0.4735530029	 0.132993
H	-1.2979069761	 1.5598071876	-0.4772843626	 0.134732
H	-0.4143955864	 1.7313892574	 1.0695527779	 0.170743
H	 0.708541353	-1.6462945217	 1.0348882955	 0.079004
H	-0.7618510179	-2.7563766483	-0.7632917385	 0.144752
H	-0.3139879527	-3.0802384707	-3.2495538877	 0.281489
H	 0.8200735432	 0.7558898548	-2.7262095278	 0.118297
35.3232	111.1544	146.0992	166.2588	308.9865	333.1656	395.6706	445.2339	463.8988	514.9921	665.2949	702.574	775.5421	808.7606	873.6644	945.4991	958.9151	1030.834	1037.1763	1078.5755	1156.3046	1160.7557	1184.6097	1249.7685	1331.8285	1359.7852	1405.6481	1417.4606	1438.3415	1443.78	1497.8756	1503.5273	1522.2562	1622.8336	1796.2838	2964.5468	3034.4174	3095.7217	3162.2817	3256.5338	3273.2424	3676.7954
CN(C=O)C1=CNN=C1	CN(C=O)c1c[nH]nc1	
InChI=1S/C5H7N3O/c1-8(4-9)5-2-6-7-3-5/h2-4H,1H3,(H,6,7)	InChI=1S/C5H7N3O/c1-8(4-9)5-2-6-7-3-5/h2-4H,1H3,(H,6,7)
