19
gdb 87426	3.38962	1.38114	1.31366	1.6415	78.79	-0.2312	0.0794	0.3106	1046.3411	0.159856	-385.80961	-385.802148	-385.801204	-385.841282	30.492	
O	-0.0101975987	 1.3640007238	 0.0911378824	-0.425403
C	-0.0230687996	-0.0353155112	 0.0077493117	 0.013272
C	-0.4641959098	-0.7657221307	 1.2553814	-0.397599
C	-1.3337352385	-0.7550452156	 0.0303784743	 0.408516
C	-2.7387282236	-0.2062039054	-0.0369423461	-0.161701
C	-3.2951737404	-0.5948529606	-1.4229347921	-0.076994
C	-2.194878157	-1.360793457	-2.1586999953	-0.230127
C	-1.8375121524	-1.9666030188	-0.7700934596	-0.169244
C	-3.3025353468	-1.5876070214	-0.2882943576	-0.06975
H	-0.3640802109	 1.7090291022	-0.7354148434	 0.286595
H	 0.8006970047	-0.4707899023	-0.56112704	 0.07699
H	 0.0594731869	-1.6768904796	 1.5277548951	 0.108248
H	-0.7642843806	-0.1439795104	 2.0927815989	 0.121399
H	-3.1758882687	 0.5946837602	 0.5444873112	 0.090969
H	-4.1416981435	-0.0682448133	-1.8456464496	 0.084462
H	-2.6195870501	-2.1108674031	-2.8318180318	 0.097608
H	-1.4073563301	-0.8015497149	-2.6786169534	 0.082106
H	-1.3551883221	-2.9380565966	-0.6817361582	 0.070507
H	-4.0933088889	-2.1409809855	 0.1962220635	 0.090146
126.7849	149.4414	218.1445	283.6577	377.137	432.1264	472.8962	489.1078	649.3267	748.9753	776.6286	786.0637	811.6112	831.0689	858.1029	894.049	920.4061	940.9443	958.0147	993.024	1006.0308	1015.0542	1027.2655	1031.8989	1052.997	1068.6882	1113.3284	1139.5588	1154.636	1160.3384	1167.8098	1209.0332	1223.1959	1252.9061	1282.9061	1306.5521	1347.6046	1379.317	1429.758	1493.9752	1499.982	3025.4407	3077.6769	3092.4168	3122.5555	3135.024	3190.2074	3203.8981	3211.5698	3226.0608	3803.3182
OC1CC11C2C3CC1C23	O[C@H]1C[C@]21[C@H]1[C@H]3C[C@@H]2[C@@H]13	
InChI=1S/C8H10O/c9-5-2-8(5)4-1-3-6(4)7(3)8/h3-7,9H,1-2H2	InChI=1S/C8H10O/c9-5-2-8(5)4-1-3-6(4)7(3)8/h3-7,9H,1-2H2/t3-,4+,5-,6-,7-,8-/m0/s1
