18
gdb 22516	2.42459	1.15584	1.13631	2.2188	77.26	-0.2438	-0.0337	0.2102	1207.9405	0.144557	-439.045813	-439.036236	-439.035292	-439.080734	34.436	
C	-0.0961054808	 1.6929419876	 0.4164780972	-0.4606
C	 0.030941846	 0.2028959563	 0.0947705901	 0.128169
C	 0.7566544974	-0.2260497694	-1.21886281	-0.274929
C	 1.7268909016	-1.1349609274	-0.3973532708	-0.321824
C	 1.103645874	-0.5718248919	 0.8601123452	 0.375019
N	 1.3235359945	-0.5946236534	 2.1070086726	-0.241091
O	 2.4317696198	-1.4015381411	 2.4130675476	-0.386006
C	-1.3119082479	-0.4902904206	 0.2946894273	 0.12447
O	-1.857165809	-1.1962144791	-0.5122958912	-0.244601
H	 0.8842420765	 2.175730725	 0.3811973303	 0.128759
H	-0.753946414	 2.191696342	-0.3032275697	 0.127893
H	-0.5051479203	 1.8426543663	 1.420723318	 0.135951
H	 0.1087479366	-0.7446492618	-1.9253608521	 0.132411
H	 1.2569198606	 0.6063651674	-1.7167345762	 0.107648
H	 1.5580234016	-2.2086846878	-0.5236725462	 0.137834
H	 2.7974004022	-0.9429835054	-0.5044009931	 0.1311
H	 2.4891839714	-1.315145809	 3.3709399626	 0.308995
H	-1.7598492502	-0.2999692377	 1.2956951682	 0.090801
55.9528	68.2818	148.3012	172.779	205.7271	273.5641	296.9352	305.2286	349.1061	407.907	490.5651	510.4374	597.7444	672.1367	757.0698	787.8362	873.7364	921.9775	938.8259	969.3579	988.5913	1000.3729	1096.3931	1115.6245	1167.099	1199.3428	1216.0386	1233.0409	1257.0984	1282.1701	1399.183	1402.5335	1420.3561	1456.2042	1479.4628	1490.976	1493.284	1766.6904	1826.6062	2885.2553	3034.573	3060.8054	3084.2594	3106.3156	3108.025	3115.4745	3149.3074	3814.4801
CC1(CCC1=NO)C=O	C[C@]1(CCC1=NO)C=O	
InChI=1S/C6H9NO2/c1-6(4-8)3-2-5(6)7-9/h4,9H,2-3H2,1H3	InChI=1S/C6H9NO2/c1-6(4-8)3-2-5(6)7-9/h4,9H,2-3H2,1H3/t6-/m0/s1
