25
gdb 100934	2.42051	0.90881	0.79087	1.3805	86.04	-0.2387	0.0741	0.3128	1626.3905	0.225636	-426.617286	-426.605235	-426.604291	-426.655055	42.522	
C	 0.0449726531	 1.5303103278	 0.1342705553	-0.394386
C	-0.0444895645	 0.0049674307	 0.0271742017	-0.167633
C	-1.4763644508	-0.5509450189	-0.1015398269	 0.018741
C	-2.1612003223	-0.1072757133	-1.4044989824	-0.397206
C	-1.4561870221	-2.0864184194	 0.0443506351	 0.130602
C	-2.8582622909	-2.6965480203	 0.1182541417	-0.096558
O	-2.7539334553	-4.0050150618	 0.6699928235	-0.423949
O	-0.7098262144	-2.6110228999	-1.0447732197	-0.260458
C	-0.0820990004	-3.8578899632	-0.8184737426	-0.232069
H	 1.0794060515	 1.8464317703	 0.3027360665	 0.11072
H	-0.3020237118	 2.0299585716	-0.7751879772	 0.117644
H	-0.5558902987	 1.9076613063	 0.9700659524	 0.108826
H	 0.5462027581	-0.3479862064	-0.8250666838	 0.109327
H	 0.4164126482	-0.4372183055	 0.9202678451	 0.085773
H	-2.0610623589	-0.1670858079	 0.7470799231	 0.064695
H	-3.2059375219	-0.4311261363	-1.4442970154	 0.107263
H	-2.1590283797	 0.9814826708	-1.502436155	 0.110698
H	-1.6443275784	-0.5319359953	-2.2697078119	 0.133776
H	-0.9495369772	-2.3388756782	 0.9909623472	 0.068958
H	-3.5004660004	-2.0589523076	 0.7471032371	 0.083014
H	-3.2887236807	-2.7259376955	-0.8920474218	 0.097582
H	-3.6134271984	-4.4302463988	 0.59834206	 0.286517
H	 0.528100887	-4.0677396288	-1.7015045126	 0.114268
H	 0.5760212968	-3.8203846812	 0.0635179058	 0.099898
H	-0.8061618379	-4.6658637693	-0.6709508552	 0.123958
56.266	69.4159	84.1476	115.2685	150.0195	195.6055	207.0099	213.1439	252.3902	263.3566	301.5327	322.035	339.0825	370.0478	449.2033	499.0679	652.4672	776.5417	826.7938	857.9282	929.2772	965.15	1001.0686	1018.2682	1029.6293	1057.0299	1098.9523	1122.5217	1137.9433	1157.7995	1185.054	1198.744	1221.8844	1239.0816	1274.6473	1287.1974	1309.061	1336.1329	1369.7146	1380.8612	1391.7442	1410.2669	1413.5066	1453.9701	1478.6966	1485.412	1487.0211	1494.3959	1501.875	1507.618	1509.9295	1514.1367	1518.5859	2965.5791	2968.5705	2985.6967	3000.7545	3019.7646	3027.7786	3030.5408	3044.4638	3069.0195	3069.8786	3096.2363	3103.346	3109.3118	3111.1209	3123.337	3828.9773
CCC(C)C(CO)OC	CC[C@@H](C)[C@@H](CO)OC	
InChI=1S/C7H16O2/c1-4-6(2)7(5-8)9-3/h6-8H,4-5H2,1-3H3	InChI=1S/C7H16O2/c1-4-6(2)7(5-8)9-3/h6-8H,4-5H2,1-3H3/t6-,7-/m1/s1
