20
gdb 63305	2.59072	1.52192	1.26141	2.5314	78.76	-0.2394	-0.0211	0.2183	1087.6828	0.170355	-403.160214	-403.151748	-403.150804	-403.192702	33.679	
C	 0.0342362694	 1.5651634058	-0.0504985877	-0.423417
C	-0.0287807345	 0.0390158149	-0.0347149574	 0.29188
C	-1.4801711489	-0.4389676383	 0.1004314972	-0.408415
C	 0.6415469328	-0.6319865853	-1.2583320683	-0.399198
C	 1.2867352836	-1.9042938283	-0.6866379627	 0.423684
O	 1.5555179585	-2.9112544092	-1.2899680937	-0.32595
C	 1.4526852416	-1.6778431627	 0.7855879185	-0.142162
C	 2.1336214142	-0.3889517411	 1.1321254591	-0.253485
N	 0.6854535421	-0.4823671019	 1.1851518013	-0.105237
H	 1.0639238936	 1.9260411564	-0.1347828006	 0.111725
H	-0.5308582293	 1.9633008651	-0.8988781121	 0.119806
H	-0.3946711639	 1.973391819	 0.8696604864	 0.12756
H	-2.0835364996	-0.0874792292	-0.7425399604	 0.113499
H	-1.5332523854	-1.5325492994	 0.121960232	 0.120576
H	-1.9173520272	-0.0627483949	 1.0288963864	 0.126184
H	-0.063950367	-0.8955650168	-2.0482169875	 0.133431
H	 1.4171304805	-0.0082126838	-1.7175616512	 0.124916
H	 1.4923536891	-2.5330786806	 1.4509101742	 0.113122
H	 2.6260442253	-0.310255107	 2.0967439358	 0.130815
H	 2.614694975	 0.1697195774	 0.3332212108	 0.120667
97.8759	198.7277	226.7582	249.9794	274.2867	334.9374	356.7111	383.6003	466.6998	477.9515	538.7154	575.0311	653.5549	710.9282	793.4482	831.7824	875.7927	896.8486	942.86	943.8251	967.061	985.6466	1031.5134	1062.3117	1102.0197	1113.5275	1143.0144	1165.5755	1208.59	1232.9669	1254.097	1274.1458	1297.004	1330.4554	1401.3946	1419.9526	1458.6262	1480.0605	1485.3224	1498.3172	1507.2166	1509.6596	1841.6319	3034.6908	3039.6355	3049.3329	3103.3409	3108.0347	3110.9169	3113.299	3118.939	3123.3494	3178.9583	3196.1427
CC1(C)CC(=O)C2CN12	CC1(C)CC(=O)[C@H]2CN12	
InChI=1S/C7H11NO/c1-7(2)3-6(9)5-4-8(5)7/h5H,3-4H2,1-2H3	InChI=1S/C7H11NO/c1-7(2)3-6(9)5-4-8(5)7/h5H,3-4H2,1-2H3/t5-,8?/m1/s1
