19
gdb 59625	3.05081	1.10932	0.92447	5.447	71.15	-0.2624	0.0168	0.2792	1289.7102	0.159088	-460.211049	-460.202104	-460.20116	-460.245143	33.22	
C	-0.0043961249	 1.4524359105	 0.2485261358	-0.411942
C	 0.1232004761	-0.0556558592	 0.0326189502	 0.128528
O	-1.1156208871	-0.7059735028	 0.2966156032	-0.425061
C	 0.654603719	-0.4157507577	-1.3737792813	-0.048837
C	 2.1512175408	-0.0766270029	-1.5497709764	-0.093889
O	 2.8782304771	-1.2639587416	-1.2060850999	-0.218591
C	 2.0781943904	-2.367938493	-1.2800279987	 0.433021
O	 2.4997457609	-3.4716616525	-1.0994609996	-0.333626
C	 0.6590736588	-1.930611983	-1.6188370638	-0.38222
H	 0.9523271909	 1.9705444751	 0.136135996	 0.123051
H	-0.7040824731	 1.8861834254	-0.4775938863	 0.109425
H	-0.3856350671	 1.6542095124	 1.2525969484	 0.134681
H	 0.8120527007	-0.472359099	 0.7788461857	 0.104883
H	-1.7893804747	-0.2973516662	-0.2589011692	 0.278712
H	 0.0533686614	 0.1179493959	-2.1184484689	 0.07283
H	 2.3872514438	 0.194466332	-2.5854708315	 0.115174
H	 2.5047324014	 0.7237756801	-0.8958468931	 0.121781
H	-0.067550277	-2.4678107194	-1.0092786606	 0.1594
H	 0.4693540227	-2.1833433341	-2.66770026	 0.13268
69.3723	76.724	154.6188	236.1885	240.8061	301.7133	317.429	357.935	440.5094	467.64	518.4658	562.7378	689.0102	746.8492	799.94	853.0393	910.8836	917.919	965.6685	992.0852	1043.4162	1076.5364	1078.4181	1119.5348	1139.0663	1169.096	1198.646	1238.9414	1252.8672	1290.93	1316.6423	1327.9461	1395.901	1398.0202	1412.1663	1422.3857	1466.2376	1491.4333	1498.0663	1522.4674	1887.8906	3024.1515	3028.3605	3036.5052	3049.2577	3063.1366	3096.7421	3106.6496	3125.9909	3141.0798	3793.3536
CC(O)C1COC(=O)C1	C[C@@H](O)[C@H]1COC(=O)C1	
InChI=1S/C6H10O3/c1-4(7)5-2-6(8)9-3-5/h4-5,7H,2-3H2,1H3	InChI=1S/C6H10O3/c1-4(7)5-2-6(8)9-3-5/h4-5,7H,2-3H2,1H3/t4-,5-/m1/s1
