18
gdb 74568	2.65043	1.42694	1.21589	3.7748	78.28	-0.2392	-0.0036	0.2356	1101.0584	0.147623	-401.959026	-401.950838	-401.949894	-401.991934	30.743	
C	-0.4761454566	 1.2580328004	-0.0349084088	-0.487298
C	-0.1448842436	-0.1996029254	-0.063158269	 0.310382
C	 0.0118231568	-0.9766929138	-1.1410347198	-0.166053
C	 0.2514341252	-2.4020456937	-0.767488745	-0.069559
C	 0.2288462415	-2.4374808309	 0.7493877452	-0.064688
C	 0.0069821692	-1.000419593	 1.2215303192	-0.324874
N	-0.8080606378	-3.0731837096	-0.0326391386	-0.070004
C	-2.1623889282	-2.8151463009	-0.0535727211	 0.153431
O	-2.8188427071	-2.6085325509	-1.0443631098	-0.298538
H	 0.2608883049	 1.8223927048	 0.5503557167	 0.125427
H	-0.5106611933	 1.6799976494	-1.042437447	 0.131494
H	-1.4510058385	 1.4324632247	 0.4377892201	 0.134151
H	-0.0557634101	-0.6440576075	-2.1693129504	 0.104754
H	 0.8882579907	-3.0437263399	-1.3684741099	 0.105484
H	 0.8637664297	-3.1013445184	 1.3280937823	 0.103567
H	 0.8627275579	-0.6516282583	 1.8141440691	 0.117864
H	-0.8731045358	-0.9037519065	 1.8713623981	 0.119338
H	-2.604014425	-2.8985920403	 0.9607817288	 0.07512
81.2829	146.3259	163.9856	193.2431	263.4189	320.9174	386.4439	447.0505	502.2563	594.7877	647.9473	734.4929	804.0434	858.9015	863.9752	890.783	929.553	965.2196	997.8716	1029.8276	1033.9858	1042.7665	1074.7304	1105.6945	1130.6767	1191.2071	1199.904	1283.5292	1307.0243	1330.6772	1354.2841	1413.2199	1416.1542	1428.773	1469.2874	1478.6364	1486.7347	1703.6537	1802.082	2921.2471	3017.5348	3022.4611	3048.5966	3065.7001	3117.0589	3154.3201	3163.65	3212.9192
CC1=CC2C(C1)N2C=O	CC1=C[C@H]2[C@@H](C1)N2C=O	
InChI=1S/C7H9NO/c1-5-2-6-7(3-5)8(6)4-9/h2,4,6-7H,3H2,1H3	InChI=1S/C7H9NO/c1-5-2-6-7(3-5)8(6)4-9/h2,4,6-7H,3H2,1H3/t6-,7+,8?/m0/s1
