17
gdb 9239	5.71747	0.78407	0.71175	5.4956	83.54	-0.2807	-0.0345	0.2462	1552.4592	0.140931	-326.728512	-326.719276	-326.718332	-326.762907	32.191	
C	-0.104892307	 1.5402683373	 0.0535652646	-0.396022
C	 0.0154456838	 0.0149887374	 0.0072390187	-0.165999
C	 0.774053764	-0.511459234	-1.2399385195	-0.177854
C	 2.2561096508	-0.0799086386	-1.2785171809	-0.38956
C	 0.666943196	-1.9632526976	-1.3163280488	 0.107513
C	 0.5816793691	-3.1685727725	-1.3619507395	 0.038923
C	 0.4857085716	-4.5289992494	-1.4165133986	 0.201096
N	 0.4043342724	-5.6872471484	-1.4629754869	-0.340042
H	 0.8692411732	 2.0293074182	 0.1442065687	 0.125624
H	-0.5929638786	 1.927435493	-0.8477857906	 0.120542
H	-0.7065730137	 1.8474840728	 0.9138074858	 0.124417
H	 0.5237763249	-0.3535179828	 0.9059681338	 0.114707
H	-0.9849979471	-0.430176124	 0.013109891	 0.11726
H	 0.2758753248	-0.1022755513	-2.131186057	 0.121376
H	 2.7851252162	-0.4404300616	-0.3913337254	 0.133815
H	 2.7563062925	-0.4846807814	-2.1615880733	 0.135453
H	 2.335013047	 1.0091571829	-1.3111459121	 0.128751
69.7119	75.6447	118.8774	210.3717	214.0506	226.4754	272.8786	319.6542	365.1778	484.6693	518.6837	578.8327	592.0344	706.8466	781.4983	836.751	960.0525	980.0191	1028.3847	1074.4486	1125.3623	1153.3801	1204.2361	1280.4402	1315.3254	1336.8376	1376.0495	1407.2782	1415.936	1484.3496	1492.0213	1497.9741	1505.1658	1509.1012	2261.3441	2397.859	3002.2544	3036.4627	3040.8088	3049.8602	3076.5585	3106.3498	3114.4938	3124.6985	3132.5345
CCC(C)C#CC#N	CC[C@@H](C)C#CC#N	
InChI=1S/C7H9N/c1-3-7(2)5-4-6-8/h7H,3H2,1-2H3	InChI=1S/C7H9N/c1-3-7(2)5-4-6-8/h7H,3H2,1-2H3/t7-/m1/s1
