18
gdb 17464	4.27179	1.95452	1.66006	2.9788	70.31	-0.227	0.0706	0.2976	833.734	0.156533	-343.948448	-343.941747	-343.940802	-343.978799	27.382	
C	-0.0241855552	 1.5208921352	 0.0013956838	-0.459003
C	-0.0222629437	 0.014372707	 0.0873435139	 0.327561
C	-1.3188629079	-0.7358514107	-0.261630041	-0.293007
C	-1.3103831486	-2.0199585628	 0.5617773743	-0.030778
N	-0.1945732566	-2.9395772564	 0.2583385531	-0.34609
C	-0.0985818935	-2.0295876279	 1.4230179663	-0.047245
C	 0.7055724232	-0.7746969616	 1.1324143688	-0.072186
N	 1.2576172006	-0.6423048619	-0.2222517863	-0.373989
H	 0.9502822258	 1.9165839112	 0.2977662362	 0.12776
H	-0.2205135509	 1.8550026699	-1.0243271006	 0.116883
H	-0.794041826	 1.9560245909	 0.6488547654	 0.107615
H	-2.1819789862	-0.1266567719	 0.0310373141	 0.102017
H	-1.4085252398	-0.9309277712	-1.3364686915	 0.111602
H	-2.2536830922	-2.4489532552	 0.8852569349	 0.088147
H	-0.4263332573	-3.8789880172	 0.570624893	 0.233347
H	-0.0903846744	-2.4511672725	 2.42167763	 0.085027
H	 1.281198761	-0.3265300396	 1.9367158537	 0.080807
H	 1.1023746518	-1.5267922254	-0.7069447181	 0.241531
191.143	208.2252	270.246	356.169	367.8845	428.0373	557.9833	630.5382	693.7613	722.044	788.3269	836.2018	851.646	879.6418	888.1875	942.1911	971.5874	977.3098	1026.7603	1053.8298	1071.8303	1106.1558	1126.7501	1143.1982	1147.4534	1195.6514	1215.3834	1262.1391	1295.1359	1307.585	1320.7103	1371.4968	1402.2249	1418.9879	1437.894	1476.1003	1486.8477	1496.669	3025.4789	3036.9664	3074.6339	3084.2197	3121.0524	3150.1494	3154.7965	3181.0554	3454.2367	3503.484
CC12CC3NC3C1N2	C[C@]12C[C@H]3N[C@H]3[C@H]1N2	
InChI=1S/C6H10N2/c1-6-2-3-4(7-3)5(6)8-6/h3-5,7-8H,2H2,1H3	InChI=1S/C6H10N2/c1-6-2-3-4(7-3)5(6)8-6/h3-5,7-8H,2H2,1H3/t3-,4-,5-,6+/m1/s1
