21
gdb 106067	2.64216	1.47947	1.2864	0.8813	82.76	-0.2106	0.0927	0.3033	1120.3505	0.181806	-387.029674	-387.020916	-387.019972	-387.062971	33.781	
C	-0.0119009381	 1.4385047314	 0.0132647477	-0.259864
O	 0.0101438963	 0.0243745042	-0.0101569949	-0.281432
C	 0.6322096917	-0.5098335922	-1.1062377121	 0.404711
C	 1.9368275928	-0.2868757581	-1.8242289564	-0.161405
C	 2.3470518764	-1.744520381	-1.6419820328	-0.263384
C	 0.8305145018	-2.0506938322	-1.4371038775	 0.246228
C	 0.3667998054	-3.2108512365	-0.5982578408	-0.502935
C	 0.2175406653	-1.7607964843	-2.8427396231	-0.263436
C	 0.568802987	-0.2973236814	-2.5955620916	-0.161378
H	 1.0050466147	 1.8556558538	 0.0239437648	 0.113878
H	-0.5508013154	 1.8459798702	-0.8538470275	 0.113864
H	-0.5298692808	 1.7333736734	 0.9280213815	 0.130477
H	 2.562885756	 0.5953529616	-1.8584078862	 0.08293
H	 2.8497481588	-2.262453272	-2.4675498875	 0.084944
H	 2.9147021228	-1.8892391098	-0.7177003271	 0.096288
H	 0.8178759114	-3.1876363383	 0.3993871395	 0.120363
H	-0.7211397277	-3.2037514489	-0.4731942197	 0.120258
H	 0.6435162604	-4.162164129	-1.0686862791	 0.115726
H	 0.6697821226	-2.2790325239	-3.6968058896	 0.084944
H	-0.865356256	-1.9181342741	-2.8491135511	 0.096293
H	 0.2638454645	 0.577781147	-3.1547008666	 0.08293
65.5667	147.3249	183.7697	193.4506	250.8116	264.7336	340.6394	377.6798	494.5187	505.4969	584.5799	638.6382	728.3413	756.3809	831.6179	866.1192	881.903	923.1938	944.9319	987.8333	992.5886	1014.8809	1026.4777	1060.7199	1110.2248	1111.8526	1119.555	1150.9558	1179.4319	1200.5924	1211.	1233.8125	1244.1056	1247.7317	1278.6018	1350.4439	1413.779	1427.0647	1483.4697	1485.4744	1488.0695	1490.9581	1499.4324	1508.1152	1514.5608	2990.7694	3022.2805	3023.0847	3031.7349	3043.9022	3085.6735	3087.0237	3090.2293	3097.4825	3125.9559	3192.3897	3201.5675
COC12C3CC1(C)CC23	CO[C@@]12[C@H]3C[C@]1(C)C[C@@H]23	
InChI=1S/C8H12O/c1-7-3-5-6(4-7)8(5,7)9-2/h5-6H,3-4H2,1-2H3	InChI=1S/C8H12O/c1-7-3-5-6(4-7)8(5,7)9-2/h5-6H,3-4H2,1-2H3/t5-,6+,7+,8+
