18
gdb 87647	2.64181	1.28659	1.09883	2.9885	72.9	-0.2448	0.0032	0.248	1178.8351	0.146982	-439.090143	-439.08119	-439.080246	-439.123791	33.164	
C	 0.1297570409	 1.5751978283	 0.2522101346	-0.406259
C	-0.0249062587	 0.0722354597	 0.1743797705	-0.077236
C	 1.1167891063	-0.7922568076	-0.3592212534	-0.371655
C	 0.748063829	-0.8246940777	 1.079356956	 0.453083
O	 1.6274322841	-0.2967691035	 2.1083634715	-0.268578
C	 1.1625238267	-1.2079583481	 3.0321935461	 0.419239
O	 1.4279114964	-1.269994372	 4.1892247281	-0.325404
C	 0.2615086952	-1.9380861742	 2.0026257635	-0.262193
N	-1.1614693732	-2.072184303	 2.2004092136	-0.512995
H	 1.140547058	 1.8494672888	 0.5661989343	 0.135086
H	-0.0654450222	 2.0387046784	-0.7201060887	 0.122781
H	-0.5688872279	 2.0071810934	 0.9765120874	 0.121582
H	-1.025718362	-0.2863522938	-0.0558159011	 0.107335
H	 0.8867550334	-1.6560139102	-0.974559629	 0.123719
H	 2.0396126189	-0.2816835527	-0.6163425133	 0.129875
H	 0.6837196304	-2.9153015607	 1.7479565049	 0.122673
H	-1.3612983567	-2.839400394	 2.8335366049	 0.247432
H	-1.5493268385	-1.2320497011	 2.6185896502	 0.241515
88.1837	131.5125	163.46	190.9807	208.5317	245.5624	282.6428	374.1703	436.7615	502.8337	552.2413	576.8817	712.3486	782.9417	805.1807	825.2948	869.0265	896.9036	939.7916	974.082	990.8314	1049.7755	1076.1386	1106.7512	1139.4246	1156.0755	1180.646	1211.8856	1223.9424	1260.0517	1315.6719	1405.5884	1418.034	1442.1825	1489.85	1492.0987	1511.7017	1662.2401	1935.0915	3036.7707	3069.6421	3098.06	3114.6281	3126.4032	3139.8741	3214.9149	3503.8275	3586.0157
CC1CC11OC(=O)C1N	C[C@H]1C[C@]21OC(=O)[C@H]2N	
InChI=1S/C6H9NO2/c1-3-2-6(3)4(7)5(8)9-6/h3-4H,2,7H2,1H3	InChI=1S/C6H9NO2/c1-3-2-6(3)4(7)5(8)9-6/h3-4H,2,7H2,1H3/t3-,4+,6+/m0/s1
