20
gdb 93110	2.39643	1.60915	1.34073	0.8875	79.43	-0.2416	0.0189	0.2605	1058.4711	0.172744	-403.134575	-403.126409	-403.125465	-403.166931	32.572	
O	 0.0539478628	 1.4137637991	-0.0717914071	-0.439537
C	-0.0046930265	-0.0077550932	-0.0162652199	 0.025199
C	 0.7166495894	-0.5487310157	 1.22732709	-0.276126
C	-0.0979050114	-0.3036695936	 2.4750554143	-0.082735
C	-1.4145101769	-0.0887759244	 2.4543257846	-0.044724
C	-2.2417285043	-0.0742121539	 1.1936827033	-0.331332
C	-1.4439115401	-0.5037924524	-0.0271718101	 0.35426
C	-2.1161519165	-0.7361313612	-1.3228114758	-0.30044
N	-1.6913226987	-1.8837224841	-0.4914108743	-0.357239
H	-0.1662877974	 1.7429588611	 0.8073486427	 0.284739
H	 0.5035386111	-0.3529919802	-0.9249155586	 0.072973
H	 0.9101751321	-1.6244293725	 1.109796494	 0.114241
H	 1.6982581156	-0.0670004658	 1.3044530321	 0.109956
H	 0.4325815319	-0.3099633758	 3.4238239567	 0.089679
H	-1.9460355517	 0.0918286729	 3.385728391	 0.089635
H	-3.1050656794	-0.7406540827	 1.3016660559	 0.125237
H	-2.6532862204	 0.933655469	 1.0349910844	 0.113118
H	-3.1928404033	-0.6119129789	-1.4056730599	 0.114419
H	-1.5648889647	-0.5139215739	-2.2330625118	 0.113635
H	-0.8350534716	-2.281149084	-0.8747653015	 0.225041
105.3579	140.7492	214.4287	296.9751	329.2269	340.8542	397.9156	407.1241	448.0776	518.1478	595.7371	679.5468	696.3907	830.3214	858.9499	887.9214	908.723	922.8117	954.8818	972.5693	989.7797	1004.5862	1020.6312	1045.942	1076.1855	1090.1345	1134.809	1189.3345	1199.97	1223.527	1256.7084	1278.7263	1299.4382	1325.0479	1346.2494	1374.7485	1408.2377	1422.5857	1434.7981	1462.5055	1468.2881	1513.4568	1716.5169	3001.3024	3008.4865	3037.1388	3059.0754	3060.3449	3104.1704	3145.0603	3168.531	3188.0672	3471.1689	3793.7949
OC1CC=CCC11CN1	O[C@H]1CC=CC[C@]21CN2	
InChI=1S/C7H11NO/c9-6-3-1-2-4-7(6)5-8-7/h1-2,6,8-9H,3-5H2	InChI=1S/C7H11NO/c9-6-3-1-2-4-7(6)5-8-7/h1-2,6,8-9H,3-5H2/t6-,7+/m0/s1
