16
gdb 28967	2.94871	1.51882	1.00869	1.5203	88.64	-0.2384	-0.0402	0.1982	1130.2028	0.124705	-363.65131	-363.643221	-363.642277	-363.684046	30.446	
C	-0.038588607	 1.5041094238	-0.0283385608	-0.492525
C	-0.0110146097	 0.0003855464	-0.0022750549	 0.265044
N	-0.0273417629	-0.6296999737	-1.1794908099	-0.311052
C	-0.0034131831	-1.9652999258	-1.1947652474	-0.002971
C	 0.0378215325	-2.7480588291	-0.0464183665	-0.120599
C	 0.0550664537	-2.1046168558	 1.1824195049	-0.159603
C	 0.0307015613	-0.7057961725	 1.2242979929	 0.07281
C	 0.0476228756	-0.0153132533	 2.4683042425	 0.230063
C	 0.0619928244	 0.5684512327	 3.522099374	-0.422022
H	 0.8479243193	 1.9228759039	 0.4602624118	 0.138238
H	-0.076427736	 1.847877345	-1.0623286739	 0.138229
H	-0.9068471863	 1.8920324333	 0.5151727092	 0.138193
H	-0.0181496813	-2.4297000304	-2.1780048166	 0.111267
H	 0.0557960862	-3.8296744043	-0.1144080886	 0.105089
H	 0.0870188788	-2.6649704785	 2.1101482658	 0.113832
H	 0.0746461244	 1.0838460483	 4.4504681874	 0.196007
87.7746	124.1815	145.7374	212.98	345.7308	380.7004	473.0784	474.4076	547.5914	570.6187	592.9848	601.8442	649.388	725.6885	760.3469	834.9875	859.3232	972.411	990.5293	991.1603	1062.8404	1088.6247	1128.9471	1198.7309	1256.2369	1284.2315	1303.5376	1405.6217	1459.9769	1461.214	1480.3381	1492.5864	1593.4591	1622.9668	2222.3452	3039.143	3091.8743	3150.6576	3154.8763	3190.7358	3206.8831	3501.7568
CC1=NC=CC=C1C#C	Cc1ncccc1C#C	
InChI=1S/C8H7N/c1-3-8-5-4-6-9-7(8)2/h1,4-6H,2H3	InChI=1S/C8H7N/c1-3-8-5-4-6-9-7(8)2/h1,4-6H,2H3
