15
gdb 17440	2.77274	2.68183	1.90511	1.6788	59.52	-0.2412	0.0609	0.3021	739.5166	0.118911	-399.720714	-399.714011	-399.713067	-399.751097	26.683	
O	 0.0879452794	 1.4546126459	 0.0462243391	-0.443602
C	 0.0573266963	 0.0572084019	-0.0589070278	 0.136119
C	-1.2528092779	-0.719342011	-0.0532135942	-0.107933
C	-0.708433705	-1.755745562	-0.9614084606	-0.142408
N	-1.7699002827	-0.8492375971	-1.468192461	-0.147603
C	-0.7639827395	-0.1320080643	-2.3251455996	-0.228068
C	 0.3544773088	-0.6490456559	-1.4114354467	 0.314616
O	 1.6751188434	-0.7737481541	-1.7766848046	-0.467458
H	-0.6541840163	 1.8176055101	-0.4470984575	 0.287867
H	 0.7393409253	-0.330023169	 0.7031530595	 0.105874
H	-1.9872180425	-0.8130233605	 0.7358379544	 0.103791
H	-0.7596013937	-2.8358493201	-0.9540377713	 0.104592
H	-0.7667213715	-0.6021232819	-3.3136281562	 0.105739
H	-0.899524619	 0.9515763961	-2.4375836075	 0.090645
H	 1.7224024849	-1.1382639181	-2.6671398759	 0.287828
181.9292	258.6114	282.8342	314.3053	355.1584	381.9927	523.802	611.4299	644.8137	699.315	774.3577	806.9296	860.2901	878.8158	921.4398	968.2028	980.4401	1010.6479	1054.2924	1080.3655	1115.7679	1144.1392	1160.4299	1177.3338	1228.2467	1257.9146	1275.4293	1309.414	1348.4884	1395.4713	1441.3707	1511.9499	3018.1929	3083.4468	3088.4833	3202.2404	3217.1976	3804.7282	3825.6123
OC1C2C3N2CC13O	O[C@H]1[C@@H]2[C@H]3N2C[C@@]13O	
InChI=1S/C5H7NO2/c7-4-2-3-5(4,8)1-6(2)3/h2-4,7-8H,1H2	InChI=1S/C5H7NO2/c7-4-2-3-5(4,8)1-6(2)3/h2-4,7-8H,1H2/t2-,3+,4-,5-,6?/m0/s1
