18
gdb 66568	2.40379	2.23974	1.58282	0.6231	73.46	-0.2393	0.0683	0.3076	913.9542	0.147131	-401.867053	-401.859577	-401.858633	-401.898486	29.899	
C	-0.069212179	 1.4434601519	-0.0608368422	-0.525926
C	 0.0420514533	-0.0423241834	 0.0544250273	 0.308693
C	 1.0088615552	-0.9223119686	-0.6554104131	-0.117837
C	 0.9881397776	-2.1386423479	 0.3015304494	 0.057776
O	 0.9394093353	-1.6278830312	 1.6513629858	-0.326354
C	-0.3037400082	-0.9863540178	 1.2532612355	 0.378667
C	-1.2036141426	-0.5682857724	 2.3739229634	-0.524205
C	-0.5467384727	-2.0322971488	 0.1276387966	-0.091321
N	-0.4575044583	-0.9959119572	-0.9989986841	-0.225287
H	 0.6432434265	 1.9418303902	 0.6057368347	 0.128995
H	 0.1416044575	 1.7621503048	-1.086038128	 0.135756
H	-1.0763938981	 1.7890415657	 0.1954059311	 0.125684
H	 1.754706821	-0.5882931219	-1.366018487	 0.097363
H	 1.6343987199	-3.0020255633	 0.1609849851	 0.088869
H	-0.7239521668	 0.2064106179	 2.9816123794	 0.135068
H	-2.140838813	-0.1633737077	 1.9797620447	 0.132026
H	-1.4345109995	-1.4184294833	 3.0214065124	 0.134236
H	-1.281444168	-2.8344576271	 0.1069218788	 0.087796
178.5968	191.8237	201.3323	226.103	292.446	346.1475	532.0165	589.2452	606.0463	644.2492	754.36	767.7479	817.9991	822.7416	853.4475	857.586	878.609	912.8368	956.5849	981.9667	994.8367	1012.697	1082.1898	1114.6715	1130.2337	1141.6452	1184.0839	1217.1933	1219.2096	1249.6331	1292.8632	1357.477	1394.0415	1418.4959	1428.7519	1476.7226	1483.9269	1490.2095	1494.5406	3031.0432	3039.1691	3094.7233	3108.1879	3109.8505	3120.4871	3138.4127	3152.3157	3193.4721
CC12C3C4OC1(C)C4N23	C[C@@]12[C@H]3[C@H]4O[C@]1(C)[C@H]4N23	
InChI=1S/C7H9NO/c1-6-4-3-5(8(4)6)7(6,2)9-3/h3-5H,1-2H3	InChI=1S/C7H9NO/c1-6-4-3-5(8(4)6)7(6,2)9-3/h3-5H,1-2H3/t3-,4-,5+,6-,7-,8?/m1/s1
