23
gdb 39468	2.1735	1.95875	1.43309	0.1534	88.69	-0.2331	0.0258	0.2589	1045.2606	0.210844	-351.185011	-351.177633	-351.176689	-351.216211	31.554	
C	 0.0152273361	 1.5540414164	-0.1474769589	-0.234278
C	 1.5323911758	 1.8470897509	-0.021004844	-0.028931
C	 2.0008708347	 2.0357606113	 1.4425281235	-0.201226
C	 1.7821900714	 0.8355142884	 2.3822403044	-0.180391
C	 0.321433515	 0.3739045417	 2.5450085375	-0.185086
C	-0.2710653521	-0.5018652228	 1.4202238138	-0.203628
C	-0.084683803	 0.0132380457	-0.035170943	-0.025551
C	 1.2502751835	-0.4080248893	-0.624899362	-0.070734
C	 2.1258435613	 0.5953951042	-0.6369807517	-0.071839
H	-0.5939495357	 2.0883027954	 0.5870621066	 0.088001
H	-0.3239628241	 1.8631838422	-1.1414492897	 0.092393
H	 1.8054078046	 2.7521999167	-0.5763110725	 0.061955
H	 3.0704464035	 2.2840293537	 1.4422784575	 0.087791
H	 1.4856284857	 2.9134641633	 1.8559933917	 0.089811
H	 2.3982921379	-0.0099363528	 2.0547100499	 0.09707
H	 2.1623306313	 1.1234490165	 3.3700849887	 0.087725
H	 0.2380272474	-0.1998644289	 3.4761708209	 0.088392
H	-0.3116158684	 1.258789039	 2.6923681465	 0.093026
H	 0.1579047064	-1.5099553256	 1.487516689	 0.091834
H	-1.3429889783	-0.6193277862	 1.6224521421	 0.08909
H	-0.9167455858	-0.3736715548	-0.6349062621	 0.064331
H	 1.4493417145	-1.4279472756	-0.9381264814	 0.085204
H	 3.1607234082	 0.5304440405	-0.956594887	 0.085044
178.8143	209.4179	296.8345	308.7911	337.6355	369.4763	474.3526	488.6054	594.5025	712.2383	741.0901	762.9602	799.3578	807.2978	827.5261	850.6157	891.5934	918.3783	944.4144	975.3513	977.8048	1004.6622	1006.4298	1040.8797	1061.7439	1113.6862	1120.5956	1139.8039	1169.0681	1198.2477	1214.2345	1224.1215	1272.2988	1295.9148	1312.9962	1325.4154	1331.8653	1349.1274	1358.1725	1383.9673	1391.5945	1394.083	1399.465	1479.7186	1481.8205	1487.3771	1492.9458	1506.316	1679.0031	3005.7149	3010.2995	3016.817	3025.0974	3027.131	3030.6798	3042.7052	3047.1552	3053.6847	3057.3073	3069.6502	3093.1853	3170.4043	3197.2458
C1C2CCCCC1C=C2	C1[C@H]2CCCC[C@@H]1C=C2	
InChI=1S/C9H14/c1-2-4-9-6-5-8(3-1)7-9/h5-6,8-9H,1-4,7H2	InChI=1S/C9H14/c1-2-4-9-6-5-8(3-1)7-9/h5-6,8-9H,1-4,7H2/t8-,9+
