19
gdb 40704	3.37152	1.05122	0.92667	2.3677	76.38	-0.2551	0.0824	0.3375	1308.8712	0.158639	-422.960378	-422.951884	-422.95094	-422.994336	31.485	
C	-0.1645787966	 1.3860007026	-0.1464674762	-0.187647
O	 1.0757737978	 0.6788744573	-0.1383286138	-0.24556
C	-0.140668869	-0.0783840006	-0.0418253107	 0.081718
C	-0.3835335288	-0.7704381119	 1.2567554836	-0.043749
C	-1.5258894544	-1.7531710314	 1.3929049343	-0.319805
C	-0.1070046004	-2.2520552286	 1.4281788954	-0.04366
C	 0.434308696	-3.0842651492	 0.3064344188	 0.054471
C	-0.2311176429	-4.3184849393	-0.13605486	-0.176299
O	-0.3153506774	-3.1201825548	-0.9117587482	-0.228963
H	-0.3686945642	 1.9832505122	 0.7421884222	 0.107949
H	-0.4310173913	 1.8597784268	-1.0907069059	 0.112396
H	-0.3736982663	-0.6575699513	-0.9336079494	 0.120629
H	-0.1668764357	-0.1514000596	 2.1229184457	 0.088854
H	-2.1059634367	-1.7496669362	 2.3084689095	 0.112801
H	-2.0898925116	-1.9742770783	 0.4928977998	 0.1335
H	 0.2937887747	-2.5381748649	 2.3974939474	 0.094305
H	 1.5117264937	-3.0113502113	 0.1510921825	 0.104575
H	 0.3515916996	-5.1211093065	-0.5848840909	 0.117716
H	-1.1577376964	-4.6224075249	 0.347998496	 0.116769
63.3225	81.1637	128.7806	193.3124	252.6213	285.9512	340.9517	447.9842	533.0906	630.0048	737.0609	777.8361	835.0008	850.1059	857.917	899.4295	913.9778	978.6353	987.391	991.9913	1065.3018	1080.8117	1098.1883	1104.0934	1122.4229	1136.4462	1154.209	1160.3252	1170.5815	1178.4036	1197.9655	1235.4072	1288.0302	1296.0936	1332.5742	1393.0589	1433.7336	1463.724	1493.7801	1522.4961	1532.8123	3075.391	3087.6184	3101.0164	3132.3426	3135.6691	3138.9478	3150.4196	3161.8994	3178.0066	3226.0586
C1OC1C1CC1C1CO1	C1O[C@H]1[C@H]1C[C@H]1[C@H]1CO1	
InChI=1S/C7H10O2/c1-4(6-2-8-6)5(1)7-3-9-7/h4-7H,1-3H2	InChI=1S/C7H10O2/c1-4(6-2-8-6)5(1)7-3-9-7/h4-7H,1-3H2/t4-,5+,6-,7-/m1/s1
