14
gdb 132918	3.158	1.37965	0.96131	4.1701	71.43	-0.1973	-0.0417	0.1556	1119.7319	0.101064	-477.992553	-477.984843	-477.983899	-478.024725	29.438	
N	 0.0181395921	 1.4317121447	 0.1567037981	-0.594989
C	-0.0322137046	 0.0362003945	 0.0386392342	 0.07207
C	-1.1552030553	-0.710997244	 0.0142626782	-0.002011
O	-1.1553303428	-2.0712631252	-0.0060452639	-0.243089
C	 0.0213073561	-2.8152598242	-0.0174942533	 0.399253
N	-0.0118104353	-4.0861099873	-0.0341983903	-0.547168
C	 1.2494368783	-2.0476187577	-0.0134878867	-0.319358
C	 1.206812971	-0.7062507521	 0.0160332729	 0.31173
F	 2.3230967917	 0.0250864591	 0.006746994	-0.073173
H	 0.8326485849	 1.8299038681	-0.2911134484	 0.257749
H	-0.8229659362	 1.8970070318	-0.1563409447	 0.251425
H	-2.1600443771	-0.3088455219	 0.0222627976	 0.128299
H	-0.9756526146	-4.4195805098	-0.036585161	 0.219198
H	 2.1836775718	-2.590448006	-0.0376021867	 0.140065
100.7802	201.8889	205.4475	296.737	350.9295	362.4682	382.2345	429.8537	536.6717	573.2828	674.6829	680.9986	712.3443	752.6537	789.686	824.4676	825.4282	860.4995	882.8345	1074.5724	1120.767	1201.6792	1217.5623	1259.9901	1296.3213	1370.0916	1489.7012	1638.9327	1643.4638	1702.3438	1752.4278	3218.4592	3241.8157	3494.9839	3549.1948	3645.8255
NC1=COC(=N)C=C1F	NC1=C(C=C(OC1)[NH])F	
InChI=1S/C5H5FN2O/c6-3-1-5(8)9-2-4(3)7/h1-2,8H,7H2	InChI=1S/C5H6FN2O/c6-3-1-5(8)9-2-4(3)7/h1,8H,2,7H2
