21
gdb 109502	1.99671	1.35292	1.03219	1.8047	85.92	-0.2451	0.0411	0.2862	1283.2314	0.179591	-387.048488	-387.038058	-387.037113	-387.083381	39.037	
C	-0.1021048012	 1.5560463127	 0.1205805849	-0.458543
C	-0.0370152354	 0.048636809	-0.0391846654	 0.287363
C	-1.2025632224	-0.679450103	 0.6064567723	-0.447802
C	 0.5558925226	-0.5829439161	-1.2745341607	-0.073957
C	 1.1416645059	 0.1903068415	-2.4373852452	-0.097103
O	 2.2290166154	-0.4994742001	-3.0339832526	-0.423044
C	 1.3211651294	-0.6579684535	 0.051606348	-0.268471
C	 2.5488984367	 0.0652175412	 0.2036824266	 0.319902
C	 3.595531111	 0.6535301317	 0.3063790668	-0.459114
H	 0.8071924074	 2.0555885378	-0.2166613954	 0.134351
H	-0.9504346567	 1.9688242218	-0.4369799787	 0.117088
H	-0.2430099837	 1.8148939831	 1.175976763	 0.11919
H	-2.1516034664	-0.3666885498	 0.1556179642	 0.119819
H	-1.1180226277	-1.7636926714	 0.4854461689	 0.116418
H	-1.2562415215	-0.462168645	 1.6793087759	 0.120142
H	 0.1141309715	-1.5297150744	-1.5755793586	 0.093009
H	 0.3871787819	 0.3007498541	-3.2237846114	 0.10873
H	 1.4390086005	 1.199789511	-2.1273245181	 0.096037
H	 2.9335936459	-0.5215366185	-2.3758483697	 0.287906
H	 1.3126853823	-1.6247436674	 0.5477866301	 0.109972
H	 4.5109934747	 1.1786574752	 0.4236319051	 0.198106
74.1787	128.7665	137.1795	167.4	195.6365	228.8459	244.1561	316.0649	347.6768	362.8464	401.4725	410.5881	491.7217	540.1806	585.3498	624.6381	652.3746	704.0928	811.3008	835.4086	941.8203	971.5401	982.101	1005.4721	1014.6684	1062.3787	1083.1171	1121.1553	1152.9643	1154.1209	1208.89	1263.3484	1324.1394	1344.684	1392.6932	1412.0792	1422.0204	1428.3721	1441.8834	1482.8279	1490.0133	1500.3956	1503.1828	1511.6944	2222.0121	3023.7647	3025.3524	3033.7977	3071.8996	3085.6725	3088.856	3101.5142	3132.6869	3134.1673	3143.1209	3501.6854	3791.5519
CC1(C)C(CO)C1C#C	CC1(C)[C@@H](CO)[C@H]1C#C	
InChI=1S/C8H12O/c1-4-6-7(5-9)8(6,2)3/h1,6-7,9H,5H2,2-3H3	InChI=1S/C8H12O/c1-4-6-7(5-9)8(6,2)3/h1,6-7,9H,5H2,2-3H3/t6-,7+/m1/s1
