18
gdb 55868	3.11311	1.00499	0.97063	3.338	69.16	-0.2519	0.0548	0.3067	1301.7216	0.144926	-476.247783	-476.237909	-476.236965	-476.283537	36.093	
C	-0.0836005041	 1.4666958238	 0.2944754447	-0.45346
C	 0.0760569617	-0.0234676523	 0.1119797769	 0.366882
O	-1.0814726235	-0.6993163545	-0.3008415454	-0.458016
C	 1.4105577065	-0.6014384936	-0.3401764113	-0.394385
C	 0.9120551849	-0.8276994879	 1.0591152216	 0.110757
O	 1.64111124	-0.1690314731	 2.0724585394	-0.26511
C	 1.0756926276	-0.2040638233	 3.3144345378	 0.491612
N	 1.8475311853	 0.5168605358	 4.1826340799	-0.565705
O	 0.0456676267	-0.7673016324	 3.5889569782	-0.386356
H	 0.820076449	 1.9140520378	 0.7145892617	 0.1257
H	-0.2906001522	 1.9556680288	-0.6649687999	 0.107321
H	-0.919722079	 1.6716681073	 0.9701011064	 0.137586
H	-1.2573138738	-0.4504960224	-1.2153952455	 0.281326
H	 1.3981536709	-1.4497653281	-1.0150392495	 0.118374
H	 2.2419295319	 0.0842007653	-0.4642839215	 0.119272
H	 0.5350106521	-1.8019302769	 1.3451455454	 0.130833
H	 2.7913797754	 0.7411876132	 3.9166743518	 0.264081
H	 1.6553700006	 0.3785438626	 5.1599372994	 0.269289
21.0881	77.7367	124.9469	206.6722	235.6688	277.8325	311.6355	351.2385	366.3845	396.1373	411.5294	487.2177	507.2416	544.3793	666.0887	728.7442	780.8291	812.7152	885.3079	908.1533	964.3923	993.9139	1042.2159	1061.8452	1093.0111	1112.9949	1120.2376	1177.5533	1236.7641	1300.4855	1327.8517	1372.4194	1409.1546	1414.4197	1477.8311	1485.9299	1511.8134	1611.7799	1846.0579	3030.0936	3095.7301	3128.2621	3134.5779	3192.8952	3229.0832	3612.4288	3741.1086	3788.7023
CC1(O)CC1OC(N)=O	C[C@@]1(O)C[C@H]1OC(=O)N	
InChI=1S/C5H9NO3/c1-5(8)2-3(5)9-4(6)7/h3,8H,2H2,1H3,(H2,6,7)	InChI=1S/C5H9NO3/c1-5(8)2-3(5)9-4(6)7/h3,8H,2H2,1H3,(H2,6,7)/t3-,5-/m1/s1
