17
gdb 106427	3.04003	1.32896	1.16391	1.3686	68.73	-0.2557	0.0612	0.317	1091.8635	0.134378	-458.854584	-458.846525	-458.845581	-458.887317	30.713	
O	-0.006816185	 1.4209588827	-0.0408314702	-0.410893
C	 0.0364324653	 0.007752759	 0.0140280088	-0.192366
C	-1.3391247195	-0.5744751146	 0.1330703765	 0.266704
C	-2.4850953301	-0.2427725533	 1.1301992523	-0.262527
C	-3.0902897721	-1.0636367867	-0.033387757	-0.055316
O	-2.2830010291	-0.2619687069	-0.9854465411	-0.356602
C	-1.8870745755	-2.0153166654	 0.0593484662	 0.47694
C	-1.4812723289	-3.2749168063	-0.5289820641	-0.299795
O	-1.6624802084	-3.1015630601	 0.9070046424	-0.284398
H	-0.6451242045	 1.650868097	-0.7263125891	 0.295707
H	 0.5305678668	-0.4218396279	-0.8721600149	 0.101109
H	 0.6294360714	-0.2639851436	 0.8934271238	 0.127357
H	-2.4465071459	-0.7058457723	 2.1187199688	 0.118348
H	-2.778065218	 0.8068728701	 1.1497480973	 0.11375
H	-4.1308298494	-1.2549092289	-0.290219232	 0.105505
H	-2.2177946528	-3.9162967321	-1.0086392823	 0.129159
H	-0.4510330642	-3.4283241407	-0.8437586854	 0.127317
84.3038	129.5442	198.6301	248.4153	262.8508	332.7148	401.344	472.5432	496.9912	608.8991	651.8654	706.3018	743.1986	819.3915	865.1215	898.977	916.8297	965.8534	996.5185	1043.0815	1059.6562	1078.9973	1090.3839	1107.4153	1130.1452	1160.7292	1195.6469	1202.7872	1209.6021	1242.7497	1333.7041	1374.2567	1436.0361	1461.9782	1487.7884	1489.9051	1567.4798	2980.5586	3074.2384	3080.6601	3095.727	3139.4924	3160.1419	3184.2642	3797.2974
OCC12CC(O1)C21CO1	OC[C@@]12C[C@@H](O1)[C@]12CO1	
InChI=1S/C6H8O3/c7-2-5-1-4(9-5)6(5)3-8-6/h4,7H,1-3H2	InChI=1S/C6H8O3/c7-2-5-1-4(9-5)6(5)3-8-6/h4,7H,1-3H2/t4-,5-,6+/m1/s1
