13
gdb 132132	3.18342	1.41907	0.98153	3.9993	66.96	-0.2042	-0.0466	0.1576	1077.1827	0.090288	-494.062059	-494.054756	-494.053812	-494.093966	27.717	
O	-0.0984972749	 1.3292743531	 0.0108915842	-0.398517
C	 0.0248086287	-0.0012703405	 0.0028899783	 0.401811
C	 1.2119282197	-0.6822281747	-0.0071897188	 0.041801
F	 2.3670128837	 0.018439554	-0.0094614524	-0.096795
C	 1.1632037313	-2.0894368207	-0.0147021641	-0.060145
N	 0.0607779786	-2.7886403197	-0.0126812694	-0.326107
C	-1.1624458768	-2.1277546528	-0.0025646764	 0.419244
N	-2.3219970767	-2.6615103686	 0.0009265983	-0.569831
N	-1.1191793258	-0.7083729334	 0.0050502039	-0.376992
H	 0.7901254279	 1.7106729643	 0.0082999955	 0.325732
H	 2.1076927475	-2.6341171112	-0.0227386417	 0.132094
H	-2.2114217752	-3.6735805533	-0.0051031665	 0.225285
H	-2.0074236782	-0.2261209764	 0.0124749293	 0.28242
93.3618	197.7492	266.2245	293.6477	358.4785	439.1405	459.2807	484.0101	548.5626	600.3951	600.4997	690.9058	756.8425	771.9082	797.7937	835.2465	928.0401	982.7473	1065.4563	1199.8939	1267.9161	1286.9723	1305.816	1351.5993	1435.258	1527.072	1608.0251	1697.758	1735.4619	3131.3101	3519.7197	3611.9472	3782.7834
OC1=C(F)C=NC(=N)N1	O[C@@H]1C(=CN=C([NH])N1)F	
InChI=1S/C4H4FN3O/c5-2-1-7-4(6)8-3(2)9/h1H,(H3,6,7,8,9)	InChI=1S/C4H5FN3O/c5-2-1-7-4(6)8-3(2)9/h1,3,6,9H,(H,7,8)/t3-/m1/s1
