13
gdb 129172	5.40161	1.34082	1.07474	2.2976	67.25	-0.2009	0.0154	0.2162	1014.7687	0.092712	-448.931897	-448.925154	-448.92421	-448.962972	25.89	
N	-0.0900440605	 1.286473435	 0.0341456361	-0.585138
C	-0.0119122918	 0.0293828634	-0.013859967	 0.437571
N	-1.1179512266	-0.8388493361	-0.0619179404	-0.472614
C	-0.6207388577	-2.12523258	 0.0112454049	 0.441155
C	 0.7420897528	-2.0632228434	-0.0031112642	 0.225366
O	 1.1476152278	-0.7404633638	-0.0327207766	-0.259916
C	 1.1977804686	-3.3864793502	-0.0228985808	-0.136507
N	 0.1493344961	-4.2207442027	-0.0135007687	-0.234676
N	-0.9659885067	-3.4246078413	-0.0129176203	-0.342759
H	 0.8323831666	 1.7116376487	 0.0668736283	 0.236428
H	-2.0302061278	-0.5015077343	 0.1919531932	 0.281336
H	 2.1993798621	-3.784947726	-0.0356022253	 0.128849
H	-1.8710519229	-3.8585247293	 0.0240697908	 0.280906
122.9214	197.3349	319.5451	343.0177	358.0035	416.5958	556.3823	590.1882	651.9959	707.3524	717.4446	763.4663	777.1905	854.9409	865.9203	906.6955	975.7013	1026.6542	1051.953	1152.995	1233.3278	1278.0108	1320.185	1359.0249	1414.0614	1493.6854	1622.2782	1630.565	1794.538	3268.6753	3549.2087	3683.6014	3692.4293
N=C1NC2=C(O1)C=NN2	[NH][C@H]1Nc2c(O1)cn[nH]2	
InChI=1S/C4H4N4O/c5-4-7-3-2(9-4)1-6-8-3/h1H,(H3,5,6,7,8)	InChI=1S/C4H5N4O/c5-4-7-3-2(9-4)1-6-8-3/h1,4-5H,(H2,6,7,8)/t4-/m0/s1
