16
gdb 19341	4.06096	1.8324	1.51561	3.2701	70.42	-0.2236	-0.0157	0.2079	852.0211	0.130462	-346.547035	-346.54035	-346.539406	-346.577742	26.403	
O	-0.1071504499	 0.0200543475	-0.0307009565	-0.283859
C	 0.0162626865	 1.2255827648	-0.0412876348	 0.063748
C	 1.287715988	 1.9295025212	 0.0603518994	 0.255305
C	 1.37418434	 3.4120241081	 0.3701695673	-0.357202
C	 1.7985542725	 2.9774899692	-0.98299619	-0.090519
C	 3.1463623541	 2.2221348242	-1.0465478662	-0.048763
C	 3.839137394	 2.075878698	 0.2817663213	-0.309542
C	 2.6527911909	 1.2081124418	-0.0238706201	-0.106984
H	-0.8671897507	 1.8975219473	-0.1526045159	 0.056615
H	 0.4076695464	 3.9073570378	 0.4041922402	 0.127194
H	 2.0721333858	 3.774433745	 1.1156580035	 0.128616
H	 1.2595554328	 3.2753808538	-1.8730595766	 0.111707
H	 3.6469494052	 2.0305312679	-1.9859070467	 0.099591
H	 4.7892165794	 1.553574704	 0.2210396562	 0.122536
H	 3.8284755295	 2.850409428	 1.0408715199	 0.114892
H	 2.6996897757	 0.1294591615	-0.0702928209	 0.116662
120.4729	186.4823	253.3785	366.3161	421.5715	473.2462	556.4659	657.7314	710.0354	721.7719	773.5917	846.5229	901.0798	908.3413	925.8522	951.3331	977.8293	1026.9967	1030.422	1044.5758	1070.2129	1077.4318	1101.6938	1113.0309	1179.3379	1216.8422	1255.1659	1315.5126	1330.9499	1388.0796	1436.2023	1476.624	1511.6297	1783.9871	2852.1157	3124.4204	3136.5759	3194.9226	3203.68	3205.7942	3214.6728	3223.1794
O=CC12CC1C1CC21	O=C[C@]12C[C@H]1[C@H]1C[C@@H]21	
InChI=1S/C7H8O/c8-3-7-2-6(7)4-1-5(4)7/h3-6H,1-2H2	InChI=1S/C7H8O/c8-3-7-2-6(7)4-1-5(4)7/h3-6H,1-2H2/t4-,5+,6-,7-/m0/s1
