17
gdb 126022	3.09345	1.57571	1.09969	2.5248	73.63	-0.2027	0.0392	0.2419	1076.8404	0.139112	-418.018434	-418.010889	-418.009945	-418.05081	28.672	
C	-0.0013932147	 1.5988028168	-0.0903979997	-0.393759
C	-0.0164249504	 0.0726111755	 0.0551573823	-0.166116
C	 0.7849535459	-0.6419667963	-1.0982294267	-0.103083
O	 1.6447895477	-1.6804176001	-0.5172650044	-0.286944
C	 1.5779173101	-1.4421676182	 0.8040017908	 0.476757
C	 0.7071774544	-0.4893711291	 1.2513638248	 0.137058
C	 0.8697652015	-0.522316585	 2.6523543692	-0.158641
N	 1.7805365552	-1.4242052378	 3.023841461	-0.242384
N	 2.2118550553	-1.9933472299	 1.849696289	-0.340868
H	 1.0237361482	 1.981797458	-0.0612535922	 0.121343
H	-0.4604034714	 1.9114843605	-1.0349507682	 0.113625
H	-0.5607940751	 2.0704686796	 0.7229682014	 0.124363
H	-1.0616500274	-0.2643759746	 0.0311753033	 0.090148
H	 0.144748591	-1.1324887027	-1.8337036667	 0.124812
H	 1.441774986	 0.06821895	-1.6122643574	 0.119293
H	 0.3789779802	 0.0623454142	 3.4171569415	 0.108263
H	 2.9148338835	-2.710677271	 1.8734126622	 0.276132
60.7953	155.1084	231.026	267.832	309.4768	419.9688	444.9168	483.892	611.5333	662.3733	665.8218	738.9231	748.15	885.6265	892.2554	928.5234	953.4935	970.9305	1030.3159	1056.5777	1100.1397	1137.4155	1165.5216	1232.0144	1239.0736	1287.2399	1322.3637	1345.1556	1381.2615	1408.7474	1412.763	1454.7355	1494.5487	1499.5787	1506.3112	1594.4167	1633.6945	3000.2063	3029.9802	3046.2307	3099.3579	3110.0071	3117.7447	3237.6406	3689.4972
CC1COC2=C1C=NN2	C[C@H]1COc2c1cn[nH]2	
InChI=1S/C6H8N2O/c1-4-3-9-6-5(4)2-7-8-6/h2,4H,3H2,1H3,(H,7,8)	InChI=1S/C6H8N2O/c1-4-3-9-6-5(4)2-7-8-6/h2,4H,3H2,1H3,(H,7,8)/t4-/m0/s1
