19
gdb 106128	2.81743	1.54599	1.37964	1.7712	78.6	-0.2217	0.0025	0.2242	1036.8938	0.15968	-385.849797	-385.842105	-385.841161	-385.882053	30.573	
C	 0.1126333424	 1.5314575858	-0.1719011387	-0.371456
C	 0.0031476579	 0.0236721006	 0.093281382	-0.325407
C	-1.4093917649	-0.4801444811	 0.0575282335	 0.289266
C	-2.044226118	-1.8180880054	-0.041068093	 0.02513
O	-2.9211353653	-1.654867284	 1.0431223984	-0.297804
C	-2.5908979601	-0.1952827312	 1.0489991586	-0.007506
C	-3.6758311095	 0.4563569591	 0.2380979879	-0.109597
C	-3.5130473997	 0.0716995172	-1.0382752384	-0.054894
C	-2.2735568088	-0.7250353257	-1.1659160015	-0.185828
H	 1.1558845875	 1.8601494423	-0.1457083262	 0.112084
H	-0.3013110829	 1.7880057397	-1.1519905826	 0.123955
H	-0.4385303809	 2.1060563271	 0.5797787501	 0.120155
H	 0.5880534008	-0.5267569516	-0.6546459492	 0.102232
H	 0.4521918786	-0.2164014394	 1.0661820854	 0.104675
H	-1.6907668674	-2.8172991266	-0.2674118387	 0.109682
H	-2.3959242586	 0.1450000485	 2.0652534022	 0.079728
H	-4.5320795482	 0.9635048188	 0.6623334224	 0.100393
H	-4.2138290088	 0.2289828108	-1.8493037445	 0.102263
H	-1.7992491443	-0.9264761348	-2.1197652478	 0.082929
77.8737	124.231	197.0101	305.6618	339.3014	404.6112	450.0976	569.2761	608.1315	680.1646	745.1974	757.5805	769.1659	812.3594	819.5239	880.6149	890.0536	923.5902	932.9763	970.1005	984.0489	1006.2487	1035.4331	1060.9921	1077.1494	1120.4383	1131.021	1187.9632	1197.5647	1213.798	1269.8404	1303.2624	1312.3774	1353.7509	1366.8577	1408.9357	1461.0724	1479.0108	1497.0916	1505.5969	1621.4043	3015.6944	3036.7049	3048.5998	3105.485	3110.7889	3125.8472	3178.6272	3188.1632	3201.3534	3228.8507
CCC12C3OC1C=CC23	CC[C@@]12[C@H]3O[C@@H]1C=C[C@@H]23	
InChI=1S/C8H10O/c1-2-8-5-3-4-6(8)9-7(5)8/h3-7H,2H2,1H3	InChI=1S/C8H10O/c1-2-8-5-3-4-6(8)9-7(5)8/h3-7H,2H2,1H3/t5-,6-,7+,8+/m1/s1
