17
gdb 106570	2.69453	1.53768	1.25374	2.1706	73.58	-0.2549	-0.0112	0.2437	1056.5137	0.134813	-421.805804	-421.797711	-421.796767	-421.838673	30.581	
C	 0.0017900242	 1.5712514276	 0.1864675361	-0.383236
C	-0.0034260106	 0.0567473466	-0.0591461524	-0.31291
C	-1.3879034657	-0.5264771991	-0.0967368828	 0.263288
O	-2.185392782	-0.3752959223	 1.1251278261	-0.301551
C	-3.0862432519	-1.3809953547	 0.5902668722	-0.103949
C	-3.5311038129	-0.7813583793	-0.7223473752	-0.087717
C	-2.4011119601	-0.2100288967	-1.1794248649	-0.130052
C	-1.7430864436	-2.0783555112	 0.0892639691	 0.395372
O	-1.2214303338	-3.1368207177	 0.0438692611	-0.301169
H	 1.0262904246	 1.9512086336	 0.2318339119	 0.117283
H	-0.5225689538	 2.1063141588	-0.6116653503	 0.119208
H	-0.4955164752	 1.8098321527	 1.1302799702	 0.141543
H	 0.4870847812	-0.179472245	-1.0111052355	 0.114227
H	 0.569780363	-0.4536561981	 0.722173212	 0.121108
H	-3.7860495088	-1.8037162667	 1.3059419141	 0.104266
H	-4.4948761415	-0.8985128471	-1.1951715539	 0.123655
H	-2.1975938632	 0.2667996387	-2.1273400179	 0.120634
74.9846	129.5089	159.9331	208.9825	270.8706	334.023	424.0926	525.2924	564.9879	633.8932	670.8712	749.1285	766.8751	794.3132	809.6188	879.1313	890.1939	907.7179	942.5656	948.9192	981.1202	999.233	1076.5827	1096.4801	1126.5881	1163.9354	1258.5038	1284.5214	1305.6017	1348.1338	1391.8414	1413.685	1477.8061	1497.9929	1507.418	1577.6834	1925.5906	3040.0364	3043.3196	3077.1546	3112.2184	3125.1633	3170.3882	3232.2447	3256.9589
CCC12OC(C=C1)C2=O	CC[C@@]12O[C@@H](C=C1)C2=O	
InChI=1S/C7H8O2/c1-2-7-4-3-5(9-7)6(7)8/h3-5H,2H2,1H3	InChI=1S/C7H8O2/c1-2-7-4-3-5(9-7)6(7)8/h3-5H,2H2,1H3/t5-,7+/m0/s1
