18
gdb 82747	2.28887	2.20772	1.56114	1.6523	70.21	-0.2271	0.054	0.2811	912.3762	0.148795	-439.029008	-439.021644	-439.020699	-439.060289	29.959	
C	 0.0031623082	 1.4755836798	 0.012192644	-0.520601
C	 0.0022797448	-0.020184144	 0.0787725985	 0.386469
O	 0.7854830832	-0.7067445443	-0.9526014647	-0.330867
C	 0.8236407171	-1.8003919173	-0.0340672353	 0.119553
C	-0.660085753	-2.1467510933	 0.4390720669	-0.128042
N	-0.2256633173	-1.8501574479	 1.8310185045	-0.309822
C	 0.7193092633	-0.9132889339	 1.2094819991	-0.103009
C	-1.3156076407	-0.8174424643	-0.0345217586	 0.105808
O	-2.3046895324	-0.3032023042	 0.8382676453	-0.443334
H	 1.009354519	 1.8767880471	 0.1629729545	 0.125145
H	-0.3611238213	 1.8183903651	-0.9622379098	 0.129422
H	-0.6594606158	 1.8774523121	 0.7841532761	 0.139265
H	 1.5479337772	-2.5841530687	-0.2426242404	 0.094191
H	-1.164501032	-3.0947040312	 0.250995498	 0.067393
H	-0.9640396608	-1.3981491883	 2.3704826972	 0.218275
H	 1.5426918166	-0.4894127038	 1.7833595627	 0.080783
H	-1.6568838976	-0.8395406811	-1.0755418869	 0.079608
H	-3.1087666786	-0.820554782	 0.7278184588	 0.289764
182.8023	213.1523	226.7221	285.2803	299.3908	364.476	509.3337	520.8109	561.3966	654.1545	723.6322	749.0225	803.6245	838.7727	856.5584	868.9011	891.8461	948.9945	982.6223	1008.9285	1031.7756	1076.6689	1082.1313	1107.6877	1130.5143	1156.1995	1179.7243	1202.8835	1221.4423	1248.5082	1277.1599	1288.6099	1312.6847	1354.749	1358.4634	1410.8157	1426.3047	1478.9953	1490.9627	3038.6264	3046.7132	3106.9865	3114.706	3122.1903	3124.4819	3154.6612	3460.0112	3818.2022
CC12OC3C(NC13)C2O	C[C@@]12O[C@@H]3[C@@H](N[C@H]13)[C@H]2O	
InChI=1S/C6H9NO2/c1-6-4-3(9-6)2(7-4)5(6)8/h2-5,7-8H,1H3	InChI=1S/C6H9NO2/c1-6-4-3(9-6)2(7-4)5(6)8/h2-5,7-8H,1H3/t2-,3-,4+,5-,6-/m1/s1
