18
gdb 117508	2.35191	0.99146	0.73442	1.4201	73.13	-0.27	-0.0396	0.2304	1513.8516	0.144367	-439.113181	-439.102611	-439.101667	-439.150408	35.873	
C	 0.1027309463	 1.33839011	 0.5494386123	-0.486054
C	 0.0748518033	-0.0062907823	-0.1391558934	 0.38738
O	 1.0105474772	-0.4571078523	-0.7470405585	-0.27379
C	-1.2657758811	-0.8025171019	-0.0771343193	-0.270175
C	-1.1045814223	-2.2565994751	-0.5575859087	-0.203504
C	-2.4397161662	-2.9823583097	-0.743187429	-0.080827
O	-2.2654482969	-4.2869649443	-1.26484502	-0.411804
C	-1.8696302163	-0.7213055581	 1.2533535717	 0.27863
N	-2.327579866	-0.6670235115	 2.3137753691	-0.330202
H	 1.0228083895	 1.861825358	 0.289275842	 0.151795
H	-0.7684540692	 1.9399303141	 0.2687230622	 0.146846
H	 0.0508705988	 1.1999989224	 1.6345949938	 0.17514
H	-1.94190417	-0.2693090098	-0.764520372	 0.150259
H	-0.5583175726	-2.2398806093	-1.5029534769	 0.140338
H	-0.4785991785	-2.800321479	 0.1595998734	 0.113967
H	-3.0046639991	-2.995939314	 0.2009973954	 0.112311
H	-3.0540443904	-2.4485013736	-1.4780110211	 0.113188
H	-1.8497107165	-4.8269507735	-0.585138841	 0.286503
30.2862	72.6275	88.7887	122.4024	130.3074	155.005	241.0092	292.9588	307.0529	327.4231	438.6481	462.4412	526.3274	585.401	625.6633	770.9385	793.0792	902.2434	953.2229	1004.126	1053.5841	1078.4407	1091.6883	1100.8004	1156.2095	1193.8819	1239.8492	1297.1347	1308.445	1340.9305	1388.3901	1404.0519	1425.4957	1458.8019	1472.2596	1484.8249	1512.8765	1830.7691	2349.9951	2994.5707	2995.9842	3044.7682	3046.2126	3062.7098	3106.9782	3121.9411	3160.0095	3818.2405
CC(=O)C(CCO)C#N	CC(=O)[C@@H](CCO)C#N	
InChI=1S/C6H9NO2/c1-5(9)6(4-7)2-3-8/h6,8H,2-3H2,1H3	InChI=1S/C6H9NO2/c1-5(9)6(4-7)2-3-8/h6,8H,2-3H2,1H3/t6-/m0/s1
