19
gdb 78900	2.9881	2.06236	1.66132	1.195	77.25	-0.1819	0.0751	0.257	883.4194	0.162234	-381.986902	-381.980388	-381.979444	-382.017355	27.711	
C	-0.1005044797	 1.4931913545	-0.0208451783	-0.331292
N	 0.0765783028	 0.0533145649	 0.0190521735	-0.051959
C	 0.7724953744	-0.5505012866	-1.0944817824	-0.00347
C	 1.0820320032	-1.9782607095	-0.795864315	-0.130399
C	 2.2372183916	-0.9936709284	-0.9456433892	-0.060871
N	 2.652137009	-1.1510829919	 0.475399929	-0.140245
C	 2.2036000728	-0.0126259024	 1.3455675785	-0.184909
C	 0.7287997743	-0.4862064058	 1.2109764237	-0.047875
C	 1.3320288562	-1.8571198312	 0.7123516994	-0.007823
H	 0.8373076424	 2.0755261176	-0.0146667896	 0.098621
H	-0.6547384856	 1.7640205622	-0.9252745627	 0.119936
H	-0.6976028095	 1.8077459935	 0.8415128108	 0.119698
H	 0.438501262	-0.2617455777	-2.0852949592	 0.093056
H	 0.7814417381	-2.8456540423	-1.3660860761	 0.093858
H	 2.9781801429	-0.8876591406	-1.7319049307	 0.086512
H	 2.6149614841	-0.1448675474	 2.3515339346	 0.101952
H	 2.458629819	 0.9869603469	 0.983487121	 0.10212
H	 0.0740190507	-0.4353925303	 2.086354395	 0.067432
H	 1.3311376213	-2.7211286655	 1.3755178478	 0.075658
172.6885	236.237	294.5762	373.0439	457.7102	553.3243	589.6065	686.9225	696.9087	758.0503	789.4435	803.0426	835.6233	897.2436	908.7713	917.3155	947.2833	958.6615	997.3322	1017.0822	1040.4434	1047.9248	1077.9844	1096.1972	1113.2074	1151.1821	1169.423	1180.9002	1198.6394	1221.7389	1234.8425	1254.1121	1281.8264	1287.3933	1300.073	1341.3876	1407.9774	1459.9483	1480.8753	1498.9271	1510.4564	2953.312	3041.9667	3055.3383	3057.6633	3098.5286	3099.262	3119.8974	3151.6934	3175.6704	3212.9377
CN1C2C3C2N2CC1C32	CN1[C@@H]2[C@H]3[C@@H]2N2C[C@@H]1[C@@H]32	
InChI=1S/C7H10N2/c1-8-3-2-9-5(3)4-6(8)7(4)9/h3-7H,2H2,1H3	InChI=1S/C7H10N2/c1-8-3-2-9-5(3)4-6(8)7(4)9/h3-7H,2H2,1H3/t3-,4+,5+,6-,7+/m1/s1
