18
gdb 76394	2.65175	1.25845	1.13625	11.817	69.72	-0.1829	0.0164	0.1993	1145.2231	0.148076	-472.362553	-472.353727	-472.352783	-472.395943	33.465	
N	-0.0597735749	 1.5100845877	 0.0519109738	-0.552957
C	-0.0570178538	 0.0692021769	-0.0934536918	-0.073338
C	-0.3172050427	-0.7125450468	 1.1737557767	-0.109812
N	-0.8833754318	 0.1261112607	 2.2471176052	-0.415217
H	-0.4922251991	 1.0743143879	 2.1918310368	 0.292114
H	-1.9292427695	 0.1980256211	 1.8721816769	 0.315949
H	-0.7935118038	-0.2759791103	 3.1749621427	 0.30021
C	-1.3268507366	-0.7246183563	 0.0242189197	 0.155873
N	-2.5744900264	-0.1017830833	 0.4115978756	-0.582656
C	-1.4803978825	-2.0779619481	-0.7445056566	 0.346911
O	-2.674934059	-2.418898906	-0.8595303982	-0.486241
O	-0.4068636897	-2.60548587	-1.0643352202	-0.475311
H	 0.8892687668	 1.8649964476	-0.018499625	 0.249561
H	-0.5816149183	 1.9480153795	-0.7015955911	 0.25075
H	 0.6538542966	-0.4079544225	-0.7646357144	 0.135428
H	 0.2409944207	-1.5877165559	 1.4737469605	 0.145911
H	-2.7874516587	 0.7262156464	-0.1373784301	 0.237972
H	-3.2464235473	-0.8437026586	 0.1434712094	 0.264854
91.5192	133.1128	153.8293	219.3906	238.3306	311.8818	352.0505	392.9163	414.4833	501.6438	528.4835	602.7823	636.469	702.3897	727.3636	779.1579	830.4845	866.0657	912.9527	956.8892	1005.8928	1037.5192	1047.3145	1091.8984	1126.9924	1180.2611	1194.0742	1217.312	1268.6508	1281.9818	1313.717	1336.0767	1362.841	1447.4651	1539.9695	1630.6995	1660.8512	1702.0356	1794.4978	2268.6333	3142.4077	3226.8164	3240.9151	3371.0024	3495.1479	3526.3278	3562.7472	3571.4062
NC1C([NH3+])C1(N)C([O-])=O	N[C@H]1[C@@H]([NH3])[C@]1(N)C(=O)[O]	
InChI=1S/C4H9N3O2/c5-1-2(6)4(1,7)3(8)9/h1-2H,5-7H2,(H,8,9)	InChI=1S/C4H9N3O2/c5-1-2(6)4(1,7)3(8)9/h1-2H,5,7H2,6H3/t1-,2+,4-/m0/s1
