18
gdb 98848	2.69653	1.28307	0.94952	5.8205	69.65	-0.2308	0.0306	0.2614	1246.3323	0.146403	-476.217739	-476.208003	-476.207059	-476.253755	33.645	
C	-0.0322061819	 1.4677904236	-0.0533444442	-0.327575
N	-0.0732628135	 0.0266010279	 0.1143628404	-0.31248
C	 0.6980757289	-0.5953540471	 1.0500564664	 0.376411
O	 1.5224815713	-0.0366153673	 1.7450962589	-0.367134
C	 0.5569816492	-2.1293799822	 1.0793775181	-0.01709
O	 0.8598911216	-2.6763909889	 2.374703274	-0.255964
C	-0.50948878	-3.0729643663	 2.5885003349	-0.096048
C	-0.8426737475	-2.7983967321	 1.1081788849	 0.043281
O	-1.9381730356	-1.9647602319	 0.7972149349	-0.422951
H	 0.9469798169	 1.8182802466	 0.2742995021	 0.164063
H	-0.1803762083	 1.728352511	-1.1053263731	 0.120019
H	-0.7969656835	 1.9780172225	 0.5462139465	 0.125033
H	-0.8978627447	-0.470083172	-0.1905429521	 0.254319
H	 1.2371685793	-2.5245725832	 0.3134450966	 0.110712
H	-0.5913346786	-4.1044465719	 2.9474385377	 0.105089
H	-1.0369751669	-2.3947699251	 3.2725810955	 0.111727
H	-0.8625263443	-3.7119073696	 0.5036386454	 0.091015
H	-2.7159495523	-2.5119014941	 0.6542467728	 0.297572
41.1453	64.7271	74.1642	132.4606	182.2803	218.6845	279.4967	317.6079	364.9864	412.0014	527.4575	569.4793	624.4702	698.0327	802.3889	859.0781	912.9706	983.0762	1003.6486	1033.4435	1077.2512	1103.0831	1148.6553	1154.1213	1167.634	1181.9958	1197.6525	1260.6151	1271.5446	1306.8455	1338.6379	1344.4415	1437.9483	1444.0968	1490.7569	1503.6522	1516.0293	1574.6745	1794.9929	3012.3679	3020.8701	3021.3229	3041.656	3076.8639	3086.5481	3153.4807	3601.5998	3832.4796
CNC(=O)C1OCC1O	CNC(=O)[C@H]1OC[C@H]1O	
InChI=1S/C5H9NO3/c1-6-5(8)4-3(7)2-9-4/h3-4,7H,2H2,1H3,(H,6,8)	InChI=1S/C5H9NO3/c1-6-5(8)4-3(7)2-9-4/h3-4,7H,2H2,1H3,(H,6,8)/t3-,4+/m1/s1
