19
gdb 47761	1.95909	1.64703	1.22265	2.8336	80.83	-0.2365	-0.0198	0.2166	1119.6786	0.159692	-385.896943	-385.888404	-385.887459	-385.930129	32.815	
O	 0.0345638699	-0.0353934974	-0.0684572946	-0.30842
C	-0.0133148419	 1.1668274128	 0.0053921342	 0.398761
C	-1.3057639575	 1.9621780395	 0.0378374551	-0.295352
C	-1.3323493737	 3.0157605413	-1.0918808094	-0.203257
C	-0.0824201605	 3.9053438981	-1.0655107764	-0.192853
C	 1.1989968197	 3.0668017826	-1.1374133941	-0.221182
C	 1.2751384318	 2.0259919041	 0.0157791293	-0.237062
C	 1.4460236364	 2.6610536559	 1.3184340966	 0.328529
C	 1.5720030441	 3.1826843073	 2.3949804841	-0.489445
H	-2.144562198	 1.2660752422	-0.0314935647	 0.118268
H	-1.3601017659	 2.4746812658	 1.0066316274	 0.132257
H	-1.394399654	 2.5007975641	-2.0593662923	 0.107905
H	-2.2392380737	 3.6225443692	-1.0020315086	 0.104412
H	-0.1072590282	 4.6124858813	-1.9014184147	 0.100004
H	-0.0716874358	 4.5018685107	-0.1452230466	 0.114088
H	 1.2296165514	 2.517367317	-2.0866950371	 0.108017
H	 2.088251041	 3.7033520875	-1.1034833818	 0.113167
H	 2.1054885802	 1.334512306	-0.1599805596	 0.120175
H	 1.6964058048	 3.6346070421	 3.3479343431	 0.201988
81.6176	123.531	135.0804	215.1453	306.4484	354.4388	395.5804	451.8447	462.8036	531.0971	596.0955	629.5862	635.1756	695.7761	741.3827	814.3107	839.6546	881.7747	931.0631	949.2284	1001.5359	1027.252	1072.7022	1088.5096	1123.2641	1153.401	1222.2928	1249.2618	1266.5717	1301.1872	1317.0709	1339.8587	1363.593	1378.7646	1384.7682	1465.0974	1483.841	1486.5406	1501.6724	1826.6404	2227.3596	3024.3736	3029.8007	3034.8129	3038.2168	3060.5387	3073.8847	3079.6022	3086.8802	3112.7843	3502.7538
O=C1CCCCC1C#C	O=C1CCCC[C@H]1C#C	
InChI=1S/C8H10O/c1-2-7-5-3-4-6-8(7)9/h1,7H,3-6H2	InChI=1S/C8H10O/c1-2-7-5-3-4-6-8(7)9/h1,7H,3-6H2/t7-/m1/s1
