18
gdb 107590	2.68461	1.6087	1.16035	3.4073	71.71	-0.2271	0.0094	0.2365	1080.0647	0.14893	-439.105296	-439.097067	-439.096123	-439.138076	30.988	
C	 0.2720575331	 1.3955028138	-0.2541427424	-0.336766
N	-0.1487552249	 0.0348988336	 0.1064703255	-0.366156
C	 0.5298519908	-0.5099771591	 1.2342969527	 0.210072
C	 1.9458161263	-1.0249459029	 1.0567098196	-0.306361
C	 0.8492313093	-1.984529094	 1.4000431291	-0.136676
C	 0.6748330023	-2.284046021	 2.8759798704	-0.101515
O	 0.4742877256	-1.0169166082	 3.5322745054	-0.230038
C	 0.2336345626	-0.0208881498	 2.6295015836	 0.388633
O	-0.1857600872	 1.0528902255	 2.9601264466	-0.348241
H	 1.326889445	 1.3778700837	-0.546116108	 0.121569
H	-0.308622893	 1.7228787983	-1.1211108103	 0.116941
H	 0.1473540217	 2.1240435518	 0.5564793072	 0.138813
H	-1.1497231695	 0.0259366247	 0.273292581	 0.226204
H	 2.2922243608	-1.0334171474	 0.0297655214	 0.133149
H	 2.6975281166	-0.7811530894	 1.8008043866	 0.129826
H	 0.5178490149	-2.7070114099	 0.6657546802	 0.113535
H	-0.2046762421	-2.9099560334	 3.0638297323	 0.122154
H	 1.5481639276	-2.7605948262	 3.331979559	 0.12486
104.735	138.3361	179.929	201.2945	247.2128	296.9614	360.6665	430.977	500.4613	600.7605	688.7711	712.1429	766.758	783.1754	863.5242	869.5855	943.4174	953.8378	1012.2883	1032.2355	1059.0882	1063.5475	1100.5228	1113.4853	1128.1475	1159.9222	1199.1661	1230.4257	1277.4447	1301.9787	1384.5564	1408.8047	1455.3955	1482.8911	1488.3203	1490.2455	1519.9168	1528.0929	1863.5918	3020.8978	3040.1546	3084.6241	3087.6073	3111.5059	3132.5488	3203.2769	3228.5342	3520.9549
CNC12CC1COC2=O	CN[C@]12C[C@H]1COC2=O	
InChI=1S/C6H9NO2/c1-7-6-2-4(6)3-9-5(6)8/h4,7H,2-3H2,1H3	InChI=1S/C6H9NO2/c1-7-6-2-4(6)3-9-5(6)8/h4,7H,2-3H2,1H3/t4-,6+/m0/s1
