20
gdb 32575	1.93587	1.85195	1.02929	0.4213	83.11	-0.1688	0.06	0.2287	1196.7621	0.171984	-399.3577	-399.347795	-399.346851	-399.392766	36.311	
C	 0.0613044495	 1.6568360887	-0.0497869428	-0.373713
C	-0.0046399923	 0.1269300189	-0.0366168331	-0.141768
N	 0.6606064726	-0.4825463165	-1.1765379323	-0.031725
C	 0.0415260611	-0.8669221553	-2.3521871164	 0.246207
N	-1.3646577004	-0.7764880744	-2.462322781	-0.610119
C	 1.0033187423	-1.3663223994	-3.2003714599	-0.218593
C	 2.2512530512	-1.297214188	-2.5170396756	-0.211143
C	 2.0155970395	-0.7389783513	-1.2820632838	 0.236406
N	 2.8777153853	-0.3626758651	-0.2239867865	-0.612898
H	 1.1007700792	 1.9920677533	-0.016339114	 0.139774
H	-0.4045934702	 2.063280931	-0.9531748068	 0.111497
H	-0.465309109	 2.0667913347	 0.8183780267	 0.110557
H	 0.4598285535	-0.252810468	 0.8770504127	 0.108228
H	-1.0421660143	-0.2161138555	-0.0574119515	 0.129706
H	-1.7076235333	-1.4433492927	-3.1428809067	 0.243437
H	-1.6762178783	 0.145421818	-2.7556869956	 0.23984
H	 0.826450566	-1.7450340886	-4.1959991046	 0.076235
H	 3.2141398066	-1.6155864728	-2.8880027352	 0.076641
H	 3.8058330834	-0.1678457127	-0.5798908631	 0.242435
H	 2.9728744376	-1.0946904445	 0.4753296996	 0.238997
49.0148	96.1965	113.1427	167.3286	194.0745	219.0151	291.7791	316.9963	332.2436	405.3908	520.4943	594.9729	631.8444	657.5519	720.8416	728.1602	736.5828	772.8541	786.7903	821.9581	842.1829	969.204	1000.855	1040.0245	1101.5548	1149.0654	1160.4742	1198.3393	1238.6565	1261.7013	1318.4681	1333.3148	1392.6477	1405.759	1439.2878	1465.5759	1488.6581	1494.3894	1506.5105	1553.4627	1606.8064	1655.1961	1658.1259	3037.4378	3063.935	3101.4051	3111.2792	3132.3412	3230.5604	3246.1769	3477.5331	3482.4654	3582.9878	3588.6281
CCN1C(N)=CC=C1N	CCn1c(N)ccc1N	
InChI=1S/C6H11N3/c1-2-9-5(7)3-4-6(9)8/h3-4H,2,7-8H2,1H3	InChI=1S/C6H11N3/c1-2-9-5(7)3-4-6(9)8/h3-4H,2,7-8H2,1H3
