19
gdb 43929	3.30351	1.54188	1.3274	2.8854	79.78	-0.2387	-0.0125	0.2261	1005.5615	0.161454	-385.863282	-385.856432	-385.855488	-385.894326	28.756	
O	-0.0212178608	-0.0224459721	-0.3317370262	-0.289704
C	-0.0545039973	 1.1461159914	-0.0937560837	 0.347493
C	-1.2170142614	 2.1620960158	 0.2194176462	-0.464713
C	-0.1427810559	 2.9163345509	 1.0239850663	 0.329745
C	 0.4891184101	 4.2808848586	 1.3886165528	-0.324427
C	 1.4825654257	 3.3377965728	 2.1808317739	-0.012993
C	 0.2394804642	 2.4524520944	 2.4553786481	-0.253574
C	 2.2081686765	 2.4693538158	 1.105060394	-0.276771
C	 0.9795542224	 2.2635383504	 0.1855315095	-0.084693
H	-1.5319854558	 2.6693560203	-0.6984165642	 0.127009
H	-2.0940054291	 1.7756436942	 0.7421044388	 0.123669
H	 0.8819579042	 4.8910979833	 0.5700980511	 0.093468
H	-0.0976925218	 4.8960900159	 2.0750064718	 0.102252
H	 2.0904926555	 3.7334008748	 2.9952598384	 0.06772
H	-0.4313686553	 2.8667743609	 3.2121926923	 0.097839
H	 0.3990335654	 1.3842200315	 2.6350507031	 0.102782
H	 3.0234253003	 2.9905619972	 0.5965032721	 0.100611
H	 2.6119623109	 1.5518624599	 1.5418448155	 0.116372
H	 1.0923540122	 2.798314964	-0.7673297699	 0.097916
108.708	238.7328	309.8999	382.3203	432.7268	473.3822	548.7338	583.5218	611.9827	710.5347	739.0931	804.4206	827.4579	854.908	864.9636	910.8556	938.238	962.1594	989.7126	994.0112	1011.2733	1063.3646	1082.175	1091.5475	1096.3165	1137.5805	1157.6614	1184.7444	1188.7405	1210.2245	1223.6937	1267.0117	1275.749	1288.6476	1308.3994	1339.9392	1453.195	1486.592	1496.2429	1524.5359	1893.2067	3015.9666	3045.4243	3053.633	3059.0006	3061.6017	3105.1514	3108.3668	3111.6972	3117.4702	3124.5466
O=C1CC23CC(C2)CC13	O=C1C[C@@]23C[C@@H](C2)C[C@@H]13	
InChI=1S/C8H10O/c9-7-4-8-2-5(3-8)1-6(7)8/h5-6H,1-4H2	InChI=1S/C8H10O/c9-7-4-8-2-5(3-8)1-6(7)8/h5-6H,1-4H2/t5-,6-,8+/m0/s1
