20
gdb 95978	2.30341	1.5419	1.09516	5.2246	74.16	-0.2394	0.0224	0.2618	1155.1475	0.173001	-440.334906	-440.326312	-440.325368	-440.368705	32.578	
C	-0.4744910629	 1.4519950333	-0.0684500477	-0.408778
C	 0.0037178816	 0.0016558239	-0.0583926695	 0.026222
C	 1.0646121336	-0.3362325825	-1.1220739303	-0.206953
C	 1.6373053556	-1.6612573656	-0.6240672254	-0.169503
N	 1.7273168987	-1.4449110028	 0.8319560773	-0.328494
H	 1.7237691611	-2.3101747424	 1.3572115735	 0.235665
H	 2.8407790093	-0.1653966085	 1.5836437255	 0.297694
C	 0.6594720444	-0.5144099865	 1.2659924676	-0.144687
C	 1.2646906576	 0.6035292805	 2.1398787161	 0.421627
O	 2.6021058038	 0.6246696372	 2.1269399353	-0.368758
O	 0.5931990503	 1.379967517	 2.7678997262	-0.349355
H	 0.3610824853	 2.1511014143	 0.0336279522	 0.131136
H	-0.9832198703	 1.6692091618	-1.0132086374	 0.106768
H	-1.1648454385	 1.6512151435	 0.7539203817	 0.141914
H	-0.862603325	-0.6465399045	-0.2411104228	 0.081977
H	 0.6453971785	-0.4061699581	-2.1284775263	 0.107411
H	 1.8459791976	 0.4330657817	-1.1336168135	 0.113079
H	 0.9586044662	-2.488931122	-0.8802187144	 0.097215
H	 2.6230349591	-1.8961537045	-1.0369559655	 0.111416
H	-0.0987630259	-1.0003876258	 1.8882997676	 0.104405
42.7369	105.399	195.2346	222.3344	253.6423	322.5131	336.2568	413.2645	483.8831	554.4821	602.9806	609.6534	731.7977	791.2773	852.152	877.7076	908.186	934.9664	942.7354	948.0655	984.4933	1018.7089	1082.2751	1106.6147	1141.8258	1164.1489	1188.6666	1223.7443	1231.1211	1266.1554	1305.6603	1318.5423	1352.0946	1364.9051	1385.5992	1419.4967	1429.1438	1450.8534	1487.7157	1490.6288	1500.2871	1525.634	1861.2093	2987.267	3016.7658	3041.0604	3044.3567	3056.6512	3075.6227	3106.3801	3111.1725	3131.2878	3378.9082	3560.2127
CC1CC[NH2+]C1C([O-])=O	C[C@H]1CCN[C@H]1C(=O)O	
InChI=1S/C6H11NO2/c1-4-2-3-7-5(4)6(8)9/h4-5,7H,2-3H2,1H3,(H,8,9)	InChI=1S/C6H11NO2/c1-4-2-3-7-5(4)6(8)9/h4-5,7H,2-3H2,1H3,(H,8,9)/t4-,5+/m0/s1
