18
gdb 96403	2.06684	1.76824	1.23236	3.6353	71.95	-0.259	0.0153	0.2743	1072.4913	0.148217	-439.095708	-439.087313	-439.086368	-439.1286	31.461	
C	-0.0381523427	 1.5217598869	-0.0691115618	-0.425458
C	 0.0435648713	 0.0064642884	-0.0081617551	 0.116165
O	 0.6717658	-0.452831857	-1.1920933052	-0.256582
C	 0.7383351809	-1.8713445541	-1.2422757645	-0.082209
C	 1.5015554946	-2.4075432733	-0.0399485417	-0.097037
O	 0.900467643	-1.9473447248	 1.1729841713	-0.254274
C	 0.8027039724	-0.5357047062	 1.2253583359	-0.046238
C	 2.1397334077	 0.0851802332	 1.367890748	 0.283245
N	 3.1826742275	 0.5674166504	 1.4890058543	-0.333269
H	 0.9605044905	 1.9614076661	-0.1323751667	 0.155161
H	-0.6047712	 1.8210928459	-0.9539634995	 0.135695
H	-0.5423548976	 1.9192313682	 0.8170692924	 0.122606
H	-0.9682324472	-0.4280468184	 0.061677688	 0.082285
H	-0.2775545933	-2.2973504989	-1.2602759561	 0.09957
H	 1.245763433	-2.131510697	-2.175479564	 0.119038
H	 1.4657638067	-3.4990496763	 0.0020233395	 0.120416
H	 2.551776602	-2.0865082484	-0.0841936277	 0.125708
H	 0.2294964811	-0.3082933647	 2.130419513	 0.135178
99.6527	143.3967	181.7382	211.7424	282.9191	299.768	354.7409	399.6891	438.588	465.2987	587.232	630.7858	687.8187	818.8233	870.0962	879.4963	929.4066	958.2463	1002.2383	1058.2181	1112.0402	1123.8426	1135.656	1155.926	1175.8607	1272.7209	1300.0402	1304.0417	1331.9585	1369.3379	1380.0602	1403.4351	1416.2465	1419.0004	1482.3474	1486.9496	1493.1896	1500.8915	2354.2841	2963.8144	2984.1597	3017.7099	3049.6499	3065.5646	3095.7617	3106.3582	3124.1547	3134.9788
CC1OCCOC1C#N	C[C@H]1OCCO[C@H]1C#N	
InChI=1S/C6H9NO2/c1-5-6(4-7)9-3-2-8-5/h5-6H,2-3H2,1H3	InChI=1S/C6H9NO2/c1-5-6(4-7)9-3-2-8-5/h5-6H,2-3H2,1H3/t5-,6+/m1/s1
