21
gdb 96558	2.26186	1.61253	1.15873	2.6542	74.8	-0.2461	0.0692	0.3153	1140.2635	0.183114	-461.354969	-461.346116	-461.345172	-461.38803	34.28	
C	 0.0728760845	 1.5495635917	-0.0378514543	-0.397145
C	 0.0112372163	 0.0288094969	 0.0337582496	 0.087667
O	 0.7123352798	-0.4737934717	-1.1078961569	-0.268593
C	 0.2672485743	-1.6995898483	-1.6598748375	-0.07135
C	-0.0900511519	-2.7850907451	-0.6325086276	-0.099684
O	 0.8195751813	-2.8470860741	 0.4451363744	-0.242176
C	 0.465308259	-2.0145455961	 1.5387665349	-0.113214
C	 0.7141458108	-0.5210143785	 1.2986063531	 0.131176
O	 2.1006198995	-0.2449329317	 1.2230231205	-0.436506
H	 1.1118445117	 1.880974993	 0.0275275676	 0.139849
H	-0.3536368966	 1.9024011056	-0.9801515659	 0.116784
H	-0.4864957735	 1.996507452	 0.7898004924	 0.112152
H	-1.0390102124	-0.2962100496	 0.0126546292	 0.066486
H	-0.6063138538	-1.541764009	-2.3146263038	 0.090276
H	 1.0961870883	-2.0412914852	-2.2877676114	 0.115583
H	-1.1130000215	-2.6399034936	-0.2534994551	 0.094223
H	-0.0708582944	-3.7564942607	-1.1413346303	 0.109157
H	-0.5907186523	-2.1792181779	 1.8135256262	 0.081031
H	 1.0934537357	-2.3351381807	 2.3746731813	 0.117194
H	 0.3368283912	 0.0174298772	 2.178218088	 0.078845
H	 2.3714112942	-0.5578092042	 0.3494433356	 0.288244
113.2518	154.6065	194.4034	221.9814	278.8424	294.1842	310.2166	331.7754	413.2437	424.9262	472.8679	601.9956	619.2991	750.4992	782.2961	837.9835	862.2398	888.8527	939.8083	973.1873	1020.608	1056.7992	1072.3849	1114.2548	1134.5664	1148.2481	1181.0283	1193.7201	1256.8654	1282.5713	1290.8362	1307.7703	1340.4975	1361.0176	1376.2612	1396.7057	1407.6288	1411.2004	1419.3391	1438.3605	1475.2654	1485.2987	1494.6663	1499.0457	1504.7411	2959.7631	2966.8522	2986.5963	3003.734	3030.179	3047.9973	3051.7413	3079.3014	3093.2375	3119.4914	3136.6322	3765.9515
CC1OCCOCC1O	C[C@H]1OCCOC[C@H]1O	
InChI=1S/C6H12O3/c1-5-6(7)4-8-2-3-9-5/h5-7H,2-4H2,1H3	InChI=1S/C6H12O3/c1-5-6(7)4-8-2-3-9-5/h5-7H,2-4H2,1H3/t5-,6-/m1/s1
