21
gdb 59653	3.3117	1.0683	0.97302	2.8324	74.58	-0.2487	0.0823	0.331	1316.055	0.181408	-461.372911	-461.363209	-461.362265	-461.407858	35.654	
C	 0.5230276878	 0.4122930245	-0.747039082	-0.40525
C	 0.0431795529	-0.1556192389	 0.5867251633	 0.101487
O	-0.2007547494	 0.8596719789	 1.5495635821	-0.43841
C	-1.2301406249	-0.9955722973	 0.4531173071	 0.209503
O	-2.3113230575	-0.1610652013	 0.0222949798	-0.295733
C	-2.9639872342	-0.8088378517	-1.0636459999	-0.097028
C	-2.3880340963	-2.232264183	-1.0461937988	 0.124938
C	-2.2767946863	-2.9205166366	-2.39192259	-0.415956
O	-1.0859318958	-2.0092288149	-0.5043901755	-0.271418
H	 1.4053981622	 1.0358384789	-0.5837855063	 0.119841
H	 0.7761586993	-0.390507544	-1.4440358548	 0.124171
H	-0.2587033513	 1.0297993309	-1.2013272722	 0.115162
H	 0.8206469669	-0.7951552011	 1.020068303	 0.093687
H	-0.976801999	 1.343259688	 1.2402727289	 0.288177
H	-1.5002499697	-1.4148135364	 1.4373802107	 0.073952
H	-4.0472189703	-0.7834425028	-0.9067491465	 0.109779
H	-2.7280814205	-0.3003052293	-2.0089877838	 0.098323
H	-2.9698574869	-2.8543153269	-0.3464598175	 0.077733
H	-1.685518546	-2.3143288652	-3.0845550935	 0.129703
H	-1.7942148628	-3.8955041848	-2.2856263176	 0.134365
H	-3.2707323484	-3.0767559272	-2.8226780765	 0.122975
57.9169	73.3298	121.2275	207.3548	231.6438	238.7579	267.7855	298.1866	382.4357	423.4066	452.5915	488.4139	614.3743	634.638	741.8348	828.2211	874.4826	912.7216	920.992	957.5003	986.1476	1049.83	1065.3803	1109.0135	1120.6467	1127.7521	1155.8649	1165.4844	1189.2372	1229.945	1285.6494	1328.4141	1354.9295	1361.4278	1377.6789	1385.7092	1407.6217	1411.6149	1419.6658	1440.4738	1485.6785	1489.336	1498.9431	1501.9924	1524.4856	2959.4304	2970.4135	3005.376	3044.1455	3044.5493	3053.5363	3073.7064	3117.5188	3117.7328	3125.0536	3132.0646	3784.8285
CC(O)C1OCC(C)O1	C[C@@H](O)[C@H]1OC[C@@H](C)O1	
InChI=1S/C6H12O3/c1-4-3-8-6(9-4)5(2)7/h4-7H,3H2,1-2H3	InChI=1S/C6H12O3/c1-4-3-8-6(9-4)5(2)7/h4-7H,3H2,1-2H3/t4-,5-,6+/m1/s1
