16
gdb 5247	6.56802	1.06047	0.98302	2.3247	66.96	-0.2177	0.0313	0.249	1165.3907	0.132451	-379.956679	-379.948927	-379.947983	-379.989978	27.782	
O	 0.0427421816	 1.4290677533	 0.2586627981	-0.414752
C	 0.0154232197	 0.0132305978	 0.2559622461	-0.056189
C	-1.3541337743	-0.5476725956	-0.1729952047	-0.321216
C	-1.3951121917	-2.0407962687	-0.1469176705	 0.33628
N	-0.9931853229	-2.8412863075	-1.1127825322	-0.297658
C	-1.1592352636	-4.1205417046	-0.6345233374	-0.086934
C	-1.6668492116	-4.0986481488	 0.6360195593	-0.113451
N	-1.8103023575	-2.7616830617	 0.9392619135	-0.273924
H	-0.0194205335	 1.7272650458	-0.654444495	 0.284799
H	 0.7968380222	-0.4144861711	-0.38795608	 0.112882
H	 0.2370209945	-0.2928858119	 1.2840696324	 0.108157
H	-2.1274823667	-0.1216185192	 0.4760858144	 0.105088
H	-1.5682345522	-0.2206266557	-1.1960507521	 0.122548
H	-0.9090326201	-4.9823472427	-1.2343164332	 0.105316
H	-1.9401017622	-4.8747794851	 1.3310618347	 0.125498
H	-2.1708385318	-2.3846588143	 1.7997062366	 0.263556
33.7307	98.5221	115.5184	304.8561	344.4525	349.7971	367.6571	537.2618	646.9652	708.3473	727.3512	776.7697	790.099	857.2679	929.6982	985.8336	1012.0044	1033.7758	1074.5005	1104.3519	1135.8868	1146.0312	1194.1493	1260.6958	1309.864	1318.2089	1390.5538	1399.0867	1413.5724	1464.0039	1477.4238	1507.7283	1511.2314	1589.1932	3008.9562	3041.4224	3067.777	3095.716	3248.5412	3281.4841	3663.098	3815.9707
OCCC1=NC=CN1	OCCc1ncc[nH]1	
InChI=1S/C5H8N2O/c8-4-1-5-6-2-3-7-5/h2-3,8H,1,4H2,(H,6,7)	InChI=1S/C5H8N2O/c8-4-1-5-6-2-3-7-5/h2-3,8H,1,4H2,(H,6,7)
