20
gdb 88064	2.55798	1.30136	1.12684	2.8926	80.17	-0.2286	-0.0175	0.2111	1190.3406	0.169317	-403.115041	-403.105858	-403.104914	-403.14966	33.648	
C	-0.1982133542	 1.3211930312	-0.21382696	-0.319754
N	 0.2915070893	-0.0487666573	-0.134946051	-0.127561
C	 1.7322340323	-0.2361242379	 0.0384677088	-0.318555
C	 0.7834606639	-0.5193043645	 1.1443558974	 0.370132
C	 0.7402537283	 0.1550606407	 2.5247513194	-0.305001
C	 0.6899235632	-1.2636923064	 3.1681835343	-0.231541
C	 0.4303962014	-1.8913018536	 1.7741495512	-0.195162
C	-1.0042964242	-2.2769743273	 1.5008934688	 0.15775
O	-1.905635421	-2.1840932675	 2.2967507906	-0.249069
H	 0.3603153804	 2.0306310545	 0.4175803926	 0.104182
H	-0.1331797275	 1.6628662022	-1.2513041888	 0.126381
H	-1.2500377459	 1.3477956851	 0.0877237678	 0.130252
H	 2.180508345	-1.0419582908	-0.5384125429	 0.114166
H	 2.3547468509	 0.6531563418	 0.1412742078	 0.107937
H	 1.5892461189	 0.7883083264	 2.7912489761	 0.105774
H	-0.1826993031	 0.7191304715	 2.6892799398	 0.118837
H	 1.644074894	-1.5723074992	 3.5983033588	 0.104913
H	-0.1111464077	-1.4311643468	 3.8883087075	 0.128415
H	 1.0801065132	-2.7156696968	 1.4597202829	 0.08917
H	-1.1893760574	-2.6413022551	 0.467568909	 0.088732
52.8049	62.982	152.967	201.76	210.4069	231.8248	274.512	408.8969	415.7191	455.8723	548.9578	667.4673	740.5036	779.9292	784.68	877.3264	898.8339	918.0107	950.2538	968.6858	1037.0242	1055.4616	1100.685	1106.9337	1112.6804	1136.3965	1158.4279	1185.4001	1202.6949	1226.3245	1238.3202	1254.152	1279.7172	1330.8074	1398.7104	1421.8785	1449.4368	1470.517	1487.2812	1493.3994	1495.8607	1510.7098	1819.1615	2902.4179	2975.7596	3048.8324	3056.9065	3071.6497	3078.7306	3084.699	3106.676	3108.5389	3146.8691	3166.0778
CN1CC11CCC1C=O	CN1C[C@]21CC[C@H]2C=O	
InChI=1S/C7H11NO/c1-8-5-7(8)3-2-6(7)4-9/h4,6H,2-3,5H2,1H3	InChI=1S/C7H11NO/c1-8-5-7(8)3-2-6(7)4-9/h4,6H,2-3,5H2,1H3/t6-,7+,8?/m0/s1
