21
gdb 75214	2.74439	1.47016	1.21184	1.7167	84.02	-0.2317	0.0267	0.2584	1139.0413	0.18241	-387.102002	-387.093356	-387.092412	-387.134856	33.654	
C	 0.3209212032	 1.5104167106	-0.0142450621	-0.496109
C	 0.0349523586	 0.0423139081	-0.0795062287	 0.325073
C	-0.0526387617	-0.7175514908	-1.1760181989	-0.165945
C	-0.3613029511	-2.1656138687	-0.8885916705	-0.309418
C	-0.3641069476	-2.2353215667	 0.6537338995	 0.439313
C	-1.4509390669	-3.101117812	 1.2596532152	-0.457687
O	 0.9497758762	-2.6035251048	 1.1699250634	-0.325331
C	 1.1146928317	-1.3304974909	 1.8225467172	-0.084388
C	-0.1732082554	-0.7779046858	 1.1681318473	-0.214633
H	 1.2218283161	 1.7164108592	 0.5780045501	 0.125365
H	 0.4667805071	 1.9379467275	-1.0099112241	 0.124376
H	-0.4999991642	 2.0528328587	 0.4725270024	 0.123678
H	 0.0780290931	-0.3430586991	-2.1867918699	 0.084564
H	-1.3215822061	-2.4759799827	-1.3232559029	 0.096174
H	 0.4005181858	-2.8507368189	-1.280164176	 0.118489
H	-1.3312133016	-4.1409369866	 0.9367566074	 0.125394
H	-1.4053690166	-3.0786463056	 2.3525777454	 0.116762
H	-2.4425405987	-2.7581999621	 0.9452110012	 0.114965
H	 1.0742104259	-1.42338622	 2.9164446575	 0.091917
H	 2.0532234577	-0.8390097534	 1.5390325558	 0.097393
H	-0.9171363854	-0.3643408361	 1.8558332507	 0.070047
93.425	174.7868	206.8481	234.7606	244.9388	251.6248	337.5933	347.0937	423.8481	541.138	553.3656	638.7192	717.3686	798.884	822.3156	870.2359	890.5633	930.6431	953.8401	968.6307	1003.9744	1022.3384	1034.3751	1044.9274	1086.2485	1104.3076	1143.7536	1166.1928	1182.452	1208.2724	1226.4847	1247.5276	1298.1908	1333.1981	1353.3593	1363.0293	1406.9175	1414.8662	1469.8862	1479.5884	1483.9838	1489.7667	1490.888	1521.027	1715.8028	3000.6139	3009.3283	3014.9933	3030.9983	3048.6714	3053.071	3059.4478	3062.7042	3101.3064	3108.389	3109.8417	3177.3932
CC1=CCC2(C)OCC12	CC1=CC[C@@]2(C)OC[C@@H]12	
InChI=1S/C8H12O/c1-6-3-4-8(2)7(6)5-9-8/h3,7H,4-5H2,1-2H3	InChI=1S/C8H12O/c1-6-3-4-8(2)7(6)5-9-8/h3,7H,4-5H2,1-2H3/t7-,8+/m0/s1
