21
gdb 76575	2.74613	1.21462	1.17474	0.8897	78.85	-0.2247	0.0709	0.2956	1205.5428	0.18239	-424.215847	-424.206658	-424.205714	-424.249842	34.681	
C	-0.0099480315	 1.542373934	-0.2767997887	-0.423139
C	-0.0008518828	 0.0517508657	-0.0216232875	-0.146975
C	 1.3029152314	-0.7447965406	-0.028708037	-0.008693
O	 2.5291354342	-0.0816688799	-0.1515870247	-0.41847
C	 0.5411518525	-0.5276828331	 1.2527223706	 0.423922
C	 1.1450124926	 0.264146916	 2.4144575137	-0.309578
C	 0.8572629622	-0.6425289958	 3.6371577433	-0.213943
C	 0.4975087681	-1.9849110815	 2.9849387953	-0.093018
O	-0.1652167939	-1.6300046221	 1.7765211346	-0.283977
H	 0.9232528547	 2.00677855	 0.0522462331	 0.127711
H	-0.130326208	 1.7561498642	-1.3449439282	 0.112137
H	-0.8358694341	 2.0313587714	 0.2507198005	 0.121711
H	-0.8526926526	-0.4937901477	-0.4202597351	 0.094082
H	 1.2686338851	-1.7493121617	-0.4495586993	 0.089506
H	 2.6164010757	 0.2283439601	-1.0593316425	 0.290295
H	 2.2141374486	 0.4176171051	 2.253148961	 0.128516
H	 0.6849387244	 1.2492564139	 2.5282168073	 0.105179
H	 1.7058029021	-0.7187226757	 4.3212618081	 0.101329
H	 0.0008801461	-0.2638449356	 4.2022772731	 0.107325
H	 1.4048710384	-2.5720552768	 2.7706133102	 0.091509
H	-0.1859175031	-2.6017338301	 3.5736670723	 0.104571
57.4641	148.6749	169.3675	185.7953	205.1645	236.9469	288.5836	320.7512	435.9659	512.6694	547.1637	582.3016	623.4249	764.4128	805.2892	855.1786	870.807	914.3671	927.2224	941.3433	1012.4679	1027.9051	1034.6337	1049.5894	1111.8344	1127.6265	1150.3348	1163.7189	1196.0736	1223.6587	1229.3006	1254.0108	1272.4878	1293.7697	1318.3777	1346.6289	1369.6941	1386.1017	1413.0649	1463.7915	1489.301	1498.3225	1503.2324	1509.9599	1520.2717	2977.2212	3030.7403	3057.6378	3068.087	3086.7111	3095.9027	3102.5059	3105.5868	3114.5165	3119.728	3144.3144	3797.7708
CC1C(O)C11CCCO1	C[C@H]1[C@@H](O)[C@]21CCCO2	
InChI=1S/C7H12O2/c1-5-6(8)7(5)3-2-4-9-7/h5-6,8H,2-4H2,1H3	InChI=1S/C7H12O2/c1-5-6(8)7(5)3-2-4-9-7/h5-6,8H,2-4H2,1H3/t5-,6+,7+/m0/s1
