15
gdb 132147	3.22062	1.30321	0.93306	5.4969	71.58	-0.2223	-0.0138	0.2085	1161.2901	0.112662	-461.976785	-461.968861	-461.967917	-462.009231	29.769	
C	-0.0261791169	 1.5078672888	 0.0126181558	-0.471974
C	-0.0042821478	 0.0095706931	-0.0229393717	 0.132667
C	-0.0392555983	-0.6938143653	-1.1761984521	-0.065239
N	-0.0180758479	-2.0740849403	-1.1867733696	-0.39578
C	 0.0391820265	-2.7597653704	-0.0153930388	 0.41816
F	 0.0529597248	-4.0763200468	-0.1825513021	-0.059906
C	 0.0776250913	-2.1537322353	 1.1876048228	-0.436489
C	 0.0584683471	-0.6957425295	 1.2771223671	 0.338556
O	 0.0913258639	-0.0851257718	 2.3413648633	-0.390753
H	 0.8628616427	 1.8894536075	 0.5252309653	 0.145286
H	-0.0725389566	 1.9405975411	-0.9904593504	 0.10584
H	-0.8834574	 1.8623087974	 0.5941899663	 0.145271
H	-0.0854037771	-0.231318338	-2.1545999067	 0.13315
H	-0.0447588765	-2.592611491	-2.049274359	 0.274703
H	 0.1228730849	-2.7419587095	 2.0938130898	 0.126507
121.0389	137.4293	188.1197	278.4337	322.9264	360.3974	402.0803	438.969	461.8926	514.1308	587.0079	660.0153	732.7621	760.7473	770.8382	856.6756	877.069	967.458	1029.7124	1064.2638	1145.3278	1192.277	1214.32	1271.5105	1351.1584	1395.4257	1413.8144	1463.9927	1485.714	1552.3563	1657.0854	1705.615	1722.5116	3037.797	3095.6853	3117.8842	3205.0189	3232.8234	3660.5432
CC1=CNC(F)=CC1=O	Cc1c[nH]c(F)cc1=O	
InChI=1S/C6H6FNO/c1-4-3-8-6(7)2-5(4)9/h2-3H,1H3,(H,8,9)	InChI=1S/C6H6FNO/c1-4-3-8-6(7)2-5(4)9/h2-3H,1H3,(H,8,9)
