21
gdb 35969	2.89827	1.15919	0.89203	4.8362	82.78	-0.2352	0.0326	0.2679	1324.8134	0.185643	-383.28683	-383.278077	-383.277133	-383.320471	33.353	
N	 0.1404816913	-1.2246577963	 0.1137311483	-0.32372
C	 0.0879740087	-0.0721990848	 0.0497550236	 0.283472
C	 0.0072934828	 1.4003894056	 0.0073900539	-0.127586
C	-0.838937902	 1.9018883122	 1.2106193792	-0.196538
C	-1.5016234971	 3.2856094336	 1.0351607948	-0.210104
C	-0.7613321806	 4.3253289051	 0.1706144459	-0.192183
C	 0.7646189671	 4.3922130007	 0.3398837493	-0.191646
C	 1.5176373611	 3.3200732131	-0.4715747985	-0.159736
N	 1.3695617082	 1.9243962652	-0.070833581	-0.276754
H	-0.4988824204	 1.6598439436	-0.9321268124	 0.128825
H	-1.6174418872	 1.1655882322	 1.4360236091	 0.122263
H	-0.170228776	 1.904583097	 2.0795798649	 0.105228
H	-2.5029388695	 3.1489345609	 0.6104180389	 0.106674
H	-1.66127164	 3.7006517125	 2.0371375048	 0.106727
H	-0.9774144605	 4.1412991197	-0.8903862552	 0.097012
H	-1.1981431962	 5.3062924591	 0.3884648412	 0.099196
H	 1.1177237175	 5.3714379927	-0.0078156598	 0.099169
H	 1.0432976527	 4.326817811	 1.400424957	 0.091047
H	 1.2072261077	 3.4005281539	-1.522951401	 0.108007
H	 2.5915171397	 3.5350494497	-0.4521549688	 0.107782
H	 1.8450080128	 1.7512634029	 0.8087685558	 0.222865
71.0075	111.903	161.2112	186.8127	304.4865	305.9473	328.7461	386.8544	503.5932	515.2664	543.7414	557.6233	717.2824	754.1852	774.3737	864.1123	875.0328	883.4874	970.8631	996.7733	1007.8624	1033.7054	1053.6255	1102.0252	1130.7982	1164.7369	1209.3886	1225.1145	1248.2656	1292.3216	1309.9121	1313.8513	1359.4419	1371.0954	1377.5573	1385.2731	1397.8945	1404.7823	1473.677	1479.8047	1481.7103	1494.1686	1503.558	1512.7068	2359.3	3009.3743	3011.0704	3014.8814	3024.9965	3030.1795	3038.1008	3052.3878	3056.8076	3066.9157	3071.5131	3083.0387	3522.5777
N#CC1CCCCCN1	N#C[C@H]1CCCCCN1	
InChI=1S/C7H12N2/c8-6-7-4-2-1-3-5-9-7/h7,9H,1-5H2	InChI=1S/C7H12N2/c8-6-7-4-2-1-3-5-9-7/h7,9H,1-5H2/t7-/m1/s1
