23
gdb 61843	3.79088	0.77546	0.67967	2.8689	87.15	-0.2462	-0.0182	0.228	1685.8265	0.20413	-388.297095	-388.286957	-388.286013	-388.333167	36.72	
C	-0.1295195928	 1.5621677881	 0.1305227626	-0.399352
C	 0.0308383339	 0.0423291509	-0.0174491097	-0.013302
C	 0.8087215276	-0.3179370246	-1.3028177624	-0.277954
C	 0.045800533	 0.0362326192	-2.5569756231	 0.159304
O	 0.4532675215	 0.7337799115	-3.4499226331	-0.242843
C	 0.701705332	-0.5697075319	 1.2108499166	 0.074255
C	-0.0357327342	-0.5139870351	 2.5809135416	-0.238959
C	 0.4850756623	-1.9455822393	 2.8764201806	-0.217908
C	 0.7629152704	-2.118144808	 1.358805777	-0.237994
H	 0.8486809545	 2.0498845385	 0.2137581087	 0.119779
H	-0.6427335762	 2.0016945367	-0.7307140165	 0.123856
H	-0.7055284818	 1.8112984318	 1.0267562225	 0.120415
H	-0.9726383037	-0.4039034826	-0.0991737343	 0.069332
H	 1.7845459069	 0.1777047425	-1.331577788	 0.115702
H	 0.975842049	-1.4045797703	-1.3244321016	 0.118828
H	-0.9759886446	-0.4128566353	-2.6056689265	 0.066878
H	 1.7098915869	-0.1488954642	 1.318218519	 0.068598
H	 0.2342639817	 0.2837270774	 3.2768588781	 0.097919
H	-1.1226565311	-0.5014575819	 2.4439789712	 0.097928
H	 1.4117844096	-1.927559233	 3.4568124271	 0.104054
H	-0.2041948569	-2.6491839321	 3.3485327147	 0.097993
H	-0.0791455688	-2.5994788963	 0.8484310863	 0.096156
H	 1.6833052708	-2.627324572	 1.0623889193	 0.097312
57.2511	63.8011	94.6072	131.5684	147.2319	227.93	235.6664	296.1162	368.0526	402.6433	451.0144	535.8909	637.9469	757.8617	783.2299	797.1705	889.7382	904.4866	936.1037	945.5898	952.4679	967.487	998.274	1031.6391	1038.4178	1086.8646	1131.0257	1157.3052	1190.1618	1205.5728	1218.1808	1242.5368	1258.8042	1263.4686	1273.2824	1289.6041	1295.6331	1330.7475	1363.8289	1391.3262	1415.2275	1431.6953	1460.904	1477.8304	1486.5764	1495.5556	1500.6707	1510.2174	1834.4313	2838.2534	2981.4847	3012.9026	3021.5147	3031.4927	3039.7133	3046.5488	3060.186	3088.6092	3095.3701	3097.1714	3100.3556	3107.8059	3117.7914
CC(CC=O)C1CCC1	C[C@@H](CC=O)C1CCC1	
InChI=1S/C8H14O/c1-7(5-6-9)8-3-2-4-8/h6-8H,2-5H2,1H3	InChI=1S/C8H14O/c1-7(5-6-9)8-3-2-4-8/h6-8H,2-5H2,1H3/t7-/m0/s1
