20
gdb 56181	3.7193	0.77144	0.69872	3.0989	75.94	-0.2383	0.0377	0.2761	1633.6905	0.168312	-440.305022	-440.294381	-440.293437	-440.342191	37.728	
N	-0.0013782739	 1.312417329	 0.0738939839	-0.523215
C	 0.0921776953	-0.0258478553	-0.181401659	 0.404171
O	 1.15487231	-0.5656752856	-0.4261736688	-0.364438
C	-1.2371063166	-0.775658111	-0.1777433901	-0.304206
C	-1.0667125888	-2.2339263013	 0.2604617096	-0.217382
C	-2.3291753194	-3.0441438703	 0.0908845634	 0.431749
O	-3.3554113678	-2.4892538703	 0.8809595021	-0.477714
C	-2.6640649829	-3.6477301703	-1.2479029863	-0.329053
C	-2.2475943923	-4.5350811866	-0.0808815102	-0.33715
H	 0.8456358521	 1.8564702478	 0.0880043054	 0.257767
H	-0.8629732916	 1.7469104291	 0.3519764296	 0.256792
H	-1.9780073984	-0.2709132068	 0.4492981149	 0.113314
H	-1.6269423047	-0.7451458389	-1.2041889736	 0.126951
H	-0.2538248202	-2.6808275823	-0.3169749352	 0.124541
H	-0.7626489411	-2.2681731584	 1.3134272597	 0.108593
H	-4.1669925541	-2.9823214033	 0.7278632409	 0.279608
H	-3.7074401449	-3.6718685646	-1.5488034385	 0.103788
H	-1.970740892	-3.5180080556	-2.0725740503	 0.120359
H	-1.2720958796	-5.0087414121	-0.1120636209	 0.120114
H	-3.0185249791	-5.1383682131	 0.3891558837	 0.105412
31.563	55.116	106.0469	113.9736	130.5527	160.9536	225.9904	306.6567	343.473	418.3233	436.1818	499.997	546.1036	593.9812	678.528	729.922	771.1346	791.9249	858.0432	891.8891	933.5836	943.911	977.7044	1039.2742	1050.4707	1061.5812	1068.096	1089.1737	1160.9377	1182.3697	1185.1013	1254.0253	1282.1778	1336.8084	1356.9513	1400.1106	1439.6372	1460.0706	1467.4536	1484.9751	1505.0965	1615.1451	1793.3274	3026.9604	3044.8623	3084.2876	3113.1239	3119.301	3125.0765	3199.4149	3214.7285	3603.9039	3742.8806	3827.568
NC(=O)CCC1(O)CC1	NC(=O)CCC1(O)CC1	
InChI=1S/C6H11NO2/c7-5(8)1-2-6(9)3-4-6/h9H,1-4H2,(H2,7,8)	InChI=1S/C6H11NO2/c7-5(8)1-2-6(9)3-4-6/h9H,1-4H2,(H2,7,8)
