14
gdb 131234	4.08687	0.97589	0.86027	3.4469	69.14	-0.2274	-0.003	0.2244	1281.3856	0.101882	-432.880894	-432.872804	-432.87186	-432.915009	28.739	
O	 0.4882507759	 1.3045717551	-0.170826306	-0.437633
C	 0.1934388007	-0.0157533398	-0.0530884003	 0.228639
C	 0.3526864457	-0.9536500732	-1.0511456145	-0.112919
N	-0.070102473	-2.1375086323	-0.5167116621	 0.054027
C	-0.0888320046	-3.4386713318	-1.1446005623	-0.27725
C	 1.2550569523	-3.9764409248	-1.4044740666	 0.271072
N	 2.3050287992	-4.4001670148	-1.6305667839	-0.293878
N	-0.4819764429	-2.0218640305	 0.7565459126	-0.249143
C	-0.3295626412	-0.731508516	 1.0476373713	-0.109591
H	 0.3169184323	 1.7390073578	 0.6700452795	 0.304517
H	 0.7281111283	-0.8705443247	-2.057216923	 0.147644
H	-0.6247989578	-4.1036355778	-0.4637233141	 0.189463
H	-0.6403130591	-3.4008402414	-2.0909125492	 0.170555
H	-0.6015040358	-0.3608530757	 2.0256500886	 0.114496
25.7537	78.9288	220.1292	227.3018	289.3612	349.8623	370.5086	443.4419	484.549	625.13	660.7586	674.7892	758.2905	795.1925	838.8358	930.1669	965.5261	1004.9688	1034.7139	1153.9914	1184.5653	1231.6565	1263.4425	1372.537	1389.6314	1415.5211	1427.1754	1454.5414	1498.8895	1652.6092	2368.7885	3050.8213	3123.5371	3237.9306	3277.862	3839.2304
OC1=CN(CC#N)N=C1	Oc1cn(CC#N)nc1	
InChI=1S/C5H5N3O/c6-1-2-8-4-5(9)3-7-8/h3-4,9H,2H2	InChI=1S/C5H5N3O/c6-1-2-8-4-5(9)3-7-8/h3-4,9H,2H2
