15
gdb 126082	4.72933	1.34254	1.09013	2.037	67.61	-0.2029	0.0226	0.2255	1061.1535	0.1142	-453.942232	-453.934873	-453.933928	-453.974195	27.847	
C	-0.5247379788	 1.4853776245	 0.044073931	-0.399057
C	 0.2027997982	 0.1667126207	 0.0138639072	 0.190764
O	 1.020057719	 0.0672236662	-1.1857109407	-0.300304
C	 2.1882542234	-0.4774886632	-0.734977673	 0.238392
C	 3.405092375	-0.9556353831	-1.1296145698	-0.205255
N	 4.076554187	-1.183141006	 0.0580069818	-0.208562
N	 3.3293007715	-0.9300121898	 1.1831005003	-0.342848
C	 2.2150586364	-0.4874937857	 0.6576195003	 0.375349
O	 1.0714502182	 0.0392005331	 1.1693659321	-0.281857
H	 0.1951710027	 2.3070145541	 0.0429201563	 0.141495
H	-1.17038977	 1.5696948818	-0.8336868061	 0.137355
H	-1.141273213	 1.5473667286	 0.944258623	 0.139324
H	-0.4819212393	-0.6941588171	 0.0191773965	 0.100159
H	 3.8685794179	-1.1275660236	-2.0859297559	 0.14139
H	 4.9058856319	-1.7393091303	 0.1693938469	 0.273655
67.9249	217.4122	242.4569	264.7168	326.3144	356.1161	466.993	528.5673	603.3917	656.3374	728.3481	744.759	751.5793	773.6617	851.0568	878.1627	968.7793	1031.8862	1068.8583	1108.4051	1155.2093	1166.6706	1187.6934	1309.5321	1357.9587	1388.2878	1421.5672	1448.354	1481.6177	1484.8247	1514.1453	1592.3794	1679.3475	2998.8509	3056.3774	3137.5019	3142.9157	3279.4602	3689.4276
CC1OC2=CNN=C2O1	C[C@H]1Oc2c[nH]nc2O1	
InChI=1S/C5H6N2O2/c1-3-8-4-2-6-7-5(4)9-3/h2-3H,1H3,(H,6,7)	InChI=1S/C5H6N2O2/c1-3-8-4-2-6-7-5(4)9-3/h2-3H,1H3,(H,6,7)/t3-/m0/s1
