14
gdb 133530	2.00538	1.64209	1.37032	2.0773	51.19	-0.2662	-0.047	0.2192	979.3857	0.093595	-605.33609	-605.326812	-605.325868	-605.370508	32.773	
C	 0.1322049013	 1.585850927	 0.2284599622	-0.435655
C	 0.0171326154	 0.071621393	 0.075638715	 0.104493
O	 0.7404257578	-0.5203296621	 1.1417823474	-0.454822
C	-1.4565599975	-0.3488533009	 0.2253727619	 0.122043
O	-2.1649304824	-0.793396292	-0.6341828654	-0.232177
C	 0.6131954346	-0.3971265398	-1.2609254319	 0.281499
F	 1.8918169743	-0.0159111336	-1.3752412363	-0.075175
F	 0.5915034019	-1.741748697	-1.3234160488	-0.092525
F	-0.0532366877	 0.0864920008	-2.3077504537	-0.061565
H	 1.1873110079	 1.8659699823	 0.2530153903	 0.154526
H	-0.3607231358	 2.0961097315	-0.6019132527	 0.148885
H	-0.3325040524	 1.8964651358	 1.1676350697	 0.138595
H	 0.7810045272	-1.4723528411	 0.9859865475	 0.298831
H	-1.8001415647	-0.2131094137	 1.2757371548	 0.103046
57.3894	84.4266	172.3821	203.9138	224.2481	283.6797	314.5764	335.1792	378.823	411.3201	440.0149	513.7554	557.2786	587.1509	664.6657	765.4502	914.5776	953.4109	998.3136	1083.5152	1163.8909	1192.7858	1208.1187	1230.2205	1305.2342	1366.3611	1405.4834	1421.8838	1484.2715	1497.0264	1846.7931	2888.0435	3057.8051	3136.2506	3148.127	3786.9943
CC(O)(C=O)C(F)(F)F	C[C@@](O)(C=O)C(F)(F)F	
InChI=1S/C4H5F3O2/c1-3(9,2-8)4(5,6)7/h2,9H,1H3	InChI=1S/C4H5F3O2/c1-3(9,2-8)4(5,6)7/h2,9H,1H3/t3-/m1/s1
