21
gdb 70343	2.67775	1.78432	1.49128	1.6792	80.71	-0.2361	0.0882	0.3242	994.8485	0.184879	-387.077591	-387.070137	-387.069193	-387.108838	31.235	
C	 0.0088545471	 1.4889900651	-0.0413085747	-0.481771
C	-0.0342472196	-0.0213510996	 0.0052895459	 0.353574
C	-0.8561982817	-0.733912184	 1.0477647435	-0.337174
C	 0.6572561691	-0.7891892477	 1.1185880603	-0.073388
C	 1.4174499492	-2.0580763895	 0.7158996461	-0.239266
C	 1.3133182184	-2.2760072501	-0.7956094764	 0.101021
C	 1.6309684545	-0.9958993295	-1.6002805223	-0.248101
C	 0.1330312567	-0.723428287	-1.3379789878	 0.02148
O	-0.0885665023	-2.1528156555	-1.1860215903	-0.295398
H	 0.9230629397	 1.8528571187	-0.5261066199	 0.114339
H	-0.8442750646	 1.8933814912	-0.5997879296	 0.11664
H	-0.0224855444	 1.9151959847	 0.9660754667	 0.116582
H	-1.3700176746	-0.1246459846	 1.7845243043	 0.099077
H	-1.3748908443	-1.6364074889	 0.74771805	 0.127818
H	 1.1147421276	-0.202084261	 1.9092480715	 0.077445
H	 2.4753548872	-1.9662144887	 0.9911761544	 0.097109
H	 1.0267715482	-2.9383969921	 1.240468983	 0.105724
H	 1.7479517192	-3.2242090986	-1.1232505759	 0.072376
H	 2.3620477969	-0.2922931747	-1.1956015116	 0.097253
H	 1.8429181813	-1.215073622	-2.6478822108	 0.105337
H	-0.4888975736	-0.2945875262	-2.1300497865	 0.069325
192.5991	204.2026	232.4034	311.272	349.2155	402.1704	419.4412	497.9984	511.1873	618.0548	700.5106	780.2991	842.3342	855.6644	874.0493	881.9022	923.4067	941.0807	946.7546	968.2599	974.1823	1017.4505	1049.5834	1074.2945	1092.75	1106.5439	1116.839	1124.3564	1145.2955	1198.3763	1234.2107	1250.2504	1251.9571	1297.3667	1324.6347	1333.4796	1353.9058	1372.8321	1406.8484	1418.8885	1473.2659	1484.9124	1487.9289	1489.5094	1501.8554	3017.5519	3024.3246	3056.4249	3061.9749	3068.3568	3073.9357	3077.6021	3097.4026	3131.3555	3134.0909	3147.2213	3228.0677
CC12CC1CC1CC2O1	C[C@]12C[C@H]1C[C@@H]1C[C@H]2O1	
InChI=1S/C8H12O/c1-8-4-5(8)2-6-3-7(8)9-6/h5-7H,2-4H2,1H3	InChI=1S/C8H12O/c1-8-4-5(8)2-6-3-7(8)9-6/h5-7H,2-4H2,1H3/t5-,6-,7-,8+/m1/s1
