15
gdb 45894	2.58547	1.84495	1.31048	3.5068	66.62	-0.2562	-0.0271	0.2291	951.4777	0.114388	-453.94524	-453.938036	-453.937092	-453.977253	27.048	
O	 0.0082778781	 0.0219624851	 0.4825470839	-0.305637
C	 0.0299858234	 1.161354922	 0.1142911443	 0.449942
O	-1.1661380589	 1.8295417119	 0.0013590044	-0.227199
C	-1.4612869933	 2.9759529929	-0.7139616187	 0.158631
N	-0.914679503	 3.5358122476	-1.6911121827	-0.226889
C	 0.3311321572	 3.1094350293	-2.2949017372	-0.193405
C	 1.4675470848	 2.8141773104	-1.3274316814	-0.029083
N	 1.3619717136	 3.3410766372	 0.024579603	-0.321727
C	 1.3033707374	 1.881242351	-0.172196829	-0.169721
H	-2.4031368979	 3.3555945609	-0.324358548	 0.138807
H	 0.162075218	 2.2223246407	-2.9230459835	 0.128152
H	 0.6525990343	 3.9080108042	-2.9725055072	 0.122955
H	 2.4502760436	 2.7940881757	-1.7964673793	 0.10498
H	 2.2679464005	 3.6039481377	 0.4010227351	 0.250319
H	 2.1576326321	 1.2739670335	 0.1094133462	 0.119875
88.5249	115.6038	235.2048	295.5367	345.9547	455.4816	467.3314	545.1452	650.9728	695.3303	771.756	785.8445	846.4529	884.0797	930.5383	948.6134	968.0985	1016.3044	1033.6323	1066.1424	1111.2119	1139.8658	1189.3854	1234.433	1261.2971	1284.8827	1385.1115	1394.7447	1437.2516	1459.7196	1495.784	1779.3819	1847.6834	3005.1016	3055.5784	3120.2731	3169.1743	3169.817	3523.4335
O=C1OC=NCC2NC12	O=C1OC=NC[C@H]2N[C@@H]12	
InChI=1S/C5H6N2O2/c8-5-4-3(7-4)1-6-2-9-5/h2-4,7H,1H2	InChI=1S/C5H6N2O2/c8-5-4-3(7-4)1-6-2-9-5/h2-4,7H,1H2/t3-,4-/m1/s1
