14
gdb 46873	2.72956	1.84594	1.22985	6.1666	62.74	-0.2608	-0.0619	0.1988	954.9156	0.102092	-473.839981	-473.832942	-473.831998	-473.871623	26.423	
O	 0.2602207666	-0.1261578415	-0.4747299787	-0.300643
C	 0.0505902673	 1.0416764072	-0.3508102122	 0.38141
O	-1.120595045	 1.6023792587	-0.7589536308	-0.229717
C	-1.3170999766	 2.992928422	-0.4197554869	-0.110888
C	-0.1354096393	 3.7982278275	-0.903509181	-0.041779
C	 0.7462719922	 4.5182035006	 0.0774992733	-0.251117
N	 1.1296089423	 3.2249316841	-0.4649090833	-0.074245
C	 1.0629498166	 2.0396407581	 0.2691959615	 0.22554
O	 1.7312923027	 1.7754615849	 1.2319841182	-0.298182
H	-2.2528164803	 3.2809613455	-0.8997466388	 0.144997
H	-1.4394829059	 3.0865344555	 0.6662503935	 0.133553
H	-0.1566459834	 4.1315740666	-1.9380948494	 0.125522
H	 1.3396139305	 5.3607788219	-0.2623029181	 0.14766
H	 0.4438557324	 4.5504739989	 1.1207263927	 0.147891
98.0784	181.1336	246.3948	323.8755	344.5219	402.9306	473.7475	507.6015	601.6771	695.572	719.511	826.1245	849.4194	926.9075	942.7811	990.5003	1038.4069	1071.8955	1101.2191	1128.0703	1146.1372	1178.0099	1204.5435	1281.7781	1347.5857	1390.9009	1426.1033	1500.1576	1510.1094	1827.7709	1875.1029	3037.277	3122.2983	3130.0533	3148.7314	3216.4489
O=C1OCC2CN2C1=O	O=C1OC[C@H]2CN2C1=O	
InChI=1S/C5H5NO3/c7-4-5(8)9-2-3-1-6(3)4/h3H,1-2H2	InChI=1S/C5H5NO3/c7-4-5(8)9-2-3-1-6(3)4/h3H,1-2H2/t3-,6?/m1/s1
