15
gdb 129391	2.78816	1.56086	1.01403	2.7871	70.41	-0.2248	-0.0246	0.2003	1093.9626	0.116895	-446.321341	-446.313493	-446.312549	-446.353714	29.947	
N	 0.7616921989	-0.978620431	 1.6117608552	-0.555279
C	-0.3534881124	-0.1938862754	 1.3041846566	 0.248105
N	-0.3612054475	 1.0469737013	 1.6025655996	-0.520998
C	-1.4100159421	-0.9210751627	 0.5785380122	 0.246292
N	-2.6370415393	-0.40890163	 0.414557891	-0.278992
N	-3.2662990966	-1.3223236704	-0.2867433478	-0.077994
N	-2.5700721131	-2.4145154521	-0.6227367435	-0.278247
C	-1.3762009819	-2.181737992	-0.0767867927	 0.259926
N	-0.3406802556	-3.099069611	-0.138425862	-0.607751
H	 1.4037907875	-0.4792630935	 2.2144951824	 0.25493
H	 0.5507043846	-1.9082103181	 1.9521864785	 0.259064
H	-1.2025851746	 1.4872011576	 1.232222262	 0.22942
H	-4.2326142983	-1.2172647779	-0.5488720499	 0.296191
H	-0.478156569	-3.7982787578	-0.8555641221	 0.259655
H	 0.5722755495	-2.665977857	-0.1874119795	 0.265675
81.1645	185.204	201.0784	287.1675	344.5195	360.987	406.1684	474.8361	504.695	551.1118	643.2034	650.7992	692.7051	704.8299	744.5145	795.4181	818.6915	883.913	993.5669	1090.4591	1111.5425	1166.1125	1198.4459	1225.4022	1278.0711	1363.4828	1427.7543	1473.5204	1539.7954	1584.8501	1628.5248	1642.1586	1718.9527	3498.3204	3532.0878	3544.4805	3639.7466	3649.0127	3673.691
NC(=N)C1=NNN=C1N	NC(=N)c1n[nH]nc1N	
InChI=1S/C3H6N6/c4-2(5)1-3(6)8-9-7-1/h(H3,4,5)(H3,6,7,8,9)	InChI=1S/C3H6N6/c4-2(5)1-3(6)8-9-7-1/h(H3,4,5)(H3,6,7,8,9)
