19
gdb 31777	2.93526	1.29117	0.95705	2.0531	81.2	-0.1808	0.0384	0.2192	1235.6926	0.160413	-419.234045	-419.224714	-419.22377	-419.267837	34.815	
C	 0.2819949055	 1.2688136749	 0.2598993882	-0.366571
N	-0.0004506204	-0.1473597283	 0.1209904686	-0.061477
C	 0.007806219	-0.8403225659	-1.0660420914	 0.269083
N	 0.3455814258	-0.176021493	-2.2603068925	-0.60716
C	-0.2533427845	-2.1690305934	-0.7996276402	-0.226266
C	-0.4266316381	-2.2818235908	 0.6055188747	-0.22866
C	-0.2848833054	-1.0273103574	 1.1568057023	 0.237156
C	-0.3848383158	-0.5894901463	 2.5749459276	-0.190807
O	 0.8483626239	-0.0941757155	 3.1177609421	-0.412549
H	 0.7692496973	 1.4408577743	 1.2206745952	 0.164921
H	 0.9478366935	 1.5729006569	-0.5507951831	 0.149421
H	-0.630663778	 1.8764417626	 0.2089989869	 0.121525
H	 0.5097972087	-0.8445675622	-3.0022527077	 0.24819
H	-0.3749693881	 0.4683104541	-2.5727675086	 0.244154
H	-0.3167397614	-2.9574906469	-1.5341305378	 0.081127
H	-0.6561328607	-3.1807196181	 1.1588349696	 0.089476
H	-1.0912485158	 0.2395588955	 2.7024237816	 0.10831
H	-0.7645865048	-1.4335014615	 3.1678117993	 0.102303
H	 1.5226829493	-0.7490921491	 2.9050247251	 0.277824
99.6011	126.4162	162.2606	185.5084	219.0042	249.29	299.2075	313.5569	379.3783	421.525	493.6728	597.8328	647.9941	673.7531	732.0689	735.6233	761.3874	803.3901	824.3422	950.179	988.058	1015.4786	1044.222	1126.8574	1158.2847	1184.2816	1199.504	1243.6984	1258.5857	1338.2665	1350.8106	1409.5958	1418.7359	1441.4308	1495.6281	1503.054	1512.597	1523.9671	1549.4024	1609.1035	1655.6868	3006.2211	3018.8561	3051.9134	3102.7806	3150.2809	3233.1818	3249.2391	3493.6444	3603.8919	3799.8169
CN1C(N)=CC=C1CO	Cn1c(N)ccc1CO	
InChI=1S/C6H10N2O/c1-8-5(4-9)2-3-6(8)7/h2-3,9H,4,7H2,1H3	InChI=1S/C6H10N2O/c1-8-5(4-9)2-3-6(8)7/h2-3,9H,4,7H2,1H3
