20
gdb 105676	1.93848	1.52216	1.15211	3.2472	75.77	-0.237	-0.0317	0.2053	1187.7857	0.168572	-440.260322	-440.250366	-440.249421	-440.295701	35.494	
C	 0.0750139237	 1.4650779088	 0.372276674	-0.336686
N	-0.2717942494	 0.0900250586	 0.0151010456	-0.343312
C	 0.4156728222	-0.4103102182	-1.1527911065	 0.13125
C	 1.9523075798	-0.6242614514	-1.1710605116	-0.121087
O	 1.8021667812	-2.0382871648	-1.4133143148	-0.288815
C	 0.3655770548	-1.969253242	-1.368810526	 0.11039
C	-0.2323100826	-2.8392709103	-0.2781404056	-0.417034
C	-0.1276986012	 0.302726302	-2.3808935468	 0.134321
O	 0.5140077645	 0.5812029766	-3.3601450255	-0.25226
H	 1.1496664834	 1.6276839249	 0.5569555739	 0.110825
H	-0.2284583435	 2.1456770701	-0.4307645239	 0.135055
H	-0.4745040632	 1.752025504	 1.2726668076	 0.128036
H	-0.1087725521	-0.5195541601	 0.8071573978	 0.225977
H	 2.4757168736	-0.1205345892	-1.9891621171	 0.125587
H	 2.4556279422	-0.4215719693	-0.2171768672	 0.092514
H	-0.0670080738	-2.2503815102	-2.3389827784	 0.089509
H	 0.223697446	-2.6393642152	 0.6965337154	 0.118302
H	-1.3135758033	-2.6882784559	-0.2058997808	 0.131224
H	-0.0438763506	-3.8903853059	-0.516702893	 0.136389
H	-1.2169410616	 0.5204658577	-2.3056884671	 0.089817
47.5215	83.7185	122.262	167.881	201.2317	221.9731	250.3437	274.6262	307.0253	393.232	447.3582	478.8617	590.5322	681.4197	751.5078	793.4981	887.0105	910.8806	930.5721	1019.1438	1026.447	1060.3222	1081.0081	1101.0901	1129.029	1140.3683	1169.9324	1179.2334	1213.3429	1266.017	1303.1943	1348.6932	1383.0043	1397.0562	1402.531	1462.7427	1475.402	1478.7982	1490.3731	1503.889	1508.7374	1522.085	1830.3158	2885.658	2970.1272	3003.898	3017.7056	3038.4853	3063.8146	3088.4711	3109.9566	3112.3216	3120.0727	3549.8326
CNC1(COC1C)C=O	CN[C@]1(CO[C@H]1C)C=O	
InChI=1S/C6H11NO2/c1-5-6(3-8,7-2)4-9-5/h3,5,7H,4H2,1-2H3	InChI=1S/C6H11NO2/c1-5-6(3-8,7-2)4-9-5/h3,5,7H,4H2,1-2H3/t5-,6-/m0/s1
