13
gdb 127984	6.8332	0.93242	0.82465	1.8476	73.28	-0.2465	-0.0619	0.1846	1318.322	0.086907	-452.685686	-452.677295	-452.676351	-452.720012	28.991	
C	 0.0224669113	 1.3740450686	 0.1567794884	-0.341084
N	 0.3293949145	-0.0467066709	 0.112627957	-0.365526
C	 0.6508499893	-0.5815128361	-0.9624281262	 0.517153
O	 0.7810930232	-0.035254194	-2.2211964084	-0.244638
N	 1.1688397077	-1.0470440229	-3.1220971286	-0.174512
C	 1.2497388861	-2.106725204	-2.3947319963	 0.280526
O	 0.9556326802	-1.9225006217	-1.0819576404	-0.218608
C	 1.6081215899	-3.3903385545	-2.8521135988	 0.256008
C	 1.9122391686	-4.4892037989	-3.2298365286	-0.337181
H	 0.6980121031	 1.8618254902	 0.8672034569	 0.136755
H	 0.1030032465	 1.8843955487	-0.809732383	 0.131827
H	-0.9953217334	 1.5062293796	 0.5383824129	 0.136755
H	 2.1819601328	-5.4601400341	-3.5688052252	 0.222526
27.7624	88.7449	130.8851	210.0833	220.4725	264.7794	432.8182	433.4788	562.0793	628.011	655.63	693.6406	710.7126	722.2522	726.1313	899.7693	915.6736	991.1902	1111.0685	1137.5687	1138.4181	1203.2367	1347.0812	1449.6482	1493.2895	1503.3489	1633.4749	1858.8218	2256.6673	3022.1251	3090.592	3092.3475	3495.788
CN=C1ON=C(O1)C#C	CN=c1onc(o1)C#C	
InChI=1S/C5H4N2O2/c1-3-4-7-9-5(6-2)8-4/h1H,2H3	InChI=1S/C5H4N2O2/c1-3-4-7-9-5(6-2)8-4/h1H,2H3
