21
gdb 92049	2.59987	1.49754	1.1176	2.8622	81.46	-0.2348	-0.0104	0.2245	1160.8507	0.183798	-387.118208	-387.109679	-387.108734	-387.151556	33.049	
C	-0.2156318785	 1.5253432626	 0.0303941475	-0.39859
C	 0.0615893839	 0.0242727797	 0.0325485037	-0.069408
C	 0.7708208273	-0.4463359278	-1.2628044431	-0.230663
C	 1.2093278052	-1.9092438797	-1.2333841689	-0.03687
C	 2.5741744406	-2.2774060266	-0.6987818539	-0.285277
C	 1.3434425668	-2.6433161249	 0.0876712962	-0.022295
C	 1.0317534755	-1.9233943562	 1.391734694	-0.317241
C	 0.8895431332	-0.4137750704	 1.2360825945	 0.373986
O	 1.3857935486	 0.3669572714	 2.0157148843	-0.316788
H	 0.7202733362	 2.0907053099	 0.0095800848	 0.129501
H	-0.8107094918	 1.8071253259	-0.8440458116	 0.105258
H	-0.7573605068	 1.8285968341	 0.9299771696	 0.122907
H	-0.8859833432	-0.5314625979	 0.0951950631	 0.086767
H	 0.0888052941	-0.2821360304	-2.1034426663	 0.105497
H	 1.6348571927	 0.2053961837	-1.4423472848	 0.110986
H	 0.8549733369	-2.5070279416	-2.0670526581	 0.086538
H	 3.1326316186	-3.0677223478	-1.1880835529	 0.110897
H	 3.1921319117	-1.4685465996	-0.3175357216	 0.118857
H	 1.0722044376	-3.6947905929	 0.0832105867	 0.086554
H	 0.0647108784	-2.2810951534	 1.7742155393	 0.119332
H	 1.7797188332	-2.125587508	 2.1642021675	 0.120051
61.9797	95.2412	185.9522	266.2337	276.5599	320.4608	358.3077	411.5472	476.1383	534.562	584.4466	706.3896	730.3599	801.7711	806.721	849.4661	885.4748	894.6627	921.1631	997.9719	999.7866	1056.5401	1069.0933	1098.3597	1115.4565	1126.0103	1138.4663	1140.514	1170.9105	1224.3229	1235.6611	1240.2652	1308.9151	1318.378	1333.6124	1374.6196	1391.5088	1410.5605	1413.5082	1466.9216	1485.9159	1490.1174	1493.8988	1502.7715	1811.2282	2996.4737	3012.2631	3028.442	3042.9781	3070.1236	3084.595	3113.0874	3120.4482	3121.7056	3142.6979	3154.6234	3207.9086
CC1CC2CC2CC1=O	C[C@H]1C[C@H]2C[C@H]2CC1=O	
InChI=1S/C8H12O/c1-5-2-6-3-7(6)4-8(5)9/h5-7H,2-4H2,1H3	InChI=1S/C8H12O/c1-5-2-6-3-7(6)4-8(5)9/h5-7H,2-4H2,1H3/t5-,6-,7-/m0/s1
