23
gdb 81685	3.21499	1.22862	1.17317	1.2761	85.27	-0.2309	0.0886	0.3196	1216.607	0.20727	-388.289809	-388.28128	-388.280335	-388.322365	34.405	
C	-0.2277115466	 1.4354717057	 0.067593229	-0.429486
C	 0.0129525438	-0.0681656471	-0.0007318785	 0.0372
C	 0.8753123061	-0.5739518751	-1.2019893553	-0.027921
C	 2.1319814878	-0.3528142262	-0.3073740667	-0.270683
C	 1.1698568032	-0.6245875977	 0.8812779636	 0.128565
O	 0.9687020015	-2.0133971721	 1.1064516508	-0.295802
C	 1.080836716	-2.8267893121	-0.069458867	 0.164455
C	 0.301246572	-4.1062566152	 0.1935361612	-0.403019
C	 0.6278499671	-2.0832701868	-1.3519742666	-0.246879
H	 0.6930852517	 2.0139473491	-0.058344085	 0.114789
H	-0.9235743199	 1.7534604254	-0.7166655948	 0.115294
H	-0.664214354	 1.7173742608	 1.0322515048	 0.116505
H	-0.9305275119	-0.6047929821	 0.1469431037	 0.061656
H	 0.8026161118	-0.0411827885	-2.154183935	 0.05641
H	 2.9986616817	-1.0053070497	-0.4353639668	 0.097066
H	 2.4697120173	 0.6846612542	-0.314583052	 0.101588
H	 1.367790202	-0.1735551001	 1.8571648475	 0.067173
H	 2.1422608108	-3.0896215963	-0.1940759136	 0.071188
H	-0.76300527	-3.8858881792	 0.3227854256	 0.118958
H	 0.4140302986	-4.8026904245	-0.6437471562	 0.110417
H	 0.6633847536	-4.5947832927	 1.1023818577	 0.1226
H	-0.4377083205	-2.2610337068	-1.5453761362	 0.09574
H	 1.1822122477	-2.4943461731	-2.2039959702	 0.094187
107.063	191.3155	223.7657	248.1105	264.8016	298.5434	335.7851	414.9853	443.2287	471.092	515.9817	612.42	773.8982	805.6757	831.8258	851.9658	861.3469	909.8045	919.0878	951.9935	995.4699	1017.0074	1025.5401	1065.1357	1073.5331	1088.553	1127.768	1149.712	1154.4131	1163.1382	1174.5742	1230.6127	1245.9747	1267.6087	1294.2614	1300.5516	1336.6784	1343.5073	1384.6095	1390.5066	1398.0093	1410.1034	1412.0395	1482.1729	1489.3834	1494.8627	1497.6875	1499.3513	1508.4672	2973.698	3019.0242	3028.617	3037.939	3043.1504	3060.6711	3065.2488	3070.5752	3081.0064	3090.2251	3101.1976	3110.8781	3117.7793	3127.0579
CC1C2CC1OC(C)C2	C[C@H]1[C@H]2C[C@@H]1O[C@@H](C)C2	
InChI=1S/C8H14O/c1-5-3-7-4-8(9-5)6(7)2/h5-8H,3-4H2,1-2H3	InChI=1S/C8H14O/c1-5-3-7-4-8(9-5)6(7)2/h5-8H,3-4H2,1-2H3/t5-,6-,7+,8-/m0/s1
