17
gdb 24261	3.94205	1.57823	1.23245	1.804	78.91	-0.1628	0.0485	0.2113	994.2068	0.140156	-380.875506	-380.868801	-380.867857	-380.906237	28.044	
C	-0.0041041387	 1.4813988219	 0.1069160766	-0.303088
C	 1.3066729526	 0.7273059057	 0.0047245128	 0.009808
N	 2.0706313095	 0.3422278608	 1.1897869639	-0.415065
C	 1.1844531889	-0.4473139807	 1.9683951459	 0.281397
C	 0.0401478462	-0.750590998	 1.277708063	 0.303855
N	-0.7253917707	-1.5766957863	 2.0601595054	-0.380653
C	-0.0605672544	-1.7898038974	 3.2481725509	-0.076402
C	 1.1373232447	-1.0929939941	 3.2290185748	-0.307725
C	-0.021999955	-0.0366539817	-0.0133099121	-0.201776
H	-0.2966059457	 1.9129213594	 1.0579957135	 0.112645
H	-0.2887435774	 2.0565556797	-0.7683115053	 0.107061
H	 1.8938677422	 0.8506826762	-0.8987888525	 0.093433
H	 2.4795065129	 1.1323023889	 1.6752780242	 0.228749
H	-1.6171909523	-1.9707299068	 1.8201490511	 0.257676
H	-0.4785164511	-2.4351629515	 4.0039166593	 0.112252
H	 1.868758422	-1.0793656695	 4.0219110403	 0.088505
H	-0.3979662337	-0.5010251667	-0.9187847918	 0.089325
134.4602	256.4866	346.5388	406.3976	418.8245	444.4785	592.5244	623.7594	651.7333	672.2622	701.3174	738.8263	786.633	790.3238	804.2366	841.6006	928.5463	942.3158	976.037	1032.023	1047.2007	1075.0099	1090.6941	1103.9428	1140.5206	1169.7343	1194.2678	1241.9916	1303.5585	1345.9941	1351.5191	1398.7629	1455.8536	1463.791	1476.7747	1547.5239	1616.2822	3125.0796	3155.8812	3164.8863	3218.1187	3247.0706	3268.9303	3537.8582	3690.6139
C1C2NC3=C(NC=C3)C12	C1[C@H]2Nc3c([nH]cc3)[C@@H]12	
InChI=1S/C7H8N2/c1-2-8-7-4-3-6(4)9-5(1)7/h1-2,4,6,8-9H,3H2	InChI=1S/C7H8N2/c1-2-8-7-4-3-6(4)9-5(1)7/h1-2,4,6,8-9H,3H2/t4-,6+/m0/s1
