21
gdb 80863	2.21347	1.68297	1.38564	2.1652	77.7	-0.2438	0.068	0.3117	1063.7071	0.1831	-424.218622	-424.209959	-424.209015	-424.251113	34.798	
C	-0.1671993641	 1.5280299719	 0.0300071695	-0.433444
C	-0.0001718591	 0.0154460471	-0.007822135	-0.01918
C	 1.1257741585	-0.5880914763	-0.9039161673	-0.034707
C	 2.1253274616	-0.2793048336	 0.2535238792	-0.295519
C	 0.8927797132	-0.6188033629	 1.1228536594	 0.443019
O	 0.8257065235	-0.225948625	 2.4539993395	-0.505334
C	 0.7261355484	-2.1198741673	 0.8446763973	 0.055968
O	-0.5501723216	-2.513287601	 1.3359835798	-0.452097
C	 0.8889704798	-2.1024661097	-0.7098725129	-0.263597
H	 0.7819598483	 2.0673245571	 0.0875472425	 0.116499
H	-0.6934905796	 1.8801602329	-0.8637762527	 0.109199
H	-0.7598901595	 1.820426968	 0.903172122	 0.121072
H	-0.9799398653	-0.4581024012	-0.1250271296	 0.071398
H	 1.3020496285	-0.2303783252	-1.917929272	 0.060952
H	 3.0107914496	-0.9153606688	 0.3526996213	 0.086551
H	 2.4158796797	 0.7682167805	 0.3184560911	 0.109556
H	 0.1107972311	-0.7382724831	 2.8528222604	 0.28481
H	 1.5139501922	-2.6989575838	 1.3452840177	 0.066649
H	-0.6210697639	-3.470337847	 1.2788075819	 0.287251
H	-0.0234941904	-2.4545487825	-1.2008201843	 0.098263
H	 1.729510659	-2.71330427	-1.0528279078	 0.09269
155.1408	170.4182	205.7764	223.7932	264.9093	289.1323	385.0253	405.456	431.1478	451.3822	508.0811	574.2951	622.9897	679.2679	780.4163	817.2505	854.0724	907.5964	918.0856	952.5034	977.3597	996.493	1052.2514	1057.8675	1067.914	1095.1843	1115.0936	1140.3124	1167.9498	1192.4107	1220.4746	1228.04	1251.7238	1263.9535	1282.7107	1306.8841	1342.8679	1379.612	1409.9691	1419.3983	1428.5218	1483.498	1496.7725	1498.6326	1521.4358	3005.3016	3035.6217	3046.5953	3053.6928	3058.6774	3094.8229	3096.2311	3113.1792	3117.5235	3145.0333	3776.0889	3834.6137
CC1C2CC1(O)C(O)C2	C[C@H]1[C@H]2C[C@]1(O)[C@@H](O)C2	
InChI=1S/C7H12O2/c1-4-5-2-6(8)7(4,9)3-5/h4-6,8-9H,2-3H2,1H3	InChI=1S/C7H12O2/c1-4-5-2-6(8)7(4,9)3-5/h4-6,8-9H,2-3H2,1H3/t4-,5+,6-,7+/m0/s1
