19
gdb 69497	3.16332	1.47964	1.23541	0.403	74.29	-0.2555	0.0769	0.3324	1077.7365	0.158059	-423.015418	-423.007147	-423.006203	-423.047696	32.41	
C	-0.0439735939	 1.5308269641	 0.0826028409	-0.486242
C	-0.0748527405	 0.0285758068	 0.1317195823	 0.433007
C	-1.3385172293	-0.7325750129	-0.2775885491	-0.318141
C	-1.2480557244	-2.0343319769	 0.5045632856	-0.008805
O	-1.3065641832	-1.8562591688	 1.9297045389	-0.303185
C	-0.0226724452	-2.0868246572	 1.3164858675	 0.409859
C	 0.7192805027	-3.3307674859	 1.7115358778	-0.49875
C	 0.7040774279	-0.7876266176	 1.0730617466	-0.121159
O	 1.1264519508	-0.6476641214	-0.2942395216	-0.30201
H	 0.9262243767	 1.9081855482	 0.4146833852	 0.130452
H	-0.2170199542	 1.8880842045	-0.9386860793	 0.127467
H	-0.8250385822	 1.9532586651	 0.7230895963	 0.128471
H	-2.2440900596	-0.1767865477	-0.0117484875	 0.113633
H	-1.3531288318	-0.9120498673	-1.3580672374	 0.113774
H	-1.7274545085	-2.9371386339	 0.1343843471	 0.094622
H	 0.041338229	-4.1863861802	 1.7611222637	 0.130525
H	 1.5098950314	-3.5456916085	 0.9853907779	 0.137553
H	 1.1866215117	-3.2088060899	 2.6949402821	 0.127476
H	 1.3696117726	-0.3636763005	 1.8223728731	 0.091451
140.1658	182.7231	203.2429	213.1773	255.2679	347.9528	374.788	407.2967	446.7833	512.2514	560.7783	632.6935	735.271	769.0935	840.5035	856.9972	907.9538	925.5288	934.9859	980.1795	1014.8052	1021.32	1069.4245	1077.9656	1110.8641	1119.4075	1213.6562	1233.2378	1247.5643	1284.7496	1316.2481	1339.8856	1408.9478	1411.1693	1444.7401	1461.8602	1468.8928	1486.4954	1488.9113	1497.2899	1498.8841	3035.4184	3036.5649	3044.8675	3088.3308	3098.8773	3100.6232	3125.0018	3125.3615	3134.7147	3146.1071
CC12CC3OC3(C)C1O2	C[C@]12C[C@@H]3O[C@]3(C)[C@H]1O2	
InChI=1S/C7H10O2/c1-6-3-4-7(2,8-4)5(6)9-6/h4-5H,3H2,1-2H3	InChI=1S/C7H10O2/c1-6-3-4-7(2,8-4)5(6)9-6/h4-5H,3H2,1-2H3/t4-,5-,6-,7-/m0/s1
