25
gdb 121845	3.93569	0.70558	0.69553	2.1449	86.76	-0.2541	0.0765	0.3306	1820.7576	0.225484	-426.634145	-426.622382	-426.621438	-426.671359	42.591	
C	-0.0701306428	 1.4685487316	-0.276584215	-0.387621
C	-0.019437089	-0.0361200502	-0.0740575813	-0.028189
O	-1.3428497016	-0.5236519537	 0.0363877841	-0.266246
C	-1.4284047443	-1.9270360947	 0.2059148451	-0.090681
C	-2.9158831585	-2.3104153192	 0.1500499424	 0.355018
C	-3.6650346873	-1.7018400089	 1.3472905072	-0.425049
O	-3.4547811774	-1.8050068545	-1.0720983205	-0.477486
C	-3.0428613	-3.8409393843	 0.0893763194	-0.182678
C	-4.4789410168	-4.3528088895	-0.0584778056	-0.39613
H	 0.9418198624	 1.8748424457	-0.3641923903	 0.118276
H	-0.6221918357	 1.7158511444	-1.1880128922	 0.125795
H	-0.5671973954	 1.9538608911	 0.5681185211	 0.12837
H	 0.4928326882	-0.5258566826	-0.9186913209	 0.090893
H	 0.5495872868	-0.2855790954	 0.8366270248	 0.090099
H	-0.8864794011	-2.4372205114	-0.6059133456	 0.088161
H	-0.9768496902	-2.2302875725	 1.1642313811	 0.085554
H	-3.4630970964	-0.6292320582	 1.4072235898	 0.121101
H	-4.7416378676	-1.8441458712	 1.2336421219	 0.121965
H	-3.3492248703	-2.1609992082	 2.2906823136	 0.103447
H	-3.1203671069	-0.9028010644	-1.1497950091	 0.280944
H	-2.4519061733	-4.1869929929	-0.7668864379	 0.097621
H	-2.5812241261	-4.2684549329	 0.9884590365	 0.088262
H	-4.9612354455	-3.8911020232	-0.9235535819	 0.138867
H	-4.4854344077	-5.4378305426	-0.200549959	 0.106423
H	-5.0855700433	-4.1342663022	 0.8255546422	 0.113283
55.4193	71.7189	96.4715	108.4515	161.9563	209.9271	227.4279	247.8078	265.7326	309.4575	328.0003	342.7599	392.2124	433.9706	450.5624	496.3358	597.7691	765.7726	785.4107	820.5261	897.5073	912.1696	939.0152	962.3086	1005.2627	1032.3267	1061.3316	1073.8733	1132.782	1152.8018	1162.3957	1184.2028	1210.4627	1238.5037	1268.8736	1296.4958	1332.5526	1345.1596	1376.8308	1398.589	1407.5735	1407.7612	1420.1158	1443.6279	1473.7025	1484.066	1490.0522	1498.3344	1500.0716	1504.0302	1507.734	1513.3257	1534.4095	2958.8566	2970.9548	2989.1216	3006.5019	3023.6534	3039.895	3044.5027	3044.9949	3062.3191	3105.7564	3111.7523	3119.3835	3121.4527	3127.5007	3134.0777	3779.3331
CCOCC(C)(O)CC	CCOC[C@@](C)(O)CC	
InChI=1S/C7H16O2/c1-4-7(3,8)6-9-5-2/h8H,4-6H2,1-3H3	InChI=1S/C7H16O2/c1-4-7(3,8)6-9-5-2/h8H,4-6H2,1-3H3/t7-/m0/s1
