23
gdb 103742	2.58069	1.07564	0.87964	2.6242	82.89	-0.2551	0.0719	0.3271	1412.6075	0.20256	-425.403048	-425.391725	-425.390781	-425.439171	41.155	
C	-0.0720257403	 1.5408780662	-0.0028637805	-0.464331
C	-0.0648400914	 0.0202018094	 0.0568226958	 0.298047
C	-1.3228991987	-0.564979973	-0.5574920438	-0.150135
O	-1.3702041931	-0.1644912152	-1.92523447	-0.420174
C	 1.2367348327	-0.7181211155	-0.1650144688	-0.347033
C	 0.6342905862	-0.6830210089	 1.2221637475	 0.298068
C	 1.3102959392	 0.1504756112	 2.3012275895	-0.46434
C	 0.0833007511	-1.9793916241	 1.786403554	-0.150147
O	 1.1758719766	-2.7254759473	 2.3183816668	-0.420172
H	 0.8931477308	 1.9754368592	 0.2613413646	 0.111745
H	-0.3191404073	 1.8607529454	-1.018124779	 0.138539
H	-0.8259448809	 1.9609963518	 0.6745864738	 0.105263
H	-1.3297700635	-1.6597803518	-0.487363901	 0.081566
H	-2.2075400985	-0.1921004325	-0.0144132112	 0.081247
H	-2.2192739544	-0.437346882	-2.284644288	 0.284841
H	 1.2035543211	-1.6557125046	-0.7108979341	 0.109112
H	 2.1329675297	-0.1344802407	-0.3504931847	 0.104697
H	 1.8712940629	 0.9916330309	 1.8914192933	 0.111749
H	 0.5761134576	 0.5509110183	 3.0114802178	 0.105265
H	 2.0071187315	-0.4793262102	 2.8597344007	 0.138536
H	-0.6532057298	-1.7553830079	 2.5763023734	 0.081249
H	-0.4294360855	-2.5654578306	 1.0136300925	 0.081566
H	 0.8168832539	-3.4912168282	 2.7758897514	 0.28484
79.0175	88.2331	125.7017	158.0606	163.4228	186.0124	237.3088	240.1545	289.9441	310.3701	344.0426	368.9695	380.0848	380.8993	458.5346	625.0984	690.5477	740.4153	889.2192	918.5542	943.2579	950.866	968.7299	974.7492	1042.4454	1052.7785	1058.1539	1067.0739	1107.7581	1111.5894	1182.471	1217.8871	1235.1387	1247.1772	1285.6051	1298.4079	1327.5078	1399.2061	1403.529	1413.2787	1447.9896	1472.9621	1478.8674	1490.2764	1497.4746	1497.6762	1509.8158	1521.5708	1523.5946	2957.7865	2962.9829	3018.7675	3027.5977	3032.8239	3044.0291	3100.9471	3106.864	3123.4563	3128.6931	3140.5069	3205.3077	3830.6394	3830.8791
CC1(CO)CC1(C)CO	C[C@@]1(CO)C[C@]1(C)CO	
InChI=1S/C7H14O2/c1-6(4-8)3-7(6,2)5-9/h8-9H,3-5H2,1-2H3	InChI=1S/C7H14O2/c1-6(4-8)3-7(6,2)5-9/h8-9H,3-5H2,1-2H3/t6-,7+
