23
gdb 118961	2.35643	1.04443	0.95863	2.1811	82.15	-0.2415	0.0654	0.3068	1428.1776	0.203293	-425.416017	-425.405343	-425.404399	-425.451882	38.944	
C	 0.0869427973	 1.5815673766	-0.0150998267	-0.381639
C	 0.1390200639	 0.0513706846	-0.0396907519	-0.178147
C	 0.4457426488	-0.5471204038	 1.3390284125	-0.198709
C	 0.6688416497	-2.0625837752	 1.3177843487	 0.397522
C	-0.5643945773	-2.8588220134	 0.917417348	-0.445295
O	 1.8024734842	-2.4077061502	 0.456387054	-0.323314
C	 2.6377261768	-2.7264267571	 1.5837744476	-0.10587
C	 1.4425271888	-2.6094566697	 2.5519887294	 0.006662
O	 1.5372687187	-1.7120478643	 3.6313302664	-0.424874
H	 1.0421872443	 2.0051285252	 0.3144180717	 0.113461
H	-0.1328944616	 1.9880490181	-1.0074677002	 0.108566
H	-0.6870471823	 1.9430774937	 0.671521028	 0.1106
H	-0.8165320586	-0.3330252669	-0.4163997678	 0.091523
H	 0.9085583829	-0.2850540677	-0.7434673913	 0.115292
H	 1.3437285063	-0.071540692	 1.7470715792	 0.103814
H	-0.3626882102	-0.3183670673	 2.0449755724	 0.095868
H	-0.8949159746	-2.5922569873	-0.0899697604	 0.129411
H	-0.3462579276	-3.9305728791	 0.9255844549	 0.11317
H	-1.3884189218	-2.6639120101	 1.6125103824	 0.117489
H	 3.1127724215	-3.7093261105	 1.4807015452	 0.095619
H	 3.4084044604	-1.9651781398	 1.7664027718	 0.097468
H	 1.0581590195	-3.5840954914	 2.8787913	 0.072062
H	 1.9675035808	-2.1604018426	 4.3652982861	 0.289322
70.5653	85.6894	102.6662	138.8034	196.4969	205.7608	251.1017	267.5634	296.4099	319.0301	354.1875	424.4077	495.7246	541.9635	673.8093	746.3179	777.2811	856.2471	883.6264	903.6126	920.8128	965.2819	1013.4065	1037.759	1050.345	1071.5883	1096.6898	1136.0121	1162.7666	1172.2307	1182.393	1219.8232	1255.3659	1297.1623	1307.3214	1323.07	1335.561	1343.8669	1396.253	1407.1414	1414.2804	1442.2295	1471.8601	1488.3072	1495.8299	1498.1834	1500.887	1511.7396	1516.9696	3004.5919	3014.9552	3027.1547	3029.0032	3034.6598	3039.0338	3058.1387	3063.5955	3080.5019	3098.55	3100.2244	3109.0104	3120.1343	3829.3829
CCCC1(C)OCC1O	CCC[C@@]1(C)OC[C@H]1O	
InChI=1S/C7H14O2/c1-3-4-7(2)6(8)5-9-7/h6,8H,3-5H2,1-2H3	InChI=1S/C7H14O2/c1-3-4-7(2)6(8)5-9-7/h6,8H,3-5H2,1-2H3/t6-,7-/m1/s1
