17
gdb 96782	3.64829	1.47561	1.29478	2.3591	75.16	-0.2256	-0.0063	0.2192	1011.8094	0.136885	-417.926666	-417.919448	-417.918504	-417.958396	27.909	
C	 0.1019551318	 1.4063473211	-0.0199401645	-0.342449
N	 0.1121728667	-0.0493299953	-0.0465804312	-0.323223
C	 0.5515317171	-0.6661886143	 0.9517974064	 0.431665
C	 0.7377185308	-2.135221145	 1.2774932519	-0.026467
O	 2.1574845065	-2.4601749846	 1.1522795216	-0.300094
C	 2.4676914577	-1.8492787379	 2.4255290629	 0.089518
C	 2.5486597212	-0.3126836809	 2.3111111201	-0.197366
N	 1.0314849173	-0.2201275576	 2.2678305487	-0.211062
C	 0.9663097955	-1.6731387692	 2.7390076654	-0.036985
H	 0.8654762797	 1.7825188088	-0.7110190912	 0.130403
H	-0.8648100106	 1.7595797058	-0.3925101463	 0.129241
H	 0.2856912918	 1.8282550788	 0.9757358147	 0.128372
H	 0.0919926356	-2.9186073708	 0.8805236362	 0.094579
H	 3.21954919	-2.4131164445	 2.9802890262	 0.090907
H	 2.9163833987	 0.1640194661	 3.2254071714	 0.118076
H	 3.0628992164	 0.0992133073	 1.4394721145	 0.127622
H	 0.3997820341	-1.927905838	 3.630386813	 0.097266
107.5801	152.8825	200.7238	267.4341	344.8034	411.0958	484.7578	643.2414	693.486	749.8494	785.0425	832.5649	841.0472	871.2265	925.52	942.5756	974.131	997.4617	1009.3964	1041.5844	1067.2503	1086.9534	1125.9657	1159.2411	1168.5842	1189.8987	1206.7401	1217.5525	1252.5037	1270.3399	1303.9883	1320.0255	1430.3923	1482.2247	1488.1984	1497.3465	1815.7185	3013.1735	3048.2502	3079.5681	3093.5405	3098.7248	3116.7872	3118.0873	3158.0449
CN=C1C2OC3CN1C23	CN=C1[C@H]2O[C@H]3CN1[C@@H]23	
InChI=1S/C6H8N2O/c1-7-6-5-4-3(9-5)2-8(4)6/h3-5H,2H2,1H3	InChI=1S/C6H8N2O/c1-7-6-5-4-3(9-5)2-8(4)6/h3-5H,2H2,1H3/t3-,4+,5-/m0/s1
