16
gdb 133673	2.60887	1.21407	1.00801	0.3618	57.4	-0.2786	0.0862	0.3649	1165.974	0.119171	-569.379029	-569.37011	-569.369166	-569.413617	31.795	
C	-0.054103966	 1.420471612	 0.1618108634	-0.420374
C	-0.014235998	-0.0948578283	-0.0738849656	-0.160626
C	-1.4108129119	-0.6836427744	-0.1408879121	 0.08981
C	-1.7146595129	-2.0271479003	 0.3598247557	-0.179435
O	-2.0631890558	-0.8618523848	 1.1142974869	-0.242485
C	 0.7567906276	-0.4388521144	-1.3405490909	 0.281373
F	 2.0058315414	 0.0495005672	-1.3073267398	-0.078145
F	 0.8517431872	-1.7673033365	-1.5143861622	-0.079936
F	 0.1588300294	 0.0642103226	-2.4355729183	-0.086745
H	 0.9540151963	 1.8312500542	 0.2502040081	 0.134675
H	-0.5611379317	 1.9299314138	-0.662997969	 0.133785
H	-0.6005657409	 1.6294112237	 1.0842413573	 0.142745
H	 0.5196579174	-0.5818204839	 0.7492455825	 0.112293
H	-2.0479793834	-0.2686805952	-0.9227324724	 0.108614
H	-2.5527214773	-2.5825988773	-0.056991226	 0.123073
H	-0.9152603413	-2.6348587382	 0.7799520826	 0.121379
52.2084	69.2954	157.4381	222.0878	224.8849	246.9922	326.2831	377.3887	399.6145	482.8061	548.892	577.9513	672.2888	804.6909	836.0897	879.6319	944.3678	973.4555	1026.1389	1083.9906	1110.14	1147.4496	1168.6711	1174.208	1186.431	1216.9834	1270.3359	1293.1247	1311.0176	1370.0372	1409.711	1448.7227	1498.6337	1504.6202	1532.0297	3052.391	3063.9012	3091.8622	3108.3647	3126.8594	3137.5444	3180.6777
CC(C1CO1)C(F)(F)F	C[C@@H]([C@H]1CO1)C(F)(F)F	
InChI=1S/C5H7F3O/c1-3(4-2-9-4)5(6,7)8/h3-4H,2H2,1H3	InChI=1S/C5H7F3O/c1-3(4-2-9-4)5(6,7)8/h3-4H,2H2,1H3/t3-,4+/m0/s1
