16
gdb 55346	2.50559	1.4659	1.06427	5.9221	65.73	-0.2351	-0.0134	0.2217	1111.8138	0.122561	-475.031674	-475.02252	-475.021575	-475.06785	31.478	
N	-0.1076756698	 1.4257277792	-0.2013458943	-0.52209
C	 0.0409349197	 0.1260527509	 0.1788166635	 0.403182
O	 1.0828504094	-0.3101812424	 0.6316828741	-0.351845
C	-1.2029471599	-0.7259752054	 0.0040488642	-0.19158
C	-1.6924305366	-1.0594033498	-1.4300313258	-0.084576
O	-1.7263753769	-2.4625011895	-1.1267602035	-0.256839
C	-1.0694409265	-2.2679490291	 0.1348801286	 0.029944
C	 0.3412695182	-2.8545583765	 0.1699326551	 0.15587
O	 0.8872454662	-3.303941377	-0.8014851022	-0.247515
H	 0.6938205868	 2.0334266143	-0.1512986067	 0.269924
H	-0.9542157988	 1.7763335268	-0.6139614486	 0.265063
H	-2.0068970503	-0.3276301678	 0.6287000551	 0.114755
H	-2.6771047932	-0.671855135	-1.7140667546	 0.108048
H	-0.9656171709	-0.8287846417	-2.2190625422	 0.121919
H	-1.6404985521	-2.7058997999	 0.9659690585	 0.097613
H	 0.7951648847	-2.8849242672	 1.1806535288	 0.088126
13.8614	57.7424	101.3698	177.7267	197.7998	252.9746	282.1588	345.1662	425.1434	555.4078	626.3033	661.4753	733.5865	761.1594	774.9738	892.3115	950.4524	989.4901	1008.3616	1064.7443	1076.6953	1094.2939	1109.1896	1165.0397	1226.1938	1254.9099	1280.7892	1334.7986	1362.309	1400.7351	1414.2049	1524.3209	1621.3836	1786.9302	1834.747	2928.479	3008.0233	3019.5401	3062.7182	3081.607	3601.9416	3737.1582
NC(=O)C1COC1C=O	NC(=O)[C@H]1CO[C@H]1C=O	
InChI=1S/C5H7NO3/c6-5(8)3-2-9-4(3)1-7/h1,3-4H,2H2,(H2,6,8)	InChI=1S/C5H7NO3/c6-5(8)3-2-9-4(3)1-7/h1,3-4H,2H2,(H2,6,8)/t3-,4-/m0/s1
