13
gdb 44218	3.51803	1.48905	1.19369	4.0292	64.22	-0.2635	-0.0822	0.1813	970.0027	0.090454	-456.60969	-456.603068	-456.602124	-456.641083	24.869	
O	-0.2573786917	 0.1769830953	-0.3455373578	-0.305753
C	-0.0624337097	 1.298288717	-0.0157064246	 0.458479
O	-0.9591277972	 2.2024524603	 0.4974610669	-0.247718
C	 0.0863914508	 3.2282820088	 0.6673110379	 0.004006
C	 1.1236718881	 2.2900049623	 0.0405533284	-0.281345
C	 1.4499880269	 2.925883349	-1.2865320171	-0.064205
C	 0.7767233638	 4.0671423793	-1.492516464	-0.174226
C	-0.0885374026	 4.3906856686	-0.3317590706	 0.382265
O	-0.7959181964	 5.3531828812	-0.1723012167	-0.304517
H	 0.1659629619	 3.5339242579	 1.7093219618	 0.126131
H	 1.9834163639	 1.9515076146	 0.6197623714	 0.130554
H	 2.1356417798	 2.4619798647	-1.9857887443	 0.141363
H	 0.8198876425	 4.693074111	-2.3741781513	 0.134966
100.4903	158.9677	250.0856	326.6898	436.5572	487.537	601.604	679.1896	688.8984	755.4102	804.6234	823.2984	873.1415	915.7912	940.0809	961.3149	1001.382	1025.0305	1095.2457	1112.0204	1178.4771	1191.6593	1253.6788	1274.9109	1302.0452	1361.7316	1631.9487	1829.5259	1945.3113	3116.4741	3139.6456	3206.7633	3235.1624
O=C1OC2C1C=CC2=O	O=C1O[C@H]2[C@@H]1C=CC2=O	
InChI=1S/C6H4O3/c7-4-2-1-3-5(4)9-6(3)8/h1-3,5H	InChI=1S/C6H4O3/c7-4-2-1-3-5(4)9-6(3)8/h1-3,5H/t3-,5-/m0/s1
