18
gdb 17905	2.76187	2.29629	2.12606	2.8325	69.79	-0.2282	-0.006	0.2223	786.7764	0.157572	-347.842982	-347.836501	-347.835557	-347.873518	25.918	
O	 0.0009285276	 0.0487770154	 0.0048419857	-0.330139
C	-0.0150257973	 1.247612711	 0.0107410809	 0.421013
C	-1.1857367814	 2.2427671886	 0.032225713	-0.107753
C	-0.8085508813	 3.0656062356	 1.2861337248	-0.220781
C	 0.7653034832	 3.0866795215	 1.2638859876	-0.22078
C	 1.1287906051	 2.2737302659	-0.0004745143	-0.107753
C	 0.7296777515	 3.0988846695	-1.2460444955	-0.220782
C	-0.8441800985	 3.077848171	-1.223796889	-0.220782
H	-2.1795825904	 1.7988287044	 0.0441751161	 0.07866
H	-1.2371991316	 4.0709747276	 1.2479141699	 0.102819
H	-1.1797963543	 2.5845411141	 2.1951393704	 0.109793
H	 1.1656291426	 4.1031482463	 1.2139129345	 0.102819
H	 1.1748390514	 2.6161025677	 2.1618694375	 0.109793
H	 2.1340948742	 1.8565356525	-0.0167738543	 0.07866
H	 1.1314303256	 4.1148634479	-1.1975936757	 0.102816
H	 1.1134713528	 2.6370891676	-2.1598198371	 0.10979
H	-1.2411723974	 2.605650114	-2.1265496346	 0.10979
H	-1.2714038518	 4.0827470295	-1.16359281	 0.102816
135.2979	148.0514	293.4657	375.7997	467.4074	536.0079	625.9527	703.694	766.582	795.7027	838.2913	859.9458	870.2194	876.4157	888.0071	961.631	993.6968	995.4494	1031.3475	1075.3467	1118.2383	1131.0358	1141.5293	1194.5148	1203.4297	1237.6126	1270.3582	1273.3397	1282.7486	1304.3568	1330.0339	1339.0275	1348.2092	1482.9455	1497.0265	1499.963	1517.4955	1879.7812	3048.7974	3049.9026	3059.369	3060.5149	3086.2858	3087.2587	3106.0616	3108.8185	3133.1812	3135.8051
O=C1C2CCC1CC2	O=C1[C@H]2CC[C@@H]1CC2	
InChI=1S/C7H10O/c8-7-5-1-2-6(7)4-3-5/h5-6H,1-4H2	InChI=1S/C7H10O/c8-7-5-1-2-6(7)4-3-5/h5-6H,1-4H2/t5-,6+
