18
gdb 58842	3.27446	1.36098	1.13216	2.4867	70.99	-0.2432	0.0147	0.2579	1102.5334	0.147319	-439.079338	-439.070963	-439.070019	-439.11235	31.919	
C	-0.0346350092	 1.5120689012	 0.0787646342	-0.415727
C	-0.0183061496	-0.0041691659	-0.1039235806	 0.028286
O	 0.8154006246	-0.6523751413	 0.8479995316	-0.424392
C	-1.4115693374	-0.6021670043	-0.0606466917	 0.405747
C	-2.1183591389	-1.056333526	 1.1850640981	-0.359621
C	-1.8068065294	-2.0592405916	 0.0864551228	-0.067141
N	-2.8574242946	-2.2884223869	-0.8830048579	-0.256233
C	-3.0454526629	-1.1673850363	-1.4509868616	 0.088283
O	-2.2681031192	-0.1079207916	-1.0919337798	-0.259198
H	 0.9819736555	 1.910694197	 0.0208116469	 0.124594
H	-0.6460920464	 1.9872788958	-0.6926724845	 0.141078
H	-0.4618032757	 1.7773864767	 1.0539797101	 0.111838
H	 0.4159734825	-0.2443074836	-1.0822253878	 0.101088
H	 0.6846577923	-0.2179258523	 1.697504031	 0.285241
H	-1.5097974585	-1.1387503264	 2.077993239	 0.114206
H	-3.1515384561	-0.7661946854	 1.3436898104	 0.122931
H	-1.1150093336	-2.8700908147	 0.2742030244	 0.115916
H	-3.7783155136	-0.9519060743	-2.2187434646	 0.143102
61.6774	153.2148	195.8916	253.0175	267.6553	303.1383	373.984	392.4969	465.9162	484.1756	602.2367	681.9821	748.5878	818.6367	854.0209	908.0254	915.3377	937.0232	959.534	1009.0798	1025.1744	1049.8772	1066.2386	1084.5262	1106.9349	1129.6222	1138.3434	1191.8635	1262.1068	1304.3964	1332.3646	1366.2792	1388.5675	1399.8852	1411.6351	1463.2271	1490.0035	1496.3245	1668.7647	3027.6057	3038.5704	3103.4167	3128.9778	3134.7471	3199.372	3230.4988	3231.2817	3809.3127
CC(O)C12CC1N=CO2	C[C@@H](O)[C@]12C[C@H]1N=CO2	
InChI=1S/C6H9NO2/c1-4(8)6-2-5(6)7-3-9-6/h3-5,8H,2H2,1H3	InChI=1S/C6H9NO2/c1-4(8)6-2-5(6)7-3-9-6/h3-5,8H,2H2,1H3/t4-,5-,6-/m1/s1
