20
gdb 7502	3.58339	1.20481	1.09272	2.0491	70.95	-0.2553	0.0668	0.3221	1165.9096	0.175744	-386.122707	-386.113582	-386.112638	-386.156493	33.683	
O	-0.3289915174	 1.4486176351	 0.3293162152	-0.417353
C	-0.0580338451	 0.0687321933	 0.1368663807	-0.096564
C	-1.3950225901	-0.6466916896	-0.0221852692	-0.21137
C	-1.2886405463	-2.1679840113	-0.1698070307	 0.406018
O	-0.5451917741	-2.5348244876	-1.3212782274	-0.483384
C	-0.9343969481	-2.9204887166	 1.1563028624	-0.2785
C	-2.4434321094	-3.2351386508	 1.3405943908	-0.211641
C	-2.6693721835	-2.8700035027	-0.1512328772	-0.253727
H	 0.5097311895	 1.9126974173	 0.4062452896	 0.285446
H	 0.5594155919	-0.0840596892	-0.7641350436	 0.077066
H	 0.4982440571	-0.349020046	 0.992107295	 0.087276
H	-2.0148481885	-0.40479192	 0.8491692425	 0.105868
H	-1.9056949464	-0.241900742	-0.9034001137	 0.110705
H	 0.3557213192	-2.2096876438	-1.2237106377	 0.27434
H	-0.3546248848	-3.8190389597	 0.9299966591	 0.103214
H	-0.4314991483	-2.3591792147	 1.9484905882	 0.090723
H	-2.7036371613	-4.2498847727	 1.6472658757	 0.100445
H	-2.9340563741	-2.5346871776	 2.0212217319	 0.104766
H	-3.5404778347	-2.2614998108	-0.4071495586	 0.095769
H	-2.6427725253	-3.7488400406	-0.799555943	 0.110903
80.3927	97.3936	141.33	179.3746	230.9541	273.9504	321.6305	329.9469	372.0648	446.9688	487.7941	647.3478	736.6768	790.0397	805.0705	864.6239	919.0278	936.9923	967.7872	979.9926	1017.6811	1031.9304	1062.6173	1091.2745	1172.9978	1197.6038	1199.6138	1240.3276	1243.9381	1250.4492	1266.9661	1287.8586	1292.6971	1317.3728	1334.2018	1378.6034	1462.3856	1467.6861	1480.4101	1484.0045	1504.8815	1529.6887	2952.5687	2979.2147	3035.9998	3053.6087	3060.895	3068.2812	3082.001	3103.2006	3115.1343	3128.297	3810.913	3828.048
OCCC1(O)CCC1	OCCC1(O)CCC1	
InChI=1S/C6H12O2/c7-5-4-6(8)2-1-3-6/h7-8H,1-5H2	InChI=1S/C6H12O2/c7-5-4-6(8)2-1-3-6/h7-8H,1-5H2
