16
gdb 85843	2.05109	1.56025	1.413	3.7073	64.61	-0.2722	-0.0048	0.2674	1017.9776	0.122405	-475.009219	-475.000232	-474.999287	-475.042529	33.547	
O	 0.0631543765	 1.3160377982	-0.3055395442	-0.440754
C	 0.0607448755	-0.0836936246	-0.0666535282	 0.074635
C	 0.247883413	-0.5084852914	 1.4079565748	-0.334454
C	-1.3140000231	-0.5707085272	 1.5693258463	 0.211566
O	-1.886794124	-1.6855706916	 2.195674532	-0.458013
C	-1.8406857776	 0.694079008	 2.0967351433	 0.218531
N	-2.2050545877	 1.7099623088	 2.5135684576	-0.33704
C	-1.3966826077	-0.6315010162	-0.005669777	 0.112802
O	-2.3688955342	 0.0776698625	-0.686471575	-0.416667
H	-0.1394186742	 1.7894517655	 0.5097882148	 0.303339
H	 0.7258261922	-0.5260027748	-0.8093471156	 0.103345
H	 0.6570239688	-1.5175172977	 1.4939435764	 0.134524
H	 0.8031736285	 0.1710360636	 2.0577453901	 0.125322
H	-1.8057615873	-1.5937983695	 3.1521163931	 0.295891
H	-1.4571204322	-1.6922452077	-0.2697427968	 0.112479
H	-1.9992451865	 0.961363964	-0.8347164316	 0.294494
95.2559	131.333	190.1482	235.2942	258.6713	294.0431	303.4195	326.6534	367.3878	442.2544	526.414	530.0396	609.1689	641.2947	686.8125	795.5139	825.8743	859.7157	927.8509	972.5339	1004.3292	1118.8142	1129.9028	1147.2245	1199.8245	1220.4607	1242.6289	1267.7656	1315.8824	1344.0642	1348.7475	1418.2636	1438.1456	1470.2469	2339.8193	3069.3436	3075.1864	3107.4124	3137.7893	3716.761	3798.4859	3798.6299
OC1CC(O)(C#N)C1O	O[C@H]1C[C@@](O)(C#N)[C@H]1O	
InChI=1S/C5H7NO3/c6-2-5(9)1-3(7)4(5)8/h3-4,7-9H,1H2	InChI=1S/C5H7NO3/c6-2-5(9)1-3(7)4(5)8/h3-4,7-9H,1H2/t3-,4-,5+/m0/s1
