21
gdb 115371	3.42866	0.96722	0.86208	2.3995	80.71	-0.2458	0.014	0.2599	1396.5227	0.18332	-424.234658	-424.225415	-424.224471	-424.268657	35.128	
O	-0.057329637	 1.454514414	 0.0029124289	-0.421596
C	 0.0323056372	 0.0372975386	-0.0139669592	-0.094388
C	-1.387099336	-0.5326037659	 0.0491850067	-0.011535
C	-1.3912414654	-2.0551142768	-0.1472923264	-0.231112
C	-2.7750967534	-2.638374489	 0.1546199917	-0.229859
C	-3.1941030635	-2.3690216648	 1.6081333686	 0.108229
O	-2.6017928081	-3.3045550653	 2.5208798046	-0.440926
C	-2.8795356136	-0.9553746777	 2.0257422829	-0.128856
C	-2.0735588169	-0.1457190534	 1.3366632114	-0.036502
H	 0.8321388239	 1.814343981	 0.0620001135	 0.288653
H	 0.5256729712	-0.3182287609	-0.9327425982	 0.086556
H	 0.6168680795	-0.3360115478	 0.8425058206	 0.084217
H	-1.9357646992	-0.0654922134	-0.7840248833	 0.095218
H	-1.0774336242	-2.3072591921	-1.1659265981	 0.094675
H	-0.6518573283	-2.5113617913	 0.5268352168	 0.086596
H	-3.5154354367	-2.1854919408	-0.5178128496	 0.094793
H	-2.7940662799	-3.7187438793	-0.0169224798	 0.101361
H	-4.271301724	-2.5503308363	 1.7047115873	 0.083801
H	-1.7099631035	-2.9930439194	 2.706696179	 0.275142
H	-3.3204529923	-0.6218621626	 2.9621887667	 0.090123
H	-1.8758604499	 0.8626760332	 1.6898570759	 0.105412
67.3219	119.8602	186.9899	211.4411	241.4327	263.0039	275.8037	349.7577	403.2592	418.6503	493.4092	555.041	603.1001	722.3223	764.4876	823.8442	841.505	916.693	941.8587	986.4397	1006.7247	1024.0556	1060.48	1075.7248	1086.0031	1109.7663	1121.1005	1167.0802	1195.6558	1243.581	1253.1866	1255.5231	1275.5354	1316.7791	1343.006	1362.186	1373.3733	1387.3135	1407.6666	1427.821	1453.8448	1475.8304	1492.58	1520.1723	1711.0637	2962.1045	2979.0905	2997.9659	3007.765	3022.0976	3038.6788	3065.7906	3086.5402	3150.6003	3177.5291	3812.858	3834.8732
OCC1CCC(O)C=C1	OC[C@H]1CC[C@@H](O)C=C1	
InChI=1S/C7H12O2/c8-5-6-1-3-7(9)4-2-6/h1,3,6-9H,2,4-5H2	InChI=1S/C7H12O2/c8-5-6-1-3-7(9)4-2-6/h1,3,6-9H,2,4-5H2/t6-,7+/m1/s1
