17
gdb 62320	3.86566	1.30056	1.1332	3.9863	77.07	-0.2461	0.011	0.2571	1079.7371	0.136083	-380.781811	-380.77401	-380.773066	-380.813917	30.355	
C	-0.0357716892	 1.6014489095	 0.0463948494	-0.49678
C	 0.0795877099	 0.073926162	-0.0518065476	 0.128328
C	-0.9985858744	-0.579312807	 0.6656498091	 0.237776
N	-1.8632632915	-1.0831565685	 1.2468317415	-0.34157
C	 0.4752525564	-0.7635079614	-1.2605873968	-0.105534
C	 1.7743047066	-0.3053486961	-1.9505558239	-0.063831
C	 2.5549715256	 0.7793707202	-1.3086650122	-0.251766
N	 2.5896430244	-0.5630244858	-0.705307518	-0.145063
C	 1.2945751244	-0.8885055824	-0.0073459889	-0.03448
H	 0.155757947	 2.0819462686	-0.9136167222	 0.144396
H	-1.0525373257	 1.8656860675	 0.3463934822	 0.146142
H	 0.6445531267	 2.0148790048	 0.7963145177	 0.145663
H	-0.2056939624	-1.4692923324	-1.7170993946	 0.121674
H	 2.0777409939	-0.7398377186	-2.8972659323	 0.116901
H	 3.4999483684	 1.0125895307	-1.7929199887	 0.132152
H	 2.1141766575	 1.6120607425	-0.785457219	 0.13279
H	 1.3286473025	-1.6650428338	 0.7454321242	 0.133205
102.3389	162.7437	200.8476	237.7713	317.7523	351.8222	444.4526	527.2604	551.9874	588.8141	672.7839	688.4795	739.9179	805.1898	847.118	851.8973	933.8679	972.9959	978.6204	1007.1197	1038.4239	1055.8224	1084.1218	1095.1706	1115.6252	1134.7078	1181.4254	1228.3828	1263.7543	1274.0933	1327.6308	1373.8334	1418.0777	1492.8262	1503.3388	1516.6587	2343.5295	3051.6123	3118.9673	3136.9892	3140.944	3167.976	3198.6687	3209.0319	3278.0796
CC1(C#N)C2C3CN3C12	C[C@@]1(C#N)[C@H]2[C@H]3CN3[C@@H]12	
InChI=1S/C7H8N2/c1-7(3-8)5-4-2-9(4)6(5)7/h4-6H,2H2,1H3	InChI=1S/C7H8N2/c1-7(3-8)5-4-2-9(4)6(5)7/h4-6H,2H2,1H3/t4-,5+,6-,7-,9?/m1/s1
