16
gdb 98641	3.42351	1.0316	0.87842	1.3905	66.52	-0.2603	-0.0041	0.2561	1306.395	0.123774	-475.081203	-475.072321	-475.071377	-475.11607	30.879	
C	-0.7280918891	 1.26284632	-0.9411595101	-0.33559
N	-0.8215084121	-0.10011125	-0.4548300456	-0.30972
C	-0.3207946887	-0.4819300257	 0.7429523265	 0.369686
O	 0.238160232	 0.245060987	 1.545558609	-0.381504
C	-0.5061344182	-1.956399528	 1.0768292018	 0.031382
C	-1.5802118703	-2.2832799884	 2.1320399572	-0.415988
C	-2.2555986198	-3.0255606932	 0.9807253264	 0.446917
O	-3.2346087864	-3.6639176133	 0.7840795255	-0.299963
O	-1.2598830241	-2.7170142194	 0.0696073693	-0.265409
H	-1.7214397803	 1.6812115574	-1.134440995	 0.13327
H	-0.2339500531	 1.8539074479	-0.1691272477	 0.172365
H	-0.1400269429	 1.3143978576	-1.863657186	 0.133772
H	-1.2460111125	-0.8127363485	-1.0278997414	 0.267815
H	 0.4698421659	-2.4137048692	 1.247883954	 0.133698
H	-1.2670691537	-2.9260536718	 2.955537479	 0.156499
H	-2.1404857667	-1.4329001925	 2.5226058771	 0.16277
55.3447	78.4075	87.5585	140.8923	204.0211	274.3708	327.7442	426.746	512.4424	523.5289	574.4012	618.2204	744.0666	771.1114	838.7707	910.8358	955.5152	982.2006	1036.5793	1097.3731	1110.7614	1127.8222	1155.322	1179.2842	1221.1566	1268.3583	1279.8613	1344.5575	1442.9222	1457.8813	1495.8182	1499.788	1576.2847	1785.0952	1951.8228	3034.1987	3089.1598	3098.7777	3108.2055	3154.1727	3156.7758	3632.1824
CNC(=O)C1CC(=O)O1	CNC(=O)[C@H]1CC(=O)O1	
InChI=1S/C5H7NO3/c1-6-5(8)3-2-4(7)9-3/h3H,2H2,1H3,(H,6,8)	InChI=1S/C5H7NO3/c1-6-5(8)3-2-4(7)9-3/h3H,2H2,1H3,(H,6,8)/t3-/m1/s1
