14
gdb 8171	3.00868	2.71804	1.83355	3.096	56.78	-0.2745	0.0041	0.2786	725.6118	0.108434	-419.692536	-419.686385	-419.68544	-419.722526	24.544	
O	 0.0549135719	 1.4320652166	 0.0920988626	-0.473695
C	-0.0134746129	 0.0634125102	 0.0941140348	 0.269362
C	 0.3411962524	-0.8609414065	 1.3173569286	-0.290096
C	-0.3552571781	-1.8897131543	 0.4013808887	 0.086668
C	-1.3359942273	-0.7799378255	-0.0331631783	-0.290147
O	 0.5663313177	-1.9667188972	-0.7482338687	-0.237266
C	 0.8086782917	-0.648750649	-0.9697699512	 0.407005
O	 1.5127637233	-0.1755456001	-1.8150158212	-0.375239
H	 0.6485144654	 1.6812991349	-0.6322243542	 0.299761
H	 1.3928796224	-1.0288015278	 1.5583996775	 0.123274
H	-0.2386766111	-0.6108080223	 2.2071928745	 0.123394
H	-0.6415382588	-2.8935530512	 0.6965208366	 0.110388
H	-2.0668723189	-0.5227366334	 0.7351548041	 0.123349
H	-1.8038019976	-0.8743047943	-1.0153047439	 0.123243
182.4603	261.4981	336.0977	412.6185	470.4052	478.9793	545.7112	615.0282	703.9084	752.3761	797.9198	864.232	905.86	934.2509	940.1597	980.8868	988.9275	1039.3099	1096.918	1125.0765	1160.6635	1171.4049	1231.4764	1234.5936	1321.5092	1381.0329	1408.2137	1477.4619	1517.6142	1899.6982	3075.1056	3080.1087	3145.1667	3150.3959	3186.9911	3722.9415
OC12CC(C1)OC2=O	O[C@@]12C[C@@H](C1)OC2=O	
InChI=1S/C5H6O3/c6-4-5(7)1-3(2-5)8-4/h3,7H,1-2H2	InChI=1S/C5H6O3/c6-4-5(7)1-3(2-5)8-4/h3,7H,1-2H2/t3-,5-
