25
gdb 101680	4.2573	0.65684	0.59824	2.5351	86.57	-0.249	0.0615	0.3105	1977.5229	0.226743	-426.641472	-426.630016	-426.629072	-426.678256	41.974	
C	-0.1565256986	 1.568125199	-0.0465696435	-0.384407
C	 0.0081028936	 0.0464111367	-0.0409372289	-0.165686
C	 0.7071281138	-0.4735363028	 1.2161398306	 0.145049
O	-0.075558157	-0.0756288242	 2.33182978	-0.452425
C	 0.906147237	-1.9977604036	 1.1782038351	-0.230251
C	 1.7152333132	-2.5536715485	 2.3571833054	 0.117032
O	 1.0889357367	-2.246566844	 3.6190162591	-0.431762
C	 1.9869748919	-4.0567391002	 2.2369562881	-0.188113
C	 2.8553689222	-4.6111426146	 3.3689359503	-0.382881
H	 0.8174686139	 2.070152593	-0.023590749	 0.107036
H	-0.6839005973	 1.9045708875	-0.9445447654	 0.103627
H	-0.7212857425	 1.8943710778	 0.8296871342	 0.138497
H	-0.9763433128	-0.4342320016	-0.1083644777	 0.095572
H	 0.5811252625	-0.2746016906	-0.9196956724	 0.084957
H	 1.7083509552	-0.0039755684	 1.271327072	 0.051984
H	 0.2980604472	-0.5284828539	 3.1010368036	 0.283571
H	-0.0796123266	-2.4845941864	 1.1501161116	 0.089683
H	 1.4221005574	-2.2687861093	 0.2484410777	 0.095841
H	 2.6750061005	-2.0227763509	 2.4110879127	 0.091863
H	 0.2519701507	-2.7265066369	 3.6473569187	 0.284076
H	 1.0223691199	-4.5850234354	 2.2079142324	 0.088809
H	 2.4636078786	-4.2469884142	 1.2675877493	 0.101829
H	 2.9862920033	-5.6928768983	 3.2724774399	 0.11233
H	 3.8498882797	-4.1517701556	 3.3616586375	 0.116666
H	 2.4037386675	-4.4039773446	 4.3425419385	 0.127104
69.8885	72.4537	109.0349	122.1138	147.9049	215.3783	232.8694	239.187	291.5408	303.5267	333.7416	339.9448	459.0479	469.0789	538.4688	548.9743	652.0097	777.1806	781.1551	852.2995	861.2865	917.6413	962.2671	996.8842	1015.6163	1026.7078	1054.0406	1081.8953	1093.3989	1109.0357	1136.8031	1171.9075	1209.6184	1262.904	1280.8666	1289.0675	1330.5513	1344.1686	1356.8836	1371.5372	1392.2723	1392.3874	1406.8578	1408.1042	1420.7942	1458.4799	1471.0571	1476.7671	1483.3979	1495.5884	1496.3415	1508.6281	1510.0008	2911.4885	3000.915	3006.5173	3022.3385	3030.1786	3035.3917	3039.4553	3050.3327	3058.9853	3066.5364	3098.0391	3104.4835	3122.642	3129.4841	3719.4872	3782.9175
CCC(O)CC(O)CC	CC[C@@H](O)C[C@@H](O)CC	
InChI=1S/C7H16O2/c1-3-6(8)5-7(9)4-2/h6-9H,3-5H2,1-2H3	InChI=1S/C7H16O2/c1-3-6(8)5-7(9)4-2/h6-9H,3-5H2,1-2H3/t6-,7+
