16
gdb 48828	2.67976	1.6048	1.13302	3.1402	70.24	-0.2461	-0.0463	0.1998	1051.9413	0.124738	-437.903499	-437.895773	-437.894829	-437.935869	28.916	
O	-0.9856657118	 1.5396757521	 0.0520993933	-0.280872
C	 0.0896966336	 0.9924209779	 0.1575406399	 0.064688
C	 1.3688541764	 1.7068663157	-0.0514722382	 0.117406
N	 1.3434594202	 3.2008682742	-0.0257578116	-0.356355
C	 1.593579331	 2.5538939527	-1.2917177023	-0.061501
C	 3.070252432	 2.4988061345	-1.6645408753	-0.223072
C	 3.7790525788	 1.939005235	-0.4099450466	-0.337121
C	 2.7054591894	 1.1272255585	 0.3213408362	 0.369134
O	 2.8718867389	 0.1437690409	 0.9977668746	-0.315772
H	 0.1828718105	-0.0780794924	 0.4199585225	 0.114745
H	 0.3503512279	 3.4396110839	 0.0336674957	 0.258718
H	 0.825546441	 2.5722347246	-2.0591130197	 0.1204
H	 3.2022766714	 1.8229442552	-2.5155497249	 0.119053
H	 3.4415427079	 3.484573744	-1.9586706599	 0.124234
H	 4.6497098751	 1.3182748004	-0.6256177983	 0.133176
H	 4.0970554377	 2.7482490028	 0.2557397445	 0.153137
111.101	138.0681	180.7419	221.8279	287.0987	361.5295	424.0991	496.5521	578.3022	630.3225	675.588	744.8891	803.7828	834.752	886.8386	918.8122	985.7702	993.1448	1014.6038	1058.872	1088.4913	1130.1957	1161.4639	1191.4302	1242.8659	1284.8419	1291.3493	1339.2359	1347.5659	1415.5933	1427.3245	1452.6611	1487.9341	1788.0415	1837.1198	2964.9566	3054.9915	3064.6728	3099.4566	3132.0951	3165.8136	3438.7834
O=CC12NC1CCC2=O	O=C[C@]12N[C@H]1CCC2=O	
InChI=1S/C6H7NO2/c8-3-6-4(7-6)1-2-5(6)9/h3-4,7H,1-2H2	InChI=1S/C6H7NO2/c8-3-6-4(7-6)1-2-5(6)9/h3-4,7H,1-2H2/t4-,6-/m0/s1
