19
gdb 53569	4.91992	0.71546	0.70382	1.5932	84.37	-0.2345	0.0636	0.2981	1682.3167	0.158088	-385.816966	-385.80769	-385.806746	-385.853187	32.949	
C	-0.018518089	 1.3977298198	 0.2023195731	-0.495877
C	-0.0174210565	-0.0439305465	-0.0034065054	 0.070979
C	-0.00412801	-1.2362567528	-0.170277272	 0.059525
C	-0.0147801791	-2.682363174	-0.3737416987	-0.387533
C	-1.3876236246	-3.2932285408	-0.1227142082	-0.018694
C	-1.6686585516	-4.7842338254	-0.0455225412	-0.170875
C	-0.5681343266	-5.4895936064	 0.7388139228	-0.091675
O	-0.6697543917	-4.5319024848	 1.8271282312	-0.281321
C	-1.7837777374	-3.9030305507	 1.1845579928	 0.095768
H	 0.6060930273	 1.6796269422	 1.0573776197	 0.146291
H	 0.366232643	 1.9274962048	-0.6764187391	 0.144422
H	-1.0299296476	 1.7725454797	 0.3957931425	 0.144288
H	 0.3121376907	-2.9148262002	-1.3959786512	 0.122356
H	 0.7083824671	-3.1507355682	 0.3034986077	 0.143462
H	-2.2068995534	-2.7576405258	-0.596910968	 0.099597
H	-2.4284733888	-5.2713537214	-0.6417181687	 0.098258
H	-0.8577894326	-6.4879985671	 1.0847858615	 0.11085
H	 0.4383594807	-5.5289737932	 0.3055696011	 0.106748
H	-2.6171229799	-3.5994333893	 1.8077643601	 0.10343
21.6993	41.6346	87.7997	194.4754	209.7663	239.8419	296.7549	380.6222	423.776	475.4133	594.7638	740.6318	751.428	806.8872	816.3834	888.1744	954.2375	974.3789	977.856	1020.338	1036.165	1053.1912	1054.2223	1057.9848	1078.5361	1120.0206	1164.576	1169.4339	1174.565	1250.4064	1261.938	1306.7047	1328.1814	1366.1536	1415.5424	1438.2982	1468.7296	1479.4762	1480.1158	1520.0742	2374.6289	3016.7606	3024.546	3024.9093	3064.9604	3071.9002	3083.673	3084.4564	3144.181	3179.0112	3202.3817
CC#CCC1C2COC12	CC#CC[C@H]1[C@H]2CO[C@@H]12	
InChI=1S/C8H10O/c1-2-3-4-6-7-5-9-8(6)7/h6-8H,4-5H2,1H3	InChI=1S/C8H10O/c1-2-3-4-6-7-5-9-8(6)7/h6-8H,4-5H2,1H3/t6-,7+,8-/m0/s1
