18
gdb 10771	2.74037	1.97662	1.41882	2.2959	67.63	-0.2465	-0.0233	0.2232	936.5481	0.151825	-384.95064	-384.941754	-384.94081	-384.983764	32.187	
C	-0.1766721795	 1.4878723652	 0.2093481336	-0.392064
C	-0.0186397919	-0.0169402127	 0.0325448273	-0.082325
C	 0.8410380263	-0.4667762433	-1.2140049537	-0.09016
C	 0.9615812058	 0.3815149398	-2.4699391417	-0.41114
C	 2.0120671452	-0.4907723576	-0.229207872	 0.322833
O	 3.15499103	-0.1219027391	-0.2879267845	-0.319253
C	 1.0894307709	-0.634509668	 0.9776242325	 0.064798
O	 1.471763757	 0.0065680005	 2.1557610657	-0.432193
H	 0.7827057768	 2.0115825166	 0.1363523304	 0.12076
H	-0.8451968296	 1.9072316039	-0.5482799834	 0.118042
H	-0.5906666202	 1.709493108	 1.1965524187	 0.133385
H	-0.9851588464	-0.5193303346	 0.1069132095	 0.080225
H	 0.5652720405	-1.4964214349	-1.471211602	 0.102524
H	 1.2621660577	 1.4059170815	-2.2351642117	 0.129674
H	 1.7187762736	-0.0377719247	-3.1390610736	 0.133136
H	 0.0129939976	 0.4185405923	-3.0144640605	 0.120714
H	 0.8478154803	-1.6850216728	 1.1839968277	 0.103908
H	 2.313003646	 0.4454786997	 1.9745211878	 0.297136
85.4445	157.3969	176.8977	198.8597	219.0425	228.3724	241.1942	293.3632	450.2866	511.6105	534.6412	589.2967	748.8257	767.0611	814.9453	846.5811	948.4002	987.4824	1007.1316	1046.7514	1080.5593	1112.5117	1157.7377	1164.3921	1183.3355	1240.5775	1267.9419	1320.0713	1354.0062	1370.7144	1408.128	1412.7114	1419.9182	1489.2403	1489.6059	1500.1524	1502.2945	1858.1383	3026.7797	3038.0408	3040.6693	3044.8661	3082.7211	3106.0979	3110.7015	3118.8644	3122.4915	3766.403
CC1C(C)C(=O)C1O	C[C@H]1[C@@H](C)C(=O)[C@H]1O	
InChI=1S/C6H10O2/c1-3-4(2)6(8)5(3)7/h3-5,7H,1-2H3	InChI=1S/C6H10O2/c1-3-4(2)6(8)5(3)7/h3-5,7H,1-2H3/t3-,4+,5-/m0/s1
