14
gdb 29462	3.38035	1.68583	1.12641	2.8052	69.3	-0.1823	0.0161	0.1984	990.8548	0.103585	-432.888974	-432.881416	-432.880472	-432.921458	28.001	
N	 0.0229800363	 1.4177114016	 0.1764025329	-0.611422
C	 0.0303359175	 0.0213475597	 0.0528760634	 0.105394
C	-1.0558039226	-0.8332397423	 0.0126521771	-0.15529
N	-0.6159519263	-2.1771693861	-0.0311805307	-0.427541
C	 0.7304362412	-2.1184245711	-0.0152392653	 0.408814
C	 1.1828231047	-0.8279451168	 0.0322861378	 0.200774
N	 2.5770717267	-0.8591175769	 0.0221901511	-0.347619
C	 2.8549439973	-2.1186962031	-0.0268107863	 0.02521
O	 1.7621518197	-2.9870382059	-0.0550757369	-0.2188
H	 0.8455080779	 1.8397054389	-0.2344483268	 0.252971
H	-0.806526844	 1.8472968906	-0.2116154035	 0.240497
H	-2.1108092321	-0.6159970852	 0.025067612	 0.110801
H	-1.2061358886	-2.9880193104	-0.0467395608	 0.270782
H	 3.8188186523	-2.6002044731	-0.0464156538	 0.145429
49.0197	177.1793	214.3406	236.2239	270.2376	423.1755	539.7108	556.5569	620.6256	633.1991	650.8191	696.9683	735.7407	758.268	780.204	812.5044	917.5114	1020.4237	1059.0197	1084.8114	1142.1185	1240.6238	1283.735	1322.3176	1336.7392	1487.628	1539.7584	1548.0176	1605.567	1631.8972	1658.1127	3270.306	3287.7094	3539.8817	3631.8635	3705.9623
NC1=CNC2=C1N=CO2	Nc1c[nH]c2c1nco2	
InChI=1S/C5H5N3O/c6-3-1-7-5-4(3)8-2-9-5/h1-2,7H,6H2	InChI=1S/C5H5N3O/c6-3-1-7-5-4(3)8-2-9-5/h1-2,7H,6H2
