17
gdb 35277	4.14229	0.82233	0.73504	2.2558	75.58	-0.2636	0.0164	0.2801	1509.2377	0.133315	-421.740767	-421.73186	-421.730916	-421.775536	32.168	
C	-0.3317980009	-1.1149530719	 0.4833498336	-0.433544
C	-0.1214950998	 0.0373147807	 0.2124678504	 0.340949
C	 0.091661423	 1.416103542	-0.1384477197	-0.156096
O	 0.7419938126	 2.2577070826	 0.8298263945	-0.247535
C	 1.4391465029	 1.9770364427	-0.3845847229	 0.08105
C	 2.704235858	 1.1602856484	-0.2711745585	-0.282068
C	 3.8409883873	 1.9899032571	 0.2805181139	 0.102266
C	 5.2259172867	 1.8121676871	-0.167810388	-0.178187
O	 4.4454745036	 2.9164182384	-0.6292812386	-0.238806
H	-0.5165808693	-2.1314360743	 0.7301388056	 0.205351
H	-0.750091602	 1.893716245	-0.6394685967	 0.118793
H	 1.4973524387	 2.8269451695	-1.0662700361	 0.112977
H	 2.5222216627	 0.2977043386	 0.3779033789	 0.123843
H	 2.9807495994	 0.7864134379	-1.2638834488	 0.11198
H	 3.6725303098	 2.3971917765	 1.278027255	 0.109197
H	 6.049541346	 2.0657438877	 0.4979217618	 0.116968
H	 5.4528757614	 1.0544500418	-0.9173014343	 0.112862
52.0397	67.633	108.6309	157.7278	221.8682	305.4641	347.7885	426.623	494.7591	556.4365	596.9935	629.5289	671.1249	783.0555	807.842	823.6755	862.1722	934.3869	958.8255	976.9118	1034.2327	1091.5191	1106.566	1141.9376	1155.5112	1159.4801	1175.1231	1254.4545	1279.1783	1292.2466	1313.6123	1382.1599	1443.8895	1453.7879	1459.5905	1531.8941	2239.2251	3042.7968	3081.9517	3090.0567	3105.2303	3113.0247	3116.8593	3168.3778	3502.3165
C#CC1OC1CC1CO1	C#C[C@H]1O[C@H]1C[C@H]1CO1	
InChI=1S/C7H8O2/c1-2-6-7(9-6)3-5-4-8-5/h1,5-7H,3-4H2	InChI=1S/C7H8O2/c1-2-6-7(9-6)3-5-4-8-5/h1,5-7H,3-4H2/t5-,6+,7-/m0/s1
