19
gdb 86127	2.45826	1.53035	0.98551	4.1478	79.58	-0.2243	-0.0557	0.1687	1211.2373	0.159539	-419.249891	-419.240584	-419.23964	-419.284229	33.451	
C	-0.2548042585	 1.5495862059	 0.0451952794	-0.404084
C	 0.1288510458	 0.0735281965	-0.0326980576	-0.110988
C	 1.023892488	-0.3397864727	-1.2183659148	-0.192031
N	 1.8983325441	-1.3751833166	-0.6823344535	-0.072148
C	 2.8500474763	-2.0611725659	-1.5223962434	-0.339388
C	 1.9895355376	-1.3688438112	 0.6841219515	 0.273674
N	 2.8206820692	-2.0349395615	 1.3870922033	-0.560441
C	 0.9152766533	-0.4195817845	 1.1788416893	 0.336164
O	 0.7424599945	-0.1229682247	 2.3327146371	-0.316614
H	 0.6353410341	 2.186810325	 0.0377055429	 0.126522
H	-0.8878810939	 1.8396915944	-0.7983449671	 0.120738
H	-0.7987439123	 1.7438974818	 0.9728108873	 0.145475
H	-0.7837391376	-0.5385944316	-0.0544345527	 0.122974
H	 0.4503792961	-0.7290496195	-2.0672334563	 0.113685
H	 1.6051134697	 0.5215630373	-1.5856764933	 0.108162
H	 3.6307298321	-1.3822721696	-1.8955910682	 0.122745
H	 3.3264028851	-2.8443785638	-0.9309037975	 0.172234
H	 2.3416842594	-2.5073079985	-2.3844715669	 0.122562
H	 2.622722487	-1.8508381307	 2.3723169505	 0.230761
74.1484	106.8665	121.9008	176.5367	200.4314	232.2122	292.2595	321.0671	365.2706	476.3975	533.9595	565.4249	609.9115	740.4621	786.5283	849.3959	898.7273	928.0903	959.4394	1022.6948	1062.8716	1102.4954	1142.5316	1152.1252	1164.3971	1209.885	1244.5703	1275.3416	1305.6871	1311.7151	1369.7884	1410.3752	1440.7857	1467.7803	1491.1292	1495.7443	1497.732	1510.2637	1537.9048	1729.0724	1847.8016	2971.2705	2999.1504	3016.3094	3042.8046	3051.1894	3064.4138	3110.8822	3127.9658	3146.3314	3467.6448
CC1CN(C)C(=N)C1=O	C[C@H]1CN(C)[C]([NH])C1=O	
InChI=1S/C6H10N2O/c1-4-3-8(2)6(7)5(4)9/h4,7H,3H2,1-2H3	InChI=1S/C6H10N2O/c1-4-3-8(2)6(7)5(4)9/h4,7H,3H2,1-2H3/t4-/m0/s1
