20
gdb 13230	7.20782	0.82581	0.78324	0.8621	81.58	-0.2561	0.0593	0.3154	1471.1136	0.17632	-311.82997	-311.821212	-311.820268	-311.863805	32.375	
C	-0.0724015826	-1.2307164283	-0.0853122457	-0.438267
C	-0.0543176223	-0.0316715392	 0.0001049258	 0.294153
C	 0.0024669495	 1.4215419571	 0.096557156	-0.355256
C	 1.4194515651	 1.9902811583	-0.1299934443	-0.206361
C	 1.4652878616	 3.5069024667	-0.0149091635	 0.064546
C	 1.2519256452	 4.1765783998	 1.3757949604	-0.218243
C	 2.3566618545	 5.2031638757	 1.0075446413	-0.211862
C	 2.8426141259	 4.224740415	-0.0952625864	-0.241864
H	-0.1010591405	-2.2892470448	-0.1588534791	 0.191424
H	-0.6876556614	 1.8633511354	-0.6346826177	 0.127035
H	-0.3619235998	 1.7359555514	 1.0832856644	 0.132611
H	 2.1039052304	 1.5429053975	 0.6012953349	 0.103208
H	 1.7747471114	 1.6779243478	-1.1195224603	 0.106877
H	 0.7766703811	 3.9528023196	-0.7440556321	 0.067514
H	 0.2571572638	 4.5592296231	 1.6176289654	 0.094276
H	 1.574593997	 3.5129559988	 2.1857547152	 0.098281
H	 1.9332380935	 6.1166965858	 0.5801948277	 0.101728
H	 3.0682638311	 5.4845733444	 1.7871112723	 0.096509
H	 3.6463467968	 3.5757681026	 0.2686966504	 0.098787
H	 3.1451223698	 4.6426123632	-1.0587651148	 0.094905
61.1508	95.6844	103.4592	158.2792	221.3357	345.3122	359.875	399.1635	504.7491	613.7673	631.9891	640.3809	756.8766	777.8615	785.3625	894.4942	926.3575	935.8827	950.9267	973.9925	980.5301	1018.4284	1074.5303	1117.9685	1137.9499	1198.5619	1210.4663	1252.4441	1256.1851	1260.3315	1269.516	1286.7359	1302.2385	1319.9042	1363.1204	1391.413	1472.0335	1477.871	1486.011	1493.2066	1510.774	2238.0483	3013.8019	3019.0235	3028.9885	3040.7998	3042.047	3047.4273	3057.9862	3072.3465	3094.4843	3098.5083	3116.1393	3508.7077
C#CCCC1CCC1	C#CCCC1CCC1	
InChI=1S/C8H12/c1-2-3-5-8-6-4-7-8/h1,8H,3-7H2	InChI=1S/C8H12/c1-2-3-5-8-6-4-7-8/h1,8H,3-7H2
