19
gdb 18709	3.2379	2.14919	1.49214	1.3546	75.98	-0.2242	0.0178	0.242	895.1159	0.167939	-327.920378	-327.913191	-327.912247	-327.951389	28.761	
C	 0.1204254313	 1.5613479826	 0.031098845	-0.398787
C	 0.0189879446	 0.0311938132	 0.0116597951	 0.023779
C	 0.5834248749	-0.5489587642	-1.3061377588	-0.258407
C	 0.7758634858	-2.042872386	-1.2709736803	-0.090873
C	 1.0764572707	-2.6935763869	-0.1463843085	-0.014079
C	 1.213455092	-1.9716225245	 1.1422314096	-0.090517
N	 2.1369010707	-0.7968393142	 1.1613274462	-0.338475
C	 0.6851428122	-0.5831390776	 1.229504615	-0.020087
H	 1.1702876409	 1.8732101387	 0.0237397552	 0.126233
H	-0.370678226	 2.0027751931	-0.8424907876	 0.109557
H	-0.3498300939	 1.9820164018	 0.9266514991	 0.105222
H	-1.0423338999	-0.2504937058	 0.0710210223	 0.073719
H	-0.0798696291	-0.2695109789	-2.1326963323	 0.094511
H	 1.5490989014	-0.0696480751	-1.5143481728	 0.126902
H	 0.6920239805	-2.5854901353	-2.2087529965	 0.086314
H	 1.2262758992	-3.769270214	-0.1448284416	 0.082772
H	 1.1840179524	-2.5787500059	 2.0430131459	 0.079177
H	 2.5455291685	-0.7051534715	 2.0882439079	 0.227412
H	 0.2655851439	-0.2707798695	 2.1851801273	 0.075628
122.4906	212.8174	249.6603	288.5307	325.7411	416.426	501.9093	517.165	618.4455	709.0694	718.8716	813.5106	841.9428	869.581	911.2086	929.765	939.0549	962.3106	982.8358	1012.9145	1055.1567	1099.0514	1112.7992	1143.2648	1163.5949	1188.4202	1205.054	1258.445	1264.4719	1319.7416	1347.95	1362.6041	1396.0251	1404.1849	1427.6967	1456.9127	1474.2249	1496.917	1502.2121	1712.1096	2999.9653	3021.654	3027.8863	3058.83	3094.3177	3102.3981	3109.0906	3139.7577	3154.476	3178.3281	3494.818
CC1CC=CC2NC12	C[C@H]1CC=C[C@H]2N[C@@H]12	
InChI=1S/C7H11N/c1-5-3-2-4-6-7(5)8-6/h2,4-8H,3H2,1H3	InChI=1S/C7H11N/c1-5-3-2-4-6-7(5)8-6/h2,4-8H,3H2,1H3/t5-,6+,7-/m0/s1
