21
gdb 113084	2.12688	1.29876	1.07918	2.9311	75.83	-0.2418	0.0711	0.3129	1271.9663	0.179941	-461.322084	-461.311851	-461.310907	-461.35755	36.55	
C	 0.2332876339	 0.4958094208	-0.9399657521	-0.233843
O	-0.1305936117	-0.617551696	-0.1575304645	-0.247444
C	-1.4389685569	-0.5518419369	 0.3563629702	 0.083605
C	-2.5424530259	-0.9838621899	-0.65684738	-0.299865
C	-2.4530207203	-2.438302182	-0.102302175	 0.083605
O	-1.5534837365	-3.2645847562	-0.8011153955	-0.247445
C	-2.0817806233	-3.810968313	-1.9870980727	-0.233843
C	-1.7208760236	-1.864853561	 1.1502070258	 0.124012
O	-0.6537441958	-2.5696231477	 1.6895732614	-0.42472
H	 1.2693277276	 0.3469729029	-1.2536126542	 0.128524
H	-0.3949420437	 0.5992301002	-1.8372679502	 0.105333
H	 0.1651586931	 1.4316413302	-0.3635844384	 0.106636
H	-1.5954241845	 0.4002581565	 0.8841528227	 0.057763
H	-3.5091659872	-0.5121145718	-0.4598344074	 0.10232
H	-2.2944890027	-0.8603366795	-1.7131169709	 0.110166
H	-3.4040445291	-2.9643543477	 0.0660958231	 0.057763
H	-2.3491696194	-3.0362957612	-2.7211995966	 0.105333
H	-1.3103695108	-4.4521038239	-2.4204292301	 0.128525
H	-2.9787990073	-4.417110941	-1.7856350694	 0.106636
H	-2.4370284309	-1.6755476976	 1.9549313067	 0.089092
H	-0.0398431453	-2.7224032161	 0.9606000068	 0.297845
64.8631	109.6009	123.4548	128.9166	181.2349	194.9822	214.2508	291.2122	329.727	353.8277	394.1198	431.7927	586.564	599.1367	721.6519	809.6522	846.2422	915.195	932.6301	999.0641	1025.9229	1076.4816	1111.4796	1144.4314	1151.912	1179.2458	1182.9992	1184.2262	1186.8922	1226.0649	1227.0561	1257.3106	1283.619	1289.3729	1333.7973	1372.9061	1383.6528	1442.2299	1464.1675	1480.7236	1482.2686	1487.2919	1488.6405	1507.3937	1509.539	2976.1191	2976.791	2991.3314	2992.93	3024.5225	3025.0953	3063.8957	3078.2443	3114.5471	3114.8823	3122.7483	3796.2941
COC1CC(OC)C1O	CO[C@H]1C[C@@H](OC)[C@H]1O	
InChI=1S/C6H12O3/c1-8-4-3-5(9-2)6(4)7/h4-7H,3H2,1-2H3	InChI=1S/C6H12O3/c1-8-4-3-5(9-2)6(4)7/h4-7H,3H2,1-2H3/t4-,5+,6-
