17
gdb 37598	2.87738	2.3711	2.01138	0.7621	67.81	-0.2291	0.0805	0.3096	772.3708	0.140807	-421.814927	-421.809664	-421.80872	-421.844235	23.856	
C	-0.0455014535	 1.5680807557	-0.0708225973	-0.206856
C	 1.4677664894	 1.8112405126	 0.0193644093	 0.038065
O	 1.9123344327	 0.9263200423	-1.0267449337	-0.255552
C	 1.487119119	-0.2868486958	-0.4021947464	 0.033127
C	 2.2551078336	-0.3003095583	 0.9261591413	-0.10261
C	 1.2270118697	 0.0190541574	 1.952684601	 0.07926
O	-0.0625985868	-0.2643663696	 1.4750134177	-0.253462
C	-0.0032760027	 0.032460507	 0.0835731062	 0.04064
C	 2.0240655888	 1.156809172	 1.3187404352	-0.122185
H	-0.6466576467	 2.0141723453	 0.7230809873	 0.108386
H	-0.4121634447	 1.8900825732	-1.0478340683	 0.104986
H	 1.8272930933	 2.8215664819	-0.171875995	 0.077429
H	 1.6209306397	-1.1320227456	-1.0734377707	 0.082343
H	 3.1687726482	-0.8600691639	 1.0725716313	 0.094129
H	 1.3323394517	-0.198079778	 3.0088885119	 0.105059
H	-0.7913333815	-0.5232966205	-0.4226476787	 0.084512
H	 2.7322145796	 1.6987287246	 1.9334637687	 0.092729
318.2147	461.9767	543.6752	569.7968	610.0838	656.5336	714.1641	729.098	784.2517	799.1322	837.8879	870.8672	885.1849	908.0708	943.2908	955.3995	973.3387	990.7963	1006.5091	1015.8911	1034.03	1069.1028	1084.6734	1101.4886	1135.6639	1170.8176	1189.3748	1239.3592	1251.473	1270.4336	1290.6222	1305.0586	1319.8992	1338.07	1350.8085	1414.0333	1474.4754	3074.1092	3124.3954	3127.4034	3135.2189	3151.9633	3183.9399	3190.5132	3206.2237
C1C2OC3C4C(OC13)C24	C1[C@@H]2O[C@H]3[C@@H]4[C@H](O[C@@H]13)[C@H]24	
InChI=1S/C7H8O2/c1-2-4-5-6(8-2)3(1)9-7(4)5/h2-7H,1H2	InChI=1S/C7H8O2/c1-2-4-5-6(8-2)3(1)9-7(4)5/h2-7H,1H2/t2-,3-,4+,5+,6+,7+/m0/s1
