16
gdb 131549	3.10833	1.59528	1.09879	1.7044	71.42	-0.1957	0.0228	0.2185	1045.1569	0.127983	-434.070151	-434.062757	-434.061813	-434.10196	28.657	
O	 0.1070700914	 1.4347504951	-0.1716767955	-0.425592
C	 0.0360858101	 0.0230067385	-0.028975931	-0.062747
C	 0.5390993043	-0.4714721443	 1.3804821344	-0.197186
N	-0.3549233811	-1.5854934657	 1.7772657014	-0.40006
C	-1.5329243714	-1.3805942878	 1.0596241138	 0.384116
N	-2.7442015554	-1.8993841737	 1.1496855032	-0.362026
N	-3.3798982286	-1.3134152735	 0.0847023231	-0.1944
C	-2.5931118701	-0.4652584678	-0.6318782292	-0.215486
C	-1.3684507169	-0.4810835129	-0.0086956882	 0.248032
H	 1.0248914973	 1.6687842381	-0.343592777	 0.282988
H	 0.6236602735	-0.4569394959	-0.8272720196	 0.082501
H	 1.5815670063	-0.8029126396	 1.3628164342	 0.100844
H	 0.4527912524	 0.3885210553	 2.0592470586	 0.109907
H	-0.4603419349	-1.7208396807	 2.7740013931	 0.240608
H	-4.3549012056	-1.50931329	-0.0568536963	 0.270963
H	-2.976272401	 0.070183035	-1.4861245552	 0.137537
102.1056	176.9327	270.8498	281.5477	319.9296	390.7862	474.6409	522.941	555.4517	629.1629	646.7551	704.8008	766.7695	797.7149	809.9991	959.6952	968.6346	1001.5085	1038.5978	1057.4708	1092.7515	1139.8167	1197.4181	1215.051	1237.3655	1286.2805	1304.0716	1337.6288	1387.1098	1428.0565	1469.715	1488.2889	1503.9904	1558.1351	1657.4637	2968.235	3007.9508	3079.6884	3261.2714	3575.0731	3692.7352	3813.5756
OC1CNC2=NNC=C12	O[C@H]1CNc2n[nH]cc12	
InChI=1S/C5H7N3O/c9-4-2-6-5-3(4)1-7-8-5/h1,4,9H,2H2,(H2,6,7,8)	InChI=1S/C5H7N3O/c9-4-2-6-5-3(4)1-7-8-5/h1,4,9H,2H2,(H2,6,7,8)/t4-/m0/s1
