20
gdb 90182	4.03056	1.52036	1.36859	1.5754	82.7	-0.2266	0.0865	0.3131	1010.0335	0.17308	-365.920499	-365.913563	-365.912619	-365.951444	29.152	
C	-0.1221953872	 1.5475932381	-0.0602690852	-0.410545
C	 0.0270119556	 0.0295519314	 0.0302799189	 0.036212
C	 0.9307899732	-0.6016816897	-1.1038187157	-0.367271
C	 1.9294731761	-1.2554976351	-0.1799732556	 0.34649
C	 3.109092688	-2.2086668701	 0.0638143964	-0.341821
C	 2.5814293904	-1.7949568474	 1.4615521307	-0.026339
C	 2.2800627222	-0.3390406456	 1.0406482945	-0.07518
C	 0.7774166487	-0.4553962332	 1.2977057056	-0.027582
N	 1.1189638703	-1.9080963386	 0.9740569323	-0.18219
H	 0.8549476854	 2.0441679279	-0.0476451986	 0.114975
H	-0.6307073979	 1.841608302	-0.9842582459	 0.117232
H	-0.7058144563	 1.9398300244	 0.7797342963	 0.114855
H	-0.9641240916	-0.4367660974	 0.0099822028	 0.082938
H	 0.3857080617	-1.317672854	-1.7236187317	 0.110996
H	 1.3759257764	 0.1596952991	-1.7510037367	 0.1
H	 2.9562821205	-3.2536427917	-0.2190462937	 0.109776
H	 4.1021230204	-1.850495016	-0.2185961444	 0.099762
H	 2.8848707364	-2.1792532395	 2.4363852379	 0.079312
H	 2.9497051898	 0.5281803467	 1.0500702794	 0.058956
H	 0.3057984977	-0.2457528511	 2.2615147126	 0.059424
127.1383	235.9218	258.8181	368.9413	397.9472	456.4609	473.8264	655.7232	696.8894	723.7422	799.7518	816.993	838.3193	857.2366	877.6519	916.9881	928.2869	941.3924	949.5863	1013.2547	1024.0539	1029.3365	1053.8543	1092.5145	1108.9224	1133.7669	1147.2133	1170.0614	1196.0218	1197.3516	1204.8703	1233.7353	1238.9504	1272.4189	1288.0179	1331.146	1340.8791	1355.7335	1411.6817	1488.9624	1490.9689	1498.5945	1499.0275	3026.0459	3035.8764	3044.5233	3056.5252	3058.5106	3079.693	3093.0205	3097.6379	3104.3479	3109.6734	3124.3255
CC1CC23CC4C2C1N34	C[C@H]1C[C@@]23C[C@H]4[C@@H]2[C@@H]1N34	
InChI=1S/C8H11N/c1-4-2-8-3-5-6(8)7(4)9(5)8/h4-7H,2-3H2,1H3	InChI=1S/C8H11N/c1-4-2-8-3-5-6(8)7(4)9(5)8/h4-7H,2-3H2,1H3/t4-,5-,6+,7+,8+/m0/s1
