20
gdb 96491	2.56763	1.5083	1.06921	1.8451	76.37	-0.2512	0.0057	0.2569	1164.6352	0.172135	-440.282306	-440.273832	-440.272888	-440.315148	32.402	
C	-0.0374276686	 1.5666500973	-0.0106253632	-0.400782
C	-0.0412630797	 0.0302867535	 0.0135728909	 0.011919
C	 0.5305375282	-0.4846477535	-1.3189754907	-0.07368
O	 0.3475898596	-1.8856126142	-1.528124488	-0.223918
C	 1.4561896913	-2.683436366	-1.2947373773	-0.013891
O	 1.9391538429	-2.5829807012	 0.0420994941	-0.228661
C	 0.9725047521	-2.7821121145	 1.0027310403	 0.095912
N	 0.386211874	-1.8605948058	 1.6229265677	-0.20528
C	 0.7060343222	-0.4756066418	 1.2679396255	-0.159977
H	 0.9848116745	 1.9614538091	-0.0523867608	 0.11761
H	-0.5784930686	 1.9530723702	-0.8802995017	 0.11589
H	-0.5122388474	 1.972845411	 0.8868852238	 0.12287
H	-1.078664791	-0.3203538721	 0.0786466222	 0.096564
H	 0.0006429689	 0.0102793402	-2.14068301	 0.106979
H	 1.5956729892	-0.2237477318	-1.401420325	 0.098964
H	 1.1391169284	-3.7093257151	-1.5218533599	 0.111256
H	 2.3198542795	-2.4023743557	-1.911994295	 0.108767
H	 0.753205896	-3.8307920398	 1.2152616492	 0.114284
H	 1.7858068021	-0.3383290231	 1.1222887116	 0.106001
H	 0.4056333965	 0.1439002135	 2.1184064765	 0.099173
119.192	146.9912	196.3728	214.0976	269.5701	290.7663	350.5816	390.0355	406.9242	490.2527	525.3116	626.894	712.3537	845.6782	906.6629	921.8592	937.6549	954.4786	966.7188	988.058	1002.9423	1051.5798	1101.4351	1139.7105	1166.0324	1171.0052	1188.7991	1265.2217	1301.0641	1307.6699	1330.4951	1365.5749	1381.0596	1385.7758	1405.4391	1424.5572	1441.3047	1485.0982	1498.891	1499.9182	1506.3485	1512.9996	1754.2844	2999.5832	3009.7161	3015.3855	3029.1014	3039.8405	3061.098	3064.285	3073.1365	3095.6452	3110.9963	3112.2078
CC1COCOC=NC1	C[C@H]1COCOC=NC1	
InChI=1S/C6H11NO2/c1-6-2-7-4-9-5-8-3-6/h4,6H,2-3,5H2,1H3/b7-4-	InChI=1S/C6H11NO2/c1-6-2-7-4-9-5-8-3-6/h4,6H,2-3,5H2,1H3/b7-4-/t6-/m1/s1
