22
gdb 104657	2.16238	1.27669	1.16524	2.416	78.47	-0.2272	0.0685	0.2957	1237.2507	0.192579	-441.445858	-441.435286	-441.434341	-441.481362	38.658	
C	 1.669030483	 0.7984972169	-1.2930981052	-0.427186
C	 0.877963523	-0.2403924105	-0.5266213372	-0.051142
N	 1.481951799	-1.2062552298	 0.4016228624	-0.14757
C	 2.9147315736	-1.164653405	 0.6833494915	-0.31595
C	 0.5854986164	-0.1677056796	 0.9408860503	 0.239364
C	 1.1181113614	 0.9348521137	 1.841522518	-0.122451
O	 1.5037125215	 0.438121427	 3.1136279676	-0.436353
C	-0.707412604	-0.7871358486	 1.4491946659	-0.125017
O	-0.4710562566	-1.55053037	 2.6357286337	-0.421878
H	 2.3957858801	 1.3383150342	-0.6850784204	 0.127514
H	 2.2088706722	 0.3287660522	-2.1226837111	 0.128178
H	 0.9840994087	 1.5365598537	-1.7233044157	 0.127598
H	 0.1012729467	-0.6964541766	-1.1428758695	 0.083561
H	 3.3973992002	-0.1894221732	 0.543845574	 0.10625
H	 3.0777710789	-1.4636336543	 1.721520803	 0.135648
H	 3.4162889409	-1.8841919867	 0.0281998099	 0.118573
H	 1.9998725308	 1.4212461481	 1.418544389	 0.098136
H	 0.3403398395	 1.7122465555	 1.9352226778	 0.086513
H	 0.8246537634	-0.200119483	 3.378138107	 0.288728
H	-1.4351428789	-0.0168893868	 1.725839454	 0.111351
H	-1.1537329022	-1.4192583686	 0.6704547732	 0.099661
H	 0.1704304226	-2.2255712286	 2.3776975317	 0.296471
70.4289	86.4629	121.8059	149.7102	174.9187	217.6695	248.3608	290.6293	311.017	352.1381	381.915	439.7047	506.941	550.5144	559.3244	644.1802	720.4379	774.0817	888.3417	930.6252	962.064	1000.95	1029.7039	1052.7544	1072.5355	1100.9379	1131.6376	1150.2518	1169.2432	1181.568	1198.1023	1250.4193	1297.6001	1347.1023	1362.9415	1397.7435	1409.2884	1417.6789	1435.5857	1458.9328	1474.0693	1482.1119	1491.701	1498.0669	1504.2937	1505.952	1525.7844	2955.4246	3016.2406	3018.9891	3041.6508	3077.7651	3079.5779	3081.8661	3096.072	3097.0801	3120.3044	3141.8292	3705.8588	3771.6891
CC1N(C)C1(CO)CO	C[C@H]1N(C)C1(CO)CO	
InChI=1S/C6H13NO2/c1-5-6(3-8,4-9)7(5)2/h5,8-9H,3-4H2,1-2H3	InChI=1S/C6H13NO2/c1-5-6(3-8,4-9)7(5)2/h5,8-9H,3-4H2,1-2H3/t5-,7?/m1/s1
