17
gdb 98704	3.04213	1.08159	0.90552	5.3365	74.8	-0.2658	-0.0113	0.2546	1316.6057	0.134298	-418.019546	-418.01015	-418.009206	-418.054843	32.684	
C	-0.1291432716	 1.3893967735	 0.4538278297	-0.374143
C	-0.1586231849	-0.0821154008	 0.0466322076	-0.290711
C	-1.553690029	-0.6803872164	 0.1201324125	 0.400218
O	-2.5172079907	-0.1214761844	 0.5821708002	-0.318887
N	-1.6643755208	-1.9433402647	-0.4910702702	-0.091245
C	-0.9437717661	-3.1481505082	-0.1689609488	-0.248412
C	-2.4437994012	-3.0481228545	 0.0177772653	-0.15437
C	-2.9667063804	-3.0288933653	 1.3660795068	 0.306461
N	-3.3896549815	-3.0685694825	 2.4408068571	-0.322027
H	 0.8933500217	 1.7749074577	 0.4193111658	 0.113184
H	-0.7489334127	 1.9918728817	-0.2150693378	 0.134608
H	-0.518507817	 1.5195276872	 1.4658877815	 0.142226
H	 0.227042456	-0.2306848495	-0.9687794798	 0.130991
H	 0.4949274792	-0.6776603207	 0.6990873551	 0.126403
H	-0.5533436154	-3.7217850687	-1.0052194776	 0.143452
H	-0.3427052474	-3.1694284966	 0.7370517728	 0.151593
H	-3.0991192482	-3.528879178	-0.7033837901	 0.150659
48.0027	65.8113	101.7734	168.4339	200.3599	234.1257	263.0959	289.0193	411.2711	521.8959	555.4533	570.5625	664.1696	731.6715	809.9343	817.3052	921.478	994.0275	1012.5929	1041.0702	1082.3344	1096.1187	1109.3176	1127.5239	1145.646	1158.5991	1282.3473	1336.3913	1372.5832	1406.6773	1416.6916	1456.9433	1493.201	1499.7171	1509.0154	1809.8793	2363.2581	3023.1166	3054.8171	3065.1396	3106.2404	3125.7701	3135.8163	3151.5135	3199.4515
CCC(=O)N1CC1C#N	CCC(=O)N1C[C@H]1C#N	
InChI=1S/C6H8N2O/c1-2-6(9)8-4-5(8)3-7/h5H,2,4H2,1H3	InChI=1S/C6H8N2O/c1-2-6(9)8-4-5(8)3-7/h5H,2,4H2,1H3/t5-,8?/m1/s1
