13
gdb 24923	5.2545	1.36514	1.08537	2.3764	67.48	-0.1917	0.0074	0.199	1011.6141	0.091459	-452.75638	-452.749803	-452.748859	-452.787313	25.735	
N	-0.1066710661	 1.2691224492	 0.0333937332	-0.577978
C	-0.0231947078	 0.0112684495	 0.0440005009	 0.439731
N	-1.1217198105	-0.8689343488	 0.1042508101	-0.457387
C	-0.5922760601	-2.1325872452	-0.0922450254	 0.356533
C	 0.7503929228	-2.0665934029	-0.1037368107	 0.242104
O	 1.1504859302	-0.7465528327	-0.0109813254	-0.256641
C	 1.2370471456	-3.4009324539	-0.0280667771	-0.332388
C	 0.1016938433	-4.1663486748	 0.0093009548	-0.014475
O	-1.0494693119	-3.3865753851	-0.0041257089	-0.196229
H	 0.8135703197	 1.6966843166	-0.0256379649	 0.235085
H	-2.0192265823	-0.5363752756	-0.2097526911	 0.283569
H	 2.2505133089	-3.7666463109	-0.0244670712	 0.132729
H	-0.0717660717	-5.2275322854	-0.0187358942	 0.145347
113.2284	229.0158	326.6419	345.2403	413.2725	550.8561	587.2323	595.6362	645.264	698.8988	710.957	760.2109	764.4806	813.1571	844.2331	895.3123	932.8942	1012.2956	1021.785	1121.599	1160.0768	1250.4635	1292.6902	1319.1555	1446.7952	1499.1568	1544.2247	1680.7831	1793.8092	3272.1018	3304.8243	3545.9461	3653.4928
N=C1NC2=C(O1)C=CO2	[NH][C@H]1Nc2c(O1)cco2	
InChI=1S/C5H4N2O2/c6-5-7-4-3(9-5)1-2-8-4/h1-2H,(H2,6,7)	InChI=1S/C5H5N2O2/c6-5-7-4-3(9-5)1-2-8-4/h1-2,5-7H/t5-/m0/s1
