14
gdb 8615	2.11143	2.08816	1.43458	1.9145	70.34	-0.256	-0.0401	0.2159	928.432	0.102175	-345.337252	-345.32826	-345.327316	-345.370644	32.024	
C	-0.1209514901	 1.4498852495	 0.2230570427	-0.408145
C	-0.1232145931	-0.0718272225	-0.0363655465	-0.197422
C	 0.5240553137	-0.8302965883	 1.1658050715	 0.161045
O	 0.9537692651	-0.2847520375	 2.1404154829	-0.232125
C	-1.486931056	-0.5995431938	-0.1586265021	 0.323719
C	-2.6001662441	-1.0500722522	-0.1937706465	-0.456803
C	 0.6791329709	-0.4229586237	-1.2136739892	 0.323707
C	 1.3873210165	-0.7249911371	-2.1360346932	-0.45679
H	 0.9045690793	 1.7988316083	 0.3556678508	 0.140892
H	-0.5751442989	 1.9710628273	-0.62111332	 0.134741
H	-0.685398017	 1.6689542355	 1.131041433	 0.140922
H	 0.5465715855	-1.9296286956	 1.0271433646	 0.109979
H	-3.5871803124	-1.4391705739	-0.2480086942	 0.208142
H	 1.9956558905	-0.9840123661	-2.967523304	 0.208137
72.626	121.4061	156.1389	174.125	217.2793	264.2442	269.3393	437.1431	472.6052	495.0871	554.4078	560.1685	644.3305	646.3826	650.1464	651.5331	738.8295	912.1576	917.1274	1015.2755	1131.7202	1146.023	1204.0226	1397.4089	1410.9899	1482.1419	1487.5435	1843.5856	2231.796	2236.8107	2938.7407	3065.2645	3151.4083	3152.4317	3499.3778	3500.2026
CC(C=O)(C#C)C#C	CC(C=O)(C#C)C#C	
InChI=1S/C7H6O/c1-4-7(3,5-2)6-8/h1-2,6H,3H3	InChI=1S/C7H6O/c1-4-7(3,5-2)6-8/h1-2,6H,3H3
