20
gdb 85058	2.25117	1.57989	1.15983	3.6797	75.93	-0.2533	0.0295	0.2828	1133.8729	0.170674	-440.310505	-440.301093	-440.300149	-440.344586	35.164	
C	 0.8338266085	 1.3646179322	-0.2005809344	-0.384934
C	 0.0382291382	 0.0896724215	 0.0468165214	 0.062983
O	 0.1848852595	-0.8194444982	-1.0622026492	-0.245533
C	 0.9802290589	-1.8850498845	-0.7433544473	 0.40594
N	 1.3076134717	-2.7953587653	-1.5545309373	-0.544009
C	 1.4128725899	-1.8145340378	 0.7076175642	-0.110839
C	 2.9156969278	-1.5217671477	 0.8417014964	-0.392869
C	 0.4745628226	-0.7383255082	 1.2906402781	 0.077391
O	 1.1187720195	 0.0093487992	 2.3024654205	-0.418515
H	 1.9060746379	 1.1659731182	-0.263209015	 0.135753
H	 0.5086467993	 1.8236197685	-1.1380682627	 0.126813
H	 0.6721469839	 2.0800874527	 0.610231187	 0.113583
H	-1.0290098703	 0.3340007999	 0.0963927709	 0.084019
H	 0.912097535	-2.6116575564	-2.4784614518	 0.21835
H	 1.2168063573	-2.7840238573	 1.1718760505	 0.107938
H	 3.2012643825	-0.5910411083	 0.344844077	 0.123131
H	 3.1932792188	-1.4400439953	 1.8943343168	 0.130461
H	 3.4771261994	-2.3372355838	 0.3801058419	 0.137955
H	-0.4166638206	-1.2357973825	 1.6974034873	 0.082377
H	 0.4538225603	 0.512792123	 2.7814854556	 0.290005
69.0661	97.1904	193.3212	222.428	249.4295	255.7756	258.3853	280.6057	362.7191	416.1468	515.9147	519.8008	650.5588	673.84	742.0676	751.2961	836.6422	872.4163	895.1368	951.738	1024.3134	1047.6762	1067.8915	1083.9643	1105.6774	1127.4467	1152.4766	1165.5689	1253.337	1266.5651	1297.5999	1330.0707	1354.4723	1379.1039	1392.6427	1403.6302	1412.1936	1441.5111	1480.4764	1487.1256	1496.9803	1501.7902	1773.69	2996.604	3040.5484	3052.6404	3057.2509	3078.8272	3124.0577	3128.709	3138.1584	3141.8657	3469.0513	3829.0064
CC1OC(=N)C(C)C1O	C[C@H]1O[C]([NH])[C@@H](C)[C@H]1O	
InChI=1S/C6H11NO2/c1-3-5(8)4(2)9-6(3)7/h3-5,7-8H,1-2H3	InChI=1S/C6H11NO2/c1-3-5(8)4(2)9-6(3)7/h3-5,7-8H,1-2H3/t3-,4+,5+/m0/s1
