16
gdb 26004	5.02373	0.99314	0.83349	1.7659	74.25	-0.2028	0.017	0.2199	1328.1651	0.125864	-434.145981	-434.137519	-434.136574	-434.181424	30.274	
C	-0.000053574	 1.5469125575	-0.1492619741	-0.48881
C	 0.0704645367	 0.0487775759	 0.0945207532	 0.399071
O	 0.226867704	-0.425471442	 1.2061256865	-0.367383
N	-0.0541681058	-0.7271721727	-1.0260555225	-0.425602
C	-0.0198096128	-2.1209437621	-1.0467804236	 0.362124
C	 0.1370755856	-3.0169687906	-0.0187415677	-0.172666
N	 0.0893175456	-4.2514497581	-0.6409952927	-0.234801
C	-0.0882841522	-4.0422643079	-1.9700156885	 0.017708
N	-0.1590354894	-2.7589754578	-2.2531944397	-0.333837
H	 0.9255866268	 2.0053061356	 0.2092052837	 0.153758
H	-0.1479938856	 1.8176787215	-1.1976506966	 0.114359
H	-0.8193313488	 1.9612935209	 0.4443503003	 0.153766
H	-0.1823366057	-0.2982758836	-1.928761396	 0.258528
H	 0.270210461	-2.8836577025	 1.037194115	 0.162051
H	 0.1724246701	-5.1423831843	-0.1817741983	 0.269189
H	-0.1591612655	-4.8490655096	-2.683122749	 0.132545
9.7742	88.4533	103.7237	162.1605	349.0405	355.8335	371.9636	519.0421	523.7059	576.4716	637.77	659.6642	701.6094	747.7535	790.4125	810.9233	948.8251	967.7266	989.2698	1026.2828	1050.4285	1085.0168	1148.2869	1223.9816	1249.0896	1295.9274	1362.4427	1398.4717	1464.1105	1469.7922	1486.3037	1501.5967	1568.6513	1620.9764	1769.8227	3049.6427	3125.2195	3129.7953	3258.9071	3332.4332	3643.7979	3672.7717
CC(=O)NC1=CNC=N1	CC(=O)Nc1c[nH]cn1	
InChI=1S/C5H7N3O/c1-4(9)8-5-2-6-3-7-5/h2-3H,1H3,(H,6,7)(H,8,9)	InChI=1S/C5H7N3O/c1-4(9)8-5-2-6-3-7-5/h2-3H,1H3,(H,6,7)(H,8,9)
