15
gdb 51811	4.37733	1.04505	0.92854	5.6576	62.91	-0.2789	0.0007	0.2795	1214.7349	0.111848	-494.895434	-494.887675	-494.88673	-494.928966	27.357	
O	 0.0971002362	-0.0003060081	 0.0631601647	-0.265299
C	 0.074348239	 1.1867930152	-0.03559967	 0.181528
O	 1.1906578	 1.9467438203	 0.0754164954	-0.186308
C	 1.0081033256	 3.3473694907	-0.0038325076	 0.219511
O	 0.5313932688	 3.8224429677	 1.2338610941	-0.27196
C	 1.1965586296	 5.0289554279	 1.6152783702	-0.105859
C	 2.4434479061	 5.09465668	 0.7616736363	 0.026471
O	 3.2256879298	 3.9028311093	 0.8487686308	-0.227215
C	 2.3295611006	 4.0433796206	-0.2510950567	-0.029316
H	-0.8347110376	 1.7852538672	-0.23441741	 0.089251
H	 0.2888370116	 3.5720369354	-0.8085045716	 0.085689
H	 0.5574782182	 5.9028897055	 1.4246563813	 0.11058
H	 1.4119787154	 4.9738288026	 2.6867803077	 0.13604
H	 2.9807178484	 6.0261324269	 0.6111743131	 0.115907
H	 2.7625871683	 4.0781744487	-1.2456133675	 0.120979
55.6186	82.859	134.9613	192.6734	297.4036	374.5161	437.7346	467.7558	704.0953	721.9774	803.1886	847.9666	882.6346	931.9873	954.8778	980.3014	1034.7874	1040.2631	1072.2531	1089.5876	1112.6233	1131.2926	1171.5981	1226.7567	1258.3289	1310.384	1346.1797	1380.2111	1397.9504	1445.0186	1447.9403	1507.1141	1878.9077	2959.3502	2976.0215	3010.1314	3085.0079	3164.7722	3178.5541
O=COC1OCC2OC12	O=CO[C@H]1OC[C@H]2O[C@@H]12	
InChI=1S/C5H6O4/c6-2-8-5-4-3(9-4)1-7-5/h2-5H,1H2	InChI=1S/C5H6O4/c6-2-8-5-4-3(9-4)1-7-5/h2-5H,1H2/t3-,4-,5-/m1/s1
