17
gdb 83080	2.53532	1.74932	1.54326	4.3989	72.39	-0.2139	-0.0197	0.1942	943.548	0.137531	-418.006913	-417.999273	-417.998329	-418.038724	29.644	
C	-0.144990253	 1.5805718102	 0.0203961865	-0.42924
C	 0.0593253058	 0.0754003906	-0.0114063449	 0.001233
C	 0.8420483166	-0.6015320114	-1.1986098172	-0.149089
N	 2.1054231382	 0.1050609196	-1.4494752212	-0.27342
C	 2.7694542892	 0.461219	-0.2938265395	 0.051187
N	 2.4093445438	 0.1077814117	 0.881451627	-0.237444
C	 1.1149791879	-0.6148585187	 0.9334747604	-0.135417
C	 1.1590721058	-1.6962055924	-0.1477001079	 0.459989
O	 1.2405152037	-2.8881153	-0.1810614432	-0.318103
H	 0.7950858506	 2.1281149058	-0.0754717824	 0.128089
H	-0.8086077943	 1.8965860989	-0.7917523631	 0.11722
H	-0.6065590041	 1.8836511793	 0.9653257	 0.130837
H	-0.8969659926	-0.4442724285	 0.1057544149	 0.09661
H	 0.3448937237	-0.8664595113	-2.1306462898	 0.095703
H	 2.1513496068	 0.7389959362	-2.2352221616	 0.247871
H	 3.6722919318	 1.0554174529	-0.4313805634	 0.124083
H	 0.8546450703	-0.8607980731	 1.9618435955	 0.089893
138.0899	161.2102	224.5113	229.8043	280.0459	418.7229	455.0254	502.4476	527.322	586.7987	645.5435	689.0537	784.1649	825.2638	862.1487	899.1815	941.0283	965.9037	1024.089	1042.3356	1080.0127	1098.9646	1121.5438	1148.99	1162.2056	1217.4961	1229.331	1274.7588	1313.2781	1375.3464	1383.2085	1411.5149	1464.1539	1493.8071	1496.9375	1686.3666	1899.6957	3039.7886	3059.2751	3101.3243	3126.1178	3127.6503	3131.4878	3142.1274	3580.8569
CC1C2NC=NC1C2=O	C[C@H]1[C@H]2N[CH][N][C@@H]1C2=O	
InChI=1S/C6H8N2O/c1-3-4-6(9)5(3)8-2-7-4/h2-5H,1H3,(H,7,8)	InChI=1S/C6H8N2O/c1-3-4-6(9)5(3)8-2-7-4/h2-5H,1H3,(H,7,8)/t3-,4+,5-
