14
gdb 131083	4.97545	0.88173	0.79441	1.7844	63.89	-0.2732	-0.0158	0.2574	1352.6463	0.102507	-470.043713	-470.035875	-470.034931	-470.07825	26.659	
O	 0.3308353806	 0.1110366289	-0.4074700835	-0.256821
C	 0.3037150654	 1.3003772666	-0.3653151171	 0.177191
O	 0.9539525259	 2.0049473469	 0.5932733609	-0.18966
C	 0.9199315033	 3.4324071632	 0.5169760011	-0.206565
C	 2.2790741803	 3.9515813478	 0.1673569143	 0.362331
N	 2.5759392776	 5.1827290444	-0.203561865	-0.320957
C	 3.928766279	 5.1263284827	-0.3655532486	 0.02634
N	 4.4778086421	 3.9478472326	-0.1240595966	-0.204587
N	 3.3994951667	 3.2048166078	 0.2213761222	-0.221146
H	-0.2439139482	 1.9504084585	-1.0739728545	 0.095405
H	 0.1892040027	 3.7778204213	-0.2234277362	 0.150171
H	 0.6033833812	 3.8015229245	 1.4974480015	 0.160124
H	 4.5203183349	 5.9749413633	-0.6741565639	 0.133265
H	 3.4958045985	 2.2314742316	 0.4630815355	 0.294909
29.5967	49.3376	139.5372	212.4654	256.3411	357.1875	402.9415	599.6867	679.2723	697.5667	706.1032	740.7918	912.8339	981.5582	1001.666	1041.6653	1047.9632	1063.9534	1129.0332	1146.0235	1207.6844	1284.0061	1288.1497	1311.225	1360.9267	1419.0071	1444.449	1490.6915	1505.7505	1588.8549	1877.8523	2962.3905	3042.855	3088.1599	3265.2308	3662.6906
O=COCC1=NC=NN1	O=COCc1ncn[nH]1	
InChI=1S/C4H5N3O2/c8-3-9-1-4-5-2-6-7-4/h2-3H,1H2,(H,5,6,7)	InChI=1S/C4H5N3O2/c8-3-9-1-4-5-2-6-7-4/h2-3H,1H2,(H,5,6,7)
