17
gdb 49771	2.42112	1.68031	1.08521	3.7946	76.07	-0.2357	-0.0234	0.2122	1093.6595	0.136977	-418.026761	-418.018938	-418.017994	-418.059488	29.353	
O	-0.0379111827	-0.0378819522	-0.0036071182	-0.319479
C	-0.0139700511	 1.1728524637	 0.0067383834	 0.144797
N	 1.1319171919	 1.9258608605	 0.0003369154	-0.133443
C	 2.4256475618	 1.3927210411	-0.0181341334	 0.080898
N	 3.3846662079	 2.2271382899	-0.0213967237	-0.258871
C	 2.7931353029	 3.5732726031	-0.0036391903	-0.24697
C	 1.2642775404	 3.378599538	 0.010961012	 0.355061
C	 0.3099883808	 4.2680296715	-0.7302945613	-0.31862
C	 0.3260434238	 4.2555804074	 0.7867072726	-0.318654
H	-0.9282688786	 1.7943249203	 0.0212944011	 0.085035
H	 2.5272425287	 0.31494755	-0.0282773717	 0.168509
H	 3.1474479107	 4.1169027346	 0.8798945421	 0.125702
H	 3.1286777421	 4.1319985221	-0.8850735559	 0.125709
H	 0.7250742971	 5.1274341067	-1.2474876421	 0.127909
H	-0.5367754393	 3.8111183674	-1.2322060378	 0.127252
H	-0.5100065506	 3.7904362503	 1.2989064363	 0.127251
H	 0.7521765841	 5.1064427356	 1.3090177315	 0.127912
69.5662	128.2346	195.3328	267.4159	302.811	303.0238	435.7333	510.7525	524.8133	553.7837	768.2593	798.7307	853.2435	865.9328	896.4686	941.0819	964.2339	972.9199	983.5748	1023.891	1058.908	1067.5982	1084.2862	1170.6122	1186.495	1218.1988	1239.0598	1285.9382	1310.0883	1373.9044	1407.8979	1446.8218	1460.3786	1493.0122	1502.2308	1699.7004	1793.422	2960.2198	3030.713	3061.9843	3125.332	3126.9817	3206.0991	3219.5348	3236.5309
O=CN1C=NCC11CC1	O=CN1C=NCC21CC2	
InChI=1S/C6H8N2O/c9-5-8-4-7-3-6(8)1-2-6/h4-5H,1-3H2	InChI=1S/C6H8N2O/c9-5-8-4-7-3-6(8)1-2-6/h4-5H,1-3H2
