22
gdb 82568	3.6587	1.11112	1.01954	1.5595	86.48	-0.224	0.0776	0.3016	1292.6654	0.194675	-367.161179	-367.152647	-367.151702	-367.194193	33.531	
C	-0.1811171887	 1.4066370098	-0.2827555509	-0.416968
C	 0.018724777	-0.0823310674	-0.1441398091	 0.018179
C	 0.7844732756	-0.8264330456	-1.1665886898	-0.109049
N	 1.3956621825	-0.4954529871	 0.1890902665	-0.144442
C	 1.3106786554	-1.9633669567	 0.5188466973	-0.26178
C	 0.7935738958	-2.3286910043	-0.8912307117	 0.366112
C	-0.4469894842	-3.1973556634	-1.2289761236	-0.286681
C	 0.3059945397	-3.7305305412	-2.4781984018	-0.209181
C	 1.6298512969	-3.2162418051	-1.8506728851	-0.283066
H	 0.6755495552	 1.8638088893	-0.7856815444	 0.127222
H	-1.0832862569	 1.6271141198	-0.863381203	 0.114441
H	-0.2834273475	 1.8774891279	 0.7002848572	 0.12305
H	-0.790055584	-0.6099205382	 0.3643922934	 0.078357
H	 1.1403168945	-0.3524729545	-2.0786800813	 0.084582
H	 2.3068891668	-2.3612504592	 0.7310142316	 0.106882
H	 0.6493874013	-2.1841411705	 1.3656661596	 0.096793
H	-0.6015193044	-3.980874107	-0.4799375799	 0.09926
H	-1.3940010687	-2.6732812407	-1.3846166189	 0.095421
H	 0.2334496592	-4.7985356081	-2.6949220027	 0.09757
H	 0.0394031987	-3.1762620912	-3.3822773711	 0.104092
H	 2.3456327059	-2.7089047823	-2.5036116494	 0.100348
H	 2.1577965697	-4.0051856641	-1.3049125029	 0.09886
97.3966	118.1259	181.6176	219.5197	244.0348	310.4651	356.7941	432.7231	447.0714	534.3424	682.8412	738.4008	773.7728	810.9878	832.9636	879.0616	888.6467	928.1665	935.1375	961.8035	972.0394	997.6401	1019.1168	1034.6894	1063.2392	1123.8914	1140.893	1155.5751	1175.9624	1186.8255	1193.1292	1219.0625	1237.6982	1254.0882	1270.7756	1276.6854	1286.3201	1296.8448	1340.0435	1410.6396	1440.3485	1471.71	1483.0495	1488.9609	1490.5381	1498.2975	1503.7387	3025.4149	3035.32	3042.1975	3047.1113	3061.1659	3084.9091	3090.9064	3091.9103	3097.0757	3100.4941	3117.4575	3119.0358	3133.6095
CC1C2N1CC21CCC1	C[C@H]1[C@H]2N1CC12CCC1	
InChI=1S/C8H13N/c1-6-7-8(3-2-4-8)5-9(6)7/h6-7H,2-5H2,1H3	InChI=1S/C8H13N/c1-6-7-8(3-2-4-8)5-9(6)7/h6-7H,2-5H2,1H3/t6-,7+,9?/m0/s1
