19
gdb 80371	2.31497	1.73097	1.19997	1.6405	81.25	-0.2361	0.025	0.2611	1094.3262	0.156433	-385.815831	-385.806792	-385.805848	-385.848924	34.95	
C	-0.0563031294	 1.5164638435	-0.1833368244	-0.420981
C	 0.0590876714	 0.0225005272	 0.0202388739	-0.031645
C	 1.332585295	-0.750706494	-0.1087493736	 0.06546
O	 2.4574252533	-0.0014803333	 0.3667311526	-0.319693
C	 1.9326315563	-0.0524662436	 1.7384752308	 0.206722
C	 2.7808685034	-1.0165295268	 2.5679069297	-0.424824
C	 1.8683715109	 1.2559520472	 2.3830995566	 0.312199
C	 1.8414843231	 2.3061944228	 2.9676299983	-0.445503
C	 0.6315498244	-0.6980281098	 1.2317873231	-0.187515
H	 0.8868072876	 2.0179522562	 0.0363854059	 0.146485
H	-0.3206553554	 1.7309512174	-1.2245353888	 0.111239
H	-0.8310773263	 1.9488366144	 0.4575233384	 0.117571
H	-0.7850088437	-0.5480306442	-0.3672181878	 0.089549
H	 1.5319006557	-1.5584144305	-0.8038716578	 0.101297
H	 3.7974252167	-0.6275163447	 2.6652038479	 0.136173
H	 2.3550041095	-1.1336215768	 3.5692326426	 0.124789
H	 2.8175957318	-1.9930212477	 2.0781526838	 0.122375
H	 1.8036529011	 3.2433342646	 3.4664082293	 0.197676
H	 0.0896422148	-1.4570977919	 1.7809935596	 0.098626
121.4038	136.9407	186.551	211.4676	231.6798	241.8424	294.0253	362.769	457.6776	526.6955	544.2662	608.5235	621.297	649.0096	672.3339	728.0421	812.9778	845.7676	881.7802	906.0531	954.2688	1000.6812	1015.1417	1038.2283	1059.1404	1084.6015	1113.8058	1138.2143	1159.7029	1202.5604	1242.6951	1280.9042	1331.9641	1399.9901	1413.38	1439.0805	1481.3715	1482.8641	1492.686	1500.9872	2230.4814	3039.1255	3043.4962	3096.5661	3113.5974	3120.5295	3131.8313	3147.8682	3174.4434	3195.3257	3499.666
CC1C2OC(C)(C#C)C12	C[C@H]1[C@H]2O[C@@](C)(C#C)[C@@H]12	
InChI=1S/C8H10O/c1-4-8(3)6-5(2)7(6)9-8/h1,5-7H,2-3H3	InChI=1S/C8H10O/c1-4-8(3)6-5(2)7(6)9-8/h1,5-7H,2-3H3/t5-,6+,7-,8+/m1/s1
