23
gdb 91945	2.22322	1.69509	1.31175	0.2371	88.53	-0.2416	0.0809	0.3225	1118.0238	0.207436	-351.145288	-351.136893	-351.135949	-351.177772	34.357	
C	-0.4299685538	 1.4612943969	 0.0709204094	-0.395257
C	 0.0032787706	-0.0102730959	-0.0132514482	-0.088005
C	 0.8356789399	-0.3315678021	-1.2938712692	-0.232769
C	 2.2839154264	-0.4972655706	-0.8514927059	-0.030753
C	 2.9183548668	 0.600463814	-0.0332264129	-0.30675
C	 2.3104541908	-0.5995404017	 0.6560316015	-0.100856
C	 0.8917687337	-0.4965409614	 1.1545433144	 0.400627
C	 0.5912609326	-0.1580891294	 2.5931063489	-0.319406
C	 0.3936033833	-1.5693563775	 2.0957020288	-0.324256
H	 0.4193964517	 2.1501437449	 0.0864439149	 0.119827
H	-1.0503362853	 1.7224369038	-0.7934446003	 0.109378
H	-1.0229082498	 1.6517312969	 0.970926845	 0.110879
H	-0.916153939	-0.6059033705	-0.0295535606	 0.072261
H	 0.4930258239	-1.2735074894	-1.7364734034	 0.097073
H	 0.7098711046	 0.4420645338	-2.0601532277	 0.093164
H	 2.9346836813	-1.1115805428	-1.46449189	 0.07735
H	 4.0019987984	 0.6573905069	-0.0481946851	 0.105243
H	 2.4323399747	 1.566147503	 0.0448481591	 0.110992
H	 2.9765523163	-1.287186399	 1.1672662634	 0.074872
H	 1.42954736	 0.0411155345	 3.2528434494	 0.108799
H	-0.2926064757	 0.4300737604	 2.8168397277	 0.10653
H	-0.6243979929	-1.9251216637	 1.9701259441	 0.105315
H	 1.0921053415	-2.3336856714	 2.4221247467	 0.105744
90.5831	181.6238	209.1361	253.8924	283.3834	319.4898	364.8557	401.7036	487.1913	537.7257	666.3314	716.6964	756.7687	791.0838	821.3256	868.3832	876.1842	897.8889	912.6922	935.3869	957.1409	990.6109	1007.1001	1026.1138	1049.2382	1058.2358	1069.0588	1077.3219	1081.0707	1107.6343	1124.1689	1139.2793	1189.3377	1208.0596	1233.5179	1242.7532	1285.3709	1296.3717	1332.8941	1361.5263	1374.9611	1404.7073	1421.8825	1467.9043	1479.4333	1493.2206	1497.194	1503.4282	1506.8756	3025.4773	3033.8003	3039.217	3067.0666	3097.74	3112.0495	3118.0683	3126.9461	3132.6895	3152.7915	3164.8326	3196.2289	3212.9753	3215.4703
CC1CC2CC2C11CC1	C[C@H]1C[C@H]2C[C@H]2C21CC2	
InChI=1S/C9H14/c1-6-4-7-5-8(7)9(6)2-3-9/h6-8H,2-5H2,1H3	InChI=1S/C9H14/c1-6-4-7-5-8(7)9(6)2-3-9/h6-8H,2-5H2,1H3/t6-,7-,8+/m0/s1
