17
gdb 43190	2.68574	1.70113	1.2373	3.8325	74.48	-0.2379	-0.0122	0.2256	1022.2196	0.13667	-417.94117	-417.933653	-417.932709	-417.973391	28.784	
N	-0.0430724017	 1.2247577057	-0.4310647716	-0.529248
C	 0.0195135677	-0.0097723307	-0.1905230221	 0.271638
N	 1.0918815076	-0.9330525974	 0.0523524883	-0.155297
C	 1.6525933992	-0.9371972315	 1.4491063807	-0.183599
C	 0.6248970325	-2.0220694284	 1.884428463	-0.250935
C	 0.107615247	-2.0262808921	 0.4201563912	-0.087927
C	-1.0320508297	-1.0712180001	 0.0506827635	 0.391969
C	-2.4048933667	-0.9337608963	 0.5469608937	-0.258306
O	-2.1277270104	-1.37420303	-0.7848068972	-0.262099
H	 0.8905239708	 1.6399060643	-0.4791372972	 0.22423
H	 2.6935783284	-1.268176042	 1.459280682	 0.121558
H	 1.5836611707	 0.0355150927	 1.9444640008	 0.119351
H	 1.0630400351	-2.9643383405	 2.2173113957	 0.117632
H	-0.1083856647	-1.6942980008	 2.6250583427	 0.11587
H	 0.1607398408	-2.9596763565	-0.1429710591	 0.102873
H	-2.8093854508	-1.6910816816	 1.2174738915	 0.121214
H	-2.8349355158	 0.0625424051	 0.629340154	 0.141075
76.4808	179.6526	201.3326	236.8839	263.6227	385.0152	474.3779	573.9919	703.4031	716.0727	737.8146	803.7955	829.6805	878.8358	889.082	904.2105	929.781	954.3874	981.8753	998.075	1065.0472	1095.3198	1129.4101	1159.0978	1160.9205	1173.9645	1194.0312	1221.1299	1258.9072	1275.4405	1302.1135	1320.4361	1433.0581	1480.514	1507.395	1523.7586	1787.9421	3057.1827	3072.1494	3084.9384	3098.687	3106.4513	3132.112	3181.4853	3451.3896
N=C1N2CCC2C11CO1	[NH][C]1N2CC[C@H]2[C@]21CO2	
InChI=1S/C6H8N2O/c7-5-6(3-9-6)4-1-2-8(4)5/h4,7H,1-3H2	InChI=1S/C6H8N2O/c7-5-6(3-9-6)4-1-2-8(4)5/h4,7H,1-3H2/t4-,6-/m0/s1
