18
gdb 26674	2.25189	1.57374	0.94103	2.1454	76.92	-0.1707	0.0506	0.2213	1226.8611	0.147999	-435.291192	-435.281179	-435.280234	-435.325693	36.437	
C	-0.0308688156	 1.4926955769	 0.0567199406	-0.506085
C	 0.0110053619	 0.0035323082	-0.0199310916	 0.262597
C	 0.0036769896	-0.8407853666	-1.1195184807	-0.001704
N	-0.0444956408	-0.5732730558	-2.5222911829	-0.634517
C	 0.0568722292	-2.1788603955	-0.6367540435	 0.279568
O	 0.066600804	-3.2853505391	-1.4285371615	-0.462636
C	 0.0957166058	-2.1433671209	 0.7373880759	 0.132496
N	 0.1543944725	-3.1279665019	 1.7493335375	-0.615792
N	 0.0670518059	-0.7990786015	 1.0869408091	-0.326146
H	 0.8552202261	 1.9128077791	 0.5497543137	 0.126004
H	-0.0723271177	 1.9104133309	-0.953034779	 0.119483
H	-0.9103805003	 1.8604886779	 0.6006929007	 0.125972
H	 0.748469367	-0.0271860879	-2.8425417043	 0.23789
H	-0.8855738849	-0.0758822088	-2.79573062	 0.237883
H	 0.0305276886	-2.9383905449	-2.3326254383	 0.288946
H	 0.9826669882	-3.7080784066	 1.6542521373	 0.24202
H	-0.6433042938	-3.7549758181	 1.7030173231	 0.241989
H	 0.0839325346	-0.4932838754	 2.0445942138	 0.252032
95.142	120.5654	159.9331	169.5621	186.8692	234.5014	259.3446	282.958	300.6717	333.9978	458.9445	528.273	558.6664	607.0261	609.2114	641.2011	707.4949	754.4788	797.4396	829.9121	940.1728	1000.9871	1056.3519	1121.5303	1197.4601	1214.2916	1230.7651	1245.2785	1319.5697	1364.9971	1414.6984	1480.0768	1482.345	1502.9029	1506.9749	1585.6813	1646.615	1661.1389	1695.4175	3011.1295	3053.6716	3108.4999	3487.5548	3494.8144	3543.8465	3562.3062	3676.613	3721.9905
CC1=C(N)C(O)=C(N)N1	Cc1c(N)c(O)c(N)[nH]1	
InChI=1S/C5H9N3O/c1-2-3(6)4(9)5(7)8-2/h8-9H,6-7H2,1H3	InChI=1S/C5H9N3O/c1-2-3(6)4(9)5(7)8-2/h8-9H,6-7H2,1H3
