23
gdb 109545	2.00135	1.41899	0.95764	2.712	85.95	-0.2319	-0.0113	0.2205	1340.6479	0.203774	-388.313415	-388.302967	-388.302022	-388.348722	38.389	
C	-0.0300593005	 1.679115757	 0.139709988	-0.390459
C	 0.0388229935	 0.1477239565	 0.1559643067	-0.176668
C	-1.3224549146	-0.5284479842	-0.0201017906	-0.043896
C	-1.8567005187	-0.6609179428	-1.501909097	-0.090665
C	-1.3853638475	 0.2015389138	-2.6647350355	-0.416683
C	-1.381771516	-2.1186008051	-1.4459642366	 0.377529
O	-1.0281844354	-2.9005088984	-2.2839672539	-0.312939
C	-1.3013994191	-2.1025389815	 0.0844319482	-0.101915
C	-0.178482826	-2.8693256649	 0.7679403382	-0.415827
H	 0.9587594873	 2.1181008513	 0.3052295728	 0.114038
H	-0.4079655164	 2.0609783061	-0.8126032003	 0.1228
H	-0.6936668868	 2.047352686	 0.9301055588	 0.114927
H	 0.740292129	-0.2012792155	-0.6133439029	 0.10156
H	 0.4659437094	-0.1741801009	 1.1136813318	 0.101071
H	-2.0423522608	-0.0618455883	 0.6585211326	 0.0665
H	-2.9543162209	-0.668539961	-1.4709825047	 0.10001
H	-0.2959490694	 0.2931404439	-2.6897281161	 0.124875
H	-1.6932634013	-0.2615321524	-3.6074307515	 0.133602
H	-1.8140406102	 1.2072785037	-2.6266615093	 0.118332
H	-2.2713779377	-2.4371668052	 0.4753067914	 0.099294
H	 0.8034818195	-2.5755565527	 0.3872823609	 0.125212
H	-0.1859743565	-2.7112595289	 1.851187633	 0.116997
H	-0.2940698909	-3.9413576766	 0.5825840158	 0.132304
58.212	126.3399	166.0069	176.7522	183.3637	199.6753	218.3735	222.8372	261.9838	310.7484	433.7894	489.6333	529.9209	552.6917	725.348	737.8479	768.9874	810.6815	858.0241	942.9227	951.1736	968.2706	1019.486	1023.8079	1057.9797	1089.7218	1102.9379	1148.6507	1167.1994	1177.1305	1183.9831	1246.0633	1265.4994	1294.9942	1321.2177	1347.2927	1365.9168	1397.1155	1405.7471	1410.1994	1412.7006	1481.5252	1492.5608	1494.1222	1496.2329	1501.	1503.9947	1508.5619	1876.3778	3017.6318	3021.0561	3025.3826	3036.1299	3040.2389	3042.183	3047.5971	3065.3258	3099.8306	3107.2968	3108.0744	3115.3848	3116.3965	3118.4796
CCC1C(C)C(=O)C1C	CC[C@H]1[C@@H](C)C(=O)[C@H]1C	
InChI=1S/C8H14O/c1-4-7-5(2)8(9)6(7)3/h5-7H,4H2,1-3H3	InChI=1S/C8H14O/c1-4-7-5(2)8(9)6(7)3/h5-7H,4H2,1-3H3/t5-,6+,7+
