13
gdb 19609	3.3634	2.43306	1.81754	3.2315	57.54	-0.2504	-0.0162	0.2342	721.1426	0.095894	-398.546558	-398.540316	-398.539372	-398.576875	23.821	
O	-0.0423711599	 1.4920658295	-0.1513294076	-0.424915
C	-0.0200104868	 0.09357605	-0.1052505279	 0.124703
C	-1.361128557	-0.6121676096	-0.161270969	-0.051003
C	-1.8027292967	-0.7501672113	-1.5866867188	-0.185572
N	-0.8172013749	-1.7431702749	-0.9654753703	-0.154794
C	 0.2961817978	-0.7177868038	-1.3877795125	-0.20761
C	-0.6970075114	-0.1950942334	-2.4290526465	 0.491235
O	-0.6086092464	 0.2364132899	-3.5399037608	-0.328549
H	 0.8493076283	 1.8271443145	-0.0128228352	 0.294136
H	 0.5597181041	-0.2895411973	 0.7443536771	 0.094899
H	-2.0624446096	-0.779326049	 0.6485418964	 0.113643
H	-2.8116393104	-1.0327144239	-1.8577885487	 0.126772
H	 1.2923765728	-1.0598307908	-1.6558094861	 0.107057
135.031	217.9407	251.4072	368.9183	438.9607	585.2792	628.6237	696.8739	745.4251	759.3629	825.6311	834.0514	938.4771	951.7785	975.6384	1033.1636	1047.435	1090.1412	1134.6347	1152.1868	1167.5657	1170.2392	1214.1416	1294.1249	1318.5019	1360.6436	1439.9841	1903.4879	3027.5416	3165.2452	3183.0848	3215.0875	3821.9542
OC1C2C3N2C1C3=O	O[C@H]1[C@H]2[C@@H]3N2[C@H]1C3=O	
InChI=1S/C5H5NO2/c7-4-1-2-5(8)3(4)6(1)2/h1-4,7H	InChI=1S/C5H5NO2/c7-4-1-2-5(8)3(4)6(1)2/h1-4,7H/t1-,2+,3-,4+,6?/m1/s1
