19
gdb 47428	2.95334	1.23618	0.92108	2.1301	75.2	-0.2414	-0.0221	0.2193	1264.2461	0.159357	-423.037956	-423.02957	-423.028626	-423.071961	31.151	
O	-0.3141226816	 0.0880168143	 0.5628818559	-0.316108
C	-0.2214506945	 1.2437911331	 0.2395216705	 0.392298
C	-1.3742872543	 2.1633109543	-0.1746187366	-0.315125
C	-0.6990889492	 3.4455421365	-0.6861448102	-0.223695
C	 0.6232927407	 3.5157685847	 0.1083621406	-0.238484
C	 1.0919747796	 2.0525617641	 0.186508137	-0.108589
C	 2.0417814958	 1.7075395691	 1.3033274373	 0.091529
C	 2.9859958042	 0.5924480022	 1.2040916406	-0.171994
O	 3.4323530877	 1.9455687877	 1.0685122437	-0.249248
H	-2.035905383	 1.6642924741	-0.8867602728	 0.130534
H	-1.9696321117	 2.359066637	 0.7272805182	 0.134082
H	-0.4827001874	 3.3542430793	-1.7568381445	 0.109033
H	-1.3165871895	 4.3371741069	-0.5558787017	 0.106854
H	 1.3652332508	 4.1739001437	-0.348492178	 0.117391
H	 0.430976411	 3.8937969908	 1.1210237254	 0.104321
H	 1.5742469546	 1.777873406	-0.7632946767	 0.108949
H	 1.7050540471	 2.0003553977	 2.2997477791	 0.093028
H	 3.3120399614	 0.078777309	 2.1066272751	 0.117708
H	 3.0141302484	-0.0046565607	 0.2944405372	 0.117514
53.437	68.2129	151.6628	177.9437	288.0973	321.5471	408.0857	487.8851	542.6723	569.7801	612.7251	731.3163	836.0215	848.9692	870.5605	909.7878	918.0039	943.0697	969.6255	1012.4136	1047.5108	1081.036	1118.1257	1151.6298	1157.341	1162.1534	1174.9816	1198.8207	1223.7359	1265.8617	1291.1943	1299.6337	1305.6929	1339.8036	1349.7074	1445.2163	1447.2099	1494.5648	1506.1883	1532.662	1841.4276	3007.8219	3029.0219	3032.7512	3045.1779	3089.1566	3093.6567	3100.6048	3106.4102	3110.2751	3178.3881
O=C1CCCC1C1CO1	O=C1CCC[C@H]1[C@H]1CO1	
InChI=1S/C7H10O2/c8-6-3-1-2-5(6)7-4-9-7/h5,7H,1-4H2	InChI=1S/C7H10O2/c8-6-3-1-2-5(6)7-4-9-7/h5,7H,1-4H2/t5-,7-/m1/s1
