17
gdb 32150	3.86099	1.15505	0.89463	2.43	81.02	-0.2202	0.0037	0.224	1270.5517	0.13803	-418.073922	-418.065733	-418.064789	-418.106516	31.221	
C	 0.0001498	 1.3936517198	-0.0132424349	-0.227675
O	-0.025853411	-0.0307386869	 0.0169307197	-0.268553
C	-1.2397174583	-0.6217453655	 0.0324265607	 0.473384
N	-2.3293443253	 0.1366274882	 0.0169360035	-0.38652
C	-3.5035817796	-0.5127159532	 0.031911566	 0.00116
C	-3.6403761515	-1.8853466346	 0.0615101528	-0.208942
C	-2.4733687389	-2.6767151541	 0.0774772959	 0.369086
N	-2.5528843392	-4.0546711037	 0.1612516961	-0.58931
C	-1.2457252018	-2.0194106519	 0.0602496821	-0.323326
H	 1.0572336604	 1.665121241	-0.0208259952	 0.120845
H	-0.4969229823	 1.7812582152	-0.9072154757	 0.130721
H	-0.4937006158	 1.8185610209	 0.8653879372	 0.1315
H	-4.3900172368	 0.117452991	 0.0172383039	 0.102598
H	-4.6228886555	-2.344245964	 0.0767248676	 0.080975
H	-3.4135036043	-4.4698477687	-0.1604044098	 0.251985
H	-1.7350854842	-4.5666570373	-0.132068204	 0.252444
H	-0.306539456	-2.5601838862	 0.071210654	 0.089629
99.2654	167.4908	229.6191	229.8097	238.816	355.742	372.1831	466.8945	473.118	516.5576	538.7135	635.9179	679.4232	762.0483	788.9004	817.4062	861.8315	953.4326	975.3654	999.5811	1064.7292	1100.6621	1136.6351	1179.1657	1202.464	1233.9594	1326.5985	1341.9362	1377.3535	1449.6774	1478.5025	1495.6254	1508.787	1526.1684	1607.4571	1647.6452	1665.137	3039.8093	3109.4966	3139.5684	3149.4141	3187.5706	3193.4141	3579.9765	3684.2297
COC1=NC=CC(N)=C1	COc1nccc(N)c1	
InChI=1S/C6H8N2O/c1-9-6-4-5(7)2-3-8-6/h2-4H,1H3,(H2,7,8)	InChI=1S/C6H8N2O/c1-9-6-4-5(7)2-3-8-6/h2-4H,1H3,(H2,7,8)
