19
gdb 83519	2.78435	1.76598	1.58016	1.1685	72.48	-0.2459	0.0881	0.3339	938.7015	0.161684	-423.008306	-423.001333	-423.000389	-423.039268	28.852	
C	-0.0791086122	 1.5434593718	 0.0308232858	-0.438128
C	 0.0225396854	 0.0219106548	 0.0012441821	 0.027032
C	 0.9977506032	-0.5971366663	-1.0358608681	-0.121298
C	 2.3503551222	-0.1177269396	-0.4553824165	-0.082357
O	 2.1465423454	-0.1360278308	 0.9733358779	-0.281687
C	 0.794147676	-0.6043321805	 1.1769122039	 0.043289
C	 0.8373055252	-2.0935747594	 0.8092074774	 0.036471
O	-0.2315451664	-2.559324168	-0.0281167295	-0.258359
C	 0.9647846262	-2.0836742392	-0.6540266397	 0.049455
H	 0.8744836064	 2.0159202931	 0.2785461752	 0.133494
H	-0.4149588492	 1.931628665	-0.9366190765	 0.114057
H	-0.8087720836	 1.8606588856	 0.7830950297	 0.117994
H	-0.9662089331	-0.4246722453	-0.1003852491	 0.101987
H	 0.8330070941	-0.3507823992	-2.0853218161	 0.071388
H	 3.182736852	-0.7820067747	-0.7178389516	 0.101215
H	 2.605642255	 0.8989993357	-0.7747193132	 0.103276
H	 0.4932439516	-0.3407019501	 2.1907311116	 0.074306
H	 1.3022159457	-2.8275298306	 1.4589328661	 0.105587
H	 1.5335839961	-2.8205228325	-1.2135994692	 0.102279
174.9668	239.124	277.7791	296.6527	342.3839	394.1848	502.085	597.7762	638.0418	747.8603	769.2867	839.228	865.0864	897.4632	902.0844	914.5865	939.6808	957.2963	961.0661	998.0124	1018.9941	1059.5632	1072.4128	1094.3416	1112.5069	1125.8292	1180.3398	1213.9858	1241.3438	1260.1873	1281.7942	1293.5806	1302.96	1318.911	1370.557	1379.1647	1408.8764	1423.6319	1493.7709	1504.1097	1530.7887	3023.3578	3038.1966	3060.6615	3097.057	3109.071	3112.8078	3123.0217	3130.1771	3157.161	3177.4275
CC1C2COC1C1OC21	C[C@H]1[C@H]2CO[C@@H]1[C@H]1O[C@@H]21	
InChI=1S/C7H10O2/c1-3-4-2-8-5(3)7-6(4)9-7/h3-7H,2H2,1H3	InChI=1S/C7H10O2/c1-3-4-2-8-5(3)7-6(4)9-7/h3-7H,2H2,1H3/t3-,4+,5-,6-,7+/m0/s1
