18
gdb 73176	2.48095	1.47282	1.3349	2.6125	77.92	-0.2313	0.0329	0.2642	1067.7974	0.146187	-401.8649	-401.856329	-401.855384	-401.897988	32.781	
C	-0.3677498078	 1.2953148702	-0.2138839479	-0.480145
C	 0.0067616775	-0.1333673564	 0.0710664603	 0.446649
O	-1.1219962751	-0.9494413357	 0.4306292572	-0.321642
C	-0.4597776271	-1.4461255011	 1.6246867263	-0.06789
C	 0.8398110588	-0.7230198427	 1.2416258111	-0.122914
N	 1.6436836923	-1.5329079147	 0.2943009717	-0.314687
C	 1.0161744852	-0.8586020383	-0.8902818862	-0.264557
C	 0.4862357181	-1.7313907162	-1.9208137103	 0.376255
C	 0.0433905411	-2.4306420043	-2.7923420091	-0.437613
H	 0.5191367457	 1.9097974494	-0.3969581714	 0.117494
H	-1.0063620297	 1.3401000158	-1.10335441	 0.140901
H	-0.925482209	 1.7220234824	 0.6245741189	 0.127629
H	-0.9562214495	-1.0754853178	 2.5306651058	 0.096317
H	-0.3943201249	-2.5379446865	 1.6437949696	 0.11556
H	 1.3808359683	-0.1476489164	 1.9940338849	 0.078219
H	 2.6405377074	-1.3633382254	 0.3547726456	 0.223667
H	 1.6815326829	-0.1140378018	-1.3498340694	 0.091402
H	-0.3560255644	-3.0585996904	-3.5496799771	 0.195355
76.2613	126.0922	191.9952	198.4748	258.7669	333.9801	345.3843	414.2264	518.7637	550.0075	594.2418	618.0243	656.2931	694.4299	758.8477	834.241	854.3433	913.5596	931.5086	956.8346	997.9679	1041.2829	1062.6461	1075.2867	1137.1868	1141.3293	1168.7685	1177.8675	1205.576	1268.815	1333.7385	1338.1928	1369.6812	1392.5556	1409.9724	1479.692	1487.7732	1506.2272	2236.8741	2997.0899	3016.3233	3034.3047	3090.4232	3101.0037	3103.731	3116.3498	3503.9473	3547.9516
CC12OCC1NC2C#C	C[C@]12OC[C@H]1N[C@H]2C#C	
InChI=1S/C7H9NO/c1-3-5-7(2)6(8-5)4-9-7/h1,5-6,8H,4H2,2H3	InChI=1S/C7H9NO/c1-3-5-7(2)6(8-5)4-9-7/h1,5-6,8H,4H2,2H3/t5-,6+,7+/m0/s1
