17
gdb 72355	2.57975	1.72207	1.34688	3.8184	73.78	-0.2429	-0.0423	0.2006	995.0719	0.135246	-417.996118	-417.987928	-417.986984	-418.028999	30.183	
C	-0.0184953552	 1.4826115634	-0.0161437015	-0.48006
C	 0.0046089372	-0.0252125017	-0.0126450237	 0.293896
C	-0.6542139697	-0.7812721273	-1.1777579755	-0.241675
N	-1.4086807719	-1.8827016275	-0.5647081555	-0.189539
C	-1.1847760039	-1.8381856204	 0.6826562961	 0.057196
N	-0.4247257173	-0.7376165037	 1.2125993953	-0.16564
C	 1.0075372745	-0.7529903294	 0.8460145716	-0.157195
C	 1.762357419	-1.96489733	 0.412254472	 0.148419
O	 1.3479568773	-3.0951463932	 0.3715801469	-0.246133
H	 0.6209391119	 1.8784428041	-0.8125870031	 0.129033
H	-1.0366280752	 1.8466752941	-0.1896086038	 0.135136
H	 0.3300770168	 1.8853666966	 0.938133455	 0.133559
H	-1.333871177	-0.1177730478	-1.7253802822	 0.120871
H	 0.0525095077	-1.1877766084	-1.9100412963	 0.126024
H	-1.5913260172	-2.5516549782	 1.3909760777	 0.135756
H	 1.6186971059	-0.1130060107	 1.4838831562	 0.113566
H	 2.8157166171	-1.72653409	 0.1371844708	 0.086788
71.3042	170.5746	178.4791	200.7033	213.2994	306.5461	327.2095	455.4448	501.4273	599.7218	710.0863	760.8525	806.5067	817.8957	888.2315	936.7412	968.8038	971.3	976.3324	997.2565	1015.9511	1095.753	1096.6343	1136.3952	1208.7901	1244.7087	1301.2386	1323.0688	1331.796	1401.5538	1417.7054	1422.3301	1481.6031	1489.5243	1491.5289	1688.2746	1821.2946	2866.8513	3033.7468	3038.0581	3067.7274	3100.4235	3102.2287	3121.5557	3208.4663
CC12CN=CN1C2C=O	C[C@]12CN=CN1[C@H]2C=O	
InChI=1S/C6H8N2O/c1-6-3-7-4-8(6)5(6)2-9/h2,4-5H,3H2,1H3	InChI=1S/C6H8N2O/c1-6-3-7-4-8(6)5(6)2-9/h2,4-5H,3H2,1H3/t5-,6+,8?/m0/s1
