18
gdb 102397	1.8363	1.44633	1.07222	5.9748	67.89	-0.2732	0.0223	0.2954	1193.2785	0.145746	-476.210346	-476.199925	-476.198981	-476.245921	36.762	
O	-0.0638240509	 1.3233788442	-0.2850947307	-0.438482
C	-0.0025818091	-0.0787135194	-0.0332158344	-0.130893
C	-1.4535428376	-0.5948477374	 0.0314237004	 0.037491
C	-2.183183333	-0.063893691	 1.295990441	-0.098076
O	-1.630953052	-0.5321102067	 2.507505907	-0.410286
C	-2.2525085309	-0.1191958356	-1.2292601387	-0.089206
O	-1.4780925699	-0.0716913405	-2.4035698909	-0.417997
C	-1.3987967442	-2.0602507606	 0.0712625908	 0.275794
N	-1.3564573664	-3.2149200126	 0.084857955	-0.340174
H	 0.8324487893	 1.6728030809	-0.2796352264	 0.301696
H	 0.5280129318	-0.6028894731	-0.8356842218	 0.131635
H	 0.5063718427	-0.2996391465	 0.914527499	 0.107685
H	-2.1819919151	 1.0314887626	 1.2411482316	 0.11828
H	-3.2229021476	-0.4058454676	 1.2728162272	 0.127813
H	-0.8927643615	 0.0341843662	 2.7487183151	 0.293373
H	-3.0747749547	-0.8145252398	-1.4154549002	 0.135063
H	-2.6875614543	 0.8627275131	-0.999002926	 0.104289
H	-0.8902960866	 0.6871296839	-2.3045084879	 0.291994
67.8064	84.0659	136.1271	138.4612	178.5582	222.9423	245.9323	272.7203	308.5831	336.1888	393.6076	440.2458	477.5894	534.5413	569.1601	662.4951	749.0769	868.3738	886.2087	971.2846	1058.5969	1064.6051	1095.3048	1112.4945	1129.7752	1154.4641	1222.2484	1253.8933	1282.5615	1309.8271	1394.6706	1406.6622	1415.4019	1432.9777	1453.0426	1490.4127	1498.032	1525.0082	2357.384	3011.3816	3015.6457	3031.1303	3066.0247	3088.7597	3101.7916	3786.3029	3832.3953	3840.117
OCC(CO)(CO)C#N	OCC(CO)(CO)C#N	
InChI=1S/C5H9NO3/c6-1-5(2-7,3-8)4-9/h7-9H,2-4H2	InChI=1S/C5H9NO3/c6-1-5(2-7,3-8)4-9/h7-9H,2-4H2
