16
gdb 125678	3.27336	1.13051	0.86419	3.7233	74.51	-0.2334	0.0127	0.2461	1290.1533	0.124788	-434.081554	-434.072877	-434.071933	-434.116032	30.601	
C	-0.1035355291	 1.4938833815	 0.1216168111	-0.491557
C	-0.0290294149	 0.0026035817	 0.0948453659	 0.263835
N	-0.1776106631	-0.6923295416	-1.0315600086	-0.277513
N	-0.043329892	-1.982967617	-0.6722406339	-0.184524
C	 0.197090689	-2.152650274	 0.6515620342	-0.130896
C	 0.2056942512	-0.8771753643	 1.1782081297	 0.189521
O	 0.446571233	-0.4763449264	 2.4665915459	-0.21192
C	-0.2413587619	-1.0982190171	 3.4596419782	 0.106272
N	 0.0769325509	-0.8890243987	 4.6595138345	-0.430296
H	 0.8423805222	 1.9334330733	 0.4549291048	 0.140552
H	-0.3300579615	 1.8693560259	-0.8780781136	 0.141377
H	-0.8792452215	 1.8417274021	 0.8118138162	 0.133329
H	-0.1243904535	-2.6951098712	-1.376904366	 0.279307
H	 0.3533311371	-3.1208426453	 1.0981347586	 0.142325
H	-1.046090977	-1.7389048601	 3.0779075372	 0.095865
H	-0.5476580088	-1.4010336988	 5.2790127858	 0.234324
49.8921	79.6321	110.7594	158.7714	246.8807	261.1138	390.5495	465.6452	471.0034	495.2043	662.8469	680.502	711.8396	773.8276	816.6754	838.1885	942.2929	1004.9032	1041.9062	1049.9685	1068.3017	1076.9627	1180.907	1226.3084	1276.759	1334.2345	1399.438	1404.459	1415.7009	1479.8849	1482.1195	1491.1243	1538.3275	1611.1466	1746.4065	3041.1193	3044.9683	3093.7262	3137.7131	3269.729	3521.4196	3682.5402
CC1=NNC=C1OC=N	Cc1n[nH]cc1O[CH][NH]	
InChI=1S/C5H7N3O/c1-4-5(9-3-6)2-7-8-4/h2-3,6H,1H3,(H,7,8)	InChI=1S/C5H7N3O/c1-4-5(9-3-6)2-7-8-4/h2-3,6H,1H3,(H,7,8)
