16
gdb 22925	2.97522	1.31994	1.07298	2.0567	69.17	-0.2452	-0.0122	0.233	1114.3445	0.122669	-474.935461	-474.927186	-474.926242	-474.968424	31.138	
O	-0.1044578954	 1.3186843342	 0.3716507211	-0.382664
N	 0.0030127385	-0.078617165	 0.3990105299	-0.244349
C	-1.0280248099	-0.6343912936	-0.0848143561	 0.316665
C	-2.4190458284	-0.1978885188	-0.5146672392	-0.336003
C	-2.8602955382	-1.6857466743	-0.4205355409	 0.031224
O	-2.7705037605	-2.3591452965	-1.6826283793	-0.284041
C	-1.4236810417	-2.8140181294	-1.4239936262	-0.120481
C	-1.367865381	-2.1052831405	-0.0535299658	 0.278652
O	-0.8912438099	-2.8939897011	 0.9773854207	-0.459794
H	 0.7265131096	 1.5985594898	 0.7714462674	 0.3106
H	-2.8845564336	 0.4771642449	 0.2105165543	 0.132572
H	-2.5104203389	 0.2317959647	-1.5146277194	 0.137023
H	-3.7562863622	-1.9361105247	 0.1497298695	 0.092274
H	-1.382407662	-3.9030354051	-1.3054681641	 0.120647
H	-0.7088464667	-2.4941508674	-2.1893963483	 0.113756
H	-0.5587687799	-2.3099126871	 1.6687403364	 0.29392
74.4391	148.5726	174.9767	263.0026	285.9941	348.4484	371.5899	409.5126	447.4507	492.7984	534.4947	652.1332	721.7636	799.8941	836.6838	902.4528	951.0641	975.5445	1009.9433	1036.9589	1043.0946	1065.6399	1116.2331	1125.344	1157.0259	1170.0673	1232.8283	1282.7321	1318.3133	1354.1798	1391.8426	1415.5283	1444.9458	1511.5241	1770.5459	3028.5251	3059.337	3084.6274	3103.8745	3119.1724	3800.4191	3811.8216
ON=C1CC2OCC12O	ON=C1C[C@H]2OC[C@@]12O	
InChI=1S/C5H7NO3/c7-5-2-9-4(5)1-3(5)6-8/h4,7-8H,1-2H2	InChI=1S/C5H7NO3/c7-5-2-9-4(5)1-3(5)6-8/h4,7-8H,1-2H2/t4-,5-/m1/s1
