17
gdb 125852	3.25514	1.58566	1.12892	2.3985	81.05	-0.2067	-0.0167	0.1899	1058.7365	0.139591	-380.898025	-380.890884	-380.88994	-380.929429	28.312	
C	-0.1033385002	 1.5927171768	-0.028911112	-0.386927
C	 0.0037220117	 0.0574670347	 0.0107655149	-0.210054
C	 0.8332573422	-0.51512803	-1.1370695328	-0.068681
C	 1.8611066545	-1.2700249768	-0.6964933073	-0.220441
C	 1.7990602929	-1.2632866907	 0.7564987427	 0.361402
C	 0.7343495153	-0.5016589968	 1.2041131891	 0.221019
C	 0.8020576755	-0.5825933622	 2.6048964526	-0.169273
N	 1.8334872401	-1.3393558383	 2.9982579702	-0.231069
N	 2.4305970719	-1.7466336303	 1.8472712365	-0.343608
H	 0.8887912024	 2.0498879387	 0.0220732281	 0.126784
H	-0.5908252853	 1.9274398143	-0.9501952456	 0.113631
H	-0.6917155664	 1.9593662401	 0.8174149513	 0.121569
H	-1.013320768	-0.3573262306	-0.0541848779	 0.103562
H	 0.5997560109	-0.3125733453	-2.1754256006	 0.101564
H	 2.592143212	-1.7842002916	-1.3061710699	 0.105103
H	 0.1668152895	-0.1391308595	 3.3579249402	 0.106096
H	 3.2404491109	-2.3389345125	 1.9095399006	 0.269322
134.9672	169.9624	256.5897	294.1139	360.4187	467.0934	487.7561	548.3502	644.0571	673.5597	696.528	714.9195	779.3764	807.0467	885.5208	907.8881	935.4808	968.0399	1019.8869	1070.5486	1087.8537	1093.1809	1098.096	1167.8081	1223.1182	1246.2444	1288.665	1310.2953	1353.774	1395.7279	1407.1964	1450.2598	1497.0479	1499.0265	1543.4036	1565.3601	1609.7567	3002.2063	3037.1285	3106.6608	3118.183	3202.5323	3228.4425	3240.5856	3678.7171
CC1C=CC2=C1C=NN2	C[C@H]1C=Cc2c1cn[nH]2	
InChI=1S/C7H8N2/c1-5-2-3-7-6(5)4-8-9-7/h2-5H,1H3,(H,8,9)	InChI=1S/C7H8N2/c1-5-2-3-7-6(5)4-8-9-7/h2-5H,1H3,(H,8,9)/t5-/m0/s1
