16
gdb 99836	1.84987	1.56362	1.25707	3.6388	66.71	-0.2576	-0.0072	0.2505	1088.8526	0.122647	-475.011739	-475.002344	-475.0014	-475.045973	34.555	
N	 0.1287314077	 0.9628497098	 0.0190104695	-0.565439
H	 0.5388280145	 0.0614883628	 0.2595072998	 0.257008
H	 0.8763988241	 1.5908504819	-0.2556273584	 0.24993
H	-1.6557548037	 0.7130389667	-0.6007391084	 0.314656
C	-0.5617004601	 1.4750666664	 1.2216716496	-0.106854
C	 0.1195351211	 1.038086358	 2.5422114393	-0.098206
O	 0.220870508	-0.3713350059	 2.5939070875	-0.430464
C	-0.6690700122	 2.9283725689	 1.1604246476	 0.359799
C	-0.7342098323	 4.1277948053	 1.1355555469	-0.460519
C	-2.0049644795	 0.865853152	 1.2051495924	 0.431805
O	-2.4379878688	 0.5771830092	-0.0182152398	-0.361499
O	-2.6393152489	 0.6677409347	 2.2080258981	-0.355716
H	 1.1371009789	 1.4388565106	 2.5644101632	 0.115238
H	-0.4421795741	 1.4444255265	 3.3885340204	 0.133772
H	-0.6521332237	-0.7031347955	 2.8374209658	 0.304847
H	-0.8063832811	 5.1876311685	 1.1118673364	 0.21164
68.8782	116.8637	128.296	149.4849	238.2154	294.7673	355.0753	368.0426	412.7829	464.8622	493.3924	501.7583	593.4079	606.8736	645.5839	671.8726	737.5867	781.6868	855.4077	874.2	953.5311	1011.4327	1069.1159	1105.2909	1142.722	1220.0464	1260.7026	1310.0744	1388.419	1406.8356	1431.3904	1485.8326	1636.2246	1857.8827	2237.7705	3054.0273	3109.9231	3450.7975	3476.1504	3498.3928	3579.7643	3790.481
[NH3+]C(CO)(C#C)C([O-])=O	N[C@@](CO)(C#C)C(=O)O	
InChI=1S/C5H7NO3/c1-2-5(6,3-7)4(8)9/h1,7H,3,6H2,(H,8,9)	InChI=1S/C5H7NO3/c1-2-5(6,3-7)4(8)9/h1,7H,3,6H2,(H,8,9)/t5-/m1/s1
