16
gdb 35106	2.28855	1.8466	1.16702	5.449	73.44	-0.2366	0.0023	0.2389	1033.4433	0.12583	-396.93141	-396.923701	-396.922757	-396.964033	29.234	
N	-0.0762063928	-1.1166038679	-0.3412438235	-0.334702
C	-0.0694895659	 0.0208488155	-0.1390012972	 0.309321
C	-0.0181091347	 1.4714901934	 0.0730044473	-0.196328
N	-0.5221516747	 1.846880586	 1.4127152852	-0.251974
C	 0.3579791927	 2.6360794712	 1.900930624	 0.066326
N	 1.4484861568	 2.9610110841	 1.1204281834	-0.356091
C	 1.4169303817	 2.0616485617	-0.0233750199	 0.35501
C	 2.6345433811	 1.2949068917	-0.4510444116	-0.328434
C	 2.0798212039	 2.4096801372	-1.3191006197	-0.312032
H	-0.6640425777	 1.9347871229	-0.6855140567	 0.137869
H	 0.2572412934	 3.0916761732	 2.8816406328	 0.138609
H	 2.3339839405	 3.1301097118	 1.5770515037	 0.250552
H	 3.5616611417	 1.4816310017	 0.0826247309	 0.115023
H	 2.5023167987	 0.2679612566	-0.7742968123	 0.153319
H	 1.5732074044	 2.1372328663	-2.2398976466	 0.130693
H	 2.6305475611	 3.3429628646	-1.3685902397	 0.122839
52.7248	146.4178	200.9941	280.4319	322.8283	402.9738	453.6396	522.6137	534.884	557.8665	621.7108	768.6645	800.091	840.5395	910.3942	933.8884	955.8002	979.1533	984.9531	1004.9324	1043.6857	1063.8655	1085.8462	1137.6227	1188.2122	1244.9504	1253.9769	1317.1142	1336.3814	1354.3574	1440.1304	1462.7342	1503.5751	1682.6612	2362.0608	3010.9789	3126.2391	3128.1424	3190.8252	3208.921	3222.7319	3592.4698
N#CC1N=CNC11CC1	N#C[C@H]1[N][CH]NC21CC2	
InChI=1S/C6H7N3/c7-3-5-6(1-2-6)9-4-8-5/h4-5H,1-2H2,(H,8,9)	InChI=1S/C6H7N3/c7-3-5-6(1-2-6)9-4-8-5/h4-5H,1-2H2,(H,8,9)/t5-/m1/s1
