21
gdb 59152	2.70879	1.18638	1.03582	3.2136	83.04	-0.2379	-0.0082	0.2297	1272.1579	0.181351	-387.090028	-387.080868	-387.079924	-387.124224	34.865	
C	-0.0298898751	 1.6749279614	 0.3693764759	-0.387192
C	-0.0257392878	 0.2013290241	-0.0624848369	-0.000405
C	 0.7969476732	-0.6647595092	 0.9018315902	-0.387969
C	-1.4518977366	-0.3224139379	-0.1593078877	 0.018861
C	-2.3975183883	-0.1188286807	-1.2910292861	-0.089857
C	-1.675522525	-0.1374858957	-2.6474749251	-0.36542
C	-1.2088418566	-1.5770437097	-2.2969153121	 0.413523
O	-0.6820332083	-2.4397768519	-2.9413197999	-0.318335
C	-1.8803534901	-1.5537421354	-0.9562468888	-0.213549
H	 0.989127333	 2.0705755534	 0.4281321673	 0.114394
H	-0.5953102549	 2.2950776733	-0.3336614432	 0.115584
H	-0.4882718681	 1.7915688774	 1.3588428864	 0.112542
H	 0.4461761796	 0.1384492501	-1.0498530998	 0.085622
H	 1.8310005445	-0.3108178789	 0.9619417844	 0.113306
H	 0.375522584	-0.6322604096	 1.9138255256	 0.110136
H	 0.8140159531	-1.7099242672	 0.5784131029	 0.12606
H	-1.9569317887	-0.311817164	 0.8075656988	 0.093228
H	-3.4095632429	 0.2368295302	-1.1471534938	 0.10162
H	-2.3603935834	-0.1804492886	-3.4996996434	 0.130818
H	-0.9185151597	 0.6270490174	-2.84012721	 0.121127
H	-2.372867502	-2.3916030284	-0.4776996647	 0.105906
52.4617	86.147	174.5775	224.5692	229.9658	254.0693	323.3119	393.9293	425.5431	460.0127	512.0648	606.4061	654.1834	744.0793	797.7935	844.8176	867.2705	908.1194	930.2342	934.7092	954.9874	967.4785	1001.8213	1022.7819	1068.4088	1084.8834	1111.4139	1140.7568	1141.4021	1188.6604	1215.2353	1229.1828	1291.9159	1321.8395	1337.6962	1343.1619	1398.983	1418.3725	1447.0973	1464.7847	1486.9334	1491.7251	1503.9267	1510.9424	1877.9097	3024.6375	3028.375	3038.2276	3060.804	3089.9939	3095.4678	3103.3047	3104.6026	3109.4031	3111.6641	3189.4725	3201.198
CC(C)C1C2CC(=O)C12	CC(C)[C@H]1[C@H]2CC(=O)[C@@H]12	
InChI=1S/C8H12O/c1-4(2)7-5-3-6(9)8(5)7/h4-5,7-8H,3H2,1-2H3	InChI=1S/C8H12O/c1-4(2)7-5-3-6(9)8(5)7/h4-5,7-8H,3H2,1-2H3/t5-,7+,8+/m1/s1
