19
gdb 116540	2.52913	1.17857	0.91885	2.0408	82.31	-0.235	-0.072	0.163	1334.072	0.157303	-419.181338	-419.171699	-419.170755	-419.21646	34.151	
C	 0.5460112529	 1.4994493596	-0.1325163899	-0.370978
C	 0.1286250401	 0.0245691155	-0.1745770099	-0.130245
N	 0.7727160548	-0.6612762513	-1.2860196494	-0.260738
C	 1.8577849184	-1.310260119	-1.1636265289	 0.228669
C	 2.7068210189	-1.5005863741	 0.0733204456	 0.1098
O	 2.6443927795	-0.8202909426	 1.066769091	-0.243111
N	 2.3818096696	-2.0559623362	-2.2381911534	-0.098061
C	 2.1417443694	-1.614846318	-3.5944612463	-0.20981
C	 3.5138517658	-1.5273662761	-3.0105365582	-0.236974
H	 1.6038104628	 1.5872991302	 0.1280544379	 0.129378
H	 0.380597088	 1.9774601447	-1.1026126577	 0.1194
H	-0.0393490095	 2.0343921711	 0.6213910255	 0.115798
H	 0.3394895877	-0.4389426318	 0.7943044651	 0.118484
H	-0.9508224731	-0.0355782367	-0.3549528007	 0.100863
H	 3.4271579647	-2.3417474744	-0.0141852937	 0.100787
H	 1.9119709235	-2.4019944205	-4.3063203985	 0.127573
H	 1.5736941755	-0.6967741277	-3.7109398997	 0.140679
H	 3.8819228793	-0.5372858164	-2.7517779584	 0.130142
H	 4.2769522017	-2.2511959162	-3.2799778503	 0.128344
69.314	85.8153	109.234	134.4042	198.5695	220.3712	256.8957	274.5377	393.3266	457.8131	474.1556	564.2316	596.2615	805.2362	813.2857	843.3269	876.9575	925.3884	955.048	1018.7941	1034.1768	1067.7974	1106.0628	1121.7956	1134.1678	1143.2448	1174.9404	1184.001	1194.0358	1305.357	1355.3534	1368.921	1397.1189	1421.6621	1489.1449	1490.9034	1497.8593	1513.6682	1517.7591	1696.174	1815.8036	2909.2303	3030.5611	3042.8766	3075.5544	3108.756	3115.6124	3122.0743	3127.9568	3197.7972	3214.4919
CCN=C(C=O)N1CC1	CCN=C(C=O)N1CC1	
InChI=1S/C6H10N2O/c1-2-7-6(5-9)8-3-4-8/h5H,2-4H2,1H3	InChI=1S/C6H10N2O/c1-2-7-6(5-9)8-3-4-8/h5H,2-4H2,1H3
