27
gdb 59108	1.98867	1.34592	0.99006	0.0473	95.42	-0.2732	0.0718	0.345	1399.9867	0.250908	-353.560198	-353.549199	-353.548254	-353.595433	41.904	
C	 0.3152166146	 1.5480244589	 0.4323721282	-0.392009
C	-0.041021209	 0.0704003774	 0.6649925458	 0.010434
C	 0.1734023794	-0.2818882955	 2.1463128623	-0.392011
C	-1.48020486	-0.2226580274	 0.2330114603	 0.057241
C	-1.9506090667	-0.0652420723	-1.2566477976	-0.006631
C	-0.9101065289	-0.2285812002	-2.3653427776	-0.407025
C	-2.8565671019	-1.3147439173	-1.0470813127	-0.23823
C	-2.0753186745	-1.6754702808	 0.251171772	-0.006631
C	-1.1134281131	-2.8536945332	 0.0927871293	-0.407023
H	 1.3534519928	 1.7512249973	 0.7163013962	 0.10706
H	 0.1911929025	 1.8445342182	-0.6124770325	 0.115247
H	-0.3260557296	 2.1992208674	 1.0389665225	 0.108982
H	 0.6448134334	-0.5437314547	 0.0660420773	 0.067546
H	-0.0547893482	-1.3293414919	 2.3602673259	 0.115244
H	 1.2101818968	-0.097523621	 2.4478702094	 0.107062
H	-0.4706042034	 0.3339062609	 2.7860755562	 0.108983
H	-2.1357417991	 0.4064272478	 0.850590153	 0.060766
H	-2.503889901	 0.8616329922	-1.4393590333	 0.0619
H	-0.3095248129	-1.1352564359	-2.2467492471	 0.117993
H	-1.4115515917	-0.2974468457	-3.3376300587	 0.110906
H	-0.2201262558	 0.6196223538	-2.4126680283	 0.11513
H	-3.9005762576	-1.0533657234	-0.8542998459	 0.092216
H	-2.8332135965	-2.0639592745	-1.8452506776	 0.086924
H	-2.7154003265	-1.8693683803	 1.1179471969	 0.061899
H	-0.4329729866	-2.7287341092	-0.7546729614	 0.117994
H	-0.5012441061	-3.0103150442	 0.9863532568	 0.115126
H	-1.6809265204	-3.7752527067	-0.0810158793	 0.110908
86.4019	122.2662	167.2903	192.5462	195.0429	203.3813	219.0779	240.1445	267.9495	308.6367	331.346	371.9278	422.8657	496.0451	501.0884	738.5214	751.3574	822.1339	823.7828	881.235	912.0711	916.8278	929.4629	964.4109	969.9126	994.9607	1028.1923	1055.1377	1061.9596	1116.9173	1129.8222	1162.7329	1191.031	1192.9197	1215.5625	1229.7646	1269.6049	1281.2504	1292.5294	1311.8311	1349.3058	1366.9374	1378.2432	1396.6354	1399.3507	1409.3626	1415.0677	1424.2072	1482.9014	1484.0491	1484.8189	1494.4031	1495.8882	1497.5771	1504.3297	1505.9792	1511.5624	2998.3391	3017.7663	3024.0837	3029.7448	3031.5521	3033.7454	3037.49	3040.1795	3049.384	3084.2193	3090.9759	3091.4465	3093.8978	3095.6599	3103.7581	3112.4138	3113.2338	3117.213
CC(C)C1C(C)CC1C	CC(C)[C@H]1[C@@H](C)C[C@H]1C	
InChI=1S/C9H18/c1-6(2)9-7(3)5-8(9)4/h6-9H,5H2,1-4H3	InChI=1S/C9H18/c1-6(2)9-7(3)5-8(9)4/h6-9H,5H2,1-4H3/t7-,8+,9-
