14
gdb 5786	6.30481	1.51368	1.34836	0.2887	63.61	-0.2357	0.0029	0.2386	888.5019	0.109112	-378.714238	-378.707859	-378.706915	-378.745486	23.598	
C	 0.2142738839	 1.593181871	 0.08336412	-0.222715
C	 1.2431102946	 0.5729999117	-0.227359985	-0.2227
N	-0.1419214932	 0.1635847397	 0.0640383516	-0.19656
C	-0.3693184266	-0.4444706544	 1.3077559388	 0.302627
C	-1.2641958395	-1.4264753473	 1.5761127575	-0.116393
O	-1.1662334986	-1.7339391968	 2.9072342336	-0.14063
C	-0.2048575137	-0.9082521817	 3.3713179223	 0.081693
N	 0.3085104038	-0.1217120082	 2.4851898111	-0.30816
H	 0.2752891293	 2.0744459185	 1.0549032036	 0.13892
H	-0.2371195713	 2.1813199995	-0.7099696622	 0.120135
H	 1.5581348556	 0.4011804886	-1.2521931086	 0.120122
H	 1.9882967203	 0.375891708	 0.5375313774	 0.13899
H	-1.9834831981	-1.9722305647	 0.9929804159	 0.15274
H	 0.0363939336	-0.9854638739	 4.420137564	 0.151931
48.1481	192.3385	206.1736	439.2853	447.4488	617.646	642.8765	723.5959	780.2535	820.159	842.4658	854.5776	903.5978	932.6125	997.2	1044.1755	1090.3711	1110.5926	1135.0619	1139.3922	1158.2779	1184.1684	1225.459	1246.7401	1331.6645	1352.6193	1479.3789	1505.8401	1564.5176	1640.4161	3116.0398	3118.6866	3203.9771	3218.1362	3271.3351	3309.3424
C1CN1C1=COC=N1	C1CN1c1cocn1	
InChI=1S/C5H6N2O/c1-2-7(1)5-3-8-4-6-5/h3-4H,1-2H2	InChI=1S/C5H6N2O/c1-2-7(1)5-3-8-4-6-5/h3-4H,1-2H2
