16
gdb 37751	2.86641	2.48646	1.55198	1.4345	82.79	-0.1709	-0.0574	0.1135	834.4476	0.126277	-363.508531	-363.502385	-363.501441	-363.538562	25.931	
C	-0.2501912046	 1.3002732921	 0.1038001051	-0.236334
N	 1.2750204056	 1.1163652647	 0.1545208623	-0.135262
C	 2.0025097419	 0.2597038273	 1.0286146282	-0.023281
C	 2.3890874285	-0.9334178612	 0.4904260758	-0.217728
C	 1.5690177282	-1.1199179914	-0.7190633979	 0.145576
C	 0.527509332	-1.908951823	-1.1069592938	-0.199139
C	-0.6860353917	-1.0185092159	-1.1903195797	-0.128081
C	-0.3135701489	 0.2756627673	-1.0625911047	 0.040303
C	 1.1811649028	 0.2826120856	-1.0661947826	-0.022696
H	-0.7775290248	 0.9868008322	 1.0070361269	 0.131052
H	-0.4907462348	 2.3421601755	-0.1220944713	 0.126039
H	 2.2705896785	 0.6183193932	 2.0173510719	 0.116002
H	 3.0071195647	-1.6607343916	 0.9985593647	 0.107324
H	 0.4421587956	-2.985188046	-1.0178671994	 0.09915
H	-1.6799215784	-1.4377641076	-1.0607010248	 0.100785
H	 1.7203030155	 0.7041196787	-1.9258172806	 0.09629
230.4254	256.2662	310.0842	432.2496	501.9941	584.0158	625.2891	678.1554	709.9037	726.8802	774.2652	829.96	848.3014	885.0362	895.2603	915.6369	931.7592	947.7364	988.4047	1026.7261	1045.712	1065.2672	1127.4871	1134.3375	1185.3012	1223.5648	1232.028	1262.1351	1284.4184	1302.6893	1346.9975	1479.955	1517.7442	1536.2816	1607.3918	3015.5133	3057.4549	3118.5212	3169.4359	3185.1964	3204.3919	3228.8987
C1N2C3C=C4C=CC13C24	C1N2[CH][CH][C]3[CH][CH][C]1[C@@H]23	
InChI=1S/C8H7N/c1-2-8-4-9-6(8)3-5(1)7(8)9/h1-3,6-7H,4H2	InChI=1S/C8H7N/c1-2-7-5-9-4-3-6(1)8(7)9/h1-4,8H,5H2/t8-/m0/s1
