12
gdb 45937	3.01356	1.50037	1.0101	2.9545	57.94	-0.2909	-0.0866	0.2043	1047.626	0.07797	-509.843815	-509.836328	-509.835384	-509.877142	26.148	
O	-0.0129015641	-0.0821852047	 0.0025534759	-0.320182
C	-0.0290354473	 1.1227492289	 0.0267690728	 0.390375
C	-1.3293897103	 1.9043786339	-0.0124373291	-0.183935
O	-1.2726435829	 3.3046524328	 0.2571500822	-0.231361
C	-0.1337152979	 4.0262135853	 0.2083067846	 0.353477
O	-0.1542758824	 5.2136818039	 0.3131176009	-0.271059
C	 1.2062536323	 3.2699218626	 0.0664029236	 0.297388
O	 2.2520536026	 3.8562136872	 0.0101358234	-0.283803
N	 1.12529541	 1.8851343409	 0.045967663	-0.378272
H	-1.7713111984	 1.7575488127	-1.005166748	 0.170276
H	-2.008042493	 1.4625102504	 0.7202642478	 0.176252
H	 2.0057038814	 1.3806719162	 0.0147593429	 0.280842
42.7383	87.8378	128.4126	343.3812	395.8828	435.7589	452.6662	474.4022	558.752	629.0076	646.1449	749.9421	801.9364	817.4032	910.0587	1011.3731	1068.8883	1165.8699	1259.5935	1314.3288	1358.505	1401.2903	1420.993	1480.7115	1828.3896	1844.118	1869.7561	3050.5849	3118.7803	3557.3749
O=C1COC(=O)C(=O)N1	O=C1COC(=O)C(=O)N1	
InChI=1S/C4H3NO4/c6-2-1-9-4(8)3(7)5-2/h1H2,(H,5,6,7)	InChI=1S/C4H3NO4/c6-2-1-9-4(8)3(7)5-2/h1H2,(H,5,6,7)
