20
gdb 23075	2.93731	1.19262	1.14048	0.8136	81.39	-0.2376	0.0108	0.2484	1187.849	0.171219	-403.115267	-403.106616	-403.105672	-403.148493	33.497	
C	-0.4732033967	 1.3044809482	-0.2058927558	-0.426996
C	-0.0168752608	-0.1281671689	-0.0194181929	-0.001742
C	 1.3869927351	-0.6231080572	-0.2913466828	-0.066275
C	 2.5273352711	 0.3824482287	-0.3823719704	-0.303063
C	 2.4951881512	 1.1252049295	 0.9418808068	 0.385166
C	 1.6182740678	 0.4070704941	 1.9476320245	-0.310188
C	 0.8408612115	-0.6142191991	 1.1297131491	-0.073511
N	 3.1296700948	 2.2168694481	 1.0982701922	-0.223272
O	 2.9697729599	 2.7168672776	 2.4063382634	-0.397341
H	 0.2893051618	 2.0356446846	 0.0725465974	 0.137578
H	-0.7385484606	 1.4911211451	-1.2525085364	 0.1171
H	-1.3622821898	 1.5096581002	 0.4008074331	 0.117459
H	-0.7783813799	-0.8495233603	-0.3083674107	 0.082948
H	 1.4995600329	-1.553387056	-0.8367992879	 0.080924
H	 3.4808842896	-0.1507793402	-0.4863450623	 0.120154
H	 2.456645143	 1.0706381256	-1.2303129337	 0.122456
H	 2.2448543968	-0.0907216715	 2.6988029956	 0.124169
H	 0.9961907828	 1.1224992359	 2.4953091735	 0.129447
H	 0.5539773313	-1.5373975633	 1.620749053	 0.080663
H	 3.4663386181	 3.540947319	 2.3680163742	 0.304324
67.7474	161.5993	174.4215	224.3577	240.7137	292.7786	383.2047	417.3202	448.2061	510.786	543.9468	665.6341	679.9378	757.6668	781.3049	819.2495	878.6693	889.4491	954.2538	972.8096	992.5219	995.0043	1059.1645	1066.8436	1090.9018	1121.445	1142.6103	1174.2371	1208.5501	1218.7683	1232.7015	1291.7859	1299.0779	1344.1614	1367.2472	1400.7618	1421.5463	1438.6252	1465.5573	1478.0225	1497.3644	1504.8882	1749.7441	3028.2956	3031.5898	3033.2718	3073.4877	3078.0097	3086.573	3113.1971	3130.9407	3162.0722	3173.014	3820.6204
CC1C2CC(CC12)=NO	C[C@H]1[C@H]2CC(=NO)C[C@@H]12	
InChI=1S/C7H11NO/c1-4-6-2-5(8-9)3-7(4)6/h4,6-7,9H,2-3H2,1H3	InChI=1S/C7H11NO/c1-4-6-2-5(8-9)3-7(4)6/h4,6-7,9H,2-3H2,1H3/t4-,6+,7-
