14
gdb 10453	3.3574	1.56336	1.24888	4.5515	62.57	-0.2799	-0.0549	0.225	953.3634	0.106484	-378.717083	-378.709254	-378.70831	-378.749955	27.317	
O	-0.2975603341	 0.4207617133	 0.9498778094	-0.263644
C	-0.0597162141	 1.1655140287	 0.0303904687	 0.110145
C	 1.2232004523	 1.931715613	-0.0787931582	 0.228671
C	 1.5661907876	 2.5310351778	-1.4352798247	-0.424604
C	 1.6776465187	 1.5164296054	-2.4851108564	 0.26533
N	 1.7433891459	 0.7063218076	-3.3060309763	-0.296266
C	 1.649732581	 2.6285645014	 1.1815145831	-0.261121
N	 2.3466810933	 1.4359044712	 0.7238397252	-0.322857
H	-0.7888580756	 1.3256044984	-0.7910311651	 0.101049
H	 0.8035803981	 3.2602411979	-1.7346671168	 0.158014
H	 2.516539778	 3.0666291636	-1.3589439825	 0.171154
H	 2.2060721728	 3.5584272644	 1.0963210935	 0.132133
H	 0.9823803065	 2.5531798782	 2.0350455647	 0.144351
H	 2.0131661395	 0.6281060591	 1.2513438656	 0.257645
55.4538	101.9211	158.9479	256.078	310.5835	335.1382	371.4933	380.7224	493.5821	669.553	767.938	844.7837	887.7042	909.7688	966.851	991.9035	1011.514	1032.6584	1116.7313	1146.087	1209.8808	1287.2217	1310.8928	1337.5394	1378.4209	1430.7135	1452.0132	1498.2989	1809.7603	2365.0427	2920.0447	3045.7267	3101.927	3110.8197	3206.2576	3467.1172
O=CC1(CC#N)CN1	O=C[C@@]1(CC#N)CN1	
InChI=1S/C5H6N2O/c6-2-1-5(4-8)3-7-5/h4,7H,1,3H2	InChI=1S/C5H6N2O/c6-2-1-5(4-8)3-7-5/h4,7H,1,3H2/t5-/m1/s1
