21
gdb 73846	2.51518	1.56212	1.10288	1.8801	85.04	-0.2271	0.0238	0.2509	1173.9322	0.182784	-387.099742	-387.090933	-387.089988	-387.133135	33.328	
C	 0.126120648	 1.4819929022	 0.1644303912	-0.49256
C	-0.0549079794	-0.0008526832	 0.062956683	 0.216479
C	-0.0552396518	-0.7607580658	-1.0436167191	 0.220382
C	 0.1496020549	-0.3572434747	-2.4702001397	-0.508242
C	-0.2588620497	-2.2152327929	-0.7053285092	 0.041783
O	 0.9653443003	-3.0038749305	-0.7686792997	-0.297047
C	 1.0855296415	-2.9777919281	 0.6702669261	-0.079898
C	-0.2776014953	-2.2690261532	 0.8389904909	-0.078389
C	-0.27564547	-0.813745013	 1.3276038086	-0.321166
H	 1.0013194283	 1.7280666437	 0.7796562731	 0.126353
H	 0.2554702253	 1.95895922	-0.8097243814	 0.12451
H	-0.7374133795	 1.9484592512	 0.6563755491	 0.124811
H	 0.346628866	 0.7110565593	-2.5867783715	 0.119545
H	 0.9956138116	-0.9081925507	-2.8985647801	 0.142343
H	-0.7282710632	-0.6067880172	-3.0803708953	 0.122692
H	-1.0531849779	-2.7009014309	-1.2861032533	 0.067559
H	 1.1598407304	-3.9897111235	 1.0856274745	 0.099329
H	 1.9525152114	-2.3911986975	 1.0043604992	 0.093901
H	-1.0465057531	-2.8895564169	 1.2992821948	 0.075941
H	 0.509585809	-0.623867969	 2.0730362045	 0.100294
H	-1.2224139165	-0.5394165294	 1.8136869644	 0.101379
99.7795	130.5858	148.8466	171.1299	214.1819	289.8449	324.034	370.6127	421.9213	553.7103	582.8882	634.1247	745.7365	803.6372	868.2569	879.4116	909.6962	953.1465	966.1856	997.3073	1009.2105	1013.8046	1063.977	1075.7919	1099.1775	1113.58	1160.0047	1183.6186	1202.5673	1229.6067	1245.192	1280.553	1323.5322	1335.2864	1347.47	1366.1654	1407.8746	1418.1159	1477.3228	1481.5252	1484.0219	1488.2057	1494.4291	1519.5051	1732.601	3000.3893	3003.0755	3017.0117	3019.2496	3024.6725	3026.2311	3051.6036	3059.4911	3068.207	3108.8039	3114.7999	3121.1416
CC1=C(C)C2OCC2C1	CC1=C(C)[C@H]2OC[C@H]2C1	
InChI=1S/C8H12O/c1-5-3-7-4-9-8(7)6(5)2/h7-8H,3-4H2,1-2H3	InChI=1S/C8H12O/c1-5-3-7-4-9-8(7)6(5)2/h7-8H,3-4H2,1-2H3/t7-,8-/m1/s1
