16
gdb 13706	4.66062	0.90465	0.85389	2.3058	71.4	-0.2446	0.021	0.2656	1354.9669	0.128479	-383.682503	-383.673457	-383.672513	-383.717613	31.425	
O	 0.2029632514	 0.8430196134	-0.8928788096	-0.399895
C	-0.0822623723	 0.1054025735	 0.2872994832	-0.194029
C	-1.4116339349	-0.5055056108	 0.2933627878	 0.082524
C	-2.5455177817	-0.9237345081	 0.2766146937	 0.018038
C	-3.8498076405	-1.5106734868	 0.2586793705	-0.234269
C	-4.4688895967	-1.9328243677	-1.0802908204	-0.315121
C	-3.9485892567	-2.9799375924	-0.1452279382	 0.151545
O	-2.7991747545	-3.6967816359	-0.4461041253	-0.425459
H	-0.5248577779	 1.4584239798	-1.0302851009	 0.287839
H	 0.6923316667	-0.6670468064	 0.3474591345	 0.140945
H	 0.0265180341	 0.7298699484	 1.188760021	 0.121516
H	-4.5358037846	-1.1647550716	 1.0256890556	 0.115606
H	-5.5400247241	-1.804618133	-1.1909065263	 0.12037
H	-3.8813608982	-1.7341420131	-1.9689116805	 0.132686
H	-4.6712511266	-3.5815216064	 0.3989657824	 0.10817
H	-2.0395069834	-3.115816073	-0.3040095975	 0.289536
25.0022	90.3586	93.0331	173.0594	219.9984	260.0318	317.8441	394.4601	399.5332	465.6724	582.8453	618.7983	722.6958	776.2503	825.2428	916.973	983.1117	992.5306	1035.6341	1048.8148	1061.9866	1113.7771	1142.3035	1184.5168	1217.0268	1231.9507	1356.3007	1359.9256	1370.785	1415.3677	1425.5455	1474.428	1490.0288	2336.9683	2975.7689	3062.9508	3139.1352	3146.5341	3155.6947	3236.7721	3740.1227	3815.9879
OCC#CC1CC1O	OCC#C[C@H]1C[C@H]1O	
InChI=1S/C6H8O2/c7-3-1-2-5-4-6(5)8/h5-8H,3-4H2	InChI=1S/C6H8O2/c7-3-1-2-5-4-6(5)8/h5-8H,3-4H2/t5-,6+/m0/s1
