25
gdb 76205	2.1596	1.33271	1.19208	1.4001	88.26	-0.2443	0.0636	0.3079	1268.963	0.226097	-389.496989	-389.486111	-389.485167	-389.531569	42.168	
C	 0.5080056838	 1.4620594773	 0.0321364883	-0.463526
C	-0.1071231939	 0.0619895587	-0.0401769528	 0.308759
C	-1.6264573602	 0.1636914694	-0.1688984309	-0.44905
C	 0.5936101584	-0.8792908296	-1.0739556623	-0.323816
C	 1.2908364175	-1.6767193102	 0.0765736213	 0.308758
C	 1.0688005673	-3.1885305155	 0.0561951919	-0.44905
C	 2.7831899531	-1.3676964629	 0.2221506107	-0.463521
C	 0.3822760898	-0.903541603	 1.0953749801	 0.064853
O	 0.9398963962	-0.3759472888	 2.2757276592	-0.425743
H	 1.6026935338	 1.4454424937	 0.067993147	 0.104951
H	 0.2302626871	 2.045372771	-0.8527968873	 0.116013
H	 0.1516407025	 2.00147656	 0.9162319253	 0.122967
H	-1.9140645286	 0.7096515819	-1.0752543527	 0.109235
H	-2.088806631	-0.8280324287	-0.2182330522	 0.107847
H	-2.0591216212	 0.6907667584	 0.6896360285	 0.116836
H	-0.1138813818	-1.4865434646	-1.6460539007	 0.090705
H	 1.2672985024	-0.3850809049	-1.7806081883	 0.090107
H	 1.5974656301	-3.6578124929	-0.7819928361	 0.109235
H	 1.4321935761	-3.6515452077	 0.9812092839	 0.116836
H	 0.0058085403	-3.4332068094	-0.04329676	 0.107847
H	 3.0020728961	-0.2950347174	 0.1848701051	 0.104949
H	 3.173472494	-1.7569240252	 1.1686030116	 0.122968
H	 3.3489815409	-1.8335232195	-0.5923358965	 0.116012
H	-0.4396042126	-1.5413869531	 1.4373724098	 0.074589
H	 1.6738994898	 0.1981604629	 2.0356278473	 0.281241
81.7284	194.4277	206.0278	213.8726	222.7699	230.8939	250.4695	262.174	306.3613	314.807	328.3768	334.4434	380.7749	411.9494	523.2331	553.7145	580.6206	748.9278	790.5118	857.2352	885.383	890.3685	947.6373	956.8906	983.0745	994.6939	999.2739	1033.0185	1038.3516	1122.4383	1170.3427	1185.9785	1209.5112	1221.1085	1239.6039	1286.111	1286.5529	1313.6727	1322.6905	1394.3683	1402.8351	1417.3755	1417.7822	1443.7249	1481.6264	1484.9271	1486.4749	1489.182	1495.1625	1498.3679	1507.1846	1507.3644	1515.4626	3017.9746	3018.4052	3024.7183	3028.3767	3043.4087	3050.6675	3083.1922	3084.2642	3084.9784	3089.2214	3090.1957	3093.1202	3096.5298	3097.3522	3100.5774	3820.3324
CC1(C)CC(C)(C)C1O	CC1(C)CC(C)(C)C1O	
InChI=1S/C8H16O/c1-7(2)5-8(3,4)6(7)9/h6,9H,5H2,1-4H3	InChI=1S/C8H16O/c1-7(2)5-8(3,4)6(7)9/h6,9H,5H2,1-4H3
