12
gdb 25151	3.87957	1.22799	0.93275	2.7662	74.22	-0.2632	-0.0893	0.1739	1134.6109	0.077392	-435.508698	-435.501489	-435.500545	-435.540633	26.676	
O	-0.0773162238	-0.056817399	 0.0039580309	-0.322965
C	 0.020182422	 1.1345110836	 0.0089094536	 0.446742
O	-1.1870889819	 1.8947361263	 0.0295138365	-0.200211
C	-1.1472330567	 3.2286287521	 0.0358999093	 0.144716
N	-0.1091227082	 3.9779995106	 0.0254490528	-0.325643
C	 1.1141520123	 3.3145271078	 0.0050748236	 0.167485
C	 1.2064658024	 1.9546605834	-0.0033337013	-0.314687
C	 2.2762630469	 4.1378846696	-0.006830584	 0.242813
C	 3.264833044	 4.8234247017	-0.0170374553	-0.350037
H	-2.1446717542	 3.6595970125	 0.0519163333	 0.15731
H	 2.1594526187	 1.4439444788	-0.019278661	 0.142105
H	 4.1343704484	 5.4343585826	-0.0259959485	 0.212371
121.4708	148.2139	150.812	318.0587	436.8619	448.6896	459.1939	550.9066	591.1334	654.4397	660.7134	718.6515	729.1108	768.209	838.5978	892.8	956.6075	977.9175	1088.4189	1200.3371	1234.9204	1342.4084	1420.0913	1585.9778	1651.7387	1871.1619	2234.5121	3187.1762	3234.2988	3497.6191
O=C1OC=NC(=C1)C#C	O=c1ocnc(c1)C#C	
InChI=1S/C6H3NO2/c1-2-5-3-6(8)9-4-7-5/h1,3-4H	InChI=1S/C6H3NO2/c1-2-5-3-6(8)9-4-7-5/h1,3-4H
