21
gdb 74036	2.54382	1.94381	1.38253	0.4491	88.71	-0.2105	0.0041	0.2146	1017.1358	0.184964	-349.929228	-349.921736	-349.920792	-349.960724	30.953	
C	-0.1325444052	 1.3466699872	-0.2343661769	-0.48633
C	-0.0262699121	-0.103017245	 0.1206362637	 0.273048
C	-1.0450449295	-0.9617063544	 0.3220940432	 0.015936
C	-2.257057885	-0.9991830389	-0.5811218499	-0.261062
C	-1.5669330765	-1.8384888654	-1.7270670012	-0.221687
C	-0.5216507129	-2.733920246	-1.0063250913	-0.036124
C	 0.7729410069	-2.3050547681	-0.2371508178	-0.046306
C	 1.2741324747	-0.8694325898	-0.0891183499	-0.31068
C	-0.5489714849	-2.390032608	 0.4514699095	-0.115514
H	 0.4669412403	 1.9622617116	 0.4493571627	 0.126251
H	 0.252581965	 1.5460236012	-1.2435763071	 0.120443
H	-1.1639005479	 1.7050986603	-0.1802139793	 0.123637
H	-3.1095801051	-1.5438354097	-0.162369038	 0.098137
H	-2.6025316197	-0.0217911009	-0.9253186003	 0.09661
H	-2.2827370115	-2.4734198933	-2.2620327796	 0.093642
H	-1.121531744	-1.160016788	-2.4623572298	 0.100787
H	-0.4827037353	-3.772974067	-1.3220756977	 0.078259
H	 1.4949319895	-3.111310234	-0.1341284931	 0.073086
H	 1.7799921496	-0.4768082484	-0.9824991828	 0.101379
H	 2.0046646209	-0.7992821384	 0.7309927826	 0.100488
H	-0.8266933875	-3.0455410051	 1.269703873	 0.076
136.0068	177.6269	214.9728	278.6893	361.3871	416.7283	463.0561	566.4942	617.5701	669.2156	704.7951	745.825	776.2011	822.6819	860.9967	879.5786	892.8863	940.7944	973.8166	976.8208	988.7363	1021.573	1043.222	1062.9477	1089.3763	1104.6984	1117.5823	1146.7222	1183.0878	1198.1545	1199.7082	1227.0529	1273.9525	1295.7949	1308.8564	1323.5413	1342.397	1390.3818	1408.9445	1471.8736	1478.6752	1480.1573	1489.3057	1498.5953	1677.3457	2989.7231	3008.9722	3022.6413	3031.5354	3047.8858	3051.5271	3073.3976	3108.1461	3112.8717	3135.8392	3144.849	3163.7713
CC1=C2CCC3C(C1)C23	C[C]1[C]2CC[C@H]3[C@@H](C1)[C@@H]23	
InChI=1S/C9H12/c1-5-4-8-7-3-2-6(5)9(7)8/h7-9H,2-4H2,1H3	InChI=1S/C9H12/c1-5-4-8-7-3-2-6(5)9(7)8/h7-9H,2-4H2,1H3/t7-,8+,9-/m0/s1
