19
gdb 38762	2.35096	2.31198	1.81717	0.5085	72.24	-0.2458	0.0811	0.3269	866.0659	0.163806	-423.035698	-423.029419	-423.028475	-423.06606	26.771	
C	 0.0312957412	 1.5897097002	 0.0702743297	-0.236515
C	 1.5284853745	 1.8821044179	-0.0173795818	 0.086449
O	 2.2123991776	 1.6593714444	 1.236997353	-0.317217
C	 2.639712486	 0.3334346034	 0.8272913959	 0.086497
C	 1.8829489118	-0.7790705341	 1.5395356644	-0.21396
C	 0.351519598	-0.6293490726	 1.3670720173	-0.221631
C	-0.0024185418	 0.0441763716	 0.0190519977	 0.074338
O	 1.0114411361	-0.2702941941	-0.9538664701	-0.263431
C	 2.094726026	 0.5646505998	-0.6092605251	 0.047227
H	-0.417167964	 2.0100743684	 0.9733057248	 0.111624
H	-0.4816885989	 1.9997439319	-0.8059315397	 0.103364
H	 1.7852789871	 2.8490991795	-0.4565167931	 0.078048
H	 3.7250981018	 0.2244174852	 0.9291915595	 0.073128
H	 2.2145268741	-1.7283407708	 1.1033827679	 0.110354
H	 2.1534648789	-0.801294492	 2.5997637944	 0.10545
H	-0.1130843614	-1.6185068312	 1.4186334301	 0.100578
H	-0.0697490603	-0.0394036694	 2.1867601726	 0.108323
H	-0.9479000341	-0.3366398927	-0.3725069821	 0.081558
H	 2.8097006875	 0.5862223545	-1.4303436355	 0.085817
153.3457	314.0923	325.3982	412.4537	467.2393	514.7278	617.7311	663.2973	750.8064	791.0174	812.4064	854.1382	860.0312	881.1875	900.7491	937.7059	964.5515	983.7251	1008.6258	1019.9838	1062.9437	1069.3648	1084.7253	1113.2879	1173.0605	1178.9187	1214.5188	1226.4651	1246.9726	1280.0089	1299.8875	1325.7997	1331.4634	1341.5627	1360.454	1365.4823	1382.3317	1394.0878	1464.2495	1471.5502	1497.0878	3035.8111	3047.9485	3052.1318	3053.5251	3078.808	3081.8053	3091.0992	3098.164	3117.2721	3128.544
C1C2OC3CCC1OC23	C1[C@H]2O[C@H]3CC[C@@H]1O[C@@H]23	
InChI=1S/C7H10O2/c1-2-5-7-6(9-5)3-4(1)8-7/h4-7H,1-3H2	InChI=1S/C7H10O2/c1-2-5-7-6(9-5)3-4(1)8-7/h4-7H,1-3H2/t4-,5-,6+,7+/m0/s1
