23
gdb 89433	2.72511	1.57326	1.33695	0.275	88.08	-0.2472	0.0892	0.3364	1101.5811	0.207374	-351.148975	-351.140726	-351.139781	-351.181022	34.04	
C	-0.267434723	 1.5526868949	 0.045338412	-0.398731
C	 0.0273888392	 0.0491537128	-0.018130812	 0.007315
C	 0.7571701965	-0.4309447782	-1.3108575327	-0.26509
C	 2.154727908	-0.8930313438	-0.8561372405	 0.338394
C	 2.9120308705	-1.7434845573	-1.8566709639	-0.490032
C	 2.92945062	 0.3196347248	-0.2319720953	-0.274598
C	 2.4084379838	-0.098115516	 1.1412121436	-0.068764
C	 0.9307839919	-0.4657806359	 1.1041080348	-0.036004
C	 1.9461509008	-1.4409935713	 0.5959078507	-0.131409
H	 0.6484021165	 2.1477502905	-0.0198072297	 0.119803
H	-0.927748908	 1.8605645356	-0.7727180936	 0.10818
H	-0.7628169578	 1.8138934554	 0.9870923474	 0.108223
H	-0.9325008013	-0.4764261972	 0.0590396298	 0.06583
H	 0.2173529044	-1.2711977619	-1.7635270799	 0.086856
H	 0.8218272674	 0.3574799605	-2.0697567938	 0.088941
H	 3.103825901	-1.1876073705	-2.7819887585	 0.112997
H	 3.879261103	-2.0648172353	-1.4555652055	 0.112076
H	 2.3433957532	-2.6426834739	-2.1221080244	 0.110835
H	 4.0115370228	 0.1694114089	-0.3003988824	 0.093168
H	 2.6916210824	 1.3207093292	-0.6096055372	 0.084316
H	 2.8938906237	 0.1089351047	 2.0883798026	 0.07623
H	 0.4913144634	-0.641216715	 2.0814313595	 0.075298
H	 2.1160106415	-2.448369601	 0.9543902691	 0.076166
141.5352	201.5787	220.9244	225.8477	276.5665	323.9835	391.5086	399.6039	480.9942	594.1358	629.891	661.9951	758.309	780.2894	832.5348	845.828	857.1795	915.1595	937.1633	946.4826	966.7602	983.4332	1001.2752	1007.6575	1052.0977	1058.8262	1079.2182	1087.7273	1136.9404	1148.3456	1172.1087	1202.3061	1231.5038	1237.1219	1252.0209	1268.6771	1317.7573	1318.5497	1358.1202	1373.2863	1401.4918	1411.2253	1414.0651	1485.2735	1492.6716	1493.2321	1495.4237	1498.6526	1507.5393	3012.5988	3018.4121	3026.223	3027.9229	3033.6307	3066.0538	3078.3485	3082.7096	3090.516	3091.7392	3108.5593	3155.2328	3167.9612	3191.7653
CC1CC2(C)CC3C1C23	C[C@H]1C[C@@]2(C)C[C@H]3[C@@H]1[C@@H]23	
InChI=1S/C9H14/c1-5-3-9(2)4-6-7(5)8(6)9/h5-8H,3-4H2,1-2H3	InChI=1S/C9H14/c1-5-3-9(2)4-6-7(5)8(6)9/h5-8H,3-4H2,1-2H3/t5-,6-,7+,8-,9-/m0/s1
