18
gdb 72344	2.33164	2.10562	1.54	0.837	75.13	-0.226	0.0077	0.2337	923.3609	0.148961	-401.903273	-401.896154	-401.89521	-401.934277	29.599	
O	-0.0824398037	 1.330961874	-0.0719753833	-0.490589
C	-0.0060856452	-0.072826322	-0.0295196989	 0.430362
C	-1.3405124464	-0.6741034405	-0.510969198	-0.315137
C	-1.6833227451	-1.6733469729	 0.5732770409	-0.064576
C	-0.7853202016	-1.7203816589	 1.5636144407	-0.084389
C	 0.3271003379	-0.7477910094	 1.331606966	-0.082051
N	 1.6900317192	-1.241487578	 0.8172017718	-0.155387
C	 1.4366783741	-2.1142316556	-0.3435774455	-0.247892
C	 1.3239507343	-0.6576840865	-0.5411282483	-0.12226
H	 0.7421583494	 1.6883670044	 0.2768575879	 0.281418
H	-2.0966655974	 0.1149863736	-0.5988587942	 0.124949
H	-1.2548988814	-1.1469163766	-1.4969492068	 0.110924
H	-2.5858938908	-2.2750915758	 0.5307935249	 0.099781
H	-0.8479481291	-2.3671963644	 2.4316843686	 0.09989
H	 0.5166104773	-0.0650268299	 2.1644546814	 0.083511
H	 2.3425068929	-2.5954032467	-0.7009306918	 0.121007
H	 0.553338914	-2.7455393262	-0.3605935744	 0.12038
H	 2.0382117316	-0.0855945486	-1.1283359209	 0.09006
159.7142	229.473	290.5447	351.2146	362.1426	400.0921	462.0617	523.9388	610.6467	657.8717	720.7832	746.5189	788.1889	791.2236	867.809	931.4083	949.0587	952.9555	980.2556	986.6522	1019.4945	1048.2002	1082.4089	1090.7629	1118.4115	1120.3656	1139.8836	1159.2198	1209.7929	1218.1669	1245.4067	1297.3558	1316.4069	1353.762	1372.7084	1397.5215	1471.4603	1498.6397	1663.5616	3030.3159	3065.3257	3071.4646	3117.3517	3140.2464	3176.2186	3200.7901	3202.1597	3796.1637
OC12CC=CC1N1CC21	O[C@]12CC=C[C@H]1N1C[C@@H]21	
InChI=1S/C7H9NO/c9-7-3-1-2-5(7)8-4-6(7)8/h1-2,5-6,9H,3-4H2	InChI=1S/C7H9NO/c9-7-3-1-2-5(7)8-4-6(7)8/h1-2,5-6,9H,3-4H2/t5-,6+,7-,8?/m1/s1
