14
gdb 21290	3.37228	1.99047	1.26163	0.8943	59.92	-0.1986	0.0331	0.2317	906.5709	0.107741	-415.860179	-415.852341	-415.851397	-415.892407	27.831	
C	-0.032047127	 1.3434613689	-0.0253235255	-0.234946
O	-0.0270144758	-0.0801744057	-0.0635354642	-0.286005
C	-1.2401129808	-0.6695250759	-0.0233470828	 0.344833
N	-2.3962487858	-0.0283936845	 0.045937341	-0.319639
N	-3.3138589149	-1.0226936935	 0.0620466903	-0.218353
C	-2.7619958176	-2.2677276442	 0.0042476016	-0.101904
C	-1.40099779	-2.0754441512	-0.0522100645	 0.157839
O	-0.4253059492	-3.0212106167	-0.1204524192	-0.453896
H	 1.0136056669	 1.6516862693	-0.0657049197	 0.126749
H	-0.5809570937	 1.7547565202	-0.8790331986	 0.134523
H	-0.4983698854	 1.7073684556	 0.8963319104	 0.134454
H	-4.2867388588	-0.7828880168	 0.112002709	 0.273433
H	-3.3545095939	-3.1672823186	 0.0078806076	 0.138076
H	 0.4189932161	-2.5574730868	-0.1488828556	 0.304835
84.766	166.0454	187.2289	241.5743	274.1979	296.0607	318.1228	408.0119	572.2347	629.0224	637.4344	712.7571	763.2388	783.5757	933.9854	1051.8795	1070.9113	1179.7798	1181.9169	1199.4364	1241.4383	1281.5312	1350.9912	1457.0249	1463.1815	1477.5623	1499.063	1504.2897	1585.0365	1673.3311	3030.6549	3096.2837	3143.4001	3274.8617	3705.6723	3816.3135
COC1=NNC=C1O	COc1n[nH]cc1O	
InChI=1S/C4H6N2O2/c1-8-4-3(7)2-5-6-4/h2,7H,1H3,(H,5,6)	InChI=1S/C4H6N2O2/c1-8-4-3(7)2-5-6-4/h2,7H,1H3,(H,5,6)
