17
gdb 68493	3.07648	1.3159	1.12373	2.5384	79.75	-0.2397	0.0062	0.2459	1114.8349	0.134136	-384.628742	-384.620264	-384.61932	-384.66159	32.294	
C	 0.0086627541	 1.502145741	-0.0025693216	-0.521561
C	-0.011314361	 0.0035170774	-0.0372079975	 0.191952
C	 0.5234496286	-0.9674773314	-1.1567483306	-0.288056
C	-0.0017932607	-1.9560864454	-0.0624675873	-0.17504
C	 0.6647027553	-0.9985241033	 1.0006612991	-0.237047
C	 2.1079551796	-0.9800931512	 1.1107742752	 0.322507
C	 3.303031525	-0.9476443841	 1.2450600996	-0.44035
C	-1.1891458366	-0.9855763346	 0.0230786278	 0.406702
O	-2.3797860579	-0.9854795268	 0.070721383	-0.321264
H	 1.0357614326	 1.8805901248	-0.0004729352	 0.135836
H	-0.5064945669	 1.9153813428	-0.8754950931	 0.134928
H	-0.4960688899	 1.8779472244	 0.8931405068	 0.134383
H	 0.0011195073	-0.9575660628	-2.1148981564	 0.114334
H	 1.6071767829	-0.9610816629	-1.276567721	 0.130378
H	 0.024841586	-3.0424882421	-0.0676193385	 0.102207
H	 0.2015073743	-1.0145051891	 1.9912551111	 0.112614
H	 4.3583807674	-0.9278870366	 1.3624615086	 0.197477
117.0305	128.222	165.327	209.1784	224.8266	291.2012	422.6299	432.328	523.7952	567.9317	614.5667	638.6971	651.6421	728.0844	751.9051	775.4849	789.1686	878.7401	920.6725	991.9223	1024.9989	1033.101	1045.2615	1084.3796	1144.411	1162.9183	1179.5962	1192.6836	1210.18	1340.6677	1376.1288	1414.6819	1485.1322	1489.3085	1511.6893	1917.4952	2229.747	3036.4816	3068.6852	3077.9918	3107.0935	3107.9508	3152.0113	3160.9308	3502.2167
CC12CC(C1C#C)C2=O	C[C@@]12C[C@@H]([C@H]1C#C)C2=O	
InChI=1S/C8H8O/c1-3-6-5-4-8(6,2)7(5)9/h1,5-6H,4H2,2H3	InChI=1S/C8H8O/c1-3-6-5-4-8(6,2)7(5)9/h1,5-6H,4H2,2H3/t5-,6+,8+/m0/s1
