27
gdb 102544	1.77636	1.27112	0.95994	0.1432	95.53	-0.2598	0.0828	0.3426	1468.3056	0.250423	-353.558117	-353.546846	-353.545902	-353.594334	42.472	
C	-1.655629638	-0.2564586566	-0.2883636995	-0.386703
C	-0.1535499867	-0.0653138196	-0.0543430118	-0.184342
C	 0.7639126187	-0.6405846116	-1.1536653133	-0.032091
C	 2.2455749749	-0.2882355442	-0.8901830753	-0.180277
C	 2.5875497937	 1.1995558806	-1.03129961	-0.39151
C	 0.5870629737	-2.1502251613	-1.3629987292	 0.403547
C	 0.8108277053	-3.0401868724	-0.1511721551	-0.472361
C	-0.4440092722	-2.614414295	-2.3673573979	-0.313487
C	 1.0250253822	-2.704482031	-2.7005280214	-0.316227
H	-1.9675992196	 0.1856499265	-1.2414656421	 0.1093
H	-1.9350027512	-1.3133368145	-0.3096079752	 0.123828
H	-2.2358329973	 0.2266087671	 0.5046086837	 0.10642
H	 0.0493292111	 1.0071941325	 0.0414984556	 0.093304
H	 0.1253679555	-0.5061663219	 0.9116963828	 0.093434
H	 0.4818526264	-0.1586952282	-2.1025149067	 0.05776
H	 2.5299309105	-0.6294704573	 0.113781011	 0.092781
H	 2.8649974547	-0.8599199428	-1.5913021796	 0.095074
H	 2.0731327984	 1.8164363411	-0.2882925239	 0.11771
H	 3.6620388005	 1.3652500664	-0.9026712842	 0.109782
H	 2.3112694049	 1.576080462	-2.0229442131	 0.111052
H	 0.0879104222	-2.8355368515	 0.6463162202	 0.116567
H	 0.7050390648	-4.0951758429	-0.4229712726	 0.109815
H	 1.814278964	-2.9095834058	 0.2686399412	 0.116107
H	-0.9813716024	-3.5350373203	-2.1624895233	 0.103877
H	-1.0347109579	-1.8659728942	-2.8845150405	 0.107446
H	 1.4196620228	-2.0131247749	-3.4386279272	 0.104986
H	 1.4877598009	-3.6856155501	-2.7252268627	 0.104209
60.0583	78.7908	103.6637	175.3657	200.9098	209.364	229.754	263.5227	287.713	310.3105	320.9866	369.8439	442.1891	467.075	506.6609	687.9747	764.9065	790.9711	807.4118	858.9451	866.169	907.0997	943.986	953.0833	955.4009	1017.9178	1030.7788	1043.2418	1052.4043	1060.8604	1079.1912	1109.33	1115.237	1142.8985	1178.0683	1190.3031	1262.3356	1276.6335	1305.143	1320.5643	1342.861	1358.6611	1379.0263	1398.649	1409.3917	1412.4965	1420.4527	1469.5949	1480.6207	1491.2002	1495.6038	1498.2439	1500.6482	1502.3574	1504.9625	1508.3209	1513.4155	2980.3246	3019.6806	3023.3302	3029.5546	3030.8282	3032.4625	3055.7048	3061.19	3087.3773	3093.836	3095.4934	3098.2719	3105.021	3113.4971	3122.6524	3127.29	3199.1154	3213.6877
CCC(CC)C1(C)CC1	CCC(CC)C1(C)CC1	
InChI=1S/C9H18/c1-4-8(5-2)9(3)6-7-9/h8H,4-7H2,1-3H3	InChI=1S/C9H18/c1-4-8(5-2)9(3)6-7-9/h8H,4-7H2,1-3H3
