18
gdb 100219	2.6544	1.16311	0.98408	3.3106	77.78	-0.2846	0.0161	0.3007	1269.9151	0.144163	-401.931563	-401.921353	-401.920409	-401.966567	37.069	
C	 0.0798208308	 1.5588193614	-0.1027830966	-0.407337
C	 0.0072798905	 0.0356963696	 0.0169206965	-0.18857
C	-1.4285158695	-0.517379518	 0.0740211326	 0.193767
O	-2.0773894353	-0.1208879428	-1.1156679762	-0.437299
C	-1.4071003977	-2.0708614079	 0.1950374175	-0.385471
C	-2.7402137346	-2.6396716251	 0.0529847226	 0.260406
C	-3.8613303086	-3.0470683235	-0.0979364421	-0.401208
C	-2.1392881879	 0.0440178787	 1.254277373	 0.274813
N	-2.6895854576	 0.4820938174	 2.1711192056	-0.34108
H	 1.1220270671	 1.8823714599	-0.1727462201	 0.117818
H	-0.4485093529	 1.9013958835	-0.9952084729	 0.143395
H	-0.3675225983	 2.047236299	 0.7679844758	 0.141448
H	 0.4832141298	-0.433905377	-0.851108329	 0.114276
H	 0.5429061514	-0.306290959	 0.9094301986	 0.113439
H	-2.9377938524	-0.5615863875	-1.1430141054	 0.295803
H	-0.7531195873	-2.4486946065	-0.5990395667	 0.145795
H	-0.9631564899	-2.3592952181	 1.1541464697	 0.14977
H	-4.8451041075	-3.4335504939	-0.2055958229	 0.210234
71.8086	98.0469	122.5427	159.1556	191.9547	228.1468	261.2458	342.4073	347.2713	398.9175	409.1625	432.9969	476.6099	589.8341	635.5144	652.8606	676.0538	720.1227	797.9194	889.1247	932.4589	987.4888	1022.8797	1032.5321	1077.4753	1154.6593	1169.1544	1249.7686	1304.893	1332.1124	1368.1404	1399.7708	1415.4801	1455.8093	1473.4458	1497.0801	1508.9689	2236.1347	2351.0246	3037.9229	3043.2479	3049.8123	3080.4759	3086.992	3118.0766	3135.6728	3502.5441	3754.4968
CCC(O)(CC#C)C#N	CC[C@@](O)(CC#C)C#N	
InChI=1S/C7H9NO/c1-3-5-7(9,4-2)6-8/h1,9H,4-5H2,2H3	InChI=1S/C7H9NO/c1-3-5-7(9,4-2)6-8/h1,9H,4-5H2,2H3/t7-/m1/s1
