21
gdb 95945	2.06372	1.50154	1.24264	1.686	78.42	-0.2503	-0.0287	0.2216	1150.3353	0.181256	-424.249197	-424.239602	-424.238658	-424.28411	35.245	
C	-0.2762881255	 1.4516517531	-0.0481344688	-0.420616
C	 0.056410922	-0.0281572321	 0.0106335687	 0.110427
O	 0.9314882987	-0.3543492648	-1.0533848836	-0.258944
C	 1.3792853321	-1.6866783973	-0.8220179926	-0.083569
C	 1.3919396783	-1.8878762672	 0.7150241833	-0.294763
C	 0.8112882815	-0.5699388488	 1.2814732832	 0.197038
C	 1.909145469	 0.3955910871	 1.7484420675	-0.464483
C	-0.195132767	-0.7984877277	 2.3944426376	 0.112847
O	-0.7919077762	-1.8259126062	 2.5955611305	-0.256397
H	 0.6256664904	 2.0653228086	 0.0106062781	 0.129458
H	-0.7786798463	 1.6772714162	-0.9924679718	 0.133049
H	-0.9471893796	 1.7317445592	 0.7700145717	 0.119001
H	-0.8752540461	-0.6138076781	-0.0847686748	 0.076183
H	 0.6973374941	-2.4026581124	-1.3032337382	 0.099161
H	 2.3638649608	-1.789742364	-1.2854076456	 0.109173
H	 0.7605762102	-2.7267368646	 1.0138031089	 0.132423
H	 2.3986317043	-2.0694229552	 1.0990402309	 0.106478
H	 2.5466206714	 0.6773327911	 0.9060506843	 0.137451
H	 1.4935254293	 1.3112598859	 2.1821119345	 0.11939
H	 2.5407769575	-0.0760875088	 2.5081579064	 0.121487
H	-0.3864501988	 0.0976107458	 3.0302942098	 0.075205
45.1483	63.5641	164.4837	216.4559	239.7272	252.111	276.7335	288.6135	331.4926	399.4655	491.9086	521.9189	673.1699	688.1365	742.7471	818.658	864.0538	881.8897	936.7413	973.3572	997.1336	1008.8603	1054.511	1064.6331	1133.6544	1135.8772	1174.971	1190.8283	1226.8676	1256.8291	1279.8918	1309.1829	1359.5782	1381.0949	1399.0236	1407.403	1416.8019	1432.2978	1480.3429	1493.7038	1496.1683	1505.8299	1510.2481	1525.6335	1821.4713	2856.0922	2941.5695	2997.9098	3035.142	3048.3833	3069.8715	3088.0752	3099.8268	3117.734	3118.9561	3124.3764	3131.1623
CC1OCCC1(C)C=O	C[C@H]1OCC[C@]1(C)C=O	
InChI=1S/C7H12O2/c1-6-7(2,5-8)3-4-9-6/h5-6H,3-4H2,1-2H3	InChI=1S/C7H12O2/c1-6-7(2,5-8)3-4-9-6/h5-6H,3-4H2,1-2H3/t6-,7-/m1/s1
