19
gdb 13110	4.305	1.06518	0.90624	2.5443	73.09	-0.2416	-0.0232	0.2184	1305.4731	0.164604	-365.062221	-365.053472	-365.052527	-365.096209	31.37	
C	 0.0187083981	 1.5383802478	 0.2084100237	-0.380994
C	-0.0723498525	 0.0304356282	-0.0388572658	-0.170557
C	 0.8691223424	-0.4507300442	-1.1481652303	-0.15799
C	 0.7560978025	-1.9470461505	-1.41574929	-0.099801
N	-0.510711598	-2.3989171746	-2.0691690549	-0.324625
C	 0.208408376	-3.1583134365	-3.1275057063	-0.284374
C	 1.5145928174	-2.5208203171	-2.6264947137	 0.382813
O	 2.6386328627	-2.4573579941	-3.0241179646	-0.287967
H	 1.0326955827	 1.8315215978	 0.5023036766	 0.115218
H	-0.2391464311	 2.1024444171	-0.6946182364	 0.117789
H	-0.6635009655	 1.8537578714	 1.0039790397	 0.112014
H	 0.155990849	-0.5099154525	 0.8900483633	 0.089933
H	-1.1007091569	-0.2386603964	-0.3094022298	 0.107884
H	 0.649081919	 0.0885344271	-2.0776547631	 0.100973
H	 1.9116933294	-0.226948124	-0.8875954911	 0.107762
H	 1.0099625761	-2.5135605819	-0.5049438499	 0.090378
H	-1.0915396726	-2.9805524368	-1.477618909	 0.224676
H	 0.2137011932	-4.2516857467	-3.0159151206	 0.122619
H	-0.0922729318	-2.9138022543	-4.1521919378	 0.13425
74.0758	92.5282	109.2521	129.7462	250.9626	259.0447	322.6275	385.5003	505.7518	548.9726	653.1189	735.78	771.4532	806.4912	869.1561	904.2413	943.5746	988.8366	1008.718	1045.1182	1075.0044	1087.8796	1094.5841	1134.7664	1168.4966	1218.502	1254.0579	1272.0487	1316.5198	1326.4549	1360.0671	1369.8931	1394.2706	1414.2114	1473.3856	1474.9555	1493.2817	1500.68	1509.3294	1912.1874	2974.5387	3010.7355	3012.8178	3025.4058	3030.9882	3048.7692	3068.8539	3072.8528	3098.9798	3102.5646	3550.8662
CCCC1NCC1=O	CCC[C@H]1NCC1=O	
InChI=1S/C6H11NO/c1-2-3-5-6(8)4-7-5/h5,7H,2-4H2,1H3	InChI=1S/C6H11NO/c1-2-3-5-6(8)4-7-5/h5,7H,2-4H2,1H3/t5-/m1/s1
