22
gdb 97424	4.22809	0.76033	0.72771	2.7983	87.37	-0.2419	0.0281	0.27	1684.8052	0.194363	-404.364035	-404.354358	-404.353414	-404.400222	34.69	
C	 0.2835488056	 0.993759264	-0.3670672451	-0.313515
N	 0.0743403601	-0.4334083498	-0.2483434088	-0.210311
C	-1.0952858309	-0.8253208285	 0.0010734747	 0.129732
O	-1.3660402721	-2.1309882626	 0.1781302639	-0.219458
C	-2.7543188006	-2.5028990749	 0.2530637844	 0.116978
C	-3.344298292	-2.7340298065	-1.1568094163	-0.220069
C	-3.1803405297	-4.2545505594	-1.4496012278	-0.19465
C	-2.4367417312	-4.83706096	-0.2252892415	-0.196411
C	-2.8041680493	-3.8785493066	 0.9191799133	-0.221925
H	 0.7119225086	 1.2235094268	-1.3495880028	 0.124997
H	-0.6325856221	 1.5951106692	-0.2411595739	 0.09276
H	 1.0135333541	 1.3242442019	 0.3811837849	 0.126048
H	-1.9665387892	-0.1592590245	 0.1164390397	 0.068292
H	-3.2943889642	-1.7320903753	 0.8156342497	 0.0735
H	-4.3992586464	-2.4427614547	-1.1679825674	 0.101263
H	-2.8317261819	-2.104968222	-1.8888128737	 0.113014
H	-4.1641476809	-4.7230486337	-1.5544267347	 0.099589
H	-2.6420820315	-4.439663569	-2.3821432838	 0.1052
H	-2.7090555911	-5.8751318	-0.0180958732	 0.093586
H	-1.3551979205	-4.8033235013	-0.3878434076	 0.12245
H	-2.1379954572	-3.9353721254	 1.7829925141	 0.111215
H	-3.8285466476	-4.0665595176	 1.2626722918	 0.097714
35.0387	53.6281	86.4795	124.5835	203.6711	211.6031	295.0611	341.1662	376.9938	467.4685	545.2959	609.125	736.6491	777.7918	850.2806	874.6624	896.9318	907.9383	947.8421	984.727	994.1311	1019.9127	1048.8666	1063.1768	1096.2943	1141.5948	1150.4232	1192.4028	1199.7639	1219.2434	1256.9361	1260.0805	1286.3991	1314.9197	1340.0349	1353.5748	1355.0909	1377.6593	1421.1116	1451.2611	1474.7193	1480.6614	1481.2796	1491.4058	1505.4624	1512.141	1774.6741	2960.6293	2976.3563	3029.212	3043.0026	3049.0718	3054.0747	3058.0102	3062.7549	3073.4312	3089.6995	3102.8815	3109.9786	3116.243
CN=COC1CCCC1	CN=COC1CCCC1	
InChI=1S/C7H13NO/c1-8-6-9-7-4-2-3-5-7/h6-7H,2-5H2,1H3	InChI=1S/C7H13NO/c1-8-6-9-7-4-2-3-5-7/h6-7H,2-5H2,1H3
