19
gdb 114487	2.96175	1.32043	1.20806	2.8933	74.98	-0.2434	0.0041	0.2475	1107.3336	0.161207	-423.01277	-423.005011	-423.004067	-423.045289	30.275	
O	-0.0748504958	 1.2742378083	-0.5529605713	-0.424732
C	 0.055645616	-0.094902516	-0.2173721229	-0.073967
C	-1.2944569316	-0.6402308547	 0.2223039034	 0.117837
O	-2.278225874	-0.4188809824	-0.8279493583	-0.331178
C	-2.5546678848	-1.8469118907	-0.9184470861	 0.097682
C	-1.9540567005	-2.5276341098	-2.1167611621	-0.087048
C	-0.8662897947	-3.2268491844	-1.7901351652	-0.053987
C	-0.5276168839	-3.1531403103	-0.3172856741	-0.286933
C	-1.5758026529	-2.1667983593	 0.2399098024	-0.117337
H	-0.8168890626	 1.3180720225	-1.1696805043	 0.292344
H	 0.4412023567	-0.6755809495	-1.0681844488	 0.088887
H	 0.783268358	-0.1596366752	 0.5995969455	 0.103256
H	-1.6079265273	-0.1209926475	 1.1366996204	 0.083032
H	-3.6263923077	-2.032497041	-0.7873891404	 0.080886
H	-2.3750619091	-2.4421718398	-3.1119479434	 0.101513
H	-0.2666407602	-3.8031537991	-2.4874299337	 0.101594
H	-0.6122448329	-4.1379770468	 0.1595942069	 0.111
H	 0.506376008	-2.8277815302	-0.1497036151	 0.115442
H	-2.0247248706	-2.5064731341	 1.1726957771	 0.08171
79.7542	129.3425	179.3638	277.724	293.6772	462.289	472.5926	482.5529	501.6829	649.4792	741.5201	767.7431	827.007	842.7464	869.7826	920.217	949.3069	966.0354	976.1347	993.4565	1017.8701	1044.7091	1072.3293	1095.6133	1124.0683	1131.6507	1174.799	1221.6628	1225.279	1260.3345	1290.2782	1313.5359	1328.3843	1340.3898	1352.8311	1381.386	1407.3209	1439.3807	1488.4843	1502.2631	1675.6285	2996.3606	3024.6936	3025.3324	3045.4571	3051.3194	3069.2156	3113.6324	3180.7331	3209.8602	3774.5691
OCC1OC2C=CCC12	OC[C@H]1O[C@H]2C=CC[C@@H]12	
InChI=1S/C7H10O2/c8-4-7-5-2-1-3-6(5)9-7/h1,3,5-8H,2,4H2	InChI=1S/C7H10O2/c8-4-7-5-2-1-3-6(5)9-7/h1,3,5-8H,2,4H2/t5-,6+,7-/m1/s1
