18
gdb 85464	2.33016	1.39413	1.07141	4.0912	75.5	-0.2538	-0.0317	0.2221	1167.8822	0.147452	-402.004739	-401.996085	-401.99514	-402.038368	32.172	
C	-0.1614202448	 1.534934715	-0.0235082969	-0.418304
C	 0.1158907589	 0.035311762	-0.0276553792	 0.008562
C	 0.9660392784	-0.4763569022	-1.2004255369	-0.330127
C	 1.5282531684	-1.820008199	-0.7315513266	 0.411374
O	 2.0199458941	-2.6709874917	-1.4219793309	-0.300673
C	 1.3405782134	-1.9171404117	 0.7921298213	-0.336338
C	 0.8729255682	-0.5098875524	 1.231031492	-0.183089
C	 2.0128626424	 0.3379329395	 1.5890081016	 0.28215
N	 2.9157668631	 1.0075323183	 1.8595379239	-0.327781
H	 0.7699432136	 2.1088361743	 0.0048761679	 0.146478
H	-0.7117255013	 1.8256736926	-0.9233874634	 0.124412
H	-0.7629285119	 1.8255183552	 0.8441395743	 0.122066
H	-0.8414836129	-0.5018749989	-0.040615733	 0.092805
H	 0.4274400771	-0.5806512967	-2.1445998639	 0.134311
H	 1.8164217614	 0.1959324067	-1.3816852893	 0.149041
H	 0.5513176012	-2.6522273147	 0.9873876638	 0.142131
H	 2.2483067076	-2.2713557715	 1.2831373154	 0.154294
H	 0.2060206933	-0.5480934147	 2.0972903401	 0.128691
64.0739	109.8293	151.3992	229.5531	239.0767	277.8593	396.1457	448.8027	470.5591	490.0651	521.9509	616.8073	680.2326	735.7993	805.5526	838.635	884.6764	938.6207	971.1639	995.7546	1041.8262	1104.0334	1140.665	1147.0859	1170.8706	1194.1751	1244.999	1266.5247	1295.9506	1311.4788	1369.6401	1374.8619	1416.8413	1445.704	1450.9217	1496.3012	1498.6479	1856.6145	2352.3546	3018.2382	3031.961	3037.2941	3053.7927	3072.7328	3105.7147	3113.2703	3115.9027	3128.8208
CC1CC(=O)CC1C#N	C[C@H]1CC(=O)C[C@H]1C#N	
InChI=1S/C7H9NO/c1-5-2-7(9)3-6(5)4-8/h5-6H,2-3H2,1H3	InChI=1S/C7H9NO/c1-5-2-7(9)3-6(5)4-8/h5-6H,2-3H2,1H3/t5-,6-/m0/s1
