19
gdb 42525	3.29351	1.2697	1.07831	2.8653	83.38	-0.2323	-0.0159	0.2163	1180.8554	0.158839	-385.877622	-385.869246	-385.868302	-385.910785	32.044	
O	-0.0090310487	 0.188133175	-0.6197047663	-0.340139
C	-0.0207165413	 1.3527624034	-0.3191578592	 0.30027
C	-1.1030667822	 2.3619702877	-0.0399939899	 0.242237
C	-2.4240858468	 2.4462798785	-0.7690110307	-0.309685
C	-2.3992100284	 2.0720628299	 0.6808590182	-0.309671
C	-0.0417806507	 3.4529377386	 0.223336657	-0.446761
C	 1.0411046335	 2.390957795	-0.0689577035	 0.242237
C	 2.3636036746	 2.1364502655	 0.6165263708	-0.309671
C	 2.339193762	 2.5106723995	-0.8333508082	-0.309685
H	-2.7760496038	 3.4360257042	-1.0402338224	 0.121161
H	-2.6268082732	 1.6689989275	-1.4983643025	 0.134588
H	-2.5848209313	 1.0372793874	 0.9491695924	 0.134591
H	-2.7340560366	 2.8040562027	 1.4082529778	 0.121171
H	-0.0626021789	 4.2894280275	-0.480786379	 0.108924
H	-0.0332771599	 3.8443925924	 1.2444286866	 0.108919
H	 2.6980681383	 2.8774926603	 1.3348771741	 0.121171
H	 2.5842849983	 1.1071587793	 0.8793521668	 0.134592
H	 2.543080562	 1.7388844933	-1.5681921748	 0.134588
H	 2.6568270228	 3.5094686623	-1.1136231773	 0.121161
56.3951	176.8977	194.2079	202.7712	218.086	261.9358	356.4289	443.3944	509.6876	721.9547	730.2791	732.9982	787.3875	795.4935	826.4365	839.3349	894.5614	919.4145	934.2651	976.424	1014.4453	1020.5192	1058.9016	1059.7455	1061.407	1077.8047	1093.294	1148.5849	1193.4176	1196.6666	1197.9803	1232.3096	1248.3636	1359.0928	1379.3341	1456.6952	1456.9945	1487.1735	1489.0117	1494.0235	1866.5675	3051.3228	3100.0393	3129.1422	3129.2988	3131.0897	3131.3164	3212.3284	3212.5681	3227.1403	3227.2482
O=C1C2(CC2)CC11CC1	O=C1C2(CC2)CC21CC2	
InChI=1S/C8H10O/c9-6-7(1-2-7)5-8(6)3-4-8/h1-5H2	InChI=1S/C8H10O/c9-6-7(1-2-7)5-8(6)3-4-8/h1-5H2
