17
gdb 51359	3.84422	1.14424	1.02909	2.7865	74.41	-0.2337	0.0131	0.2468	1177.9264	0.135837	-417.89608	-417.888254	-417.88731	-417.929529	29.317	
N	 0.033057129	 1.2572345038	-0.0333004158	-0.443932
C	-0.0895724719	 0.0127835411	-0.19324799	 0.134168
O	-1.0224418166	-0.6638304677	 0.5162346752	-0.196956
C	-1.1286187772	-2.0419223446	 0.2303318645	 0.115214
C	-2.2294921169	-2.9154978054	 0.7060732845	-0.159381
C	-3.6512396774	-2.4021303138	 0.4169895034	-0.027893
C	-3.7545116487	-1.0890473329	-0.2508584679	-0.259128
N	-3.3977764746	-2.2858123624	-1.0581990333	-0.148381
C	-1.9761726233	-2.7227997772	-0.8060301443	-0.065745
H	 0.7817867008	 1.6121255048	-0.6246530539	 0.232393
H	 0.4964519654	-0.6263393012	-0.8665162151	 0.093518
H	-0.1653812122	-2.5470562357	 0.3178614957	 0.115372
H	-2.0469177649	-3.7740051762	 1.3397437825	 0.103744
H	-4.5154579031	-2.9506278911	 0.7767131403	 0.105255
H	-4.7623161801	-0.7590899999	-0.4886465117	 0.12383
H	-3.0401129237	-0.3015259963	-0.0667685443	 0.170338
H	-1.5466305947	-3.3888472654	-1.5454616898	 0.107584
43.2138	83.3251	137.989	251.8445	308.6808	400.4905	540.6606	548.3288	667.0515	703.7231	721.3064	750.1183	777.7356	824.1019	884.9704	907.1508	965.9105	989.5738	1010.7919	1034.3718	1044.4813	1057.9191	1075.1006	1080.6365	1110.933	1130.4135	1151.4121	1211.7572	1247.312	1281.0556	1282.3483	1346.9361	1360.7008	1415.5223	1445.2182	1497.3152	1747.8434	3034.6644	3096.2196	3135.0788	3164.004	3175.9245	3194.8036	3268.3479	3518.173
N=COC1C2C3CN3C12	[NH][CH]O[C@H]1[C@H]2[C@H]3CN3[C@@H]12	
InChI=1S/C6H8N2O/c7-2-9-6-4-3-1-8(3)5(4)6/h2-7H,1H2	InChI=1S/C6H8N2O/c7-2-9-6-4-3-1-8(3)5(4)6/h2-7H,1H2/t3-,4+,5-,6+,8?/m1/s1
