18
gdb 88265	2.4586	1.24831	1.09004	2.9983	74.19	-0.2323	-0.052	0.1803	1216.9151	0.144569	-439.087295	-439.077422	-439.076478	-439.123175	34.632	
C	-1.3379849969	 0.3695005613	 0.3698566795	-0.425932
C	 0.0533136862	-0.0178575288	-0.0617058778	 0.019935
N	 1.140272167	 0.9469854086	 0.0651066985	-0.333422
C	 1.2159537726	-0.2940486809	 0.8591101937	-0.150991
C	 1.2323077648	-0.1623430524	 2.3465160267	 0.314893
O	 1.5176113774	-1.0956138529	 3.0658229147	-0.314406
C	 0.9570233904	 1.1982050507	 3.0280216213	 0.333509
C	 2.1327302188	 1.7641734941	 3.7865068429	-0.481616
O	-0.1430681861	 1.6965419276	 3.0204321636	-0.281406
H	-1.3235110859	 0.9547675193	 1.2891143712	 0.175685
H	-1.8173448887	 0.9597528712	-0.4186687792	 0.120819
H	-1.9429094477	-0.5294494832	 0.5295168143	 0.119855
H	 0.0808725493	-0.6535307266	-0.9477726267	 0.096475
H	 1.7771845732	 0.9018774014	-0.725167287	 0.241081
H	 1.8758586288	-1.0977953597	 0.5372146478	 0.107718
H	 2.5140107533	 1.011672594	 4.4833132203	 0.165533
H	 2.9433605972	 1.9971559372	 3.0856372613	 0.147654
H	 1.8325922063	 2.6677362693	 4.318540295	 0.144616
26.145	72.1527	146.6627	160.3565	182.4009	214.5432	223.667	315.625	344.5243	422.647	453.6159	521.0426	624.8489	630.5555	747.9871	779.0332	850.3301	924.7161	974.4248	993.6641	1011.6789	1041.4803	1065.0149	1094.411	1153.096	1189.6176	1240.505	1257.1299	1301.4325	1370.8327	1393.1365	1418.5016	1457.2281	1461.0117	1466.5041	1500.9334	1505.7081	1776.2235	1809.4298	3038.4542	3038.7277	3094.2187	3097.9894	3107.8067	3128.7779	3156.171	3161.8989	3511.6921
CC1NC1C(=O)C(C)=O	C[C@H]1N[C@H]1C(=O)C(=O)C	
InChI=1S/C6H9NO2/c1-3-5(7-3)6(9)4(2)8/h3,5,7H,1-2H3	InChI=1S/C6H9NO2/c1-3-5(7-3)6(9)4(2)8/h3,5,7H,1-2H3/t3-,5-/m1/s1
