16
gdb 117021	3.96411	0.86293	0.74702	1.0835	75.44	-0.2507	-0.0904	0.1603	1505.0641	0.121604	-437.894425	-437.884534	-437.88359	-437.930805	34.014	
C	-0.3478073274	 1.3849484872	 0.4046336749	-0.374101
C	 0.325824724	 0.1421448953	-0.1805146826	-0.14812
N	 1.1195297759	-0.5777563285	 0.8008259419	-0.324915
C	 0.8209635575	-1.8199059193	 1.2347376337	 0.34268
O	-0.1071757137	-2.5183221264	 0.8714863271	-0.369823
C	 1.828051863	-2.3079399344	 2.2998055571	 0.117468
O	 2.7479244954	-1.6078816937	 2.6704744054	-0.300835
C	 1.5921535336	-3.6356223416	 2.8102102126	 0.312207
C	 1.4295841328	-4.7395407275	 3.2607467008	-0.382746
H	 0.3915938407	 2.0893815536	 0.8003730897	 0.118778
H	-0.9229426762	 1.9026109691	-0.3691311541	 0.124558
H	-1.0279952642	 1.1126105543	 1.2165454977	 0.134347
H	-0.4190741444	-0.5668872776	-0.5489024236	 0.150653
H	 0.966659501	 0.4215982173	-1.0258269204	 0.114855
H	 1.9261918808	-0.1441410559	 1.2285513492	 0.264433
H	 1.277156741	-5.716277182	 3.6522362907	 0.220563
30.446	54.4378	87.5171	124.7775	196.2038	241.7017	259.7571	323.3872	374.4845	432.8042	499.8251	518.8723	628.1901	649.9333	675.4379	722.3954	775.888	833.6627	864.6142	901.6007	1038.2059	1105.2912	1167.181	1179.3888	1259.8932	1322.679	1392.154	1412.1734	1488.3864	1492.515	1504.479	1556.0776	1752.8667	1788.6695	2218.0189	3031.0743	3037.4516	3099.5229	3117.5039	3125.1037	3493.6834	3599.6437
CCNC(=O)C(=O)C#C	CCNC(=O)C(=O)C#C	
InChI=1S/C6H7NO2/c1-3-5(8)6(9)7-4-2/h1H,4H2,2H3,(H,7,9)	InChI=1S/C6H7NO2/c1-3-5(8)6(9)7-4-2/h1H,4H2,2H3,(H,7,9)
