17
gdb 67166	2.94105	1.6279	1.56912	3.915	72.87	-0.244	0.0245	0.2685	945.3098	0.137395	-417.97131	-417.964136	-417.963192	-418.002714	28.476	
C	 0.030589281	 1.5598316855	-0.1035454927	-0.507342
C	-0.023364687	 0.0690951494	-0.040639353	 0.31589
C	 0.4216067295	-1.0805628305	-0.9483508587	-0.17283
C	 1.1817910906	-1.659844143	 0.2285570066	-0.189871
N	 0.4545246858	-0.6979208532	 1.1708702845	-0.210027
C	-0.7019352478	-1.4175372866	 1.623810569	 0.422731
N	-0.8821444628	-1.8273178555	 2.7982999993	-0.545981
O	-1.5512799125	-1.6487563636	 0.5525210564	-0.24511
C	-1.0356661248	-0.8915055222	-0.5286556878	 0.030113
H	 1.0520322506	 1.9246635568	 0.0414931852	 0.136237
H	-0.3269474013	 1.9144346052	-1.0752654713	 0.125222
H	-0.6002676619	 2.0032314371	 0.6743943996	 0.139611
H	 0.7225928444	-1.0610521021	-1.9893630356	 0.09823
H	 1.0498770412	-2.7179358838	 0.4745008191	 0.127061
H	 2.2452182261	-1.4129336048	 0.2217542009	 0.126562
H	-1.7519797847	-2.3584127738	 2.8542443126	 0.228946
H	-1.7805827765	-0.6439796949	-1.2730920244	 0.12056
125.7688	189.8685	225.9387	273.1704	332.7056	447.7007	513.3999	585.	638.4274	744.4734	751.2929	812.5982	838.7193	853.8196	873.414	891.7029	935.7112	965.6562	970.4135	1008.6297	1009.8423	1047.4817	1069.8875	1093.501	1139.9008	1173.1041	1186.0941	1244.2123	1266.9125	1307.2753	1329.5409	1410.3407	1468.9041	1477.7215	1496.9852	1513.0855	1791.4493	3034.5456	3054.8835	3102.1266	3111.0483	3115.6281	3182.0866	3215.5322	3489.0911
CC12C3CN1C(=N)OC23	C[C@@]12[C@H]3CN1[C]([NH])O[C@@H]23	
InChI=1S/C6H8N2O/c1-6-3-2-8(6)5(7)9-4(3)6/h3-4,7H,2H2,1H3	InChI=1S/C6H8N2O/c1-6-3-2-8(6)5(7)9-4(3)6/h3-4,7H,2H2,1H3/t3-,4+,6-/m0/s1
