19
gdb 55141	3.37123	1.37988	1.18374	2.965	74.76	-0.2403	0.0297	0.27	1079.2653	0.162511	-419.209106	-419.201478	-419.200534	-419.24145	30.405	
N	 0.4568197241	 0.2017447593	 0.8543599137	-0.515415
C	-0.1803515442	 0.3517754326	-0.3370932565	 0.361818
O	 0.170758853	 1.126699305	-1.2069311577	-0.366902
C	-1.4345007732	-0.5156159589	-0.4647375627	-0.05723
C	-1.7748657256	-0.9738056011	-1.9195212206	-0.24116
C	-1.7816674536	-2.4880187345	-1.6410808591	-0.026101
C	-2.5195464704	-2.5396904594	-0.2779710585	-0.175943
N	-1.3060887017	-1.8135037444	 0.2775848518	-0.154714
C	-0.5254018555	-2.6249089335	-0.7493870103	-0.183707
H	 1.313870348	 0.7041255077	 1.015111676	 0.256849
H	 0.1708855664	-0.5420607398	 1.4717013144	 0.267834
H	-2.2565373021	 0.0525016313	-0.0160738222	 0.105816
H	-2.7425923983	-0.6010267235	-2.2639389615	 0.099561
H	-1.0104125981	-0.6601728183	-2.6327811739	 0.128184
H	-2.0041143482	-3.1620824666	-2.4693802289	 0.067309
H	-3.4678143372	-2.006132981	-0.1627545407	 0.102416
H	-2.5897226259	-3.5384488641	 0.1587277944	 0.108592
H	-0.3517245779	-3.6323052381	-0.3656007025	 0.108077
H	 0.4151161804	-2.1759988631	-1.0804203954	 0.114715
60.2443	150.6326	207.0672	339.1542	362.9246	414.5551	462.5609	536.5878	558.84	623.3602	678.3277	742.6143	822.9428	835.2365	851.6579	866.7626	883.3456	936.0953	970.2554	989.1677	1024.6408	1035.5594	1056.4026	1091.2264	1101.5555	1114.8112	1133.3485	1205.2332	1229.5671	1250.8462	1257.3662	1266.889	1302.8095	1307.6884	1324.3849	1383.9869	1499.9279	1508.4156	1537.4112	1592.5593	1798.3912	3049.7388	3053.5041	3063.1384	3073.0989	3107.7405	3117.6855	3125.2049	3126.7023	3578.2718	3723.5494
NC(=O)C1CC2CN1C2	NC(=O)[C@H]1C[C@@H]2CN1C2	
InChI=1S/C6H10N2O/c7-6(9)5-1-4-2-8(5)3-4/h4-5H,1-3H2,(H2,7,9)	InChI=1S/C6H10N2O/c7-6(9)5-1-4-2-8(5)3-4/h4-5H,1-3H2,(H2,7,9)/t5-/m1/s1
