18
gdb 23083	3.11836	1.27945	1.16249	1.8265	80.64	-0.2213	0.0293	0.2506	1132.9206	0.147408	-401.858639	-401.850578	-401.849634	-401.891019	31.507	
C	-0.0468202621	 1.5393013061	-0.0652978671	-0.527627
C	 0.0226389777	 0.0514480759	 0.0157575071	 0.349444
C	 0.572057087	-1.0354195728	-0.8577651377	-0.125919
C	 1.3096407143	-1.7006839311	 0.3045364697	-0.232503
C	 0.3020493988	-0.954737692	 1.2304814644	-0.211973
C	-1.0323332567	-1.5840690271	 0.8641631031	 0.491649
N	-1.9871633139	-2.1561120802	 1.468553725	-0.315865
O	-1.6658517611	-2.3553832712	 2.8363277318	-0.405481
C	-0.9370635295	-1.0295792378	-0.5046622602	-0.205251
H	 0.9116915435	 2.0013104368	 0.1975024566	 0.125999
H	-0.302541865	 1.8586281647	-1.0812554319	 0.127088
H	-0.8088276449	 1.9404420844	 0.6121861501	 0.132289
H	 0.8738744673	-0.9617657166	-1.895787928	 0.091855
H	 1.3253765376	-2.7939195298	 0.3666313162	 0.104076
H	 2.3239409951	-1.305836112	 0.4097543581	 0.103499
H	 0.5369487384	-0.6971809693	 2.2584808541	 0.096287
H	-2.4664978453	-2.7773674884	 3.1639319509	 0.302211
H	-1.7038328711	-0.9377699796	-1.2610526225	 0.100223
96.3814	189.2179	218.4008	228.1344	294.3848	297.8779	370.7762	462.6771	509.0771	595.5411	655.3928	711.5571	727.1704	783.7179	839.9279	883.1325	909.3349	930.2368	954.9443	976.777	993.7768	1015.4442	1070.8681	1090.9883	1122.9077	1142.0521	1143.7367	1186.3476	1197.4112	1219.8083	1283.8263	1294.6714	1411.3666	1412.1459	1451.0803	1483.7257	1496.5385	1500.2459	1794.776	3023.999	3043.314	3084.7383	3095.7863	3102.1574	3174.5345	3186.47	3221.4695	3825.6264
CC12C3CC1C(=NO)C23	C[C@@]12[C@H]3C[C@@H]1C(=NO)[C@@H]23	
InChI=1S/C7H9NO/c1-7-3-2-4(7)6(8-9)5(3)7/h3-5,9H,2H2,1H3	InChI=1S/C7H9NO/c1-7-3-2-4(7)6(8-9)5(3)7/h3-5,9H,2H2,1H3/t3-,4+,5-,7+/m0/s1
