19
gdb 86603	3.2179	1.22245	1.04976	2.6154	77.85	-0.2197	0.0279	0.2477	1208.1933	0.159402	-419.191899	-419.18289	-419.181945	-419.226217	32.229	
C	 0.1223141969	 1.42866797	-0.0985145894	-0.346279
N	 0.0604985804	-0.0085856002	-0.0666049759	-0.068637
C	-1.0430647992	-0.9515618422	-0.2658891025	-0.191511
C	-0.0275476243	-2.1005774855	 0.0185918753	-0.11032
N	 0.0827514239	-3.126630904	-0.9928606038	-0.090579
C	 0.9103708083	-2.8593567104	-2.1706270877	-0.235148
C	 1.3764005475	-3.8014441779	-1.1160921026	-0.21768
C	 1.0304165632	-0.955388076	 0.1328615454	 0.387417
O	 2.2225139487	-0.8719304596	 0.3061547755	-0.390851
H	 1.1580330583	 1.7201627734	 0.0924982756	 0.161549
H	-0.1819833721	 1.8238828486	-1.0756346378	 0.129458
H	-0.5197270852	 1.8759256095	 0.6701997997	 0.129945
H	-1.8625437049	-0.8451030802	 0.4531105848	 0.110623
H	-1.4437045017	-0.9601928455	-1.2852802338	 0.116547
H	-0.1980905564	-2.584727473	 0.984971141	 0.107625
H	 0.5105883136	-3.2348563402	-3.1079265595	 0.115383
H	 1.4316757024	-1.9076741381	-2.2408053061	 0.130125
H	 2.1895909221	-3.455922907	-0.4835039938	 0.147206
H	 1.3251409785	-4.8749603319	-1.2746743343	 0.115128
65.3819	96.065	137.9157	156.0209	176.3097	243.0866	265.9619	350.2745	459.3869	527.541	610.8062	754.1502	779.9864	811.214	845.3963	889.9315	918.0388	986.1337	1019.4384	1046.4506	1088.9232	1096.1328	1123.649	1129.2828	1135.0389	1172.7953	1179.9773	1193.9443	1207.7703	1252.5921	1294.5584	1329.9446	1367.5356	1417.5634	1448.2065	1482.361	1488.3381	1510.0639	1515.0788	1531.9165	1855.0492	3013.9676	3033.7463	3064.8614	3067.2546	3084.1915	3107.9436	3111.1823	3127.945	3191.3427	3206.9517
CN1CC(N2CC2)C1=O	CN1C[C@@H](N2CC2)C1=O	
InChI=1S/C6H10N2O/c1-7-4-5(6(7)9)8-2-3-8/h5H,2-4H2,1H3	InChI=1S/C6H10N2O/c1-7-4-5(6(7)9)8-2-3-8/h5H,2-4H2,1H3/t5-/m1/s1
