18
gdb 11286	4.0309	1.43157	1.20028	1.5881	73.82	-0.2507	0.0376	0.2883	1048.3871	0.153217	-347.782284	-347.774028	-347.773084	-347.816018	30.599	
C	-0.1562539627	 1.4486434611	 0.0621275387	-0.403549
C	 0.0865271614	-0.0487805864	 0.0118918201	 0.148405
C	 0.7711705129	-0.578412837	-1.2531297621	-0.215166
C	 1.3845983074	-1.9033149111	-0.7695783607	-0.261219
C	 1.5634981321	-1.6774728741	 0.7671291823	-0.051336
O	 0.9945702232	-0.3984899318	 1.0591886552	-0.260044
C	 0.9438301764	-2.7373179144	 1.566775962	 0.346527
C	 0.435873743	-3.6113071739	 2.2175106808	-0.482695
H	 0.7831956609	 1.9923569442	-0.0773694973	 0.120957
H	-0.8550855279	 1.747947226	-0.7251657086	 0.115052
H	-0.581288807	 1.7379919047	 1.0270377707	 0.128395
H	-0.8670044628	-0.5833478946	 0.1618669024	 0.071119
H	 0.0798710257	-0.7118975817	-2.0891774944	 0.10269
H	 1.5512631712	 0.125229703	-1.5635778714	 0.103348
H	 0.7069248656	-2.7409671626	-0.9470252086	 0.120305
H	 2.336003492	-2.1363118945	-1.2515803699	 0.112544
H	 2.6245294329	-1.6119558166	 1.0346671404	 0.106865
H	-0.0091148744	-4.3792747602	 2.8005566304	 0.197803
18.7562	129.1343	187.0329	225.3987	240.2444	308.9101	440.8377	499.0999	558.0474	571.2805	615.9237	661.8145	706.9353	806.1603	850.0269	876.6117	905.4048	964.8576	996.2393	1023.787	1044.9186	1106.9571	1122.0036	1159.3068	1211.391	1217.4518	1302.522	1313.6192	1319.7812	1355.5429	1375.094	1395.465	1415.6669	1482.6554	1487.011	1500.0863	1504.0526	2231.5106	2956.6135	3034.8674	3040.9654	3047.7378	3075.8264	3101.8772	3115.304	3120.2513	3125.9689	3503.477
CC1CCC(O1)C#C	C[C@H]1CC[C@@H](O1)C#C	
InChI=1S/C7H10O/c1-3-7-5-4-6(2)8-7/h1,6-7H,4-5H2,2H3	InChI=1S/C7H10O/c1-3-7-5-4-6(2)8-7/h1,6-7H,4-5H2,2H3/t6-,7-/m0/s1
