21
gdb 86983	4.27034	0.69008	0.66468	1.9752	85.68	-0.2459	0.0604	0.3064	1761.8615	0.180376	-387.050923	-387.041004	-387.04006	-387.086672	36.309	
C	 0.5665056337	 1.4715457249	 0.2394483602	-0.397887
C	 0.0853337289	 0.0564538359	-0.0036715455	 0.179759
C	 0.5033533933	-0.6649685968	-1.3045747419	-0.332199
C	 1.0673739022	-1.7460362635	-0.3594463487	 0.160275
C	 2.5333818501	-2.1215645505	-0.4725980305	-0.198821
C	 3.007243442	-2.9422013218	 0.7444749681	-0.352549
C	 4.4193038933	-3.2951821459	 0.6770086909	 0.293247
C	 5.5858298042	-3.5739051996	 0.5951864391	-0.440797
O	 0.7958810695	-0.9203446292	 0.800298964	-0.316084
H	 1.637450957	 1.5592995898	 0.0323064311	 0.118923
H	 0.0261540981	 2.1747978256	-0.4039737457	 0.116035
H	 0.3936408394	 1.7606221008	 1.2810308295	 0.128111
H	-0.9949426098	-0.0128330524	 0.1895789759	 0.072808
H	-0.2983577989	-0.9698698208	-1.9783978163	 0.107374
H	 1.2727226015	-0.1348848686	-1.8723785749	 0.106241
H	 0.4485132518	-2.6562896121	-0.3290670146	 0.069038
H	 2.6885721687	-2.6962655207	-1.3937052475	 0.107814
H	 3.1373777351	-1.2110898606	-0.5508455789	 0.108961
H	 2.8088353364	-2.3612770536	 1.6527066203	 0.152323
H	 2.404864337	-3.856750645	 0.827118878	 0.126129
H	 6.6153948465	-3.8261003658	 0.5372660174	 0.191298
43.7315	82.514	91.371	122.4483	211.6929	233.6324	328.8983	344.6101	365.1166	423.588	450.2016	525.9938	613.4866	634.1751	690.1281	767.9091	830.5668	889.5153	914.2017	925.4702	945.9395	965.4454	1021.0897	1057.9066	1073.7911	1108.0246	1129.81	1146.2636	1195.3163	1215.9278	1249.12	1268.0813	1289.1941	1309.3271	1340.531	1365.4882	1382.4518	1403.9519	1421.1238	1469.9171	1481.7191	1484.9779	1491.6982	1496.9129	2238.8384	2978.6055	2995.1265	3019.9961	3032.8102	3036.5492	3061.0778	3067.4932	3087.621	3104.9298	3112.3489	3129.3165	3507.9993
CC1CC(CCC#C)O1	C[C@H]1C[C@@H](CCC#C)O1	
InChI=1S/C8H12O/c1-3-4-5-8-6-7(2)9-8/h1,7-8H,4-6H2,2H3	InChI=1S/C8H12O/c1-3-4-5-8-6-7(2)9-8/h1,7-8H,4-6H2,2H3/t7-,8+/m0/s1
