18
gdb 47582	2.3758	1.90299	1.17238	2.8479	72.32	-0.2508	0.0179	0.2686	1038.9443	0.150061	-439.081436	-439.073922	-439.072978	-439.114082	28.707	
N	 0.1248337216	 0.9675384195	 0.8350989538	-0.516952
C	 0.0828493057	-0.0436047161	 0.0749480555	 0.374681
O	 1.1869358433	-0.4854867057	-0.592666795	-0.250896
C	 1.1188271134	-1.7184209539	-1.3263528241	-0.079064
C	 0.362644461	-2.7860510728	-0.5423106923	-0.252367
C	-1.079791607	-2.3126435693	-0.3997583458	 0.134253
O	-1.7045595748	-2.6243223761	 0.859654095	-0.294882
C	-1.9628176047	-1.2259227441	 1.1360557031	-0.073967
C	-1.2096763142	-0.7933227474	-0.1388874966	-0.16348
H	 1.0697586813	 1.356164455	 0.8578379815	 0.220102
H	 0.6454977863	-1.5397242423	-2.30260297	 0.110694
H	 2.1588014735	-1.9994097592	-1.5055707239	 0.125664
H	 0.4317068753	-3.7538953583	-1.0478953755	 0.111101
H	 0.8099638635	-2.8904364263	 0.4517072452	 0.127917
H	-1.6895856543	-2.6667548033	-1.241714228	 0.078651
H	-3.0358163165	-1.0031547353	 1.1375506925	 0.10542
H	-1.5170457199	-0.8932094064	 2.0771858843	 0.129358
H	-1.8163526137	-0.2516688381	-0.8678213697	 0.113766
61.5246	91.2125	234.3867	269.2052	378.7448	434.7716	465.8558	495.8329	593.345	655.2794	759.6998	784.3394	874.4827	901.9491	906.3324	951.8417	962.4897	992.7966	1024.8767	1059.1514	1084.0916	1102.3624	1128.7554	1141.4205	1157.1975	1195.2537	1231.0449	1259.0921	1285.6294	1294.6654	1335.4222	1343.3648	1363.8995	1392.7785	1422.5543	1482.5477	1514.7983	1528.4512	1746.0487	3005.2189	3008.2696	3034.9457	3052.3437	3084.8753	3100.2309	3102.996	3106.0895	3466.4889
N=C1OCCC2OCC12	[NH][C]1OCC[C@H]2OC[C@@H]12	
InChI=1S/C6H9NO2/c7-6-4-3-9-5(4)1-2-8-6/h4-5,7H,1-3H2	InChI=1S/C6H9NO2/c7-6-4-3-9-5(4)1-2-8-6/h4-5,7H,1-3H2/t4-,5-/m1/s1
