24
gdb 88950	2.98988	0.92367	0.87541	2.1171	86.53	-0.2281	0.0813	0.3095	1509.7303	0.214485	-405.527881	-405.517037	-405.516093	-405.564148	40.76	
C	-0.0651103199	 1.4964564729	-0.3203312217	-0.413253
C	 0.1493080973	 0.0151613415	-0.1014239116	 0.030867
C	 1.5145621993	-0.5772393529	-0.0932961409	-0.253148
N	 0.7226837428	-0.5230031626	 1.1359527476	-0.110467
C	 1.1551798845	 0.3859941385	 2.1974928308	-0.155697
C	 1.6811618959	-0.4372071497	 3.3957141709	 0.360168
C	 2.426559403	 0.4701683478	 4.3726007671	-0.406327
C	 0.5284248026	-1.1745551839	 4.0927312927	-0.416898
O	 2.6439718396	-1.3805317724	 2.9214675654	-0.470162
H	 0.7925497429	 2.092158562	 0.0015900108	 0.123103
H	-0.2289949561	 1.695005962	-1.3847144356	 0.123632
H	-0.9490836591	 1.8529276278	 0.220459176	 0.123665
H	-0.661793125	-0.6035094739	-0.4848445733	 0.089578
H	 1.7001229046	-1.5663557544	-0.5051913339	 0.111254
H	 2.3555012668	 0.1102265891	-0.176922054	 0.112906
H	 1.9474513761	 1.0732627232	 1.8645661412	 0.084886
H	 0.2998759581	 0.9922247792	 2.51869556	 0.096455
H	 1.7730641485	 1.264571229	 4.7465871749	 0.107443
H	 2.7881613737	-0.1097934288	 5.2264157532	 0.120416
H	 3.2906703144	 0.9285589099	 3.8828612998	 0.116944
H	-0.0319945235	-1.7708258465	 3.3666348142	 0.121132
H	 0.9261009898	-1.8399854151	 4.8640740783	 0.115254
H	-0.1677093101	-0.4724837588	 4.5646465252	 0.103193
H	 2.184255154	-1.9177451737	 2.265012423	 0.285055
25.8274	82.2125	134.5923	196.6404	206.3578	221.2616	260.8589	294.6176	331.5672	345.6216	392.0179	442.0117	451.9539	465.1381	483.7076	548.2711	757.8686	779.7097	822.6736	900.9114	906.5279	922.5937	947.1915	951.4418	992.3381	1019.5564	1036.3497	1064.1117	1116.7828	1141.1256	1147.8636	1165.4016	1187.7349	1217.363	1251.8087	1309.1061	1331.0845	1345.9058	1384.6845	1399.948	1410.1806	1418.3883	1420.5148	1471.921	1481.4396	1488.6332	1491.2173	1497.1161	1498.6978	1510.3119	1515.121	2979.977	3033.1434	3034.2671	3040.6064	3057.1534	3088.2844	3093.0423	3098.5279	3104.038	3113.895	3115.9373	3120.2811	3123.703	3171.8645	3787.2137
CC1CN1CC(C)(C)O	C[C@H]1CN1CC(C)(C)O	
InChI=1S/C7H15NO/c1-6-4-8(6)5-7(2,3)9/h6,9H,4-5H2,1-3H3	InChI=1S/C7H15NO/c1-6-4-8(6)5-7(2,3)9/h6,9H,4-5H2,1-3H3/t6-,8?/m0/s1
