17
gdb 55417	2.69767	1.54812	1.00652	3.6807	70.57	-0.2556	-0.0013	0.2543	1138.2108	0.137343	-455.234963	-455.226373	-455.225429	-455.268642	30.864	
C	 0.0506422434	 1.4900081889	 0.1008178695	-0.471631
C	 0.0381402898	-0.0182358178	 0.0328051588	 0.395904
O	 1.0470895885	-0.6943660049	 0.017706591	-0.350859
N	-1.1985658476	-0.6600823795	-0.003048463	-0.17498
C	-1.2571413345	-2.1192708249	-0.1004600495	-0.156943
C	-2.7507730735	-2.4165473657	 0.1413157882	-0.187975
N	-3.3632617256	-1.1427621644	-0.2018783297	-0.353936
C	-2.4837392664	-0.0882511099	-0.096218332	 0.47692
O	-2.7638972567	 1.0883349114	-0.0998983693	-0.405393
H	 1.0923909065	 1.8068371918	 0.1483939433	 0.133802
H	-0.4449544186	 1.9238794432	-0.7702864955	 0.158872
H	-0.5013154591	 1.8490841218	 0.9722786641	 0.153345
H	-0.9313175577	-2.4454804762	-1.0938941367	 0.132538
H	-0.5988081024	-2.5808274893	 0.6354509134	 0.145013
H	-3.1141706887	-3.2265348138	-0.4961387968	 0.126409
H	-2.9378848872	-2.692205083	 1.188175865	 0.118209
H	-4.3344033102	-0.9469767476	-0.0199532209	 0.260705
83.3745	98.7478	147.8599	177.4818	221.355	231.5728	381.9831	400.8584	504.341	600.9965	606.3453	635.5449	721.7318	740.459	771.1477	888.2474	950.4068	989.8946	1061.8941	1079.1039	1087.6978	1130.9046	1180.0357	1226.4477	1245.323	1272.5117	1339.2794	1353.0069	1407.4213	1410.2458	1442.4127	1449.3247	1471.6247	1521.4001	1536.0672	1777.9792	1841.2457	3008.6236	3051.8798	3066.6284	3088.017	3130.8898	3136.2168	3167.0982	3650.7868
CC(=O)N1CCNC1=O	CC(=O)N1CCNC1=O	
InChI=1S/C5H8N2O2/c1-4(8)7-3-2-6-5(7)9/h2-3H2,1H3,(H,6,9)	InChI=1S/C5H8N2O2/c1-4(8)7-3-2-6-5(7)9/h2-3H2,1H3,(H,6,9)
