17
gdb 128362	3.38673	0.99252	0.78415	2.8867	72.66	-0.2176	0.0009	0.2185	1423.2885	0.135918	-455.127995	-455.118897	-455.117953	-455.162702	32.242	
C	 0.3148878484	 1.3779095683	 0.19847992	-0.327795
N	-0.1967201359	 0.0911813104	-0.2402035807	-0.373974
C	 0.4873594238	-0.636224063	-1.1865501027	 0.451255
N	 0.3708326699	-1.950176312	-1.2335324537	-0.254436
O	 1.1341756812	-2.3451881162	-2.346967239	-0.219862
C	 1.6795487306	-1.261263295	-2.9116124689	 0.406152
C	 2.5394333293	-1.4730380758	-4.1205687658	-0.171074
O	 3.4306876729	-0.3964601941	-4.3351120491	-0.402807
C	 1.3274074756	-0.1387176993	-2.2325811665	-0.42064
H	 1.3136887407	 1.325874909	 0.6577587426	 0.117948
H	 0.3634992156	 2.0705597344	-0.6472129922	 0.138167
H	-0.3795759201	 1.8011663055	 0.9276147761	 0.132686
H	-0.577323859	-0.491043839	 0.4921520015	 0.249633
H	 3.0547989354	-2.4407473287	-4.0277651409	 0.120547
H	 1.9157587212	-1.5301177444	-5.0201649319	 0.142742
H	 4.0030874185	-0.3335088361	-3.5630010015	 0.28887
H	 1.6019506719	 0.8765034359	-2.4594290774	 0.122589
60.1537	84.9619	120.6918	159.0345	199.1502	243.6	333.2367	376.9913	410.7421	481.2013	579.8611	624.4026	671.2889	730.5821	770.9485	795.5162	940.101	985.0857	999.4999	1027.192	1080.8887	1097.0234	1152.3788	1170.7749	1185.1691	1204.3709	1290.5038	1389.0856	1415.1163	1428.5784	1456.1764	1490.3024	1493.2911	1513.4026	1516.1859	1571.0921	1659.6033	2988.7886	2999.3169	3061.8904	3078.0684	3123.8313	3289.7427	3600.2022	3810.8767
CNC1=NOC(CO)=C1	CNc1noc(CO)c1	
InChI=1S/C5H8N2O2/c1-6-5-2-4(3-8)9-7-5/h2,8H,3H2,1H3,(H,6,7)	InChI=1S/C5H8N2O2/c1-6-5-2-4(3-8)9-7-5/h2,8H,3H2,1H3,(H,6,7)
