18
gdb 84084	2.47206	1.51966	0.98911	3.0271	76.43	-0.2116	-0.0116	0.2	1198.6256	0.146471	-439.129322	-439.119874	-439.11893	-439.163499	33.9	
C	 0.0223217825	 1.4716183709	 0.0290399305	-0.352488
N	-0.0666970688	 0.0287002944	-0.0102281326	-0.091641
C	-0.0048217269	-0.7690281766	-1.1795975264	-0.123212
C	 0.0762473362	-2.0764860123	-0.9111087688	 0.240732
C	 0.1577024604	-3.224132332	-1.8585815238	-0.495369
C	 0.0042863491	-2.2297847827	 0.5902666408	-0.076415
O	 1.0610397437	-2.9843518273	 1.1445564269	-0.432269
C	 0.035244356	-0.7748812631	 1.0972483455	 0.386929
O	 0.1732729558	-0.4285267531	 2.2531870275	-0.400937
H	 0.9327742679	 1.8295777504	-0.4660046111	 0.133442
H	-0.8454581157	 1.9348840061	-0.4526143069	 0.132973
H	 0.0500796228	 1.7665612312	 1.0794357326	 0.167998
H	-0.0380986356	-0.2759902733	-2.1421503103	 0.125724
H	 0.2024155474	-2.8825992008	-2.8967607569	 0.12055
H	 1.0484695584	-3.8301677393	-1.6567822442	 0.146228
H	-0.7070871469	-3.892825697	-1.7586060138	 0.126667
H	-0.9743782327	-2.6618709373	 0.8725725839	 0.096218
H	 1.1578237364	-2.6729279778	 2.0550900372	 0.294868
90.7143	126.311	137.6639	176.7907	190.7992	242.8485	274.4023	303.1937	348.9061	372.49	513.2092	556.6695	596.9326	602.761	764.4666	838.2218	868.1697	901.7065	996.8873	1029.8521	1059.957	1086.1877	1148.025	1155.1291	1197.0407	1215.8171	1289.9554	1312.6605	1332.8972	1402.1878	1415.7325	1430.8887	1457.2309	1473.9407	1492.3116	1496.124	1514.5495	1718.8079	1811.0198	2926.6699	3018.3863	3024.4687	3069.6493	3080.0843	3108.1112	3144.465	3223.7823	3754.3534
CN1C=C(C)C(O)C1=O	CN1C=C(C)[C@@H](O)C1=O	
InChI=1S/C6H9NO2/c1-4-3-7(2)6(9)5(4)8/h3,5,8H,1-2H3	InChI=1S/C6H9NO2/c1-4-3-7(2)6(9)5(4)8/h3,5,8H,1-2H3/t5-/m1/s1
