23
gdb 120931	3.3116	0.89231	0.81617	1.6536	86.4	-0.2276	0.0836	0.3112	1562.1089	0.20426	-388.261529	-388.251682	-388.250738	-388.296483	36.856	
C	 0.0013142916	 1.5490610053	-0.0995674225	-0.383377
C	 0.1800227457	 0.0296567903	-0.0558799691	-0.159099
C	 0.5544747792	-0.4903945832	 1.3381112964	-0.198177
C	 0.7429594099	-1.9955280765	 1.3689273044	 0.096561
O	 1.8104109368	-2.4782593708	 0.4937027181	-0.31179
C	 2.3590806347	-3.2407193819	 1.5708244048	 0.069092
C	 2.8398141321	-2.3382651182	 2.6642760237	-0.35177
C	 1.3673867372	-2.7063348379	 2.5783417678	 0.244292
C	 0.5952238305	-3.3543947595	 3.6894669589	-0.497027
H	 0.9219358583	 2.0644682169	 0.1963063468	 0.114027
H	-0.2616298015	 1.8905900502	-1.1056177413	 0.111823
H	-0.7926232801	 1.8765502499	 0.581422568	 0.110428
H	-0.7451309385	-0.459763387	-0.3882146306	 0.091819
H	 0.9594081582	-0.2765967094	-0.7625777459	 0.119484
H	 1.4713014568	 0.0030685341	 1.6815180387	 0.095907
H	-0.2339444049	-0.2310235515	 2.0589533853	 0.092764
H	-0.1932856067	-2.4967227805	 1.079936627	 0.071526
H	 2.728906743	-4.2366128508	 1.3532297063	 0.099549
H	 3.3663784185	-2.8282256298	 3.4785546611	 0.109218
H	 3.2039840755	-1.3450478269	 2.4175932639	 0.112763
H	 0.2088658488	-2.6100394796	 4.3964752773	 0.12215
H	-0.2588906871	-3.922455906	 3.3032148282	 0.119069
H	 1.2257391117	-4.0457798073	 4.2576995827	 0.120768
72.3016	88.6251	117.7689	180.9849	194.6316	244.8864	252.6899	312.0733	323.9601	407.8077	482.5202	541.5225	632.2685	742.9763	754.1099	816.2995	843.8316	892.5567	901.9756	936.7428	951.36	985.0357	1004.1388	1028.8767	1048.0385	1069.0448	1082.7881	1095.7672	1127.8626	1138.0625	1162.8662	1241.2045	1255.0353	1259.6191	1292.9671	1307.7326	1328.1778	1382.997	1388.6936	1411.8001	1417.9332	1427.9017	1474.0054	1487.1094	1487.974	1493.6785	1499.1411	1499.8842	1509.9616	2987.8639	3012.1374	3020.2683	3021.433	3027.7564	3056.9019	3072.277	3077.7207	3096.1534	3096.7073	3101.0751	3114.0551	3173.2049	3202.1546
CCCC1OC2CC12C	CCC[C@H]1O[C@H]2C[C@@]12C	
InChI=1S/C8H14O/c1-3-4-6-8(2)5-7(8)9-6/h6-7H,3-5H2,1-2H3	InChI=1S/C8H14O/c1-3-4-6-8(2)5-7(8)9-6/h6-7H,3-5H2,1-2H3/t6-,7+,8+/m1/s1
