15
gdb 9197	7.37438	0.88198	0.79873	1.2786	64.79	-0.2493	0.0081	0.2574	1361.9612	0.116539	-399.783886	-399.774677	-399.773732	-399.819449	31.004	
N	 0.2525477948	 1.3583907832	-0.0034755806	-0.484987
C	-0.0119201237	-0.0672060251	 0.0444617946	-0.272613
C	-1.4861816552	-0.4570253408	-0.029908916	 0.430239
O	-2.4060747099	 0.3167907086	-0.1200726819	-0.355521
O	-1.6320163569	-1.7968728185	 0.0190291269	-0.237788
C	-2.9974927252	-2.2625051293	-0.044779001	-0.227384
C	-3.0009328694	-3.7132121425	 0.0177765433	 0.286542
C	-3.0383622642	-4.9120589799	 0.0673209629	-0.411337
H	-0.1481439711	 1.7429816948	-0.8546015012	 0.236848
H	-0.2521487332	 1.816161402	 0.7505990599	 0.236925
H	 0.510304648	-0.5742125401	-0.7752190563	 0.142752
H	 0.4012592322	-0.4953825807	 0.9651699574	 0.142781
H	-3.5651997658	-1.8265790669	 0.7842842578	 0.153434
H	-3.4572303942	-1.9025492481	-0.9714606633	 0.153436
H	-3.068685516	-5.9728686868	 0.1112454876	 0.206674
25.8143	47.2063	109.3651	140.5899	224.255	229.0856	307.676	327.9132	389.2892	541.1327	576.6084	619.7778	686.1754	700.6106	891.5179	919.5163	944.782	980.4475	1013.9211	1024.7867	1153.7224	1180.4231	1209.4717	1247.6194	1366.9661	1388.1698	1402.0114	1454.767	1487.3883	1677.964	1818.4672	2251.6019	3044.3702	3046.3771	3080.4046	3080.7732	3495.0839	3505.5205	3563.1805
NCC(=O)OCC#C	NCC(=O)OCC#C	
InChI=1S/C5H7NO2/c1-2-3-8-5(7)4-6/h1H,3-4,6H2	InChI=1S/C5H7NO2/c1-2-3-8-5(7)4-6/h1H,3-4,6H2
