16
gdb 20949	7.28676	1.16316	1.0159	3.3964	67.6	-0.2106	0.0423	0.2529	1135.2702	0.131745	-379.932789	-379.925053	-379.924109	-379.965564	27.721	
C	-0.0378912327	 1.4983943371	 0.0101922193	-0.390625
C	-0.0030386505	-0.0180511728	 0.0024766613	-0.067745
O	-1.3516231088	-0.4864092954	 0.0119987924	-0.264981
C	-1.5484391479	-1.8164806624	 0.0058125229	 0.500361
C	-2.7473955544	-2.5007970339	 0.0103609779	-0.36332
C	-2.3632787058	-3.8585291616	 0.0003483462	 0.017087
N	-1.0461683239	-4.0235415225	-0.0098992167	-0.25705
N	-0.5610476234	-2.7511146213	-0.0060785574	-0.281162
H	 0.9809689883	 1.8960913129	 0.003453268	 0.124871
H	-0.5649501883	 1.8741577495	-0.8705493453	 0.138613
H	-0.5497982878	 1.8654454776	 0.9034573433	 0.138619
H	 0.5109906831	-0.392826138	-0.8947389873	 0.109086
H	 0.5265846497	-0.4014137067	 0.8869210194	 0.109037
H	-3.7337129606	-2.0697760149	 0.0195743128	 0.105972
H	-3.0057813267	-4.727440294	 0.0000751438	 0.109306
H	 0.4328994297	-2.6101086337	-0.0125882606	 0.271932
52.0263	90.1901	163.3342	248.7625	308.8308	352.9114	417.7862	459.7202	674.2998	688.1065	715.9493	770.296	833.1068	897.6057	919.3827	926.576	1037.246	1053.6109	1079.8472	1115.4165	1138.8716	1184.0196	1255.5453	1298.1393	1307.0295	1377.1063	1394.4307	1413.8043	1448.9156	1484.0539	1501.2231	1520.3886	1531.3663	1628.6855	2986.4258	3023.9586	3051.533	3127.2509	3132.6287	3239.3757	3282.178	3697.3966
CCOC1=CC=NN1	CCOc1ccn[nH]1	
InChI=1S/C5H8N2O/c1-2-8-5-3-4-6-7-5/h3-4H,2H2,1H3,(H,6,7)	InChI=1S/C5H8N2O/c1-2-8-5-3-4-6-7-5/h3-4H,2H2,1H3,(H,6,7)
