17
gdb 70112	2.44767	1.68364	1.23817	1.9936	78.28	-0.248	-0.0055	0.2425	1048.492	0.134276	-384.644934	-384.636675	-384.635731	-384.67751	31.939	
C	-0.1456987738	 1.4602428262	-0.0037062238	-0.48786
C	 0.1166329467	-0.0185668462	 0.0358128974	 0.402671
O	-0.6633370424	-0.7864208245	 0.9505287475	-0.288102
C	 0.7764796517	-0.7661894324	 1.1211453814	-0.076665
C	 1.4431927682	-1.95487015	 0.5118607412	-0.084098
C	 1.219804045	-1.9871458674	-0.8017941065	-0.087365
C	 0.4279499797	-0.7722714975	-1.2805162834	-0.281952
C	-0.7581710196	-1.1018563202	-2.0620418168	 0.343032
C	-1.7340567723	-1.3646781824	-2.7120316419	-0.466805
H	 0.6951425037	 1.9971125182	-0.4552596852	 0.121705
H	-1.0405606771	 1.6697473059	-0.5997102051	 0.140349
H	-0.3089291277	 1.8454175517	 1.0055675597	 0.131981
H	 1.1253683259	-0.3058673788	 2.0408920352	 0.09721
H	 1.9917772683	-2.6938266497	 1.0824671544	 0.109623
H	 1.5171724726	-2.7714101644	-1.4871011009	 0.116594
H	 1.0807839436	-0.1352627694	-1.896962655	 0.112606
H	-2.6013299126	-1.6021219791	-3.2767566084	 0.197076
99.0582	125.8579	189.6721	239.4917	297.214	356.6314	363.9485	494.7268	530.7739	546.5998	613.3323	623.0214	641.7645	724.5219	753.6695	828.0932	871.31	875.7212	942.3895	966.6455	988.7142	1011.4023	1039.024	1070.5117	1110.267	1144.2832	1208.1774	1255.7451	1277.6807	1305.3439	1363.4298	1407.9279	1447.6851	1483.7269	1495.6051	1666.6613	2238.789	2988.5307	3036.6842	3100.5846	3126.4503	3159.2476	3200.8251	3224.6924	3503.8866
CC12OC1C=CC2C#C	C[C@]12O[C@H]1C=C[C@H]2C#C	
InChI=1S/C8H8O/c1-3-6-4-5-7-8(6,2)9-7/h1,4-7H,2H3	InChI=1S/C8H8O/c1-3-6-4-5-7-8(6,2)9-7/h1,4-7H,2H3/t6-,7+,8-/m1/s1
