20
gdb 23002	2.91821	1.05298	0.97143	1.6942	78.76	-0.2407	0.0002	0.2409	1316.3081	0.168763	-440.229562	-440.219645	-440.218701	-440.265141	35.713	
C	-0.6915757711	 1.2767540903	 0.0673933565	-0.418323
C	-0.1580399104	-0.1485651916	 0.0656297639	-0.042826
C	 1.0729497787	-0.4461195273	-0.8171738312	-0.080436
O	 1.8807115382	-0.7837480974	 0.3304341064	-0.292198
C	 0.7661162649	-0.6198744041	 1.2376695106	 0.058196
C	 1.0673351898	 0.3103563873	 2.3845018114	 0.350163
C	 1.9645947597	 1.5014747315	 2.2020315337	-0.482101
N	 0.5101673924	-0.0158264152	 3.4897100759	-0.176585
O	 0.781904155	 0.9123237034	 4.5031118136	-0.394574
H	 0.1131498207	 2.0132422325	 0.1480639227	 0.123734
H	-1.2361716058	 1.4818189177	-0.8605658136	 0.118465
H	-1.3818335315	 1.4376663145	 0.9018044136	 0.128998
H	-0.9819028263	-0.8486871514	-0.0936938476	 0.085141
H	 0.9719508193	-1.2926625483	-1.5074033029	 0.102003
H	 1.4826619646	 0.4122022446	-1.3652739075	 0.099352
H	 0.4454310732	-1.578831395	 1.6592783973	 0.090721
H	 2.7030722915	 1.5342325935	 3.0080521569	 0.14627
H	 2.4794966477	 1.447117879	 1.242895237	 0.136745
H	 1.3944072807	 2.4348840157	 2.263639039	 0.14035
H	 0.3440979788	 0.5161324003	 5.2640661843	 0.306906
44.0985	61.5258	128.9813	145.6066	230.0061	236.561	278.9655	301.6778	363.2168	395.6749	414.2915	468.1639	575.7825	670.991	753.8203	794.3667	883.178	904.7073	921.5416	967.5974	1013.4106	1023.155	1034.0698	1056.9649	1085.3758	1129.4683	1156.4031	1190.0683	1252.0403	1271.4391	1286.9977	1340.8611	1348.263	1380.5194	1395.4769	1407.795	1415.6189	1474.9131	1484.4892	1498.3564	1501.0959	1525.8358	1717.5762	3009.3212	3035.889	3042.0281	3044.8715	3050.2056	3075.7042	3100.0597	3102.6831	3115.7273	3153.7301	3817.2693
CC1COC1C(C)=NO	C[C@H]1CO[C@H]1C(=NO)C	
InChI=1S/C6H11NO2/c1-4-3-9-6(4)5(2)7-8/h4,6,8H,3H2,1-2H3	InChI=1S/C6H11NO2/c1-4-3-9-6(4)5(2)7-8/h4,6,8H,3H2,1-2H3/t4-,6+/m0/s1
