19
gdb 51803	3.86478	1.01777	0.92168	3.5349	76.63	-0.2353	0.0283	0.2636	1294.6014	0.161709	-419.213919	-419.205792	-419.204848	-419.247563	30.691	
O	 0.1584944956	-0.4378498935	 0.3391129421	-0.322468
C	-0.0387147189	 0.7587279186	 0.3395238396	 0.151783
N	 0.8892596644	 1.709186536	 0.0450953075	-0.28692
C	 2.2695550237	 1.4039605549	-0.2875999666	 0.047363
C	 2.6605127705	 1.682513036	-1.760208988	-0.269497
C	 4.1678453565	 1.9978964613	-1.6760645086	-0.154553
N	 4.4534867822	 2.5315569879	-0.323903147	-0.092412
C	 3.5481568624	 3.6142561984	 0.0797388271	-0.259578
C	 3.284950297	 2.2133977249	 0.5111400132	-0.038067
H	-1.0203928367	 1.209549074	 0.5873170477	 0.074543
H	 0.6119367553	 2.6776314683	 0.0899931321	 0.245199
H	 2.3926814006	 0.342337597	-0.0597196311	 0.129456
H	 2.4400006617	 0.8325074003	-2.40904404	 0.120891
H	 2.0889508567	 2.5334666608	-2.1439416148	 0.101685
H	 4.7613085078	 1.0845868158	-1.788392332	 0.11675
H	 4.5045859823	 2.7069200211	-2.4384247384	 0.110088
H	 3.9753663293	 4.3207078379	 0.7850355431	 0.121984
H	 2.9037085964	 4.06737611	-0.670762532	 0.104348
H	 3.4780306232	 1.9157022703	 1.5376226065	 0.099406
35.8348	110.3939	181.4803	222.2852	275.4552	379.6638	424.4439	476.3667	535.2189	604.4007	651.7052	733.2618	791.0215	833.2985	880.0041	908.611	954.1301	983.0826	1001.7713	1020.8941	1031.5071	1056.8246	1108.2369	1122.9317	1140.6735	1165.0194	1196.5517	1220.0436	1241.7386	1266.537	1304.9461	1332.1311	1343.4886	1366.2391	1394.1647	1430.8936	1491.4282	1500.1668	1521.283	1527.4368	1804.4675	2934.6295	3047.9548	3056.754	3090.8781	3093.0998	3104.8973	3117.1156	3152.4042	3189.6966	3624.7297
O=CNC1CCN2CC12	O=CN[C@H]1CCN2C[C@@H]12	
InChI=1S/C6H10N2O/c9-4-7-5-1-2-8-3-6(5)8/h4-6H,1-3H2,(H,7,9)	InChI=1S/C6H10N2O/c9-4-7-5-1-2-8-3-6(5)8/h4-6H,1-3H2,(H,7,9)/t5-,6-,8?/m0/s1
