15
gdb 124257	4.44874	1.04828	0.85361	2.0895	71.82	-0.2431	-0.066	0.1771	1286.8257	0.111987	-453.963661	-453.955188	-453.954243	-453.997173	30.675	
C	-0.1318221697	 1.4876814017	 0.0120323462	-0.486753
C	 0.0323834234	-0.015331898	 0.000615666	 0.296086
O	 1.1105530538	-0.5708672745	-0.005285968	-0.296909
C	-1.2066420437	-0.8302769946	-0.0039643056	 0.364723
C	-1.3863295539	-2.1790078265	-0.0312270187	-0.395829
C	-2.803088795	-2.3261105004	-0.0247274871	 0.425393
N	-3.5242579611	-3.4993602623	-0.1159877636	-0.59088
N	-3.4135249629	-1.1540606884	 0.0133898781	-0.214204
O	-2.3966495665	-0.2022209401	 0.0157157189	-0.220769
H	 0.852385631	 1.9560420519	 0.0158108618	 0.143827
H	-0.7026961497	 1.814117474	-0.8634951209	 0.155041
H	-0.7036063644	 1.8011084549	 0.8916780747	 0.15426
H	-0.6230932441	-2.9377738983	-0.0624315109	 0.141223
H	-3.1070278023	-4.2901156698	 0.3518671093	 0.260257
H	-4.502221295	-3.3891502796	 0.1147909298	 0.264535
70.3626	118.7123	149.1178	157.5063	294.2939	335.2588	347.4992	406.6476	501.1016	546.821	607.7019	622.7565	686.3527	726.0183	743.1527	841.702	937.9808	960.2497	1003.8882	1025.1758	1045.0737	1099.1581	1137.6469	1239.4233	1307.3912	1386.8443	1458.9456	1468.9486	1485.3388	1529.2029	1633.2268	1661.2071	1785.1627	3046.1838	3108.2776	3161.8483	3287.0356	3565.4377	3668.0106
CC(=O)C1=CC(N)=NO1	CC(=O)c1cc(N)no1	
InChI=1S/C5H6N2O2/c1-3(8)4-2-5(6)7-9-4/h2H,1H3,(H2,6,7)	InChI=1S/C5H6N2O2/c1-3(8)4-2-5(6)7-9-4/h2H,1H3,(H2,6,7)
