19
gdb 114281	3.05484	1.33468	1.19204	2.1652	78.92	-0.2238	0.0096	0.2335	1129.6472	0.158968	-422.975798	-422.967499	-422.966555	-423.008994	31.	
C	 0.1575144997	 1.1870442422	 0.2338671825	-0.234248
O	-0.2461834818	-0.0751899759	-0.2488697497	-0.226811
C	 0.5434480522	-0.5547211438	-1.2945565971	 0.077852
C	 1.8981358164	-1.2419834239	-0.8197320362	-0.358098
C	 1.0807443527	-2.5144946027	-0.7917978304	 0.217783
C	 0.5195068987	-3.3707224858	 0.0519446868	-0.224596
C	-0.9236348934	-3.5707759964	-0.3834925086	-0.101595
O	-1.1780894508	-2.5608659242	-1.3811588556	-0.273108
C	 0.0550826331	-1.995353148	-1.7428400036	 0.088601
H	 1.1724069641	 1.1661472218	 0.65815439	 0.105389
H	 0.1323313228	 1.9499005704	-0.5597346404	 0.107034
H	-0.5460788787	 1.4703251059	 1.0201081757	 0.130804
H	 0.6492387348	 0.1939351293	-2.0937509116	 0.063729
H	 2.6601283612	-1.2051570101	-1.6040288626	 0.113099
H	 2.3286639303	-0.9001908935	 0.1232568611	 0.117809
H	 0.9054228023	-3.7472420779	 0.9907515802	 0.102233
H	-1.1351968055	-4.5645639788	-0.8086466469	 0.102488
H	-1.610631637	-3.4193156655	 0.4601514124	 0.114462
H	 0.2504138789	-2.1312967129	-2.8161117461	 0.077173
76.7129	113.0521	169.378	196.6703	230.1704	307.9404	349.2994	422.1908	544.5368	671.0362	735.3447	757.0722	786.3814	817.6995	853.4016	919.3453	950.5485	960.3389	979.1005	1027.6495	1028.357	1094.0673	1112.5464	1135.429	1154.6702	1182.4909	1184.2914	1192.9642	1225.6368	1245.7803	1251.5289	1303.1186	1345.34	1370.5532	1386.301	1468.2035	1482.4941	1488.2573	1508.5831	1514.3133	1730.2516	2975.6327	2977.7511	2986.6739	3002.5536	3024.4479	3024.9626	3059.6981	3117.5873	3122.1952	3214.2686
COC1CC2=CCOC12	CO[C@H]1C[C]2[CH]CO[C@@H]12	
InChI=1S/C7H10O2/c1-8-6-4-5-2-3-9-7(5)6/h2,6-7H,3-4H2,1H3	InChI=1S/C7H10O2/c1-8-6-4-5-2-3-9-7(5)6/h2,6-7H,3-4H2,1H3/t6-,7+/m0/s1
