15
gdb 48468	2.23765	1.64846	1.24745	3.1775	73.26	-0.2321	-0.0329	0.1992	1031.764	0.111582	-416.783347	-416.774903	-416.773958	-416.816725	30.781	
O	-0.4855241712	 0.6806012823	 0.6636059913	-0.247364
C	 0.3432357255	 0.8945263106	-0.1779334967	 0.151296
C	 1.4494606152	 1.9728315619	-0.0617462482	 0.024533
C	 1.4533457722	 2.6378892563	 1.349046765	-0.238983
N	 2.562697894	 1.9226169855	 1.9864686802	-0.291657
C	 3.2481005944	 1.2608919161	 1.0025280201	 0.070295
N	 2.7290523668	 1.212186492	-0.1697692991	-0.293672
C	 1.2711560727	 2.9128950796	-1.1607142532	 0.286181
C	 1.0661483336	 3.6738381461	-2.0683174603	-0.434406
H	 0.4131765126	 0.3105942144	-1.1160200097	 0.113308
H	 1.6424737534	 3.7138256563	 1.2845937625	 0.120416
H	 0.5055975775	 2.4553986246	 1.8606611095	 0.148929
H	 3.0472294878	 2.3213850446	 2.7747976702	 0.253413
H	 4.185143276	 0.7683210138	 1.2468555794	 0.134969
H	 0.9065627095	 4.3512773059	-2.8707567311	 0.202743
77.2884	90.3332	161.0701	176.5732	273.7428	331.9436	408.5529	472.3104	490.4801	530.3102	566.2225	632.394	651.7149	659.7564	799.5131	882.5084	918.8651	955.5936	971.5771	1013.3742	1056.5036	1122.4898	1149.8178	1175.0921	1238.0089	1308.6572	1336.0798	1398.7511	1451.9079	1514.012	1663.0227	1832.5519	2234.1291	2952.3405	3050.199	3110.5378	3186.1089	3499.6013	3634.9469
O=CC1(CNC=N1)C#C	O=C[C@]1(CN[CH][N]1)C#C	
InChI=1S/C6H6N2O/c1-2-6(4-9)3-7-5-8-6/h1,4-5H,3H2,(H,7,8)	InChI=1S/C6H6N2O/c1-2-6(4-9)3-7-5-8-6/h1,4-5H,3H2,(H,7,8)/t6-/m1/s1
