18
gdb 116756	4.77351	0.68046	0.60225	2.2512	73.7	-0.2401	0.009	0.2491	1819.0623	0.144064	-476.239483	-476.228535	-476.227591	-476.278923	34.981	
C	-0.4619047796	 1.0169291286	 0.0929700339	-0.249595
O	 0.6652123401	 0.1521286951	 0.1648302581	-0.194136
C	 0.5571799006	-0.8590071737	 1.0529230753	 0.122747
N	 1.5206441702	-1.66310497	 1.1678656539	-0.25379
C	 1.5216620036	-2.7758768004	 2.077679674	-0.249506
C	 0.3327858483	-3.0701345246	 2.9905033836	 0.415216
O	-0.7063130854	-2.46209531	 3.0792349654	-0.35894
O	 0.6107957107	-4.163278233	 3.7292859171	-0.226471
C	-0.4155109443	-4.5711929638	 4.6432029622	-0.239736
H	-0.6503780598	 1.5142212016	 1.0521928154	 0.127642
H	-0.2233280183	 1.7706602521	-0.6585106083	 0.142535
H	-1.365443406	 0.4769495616	-0.2152044525	 0.127633
H	-0.3818760878	-0.8912307307	 1.608701803	 0.127204
H	 1.7057090435	-3.6968558948	 1.5073939422	 0.145501
H	 2.3990903223	-2.6934106918	 2.7338677935	 0.145499
H	-0.6261280072	-3.7785357896	 5.3655740671	 0.141133
H	-1.3369381322	-4.8109319508	 4.1065526325	 0.141111
H	-0.0274871787	-5.4551726359	 5.1489771335	 0.135953
15.5733	33.7582	54.6308	114.4664	115.5201	143.3934	154.5473	217.1512	273.6995	329.1555	362.0386	444.9856	574.5779	607.9903	727.9786	894.2612	977.8529	1000.5931	1031.9321	1059.3502	1083.6924	1177.3891	1177.9557	1183.3137	1200.3157	1215.7311	1276.0684	1277.0485	1388.5595	1412.6444	1445.9313	1471.8939	1481.6107	1487.909	1494.7538	1497.0498	1501.5002	1768.7644	1817.4768	3014.1186	3018.9425	3035.9438	3052.0035	3077.321	3116.1136	3126.4219	3142.2861	3160.5769
COC=NCC(=O)OC	COC=NCC(=O)OC	
InChI=1S/C5H9NO3/c1-8-4-6-3-5(7)9-2/h4H,3H2,1-2H3	InChI=1S/C5H9NO3/c1-8-4-6-3-5(7)9-2/h4H,3H2,1-2H3
