15
gdb 43242	3.57467	1.69252	1.42797	4.0727	79.45	-0.2237	-0.0606	0.1631	898.2969	0.11423	-383.456248	-383.449972	-383.449028	-383.486703	25.778	
O	-0.0733490683	 0.0702300079	 0.41206572	-0.352025
C	-0.0432444312	 1.221211312	 0.0346050009	 0.387923
C	-1.2049885564	 2.1514109759	-0.1152344171	-0.223406
C	-0.6976609689	 3.3955452123	-0.3174821384	 0.095206
C	-0.7301299405	 4.438929751	 0.7249899292	-0.150477
C	 0.5213580766	 4.4088782295	 1.2427989339	-0.059943
C	 1.4557373327	 3.6216822068	 0.3916330811	-0.081474
C	 1.1828334516	 2.0685578555	-0.2050932081	-0.174758
C	 0.7256724139	 3.3206054283	-0.8518960032	-0.131695
H	-2.1500091746	 1.9211441258	 0.3635527996	 0.118401
H	-1.6131109765	 4.8561499387	 1.1892594473	 0.125085
H	 0.815150147	 4.8612019059	 2.1822847602	 0.117668
H	 2.5175790761	 3.8393018087	 0.4049749048	 0.108388
H	 2.116619445	 1.5782781828	-0.4571299892	 0.112194
H	 0.9824143135	 3.6473584288	-1.8551991609	 0.108915
131.5632	279.3229	348.1562	383.3796	492.7726	564.7859	620.6269	675.2137	726.7951	749.7323	761.0716	814.9402	818.6997	855.2555	889.4707	895.2966	918.1525	951.1244	995.0145	1065.2314	1083.3585	1113.2598	1117.9985	1129.8831	1176.2657	1235.859	1285.7278	1300.673	1343.1094	1362.3967	1550.8387	1552.5512	1782.6478	3150.2663	3181.0427	3190.6693	3202.2674	3207.9341	3237.9263
O=C1C=C2C=CC3C1C23	O=C1[CH][C]2C=C[C@H]3[C@@H]1[C@@H]23	
InChI=1S/C8H6O/c9-6-3-4-1-2-5-7(4)8(5)6/h1-3,5,7-8H	InChI=1S/C8H6O/c9-6-3-4-1-2-5-7(4)8(5)6/h1-3,5,7-8H/t5-,7+,8+/m1/s1
