13
gdb 124050	3.77018	1.68205	1.17394	5.4758	67.38	-0.2487	-0.0589	0.1899	947.414	0.091276	-452.706242	-452.699887	-452.698943	-452.737529	24.052	
C	 0.0115429792	 1.48921687	 0.1284546395	-0.128877
O	 1.2319551776	 2.1771106479	-0.2246647863	-0.26845
C	 2.1060939912	 1.4962361078	-0.9673185936	 0.389879
N	 3.1582248142	 2.0103855025	-1.5307039686	-0.193396
O	 3.7740363	 0.9257155254	-2.1429016025	-0.163327
N	 3.0801175121	-0.240892359	-1.9400912691	-0.184044
C	 2.0494412771	 0.0924159826	-1.2157654651	 0.255164
C	 0.9656103394	-0.6919013387	-0.6718018346	-0.151029
C	 0.0155602388	-0.0093267751	-0.0231988831	-0.103929
H	-0.1876515144	 1.7642008345	 1.1698971774	 0.14584
H	-0.8001965336	 1.9204745405	-0.4764993594	 0.141852
H	 0.9455086052	-1.7682033151	-0.787605158	 0.133572
H	-0.8404441467	-0.5131594933	 0.4150635635	 0.126744
63.8467	199.2286	329.2381	434.7481	468.6598	512.9101	599.6166	612.2262	707.7352	726.9259	811.1875	846.3784	897.9891	902.794	930.6374	995.1512	1024.1295	1030.785	1081.9528	1185.285	1261.0173	1276.215	1389.3672	1406.8726	1475.8441	1496.9643	1578.8066	1653.9363	1701.7969	2996.2183	3063.1736	3183.7122	3219.9884
C1OC2=NON=C2C=C1	C1Oc2nonc2C=C1	
InChI=1S/C5H4N2O2/c1-2-4-5(8-3-1)7-9-6-4/h1-2H,3H2	InChI=1S/C5H4N2O2/c1-2-4-5(8-3-1)7-9-6-4/h1-2H,3H2
