22
gdb 59083	2.37644	1.18598	0.93702	3.7595	84.16	-0.2438	0.0113	0.2551	1359.8386	0.191769	-404.355926	-404.345422	-404.344478	-404.39139	37.904	
C	 0.7766149581	 0.1139186723	-0.8855269554	-0.388944
C	-0.1400217413	 0.1762742749	 0.3463004104	 0.007847
C	-0.1822353519	 1.5984915596	 0.9279689486	-0.395848
C	-1.5358520449	-0.2958566581	-0.0260471585	-0.020342
C	-1.943024112	-1.7544456588	-0.0984697197	-0.017549
C	-1.0175601015	-2.9046727059	 0.2271595111	-0.410064
N	-2.4476719233	-0.8827652393	 0.9388944247	-0.074979
C	-2.3524012955	-1.0312374648	 2.3002562519	 0.136458
O	-2.5039842194	-2.072805629	 2.8979501451	-0.311876
H	 1.7821367806	 0.4685991599	-0.6388875499	 0.118259
H	 0.861490578	-0.9057599482	-1.2722629053	 0.121466
H	 0.391283613	 0.7478317299	-1.6927333858	 0.117922
H	 0.2629999163	-0.4939261628	 1.1147729377	 0.08429
H	-0.8012504762	 1.6508102997	 1.8285910379	 0.122089
H	 0.8239228962	 1.9396059299	 1.1912231072	 0.118041
H	-0.5938189545	 2.3062771316	 0.1990671143	 0.118073
H	-2.0319848457	 0.3704075285	-0.7349820642	 0.094976
H	-2.6916951969	-1.996549502	-0.8530517204	 0.099973
H	-0.2229592291	-2.6190481585	 0.9188134414	 0.129711
H	-1.5800836751	-3.7158603085	 0.6962640887	 0.151309
H	-0.5594899874	-3.2856272522	-0.6913310152	 0.119128
H	-2.2020579775	-0.0608351381	 2.8128336353	 0.080059
69.5088	99.3003	144.7094	152.6815	177.7409	215.7268	236.6602	252.8107	268.1168	328.4453	387.3414	395.1458	499.4211	549.4084	654.895	788.3143	818.3003	853.6407	923.3847	932.1588	967.6644	1003.7267	1030.6841	1064.2474	1073.8948	1114.9941	1148.2829	1168.7053	1183.3331	1193.5225	1212.1756	1310.3975	1340.8002	1384.1201	1397.9552	1401.1479	1416.6622	1422.2936	1426.5853	1464.9822	1484.0136	1487.7833	1490.6921	1497.0512	1504.5525	1511.5158	1783.0968	2938.2567	3029.6984	3032.4786	3036.9933	3048.6475	3081.3396	3095.381	3101.3853	3102.6609	3109.3614	3112.035	3118.159	3137.8234
CC(C)C1C(C)N1C=O	CC(C)[C@H]1[C@@H](C)N1C=O	
InChI=1S/C7H13NO/c1-5(2)7-6(3)8(7)4-9/h4-7H,1-3H3	InChI=1S/C7H13NO/c1-5(2)7-6(3)8(7)4-9/h4-7H,1-3H3/t6-,7+,8?/m1/s1
