17
gdb 61121	2.07258	1.32366	1.0195	1.4111	75.11	-0.2611	-0.0658	0.1953	1215.3565	0.130513	-421.810481	-421.800214	-421.79927	-421.846563	35.653	
C	-0.3676214189	 1.6086512636	-0.1598054062	-0.435242
C	-0.0657782482	 0.1045087173	-0.0255008349	 0.05727
C	 0.8164749675	-0.2453220757	 1.1919735638	-0.405065
C	 0.169477362	 0.0649917102	 2.4608830352	 0.280581
C	-0.393758424	 0.3245018838	 3.4907634794	-0.420424
C	-1.3803401461	-0.688788301	 0.0251284809	 0.143465
O	-2.3770192669	-0.3691254776	-0.5666123945	-0.24995
C	 0.6305731391	-0.3489116716	-1.3168001576	 0.130842
O	 1.6756212668	-0.9410106822	-1.3548051185	-0.240007
H	 0.5498644801	 2.1750126797	-0.345748425	 0.126241
H	-1.0685558447	 1.7816808427	-0.9786310022	 0.147605
H	-0.8213524183	 1.9770568687	 0.7633703186	 0.150302
H	 1.0764488899	-1.3094138143	 1.1505924123	 0.149615
H	 1.7681069432	 0.2904031175	 1.1064560925	 0.147746
H	-0.875956641	 0.5466202336	 4.4106414647	 0.202227
H	-1.3342417214	-1.6221163744	 0.6261823492	 0.102639
H	 0.0776333408	-0.0709674404	-2.2394661575	 0.112154
40.1726	77.8758	89.7836	124.6603	201.9975	230.4045	261.3746	303.7393	338.0728	343.4799	362.4424	447.2676	609.2297	634.1949	647.8229	660.7368	768.5079	870.4377	886.0014	947.3585	977.474	983.5387	1043.1477	1134.1943	1158.0639	1214.5622	1280.6389	1335.474	1391.9718	1412.7063	1420.325	1462.2789	1489.8959	1501.0281	1803.7296	1840.0908	2237.7627	2904.2836	2909.6769	3044.1117	3049.5815	3076.8265	3124.7041	3142.9351	3504.1373
CC(CC#C)(C=O)C=O	CC(CC#C)(C=O)C=O	
InChI=1S/C7H8O2/c1-3-4-7(2,5-8)6-9/h1,5-6H,4H2,2H3	InChI=1S/C7H8O2/c1-3-4-7(2,5-8)6-9/h1,5-6H,4H2,2H3
