20
gdb 10615	2.89586	1.62509	1.26976	1.4047	72.1	-0.2406	0.0702	0.3108	1051.7918	0.174449	-386.111123	-386.101426	-386.100482	-386.145242	34.861	
C	 0.5164375561	 0.9544904243	 0.3460489424	-0.245129
O	-0.0504254887	-0.2890387465	 0.7337231308	-0.294831
C	-1.3408728486	-0.5420386076	 0.2567604444	 0.436848
C	-2.44853275	 0.1571378966	 1.007434168	-0.142965
O	-2.4805782392	 1.5350371923	 0.6414765246	-0.41876
C	-1.5137786181	-0.8222528653	-1.2189228346	-0.344771
C	-1.5801500271	-1.9564023088	-0.216401461	-0.062219
C	-0.4797914094	-2.9912474087	-0.1535294195	-0.401054
H	 1.5369517687	 0.9628056531	 0.7378144239	 0.1147
H	 0.5532237869	 1.0559391946	-0.7474686831	 0.103584
H	-0.0445787827	 1.8016433643	 0.7517377781	 0.127242
H	-3.4079378362	-0.3291058199	 0.7726928463	 0.082771
H	-2.2634612011	 0.039288913	 2.0856514846	 0.095727
H	-3.0934791579	 1.9847649982	 1.2309658249	 0.286355
H	-2.4198595652	-0.4844615031	-1.7095595949	 0.114588
H	-0.6206328723	-0.7654420731	-1.8320379707	 0.113916
H	-2.5752883236	-2.3458304553	-0.0148423323	 0.079427
H	 0.4991013116	-2.5243962343	-0.2800432726	 0.128334
H	-0.4774527008	-3.506788078	 0.8129731397	 0.115206
H	-0.6107253624	-3.7460246359	-0.9364426891	 0.111029
83.0935	110.7777	158.646	171.1682	192.83	216.7324	254.1524	274.3419	335.9471	381.7997	414.425	471.4337	594.0947	707.4171	825.1741	888.8075	921.2701	938.134	963.0624	1019.7326	1046.7638	1060.8463	1098.6285	1115.2114	1141.0865	1185.9957	1190.1038	1217.0634	1242.0907	1248.0493	1268.2625	1331.6347	1401.1833	1420.9501	1461.3674	1475.1145	1482.4369	1485.1398	1493.5744	1502.0605	1504.2922	1516.7769	2975.4397	3006.9023	3014.7937	3034.9212	3082.3938	3091.3542	3119.718	3121.6747	3133.4025	3138.5811	3220.2785	3823.1993
COC1(CO)CC1C	CO[C@@]1(CO)C[C@H]1C	
InChI=1S/C6H12O2/c1-5-3-6(5,4-7)8-2/h5,7H,3-4H2,1-2H3	InChI=1S/C6H12O2/c1-5-3-6(5,4-7)8-2/h5,7H,3-4H2,1-2H3/t5-,6-/m1/s1
