13
gdb 20667	3.44641	1.99392	1.27307	6.2987	66.27	-0.2629	-0.0278	0.2351	885.6444	0.097532	-357.686524	-357.679372	-357.678427	-357.718595	25.242	
C	-0.0345474285	 1.5256009158	 0.0261802108	-0.514773
C	-0.0107519382	 0.0310052595	-0.0078528368	 0.13384
C	-0.0255591174	-0.8089578044	-1.0998597148	-0.099864
N	 0.009584966	-2.0801961629	-0.619696891	-0.183304
N	 0.0461190255	-2.1493735083	 0.7107327173	-0.275801
C	 0.034379111	-0.8666166518	 1.0959550451	 0.182929
C	 0.0649908163	-0.5113053702	 2.472705084	 0.239652
N	 0.0871996308	-0.1641449647	 3.5766605773	-0.345619
H	 0.8632165354	 1.9286748046	 0.5065918582	 0.148985
H	-0.0908959631	 1.9410873349	-0.9829794152	 0.128919
H	-0.8942875252	 1.8981532006	 0.5927246685	 0.149325
H	-0.0578127459	-0.6002816578	-2.157542945	 0.148089
H	 0.0099971233	-2.9378510651	-1.1471575983	 0.287621
51.681	138.8289	177.4127	270.9132	320.9864	518.8067	549.6587	561.6315	596.2716	669.9081	698.9508	743.688	793.39	952.956	1011.192	1067.8809	1094.1845	1154.0731	1249.2845	1324.5155	1375.3693	1424.268	1448.0735	1482.3952	1489.4791	1507.2798	1601.1572	2353.319	3039.7351	3094.1962	3120.8725	3264.6176	3664.7849
CC1=CNN=C1C#N	Cc1c[nH]nc1C#N	
InChI=1S/C5H5N3/c1-4-3-7-8-5(4)2-6/h3H,1H3,(H,7,8)	InChI=1S/C5H5N3/c1-4-3-7-8-5(4)2-6/h3H,1H3,(H,7,8)
