17
gdb 72554	2.38668	2.04333	1.519	4.2134	67.28	-0.2493	0.0047	0.2541	922.5891	0.137136	-459.009321	-459.002047	-459.001102	-459.040732	28.758	
C	 0.0337623355	 1.5015624153	 0.0849604188	-0.479902
C	 0.0166830588	 0.0049215201	-0.0530672644	 0.255677
C	 0.6601838351	-0.7110600042	-1.2483854818	-0.285666
C	 0.2819723689	-2.0819600095	-0.6661058238	 0.056374
C	 0.9068631754	-1.9907401943	 0.7282273855	-0.0839
O	 0.6838575038	-0.6149926724	 1.0803985614	-0.309842
O	-1.1519690163	-1.9571008327	-0.4724429208	-0.246438
C	-1.375326623	-0.6600968106	-0.0778831175	 0.451415
O	-2.4520000434	-0.2293076336	 0.2039575713	-0.351656
H	 1.0615851939	 1.8643475237	 0.164908193	 0.127194
H	-0.4440353924	 1.9682390241	-0.7803882414	 0.131934
H	-0.5190543151	 1.7993741484	 0.9791730236	 0.150794
H	 0.1696606025	-0.5107011452	-2.2030622203	 0.125341
H	 1.7357262435	-0.5373944126	-1.3208551305	 0.118981
H	 0.4802000035	-2.9822279467	-1.243091665	 0.104232
H	 0.4028293635	-2.6511257778	 1.4410101636	 0.124633
H	 1.9812034858	-2.2105319919	 0.7223014584	 0.110825
153.5579	187.5619	233.0943	281.4082	320.9428	423.0401	446.2824	526.4798	587.3235	645.5186	738.7003	743.4177	834.2705	850.5382	891.8669	898.5067	950.8445	965.1509	981.3408	1026.4456	1061.5854	1080.0044	1113.1185	1153.5191	1197.3939	1223.4034	1236.6384	1290.9712	1328.3578	1360.339	1368.301	1422.383	1479.4156	1482.0904	1489.7632	1514.4292	1900.3058	3030.8522	3054.2364	3077.3867	3084.9753	3130.346	3134.4507	3140.1288	3155.1981
CC12CC(CO1)OC2=O	C[C@@]12C[C@@H](CO1)OC2=O	
InChI=1S/C6H8O3/c1-6-2-4(3-8-6)9-5(6)7/h4H,2-3H2,1H3	InChI=1S/C6H8O3/c1-6-2-4(3-8-6)9-5(6)7/h4H,2-3H2,1H3/t4-,6-/m0/s1
