18
gdb 37747	3.48088	1.89672	1.48464	2.2505	74.49	-0.2301	0.0706	0.3007	897.25	0.15056	-401.841219	-401.83502	-401.834076	-401.871397	26.465	
C	-0.0376643411	 1.5565223312	 0.0074897625	-0.264787
N	 1.4703945936	 1.2468274736	 0.0055245823	-0.183188
C	 1.186591951	 0.021944329	 0.9062088423	-0.04904
C	 1.8688251447	-0.9769613453	-0.0275697123	 0.11476
O	 1.2750752969	-2.2657190389	-0.0071147396	-0.287552
C	-0.0610800051	-2.3264487478	-0.5138321499	-0.05693
C	-0.9791009932	-1.1679601976	-0.0392696823	-0.37573
C	-0.0618408552	 0.0285013371	-0.0228632457	 0.311518
C	 1.2010561003	 0.0573445018	-0.9462327917	-0.088612
H	-0.3737685677	 2.0634553662	 0.9182692372	 0.103737
H	-0.3725147827	 2.1012743906	-0.8818457508	 0.101948
H	 1.2006987823	 0.1035330398	 1.9943964027	 0.079627
H	 2.9538142751	-1.1007811519	-0.0150843251	 0.087556
H	-0.0269595153	-2.306370572	-1.6134593045	 0.099438
H	-0.4483468045	-3.3012357191	-0.2083083726	 0.1124
H	-1.818810211	-1.0679937345	-0.7363080603	 0.105567
H	-1.392117932	-1.3592012884	 0.9575749253	 0.108538
H	 1.242849354	 0.1956616565	-2.0279612874	 0.080751
219.1934	259.3273	374.7944	386.5284	470.5133	503.3446	569.1791	694.5875	752.3038	811.2917	843.5449	856.0658	873.8874	877.1477	901.7354	922.3476	936.6622	981.3209	1032.9463	1056.4314	1074.9876	1091.7396	1096.4538	1138.6805	1143.4776	1179.7639	1193.1692	1215.6125	1241.9713	1248.7139	1269.5962	1282.4522	1320.3896	1357.4127	1367.2996	1410.7767	1483.9853	1504.3704	1519.8489	2989.1284	3032.4954	3034.909	3077.093	3089.2938	3094.0189	3098.3253	3100.5106	3108.7451
C1N2C3C4OCCC13C24	C1N2[C@@H]3[C@H]4OCC[C@@]13[C@@H]24	
InChI=1S/C7H9NO/c1-2-9-4-5-7(1)3-8(5)6(4)7/h4-6H,1-3H2	InChI=1S/C7H9NO/c1-2-9-4-5-7(1)3-8(5)6(4)7/h4-6H,1-3H2/t4-,5-,6+,7-
