17
gdb 133103	2.77645	1.41518	1.01006	2.3553	77.57	-0.2538	-0.0264	0.2274	1164.3369	0.136927	-426.040653	-426.032723	-426.031779	-426.073552	29.714	
C	 0.0399721334	 1.5652548066	-0.099184391	-0.376048
C	 0.0036997228	 0.0358364054	 0.0718945093	-0.296596
C	-1.3981185976	-0.5190528813	 0.0753541081	 0.168911
C	-2.0452787426	-0.9657171553	 1.227678771	-0.19626
C	-3.3479211512	-1.4516559032	 1.15248905	 0.004719
N	-4.0452714913	-1.5249646345	 0.0163281159	-0.269585
C	-3.4408133121	-1.1033224957	-1.0961415008	-0.085566
C	-2.1464686208	-0.6053949466	-1.0959007874	 0.189572
F	-1.6023478621	-0.1980557126	-2.2524950841	-0.081242
H	 1.0720107838	 1.9278773243	-0.0876701093	 0.119453
H	-0.4137428754	 1.8591975235	-1.0492252044	 0.135537
H	-0.5057544008	 2.0638321879	 0.7076499526	 0.122878
H	 0.5723673913	-0.4278500028	-0.7417855582	 0.122461
H	 0.4979054149	-0.2448011609	 1.0075248411	 0.108325
H	-1.5297939951	-0.9369973553	 2.1826473921	 0.102096
H	-3.8533369222	-1.8007337065	 2.0491828613	 0.110353
H	-3.993889625	-1.158464283	-2.0301092062	 0.120991
63.3079	129.7178	211.4856	229.397	294.5797	343.1886	422.8339	477.9137	541.361	594.9787	615.1219	753.7625	773.3102	794.4187	856.5392	861.6925	946.5083	979.0308	983.7787	1052.2601	1084.5909	1099.8124	1193.0016	1226.55	1261.1627	1290.6051	1300.6895	1329.0979	1356.0454	1405.7454	1449.3965	1485.1226	1497.6744	1509.8339	1525.4464	1608.6009	1639.6323	3041.4046	3043.7639	3081.1967	3114.1331	3126.4604	3159.2864	3166.7994	3182.9433
CCC1=CC=NC=C1F	CCc1ccncc1F	
InChI=1S/C7H8FN/c1-2-6-3-4-9-5-7(6)8/h3-5H,2H2,1H3	InChI=1S/C7H8FN/c1-2-6-3-4-9-5-7(6)8/h3-5H,2H2,1H3
