19
gdb 47048	3.35488	1.30994	1.02291	3.0585	74.42	-0.2375	-0.0176	0.2198	1156.1589	0.160888	-423.041568	-423.033818	-423.032874	-423.074647	29.778	
O	 0.0214688068	 0.5812757174	-1.2785316878	-0.306478
C	-0.0628432595	 1.2694768285	-0.2899708925	 0.386313
C	-1.385608983	 1.923273961	 0.1242582624	-0.303011
C	-1.3165276225	 2.6321982853	 1.4843066886	-0.245378
C	-0.1632614986	 3.6358072546	 1.4802780801	-0.045593
C	 0.5563861159	 3.9200445147	 2.8147859174	-0.096955
O	 1.7307427692	 3.1944643355	 2.3896090056	-0.291498
C	 1.1904986346	 3.0032957451	 1.0620565173	 0.125035
C	 1.1268027357	 1.5372344359	 0.6281060857	-0.330222
H	-1.645303078	 2.6383615362	-0.66793424	 0.132329
H	-2.1626759849	 1.1525232142	 0.0977469851	 0.132169
H	-2.2667467335	 3.127544323	 1.7087214327	 0.106115
H	-1.160197041	 1.8904554613	 2.2772929534	 0.108318
H	-0.4349563695	 4.5266173179	 0.9082293433	 0.079818
H	 0.7780703455	 4.9767548863	 3.0104220574	 0.102295
H	 0.1044267961	 3.4801885689	 3.712662035	 0.102476
H	 1.7519572654	 3.5934874759	 0.3264830149	 0.086161
H	 0.9839278609	 0.9310794652	 1.5327755729	 0.133503
H	 2.0406620505	 1.194107613	 0.1397030984	 0.124602
43.9652	93.0061	210.3438	322.8219	359.8218	388.4408	429.268	507.0993	546.8799	581.9152	734.5091	765.1655	802.5698	856.7288	895.3135	919.1361	979.5497	980.3245	1021.2944	1036.8494	1054.9224	1084.7885	1115.8287	1131.4248	1163.1151	1200.8537	1220.3157	1235.9537	1264.713	1272.9315	1303.1389	1335.8583	1340.7305	1370.0738	1378.1075	1389.0045	1445.4255	1463.6083	1502.3245	1526.7146	1817.6296	3009.3431	3016.5816	3027.6803	3031.7762	3035.9419	3051.271	3067.3307	3082.9936	3086.6117	3119.6135
O=C1CCC2COC2C1	O=C1CC[C@H]2CO[C@H]2C1	
InChI=1S/C7H10O2/c8-6-2-1-5-4-9-7(5)3-6/h5,7H,1-4H2	InChI=1S/C7H10O2/c8-6-2-1-5-4-9-7(5)3-6/h5,7H,1-4H2/t5-,7-/m0/s1
