21
gdb 77605	1.83936	1.66008	1.63584	1.3309	83.62	-0.222	0.0211	0.2431	1072.6	0.181296	-387.093197	-387.08394	-387.082996	-387.12622	36.098	
C	-0.1045414058	 1.5390742634	-0.000770134	-0.423059
C	 0.0809423311	 0.039639802	 0.0470240363	-0.116874
C	 1.3901651342	-0.6754374693	-0.1852058078	 0.33496
O	 1.4023432251	-1.8234960104	-0.9850860002	-0.470857
C	 2.7006762326	 0.1086223041	-0.0541919975	-0.344559
C	 2.7273283247	 0.5185621834	 1.4011838303	-0.077152
C	 1.6697878114	 0.0489900452	 2.0683069131	-0.132955
C	 0.7489089888	-0.7395312043	 1.1941941197	 0.245787
C	 0.077249223	-1.9792989045	 1.7361089533	-0.482861
H	 0.7100240294	 2.0658129534	 0.5020025999	 0.125469
H	-0.149055256	 1.8970319441	-1.0361861748	 0.109133
H	-1.04032026	 1.8317179728	 0.4882530625	 0.115231
H	-0.7553011759	-0.5203954965	-0.3696561195	 0.080144
H	 1.1803240402	-1.5641632705	-1.885447913	 0.280648
H	 3.5451164548	-0.5426281816	-0.3149611014	 0.115455
H	 2.7487871128	 0.9735594223	-0.7294893957	 0.102703
H	 3.5162835374	 1.131970414	 1.821619781	 0.092888
H	 1.4726894109	 0.2075952458	 3.1234544365	 0.089828
H	-0.711379637	-1.7266213702	 2.4543374725	 0.110737
H	-0.3717064144	-2.5585066579	 0.9250611813	 0.126847
H	 0.7986650729	-2.6276702852	 2.2454470676	 0.118485
167.5865	175.8822	196.2696	203.6367	214.9385	227.0523	271.9101	303.9335	393.4218	427.7164	515.1398	549.3821	572.2741	671.9206	706.3473	757.837	764.6946	840.0162	927.2566	955.0267	956.989	982.6432	985.6191	1024.9296	1088.0538	1109.4441	1115.7587	1120.8045	1143.3472	1191.486	1221.4438	1248.1007	1299.2107	1309.7048	1340.4072	1380.0592	1409.2408	1414.2558	1451.2837	1473.9924	1487.811	1497.3262	1499.9782	1503.0014	1666.4731	3014.1711	3026.8518	3028.1909	3045.6266	3081.3258	3084.8351	3109.664	3116.1337	3126.3975	3177.6767	3204.2894	3800.8934
CC1C2(O)CC=CC12C	C[C@H]1[C@@]2(O)CC=C[C@@]12C	
InChI=1S/C8H12O/c1-6-7(2)4-3-5-8(6,7)9/h3-4,6,9H,5H2,1-2H3	InChI=1S/C8H12O/c1-6-7(2)4-3-5-8(6,7)9/h3-4,6,9H,5H2,1-2H3/t6-,7+,8+/m1/s1
