25
gdb 123161	7.59184	0.45156	0.44317	0.8605	91.51	-0.2476	0.0923	0.3399	2582.1263	0.227449	-389.477374	-389.466312	-389.465367	-389.515094	39.156	
C	 0.024015897	 1.4665638295	-0.1351510364	-0.381939
C	-0.0488548689	-0.0474700646	 0.0762222346	-0.181439
C	-1.4633470485	-0.5905426388	-0.0769209458	-0.029558
O	-1.442153555	-1.9849946161	 0.133822157	-0.247642
C	-2.7107269791	-2.5907998616	 0.0168653223	-0.042771
C	-2.5610192311	-4.0890324557	 0.2585928104	-0.224982
C	-3.8800567183	-4.8256884276	 0.1746160394	 0.033811
C	-4.4232062407	-5.2736892013	-1.1612932007	-0.254726
C	-3.9179325589	-6.2923225101	-0.1689258548	-0.276714
H	 1.0490647672	 1.8309895019	-0.0215612859	 0.116278
H	-0.3182726344	 1.7472288089	-1.137469372	 0.115388
H	-0.6001611952	 2.0018756897	 0.589007023	 0.115418
H	 0.6006618477	-0.5636873566	-0.6400570216	 0.105331
H	 0.3176870524	-0.3107252456	 1.0750834983	 0.105515
H	-2.1409030382	-0.1025986157	 0.6465639638	 0.079396
H	-1.8551215571	-0.3596633371	-1.0837467239	 0.079573
H	-3.4138546204	-2.154223498	 0.7485312628	 0.079054
H	-3.1373992371	-2.4062822663	-0.9839465275	 0.085244
H	-1.8582609454	-4.4946504148	-0.4794237067	 0.099835
H	-2.1006309097	-4.2385256067	 1.2430689352	 0.104865
H	-4.6245798064	-4.4947432008	 0.8953978922	 0.079954
H	-5.4913038478	-5.2104423549	-1.3377259671	 0.109129
H	-3.8170992013	-5.0833237937	-2.041383993	 0.110152
H	-2.9754876843	-6.7852253473	-0.384558419	 0.111053
H	-4.6415151564	-6.9227274765	 0.3360288355	 0.109774
41.6404	57.9212	78.4038	101.993	136.964	157.3452	192.1498	232.8079	264.8455	336.9532	377.7941	478.082	500.5585	765.5893	775.9773	787.4673	827.7147	841.9784	901.8622	909.304	917.6238	965.8902	1011.3675	1039.3336	1057.9908	1065.1866	1076.4913	1088.7662	1140.9292	1156.4596	1162.1221	1184.412	1199.1662	1204.4415	1228.4228	1252.7275	1270.8777	1300.8511	1312.9718	1315.2392	1335.3083	1398.7373	1413.9783	1419.7822	1454.9972	1469.5586	1489.1655	1492.4153	1500.7961	1506.4775	1508.2613	1517.621	1537.4701	2934.5207	2948.4498	2961.7834	2971.6756	3027.4781	3031.6141	3038.8165	3067.2562	3071.0931	3099.4508	3107.2092	3127.599	3128.4045	3133.8362	3205.5096	3220.8401
CCCOCCC1CC1	CCCOCCC1CC1	
InChI=1S/C8H16O/c1-2-6-9-7-5-8-3-4-8/h8H,2-7H2,1H3	InChI=1S/C8H16O/c1-2-6-9-7-5-8-3-4-8/h8H,2-7H2,1H3
