13
gdb 21084	3.51631	2.50597	1.47663	3.828	63.68	-0.2535	-0.0835	0.17	786.906	0.097162	-394.80978	-394.803167	-394.802223	-394.840775	23.937	
C	-0.0324976001	 1.449493865	-0.0135478711	-0.313022
N	-0.0075604385	-0.0098884644	-0.0155061879	-0.046014
N	-0.0472794338	-0.6114598471	-1.1948372514	-0.152949
C	-0.0245176176	-1.9181348022	-1.1875268156	-0.02746
C	 0.0398475066	-2.6351110518	 0.0397287603	 0.011059
N	 0.0793181536	-2.0578088574	 1.2028435126	-0.306788
C	 0.0573058794	-0.6684773736	 1.2444750189	 0.468344
O	 0.0890908434	-0.0052864502	 2.2563498568	-0.371997
H	 0.8659332568	 1.8329949859	 0.4756573665	 0.160435
H	-0.0827237086	 1.7779722895	-1.0500723249	 0.149481
H	-0.8981871606	 1.8026857338	 0.5515965182	 0.160459
H	-0.0569254382	-2.4112440521	-2.1510734764	 0.135427
H	 0.0577549176	-3.7253245254	 0.021328114	 0.133024
100.6638	143.161	237.2391	332.1908	407.5272	526.7742	572.268	573.6033	603.7658	756.2948	808.3661	864.0467	934.9098	990.9896	1002.6468	1062.9661	1109.4056	1148.7802	1245.4	1291.3943	1401.3532	1412.2543	1443.8676	1469.8295	1501.4957	1549.1482	1644.2675	1801.7137	3062.3405	3127.417	3129.0921	3180.3757	3213.7239
CN1N=CC=NC1=O	Cn1nccnc1=O	
InChI=1S/C4H5N3O/c1-7-4(8)5-2-3-6-7/h2-3H,1H3	InChI=1S/C4H5N3O/c1-7-4(8)5-2-3-6-7/h2-3H,1H3
