18
gdb 91120	2.88699	1.83477	1.49109	1.2403	69.76	-0.2306	0.0637	0.2943	921.6707	0.150177	-439.054834	-439.047773	-439.046829	-439.086251	28.288	
O	 0.1173980207	 1.4039196601	-0.2579390285	-0.42754
C	 0.0438710172	 0.0110605075	-0.0637647128	 0.135735
C	 0.697162642	-0.5254672556	 1.23532353	-0.219839
N	-0.0231569098	-1.7735783799	 1.568345683	-0.118182
C	-1.3666221896	-1.62809862	 2.1682318103	-0.044497
C	-1.9625545619	-0.2511532037	 2.3711350815	-0.100766
O	-2.0754145613	 0.3477638083	 1.0824236595	-0.262302
C	-1.4136313414	-0.4549365227	 0.1043571332	 0.055156
C	-1.233517751	-1.8439601121	 0.7116887276	-0.082458
H	 1.0253254231	 1.6288051335	-0.4819201828	 0.287045
H	 0.4677825135	-0.5331921974	-0.9241138909	 0.067714
H	 1.7563777196	-0.7651879593	 1.1046197988	 0.100086
H	 0.6189434628	 0.2274007806	 2.0269733545	 0.115663
H	-1.6358712646	-2.4197723564	 2.860716097	 0.099887
H	-2.9608948171	-0.3352037185	 2.8200873787	 0.106765
H	-1.3534069921	 0.3849030301	 3.0297425997	 0.106684
H	-1.9907923595	-0.4125541555	-0.8217095552	 0.086146
H	-1.4535522207	-2.762472309	 0.1797271464	 0.094703
94.2127	230.9786	237.1809	283.2493	370.1238	447.0734	524.0522	591.0924	657.3544	740.6854	767.9089	800.0245	813.7172	864.073	913.4516	941.3654	960.3993	996.4739	1005.5133	1033.4375	1068.6146	1084.3618	1103.0578	1134.1705	1142.8587	1203.3976	1220.7785	1229.0971	1246.5309	1273.5542	1296.7786	1312.262	1343.7855	1357.1855	1362.2352	1404.8045	1440.4303	1504.0169	1529.8028	2964.4113	3000.3472	3034.8739	3045.2133	3088.2276	3096.0398	3156.7531	3175.8168	3828.1839
OC1CN2C3COC1C23	O[C@H]1CN2[C@H]3CO[C@@H]1[C@@H]23	
InChI=1S/C6H9NO2/c8-4-1-7-3-2-9-6(4)5(3)7/h3-6,8H,1-2H2	InChI=1S/C6H9NO2/c8-4-1-7-3-2-9-6(4)5(3)7/h3-6,8H,1-2H2/t3-,4-,5-,6-,7?/m0/s1
