19
gdb 88192	3.30428	1.2806	1.10697	2.603	79.21	-0.2257	0.016	0.2417	1150.7524	0.159656	-423.011764	-423.003621	-423.002677	-423.044274	32.151	
O	-0.0499302516	 1.375886616	-0.0270496075	-0.434156
C	 0.0276275961	-0.0112132304	 0.0242031892	 0.087153
C	-0.3513404019	-0.7593719743	 1.2798466115	-0.385294
C	-1.2606717218	-0.8002558451	 0.0477956758	 0.348409
O	-2.3733162612	 0.0569195177	 0.0824025295	-0.319271
C	-3.6067161254	-0.6329672483	 0.2661030881	-0.092823
C	-3.8773886462	-1.5786806613	-0.9058720081	-0.263021
C	-2.6481877333	-2.4012535	-1.1921254696	-0.098433
C	-1.4518528753	-2.0416248129	-0.7249582896	-0.098992
H	-0.9910442715	 1.5958079499	-0.0455351776	 0.298478
H	 0.847868845	-0.3994272618	-0.5737176526	 0.10114
H	 0.1993755813	-1.6534771727	 1.5528360623	 0.111683
H	-0.713253519	-0.158454349	 2.1071120388	 0.122976
H	-3.5776838237	-1.1988755839	 1.2088197378	 0.102166
H	-4.3748119196	 0.1397136322	 0.3510320625	 0.108353
H	-4.7284924738	-2.2269962579	-0.6616635126	 0.106697
H	-4.1728025842	-1.0039135848	-1.794314821	 0.118146
H	-2.7592222591	-3.3059198412	-1.7823609408	 0.092134
H	-0.5693019547	-2.6517684423	-0.8944208159	 0.094655
84.4169	165.6037	208.87	260.9317	312.7661	361.3406	372.359	465.3653	496.2223	508.4757	587.6152	674.9227	715.7133	791.5959	824.9929	876.2857	889.0997	926.6497	940.7128	987.0388	1005.4926	1007.916	1045.2707	1082.5918	1096.6386	1108.8952	1143.2962	1171.0024	1230.128	1256.8445	1291.4567	1297.8608	1355.812	1366.5213	1401.4872	1424.8704	1432.3521	1469.4237	1471.2533	1500.2801	1710.0499	2999.6646	3014.4829	3050.872	3098.3238	3127.6009	3143.3673	3160.4331	3181.6724	3226.2588	3757.7497
OC1CC11OCCC=C1	O[C@H]1C[C@]21OCCC=C2	
InChI=1S/C7H10O2/c8-6-5-7(6)3-1-2-4-9-7/h1,3,6,8H,2,4-5H2	InChI=1S/C7H10O2/c8-6-5-7(6)3-1-2-4-9-7/h1,3,6,8H,2,4-5H2/t6-,7+/m0/s1
