20
gdb 57901	3.37397	0.99677	0.82626	3.8693	77.6	-0.2539	-0.0075	0.2465	1433.6187	0.168695	-440.291652	-440.281637	-440.280693	-440.327406	36.165	
C	 0.0579079096	 1.5331669631	-0.2724751589	-0.400299
C	 0.019645825	 0.0509590928	 0.1176913814	 0.064127
O	 0.4827596737	-0.1013587084	 1.4351177015	-0.43847
C	-1.3729077922	-0.5891168581	 0.0104617404	 0.344289
O	-1.8692678982	-1.1282948885	 0.9831741114	-0.361638
N	-1.9466944902	-0.6524320484	-1.2461987927	-0.093741
C	-2.5464187431	 0.4407455252	-2.0027112034	-0.25632
C	-3.3772355134	-0.6882103683	-1.4668042377	 0.020657
C	-3.9242893107	-1.7763977764	-2.3568798138	-0.412256
H	 1.0581113604	 1.9191758474	-0.0599839141	 0.135945
H	-0.1484400579	 1.6812572167	-1.3355474306	 0.117428
H	-0.657830487	 2.1109990573	 0.320571851	 0.120899
H	 0.6661412239	-0.5084935191	-0.5792467992	 0.096245
H	-0.2035944447	-0.6200230242	 1.8856180029	 0.292254
H	-2.6293056579	 1.4086304062	-1.5170929171	 0.136443
H	-2.292996947	 0.4749191006	-3.0594501551	 0.127759
H	-3.9776134723	-0.453604467	-0.5893934066	 0.114796
H	-3.2507575417	-1.9648894208	-3.1974439108	 0.127192
H	-4.0406561416	-2.7088271751	-1.7961737884	 0.139462
H	-4.9048233347	-1.492300635	-2.7522836503	 0.125228
29.656	83.8248	132.6712	151.7581	211.3596	230.0809	272.5997	334.8231	353.3508	405.8581	407.7856	461.5906	516.2765	598.1463	696.189	784.068	830.849	884.8424	919.4481	936.8969	1018.6175	1048.408	1058.9762	1104.3549	1112.7522	1129.8525	1152.2784	1179.8739	1185.3979	1216.2573	1282.5661	1349.973	1366.9224	1402.9322	1408.8412	1439.0376	1454.3976	1485.3797	1495.7796	1498.3453	1499.5142	1516.4348	1753.0721	2964.314	3040.7156	3043.6536	3109.6035	3110.0442	3115.959	3119.3886	3128.4222	3136.7542	3201.6498	3675.8502
CC(O)C(=O)N1CC1C	C[C@@H](O)C(=O)N1C[C@H]1C	
InChI=1S/C6H11NO2/c1-4-3-7(4)6(9)5(2)8/h4-5,8H,3H2,1-2H3	InChI=1S/C6H11NO2/c1-4-3-7(4)6(9)5(2)8/h4-5,8H,3H2,1-2H3/t4-,5-,7?/m1/s1
