14
gdb 29494	3.36593	1.69771	1.13039	2.285	70.56	-0.1834	0.0044	0.1878	988.9647	0.104246	-432.893053	-432.885841	-432.884897	-432.924504	27.534	
N	 0.0291577597	 1.4563932456	 0.1722110008	-0.613698
C	 0.0387510978	 0.0557049339	 0.0431033696	 0.069791
C	-1.0492782655	-0.8077278185	 0.0002030599	-0.136094
N	-0.6215794527	-2.1381314739	-0.0317922514	-0.400988
C	 0.7393165215	-2.1174302451	-0.021803791	 0.322494
C	 1.1581588577	-0.8120296129	 0.0285716961	 0.28304
O	 2.5294052091	-0.82619248	 0.034983896	-0.218192
C	 2.8211207968	-2.165285723	-0.0112288584	 0.034507
N	 1.8081646105	-2.9817545504	-0.0462068199	-0.354855
H	 0.7497733676	 1.8955361909	-0.3880414174	 0.24719
H	-0.8655980919	 1.8555580431	-0.0826013496	 0.24125
H	-2.1011982002	-0.5721138259	 0.0039375621	 0.112004
H	-1.2191709769	-2.9436425945	-0.0609598278	 0.268023
H	 3.8691112265	-2.4186479394	-0.0138326392	 0.145531
158.8978	187.1965	241.3118	249.7077	269.6886	438.337	543.2058	574.6423	618.7486	625.7596	671.0758	695.3116	750.7538	782.2107	793.2246	822.8037	936.8404	1068.3325	1084.3458	1088.6623	1154.6455	1226.4964	1295.1924	1322.3835	1355.4676	1483.2554	1498.1044	1557.0243	1584.9584	1632.6579	1659.5583	3263.0706	3281.6795	3525.9067	3615.1625	3702.1157
NC1=CNC2=C1OC=N2	Nc1c[nH]c2c1ocn2	
InChI=1S/C5H5N3O/c6-3-1-7-5-4(3)9-2-8-5/h1-2,7H,6H2	InChI=1S/C5H5N3O/c6-3-1-7-5-4(3)9-2-8-5/h1-2,7H,6H2
