13
gdb 132679	3.11916	1.36669	0.95031	1.9283	65.05	-0.2163	-0.0266	0.1898	1106.0443	0.089385	-497.907516	-497.900228	-497.899284	-497.939134	28.076	
O	 0.0416830863	 1.3579077099	-0.1321069583	-0.442177
C	 0.0562377253	-0.0014749645	-0.0321947852	 0.350405
C	 0.0725507681	-0.7514485067	-1.2034034673	-0.070236
N	 0.0874807996	-2.088402017	-1.2022119064	-0.346398
C	 0.0870144653	-2.7412886645	-0.0544767529	 0.301505
O	 0.1021587547	-4.0927367629	-0.0599480906	-0.415744
C	 0.0711688625	-2.0652398851	 1.1716693719	 0.20106
F	 0.0711683328	-2.7543452849	 2.3116149025	-0.060532
C	 0.0556267067	-0.6856806624	 1.1882642322	-0.355815
H	 0.0316527073	 1.7459097731	 0.7483930745	 0.301597
H	 0.0734613927	-0.2498819336	-2.1658868257	 0.122339
H	 0.1113615522	-4.3503106999	-0.9916895184	 0.300239
H	 0.0433616466	-0.1662576715	 2.1412743537	 0.113756
145.864	236.904	288.289	289.2323	337.3183	396.2944	460.8205	482.2046	510.0007	511.8894	598.6476	632.8808	732.0335	762.4884	820.7978	884.3264	920.6182	1007.4357	1135.4594	1191.6616	1201.5713	1292.4775	1318.723	1353.797	1392.4808	1494.4308	1542.1158	1645.5992	1670.8653	3182.8955	3184.462	3778.8102	3831.884
OC1=CN=C(O)C(F)=C1	Oc1cnc(O)c(F)c1	
InChI=1S/C5H4FNO2/c6-4-1-3(8)2-7-5(4)9/h1-2,8H,(H,7,9)	InChI=1S/C5H4FNO2/c6-4-1-3(8)2-7-5(4)9/h1-2,8H,(H,7,9)
