23
gdb 76223	2.49198	1.48224	1.14919	0.3021	91.52	-0.2139	0.029	0.2429	1205.4865	0.205238	-351.171957	-351.162562	-351.161618	-351.205257	36.911	
C	-0.183048748	 1.5280514842	 0.0151570004	-0.399037
C	 0.0189557196	 0.0055093915	-0.0068928006	-0.144384
C	 0.8136085935	-0.5204240536	-1.1991101954	 0.314992
C	 0.4717681784	-0.1430490815	-2.6065106096	-0.492689
C	 1.7968311355	-1.3361748742	-0.8014699476	-0.189712
C	 1.8864192587	-1.4345543924	 0.6817629915	-0.119405
C	 2.2119560192	-0.1291236069	 1.3890910033	-0.328147
C	 0.771535354	-0.5508533428	 1.2149799543	 0.357899
C	-0.0385100512	-0.9142426981	 2.4367391345	-0.484924
H	 0.7756325232	 2.0561813507	 0.0240809482	 0.115801
H	-0.7473408041	 1.8694059864	-0.8586926489	 0.111369
H	-0.74178189	 1.8314014064	 0.9067540723	 0.113754
H	-0.9844078804	-0.4516631743	-0.0310823518	 0.069524
H	 0.5954435253	 0.9330167311	-2.7826379255	 0.125258
H	 1.1030014725	-0.6729591509	-3.325319879	 0.120743
H	-0.5762762634	-0.3758159092	-2.8380808487	 0.119601
H	 2.4841310974	-1.8463558755	-1.4688003451	 0.083301
H	 2.1565169429	-2.3719559955	 1.1575728271	 0.078497
H	 2.6125573402	-0.1881193065	 2.396912294	 0.101916
H	 2.6209808275	 0.6765386118	 0.7881004523	 0.105282
H	-0.5141148806	-0.0298857152	 2.8789650149	 0.114668
H	-0.8335014471	-1.6277592572	 2.1893422561	 0.113773
H	 0.5883250968	-1.3690294782	 3.2104794234	 0.111917
108.7011	185.1178	197.0703	208.543	229.8527	245.2041	261.6532	302.7517	375.1123	446.9933	466.0836	533.0635	585.958	669.4811	712.7314	800.1315	830.4606	854.5655	864.2753	916.4518	957.3436	997.6449	1015.2498	1030.2428	1052.3774	1059.7125	1068.1395	1084.4018	1099.4447	1106.8811	1132.6791	1195.8081	1238.3389	1274.1369	1312.7207	1335.7435	1341.1913	1398.1303	1405.5573	1413.9452	1420.4635	1477.4075	1481.3452	1487.7368	1489.2418	1497.8493	1500.0534	1502.418	1704.923	2959.2089	3012.4722	3016.7234	3032.2929	3056.8486	3073.0332	3094.4464	3097.795	3104.6945	3106.6009	3117.7408	3156.2843	3180.4264	3205.285
CC1C(C)=CC2CC12C	C[C@H]1C(=C[C@H]2C[C@@]12C)C	
InChI=1S/C9H14/c1-6-4-8-5-9(8,3)7(6)2/h4,7-8H,5H2,1-3H3	InChI=1S/C9H14/c1-6-4-8-5-9(8,3)7(6)2/h4,7-8H,5H2,1-3H3/t7-,8-,9-/m0/s1
