16
gdb 93474	2.95746	1.41579	0.99491	1.8151	67.24	-0.2824	-0.0278	0.2546	1129.2233	0.124933	-475.074203	-475.066278	-475.065334	-475.107102	29.854	
O	 0.0520743248	 1.3883881188	 0.2024590983	-0.436008
C	-0.0130092759	 0.0035932402	 0.0138546902	 0.02529
C	-1.4509395589	-0.506473107	 0.0140001051	-0.247547
C	-1.4136989172	-2.0201881504	-0.2027763529	-0.29436
C	-0.6673266261	-2.4034677508	-1.4536106626	 0.406178
N	-0.9487453374	-3.4184064983	-2.1404235213	-0.478738
O	 0.4006625899	-1.5853402714	-1.8464801794	-0.233208
C	 0.6846891434	-0.3744643356	-1.287973077	 0.39365
O	 1.4806607948	 0.3480175036	-1.8214566459	-0.32307
H	 0.7791203156	 1.7037062904	-0.3543763363	 0.299896
H	 0.5391501092	-0.5291804299	 0.8124124398	 0.103956
H	-1.9288375835	-0.2596531988	 0.9649595467	 0.128576
H	-2.0158719997	-0.0035625996	-0.7785004813	 0.126894
H	-0.9085372536	-2.4975889543	 0.6480031013	 0.139369
H	-2.4081449321	-2.4628319134	-0.2686402559	 0.150693
H	-0.3100561434	-3.5130815834	-2.9322074289	 0.23843
58.2396	120.124	219.2775	300.5111	360.4703	369.5287	409.0794	423.3041	486.2252	538.8513	580.6474	667.9379	700.3812	779.2602	867.9895	913.5775	929.9835	973.065	1053.2494	1085.8791	1102.1113	1146.9264	1161.3636	1175.0857	1239.0635	1292.3934	1322.1212	1330.9591	1356.767	1386.8196	1442.9434	1470.6885	1503.5176	1771.6694	1847.3455	2918.3193	3026.3965	3056.3018	3110.7047	3130.6227	3477.825	3731.6081
OC1CCC(=N)OC1=O	O[C@H]1CC[C]([NH])OC1=O	
InChI=1S/C5H7NO3/c6-4-2-1-3(7)5(8)9-4/h3,6-7H,1-2H2	InChI=1S/C5H7NO3/c6-4-2-1-3(7)5(8)9-4/h3,6-7H,1-2H2/t3-/m0/s1
