22
gdb 15184	8.30187	0.66821	0.65381	0.9898	80.16	-0.2417	0.0913	0.333	1805.219	0.198654	-350.187981	-350.178249	-350.177305	-350.223666	34.496	
C	-0.063176005	 1.5036278508	 0.06368018	-0.37905
C	-0.1411421935	-0.0051564943	 0.3122262605	-0.164895
C	-1.4316311716	-0.6317314344	-0.225266305	-0.177493
C	-1.5091200024	-2.1311692025	 0.024196751	-0.05611
O	-2.7289831064	-2.6160204548	-0.5133466776	-0.250896
C	-2.8989622034	-3.9865470521	-0.3469291902	 0.152008
C	-3.4648978284	-4.5087143473	 0.9506418085	-0.287462
C	-4.3065453054	-4.4830351292	-0.3116744934	-0.287594
H	 0.867058542	 1.9256426902	 0.4565959209	 0.110932
H	-0.1064722696	 1.7306237726	-1.0072439463	 0.115378
H	-0.8965428403	 2.0270323482	 0.5452072272	 0.115091
H	 0.7242453207	-0.4970868445	-0.1514677761	 0.09581
H	-0.0602091754	-0.2026125146	 1.3894114736	 0.09573
H	-2.3034186776	-0.154103622	 0.2390602007	 0.101864
H	-1.5169590013	-0.4515138601	-1.3040040883	 0.103508
H	-0.6557336213	-2.6443306199	-0.4512184053	 0.082676
H	-1.455730919	-2.3500059287	 1.1029567091	 0.086922
H	-2.1482172395	-4.5967023854	-0.8525087491	 0.079248
H	-3.1159466804	-5.4628105718	 1.3303420453	 0.110301
H	-3.7013671528	-3.7729592436	 1.7112422951	 0.117431
H	-5.0824850519	-3.7285373039	-0.3710052588	 0.124467
H	-4.5398931075	-5.4183225925	-0.8076673222	 0.112134
45.0809	60.2661	101.8577	117.6961	142.9303	236.7719	249.796	308.9925	393.8443	448.6107	503.1527	742.7054	758.4906	811.0088	817.3167	831.4606	908.2801	951.1342	961.0765	980.6895	1031.2959	1048.6797	1070.6992	1073.6745	1092.0555	1129.0596	1145.1009	1193.4506	1194.3751	1207.8793	1243.3418	1251.9398	1291.837	1309.025	1322.9884	1374.5913	1390.6084	1410.7636	1438.7751	1452.2064	1486.7802	1495.6776	1498.4248	1499.7294	1509.9679	1527.1729	2956.0109	2987.074	3012.551	3027.3229	3031.7045	3038.4207	3072.1989	3082.5961	3097.6558	3102.429	3134.5119	3141.8469	3219.1071	3234.331
CCCCOC1CC1	CCCCOC1CC1	
InChI=1S/C7H14O/c1-2-3-6-8-7-4-5-7/h7H,2-6H2,1H3	InChI=1S/C7H14O/c1-2-3-6-8-7-4-5-7/h7H,2-6H2,1H3
