18
gdb 70081	2.66351	1.83978	1.35839	3.1128	76.64	-0.2419	-0.0046	0.2374	987.9988	0.148926	-401.915019	-401.907624	-401.90668	-401.946421	29.94	
C	-0.088228056	 1.490191311	 0.0397073976	-0.489302
C	 0.0359722442	-0.0157352082	-0.0063032412	 0.444926
O	-0.2589826036	-0.6966160618	 1.2066322547	-0.277442
C	 1.1109119837	-0.7085904772	 0.7444675605	-0.073357
C	 1.6661975497	-1.9812534049	 0.2316802726	-0.068587
C	 1.2263020136	-2.5556492723	-0.8934074172	-0.049722
C	 0.1501382657	-1.9654465714	-1.7177770354	-0.093146
N	-1.2207668021	-1.9174884511	-1.145322958	-0.317039
C	-0.4589851576	-0.6712275569	-1.2756411401	-0.130615
H	 0.4413250792	 1.953196831	-0.8002109452	 0.121181
H	-1.1407732759	 1.7894922246	-0.0194907239	 0.12924
H	 0.3252611698	 1.8823415885	 0.971664134	 0.12935
H	 1.7764260033	-0.1115174313	 1.3674627497	 0.083931
H	 2.4766418155	-2.4333280286	 0.7960124931	 0.095845
H	 1.6803197055	-3.4768672147	-1.2479020635	 0.09756
H	 0.2233635302	-2.1482576354	-2.7874156838	 0.086718
H	-1.89584141	-1.976345963	-1.9045383314	 0.232181
H	-0.7526398053	 0.0272379616	-2.0554833623	 0.078278
147.7841	204.1934	237.0169	296.0248	314.1511	416.6789	484.6118	528.2673	537.9519	606.0061	695.9831	748.9961	813.7078	823.6453	859.6726	863.6184	917.1425	937.9372	963.5511	978.2914	987.4224	1042.927	1085.2411	1101.03	1116.2024	1171.081	1189.121	1201.4253	1235.7059	1254.4023	1330.8129	1395.3659	1410.1992	1426.8408	1439.3372	1472.7624	1487.0053	1497.2522	1697.4242	3032.0295	3094.085	3109.7287	3124.856	3126.5722	3136.7182	3158.4933	3179.9001	3491.8003
CC12OC1C=CC1NC21	C[C@]12O[C@H]1C=C[C@H]1N[C@@H]21	
InChI=1S/C7H9NO/c1-7-5(9-7)3-2-4-6(7)8-4/h2-6,8H,1H3	InChI=1S/C7H9NO/c1-7-5(9-7)3-2-4-6(7)8-4/h2-6,8H,1H3/t4-,5+,6-,7+/m1/s1
