19
gdb 111695	2.28775	1.65615	1.27429	1.9	70.55	-0.2347	0.0634	0.2981	1065.7137	0.159378	-460.121393	-460.11283	-460.111886	-460.154775	32.085	
C	 0.238224985	 1.0423628502	 0.1387782209	-0.255437
O	-0.0606215302	-0.1276365828	-0.6078540837	-0.251495
C	-1.3130536453	-0.656721779	-0.2883030465	 0.083513
C	-1.7137799557	-2.0081141219	-0.8031176174	 0.045978
O	-0.7619296857	-2.8522656009	-1.3832404466	-0.253749
C	 0.2988459851	-3.0725987954	-0.4601674868	-0.107252
C	-0.1785952723	-2.6257426491	 0.9513027595	 0.10304
O	 0.83221421	-1.9504391389	 1.6790137475	-0.439599
C	-1.4509022239	-1.8255916212	 0.676104537	-0.186015
H	 1.2126764185	 1.3997289017	-0.2020942338	 0.133465
H	-0.5101059786	 1.8278884175	-0.037300958	 0.117901
H	 0.279129684	 0.8350032461	 1.2176585554	 0.122515
H	-2.1088908604	 0.0889861017	-0.248360736	 0.090517
H	-2.6977779758	-2.1473438041	-1.2373869901	 0.105431
H	 0.5696879561	-4.1321159491	-0.5026985872	 0.109076
H	 1.1763439836	-2.4771455662	-0.7408912394	 0.104738
H	-0.4359344893	-3.4925636167	 1.5667523901	 0.096691
H	 1.153809595	-1.246867683	 1.1044463696	 0.289113
H	-2.2320160902	-1.8229688788	 1.4273319653	 0.091567
97.3518	100.1172	152.396	174.7943	217.0664	320.7719	368.5679	443.0132	454.1888	571.5137	612.059	698.2878	734.8653	766.6814	793.9381	871.9036	954.2192	990.5362	1003.6958	1032.2871	1077.8383	1082.681	1100.7485	1105.1063	1111.526	1158.2469	1184.9195	1211.0976	1219.5838	1247.2809	1281.3769	1296.3061	1324.6263	1353.0192	1386.5217	1432.4227	1446.333	1486.2966	1488.7112	1512.095	1516.8202	2990.6073	3026.8751	3045.3546	3063.9933	3084.3357	3086.6471	3120.843	3168.6415	3178.7758	3811.0994
COC1C2OCC(O)C12	CO[C@H]1[C@H]2OC[C@@H](O)[C@@H]12	
InChI=1S/C6H10O3/c1-8-5-4-3(7)2-9-6(4)5/h3-7H,2H2,1H3	InChI=1S/C6H10O3/c1-8-5-4-3(7)2-9-6(4)5/h3-7H,2H2,1H3/t3-,4+,5-,6+/m1/s1
