17
gdb 109420	2.14832	1.8441	1.07098	2.6694	78.38	-0.2526	-0.0795	0.173	1113.8845	0.137263	-418.071279	-418.062909	-418.061964	-418.104908	30.764	
C	 0.0050103011	 1.5570444845	 0.1018952658	-0.382928
C	-0.0456217463	 0.0337127609	-0.0272247094	-0.150599
N	-1.401822765	-0.4947131392	 0.0055787852	-0.128647
C	-2.1384435647	-0.7350448426	 1.1612162486	 0.353538
N	-1.6855206633	-0.5078015745	 2.3307764946	-0.529859
C	-3.4491791628	-1.2755374639	 0.7094774326	-0.15171
C	-3.4536286416	-1.3373694043	-0.6238603559	-0.197055
C	-2.1331275832	-0.8370209517	-1.1292121391	 0.400366
O	-1.7511779001	-0.7431970892	-2.273477402	-0.367499
H	 1.0434947451	 1.9004364361	 0.0651768725	 0.118828
H	-0.5417145889	 2.0348508487	-0.7162450336	 0.12887
H	-0.4289438037	 1.8782848775	 1.0521516513	 0.139533
H	 0.3838115565	-0.2874942054	-0.9794317907	 0.135231
H	 0.5121837261	-0.4365941255	 0.7868922573	 0.132119
H	-2.3789875424	-0.7604302533	 3.0342164153	 0.228485
H	-4.2310196098	-1.5553789998	 1.4026241731	 0.131003
H	-4.2309095473	-1.6776576384	-1.2924867855	 0.140323
46.1724	111.413	148.9621	213.916	302.22	303.9859	341.8965	424.0649	555.9394	611.2682	636.8865	714.5221	722.9924	764.559	783.7784	825.8102	874.8897	956.0987	958.7332	987.9602	1052.3034	1092.2242	1104.6722	1141.4179	1229.4635	1266.8528	1335.3456	1380.0628	1393.6346	1410.3872	1451.6277	1482.306	1493.4153	1505.1419	1637.666	1720.8625	1820.9195	3044.2471	3067.4908	3110.8697	3117.6885	3135.6765	3225.2444	3255.5616	3490.2775
CCN1C(=N)C=CC1=O	CCN1C(=C[CH]C1=O)[NH]	
InChI=1S/C6H8N2O/c1-2-8-5(7)3-4-6(8)9/h3-4,7H,2H2,1H3	InChI=1S/C6H8N2O/c1-2-8-5(7)3-4-6(8)9/h3-4,7H,2H2,1H3
