18
gdb 96310	2.41457	1.53179	1.06033	2.5253	69.23	-0.2599	0.0056	0.2655	1130.5044	0.148481	-476.218516	-476.210105	-476.209161	-476.251583	31.616	
O	-0.2809487049	 1.4782644815	 0.556868788	-0.426709
C	-0.0534470421	 0.1827242865	 0.0195671653	 0.092916
C	 0.9285413847	-0.6005033099	 0.9058623789	-0.114137
O	 1.2807829143	-1.8273444843	 0.2748114678	-0.232952
C	 0.5247870034	-2.9319914453	 0.6643404398	-0.012757
O	-0.8683881454	-2.6731805523	 0.7015840937	-0.256876
C	-1.3914433637	-1.9536493298	-0.3703018031	 0.35701
N	-1.8671983713	-2.4865131235	-1.4097829504	-0.473515
C	-1.4359340564	-0.4747829934	-0.1004969956	-0.234317
H	 0.5276367533	 1.9914717417	 0.4601100706	 0.287574
H	 0.394640135	 0.2416720548	-0.9836668255	 0.089642
H	 1.8549031345	-0.024840261	 1.0148607256	 0.099808
H	 0.5045202651	-0.76112621	 1.9051536874	 0.115404
H	 0.7645723135	-3.7193910766	-0.0613235689	 0.112271
H	 0.7656527244	-3.2657298012	 1.6830845962	 0.108949
H	-1.7647521799	-3.5031728038	-1.3639246844	 0.223034
H	-1.9525860835	-0.3212871068	 0.855128575	 0.130908
H	-2.009337701	 0.0178002733	-0.8863855804	 0.133745
105.5195	122.644	151.9435	254.842	277.1338	319.1537	367.8815	380.9229	454.1498	467.6663	567.0238	601.0284	701.0221	823.1255	893.3779	906.0123	948.0075	964.5228	1016.2772	1054.7785	1082.5016	1091.3242	1111.6008	1142.1477	1165.6639	1212.8308	1255.0807	1291.2804	1303.0601	1313.1826	1336.538	1352.0273	1403.5954	1432.4789	1450.8782	1472.2235	1496.2547	1521.1649	1757.522	2993.6941	3005.2948	3023.2151	3044.0586	3055.9448	3075.8531	3134.3138	3455.7918	3818.8769
OC1COCOC(=N)C1	O[C@H]1COCO[C]([NH])C1	
InChI=1S/C5H9NO3/c6-5-1-4(7)2-8-3-9-5/h4,6-7H,1-3H2	InChI=1S/C5H9NO3/c6-5-1-4(7)2-8-3-9-5/h4,6-7H,1-3H2/t4-/m1/s1
