21
gdb 39060	2.49979	1.85702	1.29596	0.207	87.83	-0.2335	0.0313	0.2648	1051.2045	0.185331	-349.94852	-349.941053	-349.940109	-349.9802	30.861	
C	 0.0517203291	 1.4865852327	 0.2242615136	-0.372855
C	 1.297943233	 0.6694239069	-0.0582962713	-0.081914
C	 2.3252381151	 0.3676730066	 1.0249909485	-0.281068
C	 1.9012383593	-0.6640327522	 2.039910547	-0.055917
C	 0.7362610645	-1.3131943492	 2.0455909961	-0.074599
C	-0.345497442	-1.0573164759	 1.0503127635	-0.089084
C	-0.5942205964	-2.0549901535	-0.137716467	-0.228795
C	-0.7032558076	-0.8338197662	-1.0997367348	-0.313209
C	-0.0552657084	 0.0133673163	-0.0023270251	 0.360395
H	-0.1030135429	 1.8514664462	 1.2366157605	 0.108023
H	-0.2943533638	 2.1624758758	-0.5518546787	 0.106103
H	 1.7176458323	 0.8100905929	-1.0510313674	 0.079558
H	 3.2471851817	 0.0080314643	 0.5466650413	 0.109228
H	 2.6229379086	 1.2900603743	 1.5457372072	 0.107041
H	 2.6363519504	-0.8860961556	 2.8108022005	 0.081945
H	 0.5406268929	-2.0556095293	 2.8167633033	 0.080254
H	-1.2963802528	-0.8650145046	 1.565644117	 0.071786
H	 0.2925718223	-2.6601735211	-0.3407454654	 0.103955
H	-1.4639161927	-2.7107337337	-0.0594137372	 0.094569
H	-0.1800000543	-0.9016881785	-2.0575245525	 0.095441
H	-1.7440194083	-0.5502987664	-1.2894017091	 0.099144
94.7883	182.4747	233.1065	318.4837	368.8079	451.439	482.627	522.86	556.9845	690.9423	716.7647	764.2973	789.7435	833.2693	869.8158	890.6448	903.7884	927.5206	947.633	974.7358	1007.191	1022.8777	1047.668	1063.3533	1082.7075	1098.9116	1120.5024	1136.8641	1183.7483	1203.459	1226.6537	1240.4511	1250.2347	1265.9364	1273.655	1311.907	1360.9508	1371.1672	1412.7326	1425.5471	1471.3293	1478.3427	1490.0292	1499.3682	1718.5303	2994.3436	3005.542	3016.7862	3041.6059	3064.5773	3090.2571	3110.5226	3122.9557	3132.7656	3133.5449	3157.3433	3195.9923
C1C2CC=CC3CCC123	C1[C@H]2CC=C[C@@H]3CC[C@]123	
InChI=1S/C9H12/c1-2-7-4-5-9(7)6-8(9)3-1/h1-2,7-8H,3-6H2	InChI=1S/C9H12/c1-2-7-4-5-9(7)6-8(9)3-1/h1-2,7-8H,3-6H2/t7-,8-,9-/m1/s1
