20
gdb 77910	2.19719	1.54979	1.39542	1.1462	75.17	-0.2294	0.0582	0.2876	1077.8007	0.169052	-440.23024	-440.220615	-440.21967	-440.264023	36.176	
C	-0.1923546259	 1.5732192006	 0.1072153923	-0.335239
N	 0.1331887738	 0.1500474394	 0.1574036029	-0.115871
C	 1.367559255	-0.465071747	-0.2659416879	-0.179711
C	 2.6369583523	 0.2711840419	 0.1748642118	 0.085456
O	 2.9456841618	 1.5574011895	-0.338079713	-0.447596
C	 2.1317583727	 0.2327666536	 1.6568629031	 0.037579
O	 1.9647513051	 1.4793834615	 2.2854431694	-0.442912
C	 0.8707007055	-0.5310801046	 1.1867276132	 0.309629
C	 0.2249237445	-1.6539347764	 1.945777063	-0.492222
H	 0.5598780794	 2.2462547728	 0.5266544132	 0.113357
H	-0.393093304	 1.8411139209	-0.9367147196	 0.115097
H	-1.1183457751	 1.7300004076	 0.6689866225	 0.130648
H	 1.3259237326	-1.2216094048	-1.044188172	 0.091059
H	 3.528704588	-0.3483086151	 0.0442860606	 0.093313
H	 2.1722212455	 1.9007652779	-0.7933518964	 0.297061
H	 2.7660928738	-0.4219647768	 2.2707139003	 0.073556
H	 2.48493426	 2.102605611	 1.7572669189	 0.288913
H	-0.3430549521	-1.2660355071	 2.799501965	 0.130263
H	-0.4671701823	-2.2021155388	 1.3016578529	 0.129843
H	 0.9743994294	-2.3505327465	 2.3359522698	 0.117777
102.0998	143.1613	188.6101	191.4323	212.4113	246.5893	253.4005	295.2177	330.2225	358.7737	452.3366	532.0284	568.8171	649.0711	690.37	750.5318	791.1597	836.7442	908.7839	940.8262	961.4392	993.6806	1087.6428	1107.4007	1127.2935	1137.863	1161.6264	1179.8022	1202.9336	1237.9935	1248.4578	1280.4115	1310.0976	1365.8076	1381.2862	1403.9337	1410.9857	1431.637	1469.4746	1483.3857	1487.6552	1495.7642	1521.2948	3000.6567	3027.3781	3031.2252	3071.1258	3090.667	3095.0079	3107.7726	3121.4885	3153.0979	3724.5523	3851.8477
CN1C2C(O)C(O)C12C	CN1[C@H]2[C@@H](O)[C@@H](O)[C@@]12C	
InChI=1S/C6H11NO2/c1-6-4(7(6)2)3(8)5(6)9/h3-5,8-9H,1-2H3	InChI=1S/C6H11NO2/c1-6-4(7(6)2)3(8)5(6)9/h3-5,8-9H,1-2H3/t3-,4+,5-,6+,7?/m1/s1
