17
gdb 5827	2.80322	1.70147	1.39453	3.8194	64.37	-0.2765	0.0118	0.2883	954.9953	0.138777	-401.010403	-401.000896	-400.999952	-401.043906	34.557	
C	-0.0468349213	 1.5533830829	 0.0082776358	-0.434376
C	 0.0098606687	 0.0243601049	 0.0511330667	 0.324027
C	 0.6801704754	-0.4794651229	 1.3289786879	-0.421448
O	-1.2962643516	-0.5412267098	 0.0455746652	-0.444694
C	 0.7602183877	-0.4890656082	-1.2203520675	-0.03666
O	 2.0868008482	-0.0073472091	-1.3324028747	-0.414767
C	 0.7211711914	-1.9623117026	-1.3039962389	 0.270008
N	 0.7565357457	-3.1158659468	-1.3606359064	-0.325131
H	 0.9568199293	 1.9813947267	-0.0424397537	 0.139851
H	-0.5990791791	 1.8965818425	-0.875522017	 0.107086
H	-0.5550716356	 1.9335260156	 0.8981494208	 0.128499
H	 0.1189340306	-0.1285767245	 2.1981695616	 0.134784
H	 0.6962256264	-1.5723455138	 1.3516288626	 0.149668
H	 1.7037136474	-0.1021335626	 1.4107640655	 0.113456
H	-1.8185092577	-0.1048443152	-0.6366834132	 0.283788
H	 0.2324414643	-0.0933396876	-2.0969695865	 0.125073
H	 2.6412099203	-0.4966679095	-0.7144664681	 0.300837
73.3654	147.13	202.7242	216.7123	244.0143	258.7684	300.3133	306.2082	330.9111	352.0937	392.2876	447.2102	479.5046	581.6422	615.2251	773.1664	875.4373	938.209	956.6909	1010.3247	1016.6657	1080.6679	1122.6907	1217.3239	1236.8351	1264.404	1292.0422	1378.1058	1405.1555	1415.4741	1422.5242	1480.8008	1487.3384	1502.0853	1506.7784	2355.9008	3028.3665	3041.1639	3048.7715	3103.5094	3122.6587	3130.8262	3138.0771	3803.013	3813.1201
CC(C)(O)C(O)C#N	CC(C)(O)[C@@H](O)C#N	
InChI=1S/C5H9NO2/c1-5(2,8)4(7)3-6/h4,7-8H,1-2H3	InChI=1S/C5H9NO2/c1-5(2,8)4(7)3-6/h4,7-8H,1-2H3/t4-/m0/s1
