23
gdb 119481	3.75931	0.93243	0.86346	0.3253	89.46	-0.2029	0.086	0.2888	1480.1998	0.20551	-351.091484	-351.082476	-351.081531	-351.125449	35.35	
C	-0.0720379269	 1.5967875832	 0.06010073	-0.381001
C	-0.1185966159	 0.0674829447	 0.1045760334	-0.154633
C	 0.8327521605	-0.5345040213	 1.1509859515	-0.302508
C	 0.8163250888	-2.0372880484	 1.1724760518	 0.387994
C	-0.1724059192	-2.8523400957	 1.9652471325	-0.35388
C	 1.3039928438	-3.0081775803	 2.2354453387	-0.1349
C	 2.0652122551	-3.8240556501	 1.1543007659	-0.047494
C	 1.1991681322	-4.332323294	 0.0337644177	-0.302579
C	 1.5636131024	-2.8728074351	 0.0820223764	-0.106625
H	 0.9338398675	 1.9563903151	-0.184544211	 0.1122
H	-0.7597857493	 1.9965847581	-0.6917415019	 0.109981
H	-0.3490749273	 2.0300514459	 1.027945246	 0.111948
H	-1.1411333782	-0.2678160992	 0.3182118416	 0.097845
H	 0.1315803744	-0.3374022117	-0.8845868911	 0.098302
H	 1.8556642229	-0.1818622385	 0.9531138183	 0.091164
H	 0.5673179849	-0.1553244707	 2.1470013839	 0.09029
H	-0.6958398983	-2.2810290324	 2.7275034199	 0.105919
H	-0.780180508	-3.6422897003	 1.5378483485	 0.107524
H	 1.7331978002	-2.7801804179	 3.2035137101	 0.083781
H	 3.0735451419	-4.1867442849	 1.3071498255	 0.085661
H	 1.7425669363	-4.8946400455	-0.7205759105	 0.10882
H	 0.1882713054	-4.6934089933	 0.1860965428	 0.110158
H	 2.1306688369	-2.3972540779	-0.70898867	 0.082032
72.8359	88.7534	110.7388	243.3599	262.043	295.0399	329.5969	395.0234	437.1239	511.1802	662.8902	699.3363	743.3634	760.3529	805.0373	844.2729	869.9319	884.209	898.8464	912.9014	938.9536	966.4349	984.2133	1009.3263	1032.135	1044.4391	1050.3204	1061.8424	1065.74	1095.6379	1113.5692	1134.2078	1180.4211	1213.26	1251.3036	1268.3778	1300.4317	1309.4598	1322.9293	1338.7657	1382.787	1405.7454	1411.345	1476.207	1482.2462	1492.1805	1499.5751	1509.2226	1515.1245	2996.5817	3021.6372	3027.3696	3032.6513	3057.8261	3093.9004	3099.7844	3116.0808	3129.5617	3177.3805	3180.0549	3192.2325	3195.2236	3205.2894
CCCC12CC1C1CC21	CCC[C@]12C[C@H]1[C@H]1C[C@@H]21	
InChI=1S/C9H14/c1-2-3-9-5-8(9)6-4-7(6)9/h6-8H,2-5H2,1H3	InChI=1S/C9H14/c1-2-3-9-5-8(9)6-4-7(6)9/h6-8H,2-5H2,1H3/t6-,7+,8-,9+/m0/s1
