20
gdb 100171	1.96217	1.4301	1.15522	1.7225	75.82	-0.2481	-0.0463	0.2017	1198.4187	0.168149	-440.338249	-440.327697	-440.326753	-440.373975	38.041	
C	-0.2823174896	 1.4966059043	-0.0962245697	-0.407565
C	-0.1538160874	-0.0078479023	 0.1636246544	-0.182951
C	 0.9137031166	-0.4130897529	 1.2327942231	 0.045959
C	 2.3144285971	 0.0980789893	 0.8780006716	-0.435022
C	 0.4826396073	 0.1561245195	 2.5816113443	 0.142812
O	-0.5388294263	-0.132871219	 3.1613855907	-0.279857
C	 0.9411398989	-1.972144224	 1.2676313696	 0.377066
N	-0.1649535171	-2.5611682284	 1.7932865927	-0.521712
O	 1.8703981248	-2.5927944589	 0.7905024758	-0.363921
H	 0.6436455745	 1.9292428569	-0.4847674637	 0.126798
H	-1.0657544706	 1.679261841	-0.8378627221	 0.124193
H	-0.5579720749	 2.0436962976	 0.8117904722	 0.124037
H	-1.1209528487	-0.4050871582	 0.4841060057	 0.117834
H	 0.1067775487	-0.5229948384	-0.7678141535	 0.117659
H	 2.348546415	 1.1911796178	 0.8984304465	 0.110796
H	 3.0577660598	-0.2822175102	 1.583693251	 0.130643
H	 2.6072907318	-0.2459273917	-0.1147597293	 0.141141
H	 1.1820804744	 0.8969175136	 3.0258347096	 0.097028
H	-0.7991159371	-2.0152949609	 2.3589657834	 0.276189
H	-0.1433299372	-3.5630987151	 1.8969704779	 0.258873
57.4303	81.6819	86.1487	173.5494	195.0571	244.1907	259.9882	299.3343	308.3938	341.707	379.8644	416.5453	467.8649	557.9475	629.1717	643.6603	697.5439	772.2351	785.0877	831.8254	921.302	996.8169	1010.4121	1042.587	1076.1512	1129.6527	1169.1621	1191.8505	1217.1376	1325.4703	1330.6627	1364.0573	1409.9427	1415.0526	1430.5487	1476.9021	1487.4488	1492.9345	1501.901	1510.8563	1616.2951	1795.7836	1797.9368	2898.3588	3039.079	3045.7041	3052.3912	3092.3597	3105.9613	3116.6843	3122.5137	3145.5567	3552.5685	3697.6197
CCC(C)(C=O)C(N)=O	CC[C@@](C)(C=O)C(=O)N	
InChI=1S/C6H11NO2/c1-3-6(2,4-8)5(7)9/h4H,3H2,1-2H3,(H2,7,9)	InChI=1S/C6H11NO2/c1-3-6(2,4-8)5(7)9/h4H,3H2,1-2H3,(H2,7,9)/t6-/m0/s1
