22
gdb 59945	2.15666	1.07123	0.95289	3.9319	82.43	-0.2705	0.0415	0.312	1405.6841	0.191246	-404.37157	-404.360537	-404.359592	-404.407578	40.411	
C	-0.8872630769	 0.787659711	-2.4980702241	-0.41097
C	 0.3955266275	 0.0008631746	-2.7784032784	 0.121881
O	 1.3825342768	 0.8611877966	-3.3481810007	-0.438603
C	 1.0581219278	-0.5872574987	-1.5201606246	-0.19716
C	 0.6910321571	-2.0460895121	-1.1342941391	 0.068021
C	 1.5351508345	-2.4612076194	 0.0930366133	-0.405941
C	-0.8092228291	-2.2259734402	-0.8109403756	-0.403881
C	 1.0347404449	-2.9427751377	-2.2529594318	 0.283759
N	 1.2980806183	-3.6533522087	-3.1262809805	-0.35256
H	-1.6619536506	 0.1680721969	-2.0386793064	 0.119135
H	-0.6709580228	 1.6269857473	-1.8291185359	 0.12554
H	-1.301574172	 1.1919839015	-3.4290361986	 0.10921
H	 0.1743226398	-0.8202809478	-3.478629052	 0.087856
H	 1.0015685338	 1.2719929659	-4.131038658	 0.281231
H	 2.1373623294	-0.5465165381	-1.6924001367	 0.129832
H	 0.8489343244	 0.0501585079	-0.6528221287	 0.10001
H	 1.2863335309	-1.8177769084	 0.942566142	 0.122564
H	 1.3327174546	-3.497926501	 0.374467531	 0.132008
H	 2.6039646279	-2.3629355985	-0.1132065836	 0.136223
H	-1.4387056973	-2.0417820166	-1.6837619616	 0.137597
H	-1.0068808809	-3.2447977499	-0.4666065425	 0.132008
H	-1.100478188	-1.5317134347	-0.0166321477	 0.12224
45.7719	82.3966	151.8702	188.8469	211.2644	236.0008	242.4399	275.2853	289.2517	310.8689	322.3458	371.3375	418.6827	440.2428	483.8477	585.5233	611.123	716.3427	845.5154	872.4655	908.7898	949.0747	952.2939	982.6478	1030.0083	1067.965	1094.2201	1115.1166	1177.1517	1208.5011	1227.6518	1277.3859	1304.8722	1347.0061	1380.7752	1398.3279	1409.7621	1420.7179	1433.5216	1472.1196	1485.5135	1487.7604	1493.4975	1498.0805	1499.9398	1513.9778	2349.2145	2976.9238	3031.3847	3037.1651	3041.8784	3046.7	3094.9266	3098.452	3115.0519	3119.5122	3121.4172	3126.9091	3134.7375	3814.9416
CC(O)CC(C)(C)C#N	C[C@@H](O)CC(C)(C)C#N	
InChI=1S/C7H13NO/c1-6(9)4-7(2,3)5-8/h6,9H,4H2,1-3H3	InChI=1S/C7H13NO/c1-6(9)4-7(2,3)5-8/h6,9H,4H2,1-3H3/t6-/m1/s1
