17
gdb 12771	3.83663	1.67401	1.31936	2.092	71.96	-0.2467	0.0265	0.2732	974.1481	0.140921	-363.834394	-363.826238	-363.825294	-363.866959	29.582	
C	 0.0385823622	 1.4145474083	 0.0904416341	-0.340371
N	 0.1450364541	-0.033956393	-0.0145056105	-0.346668
C	 0.5654101237	-0.6882042823	 0.9625509659	 0.448415
O	 1.0189698258	-0.2571225513	 2.2212928066	-0.292105
C	 1.4258749206	-1.6149957516	 2.5269316237	 0.057927
C	 0.223121892	-2.4889069117	 2.5687540123	-0.333908
C	 0.8656871973	-2.132297437	 1.2187355245	 0.148331
C	 1.3317312869	-3.1326914022	 0.2043127851	-0.489676
H	 0.5584232418	 1.872667296	-0.7576890571	 0.126026
H	-1.0157105266	 1.7029756954	 0.0116336976	 0.128074
H	 0.4458335534	 1.8265317718	 1.020990739	 0.128323
H	 2.3779120602	-1.7499326024	 3.0220644938	 0.121415
H	 0.3903495934	-3.5190668833	 2.8707874603	 0.122288
H	-0.7331154432	-2.0678235753	 2.8636607772	 0.128711
H	 0.5073073403	-3.4314138397	-0.4512249659	 0.140181
H	 2.1237262966	-2.7157717867	-0.4251465066	 0.133533
H	 1.7165768815	-4.034240065	 0.6904604002	 0.119502
98.2877	122.6161	160.1564	195.3133	224.0455	278.9782	354.1919	463.9293	507.3381	630.6842	709.4102	746.0424	833.5546	866.3987	888.363	952.508	982.6083	1022.9921	1045.6931	1060.0423	1075.7222	1106.8789	1117.0739	1134.4258	1170.097	1260.1908	1290.6643	1394.9762	1426.2476	1440.3913	1480.6803	1486.8239	1493.5058	1498.4224	1498.9198	1853.3351	3018.1722	3037.5455	3082.6016	3089.8114	3103.0292	3110.8759	3119.1008	3208.7689	3215.9238
CN=C1OC2CC12C	CN=C1O[C@H]2C[C@@]12C	
InChI=1S/C6H9NO/c1-6-3-4(6)8-5(6)7-2/h4H,3H2,1-2H3	InChI=1S/C6H9NO/c1-6-3-4(6)8-5(6)7-2/h4H,3H2,1-2H3/t4-,6+/m0/s1
