16
gdb 44525	4.47033	1.29953	1.15214	3.6568	76.2	-0.2391	-0.0422	0.1969	1042.6799	0.125968	-400.708549	-400.701843	-400.700899	-400.73964	26.925	
O	 0.0810832325	 0.0094204579	 0.102727826	-0.325642
C	 0.0054573538	 1.2111677198	 0.035598609	 0.392829
C	-1.340715189	 2.0205888482	 0.0329582064	-0.382657
C	-0.8762522988	 3.4115345696	-0.4073226089	-0.064587
C	-0.843920713	 4.8041714866	 0.2737813193	-0.076123
C	-0.0385846839	 4.8683100399	 1.5083457773	-0.231719
N	 0.707712364	 4.7959465792	 0.2136114351	-0.194354
C	 0.5837493903	 3.3977573066	-0.1162117748	 0.343695
C	 1.133874781	 2.1947102998	 0.072292967	-0.353692
H	-2.0867567514	 1.5431145655	-0.6050231408	 0.126754
H	-1.7220594588	 2.0153777966	 1.0602262674	 0.13428
H	-1.0639195059	 3.5784326568	-1.4733182817	 0.118448
H	-1.39630401	 5.665331023	-0.0856660258	 0.113709
H	 0.0573269062	 5.8384967748	 1.9857534305	 0.139966
H	 0.0264829025	 4.0184359439	 2.1818037142	 0.136723
H	 2.1434236206	 1.9215924419	 0.3441585199	 0.122372
110.0513	204.8535	265.6257	371.694	492.0318	508.906	553.387	610.763	659.2845	690.252	729.0559	777.2063	817.1247	874.4473	878.2807	916.5873	975.9869	1011.8563	1056.4601	1084.6258	1096.6935	1110.9284	1124.5304	1140.5912	1164.2433	1178.392	1217.5427	1235.4623	1286.3099	1340.5446	1367.2923	1459.2933	1497.6623	1676.0217	1820.0471	3053.8296	3057.8526	3121.5612	3121.9154	3180.3205	3213.5645	3240.4148
O=C1CC2C3CN3C2=C1	O=C1C[C@H]2[C@H]3CN3[C]2[CH]1	
InChI=1S/C7H7NO/c9-4-1-5-6(2-4)8-3-7(5)8/h2,5,7H,1,3H2	InChI=1S/C7H7NO/c9-4-1-5-6(2-4)8-3-7(5)8/h2,5,7H,1,3H2/t5-,7-,8?/m1/s1
