16
gdb 61692	2.17257	1.26581	1.02478	3.5564	79.75	-0.2664	-0.0033	0.2631	1232.1462	0.119248	-400.661677	-400.651698	-400.650754	-400.696501	36.03	
C	-0.0095895404	 1.5887338735	-0.0279580927	-0.400842
C	-0.0040142181	 0.0454007865	 0.0221845405	-0.018648
O	 0.7576649605	-0.3946611031	 1.1738807683	-0.215678
C	 0.1959521304	-0.2608248988	 2.398344609	 0.129903
N	 0.9101744574	-0.4377250926	 3.4229343831	-0.441649
C	-1.3812157742	-0.4780446646	 0.0390929929	 0.334615
C	-2.5142931483	-0.8765543452	 0.0418074748	-0.472232
C	 0.7052067975	-0.4937714981	-1.1442936268	 0.33529
C	 1.2774625463	-0.8951805553	-2.1192031531	-0.426744
H	 1.0221355913	 1.9458232819	-0.0203684166	 0.14892
H	-0.5078816981	 1.933188073	-0.9362502446	 0.143809
H	-0.5396138026	 1.9887680866	 0.8399048442	 0.129926
H	-0.8739946669	-0.0288010945	 2.3758677541	 0.104737
H	 0.3407947579	-0.3371898397	 4.2611615055	 0.229483
H	-3.5107819258	-1.2457717331	 0.0375571088	 0.211727
H	 1.7860542931	-1.2660325666	-2.9751006974	 0.207383
77.136	116.7999	124.4126	141.1708	179.3514	219.7618	248.7002	311.574	386.2613	468.3551	473.0384	509.2737	559.4415	622.2077	643.4525	645.5667	680.0947	683.5526	757.1918	821.4591	917.6691	952.5083	1047.3079	1058.7624	1096.2955	1156.1582	1220.4843	1288.222	1399.7518	1422.8764	1481.3132	1483.6867	1740.3688	2234.9023	2251.5519	3055.2845	3068.7136	3139.1123	3149.7243	3497.1095	3500.9711	3512.1506
CC(OC=N)(C#C)C#C	CC(O[CH][NH])(C#C)C#C	
InChI=1S/C7H7NO/c1-4-7(3,5-2)9-6-8/h1-2,6,8H,3H3	InChI=1S/C7H7NO/c1-4-7(3,5-2)9-6-8/h1-2,6,8H,3H3
