19
gdb 73433	2.98402	1.97461	1.461	1.3891	77.59	-0.2103	0.0774	0.2877	939.7904	0.160546	-385.829284	-385.822142	-385.821198	-385.860521	29.471	
C	-0.0480288263	 1.4354119481	 0.0079239459	-0.447178
C	 0.0185782773	-0.0726424616	-0.0085014485	 0.434339
O	-1.1346530061	-0.5570759714	-0.6406578331	-0.318306
C	-1.2618311298	-1.9679813371	-0.7570559724	-0.085055
C	-0.1010942789	-2.7269878479	-0.1637906731	-0.079462
C	 1.3189353961	-2.2333755818	-0.2507235915	-0.095903
C	 0.6037219541	-2.2795470675	 1.0894921971	-0.095903
C	 0.6573616947	-0.7328565496	 1.1831721483	-0.149695
C	 1.3823580275	-0.6860531032	-0.1753405296	-0.149695
H	 0.8349764435	 1.859339996	 0.4936002876	 0.115593
H	-0.1049459152	 1.8223484289	-1.0139675556	 0.124994
H	-0.9387927381	 1.7685143844	 0.5490387534	 0.124991
H	-2.1971897589	-2.2688616772	-0.2618648965	 0.096761
H	-1.3634031008	-2.2150937115	-1.8244144739	 0.096764
H	-0.2003755225	-3.8059237324	-0.2539434085	 0.089555
H	 2.1339760997	-2.8491763551	-0.6078473302	 0.087332
H	 0.7789820304	-2.9366482242	 1.9312411397	 0.087332
H	 0.8878375876	-0.199684237	 2.0979421148	 0.081768
H	 2.2547473256	-0.1114546299	-0.4633841138	 0.081768
104.8654	209.209	244.8886	315.947	407.4555	489.8825	516.5843	563.1681	641.0783	712.465	720.3981	763.1365	807.7048	829.3968	878.8284	888.9337	906.3752	958.0585	977.6712	984.2122	1019.2784	1046.6357	1052.4309	1063.8774	1095.652	1107.9535	1121.6806	1173.4354	1186.0112	1237.5265	1241.3746	1264.9677	1280.0705	1330.7749	1376.2546	1413.7001	1440.3095	1452.6074	1478.5709	1504.5387	1525.3802	2980.5369	3003.959	3041.2465	3110.302	3121.2773	3143.4929	3169.0479	3178.8176	3189.3714	3200.2774
CC12OCC3C4C3C1C24	C[C@]12OC[C@H]3[C@@H]4[C@H]3[C@H]1[C@H]24	
InChI=1S/C8H10O/c1-8-6-4-3(2-9-8)5(4)7(6)8/h3-7H,2H2,1H3	InChI=1S/C8H10O/c1-8-6-4-3(2-9-8)5(4)7(6)8/h3-7H,2H2,1H3/t3-,4+,5-,6+,7-,8+
