17
gdb 87597	3.51333	1.31306	1.19355	0.8882	74.01	-0.2483	-0.0173	0.231	1084.9681	0.135263	-421.792392	-421.78476	-421.783816	-421.824413	29.721	
C	-0.0555927378	 1.5228327179	-0.1388884196	-0.423383
C	-0.0273668947	 0.0311119712	 0.0710717912	 0.004917
O	 1.2342138289	-0.6304372813	-0.0642795008	-0.302956
C	 0.6041514439	-0.6287061987	 1.229393634	 0.404844
C	 1.2836307235	 0.0408043533	 2.3772255204	-0.166766
C	 1.289007248	-0.7490874932	 3.4577979453	-0.096589
C	 0.5717269117	-2.0303915551	 3.1728517734	-0.01222
O	-0.8234004827	-1.8437839659	 2.8241407517	-0.255482
C	 0.1343759197	-1.9611181722	 1.7703111804	-0.077629
H	 0.7985613638	 2.0104284078	 0.3355999181	 0.128113
H	-0.0267176862	 1.7532467623	-1.2089087853	 0.13239
H	-0.9774482834	 1.9470790925	 0.2722790968	 0.131399
H	-0.8549356873	-0.5099320946	-0.3929231814	 0.094534
H	 1.6873505264	 1.0431595313	 2.31867599	 0.113392
H	 1.7113109435	-0.5020490308	 4.4235013358	 0.11246
H	 0.7952815595	-2.9537504612	 3.6970341605	 0.103975
H	 0.0366814431	-2.8133666536	 1.1036767796	 0.109002
114.104	158.1397	198.5816	234.8537	356.1203	398.9882	422.2469	501.3234	540.4094	623.6264	753.0037	763.1533	805.1496	836.1812	852.9458	871.5567	936.7764	946.2045	969.8379	991.5062	1026.4136	1035.4027	1096.6581	1111.7165	1132.9134	1164.5062	1234.3853	1239.2486	1300.78	1321.5098	1382.2849	1400.9884	1409.538	1466.8457	1487.77	1508.3219	1643.9153	3041.5959	3084.65	3104.9153	3133.946	3157.4493	3174.2477	3208.2302	3230.6306
CC1OC11C=CC2OC12	C[C@H]1O[C@]21C=C[C@H]1O[C@@H]21	
InChI=1S/C7H8O2/c1-4-7(9-4)3-2-5-6(7)8-5/h2-6H,1H3	InChI=1S/C7H8O2/c1-4-7(9-4)3-2-5-6(7)8-5/h2-6H,1H3/t4-,5-,6-,7+/m1/s1
