18
gdb 111171	4.16435	1.02917	0.95399	1.9254	72.92	-0.2414	0.0635	0.3049	1260.5234	0.147048	-438.961316	-438.953133	-438.952189	-438.994234	31.343	
O	 0.0808624322	 1.4233702657	-0.1386787208	-0.420083
C	 0.0499856668	 0.0328154685	 0.164030617	-0.119896
C	-1.363309816	-0.5211726649	 0.1278982293	 0.013452
C	-2.004169772	-0.8441624003	-1.2580915253	-0.09059
O	-1.0643189393	-1.9828145404	-1.4021612247	-0.313361
C	-1.5586436304	-2.0605367212	 0.001762783	-0.078339
C	-2.9703902639	-1.7972143111	-0.5408690344	 0.477709
C	-4.3437074228	-1.706180381	-0.027701753	-0.344161
N	-3.9364547653	-2.7386684278	-1.0254397206	-0.394031
H	-0.0883871161	 1.5197159394	-1.0808397832	 0.283144
H	 0.6940453624	-0.5473443068	-0.5065135306	 0.113064
H	 0.4499666597	-0.0562291758	 1.1799162729	 0.109631
H	-2.0199655363	-0.0103061955	 0.8385177722	 0.083924
H	-2.1638168517	-0.2049930763	-2.1287099048	 0.091444
H	-1.1843833563	-2.8719835089	 0.6250093413	 0.104892
H	-4.6048165454	-2.1021419469	 0.9497317727	 0.127437
H	-4.961021203	-0.8745166329	-0.3594887352	 0.118096
H	-4.2624298624	-2.4961862539	-1.9577093258	 0.237669
82.2999	127.4877	174.8485	269.4078	276.8617	321.9068	333.5695	425.9049	508.9002	614.9427	720.133	750.1717	756.9179	829.7355	867.994	895.6818	907.8554	936.4095	966.9858	1013.2126	1040.6172	1065.7112	1092.1683	1106.5384	1116.347	1130.6086	1143.9641	1177.0906	1191.2244	1229.9107	1243.2683	1246.9008	1261.6926	1359.4287	1405.1298	1418.1509	1453.5828	1504.4213	1533.232	3036.563	3068.7481	3087.0802	3100.8778	3104.9442	3132.2139	3189.7605	3503.1689	3822.2191
OCC1C2OC1C21CN1	OC[C@H]1[C@H]2O[C@@H]1[C@]12CN1	
InChI=1S/C6H9NO2/c8-1-3-4-6(2-7-6)5(3)9-4/h3-5,7-8H,1-2H2	InChI=1S/C6H9NO2/c8-1-3-4-6(2-7-6)5(3)9-4/h3-5,7-8H,1-2H2/t3-,4+,5-,6+
