17
gdb 11430	4.45932	1.39496	1.26346	4.0208	66.41	-0.253	0.0317	0.2847	1008.6906	0.142601	-401.00871	-401.000908	-400.999964	-401.041302	28.294	
C	-0.4173757596	 0.987712439	-0.0849262189	-0.240621
O	 0.1501514148	-0.2963527318	 0.0447753267	-0.242063
C	 0.9500824435	-0.4646327569	 1.1981973335	 0.102719
C	 0.1116235856	-0.7343055651	 2.4627766247	-0.101322
O	-0.128205892	-2.1465753511	 2.4796485107	-0.236923
C	 0.7767754885	-2.7993684231	 1.685090957	 0.42791
N	 0.8214807595	-4.0493941181	 1.5251286828	-0.544199
C	 1.7052717984	-1.7860919592	 1.0526471197	-0.322816
H	 0.3574157517	 1.7698720932	-0.1108079656	 0.108499
H	-0.966512661	 1.0012439623	-1.028913474	 0.136787
H	-1.1188957789	 1.2259734832	 0.728478047	 0.107039
H	 1.6120673196	 0.4025477736	 1.331717856	 0.072117
H	 0.6551501424	-0.4444521709	 3.3713925848	 0.108973
H	-0.8550737569	-0.225641653	 2.4527075	 0.121801
H	 0.0933147222	-4.5066875282	 2.0766345943	 0.221228
H	 1.924872767	-2.0280499093	 0.0135698654	 0.149872
H	 2.6471733451	-1.7596206348	 1.6104658461	 0.131001
73.7348	109.0428	154.4596	210.0765	291.6971	366.0638	413.2439	484.2848	521.3388	687.8456	786.874	823.4422	869.9068	880.1623	895.9013	960.6707	993.6263	1054.7493	1080.9608	1113.6184	1139.9447	1181.3443	1185.7554	1211.9711	1263.1509	1272.716	1278.8226	1326.3441	1384.3528	1408.4201	1453.8827	1479.8746	1490.3882	1504.3031	1510.8435	1784.2673	2976.0496	3003.6111	3023.6124	3028.1836	3066.1743	3105.6026	3121.5561	3149.8222	3472.0951
COC1COC(=N)C1	CO[C@H]1CO[C]([NH])C1	
InChI=1S/C5H9NO2/c1-7-4-2-5(6)8-3-4/h4,6H,2-3H2,1H3	InChI=1S/C5H9NO2/c1-7-4-2-5(6)8-3-4/h4,6H,2-3H2,1H3/t4-/m1/s1
