19
gdb 110808	2.40025	1.38946	1.07196	3.6254	80.1	-0.2487	0.0236	0.2724	1189.5295	0.159574	-382.038678	-382.030049	-382.029105	-382.072372	32.236	
C	-0.2175068922	 1.6023338922	-0.2962502891	-0.377629
C	 0.0015301748	 0.1959043572	 0.2549585444	-0.132883
N	-1.2335934915	-0.5775595618	 0.143430275	-0.058657
C	-1.6365953328	-1.3112268807	-1.028783839	-0.044664
C	-0.4704062854	-2.0503744307	-1.7166206884	-0.277378
C	-0.2088328342	-2.8223170894	-0.3756298913	-0.160581
C	 1.1191665937	-2.8106111112	 0.2205629568	 0.279332
N	 2.175236326	-2.808696372	 0.6926007519	-0.340686
C	-1.3503622639	-1.9977223447	 0.290166854	-0.073089
H	 0.6861547074	 2.206306923	-0.1730811388	 0.119352
H	-0.4595111224	 1.5720104914	-1.3639536193	 0.116832
H	-1.0434875645	 2.096249019	 0.222855686	 0.127762
H	 0.8587112779	-0.2707030155	-0.2491122935	 0.109011
H	 0.2535480325	 0.2390247204	 1.3197780763	 0.118377
H	-2.5887970569	-1.0817269309	-1.4935999955	 0.104526
H	-0.7945622012	-2.7255322324	-2.5096645238	 0.122429
H	 0.3478334888	-1.4314953176	-2.0907672035	 0.12596
H	-0.5254780984	-3.8634564062	-0.4809847333	 0.133459
H	-2.0158306875	-2.4029892502	 1.0444967012	 0.108529
63.5915	103.2513	148.8086	208.478	225.1798	297.3504	329.2663	465.3217	485.9663	531.119	609.0392	711.1356	759.0015	802.7681	833.305	844.7577	884.0806	942.5084	976.02	1003.9289	1029.5705	1037.4365	1069.632	1089.4511	1120.5575	1129.7722	1176.5976	1195.4016	1248.5502	1260.3306	1283.9866	1310.6404	1331.751	1381.4324	1401.7952	1418.9156	1479.6131	1490.6718	1499.39	1515.4936	2347.7641	3013.7069	3040.0638	3070.1203	3077.5237	3081.0692	3109.7417	3122.9385	3135.8084	3169.4879	3180.9874
CCN1C2CC(C#N)C12	CCN1[C@H]2C[C@@H](C#N)[C@@H]12	
InChI=1S/C7H10N2/c1-2-9-6-3-5(4-8)7(6)9/h5-7H,2-3H2,1H3	InChI=1S/C7H10N2/c1-2-9-6-3-5(4-8)7(6)9/h5-7H,2-3H2,1H3/t5-,6-,7+,9?/m0/s1
