13
gdb 131235	4.39298	0.98171	0.85679	2.6158	65.36	-0.245	-0.0252	0.2199	1257.6848	0.090206	-448.925308	-448.917615	-448.916671	-448.958625	27.406	
O	 0.4544842452	 1.2794072978	-0.1242353971	-0.420195
C	 0.1663047726	-0.0308533354	-0.0948166667	 0.383645
C	 0.4660973157	-0.9853277514	-1.0391645349	-0.192956
N	-0.0540471961	-2.1228525154	-0.496223381	 0.074925
C	-0.0880175318	-3.4674853755	-1.0345709865	-0.27548
C	 1.2492712583	-4.001989266	-1.3135851966	 0.273065
N	 2.2947231685	-4.4256920888	-1.5585520341	-0.286921
N	-0.6315484018	-1.8847374365	 0.6910419525	-0.138498
N	-0.4985304363	-0.6078984272	 0.9356240229	-0.274767
H	 0.1117656347	 1.6616767706	 0.6940053326	 0.312906
H	 0.9849913917	-0.9577275301	-1.9804840869	 0.165496
H	-0.5901376545	-4.0832364527	-0.2839428135	 0.198747
H	-0.681834686	-3.4973232194	-1.9550087207	 0.180033
41.7762	87.6327	214.379	291.3044	364.3526	374.3506	384.815	453.1154	481.2771	651.8549	693.7379	705.0315	757.363	816.6969	942.7959	970.9366	1040.4262	1050.4441	1154.8917	1185.8824	1230.9597	1287.6049	1353.8682	1383.8439	1415.295	1457.125	1508.3632	1659.217	2373.4426	3052.9459	3117.387	3300.3276	3792.3476
OC1=CN(CC#N)N=N1	Oc1cn(CC#N)nn1	
InChI=1S/C4H4N4O/c5-1-2-8-3-4(9)6-7-8/h3,9H,2H2	InChI=1S/C4H4N4O/c5-1-2-8-3-4(9)6-7-8/h3,9H,2H2
