14
gdb 123705	4.21456	1.69674	1.32551	5.1015	66.22	-0.2356	0.0056	0.2412	896.9815	0.103919	-432.827455	-432.821494	-432.82055	-432.85779	23.86	
C	-0.026551658	 1.4695346999	 0.1174460693	-0.334708
C	 1.286230958	 0.7426311872	 0.0031901528	 0.062397
O	 2.011347813	 0.4425127472	 1.1980806476	-0.265407
C	 1.2158289146	-0.3797049756	 1.9209058358	 0.388072
C	 1.1412314362	-1.0280971981	 3.1269908651	-0.199129
N	-0.0402332272	-1.7247833935	 3.1220979732	-0.183067
N	-0.6978625544	-1.5295946477	 2.0110550916	-0.181534
N	 0.0843617003	-0.7095499224	 1.2666332942	 0.036763
C	-0.0168137946	-0.0425563747	 0.0049738469	-0.02649
H	-0.3113811995	 1.904617147	 1.0687257206	 0.153236
H	-0.33611741	 2.0241923893	-0.7613490257	 0.141093
H	 1.93964772	 0.863800891	-0.8498933736	 0.13478
H	 1.8204019762	-1.0529997496	 3.9603797257	 0.131568
H	-0.4316379646	-0.5928377001	-0.8286645136	 0.142425
135.6889	264.289	372.2687	436.8272	470.8952	641.8884	694.5513	711.8643	732.3797	782.7415	792.7568	801.5273	826.956	957.4668	978.3001	997.8069	1043.8305	1067.9367	1082.5919	1106.0917	1121.2589	1164.3932	1185.9105	1229.1643	1281.2467	1327.3815	1348.5826	1387.0073	1459.2631	1497.7992	1613.7624	3142.0189	3209.8445	3216.2111	3237.9632	3294.7322
C1C2OC3=CN=NN3C12	C1[C@H]2Oc3cnnn3[C@@H]12	
InChI=1S/C5H5N3O/c1-3-4(1)9-5-2-6-7-8(3)5/h2-4H,1H2	InChI=1S/C5H5N3O/c1-3-4(1)9-5-2-6-7-8(3)5/h2-4H,1H2/t3-,4+/m0/s1
