20
gdb 85965	3.17688	1.13159	0.96424	1.8388	76.68	-0.2248	-0.0191	0.2057	1296.9673	0.16788	-440.275705	-440.265807	-440.264862	-440.311092	36.263	
C	-0.1014791586	 1.45501585	-0.0947857241	-0.322852
N	-0.0327354271	 0.0249966008	 0.1123134945	-0.093696
C	-1.2410889429	-0.6769781649	 0.5918980886	-0.216312
C	-0.3156951659	-1.6236801716	 1.4147069733	 0.290975
O	 0.027331663	-2.8178781522	 0.7488454945	-0.501097
C	 0.7373676016	-0.4842874042	 1.2657956768	-0.216317
C	-0.7691377776	-1.9407991754	 2.8359984569	 0.351406
C	-0.7777183585	-3.3887038488	 3.2664885312	-0.475476
O	-1.104865523	-1.0361136796	 3.5679853248	-0.313303
H	 0.8897000394	 1.8391864531	-0.3582971584	 0.121824
H	-0.7785528242	 1.6767116191	-0.9265836651	 0.121813
H	-0.4584575789	 2.0039891239	 0.7962127709	 0.10173
H	-1.8739440839	-0.0672642919	 1.2529997882	 0.111067
H	-1.8506444706	-1.1508586724	-0.1855005987	 0.10198
H	 0.3070300266	-2.5768415827	-0.1415771884	 0.291081
H	 1.7635453859	-0.7987778331	 1.0455199232	 0.101969
H	 0.7233272676	 0.18562503	 2.137751511	 0.111121
H	 0.2244851194	-3.8172717121	 3.1653913486	 0.15036
H	-1.1227941103	-3.4593233964	 4.2982526897	 0.133428
H	-1.4225501718	-3.9746075113	 2.6037532625	 0.150298
29.6232	73.191	156.8446	197.9994	245.6167	258.1854	296.3425	313.5967	348.6046	382.0963	409.2918	441.4228	540.2701	600.1926	603.2021	725.0756	896.5165	906.2782	930.8433	962.8914	985.6432	1005.8395	1034.9097	1085.4115	1117.6281	1131.1016	1199.1044	1203.8051	1212.503	1222.9364	1264.6324	1289.2811	1326.3239	1378.5347	1409.2899	1450.3132	1455.4449	1463.3611	1484.5516	1487.6595	1499.3389	1518.0261	1804.2926	2938.5438	2993.2689	3002.7241	3048.0246	3058.1086	3066.3595	3066.4232	3098.4803	3109.6692	3159.5776	3801.7187
CN1CC(O)(C1)C(C)=O	CN1CC(O)(C1)C(=O)C	
InChI=1S/C6H11NO2/c1-5(8)6(9)3-7(2)4-6/h9H,3-4H2,1-2H3	InChI=1S/C6H11NO2/c1-5(8)6(9)3-7(2)4-6/h9H,3-4H2,1-2H3
