13
gdb 129423	5.04931	1.0375	0.99519	3.3006	60.37	-0.2568	-0.0241	0.2327	1159.5433	0.089953	-486.060777	-486.053113	-486.052169	-486.094111	27.454	
N	-0.1209089179	 1.2851115032	 0.2592595932	-0.555075
C	 0.0700119192	-0.0526869217	 0.0109308088	 0.454484
N	 0.956136999	-0.6625416295	-0.6509409108	-0.531724
O	-0.8906153781	-0.7560416328	 0.7127031162	-0.269923
C	-0.9687712447	-2.0825249423	 0.4905840621	 0.495464
N	-0.6490957731	-2.9355356856	 1.4251813041	-0.182082
O	-0.9788218248	-4.1616254137	 0.8377703488	-0.153515
C	-1.4557985045	-3.8796966934	-0.3772055563	 0.124076
N	-1.4876104858	-2.6184175157	-0.6605194799	-0.306041
H	 0.3223585623	 1.9234138157	-0.3803178863	 0.262826
H	-1.0462167465	 1.5533501672	 0.5569829034	 0.268669
H	 1.5987636325	-0.0243202195	-1.1119209199	 0.221704
H	-1.7684472077	-4.7128388318	-0.9893603034	 0.171137
50.3529	70.0172	132.9315	342.8404	366.5187	393.8774	460.2826	472.5868	583.647	627.8984	704.5114	724.8383	782.0085	844.3802	903.1932	934.9565	961.3778	979.2806	1052.7023	1075.0083	1117.6728	1144.3184	1309.8588	1374.1436	1403.0198	1543.0502	1615.4177	1633.2307	1773.1521	3267.1106	3535.981	3593.9435	3710.7784
NC(=N)OC1=NOC=N1	NC(=N)Oc1nocn1	
InChI=1S/C3H4N4O2/c4-2(5)9-3-6-1-8-7-3/h1H,(H3,4,5)	InChI=1S/C3H4N4O2/c4-2(5)9-3-6-1-8-7-3/h1H,(H3,4,5)
