16
gdb 49449	5.12486	1.17837	1.12482	3.0545	70.05	-0.2384	0.0118	0.2503	1071.6392	0.125481	-437.832863	-437.82612	-437.825176	-437.864259	26.297	
O	 0.1021319278	 0.0828511542	-0.51791026	-0.314778
C	 0.0806947072	 1.2416973855	-0.166648821	 0.131487
N	 1.1048859813	 1.8859865272	 0.478943932	-0.077128
C	 2.5538118437	 1.6297983328	 0.2474486509	-0.073037
C	 2.5795613652	 2.6697743153	-0.934925911	-0.071223
C	 3.8949733227	 3.4203672613	-0.827193249	-0.110652
O	 4.0184383008	 3.5545582482	 0.6065336387	-0.274304
C	 2.8668573047	 2.9167069862	 1.079681984	 0.141185
C	 1.6328186744	 3.2500678802	 0.1787202339	-0.092715
H	-0.8192580249	 1.8852949932	-0.2497781154	 0.074169
H	 2.9906781033	 0.6357891491	 0.2983821947	 0.115541
H	 2.1794994151	 2.395995695	-1.9096411495	 0.102744
H	 4.7501534311	 2.8611865304	-1.2234255605	 0.119326
H	 3.8731084916	 4.4127480952	-1.291860908	 0.116487
H	 2.8003452526	 2.9269401106	 2.1647870575	 0.111963
H	 1.0040893333	 4.1394039656	 0.1590926325	 0.100935
94.5243	171.0593	266.6297	309.1803	406.479	476.435	603.7147	703.3268	722.868	753.4707	790.3406	826.2938	904.9116	944.6849	967.629	980.064	984.7863	1020.8294	1030.9124	1049.4995	1085.6588	1137.4774	1147.4913	1154.3857	1177.1099	1203.7707	1214.4315	1221.6481	1273.2788	1321.7881	1374.2308	1394.8295	1421.013	1519.0308	1790.6749	2923.1579	3032.0902	3073.7303	3129.8059	3146.5523	3159.734	3170.3332
O=CN1C2C3COC2C13	O=CN1[C@H]2[C@@H]3CO[C@H]2[C@H]13	
InChI=1S/C6H7NO2/c8-2-7-4-3-1-9-6(4)5(3)7/h2-6H,1H2	InChI=1S/C6H7NO2/c8-2-7-4-3-1-9-6(4)5(3)7/h2-6H,1H2/t3-,4-,5+,6+
