17
gdb 51109	4.38724	1.05516	0.98818	2.6503	74.44	-0.2229	0.0198	0.2427	1217.9912	0.135552	-417.904307	-417.896514	-417.895569	-417.937143	29.966	
N	-0.1224410238	 1.3026822942	-0.0528689654	-0.438753
C	-0.1236056555	 0.0525793645	-0.2130869871	 0.10066
O	-1.1221295297	-0.6906190918	 0.3280470304	-0.224008
C	-1.0071257516	-2.0681280773	 0.1872151043	 0.429057
C	-1.1168732593	-2.800268064	-1.120188252	-0.34976
C	-2.1234403878	-3.0616515162	-0.0131700488	-0.153026
C	-1.5258817124	-3.9258350157	 1.1389028383	-0.046464
N	-0.1267070981	-4.2949405251	 0.7941544494	-0.337131
C	-0.4378041759	-2.953113208	 1.3446768522	-0.133018
H	 0.6794210775	 1.71100628	-0.5290765956	 0.23094
H	 0.6066275916	-0.5481368946	-0.7686641112	 0.099767
H	-1.5219241531	-2.1908479674	-1.9224032203	 0.121513
H	-0.3945279114	-3.5514304386	-1.4122276666	 0.147057
H	-3.1808913482	-2.8736535519	-0.1371698795	 0.110267
H	-2.098567574	-4.4962248866	 1.8576260789	 0.102236
H	 0.2346389297	-4.8600717592	 1.5625161754	 0.234074
H	 0.013203272	-2.5726419423	 2.2517047873	 0.10659
63.1544	114.7678	142.0257	325.2563	339.2723	391.9017	422.4213	494.4485	580.5325	725.4364	738.6226	802.5265	820.6552	827.2592	844.1647	880.1155	911.5205	927.6725	970.0286	984.9465	1024.2724	1052.8299	1053.0229	1067.0154	1098.2953	1098.9978	1126.1542	1194.9981	1217.0961	1274.3757	1292.8078	1305.2745	1340.7351	1382.6956	1411.5267	1466.7313	1745.3006	3050.588	3139.3874	3198.3964	3209.9801	3217.2679	3237.4491	3472.4162	3516.1889
N=COC12CC1C1NC21	[NH][CH]O[C@]12C[C@H]1[C@H]1N[C@@H]21	
InChI=1S/C6H8N2O/c7-2-9-6-1-3(6)4-5(6)8-4/h2-5,7-8H,1H2	InChI=1S/C6H8N2O/c7-2-9-6-1-3(6)4-5(6)8-4/h2-5,7-8H,1H2/t3-,4+,5+,6+/m0/s1
