19
gdb 72710	2.67171	2.06739	1.62015	1.6419	79.97	-0.2237	0.0089	0.2325	909.4036	0.159045	-385.758828	-385.751642	-385.750698	-385.789627	30.694	
C	-0.0965139597	 1.5419739881	-0.0760608963	-0.453565
C	 0.0174064179	 0.0319484913	 0.0692708811	 0.473514
O	-1.2281657483	-0.405344957	 0.7563579347	-0.35604
C	-0.4387211426	-0.4595635159	 2.0081771138	-0.208931
C	 0.8118563616	-0.6946984912	 1.1289580743	 0.141617
C	 2.1045102157	-0.213796233	 0.3467476485	-0.315045
C	 1.134156808	-0.5956814089	-0.9046063424	-0.181566
C	 0.9780433736	-2.0846172695	-0.6828300226	-0.081206
C	 0.7524475928	-2.1558736321	 0.6267805817	-0.087903
H	 0.7607206072	 1.9941901101	-0.5803611357	 0.114972
H	-0.9826708777	 1.733244337	-0.6917840606	 0.135695
H	-0.2530660804	 2.0510675894	 0.8796911003	 0.119444
H	-0.4994811894	 0.4907313783	 2.5487454259	 0.106577
H	-0.7601251735	-1.2854005629	 2.6486438162	 0.11103
H	 2.3469960177	 0.8466302925	 0.4345726141	 0.110088
H	 2.9997019478	-0.8321008234	 0.4367509562	 0.108253
H	 1.3285265128	-0.2062057225	-1.9057629776	 0.066023
H	 1.0230695715	-2.8580242174	-1.435424214	 0.102443
H	 0.5608951749	-3.0060020729	 1.2673696023	 0.094599
193.3508	247.8377	287.1586	325.8677	385.6962	433.9062	474.9504	533.1307	559.9844	620.8261	685.0639	722.0124	768.0927	806.7441	830.6355	875.8137	882.9287	905.3818	911.551	944.0955	967.6126	986.7075	1046.4709	1074.185	1095.8722	1106.8792	1119.4087	1145.8271	1164.9154	1196.4974	1206.6165	1220.1767	1265.0921	1290.7509	1327.7671	1409.0978	1475.4183	1488.0086	1497.7337	1513.8289	1640.4815	3035.8341	3042.7447	3071.5581	3098.0317	3101.024	3103.713	3117.9701	3145.1129	3215.282	3246.9454
CC12OCC11CC2C=C1	C[C@]12OC[C@@]31C[C@H]2C=C3	
InChI=1S/C8H10O/c1-7-6-2-3-8(7,4-6)5-9-7/h2-3,6H,4-5H2,1H3	InChI=1S/C8H10O/c1-7-6-2-3-8(7,4-6)5-9-7/h2-3,6H,4-5H2,1H3/t6-,7-,8+/m1/s1
