17
gdb 23405	2.85943	1.42172	1.37301	1.6243	71.38	-0.2309	0.0015	0.2324	1014.912	0.138399	-455.079803	-455.072405	-455.071461	-455.111646	28.997	
O	-0.1496212212	 1.3269029706	-0.0556194707	-0.393072
N	-0.0063290313	-0.0748192622	 0.0134228377	-0.297528
C	-1.1274067531	-0.6562026033	 0.034660509	 0.47711
C	-1.4305564557	-2.1386192791	 0.0213194697	-0.139011
C	-2.3742185348	-2.203851385	 1.2326813903	-0.055843
O	-3.0821609827	-0.9382642654	 1.185189142	-0.289461
C	-2.5850136116	-0.2384224732	 0.0335131423	 0.002438
C	-3.0794394552	-0.9879433451	-1.2204752614	-0.18022
N	-2.2900117807	-2.2695395792	-1.1846083547	-0.308755
H	 0.7666130874	 1.6239967996	-0.0357700228	 0.307234
H	-0.5976906211	-2.837840037	 0.0291761982	 0.092575
H	-3.0856189619	-3.0307026831	 1.1444326377	 0.114324
H	-1.8300106511	-2.2777720465	 2.1812788878	 0.109004
H	-2.8291498639	 0.817079779	 0.1103218787	 0.107597
H	-4.1517477546	-1.1914510011	-1.1456642947	 0.118495
H	-2.8903123563	-0.4181684082	-2.1365449645	 0.108107
H	-1.6919220223	-2.3130944509	-2.0030330547	 0.227006
110.4777	178.5161	196.9566	309.7716	352.0673	399.0439	416.7865	519.6234	617.3376	674.9753	721.1533	781.1489	824.3808	840.2239	881.2629	908.288	925.678	970.003	977.2704	1009.5168	1047.6515	1068.3459	1091.7315	1176.8226	1187.9875	1193.4166	1224.4507	1252.6244	1288.6532	1302.115	1357.8853	1368.3968	1409.5026	1433.2853	1499.7374	1511.3509	1804.8686	3031.6088	3040.7749	3086.3753	3089.4293	3155.2335	3174.1796	3523.4616	3815.7446
ON=C1C2COC1CN2	ON=C1[C@H]2CO[C@@H]1CN2	
InChI=1S/C5H8N2O2/c8-7-5-3-2-9-4(5)1-6-3/h3-4,6,8H,1-2H2	InChI=1S/C5H8N2O2/c8-7-5-3-2-9-4(5)1-6-3/h3-4,6,8H,1-2H2/t3-,4-/m1/s1
