22
gdb 88383	2.06844	1.38519	1.23142	1.0937	88.14	-0.2161	0.0504	0.2665	1209.8208	0.190935	-367.146159	-367.135709	-367.134765	-367.18064	39.643	
C	-0.9082142007	 0.8098824193	 0.0265226908	-0.328999
N	 0.0584668397	-0.279939657	-0.00604208	-0.10023
C	 1.4007330939	-0.0222250636	-0.5140200996	-0.274005
C	 1.1818548067	-0.3683354528	 0.9191146735	 0.022945
C	 1.5180335895	 0.5820431799	 2.0862906096	 0.037823
C	 0.4639453145	 0.4163336798	 3.207873007	-0.401528
C	 2.9072156668	 0.1523932748	 2.6275960413	-0.398708
C	 1.6128539157	 1.9942009545	 1.7004482953	 0.325709
C	 1.7468379842	 3.1635130279	 1.450030551	-0.485804
H	-0.4933583063	 1.7892996305	 0.2941802055	 0.124524
H	-1.363338467	 0.8886468528	-0.9664046631	 0.118955
H	-1.7050321661	 0.5613623631	 0.7355941482	 0.118874
H	 1.799362085	-0.7533722173	-1.2138795377	 0.106998
H	 1.6766477311	 1.0105134318	-0.7218697609	 0.117602
H	 1.3731250002	-1.3988524378	 1.221913084	 0.086446
H	 0.3893956284	-0.6376049988	 3.4950920471	 0.115996
H	 0.7479065406	 0.9961269113	 4.0906853744	 0.121426
H	-0.5216642143	 0.7532836529	 2.8804178188	 0.129322
H	 3.6709792361	 0.2388573782	 1.8505512352	 0.128528
H	 3.1997792814	 0.7839600481	 3.4704400204	 0.12345
H	 2.8735236682	-0.8872837302	 2.9688712486	 0.114763
H	 1.8482372924	 4.1930805827	 1.2097202204	 0.195913
84.3645	146.8211	177.8007	184.3915	204.9098	232.5599	250.7678	267.9018	318.4426	329.3147	362.3248	433.1636	485.4006	563.138	618.2747	625.6077	636.5637	667.12	763.0712	847.074	918.3147	939.3469	949.9036	1004.2268	1034.378	1050.4106	1100.6583	1130.1159	1140.2867	1164.3626	1177.2322	1201.5994	1207.7686	1264.4232	1362.6885	1389.7648	1393.6063	1422.2334	1449.9276	1480.517	1484.5681	1491.6591	1496.9207	1507.0585	1508.7786	1514.0673	2223.3491	3016.2676	3038.4351	3042.3924	3081.9009	3086.0398	3089.1038	3092.1946	3110.4641	3115.6744	3125.6491	3133.5973	3172.4558	3499.6195
CN1CC1C(C)(C)C#C	CN1C[C@H]1C(C)(C)C#C	
InChI=1S/C8H13N/c1-5-8(2,3)7-6-9(7)4/h1,7H,6H2,2-4H3	InChI=1S/C8H13N/c1-5-8(2,3)7-6-9(7)4/h1,7H,6H2,2-4H3/t7-,9?/m0/s1
