21
gdb 119881	3.19361	0.9522	0.76937	2.1015	82.56	-0.2256	0.0249	0.2504	1526.9923	0.180804	-424.221164	-424.211275	-424.210331	-424.256765	35.025	
C	 0.046050595	 1.4069719443	 0.0461651657	-0.224955
O	 0.0164869671	-0.0000756769	 0.0477108189	-0.227718
C	 0.6295172948	-0.5607716963	-1.0882283839	-0.164711
C	 0.5491850239	-2.0498179204	-1.0311659352	 0.274331
C	-0.0433448773	-2.8040137049	-0.1118617237	-0.201489
C	 0.1616673022	-4.2550284477	-0.4326117611	-0.115708
O	 0.8781450755	-4.2675673154	-1.6646213478	-0.281408
C	 1.2074379851	-2.9353626845	-2.0666330084	 0.053942
C	 0.7455445213	-2.7078857347	-3.5072886302	-0.395159
H	 1.0772507921	 1.7946317817	 0.0375964419	 0.105416
H	-0.4846203336	 1.8267723117	-0.8232290633	 0.105414
H	-0.4499113142	 1.7443233777	 0.9592171342	 0.129721
H	 0.1468177538	-0.1874610566	-2.0106583507	 0.098754
H	 1.6885775944	-0.2450734777	-1.1553357297	 0.094424
H	-0.5811601976	-2.4442331689	 0.754240217	 0.114069
H	 0.7403205151	-4.7753499387	 0.3487760455	 0.100937
H	-0.7834141111	-4.8071033643	-0.5517716676	 0.104049
H	 2.3054165683	-2.8127575817	-2.031494656	 0.074341
H	-0.3450344098	-2.7654845151	-3.5746576869	 0.119415
H	 1.0712864312	-1.7284869693	-3.8744254434	 0.109014
H	 1.1746729236	-3.4746493625	-4.1580444952	 0.127324
71.1983	72.7578	90.6751	130.2394	212.2606	233.5618	242.5218	259.7695	343.567	368.6494	424.6503	554.8687	697.4551	771.5586	815.388	832.5021	880.3216	946.0074	997.3323	1025.4742	1042.2209	1050.4065	1079.6227	1114.6375	1118.1733	1161.491	1184.4135	1195.2809	1199.7912	1226.2491	1258.0952	1275.4352	1337.5307	1372.2109	1382.1277	1398.6145	1432.1823	1479.5294	1484.9513	1485.4896	1494.8992	1498.2091	1521.443	1522.9844	1736.9475	2919.4674	2930.1871	2936.0671	2963.8169	2969.7207	2989.4219	3012.9556	3035.0647	3107.3285	3117.348	3121.016	3237.5967
COCC1=CCOC1C	COCC1=CCO[C@H]1C	
InChI=1S/C7H12O2/c1-6-7(5-8-2)3-4-9-6/h3,6H,4-5H2,1-2H3	InChI=1S/C7H12O2/c1-6-7(5-8-2)3-4-9-6/h3,6H,4-5H2,1-2H3/t6-/m0/s1
