19
gdb 46382	3.58592	0.98742	0.85753	2.2412	77.15	-0.2278	-0.0255	0.2023	1391.5288	0.157606	-423.004412	-422.995621	-422.994676	-423.038875	32.458	
O	 0.2508094912	 0.1840869404	-0.5949888949	-0.295431
C	 0.1407209445	 1.3186094021	-0.229846198	 0.371625
C	-1.050625045	 2.235055095	 0.1052733843	-0.34292
C	-0.0684618197	 3.0654782013	 0.9867056103	-0.271839
C	 1.1431388267	 2.3721561349	 0.3070961206	 0.048849
O	 2.1646012005	 1.9521008753	 1.1660707483	-0.260559
C	 3.2300245373	 1.3247965671	 0.5024483435	 0.12875
C	 4.3089236156	 2.1858272261	-0.1041819613	-0.288332
C	 4.5574505923	 1.4122333285	 1.1770446402	-0.287075
H	-1.4087614216	 2.7757117328	-0.7765451866	 0.133543
H	-1.902296833	 1.7548792498	 0.5911458842	 0.135213
H	-0.1168190897	 4.1506964543	 0.8995457972	 0.112298
H	-0.1216536956	 2.7787309872	 2.0388157413	 0.130593
H	 1.5396698422	 2.9721738841	-0.5286107332	 0.090546
H	 2.9528690626	 0.404372146	-0.004731012	 0.117587
H	 4.7859828007	 1.8546833628	-1.0198747761	 0.116333
H	 4.1941542216	 3.2601872982	-0.01095048	 0.117838
H	 4.5929822832	 1.984377351	 2.0970103338	 0.125704
H	 5.2076323463	 0.5453525132	 1.1520752985	 0.117275
60.3158	75.0811	98.877	164.1585	213.5977	335.9482	364.2262	455.7841	457.689	576.374	682.7825	719.8791	763.78	769.2161	823.339	840.2791	916.585	930.4273	975.5023	985.1034	1014.8257	1049.8807	1073.1684	1073.8833	1096.5536	1141.6161	1157.7074	1188.4897	1194.9485	1197.8489	1226.0362	1243.552	1252.564	1263.1091	1351.6441	1405.9103	1444.4329	1453.4857	1486.7677	1496.6801	1886.6819	2971.1336	3063.3191	3086.8036	3122.6271	3134.8543	3141.5409	3147.7846	3149.0047	3219.8327	3235.5775
O=C1CCC1OC1CC1	O=C1CC[C@H]1OC1CC1	
InChI=1S/C7H10O2/c8-6-3-4-7(6)9-5-1-2-5/h5,7H,1-4H2	InChI=1S/C7H10O2/c8-6-3-4-7(6)9-5-1-2-5/h5,7H,1-4H2/t7-/m1/s1
