19
gdb 119205	1.8367	1.40694	0.93155	2.2712	79.38	-0.2402	0.0283	0.2685	1326.284	0.155286	-422.963374	-422.953298	-422.952354	-422.998498	37.071	
C	 0.0738341587	 1.5145166248	-0.2792551841	-0.389903
C	-0.1639684457	 0.0157676929	-0.3005498789	-0.054818
O	 0.8924601959	-0.5904076198	-1.0470399603	-0.299512
C	 0.8031710117	-1.9818799939	-1.1782144833	 0.151926
C	-0.1472790367	-2.5082749644	-2.2585000749	-0.375379
C	 1.3337657028	-2.44311492	-2.5251546993	 0.095974
O	 1.8626689352	-1.485805184	-3.3773197841	-0.4306
C	 1.0357094652	-2.7490542162	 0.0141138505	 0.323226
C	 1.2232059463	-3.3917557603	 1.0139384198	-0.470793
H	 1.0377649862	 1.7450592455	 0.1826879479	 0.133265
H	 0.0711218232	 1.9242609428	-1.2936986808	 0.124493
H	-0.7136909018	 2.0115083549	 0.2948295314	 0.122003
H	-0.1706194609	-0.3970586837	 0.7169274927	 0.112357
H	-1.1305264958	-0.2266075108	-0.7654329927	 0.09692
H	-0.6151568594	-3.4729050988	-2.0986160909	 0.126375
H	-0.7619491385	-1.7595741107	-2.7469552611	 0.123854
H	 1.891196827	-3.3737706937	-2.548072269	 0.117201
H	 1.74515744	-0.6342323823	-2.9331244311	 0.29562
H	 1.3997212866	-3.9595880423	 1.8937735382	 0.19779
65.6215	94.0714	139.4776	149.5342	161.0953	245.9457	300.0142	313.355	380.1232	395.206	443.1651	486.8793	549.3306	576.0077	627.1637	681.6303	707.3343	821.3047	825.7438	880.4622	921.4829	946.5197	1014.1694	1038.4496	1088.676	1100.1809	1144.9622	1147.7257	1188.2419	1245.6134	1261.2423	1296.3098	1352.0418	1401.2807	1423.1638	1432.6744	1465.5739	1484.5437	1500.4864	1527.5111	2228.6172	3000.1769	3040.667	3045.3892	3118.5812	3124.0194	3134.7186	3168.6879	3233.012	3501.3772	3743.0511
CCOC1(CC1O)C#C	CCO[C@]1(C[C@H]1O)C#C	
InChI=1S/C7H10O2/c1-3-7(9-4-2)5-6(7)8/h1,6,8H,4-5H2,2H3	InChI=1S/C7H10O2/c1-3-7(9-4-2)5-6(7)8/h1,6,8H,4-5H2,2H3/t6-,7+/m1/s1
