17
gdb 49489	2.21012	1.47705	1.05213	2.9249	81.36	-0.2472	-0.0316	0.2156	1160.2229	0.134955	-384.611071	-384.60297	-384.602026	-384.644146	30.959	
O	 0.1303841756	-0.0950967175	-0.47107485	-0.252229
C	 0.0572614367	 1.0578838785	-0.1212186289	 0.125341
C	 1.2570510281	 1.9563290058	-0.0427463252	-0.088746
C	 1.2185783137	 3.4126313709	-0.6262780251	-0.094392
C	 0.3378448033	 3.8502287764	 0.5770291591	-0.270379
C	 1.4547221689	 2.9370784015	 1.1869671442	 0.242051
C	 2.4553849313	 3.7130862903	 0.2651436381	-0.250681
C	 1.6344952168	 2.5640631686	 2.5593469101	 0.059964
C	 1.7835400127	 2.2488722983	 3.710605896	-0.349812
H	-0.923947415	 1.4974695153	 0.1561645756	 0.077817
H	 2.1435189471	 1.3729511512	-0.3044683547	 0.093339
H	 1.0833030877	 3.6744301326	-1.6744458268	 0.092695
H	 0.3973967589	 4.9047425331	 0.8566372393	 0.106746
H	-0.6903753381	 3.494219494	 0.6288323413	 0.110614
H	 3.3846994878	 3.1950863707	 0.0187271663	 0.108358
H	 2.6268855277	 4.7596438771	 0.5279991126	 0.104492
H	 1.9156769667	 1.9692757034	 4.7265951282	 0.184824
57.1138	133.7936	169.9976	249.5876	263.0344	421.6055	477.4219	495.35	548.1879	555.9343	607.7764	640.8485	646.0557	756.313	813.2479	890.948	946.8092	949.2044	960.4619	1008.9976	1023.8868	1060.1204	1097.7096	1124.7042	1138.5292	1157.8146	1162.1344	1214.7428	1228.5133	1232.2596	1276.1703	1341.12	1447.7059	1507.6121	1546.5733	1813.5349	2234.3134	2902.5164	3061.2632	3075.0811	3087.3553	3131.356	3132.6797	3147.3241	3500.607
O=CC1C2CC1(C2)C#C	O=C[C@H]1[C@H]2C[C@@]1(C2)C#C	
InChI=1S/C8H8O/c1-2-8-3-6(4-8)7(8)5-9/h1,5-7H,3-4H2	InChI=1S/C8H8O/c1-2-8-3-6(4-8)7(8)5-9/h1,5-7H,3-4H2/t6-,7-,8+/m0/s1
