19
gdb 56761	2.66937	1.30408	1.07166	1.2896	80.45	-0.2503	0.049	0.2993	1197.171	0.15706	-385.822873	-385.813832	-385.812888	-385.856744	34.202	
C	 0.1436275168	 1.4274001138	 0.1813358699	-0.397754
C	-0.1008136396	-0.0836597524	-0.0280063098	-0.286991
C	-1.5245861946	-0.4135055419	 0.0402445682	 0.32481
C	-2.6984421045	-0.6684238165	 0.0859178816	-0.467214
C	 0.4998143885	-0.5491073085	-1.3328768052	 0.456753
C	 0.0279870233	-0.278314625	-2.7747034014	-0.29597
C	 0.7079993315	-1.6294800013	-3.1959062092	-0.236899
C	 1.139178254	-1.8127494918	-1.7354409284	-0.050584
O	 1.927938919	-0.6622797519	-1.3824797328	-0.301749
H	 1.2163099986	 1.6344537636	 0.1462137212	 0.136473
H	-0.3528574306	 2.0114379854	-0.5987094881	 0.12911
H	-0.2492609352	 1.7488662645	 1.148811971	 0.126227
H	 0.4245021574	-0.6281466044	 0.7675541074	 0.115875
H	-3.7333291824	-0.9011698458	 0.1363131264	 0.197086
H	-1.058217472	-0.3052099713	-2.879602183	 0.120234
H	 0.4230479132	 0.63458178	-3.225697903	 0.107337
H	-0.0162852958	-2.3765950462	-3.5281728382	 0.108972
H	 1.5283198638	-1.5675172382	-3.9145109744	 0.111722
H	 1.3267539984	-2.7241118422	-1.178566122	 0.102562
59.3314	108.026	171.5582	194.6877	225.9111	261.3321	325.712	399.1687	481.7412	502.3861	549.099	629.3632	643.0225	670.7596	742.125	776.4002	859.7203	886.6841	921.0837	926.2737	948.5035	1001.7581	1005.0246	1053.3365	1089.5662	1100.2588	1151.6314	1202.2005	1213.5745	1218.9071	1261.6316	1280.4263	1309.4662	1319.6611	1401.8752	1449.0127	1463.5515	1490.4635	1495.0607	1499.0993	2236.1006	3024.5987	3047.8392	3067.6246	3075.2793	3120.7342	3124.5155	3131.4804	3138.3447	3182.0523	3503.3278
CC(C#C)C12CCC1O2	C[C@@H](C#C)[C@]12CC[C@H]1O2	
InChI=1S/C8H10O/c1-3-6(2)8-5-4-7(8)9-8/h1,6-7H,4-5H2,2H3	InChI=1S/C8H10O/c1-3-6(2)8-5-4-7(8)9-8/h1,6-7H,4-5H2,2H3/t6-,7+,8+/m0/s1
