22
gdb 120657	4.23066	0.77269	0.72247	1.9363	83.77	-0.2342	0.0697	0.3038	1661.2617	0.193074	-404.295358	-404.285735	-404.284791	-404.33057	35.093	
C	 0.1231904535	 1.5412287931	 0.1703027342	-0.382149
C	-0.0295473995	 0.0221417872	 0.2795838351	-0.168189
C	-1.3580831735	-0.477382462	-0.2880351272	-0.125041
N	-1.4436117787	-1.9334850381	-0.2115344847	-0.120682
C	-2.0143403687	-2.5028951532	 1.0138687958	-0.321817
C	-2.7517452158	-2.5419973554	-0.2689208061	 0.290559
C	-4.1040059714	-1.9216588843	-0.6318063526	-0.143497
O	-4.4265308335	-3.0723411305	-1.4401994511	-0.277078
C	-3.1491408149	-3.6993863923	-1.1774820903	-0.138962
H	 1.0801475548	 1.8728463103	 0.5838716973	 0.116216
H	 0.0807217222	 1.8709334783	-0.8737227771	 0.11634
H	-0.6720780096	 2.063430152	 0.7140304616	 0.114076
H	 0.7860833488	-0.4823270591	-0.250412517	 0.11008
H	 0.0477109186	-0.2860805696	 1.329827586	 0.098935
H	-2.194732701	 0.0165025662	 0.2399758059	 0.080367
H	-1.4383780634	-0.1926622883	-1.3448611561	 0.103784
H	-1.5224176947	-3.3910658847	 1.4027184713	 0.117456
H	-2.3813210091	-1.8133960577	 1.7751290409	 0.108046
H	-4.8160269052	-1.7832157806	 0.1914399211	 0.105053
H	-4.0596699389	-0.9987133919	-1.2256973841	 0.104005
H	-2.5383828642	-3.8004767514	-2.0834855062	 0.108732
H	-3.2633161658	-4.6808263779	-0.7006143068	 0.103767
67.7835	86.7719	94.4133	125.8312	207.577	241.3953	271.4898	311.7966	383.3126	448.4727	459.4418	608.0367	758.6104	793.4034	871.6027	883.017	888.6752	901.8494	925.7437	974.1402	990.3172	1027.9121	1045.772	1064.7959	1111.9953	1118.5395	1127.209	1145.4023	1152.3251	1178.5678	1196.0391	1222.406	1277.1435	1302.4324	1323.4071	1331.5218	1343.1736	1405.9694	1413.4039	1445.1282	1485.5146	1495.9238	1500.5381	1506.0201	1510.2315	1519.7114	1530.771	2930.9662	3001.4984	3015.4169	3028.3261	3030.3778	3040.3828	3046.2552	3058.7894	3069.3693	3078.8148	3098.3554	3106.2271	3169.256
CCCN1CC11COC1	CCCN1CC21COC2	
InChI=1S/C7H13NO/c1-2-3-8-4-7(8)5-9-6-7/h2-6H2,1H3	InChI=1S/C7H13NO/c1-2-3-8-4-7(8)5-9-6-7/h2-6H2,1H3
