15
gdb 116828	17.01351	0.38228	0.37565	4.5919	97.57	-0.2627	-0.0838	0.1789	2735.9813	0.109065	-420.56349	-420.553342	-420.552397	-420.600646	32.721	
C	-0.0089991106	 1.4233998925	 0.011878602	-0.221797
O	-0.0224134959	 0.012866085	-0.049282197	-0.229345
C	 0.6353258026	-0.5709166981	 1.0529532744	-0.228378
C	 0.5984951369	-2.0205039444	 0.9523639266	 0.180217
C	 0.5875496075	-3.230448267	 0.9020879091	-0.041682
C	 0.5718965593	-4.5825406333	 0.8400475504	-0.159309
C	 0.5605647855	-5.7965084574	 0.7889386847	 0.225683
C	 0.527185248	-7.2302999968	 0.6946591302	-0.033574
O	 1.0184616972	-7.9807781328	 1.5076744111	-0.222204
H	 1.017331681	 1.8221084725	 0.0069646645	 0.11129
H	-0.5352138706	 1.7857145763	-0.8731744389	 0.13934
H	-0.5214105413	 1.7974910126	 0.9117864202	 0.111296
H	 1.687841191	-0.238929138	 1.1062997563	 0.131165
H	 0.1636598612	-0.2624992448	 2.0033549121	 0.131159
H	 0.0022465181	-7.6096997462	-0.2051556258	 0.10614
34.8464	50.6692	69.6323	109.3182	119.5617	228.4163	232.0754	245.9086	337.399	387.9405	400.8771	545.1398	582.5346	606.2442	755.5349	961.9517	988.008	1012.6364	1016.8652	1146.1612	1181.8114	1219.4195	1251.1457	1282.4018	1408.5636	1421.3235	1474.8495	1485.4245	1487.7046	1513.0875	1753.7419	2253.8087	2353.2591	2923.9439	2942.6109	2959.8416	2976.2851	3023.2193	3129.8896
COCC#CC#CC=O	COCC#CC#CC=O	
InChI=1S/C7H6O2/c1-9-7-5-3-2-4-6-8/h6H,7H2,1H3	InChI=1S/C7H6O2/c1-9-7-5-3-2-4-6-8/h6H,7H2,1H3
