15
gdb 26306	3.55205	1.06175	0.97855	3.7197	63.27	-0.2486	0.0023	0.251	1219.0788	0.111481	-494.946825	-494.938505	-494.937561	-494.980335	30.141	
C	-0.0379098285	 1.5658480854	 0.1367170388	-0.409108
C	 0.0116409146	 0.0399493817	-0.0023633082	 0.002623
O	 0.7620429721	-0.5616824093	 1.045927694	-0.420182
C	-1.3523011621	-0.5614252972	-0.0915453444	 0.345462
C	-2.0029039411	-1.2912621046	-0.9928702291	-0.158584
O	-3.2677222045	-1.5857171593	-0.5174665721	-0.209317
C	-3.3791212001	-1.0195101614	 0.7217718375	 0.504348
O	-4.3269519731	-1.0702308966	 1.4347292906	-0.366378
O	-2.1988539996	-0.3776122885	 0.9959834168	-0.26139
H	 0.979506024	 1.9540527778	 0.2248626609	 0.134333
H	-0.5203090587	 2.0242399509	-0.7317605465	 0.127617
H	-0.6027976633	 1.8537336555	 1.0291153573	 0.133961
H	 0.5405714568	-0.2271369557	-0.923422983	 0.11182
H	 0.3175631098	-0.3610994913	 1.8779317412	 0.293375
H	-1.7395159162	-1.6711772474	-1.9637097337	 0.171419
61.1726	113.2803	158.5453	237.6897	250.1558	311.2143	346.3995	431.675	486.7321	543.5682	652.6082	686.5021	762.1791	768.7905	787.2693	897.4327	922.821	956.7545	1016.6458	1061.102	1078.874	1103.9651	1143.8035	1249.1132	1283.7075	1317.909	1361.2488	1402.3596	1417.0127	1489.8309	1495.9209	1735.6094	1942.5371	3042.6433	3064.3173	3116.6329	3131.8232	3305.7172	3799.0948
CC(O)C1=COC(=O)O1	C[C@@H](O)c1coc(=O)o1	
InChI=1S/C5H6O4/c1-3(6)4-2-8-5(7)9-4/h2-3,6H,1H3	InChI=1S/C5H6O4/c1-3(6)4-2-8-5(7)9-4/h2-3,6H,1H3/t3-/m1/s1
