17
gdb 51703	4.25541	0.85747	0.80436	1.3053	69.02	-0.2496	-0.0384	0.2112	1398.7383	0.133952	-458.989883	-458.981144	-458.9802	-459.024817	30.844	
O	-0.1713924448	 0.3384285148	 0.6239671577	-0.237358
C	 0.2104260774	 0.9389843139	-0.3476701294	 0.155271
C	 1.465462327	 1.7882415699	-0.3822024426	-0.293154
C	 1.2171615704	 3.1814819416	-0.9893130221	 0.082863
C	 2.4937901356	 4.0222538639	-1.1092855282	-0.352645
C	 2.9581608357	 3.7500452714	-2.5415078324	 0.370484
O	 4.0293277518	 3.9989734617	-3.0228448451	-0.290485
C	 1.7794101215	 3.0801296303	-3.2518974968	-0.186384
O	 0.7049027384	 3.0760651897	-2.3317615099	-0.26381
H	-0.3495020782	 0.9072192458	-1.3062391483	 0.097385
H	 1.8600597402	 1.8702915586	 0.6349470753	 0.1275
H	 2.2137858039	 1.2597613713	-0.9914412835	 0.123473
H	 0.4399601948	 3.6930311777	-0.4147092935	 0.105836
H	 2.2728018821	 5.0921616723	-1.0230262774	 0.14619
H	 3.2764098351	 3.7805306163	-0.3879530907	 0.142204
H	 1.4894087879	 3.6356235663	-4.1495212768	 0.14525
H	 2.074153541	 2.0658246444	-3.563532226	 0.127382
46.6084	71.5823	83.4459	146.0805	208.0522	319.4581	413.1312	458.7021	474.7293	510.7795	622.2381	712.5203	751.5937	813.955	834.1536	848.7985	953.3149	986.0868	1023.841	1071.5412	1086.0775	1105.7859	1165.7656	1180.7335	1220.0692	1232.1142	1256.2419	1286.4738	1319.0786	1365.8457	1387.093	1421.527	1445.7216	1451.8301	1483.5397	1831.5048	1863.96	2914.3736	2989.2408	3011.2412	3053.9022	3072.4372	3079.3877	3098.5813	3124.8979
O=CCC1CC(=O)CO1	O=CC[C@H]1CC(=O)CO1	
InChI=1S/C6H8O3/c7-2-1-6-3-5(8)4-9-6/h2,6H,1,3-4H2	InChI=1S/C6H8O3/c7-2-1-6-3-5(8)4-9-6/h2,6H,1,3-4H2/t6-/m0/s1
