19
gdb 58391	2.0739	1.19086	0.79429	3.8817	79.37	-0.2771	-0.0009	0.2763	1437.0282	0.154949	-423.018346	-423.00781	-423.006866	-423.054705	37.084	
C	 0.3538153665	 1.5824715977	 0.130445876	-0.405383
C	 0.1904855248	 0.0589058471	 0.0707917342	 0.019165
C	 0.8663135373	-0.6233226057	 1.2664417844	-0.403116
C	-1.302380659	-0.3243381984	-0.0027053029	-0.087421
O	-1.8612500478	 0.3351172959	-1.1641559099	-0.18467
C	-3.1830084456	 0.6024483883	-1.1460642823	 0.173723
O	-3.744856149	 1.1186293696	-2.0636475241	-0.2709
C	-1.5312717409	-1.7647960702	-0.0999412231	 0.345292
C	-1.7302987322	-2.9461307657	-0.1911452465	-0.438025
H	 1.4153081652	 1.84657828	 0.1456677804	 0.118175
H	-0.1085687029	 2.0697383693	-0.7299314865	 0.142143
H	-0.1010285866	 1.9899346956	 1.0417609001	 0.111458
H	 0.6502221641	-0.3106564864	-0.8537369319	 0.102487
H	 0.4233591305	-0.2900814837	 2.2126620752	 0.115446
H	 0.7782212478	-1.7112421642	 1.2154298832	 0.133574
H	 1.9293958915	-0.367380946	 1.2925094748	 0.121575
H	-1.8073275893	 0.0626552685	 0.8950464264	 0.111885
H	-3.6728408025	 0.3042114866	-0.1993434814	 0.085421
H	-1.9096492718	-3.9902322384	-0.2727331061	 0.209171
40.1884	68.6453	125.6732	142.8474	164.913	215.7278	243.3527	264.8923	320.8504	342.8976	414.4675	422.4028	517.8184	526.8475	640.8179	677.5178	712.0291	857.0725	915.2289	937.2421	967.058	1005.4349	1031.1525	1042.7467	1134.9297	1143.7103	1190.9895	1203.4764	1289.9246	1340.1764	1352.543	1374.4023	1400.8143	1422.5794	1435.9293	1488.8021	1492.3608	1502.9122	1515.4328	1868.0276	2237.8762	2955.461	2995.151	3030.5848	3033.3305	3045.0235	3097.8298	3104.5625	3125.173	3135.0949	3500.0409
CC(C)C(OC=O)C#C	CC(C)[C@@H](OC=O)C#C	
InChI=1S/C7H10O2/c1-4-7(6(2)3)9-5-8/h1,5-7H,2-3H3	InChI=1S/C7H10O2/c1-4-7(6(2)3)9-5-8/h1,5-7H,2-3H3/t7-/m0/s1
