17
gdb 62303	3.46176	1.46457	1.18734	3.0511	77.03	-0.266	0.0286	0.2947	1039.7989	0.137307	-380.800984	-380.79354	-380.792596	-380.832659	29.462	
N	 0.0000411452	 1.5000568965	-0.0408363644	-0.566639
C	 0.027142402	 0.0459837764	-0.0444205048	 0.155216
C	 0.983183301	-0.5199129594	-1.0113429285	 0.213451
N	 1.745574679	-0.9225939264	-1.783215833	-0.345983
C	-0.0015597107	-0.6341747908	 1.3459609617	-0.059252
C	-1.5223598375	-0.3118595448	 1.5438339136	-0.050233
C	-1.8499229829	-1.7753668065	 1.9025883233	-0.275765
C	-0.7735798996	-1.886520924	 0.8052856358	-0.052452
C	-1.3508837375	-0.6560702158	 0.0246274868	-0.059251
H	 0.92415649	 1.8669061936	 0.171504132	 0.240405
H	-0.2375156263	 1.848060849	-0.9661017723	 0.240405
H	 0.7799564825	-0.6238670868	 2.1062525399	 0.084248
H	-1.9292548597	 0.6134896275	 1.944014949	 0.094046
H	-1.5666782314	-2.1117872963	 2.9045965571	 0.09987
H	-2.8519015348	-2.1326423076	 1.6460340874	 0.09987
H	-0.3222935401	-2.7719271498	 0.3591115279	 0.097815
H	-2.1273484292	-0.6710446848	-0.7407451114	 0.084248
133.2146	156.369	227.7147	253.7937	327.3039	408.1601	486.3142	515.0658	581.0662	654.2173	762.1951	817.4652	849.7683	855.7185	875.0586	882.8771	921.146	933.2439	970.8971	994.0353	1033.5371	1057.667	1069.1018	1107.9532	1146.1257	1158.1011	1171.2986	1179.2386	1193.5458	1193.689	1246.6317	1293.2109	1305.487	1309.7406	1512.5294	1658.7373	2334.5071	3044.7142	3102.0431	3111.1883	3112.4757	3128.2942	3150.7687	3484.7704	3559.8002
NC1(C#N)C2C3CC2C13	N[C@@]1(C#N)[C@H]2[C@@H]3C[C@H]2[C@H]13	
InChI=1S/C7H8N2/c8-2-7(9)5-3-1-4(5)6(3)7/h3-6H,1,9H2	InChI=1S/C7H8N2/c8-2-7(9)5-3-1-4(5)6(3)7/h3-6H,1,9H2/t3-,4+,5-,6+,7-
