19
gdb 39727	3.25428	1.66287	1.62668	2.7836	77.36	-0.2363	0.0784	0.3147	924.7822	0.163604	-382.034916	-382.028469	-382.027525	-382.065401	27.544	
C	 0.0189378177	 1.5082729797	-0.0004003599	-0.332924
N	 1.2553537127	 0.6922126079	 0.0553966387	-0.391996
C	-0.0491361127	 0.0328017119	-0.0048970159	 0.433458
C	-0.5161794431	-0.8512383821	 1.1234145299	-0.105501
C	-1.750902	-1.5334688864	 0.6380144484	-0.039823
C	-2.0215543764	-1.0367379934	-0.7812732205	-0.236381
C	-0.5392788832	-0.8298734918	-1.1690046536	-0.169162
C	 0.0492794646	-2.1886777811	-0.7346271009	-0.15733
N	-0.4580363448	-2.2643603635	 0.6611792308	-0.129765
H	-0.1959725184	 2.0694400372	 0.9051384079	 0.120322
H	-0.2170129589	 2.0341370219	-0.9226259033	 0.11059
H	 1.7003541091	 0.6784675784	-0.8600692373	 0.228625
H	-0.2842063006	-0.6473073962	 2.1608529607	 0.096238
H	-2.5333170924	-1.8951962192	 1.2938208322	 0.092077
H	-2.5278889873	-1.7804507228	-1.4048205987	 0.100683
H	-2.5992590222	-0.1080049794	-0.7981249974	 0.104497
H	-0.3251118176	-0.4721901037	-2.1753725909	 0.064877
H	-0.3272816556	-3.0359025679	-1.31532207	 0.101171
H	 1.142707089	-2.2109858294	-0.7324143802	 0.110343
159.1341	259.677	305.9615	411.0395	457.6334	499.628	588.2177	702.4083	729.8912	784.685	839.4921	857.6506	887.6621	906.8669	921.575	925.3101	941.0903	956.1911	959.3886	984.9691	1002.6999	1028.1847	1056.7077	1079.2525	1084.7228	1132.1853	1149.3742	1182.5506	1207.3598	1212.547	1248.7558	1257.8552	1269.4078	1296.266	1297.6215	1310.3341	1369.5586	1438.7726	1486.597	1505.5747	1519.3946	3049.8884	3056.1985	3098.4283	3101.6997	3106.4939	3128.0141	3185.3097	3187.3807	3201.5106	3484.7959
C1NC11C2C3CC1CN23	C1N[C@]21[C@H]1[C@H]3C[C@@H]2CN13	
InChI=1S/C7H10N2/c1-4-2-9-5(1)6(9)7(4)3-8-7/h4-6,8H,1-3H2	InChI=1S/C7H10N2/c1-4-2-9-5(1)6(9)7(4)3-8-7/h4-6,8H,1-3H2/t4-,5-,6-,7+,9?/m1/s1
