14
gdb 80322	3.70887	1.25289	1.20078	4.467	68.68	-0.2401	-0.0518	0.1882	1033.8475	0.101945	-432.857517	-432.849888	-432.848944	-432.889667	28.474	
O	-0.2006037451	 1.444726367	 0.0199705794	-0.419544
C	-0.0800233248	 0.0637556731	-0.0212688073	 0.08523
C	-1.3422805491	-0.755293597	 0.0466819183	-0.085539
N	-2.5450795219	-0.0997244867	-0.3839453038	-0.328817
C	-2.3213623813	 0.3709542132	-1.661849621	 0.295266
N	-1.246072864	-0.0263335417	-2.2505082883	-0.301593
C	-0.4926335647	-0.7313698437	-1.2508047719	-0.09137
C	-3.3016773704	 1.2122124721	-2.2862273806	 0.257878
N	-4.1068021891	 1.8972336153	-2.7532184049	-0.317958
H	 0.2606215086	 1.8155868062	-0.7410685921	 0.301567
H	 0.7693793899	-0.3563342371	 0.5153473062	 0.106521
H	-1.4553579781	-1.5941222616	 0.7227141314	 0.116546
H	-3.1212866493	 0.4170803894	 0.2629455143	 0.270941
H	 0.1299149193	-1.5483649085	-1.5939155498	 0.110873
99.9903	172.0569	184.0003	242.0585	283.0083	389.2257	433.9409	548.805	554.6441	595.7123	656.1438	689.7337	765.9837	775.9101	833.5689	939.9851	972.8619	1015.3064	1032.6739	1084.1227	1127.6493	1130.9812	1218.7794	1249.9686	1308.1769	1319.6655	1349.5851	1417.185	1449.9904	1627.1566	2365.462	3116.3887	3181.5398	3191.3421	3630.154	3794.9503
OC1C2NC(=NC12)C#N	O[C@H]1[C@H]2NC(=N[C@@H]12)C#N	
InChI=1S/C5H5N3O/c6-1-2-7-3-4(8-2)5(3)9/h3-5,9H,(H,7,8)	InChI=1S/C5H5N3O/c6-1-2-7-3-4(8-2)5(3)9/h3-5,9H,(H,7,8)/t3-,4+,5-
