21
gdb 58571	2.23138	1.40395	1.16685	2.2926	74.11	-0.2473	0.046	0.2933	1182.056	0.179689	-461.344669	-461.334505	-461.333561	-461.379742	37.865	
C	 0.0573171693	 1.593896154	-0.1616565508	-0.424051
C	 0.0476274556	 0.0954263953	 0.167207234	 0.09668
O	 0.5684927934	-0.1424634913	 1.4669853219	-0.440535
C	-1.3489008602	-0.5284800165	 0.0650978244	 0.277937
O	-2.1731885827	-0.016380902	 1.1074947634	-0.488358
C	-1.9877064843	-0.6072887223	-1.3399907983	-0.122862
O	-1.8958796794	-2.0402821363	-1.3505306822	-0.293324
C	-1.4444797406	-2.0787421613	 0.0295324741	 0.130926
C	-0.2304694843	-2.9618468258	 0.2201491443	-0.404816
H	 1.070759299	 1.9846688863	-0.0441866882	 0.135422
H	-0.2711726831	 1.7908863669	-1.1875902713	 0.118057
H	-0.5875346943	 2.1570679798	 0.5235817517	 0.101527
H	 0.7163217616	-0.4192018192	-0.5317254667	 0.092385
H	-0.1663772626	 0.0249127331	 2.0723413035	 0.282613
H	-2.3698917054	 0.9074972471	 0.9158856746	 0.285045
H	-3.0263698967	-0.2501428149	-1.3637448955	 0.095069
H	-1.4284021655	-0.1549641469	-2.1682898601	 0.098582
H	-2.2603314428	-2.4019472298	 0.6901094136	 0.084495
H	 0.5786015489	-2.6834426243	-0.4602345522	 0.11976
H	 0.1379121671	-2.8876848943	 1.2463281549	 0.133814
H	-0.500267413	-4.0023588374	 0.014297945	 0.121633
39.2702	108.3724	163.7718	197.7322	227.442	252.4172	275.1606	295.3453	324.9321	357.0047	398.3885	466.7061	488.6865	510.8581	564.0997	717.3328	760.3998	868.7627	881.6309	922.5492	967.1896	1014.6836	1030.4059	1050.0585	1086.2554	1099.5208	1113.7681	1143.2555	1163.0285	1167.1778	1239.3794	1287.1138	1298.0584	1320.1321	1358.2697	1382.2015	1390.3662	1402.2957	1408.9819	1432.2316	1475.4656	1488.9185	1496.6609	1502.9925	1511.8934	2999.9658	3015.9998	3029.3812	3044.9195	3049.5049	3054.2899	3096.5758	3114.8525	3124.3215	3132.6514	3758.6621	3802.1166
CC(O)C1(O)COC1C	C[C@@H](O)[C@@]1(O)CO[C@H]1C	
InChI=1S/C6H12O3/c1-4(7)6(8)3-9-5(6)2/h4-5,7-8H,3H2,1-2H3	InChI=1S/C6H12O3/c1-4(7)6(8)3-9-5(6)2/h4-5,7-8H,3H2,1-2H3/t4-,5+,6+/m1/s1
