19
gdb 119674	3.81811	1.01917	0.92568	2.5765	75.73	-0.2242	0.0628	0.2869	1298.0719	0.159847	-419.079554	-419.07132	-419.070376	-419.113006	31.24	
O	-0.1226971091	 1.4262117301	-0.0125834862	-0.416077
C	 0.0316461591	 0.0167669349	-0.0510355359	-0.07872
C	-1.3577948276	-0.6006229451	 0.07607348	-0.331968
C	-1.3485354175	-2.0991798448	 0.0464043829	 0.380996
N	-0.7165044396	-2.9764383618	 1.097233637	-0.386362
C	-1.300087851	-3.9500373638	 0.119518411	-0.042731
C	-2.5642888469	-3.0650235036	-0.1017035953	-0.063408
N	-2.484085252	-3.03703467	-1.5991623344	-0.350648
C	-1.0532083729	-3.0734599342	-1.1547384704	-0.084318
H	 0.7484965074	 1.8274788079	-0.0800519748	 0.28592
H	 0.4979701293	-0.3095148525	-0.9949381917	 0.086817
H	 0.6736229739	-0.3353568341	 0.7726589542	 0.089321
H	-1.8116993334	-0.2580462162	 1.0129284318	 0.119192
H	-1.9863238682	-0.2412949988	-0.746255274	 0.131591
H	 0.3033916977	-2.9598790591	 1.0061202898	 0.204462
H	-1.234016976	-5.0336237121	 0.2360814411	 0.079981
H	-3.4986406102	-3.0565148727	 0.4597926989	 0.089713
H	-2.7580508655	-3.9458896804	-1.9820018573	 0.208881
H	-0.2065328675	-3.0787940937	-1.8455069068	 0.077356
75.0056	84.3611	131.8874	258.1077	263.6152	342.6556	350.8051	489.7595	534.5107	702.1661	743.6299	775.2464	797.0191	831.1469	856.2894	889.2241	901.2035	944.3214	955.3523	1006.6695	1038.551	1073.2431	1084.7401	1093.7981	1101.1927	1148.529	1150.8446	1190.2956	1210.1371	1227.831	1243.9701	1259.0684	1270.8954	1293.6064	1307.0446	1315.7295	1333.0206	1407.2445	1462.7266	1476.0666	1528.168	2961.1365	2988.519	3042.9417	3084.6029	3091.0654	3099.5515	3122.8	3392.1489	3401.4848	3830.7037
OCCC12NC3C1NC23	OCC[C@@]12N[C@H]3[C@@H]1N[C@@H]23	
InChI=1S/C6H10N2O/c9-2-1-6-4-3(8-6)5(6)7-4/h3-5,7-9H,1-2H2	InChI=1S/C6H10N2O/c9-2-1-6-4-3(8-6)5(6)7-4/h3-5,7-9H,1-2H2/t3-,4-,5+,6+
