18
gdb 29853	4.93069	1.22377	0.99282	1.881	88.83	-0.1847	0.0131	0.1977	1188.7875	0.150175	-364.855505	-364.847903	-364.846958	-364.887553	29.653	
C	 0.0126037059	 1.4402046861	 0.0054605589	-0.330443
N	-0.0476209336	-0.0050754484	 0.0061583965	 0.017461
C	-0.0221306648	-0.798261564	-1.1278249211	-0.264306
C	 0.0282598909	-2.1026358538	-0.7152051665	 0.242898
C	 0.0496457907	-3.5221084061	-1.2129901727	-0.421361
C	 0.0774792248	-4.3043418137	 0.0946576703	-0.086502
C	 0.0681328083	-3.4883674234	 1.1666601494	-0.205663
C	 0.0387090504	-2.1045468262	 0.7127269543	 0.273134
C	-0.0044729457	-0.7967978536	 1.1366018356	-0.280113
H	 1.0453316015	 1.8107135397	 0.0130760132	 0.134414
H	-0.4891096236	 1.8288031668	-0.8843025871	 0.137389
H	-0.502851504	 1.8311793444	 0.8865072543	 0.137736
H	-0.0433976515	-0.341090735	-2.1049189507	 0.113768
H	-0.8300265979	-3.78353847	-1.8169875172	 0.119255
H	 0.9246636644	-3.7520040109	-1.8363911873	 0.118548
H	 0.1028629734	-5.3865316023	 0.1244361266	 0.089202
H	 0.0825438282	-3.8085515551	 2.2012430181	 0.09013
H	-0.0100960772	-0.3462205245	 2.1164432756	 0.114453
92.8889	130.7757	239.189	261.7484	288.7833	437.1927	491.5289	554.6702	594.5996	671.2054	684.0873	709.333	737.3553	755.6701	785.5045	875.8603	929.9849	945.2763	952.478	1014.908	1075.844	1087.1977	1144.1747	1147.366	1149.5254	1178.7856	1221.2581	1271.319	1344.5191	1361.8962	1385.745	1440.0253	1455.0969	1471.7542	1488.9097	1513.1197	1576.1706	1598.8582	1643.8757	3014.2347	3021.0588	3036.2557	3091.1663	3125.7754	3198.2355	3221.9009	3247.8771	3254.2965
CN1C=C2CC=CC2=C1	Cn1cc2CC=Cc2c1	
InChI=1S/C8H9N/c1-9-5-7-3-2-4-8(7)6-9/h2-3,5-6H,4H2,1H3	InChI=1S/C8H9N/c1-9-5-7-3-2-4-8(7)6-9/h2-3,5-6H,4H2,1H3
