19
gdb 99064	3.80731	0.79723	0.72048	3.2971	80.36	-0.2426	0.0437	0.2863	1613.9559	0.156675	-419.212392	-419.201447	-419.200503	-419.249405	38.139	
C	 0.0008763477	 1.4546669069	-0.0607155603	-0.323192
N	-0.0385724014	 0.0087823065	 0.0659492215	-0.366937
C	 0.6419727601	-0.6089016174	 1.0948553972	 0.517491
O	 1.1506565836	-0.002330559	 2.0243207649	-0.415096
N	 0.6967611187	-1.9854688328	 0.9851608538	-0.374306
C	 1.2291467495	-2.7716658386	 2.0970828505	-0.117677
C	 0.2118396244	-2.9598775391	 3.2394936428	-0.389492
C	 1.7175362326	-4.0573827151	 1.5957966459	 0.294126
C	 2.0825670099	-5.1303406756	 1.1963409648	-0.435135
H	 0.8490817146	 1.8061915742	-0.6633623534	 0.120668
H	-0.9266893951	 1.8145725612	-0.5150276598	 0.11984
H	 0.0993372981	 1.874407462	 0.940402313	 0.167201
H	-0.1549152729	-0.5168976036	-0.7860902246	 0.236595
H	 0.0271104987	-2.4519788131	 0.3927052958	 0.23754
H	 2.0700537715	-2.1892119839	 2.4870500007	 0.146656
H	-0.0913533382	-1.9787264796	 3.6116053475	 0.143955
H	-0.6700126304	-3.5034810618	 2.88693573	 0.113675
H	 0.6593129089	-3.5284464485	 4.0594385757	 0.12705
H	 2.4273556996	-6.0718145527	 0.8463482341	 0.197037
43.4821	62.3436	76.647	126.8682	150.7939	178.7958	234.7876	270.4973	316.8318	350.1361	409.2636	418.3984	481.8384	545.2266	572.7332	624.6804	659.8705	737.7167	765.9818	845.6034	935.2001	982.4208	1076.0943	1088.1703	1129.1862	1150.597	1170.7867	1191.5623	1235.7011	1325.3958	1355.5876	1396.8926	1440.9315	1478.6724	1491.6293	1494.5192	1498.3556	1513.9419	1560.4524	1774.5218	2240.0249	3014.0355	3043.3623	3068.5861	3086.0997	3119.203	3137.2146	3157.8717	3503.5316	3615.9243	3623.5598
CNC(=O)NC(C)C#C	CNC(=O)N[C@@H](C)C#C	
InChI=1S/C6H10N2O/c1-4-5(2)8-6(9)7-3/h1,5H,2-3H3,(H2,7,8,9)	InChI=1S/C6H10N2O/c1-4-5(2)8-6(9)7-3/h1,5H,2-3H3,(H2,7,8,9)/t5-/m0/s1
