25
gdb 121143	2.84893	0.89489	0.82369	0.9805	90.04	-0.2492	0.0782	0.3275	1589.2054	0.227042	-389.47867	-389.467938	-389.466994	-389.514456	39.772	
C	-0.1549449498	 1.3746116038	 0.0641779307	-0.22328
O	-0.1102710976	-0.0277791852	-0.0201347462	-0.233204
C	 0.6975189669	-0.4910545087	-1.0844693237	-0.086769
C	 0.6416500323	-2.0051533964	-1.0930242648	 0.00055
C	-0.6724968994	-2.7109068563	-1.5139658304	-0.228641
C	 0.1771554976	-3.7866862863	-2.2398771746	-0.255595
C	 1.4095400112	-2.8248958283	-2.1923909366	 0.316035
C	 1.5853301524	-2.0756305242	-3.5182615152	-0.437368
C	 2.7330543672	-3.4432172435	-1.7503159154	-0.450577
H	 0.8437723362	 1.8079883254	 0.2364812775	 0.100067
H	-0.5681640877	 1.8285281927	-0.8512481058	 0.100337
H	-0.8006097304	 1.6335847326	 0.9072650501	 0.124403
H	 0.3350618527	-0.0763852465	-2.0403331603	 0.079338
H	 1.7375333264	-0.1398901576	-0.9553565808	 0.079842
H	 0.9509835315	-2.3564977069	-0.1022881108	 0.073435
H	-1.3364023019	-3.0455327822	-0.7148040285	 0.100059
H	-1.2578226628	-2.1020965983	-2.2101989983	 0.096538
H	 0.3322138574	-4.6759069625	-1.6213046155	 0.09391
H	-0.1545656561	-4.1098700307	-3.2307725839	 0.089696
H	 0.6439776143	-1.6502279053	-3.8802670196	 0.11269
H	 2.3107432008	-1.2587712715	-3.4296469884	 0.11061
H	 1.9534796551	-2.7606731599	-4.2906091545	 0.109929
H	 3.1155632227	-4.1391364533	-2.5066299026	 0.109804
H	 3.5001413281	-2.6753204948	-1.5925523764	 0.109433
H	 2.6180042229	-3.9980927262	-0.8131959859	 0.108757
65.5864	91.4913	118.6473	132.9042	212.8614	230.6291	263.0352	264.0837	294.0054	334.7035	356.9176	365.7554	475.9577	503.3927	601.1552	743.6177	808.2902	873.3092	905.785	911.1866	948.4636	956.7091	975.597	992.0986	1009.0184	1046.7192	1124.6166	1148.1401	1161.4522	1182.4741	1188.2201	1201.8263	1223.867	1235.548	1251.6845	1264.7623	1277.4135	1282.3889	1320.7013	1364.6306	1402.3747	1420.4859	1427.9846	1479.5115	1480.1945	1484.2681	1484.5317	1490.2479	1498.9965	1502.7281	1505.6265	1507.1775	1526.7435	2936.1118	2964.3003	2971.6848	3005.3804	3015.9587	3024.6874	3042.8272	3048.4033	3055.8019	3078.663	3086.6807	3090.3421	3095.2795	3098.0271	3109.3621	3115.8033
COCC1CCC1(C)C	COC[C@H]1CCC1(C)C	
InChI=1S/C8H16O/c1-8(2)5-4-7(8)6-9-3/h7H,4-6H2,1-3H3	InChI=1S/C8H16O/c1-8(2)5-4-7(8)6-9-3/h7H,4-6H2,1-3H3/t7-/m1/s1
