15
gdb 54621	4.15796	1.05242	0.84484	5.1313	73.61	-0.2558	-0.0673	0.1885	1274.9968	0.113412	-453.999928	-453.99168	-453.990735	-454.033402	29.992	
N	-0.0801357364	 1.328971316	-0.0163415497	-0.543221
C	 0.024572795	-0.0362469174	-0.0413003239	 0.329884
O	 1.0940604398	-0.6105597637	-0.1103085434	-0.348324
C	-1.2700360744	-0.7732197523	-0.0103817334	 0.203444
C	-1.3885836778	-2.1042465823	 0.0205277218	-0.263036
C	-2.8092070229	-2.4636423393	 0.035281011	 0.435376
N	-3.3011849886	-3.6286062783	 0.0670217102	-0.541146
O	-3.5403961388	-1.2940822768	 0.0079255368	-0.253443
C	-2.6555278808	-0.1749513751	-0.0246887272	-0.199563
H	 0.7782858688	 1.8516303961	 0.0568872126	 0.268881
H	-0.9358130567	 1.7998261154	 0.2225485151	 0.262666
H	-0.5871405532	-2.826720307	 0.0318360858	 0.158314
H	-4.3216662963	-3.5906171672	 0.0690788385	 0.227754
H	-2.8586381712	 0.4629139463	 0.8477590818	 0.125543
H	-2.8537596667	 0.4154659056	-0.929512866	 0.13687
50.1599	136.9061	166.6076	205.1372	238.5842	364.3872	375.65	422.9069	513.454	566.1864	644.0091	681.9639	703.364	766.1333	873.3543	894.5398	903.2719	958.7354	1027.5785	1029.1101	1065.5227	1090.3843	1113.489	1206.2126	1241.6269	1324.0325	1365.2444	1387.4303	1507.1217	1622.5362	1686.0316	1756.8198	1784.9071	2998.5883	3032.718	3270.1755	3482.6674	3596.6369	3727.8889
NC(=O)C1=CC(=N)OC1	NC(=O)[C]1C=C([NH])OC1	
InChI=1S/C5H6N2O2/c6-4-1-3(2-9-4)5(7)8/h1,6H,2H2,(H2,7,8)	InChI=1S/C5H6N2O2/c6-4-1-3(2-9-4)5(7)8/h1,6H,2H2,(H2,7,8)
