18
gdb 68611	2.3848	1.87005	1.50794	2.3683	71.39	-0.2319	0.0508	0.2827	949.7514	0.148492	-439.020306	-439.012681	-439.011737	-439.051945	30.521	
O	-0.1451204552	 1.3731607069	 0.0788521593	-0.486292
C	-0.019836576	-0.0062590009	 0.0026078888	 0.249008
C	 0.3534982021	-0.8201940836	-1.290082004	-0.311208
C	-0.3401731318	-1.9405122351	-0.4734311722	 0.00891
O	 0.5434031909	-2.1276018768	 0.6535255629	-0.2763
C	 0.8086951059	-0.7680034652	 1.0577135052	-0.124452
C	-1.2995264867	-0.8553176791	 0.0267188463	 0.413058
C	-2.4926237661	-0.8056249293	 0.8763822916	-0.349599
N	-2.5617806061	-0.4884566375	-0.580679868	-0.405128
H	 0.7225134086	 1.7776880552	-0.0268140061	 0.289356
H	-0.2255883282	-0.5016435037	-2.157341681	 0.120819
H	 1.4099742368	-0.9634136656	-1.5293867461	 0.094744
H	-0.6514191986	-2.8981080023	-0.8811990549	 0.094464
H	 1.8856159246	-0.5583835709	 1.0066038195	 0.089348
H	 0.453508395	-0.5888337102	 2.0790697927	 0.106474
H	-3.0035205396	-1.71941004	 1.1657592928	 0.125219
H	-2.583695102	 0.0153570739	 1.5834845409	 0.120603
H	-2.5928178136	 0.5233994241	-0.701497258	 0.240976
165.887	196.2736	205.7558	248.9592	312.9232	381.4997	418.4196	457.5103	584.5915	616.4044	634.9	691.366	812.238	879.2291	898.4027	918.5654	938.9602	951.7253	971.8191	985.9123	1012.9909	1052.6923	1072.7834	1105.1698	1109.1597	1153.4972	1172.0882	1177.6257	1211.4023	1262.8058	1268.1486	1272.0261	1291.4907	1330.8893	1382.291	1455.259	1482.7834	1519.8839	1535.0926	3007.3732	3059.6423	3070.4457	3108.1029	3149.1391	3168.6177	3194.9699	3470.6014	3812.0093
OC12CC(OC1)C21CN1	O[C@@]12C[C@@H](OC1)[C@]12CN1	
InChI=1S/C6H9NO2/c8-5-1-4(9-3-5)6(5)2-7-6/h4,7-8H,1-3H2	InChI=1S/C6H9NO2/c8-5-1-4(9-3-5)6(5)2-7-6/h4,7-8H,1-3H2/t4-,5+,6+/m1/s1
