12
gdb 130772	3.78967	1.2121	0.91837	5.4693	74.45	-0.2721	-0.1049	0.1671	1149.0348	0.076469	-435.455978	-435.448649	-435.447705	-435.488043	27.144	
O	-0.0360034334	-0.0669785729	 0.003483313	-0.325887
C	 0.008660861	 1.1323409163	 0.0088890283	 0.47325
O	-1.2053365527	 1.8268326679	 0.0292276201	-0.256336
N	-1.3070909691	 3.2033195615	 0.0377280041	-0.043644
C	-0.2129204671	 3.8790294051	 0.026154124	-0.027386
C	 1.1190304374	 3.3043398479	 0.0048979119	 0.157026
C	 1.2086482486	 1.9516588846	-0.0033008795	-0.3595
C	 2.2452720699	 4.1674604476	-0.0060819546	 0.228145
C	 3.1809045482	 4.9245231501	-0.0151036782	-0.367863
H	-0.3444337962	 4.9556453209	 0.0335041052	 0.15284
H	 2.1548946307	 1.4265774515	-0.0189743982	 0.15081
H	 4.0139676426	 5.5844318495	-0.023549116	 0.218546
126.7284	140.3372	140.5687	308.8941	427.1627	438.2547	453.4223	544.7476	575.2499	647.857	662.5378	691.8894	702.401	730.8031	863.3501	917.291	928.3944	936.5762	1020.4407	1165.4747	1202.1521	1319.6614	1365.7298	1590.4681	1667.8763	1841.1754	2230.9403	3201.2465	3227.4487	3496.9347
O=C1ON=CC(=C1)C#C	O=c1oncc(c1)C#C	
InChI=1S/C6H3NO2/c1-2-5-3-6(8)9-7-4-5/h1,3-4H	InChI=1S/C6H3NO2/c1-2-5-3-6(8)9-7-4-5/h1,3-4H
