18
gdb 15234	2.92127	1.55755	1.32068	3.1813	73.17	-0.2459	0.0157	0.2616	1021.7575	0.152778	-343.97409	-343.96524	-343.964295	-344.007501	31.728	
C	-1.1172698287	 1.0387056587	 0.503485609	-0.381977
C	 0.0970143617	 0.2816455043	-0.0278801358	-0.125041
N	 0.7452056024	-0.4501397418	 1.0636396373	-0.095056
C	 0.3794484143	-1.824055197	 1.3756435943	 0.007387
C	-0.6741071734	-2.6178042754	 0.6357219862	-0.428873
C	 1.7193003565	-1.5047688014	 0.7560769268	-0.18174
C	 1.9719063539	-1.8997943361	-0.608177564	 0.293094
N	 2.1900965478	-2.2005842993	-1.7042799169	-0.346195
H	-0.8290752225	 1.7008501489	 1.3244740764	 0.131148
H	-1.5655795153	 1.6417893863	-0.2915735605	 0.120667
H	-1.8830306315	 0.3510187753	 0.8762599197	 0.12012
H	-0.1932897505	-0.3603809399	-0.8708851143	 0.109475
H	 0.8393069931	 0.9880639408	-0.4150459241	 0.118993
H	 0.4085954691	-2.0261296407	 2.4458367491	 0.106894
H	-0.5989214535	-2.5189250904	-0.4484398723	 0.149769
H	-0.5665496812	-3.679490084	 0.8786426061	 0.135887
H	-1.6767147244	-2.3061338793	 0.9457904831	 0.131958
H	 2.6135158423	-1.497260069	 1.37451759	 0.133489
85.8599	113.3031	145.095	166.8831	213.4606	266.5914	284.0569	372.1299	395.992	500.9824	601.214	642.7383	713.3215	779.6121	818.3562	843.6202	950.5812	992.5174	1032.0138	1050.8198	1097.8927	1133.5328	1144.0176	1166.2225	1192.2479	1307.6684	1331.3851	1359.3985	1380.3481	1408.1828	1415.6989	1422.1002	1485.2141	1489.1429	1497.2321	1500.0786	1519.5138	2344.7366	3011.4084	3042.4948	3047.088	3065.888	3106.1215	3107.9229	3113.0563	3123.5022	3137.601	3143.0709
CCN1C(C)C1C#N	CCN1[C@@H](C)[C@H]1C#N	
InChI=1S/C6H10N2/c1-3-8-5(2)6(8)4-7/h5-6H,3H2,1-2H3	InChI=1S/C6H10N2/c1-3-8-5(2)6(8)4-7/h5-6H,3H2,1-2H3/t5-,6+,8?/m0/s1
