20
gdb 113679	3.49848	0.83798	0.77208	3.805	78.29	-0.245	0.0263	0.2713	1548.621	0.17023	-440.301232	-440.290971	-440.290027	-440.337404	36.247	
C	 0.0469125901	 1.4513595728	-0.2433675185	-0.33379
N	-0.1449361388	 0.0155403408	-0.2880405062	-0.326177
C	-1.1668323227	-0.6115796648	 0.3651655875	 0.439652
O	-1.984205093	-0.0064518193	 1.0448988473	-0.393303
C	-1.1916241186	-2.1004424511	 0.1855937315	-0.156558
C	-1.8834245761	-2.9249437541	 1.25093297	-0.296204
C	-2.4976183273	-2.8309523193	-0.1142893422	-0.017709
C	-3.8148717688	-2.1198831634	-0.3400398591	-0.103918
O	-4.9148236965	-2.9966003679	-0.120355699	-0.420756
H	 1.0347664817	 1.7085399272	 0.1546905943	 0.124861
H	-0.0582245291	 1.9017431237	-1.2370776153	 0.125446
H	-0.7211794279	 1.8593441836	 0.4143379317	 0.173037
H	 0.4831960445	-0.5388380923	-0.8449149016	 0.245174
H	-0.3061917283	-2.5304936729	-0.2732844305	 0.07735
H	-1.4158063549	-3.8516903857	 1.5631624097	 0.113617
H	-2.3394376156	-2.3384233975	 2.0421265021	 0.138686
H	-2.3733807138	-3.7056264842	-0.7478378304	 0.095584
H	-3.8722638303	-1.2218685768	 0.2840801743	 0.129542
H	-3.8986491122	-1.8069682357	-1.3866324419	 0.104572
H	-4.8988155223	-3.2444698532	 0.8098606961	 0.280894
44.8771	84.9058	94.9622	127.1998	147.3215	213.7785	247.4278	320.7859	329.6208	389.452	399.9255	467.867	506.3459	668.5639	782.1264	815.1728	842.4082	878.6968	899.2583	968.9548	996.9503	1054.935	1070.358	1086.212	1107.1935	1127.4446	1154.1537	1159.1607	1173.977	1223.5898	1237.8704	1246.763	1356.1502	1398.7639	1417.053	1434.4781	1440.8655	1477.4522	1493.2531	1501.1798	1516.8283	1561.1677	1756.0654	3026.4028	3041.7828	3077.6517	3086.59	3133.1992	3137.955	3149.2073	3155.9347	3226.6659	3652.556	3812.9505
CNC(=O)C1CC1CO	CNC(=O)[C@H]1C[C@H]1CO	
InChI=1S/C6H11NO2/c1-7-6(9)5-2-4(5)3-8/h4-5,8H,2-3H2,1H3,(H,7,9)	InChI=1S/C6H11NO2/c1-7-6(9)5-2-4(5)3-8/h4-5,8H,2-3H2,1H3,(H,7,9)/t4-,5-/m0/s1
