19
gdb 49908	5.54648	0.77932	0.75622	3.3199	76.58	-0.2473	-0.0208	0.2266	1500.2644	0.158196	-422.998395	-422.989634	-422.98869	-423.032941	31.699	
O	 0.1449256617	-0.1186928403	-0.1223337511	-0.257274
C	 0.0546363592	 1.0769381719	-0.0094230467	 0.17326
C	 1.2066660218	 2.016149915	 0.2130533638	-0.089905
C	 1.181865664	 3.2389105556	-0.7626031266	-0.260773
C	 0.5510434234	 4.1104402232	 0.3629483624	 0.000598
C	 0.9492876646	 3.016134104	 1.3886908543	-0.267903
C	 1.0973527586	 5.5009137222	 0.5436185596	 0.06476
C	 1.3669699828	 6.0893365184	 1.8610257966	-0.182298
O	 2.4351388119	 5.6073088979	 1.0403903532	-0.23227
H	-0.9423019155	 1.5796790265	-0.0665250383	 0.064215
H	 2.1303420092	 1.4374720541	 0.2534745894	 0.094853
H	 2.1967359393	 3.5618708039	-1.0048244171	 0.129435
H	 0.6149357126	 3.1251026005	-1.6901810324	 0.10908
H	-0.5362081309	 4.1748021887	 0.2439067478	 0.082636
H	 0.2054845124	 2.7270241285	 2.1354349811	 0.106556
H	 1.8865827026	 3.2670171486	 1.8894223228	 0.133668
H	 0.8821637636	 6.1877970408	-0.2779264627	 0.094284
H	 1.3286819394	 7.169575278	 1.9915050695	 0.11995
H	 1.1732813794	 5.5060814423	 2.7600653744	 0.117129
61.2249	68.3735	92.9244	180.6413	205.5226	311.3064	330.8007	418.1298	467.974	567.6943	660.193	802.9134	812.7559	872.9082	885.703	895.9883	909.4557	953.5125	978.7125	1003.1199	1045.3503	1084.253	1098.3321	1130.0582	1143.3547	1164.6798	1173.0719	1215.274	1217.7932	1261.3941	1270.867	1276.2316	1294.7772	1319.7503	1375.8524	1430.5391	1437.0187	1468.1034	1489.6565	1528.6562	1831.4503	2828.3944	3044.9055	3062.2727	3064.5027	3084.9678	3089.7801	3104.9278	3122.1621	3128.0786	3173.7035
O=CC1CC(C1)C1CO1	O=C[C@H]1C[C@@H](C1)[C@H]1CO1	
InChI=1S/C7H10O2/c8-3-5-1-6(2-5)7-4-9-7/h3,5-7H,1-2,4H2	InChI=1S/C7H10O2/c8-3-5-1-6(2-5)7-4-9-7/h3,5-7H,1-2,4H2/t5-,6-,7-/m1/s1
