21
gdb 63631	3.01387	1.12495	1.05037	1.6948	79.62	-0.2375	0.0843	0.3218	1279.3121	0.179607	-424.202095	-424.192395	-424.191451	-424.236171	37.288	
C	-0.3179730375	 1.5772504727	 0.0519026915	-0.476229
C	-0.0429841755	 0.0901904482	 0.0947249766	 0.390712
C	-1.0117506946	-0.759219845	-0.7023850821	-0.446153
O	 1.3411736503	-0.318443825	-0.0729141391	-0.312682
C	 0.7049959139	-0.5537728219	 1.1933432734	-0.084247
C	 1.3490314995	 0.1476653496	 2.3584413203	 0.417209
O	 2.0582105227	 1.3040935512	 2.015632044	-0.467267
C	 0.6680400397	 0.176151579	 3.6918737399	-0.310504
C	 1.8966540372	-0.6898709921	 3.4937527129	-0.321483
H	-0.2670612052	 1.9366523065	-0.9821240786	 0.118985
H	-1.3303836012	 1.7768063088	 0.4197378127	 0.11925
H	 0.3897560628	 2.1359250104	 0.6622510075	 0.151744
H	-1.0188797144	-0.4445348662	-1.7516650388	 0.125911
H	-0.7314102673	-1.8147193187	-0.6645510606	 0.125046
H	-2.0304169139	-0.6524128631	-0.3145433473	 0.121295
H	 0.4761386624	-1.6034215702	 1.390655582	 0.084073
H	 2.4727852666	 1.1050177894	 1.1641640701	 0.289504
H	 0.7846033177	 1.0877580232	 4.2667993305	 0.128814
H	-0.2989015836	-0.3052357156	 3.7935497068	 0.113615
H	 1.7721965756	-1.7675138725	 3.4618405271	 0.110613
H	 2.8238859249	-0.3447564986	 3.9356592314	 0.121794
69.148	145.2219	175.641	180.1404	216.2706	295.6794	298.6346	327.6265	371.3618	416.172	431.2827	476.5543	515.7717	567.3237	701.6851	765.6861	796.1766	829.0382	895.9529	921.9216	938.3234	944.5559	953.7618	993.9059	1017.8673	1053.1558	1075.0136	1084.9775	1133.8342	1151.5669	1191.8282	1229.9392	1266.287	1316.341	1342.7374	1408.0076	1412.7788	1421.514	1451.4042	1462.4293	1478.7931	1484.3282	1507.2649	1508.8174	1520.7428	3032.5951	3038.3013	3081.1091	3091.6839	3099.7633	3122.198	3130.1614	3134.6974	3164.323	3217.9041	3232.0828	3746.0072
CC1(C)OC1C1(O)CC1	CC1(C)O[C@H]1C1(O)CC1	
InChI=1S/C7H12O2/c1-6(2)5(9-6)7(8)3-4-7/h5,8H,3-4H2,1-2H3	InChI=1S/C7H12O2/c1-6(2)5(9-6)7(8)3-4-7/h5,8H,3-4H2,1-2H3/t5-/m1/s1
