18
gdb 8870	3.25047	1.27164	1.08393	1.2039	68.87	-0.2477	-0.0936	0.1541	1155.4944	0.150461	-384.968072	-384.958498	-384.957554	-385.003088	32.888	
C	 0.1463897447	 1.6362338744	-0.0438501971	-0.397883
C	-0.0363676391	 0.1160481458	-0.0444997075	-0.170728
C	 0.6958670275	-0.5978545185	-1.1910112106	-0.073434
C	 2.2369081179	-0.5024303952	-1.0896003191	-0.410532
C	 0.3180209937	-2.0636693265	-1.2499466535	 0.280724
O	-0.1508276819	-2.7026789371	-0.3354654148	-0.285225
C	 0.5450801436	-2.8092229769	-2.5774864551	 0.095627
O	 0.92434416	-2.2843992244	-3.5911396298	-0.222685
H	 1.189974098	 1.9260046398	 0.1121729276	 0.119881
H	-0.1835840233	 2.0774706411	-0.9911711902	 0.116293
H	-0.4421095395	 2.0938713548	 0.7570125942	 0.118849
H	 0.2994781656	-0.3066761625	 0.9089899189	 0.112177
H	-1.1043512662	-0.1210079401	-0.1120531157	 0.105012
H	 0.407997783	-0.1597602469	-2.1558580105	 0.105457
H	 2.556286291	 0.5417289319	-1.1263796563	 0.132075
H	 2.5896474081	-0.9350352267	-0.1474669587	 0.128301
H	 2.7222887235	-1.0254142431	-1.9172570957	 0.138046
H	 0.2957910034	-3.8894036799	-2.5025183962	 0.108046
46.7847	78.9062	120.8259	152.8561	209.0502	213.5766	243.1209	277.639	338.4617	401.8759	514.1948	598.6266	634.3327	755.4481	790.677	865.1907	965.9172	970.0879	1000.7053	1040.4024	1103.1565	1127.9972	1147.5883	1202.7494	1289.195	1326.3205	1338.1055	1363.5137	1394.4206	1401.5649	1416.2243	1481.7362	1497.1275	1499.3395	1507.8517	1511.9461	1797.7523	1823.0685	2918.1805	3028.8237	3034.3453	3039.7008	3044.9357	3071.8791	3102.5751	3108.6576	3118.6369	3128.7439
CCC(C)C(=O)C=O	CC[C@@H](C)C(=O)C=O	
InChI=1S/C6H10O2/c1-3-5(2)6(8)4-7/h4-5H,3H2,1-2H3	InChI=1S/C6H10O2/c1-3-5(2)6(8)4-7/h4-5H,3H2,1-2H3/t5-/m1/s1
