24
gdb 97433	4.02192	0.64508	0.63899	2.6422	91.6	-0.2458	0.0266	0.2724	1940.1511	0.213349	-405.557858	-405.546184	-405.545239	-405.595771	41.53	
C	-0.0526036337	 1.425450762	-0.0342007536	-0.314346
N	 0.0467652403	-0.0183055101	-0.0399156317	-0.208114
C	-1.0271718431	-0.6713148277	 0.0056949507	 0.136425
O	-1.0161772083	-2.01757717	 0.0001470931	-0.21369
C	-2.2910629691	-2.6615993407	 0.072986169	-0.073249
C	-2.0926445607	-4.1817257333	 0.0111350254	 0.233511
C	-1.2305218495	-4.6414818999	 1.2005030226	-0.402953
C	-3.4835973255	-4.8350590446	 0.0895671295	-0.413211
C	-1.4092036459	-4.5627244216	-1.3143823506	-0.402924
H	 0.4996964848	 1.8297587567	 0.8220165588	 0.126751
H	 0.4204026897	 1.831522908	-0.9358791916	 0.126766
H	-1.0870114965	 1.8051168151	 0.0128481415	 0.093699
H	-2.0329948135	-0.2227800638	 0.0508933816	 0.069873
H	-2.7911781895	-2.3829098179	 1.0114896316	 0.09978
H	-2.9217040761	-2.3273995961	-0.7631630298	 0.099402
H	-1.7129425237	-4.4001589829	 2.1545477965	 0.105037
H	-1.0784665174	-5.7252715234	 1.1684306112	 0.109184
H	-0.2516965495	-4.1563313535	 1.1845361807	 0.137793
H	-4.1215740944	-4.5250912621	-0.7457981302	 0.110594
H	-3.3954544324	-5.9254695058	 0.0520593329	 0.117397
H	-3.9975726043	-4.5758693715	 1.0220770412	 0.110703
H	-0.4331138403	-4.0801195067	-1.4044028555	 0.137515
H	-1.264597842	-5.6463335661	-1.374135798	 0.109247
H	-2.0177236394	-4.259297884	-2.1739657652	 0.104811
20.2537	62.4353	106.9877	136.3528	204.8251	213.2191	231.9972	252.9523	256.6211	299.8701	306.0509	329.5392	372.1296	408.0647	432.8215	490.3247	634.1648	761.0395	924.4321	927.4341	943.4214	954.0681	963.4525	983.3707	1024.6742	1047.0171	1081.4496	1094.5795	1141.4738	1155.5226	1226.1207	1235.4615	1258.0072	1291.7604	1315.1537	1386.7234	1396.7611	1397.6669	1418.1713	1440.1852	1450.6151	1477.7187	1480.8996	1486.3806	1490.76	1495.9352	1505.195	1505.317	1512.8018	1522.1137	1779.8068	2962.5708	2978.3063	2994.3798	3023.8078	3028.8702	3033.2685	3035.5316	3055.4711	3074.7004	3089.0775	3093.9059	3094.6772	3101.808	3122.6799	3126.3774
CN=COCC(C)(C)C	CN=COCC(C)(C)C	
InChI=1S/C7H15NO/c1-7(2,3)5-9-6-8-4/h6H,5H2,1-4H3	InChI=1S/C7H15NO/c1-7(2,3)5-9-6-8-4/h6H,5H2,1-4H3
