21
gdb 90227	2.52275	1.70016	1.52425	1.596	81.02	-0.226	0.0636	0.2896	1020.0028	0.182531	-387.023616	-387.01555	-387.014606	-387.055783	32.622	
C	-0.560589433	 1.3278069103	-0.0678039923	-0.403728
C	 0.1015799576	-0.033397395	-0.0450506014	 0.079752
O	 1.3012729362	-0.0823913814	-0.9028590985	-0.357194
C	 2.0823837457	-0.550422782	 0.2124059978	 0.411853
C	 2.8891398563	 0.5026965374	 1.014021551	-0.295603
C	 1.7027583376	 0.5372880227	 2.0565683989	-0.30464
C	 0.9264847254	-0.4942079694	 1.1861778818	 0.190778
C	 1.0592120346	-2.0236944051	 1.4455696666	-0.30218
C	 2.240361643	-2.082418006	 0.3987707377	-0.298675
H	 0.1245551468	 2.1155642032	 0.2573822447	 0.120984
H	-0.8883337617	 1.5657857792	-1.0846834343	 0.127508
H	-1.4391958617	 1.334829656	 0.5868037244	 0.116435
H	-0.6171263346	-0.7988045098	-0.3712756006	 0.073628
H	 3.8518511171	 0.1683043261	 1.4101037911	 0.099532
H	 3.0386600963	 1.4321592294	 0.4607541275	 0.11319
H	 1.9680615576	 0.1548291198	 3.0455109795	 0.103665
H	 1.2242648473	 1.5102915212	 2.1919103627	 0.105101
H	 1.3539231763	-2.2774182957	 2.4671285838	 0.102382
H	 0.1780253043	-2.6184116214	 1.1887869184	 0.102624
H	 2.0219129424	-2.6477187465	-0.5094944294	 0.114374
H	 3.2023457065	-2.4154807532	 0.7975138506	 0.100212
87.3352	205.5794	222.3687	259.2051	278.38	321.868	383.6328	464.1587	544.6294	660.5425	694.3762	699.8256	711.3398	723.8354	840.2983	845.8658	873.0095	886.435	892.4799	918.3492	988.924	1017.3132	1024.6725	1056.9025	1108.0242	1162.8502	1173.0935	1180.7845	1212.4996	1221.1098	1239.9039	1242.8079	1254.3124	1272.7656	1277.3983	1285.8601	1312.4569	1382.6812	1404.5446	1456.7254	1463.8252	1468.9146	1479.5225	1482.9202	1499.5538	2994.2302	3035.1768	3051.2762	3056.3988	3059.5866	3063.0799	3100.9735	3104.6514	3105.8378	3116.1093	3123.5496	3126.9279
CC1OC23CCC12CC3	C[C@H]1O[C@@]23CC[C@@]12CC3	
InChI=1S/C8H12O/c1-6-7-2-4-8(7,9-6)5-3-7/h6H,2-5H2,1H3	InChI=1S/C8H12O/c1-6-7-2-4-8(7,9-6)5-3-7/h6H,2-5H2,1H3/t6-,7-,8-/m1/s1
