23
gdb 92701	1.9693	1.60753	1.30815	1.5879	86.81	-0.234	0.0255	0.2595	1161.2848	0.204364	-388.315718	-388.305761	-388.304817	-388.349547	38.764	
C	 0.0473160094	 1.4805576818	 0.0032351315	-0.505451
C	 0.0569759747	-0.0169992083	-0.0147417023	 0.316095
C	-0.0155231418	-0.7997302087	-1.0957893121	-0.197152
C	-0.0260502856	-2.2672723444	-0.7413961042	-0.289145
C	 0.5047905399	-2.2585990141	 0.7113778593	 0.107536
O	 1.9113470966	-2.463915736	 0.7341531167	-0.437845
C	 0.0860054296	-0.8562554344	 1.2682249667	 0.164138
C	 1.0544744912	-0.3290776714	 2.3357939902	-0.425979
C	-1.3364182075	-0.9378373004	 1.8653040837	-0.422436
H	 0.9565711105	 1.8846524303	 0.4642847302	 0.128031
H	-0.0304235192	 1.8902565308	-1.0076228391	 0.121639
H	-0.794992955	 1.8692850177	 0.5896993733	 0.126314
H	-0.1000159441	-0.4357472284	-2.1149742268	 0.082836
H	-1.0392212615	-2.6877555971	-0.8075317723	 0.10606
H	 0.6132557292	-2.8909149748	-1.375638743	 0.10381
H	 0.0943859466	-3.0679317984	 1.3221575064	 0.074112
H	 2.3013345746	-1.8224623604	 0.1286852338	 0.2768
H	 2.0700969703	-0.2163001974	 1.9497892688	 0.107608
H	 0.7219835161	 0.6433124024	 2.7146185289	 0.10546
H	 1.1039467275	-1.018523912	 3.1846029005	 0.11669
H	-1.3389230905	-1.5474115283	 2.775755175	 0.113011
H	-1.7096849686	 0.0564223384	 2.1322041413	 0.112269
H	-2.0448929625	-1.3791665269	 1.1575042936	 0.1156
86.9779	173.261	193.2213	227.3526	239.4103	253.4107	266.9023	270.2325	338.0836	374.7685	395.3475	450.8067	474.2926	572.3445	612.4232	662.7015	756.5153	820.671	854.76	892.3273	938.1353	950.5388	960.4024	1001.2652	1016.4615	1033.7659	1066.1588	1077.7069	1127.6362	1166.4834	1177.5712	1228.0517	1244.0041	1264.3271	1293.3441	1311.1004	1351.0496	1396.239	1410.6917	1418.7733	1433.5341	1476.4155	1479.6169	1480.8093	1484.626	1495.0804	1502.8337	1506.268	1708.3204	3009.4794	3019.1227	3027.4736	3037.2384	3064.4874	3066.1021	3071.932	3093.0608	3100.2411	3104.3791	3108.6192	3119.3658	3178.3739	3788.5536
CC1=CCC(O)C1(C)C	CC1=CC[C@@H](O)C1(C)C	
InChI=1S/C8H14O/c1-6-4-5-7(9)8(6,2)3/h4,7,9H,5H2,1-3H3	InChI=1S/C8H14O/c1-6-4-5-7(9)8(6,2)3/h4,7,9H,5H2,1-3H3/t7-/m1/s1
