16
gdb 43704	4.81429	1.21228	1.0898	2.9046	70.93	-0.2527	0.0215	0.2743	1092.6957	0.124277	-437.806857	-437.799882	-437.798938	-437.838346	27.695	
N	 0.0688760824	 1.2016951529	 0.6631647239	-0.540962
C	-0.025111497	 0.0916029791	 0.0919182998	 0.414474
C	-1.160750725	-0.8512988782	-0.2459242461	-0.472165
C	-0.0359967506	-1.7035853785	-0.8515700143	 0.532845
O	 0.9479945546	-0.718450928	-0.4703295322	-0.281598
C	 0.2754858759	-3.2007582182	-0.6547418204	-0.039719
C	-0.8213521675	-3.5229130212	-1.6996651777	-0.233079
C	 0.054060577	-2.3656771006	-2.2411072208	-0.039719
O	 1.2530786048	-3.0952362052	-1.7640807015	-0.310279
H	 1.0388408089	 1.5207504808	 0.6957310761	 0.232219
H	-1.6753675638	-1.2775035707	 0.6171169046	 0.144533
H	-1.8940190005	-0.4528664052	-0.9494087471	 0.144533
H	 0.5765313956	-3.7411343993	 0.2418229631	 0.109222
H	-0.6703491681	-4.4685171424	-2.2185191211	 0.123015
H	-1.8674982702	-3.3275120642	-1.4507824263	 0.107457
H	 0.0917804935	-1.9129495612	-3.2310962399	 0.109222
93.7466	181.5928	239.7122	394.5118	412.1901	434.966	497.1198	565.6738	648.0375	759.5878	771.608	792.1655	866.6807	876.4484	878.2384	917.9027	962.2385	986.9631	1004.3592	1018.77	1059.999	1094.311	1103.8578	1124.2038	1160.7848	1174.1139	1190.2166	1214.6726	1242.889	1259.8736	1297.5131	1345.0351	1460.0852	1482.73	1835.2404	3069.271	3085.1073	3132.6965	3137.0543	3138.8871	3163.3609	3476.7136
N=C1CC2(O1)C1CC2O1	[NH][C]1C[C@@]2(O1)[C@H]1C[C@@H]2O1	
InChI=1S/C6H7NO2/c7-5-2-6(9-5)3-1-4(6)8-3/h3-4,7H,1-2H2	InChI=1S/C6H7NO2/c7-5-2-6(9-5)3-1-4(6)8-3/h3-4,7H,1-2H2/t3-,4+,6-
