19
gdb 37363	2.83603	1.84871	1.6061	1.7366	72.18	-0.2399	0.083	0.3229	910.2587	0.163328	-423.017933	-423.011481	-423.010537	-423.048341	27.554	
C	 0.0031306428	 1.5252585355	-0.0051275284	-0.234352
C	 1.5139046884	 1.8482978824	-0.0197350343	-0.064326
C	 2.0669857134	 1.4538099285	 1.3682229032	-0.23023
C	 1.7787360322	-0.0329723364	 1.6729725241	-0.063888
O	 0.4816229912	-0.483036743	 1.2754812539	-0.276925
C	 0.054836261	-0.0124304333	-0.005209511	 0.08169
C	 1.1340663055	-0.3064086994	-1.0490744018	 0.020458
O	 1.1520029535	 0.6050104259	-2.1557210519	-0.265781
C	 2.0365136982	 0.8535845764	-1.0564915751	 0.061105
H	-0.5029482194	 1.9022366144	 0.8859527719	 0.098354
H	-0.4996374588	 1.9014899212	-0.8962085649	 0.116771
H	 1.7401617786	 2.8909861908	-0.2585080324	 0.070573
H	 3.1497382873	 1.6153487006	 1.4355478024	 0.097804
H	 1.5995763739	 2.0951795047	 2.1233566604	 0.107171
H	 2.5493585281	-0.6564629873	 1.1985838678	 0.095774
H	 1.8322154031	-0.2198209415	 2.7493802998	 0.109107
H	-0.9053527932	-0.4973846639	-0.1934373398	 0.080837
H	 1.4545711362	-1.3232951519	-1.2557430924	 0.100846
H	 3.0974804679	 0.7748278863	-1.2799118714	 0.095011
243.0993	254.2789	326.8759	359.8716	445.4948	475.0379	480.5722	611.2846	757.8536	772.7058	814.0781	838.9979	863.6611	875.5101	888.0293	896.5286	940.0079	986.0419	1012.1008	1022.463	1054.6654	1068.9254	1083.0627	1099.9128	1130.5527	1175.7374	1205.5407	1234.4954	1252.8156	1290.2494	1294.9896	1320.6058	1328.5257	1334.9135	1364.612	1375.5527	1415.3872	1425.2725	1476.1712	1493.4229	1514.3314	3002.3756	3030.8492	3070.197	3070.8281	3083.1706	3085.8619	3095.5405	3140.079	3145.7726	3163.9965
C1C2CCOC1C1OC21	C1[C@H]2CCO[C@@H]1[C@H]1O[C@@H]21	
InChI=1S/C7H10O2/c1-2-8-5-3-4(1)6-7(5)9-6/h4-7H,1-3H2	InChI=1S/C7H10O2/c1-2-8-5-3-4(1)6-7(5)9-6/h4-7H,1-3H2/t4-,5+,6+,7-/m1/s1
