23
gdb 109664	2.63167	0.95318	0.88126	1.6381	82.44	-0.2547	0.0696	0.3244	1460.6473	0.203289	-425.405154	-425.393943	-425.392998	-425.441284	40.613	
C	-0.2611962818	 0.9693906388	-1.9047590552	-0.427414
C	-0.0273292903	-0.1708897585	-0.935047353	-0.042158
C	 1.3391973675	-0.5265608973	-0.3676208507	-0.11845
C	 2.5985114292	 0.2287354033	-0.7255693307	-0.085593
O	 3.1984706027	-0.27096804	-1.9153074388	-0.419763
C	 0.2577988409	 0.032123513	 0.5400870646	 0.311803
C	 0.3609467847	 1.4244485023	 1.1401948431	-0.466365
C	-0.3842498703	-0.9643966171	 1.4825066234	-0.137075
O	-1.7230597381	-0.551284183	 1.7339746622	-0.423153
H	 0.4094859756	 1.8162520342	-1.7415815647	 0.119088
H	-0.1222864453	 0.6357560804	-2.9401116219	 0.110471
H	-1.2864610406	 1.3453269706	-1.8196103152	 0.128397
H	-0.6594400747	-1.0303697747	-1.1472862585	 0.084404
H	 1.5320287606	-1.592669722	-0.2633903772	 0.082196
H	 2.4137015056	 1.3091292576	-0.8029950029	 0.083929
H	 3.3529409447	 0.0926203465	 0.0573693482	 0.109566
H	 2.5303529435	-0.2330812822	-2.6074299434	 0.281473
H	 0.7347754896	 2.1702033389	 0.4371217176	 0.112184
H	-0.6253465018	 1.7475586185	 1.4842737387	 0.136757
H	 1.0319445536	 1.4237984995	 2.0077439866	 0.110551
H	-0.3618226819	-1.968955675	 1.031445302	 0.080235
H	 0.1934626427	-1.0112563948	 2.4205948819	 0.082422
H	-2.0767099059	-1.0952824089	 2.4435439739	 0.286494
70.3603	90.711	131.2334	158.8222	171.7905	207.8089	230.5581	238.3392	276.6547	286.1439	328.3534	350.1136	377.1649	455.9406	525.1925	619.1303	693.7719	782.3834	848.3835	941.0155	959.3728	990.6382	1012.2347	1033.4668	1036.9319	1062.2733	1080.8533	1108.2273	1134.3139	1160.6155	1174.1117	1220.1325	1236.6936	1250.0413	1276.4903	1344.8616	1355.1869	1390.3932	1410.678	1420.0041	1428.3272	1453.9879	1463.9978	1484.1559	1497.4999	1500.3132	1513.4957	1516.9953	1525.2508	2958.3205	2991.5136	3005.9177	3028.7563	3034.753	3061.674	3083.322	3100.2353	3110.2757	3119.1134	3131.0838	3137.0657	3814.6352	3831.4455
CC1C(CO)C1(C)CO	C[C@H]1[C@@H](CO)[C@]1(C)CO	
InChI=1S/C7H14O2/c1-5-6(3-8)7(5,2)4-9/h5-6,8-9H,3-4H2,1-2H3	InChI=1S/C7H14O2/c1-5-6(3-8)7(5,2)4-9/h5-6,8-9H,3-4H2,1-2H3/t5-,6+,7+/m0/s1
