20
gdb 16428	3.23918	2.16065	1.64713	0.2379	79.35	-0.2767	0.0958	0.3725	883.7675	0.177077	-311.805563	-311.798085	-311.797141	-311.836644	29.934	
C	-0.1666086797	 1.595799791	-0.0148026922	-0.423821
C	-0.0355259548	 0.0796940432	 0.0058299805	-0.041696
C	 1.1836820009	-0.5933281189	-0.6583255276	-0.046645
C	 2.1306119656	-0.2938718091	 0.5549962474	-0.082842
C	 2.5822105171	-1.7636563825	 0.6565031733	-0.277193
C	 1.0917961221	-1.8446547121	 0.2775234514	-0.07765
C	 0.7125398843	-0.6085667814	 1.1769629792	 0.364551
C	 0.347980266	-0.6287282219	 2.6369033425	-0.526056
H	 0.7785743391	 2.0874188177	 0.2389570513	 0.111951
H	-0.4702870585	 1.9519268283	-1.0056395971	 0.113059
H	-0.9224898137	 1.9379635507	 0.7011870642	 0.112375
H	-0.994778191	-0.3955319336	-0.2428151732	 0.053605
H	 1.4791554694	-0.6043868594	-1.709469867	 0.061264
H	 2.7209351856	 0.6103861076	 0.711407814	 0.065133
H	 3.2995581999	-2.1089160976	-0.0953446145	 0.087998
H	 2.8662970492	-2.1307872553	 1.6482993726	 0.088367
H	 0.4652803223	-2.7231409278	 0.1081930164	 0.061813
H	 1.0770686228	-1.1996491572	 3.222720036	 0.119467
H	 0.3109593082	 0.385706338	 3.0500413076	 0.118966
H	-0.6360205847	-1.0862572897	 2.7909517051	 0.117352
195.8107	203.1295	207.8778	224.512	275.0794	317.8937	466.031	522.8993	624.9563	720.2717	727.7794	830.9914	844.6254	859.2361	877.1319	907.8737	915.0326	980.0349	1017.639	1023.7175	1035.6133	1068.4901	1100.1056	1103.1242	1136.5757	1153.4199	1161.3614	1168.7845	1186.513	1222.4445	1239.6798	1261.289	1289.6936	1332.1745	1402.634	1406.9891	1417.4573	1486.4176	1491.961	1495.1507	1500.2246	1511.4381	3006.1193	3021.8154	3026.3872	3034.5635	3084.2408	3085.8743	3086.8882	3087.6539	3089.0621	3090.8811	3097.5745	3102.8863
CC1C2C3CC2C13C	C[C@H]1[C@H]2[C@@H]3C[C@H]2[C@]13C	
InChI=1S/C8H12/c1-4-7-5-3-6(7)8(4,5)2/h4-7H,3H2,1-2H3	InChI=1S/C8H12/c1-4-7-5-3-6(7)8(4,5)2/h4-7H,3H2,1-2H3/t4-,5-,6+,7-,8+/m0/s1
