16
gdb 43759	4.76632	1.08	1.00531	2.4705	71.61	-0.2636	0.0139	0.2775	1176.0672	0.123875	-437.827668	-437.820064	-437.81912	-437.860252	28.792	
N	-0.323685575	 1.1772796886	-0.164688616	-0.552054
C	-0.1555825276	-0.0540431722	-0.0179847884	 0.441984
O	 1.0296234272	-0.7979518224	 0.0695885009	-0.312127
C	 0.2557361977	-2.0316127221	 0.0404066486	 0.472854
C	-0.6007559874	-2.1088631854	 1.2477267016	-0.341332
C	-1.0440863415	-1.2496005512	 0.0535714515	-0.263304
C	 0.7545690547	-3.1297375453	-0.81775286	-0.055556
C	 1.3747522308	-4.3330759027	-0.242040176	-0.170093
O	 0.0267089397	-4.3521158595	-0.7171488446	-0.22634
H	 0.5690917867	 1.6715720091	-0.2052820039	 0.232073
H	-1.1701576843	-3.026700023	 1.3517762096	 0.146923
H	-0.2788325336	-1.6377515126	 2.1708898736	 0.131615
H	-1.9781975618	-1.4008973186	-0.4661424978	 0.132731
H	 1.0281282761	-2.834155898	-1.8305062219	 0.110661
H	 2.0861910774	-4.9025623438	-0.8368712382	 0.127203
H	 1.4888245809	-4.4076110411	 0.837517281	 0.124761
67.417	117.5219	184.5464	247.4297	369.4227	400.6957	434.8083	514.7231	644.2757	673.1152	736.31	844.7945	860.4966	868.9089	883.0042	912.7507	940.7612	969.3489	988.826	1004.2236	1034.0269	1077.8959	1093.4702	1104.2855	1135.1517	1155.9397	1169.8618	1217.3703	1271.2002	1291.1239	1382.8398	1446.676	1500.5598	1522.4263	1836.7141	3094.0845	3116.1921	3128.8259	3187.7969	3226.4144	3237.7964	3480.9791
N=C1OC2(CC12)C1CO1	[NH][C]1O[C@]2(C[C@@H]12)[C@H]1CO1	
InChI=1S/C6H7NO2/c7-5-3-1-6(3,9-5)4-2-8-4/h3-4,7H,1-2H2	InChI=1S/C6H7NO2/c7-5-3-1-6(3,9-5)4-2-8-4/h3-4,7H,1-2H2/t3-,4+,6-/m0/s1
