18
gdb 65237	2.8616	1.24354	1.11208	2.1966	72.24	-0.2507	0.0283	0.2791	1154.2339	0.146782	-439.086623	-439.077788	-439.076843	-439.120787	32.335	
C	 0.1216789848	 1.4523990266	-0.4424030489	-0.484371
C	 0.0908327928	-0.0268964531	-0.1269100691	 0.437728
C	 1.301204139	-0.8344449181	-0.34218168	-0.227239
O	 0.9178195151	-0.4375677908	 0.9767247525	-0.284747
C	-1.2511182587	-0.7215748939	-0.1713618527	-0.218701
C	-2.4183453531	-0.1563070017	 0.6993406447	-0.184195
N	-3.1491361956	 0.0743226537	-0.5498798796	-0.320703
C	-2.1711656195	-0.3985215586	-1.3878770853	 0.415319
O	-2.0883487064	-0.4960747876	-2.5825735904	-0.365211
H	 1.1370489188	 1.838550099	-0.3295188366	 0.130045
H	-0.2115158811	 1.630723255	-1.4695260381	 0.147242
H	-0.5289409188	 2.0201042434	 0.2308314627	 0.124376
H	 1.2147508173	-1.8985072109	-0.5577120631	 0.115699
H	 2.1984731486	-0.3563869106	-0.7326679769	 0.115518
H	-1.1162136052	-1.7966196662	-0.0352931783	 0.105246
H	-2.8846024606	-0.8866579266	 1.3670261331	 0.119705
H	-2.187025532	 0.7544320114	 1.2589218567	 0.120879
H	-4.0773816454	 0.4225722191	-0.7384305908	 0.253408
46.1919	97.8898	135.1313	197.3888	239.0369	310.0595	359.2806	367.756	423.2334	489.5485	546.9759	644.3539	749.3665	775.807	822.682	887.9128	923.566	932.1438	987.3046	1000.3484	1058.7311	1065.175	1111.8164	1134.8758	1157.3785	1163.208	1170.9699	1182.8376	1286.8781	1297.6605	1306.1464	1395.1602	1407.0517	1426.7513	1485.5652	1497.302	1530.4643	1534.4977	1891.3664	3042.4715	3050.4737	3083.2296	3090.9963	3101.4976	3108.2316	3130.9342	3169.3963	3612.7395
CC1(CO1)C1CNC1=O	C[C@]1(CO1)[C@H]1CNC1=O	
InChI=1S/C6H9NO2/c1-6(3-9-6)4-2-7-5(4)8/h4H,2-3H2,1H3,(H,7,8)	InChI=1S/C6H9NO2/c1-6(3-9-6)4-2-7-5(4)8/h4H,2-3H2,1H3,(H,7,8)/t4-,6-/m0/s1
