18
gdb 72044	2.4015	1.66735	1.28495	4.4729	82.43	-0.2542	0.0176	0.2718	1049.5688	0.148909	-364.791597	-364.783848	-364.782904	-364.823672	30.282	
C	-0.1374588351	 1.4402234083	-0.0270627047	-0.502216
C	 0.0312685007	-0.0484399641	-0.0140803572	 0.277046
C	 0.9533037731	-0.8920535074	-0.9000700284	-0.277687
C	 0.1131315072	-2.1201760633	-0.4641947386	-0.121805
C	 0.4048758204	-2.2510527946	 1.0547017558	-0.234954
C	-0.3007314145	-0.9046256121	 1.2067221044	-0.155391
C	-1.0637481829	-1.1157049785	-0.1012640646	 0.252493
C	-2.4346015718	-1.0402331565	-0.4189998808	 0.113945
N	-3.5599871792	-0.9797782122	-0.6920170371	-0.372177
H	 0.7502838196	 1.9353914087	 0.3826446592	 0.128789
H	-0.2911694916	 1.8122515187	-1.0451678197	 0.132496
H	-0.999054055	 1.7470332655	 0.574374863	 0.134457
H	 0.8078815341	-0.6480158577	-1.9559518466	 0.111623
H	 2.0241655264	-0.9120317136	-0.6672931927	 0.096162
H	 0.0158906173	-2.995196084	-1.1011354761	 0.094214
H	-0.1733988197	-3.0554363065	 1.5157491196	 0.116235
H	 1.4554280175	-2.326739287	 1.3554809168	 0.098987
H	-0.7007935863	-0.4535692938	 2.1058890977	 0.107783
113.9075	147.1455	200.9363	259.3524	294.6025	408.2721	436.297	519.1832	552.694	586.5565	608.9718	715.6967	760.9762	839.5829	879.9141	926.2173	937.1213	968.2907	981.0192	1000.7706	1018.2611	1051.8704	1091.6665	1126.8821	1140.3692	1178.2773	1206.4868	1222.9633	1239.4572	1268.1359	1291.8325	1337.2252	1415.0607	1438.7344	1484.5812	1493.0773	1496.9161	1512.1599	2331.8523	3029.9611	3035.3675	3044.6605	3093.9927	3101.0093	3105.2835	3109.1781	3157.4312	3203.3796
CC12CC3CC1C23C#N	C[C@@]12C[C@H]3C[C@@H]1[C@@]23C#N	
InChI=1S/C8H9N/c1-7-3-5-2-6(7)8(5,7)4-9/h5-6H,2-3H2,1H3	InChI=1S/C8H9N/c1-7-3-5-2-6(7)8(5,7)4-9/h5-6H,2-3H2,1H3/t5-,6+,7-,8+/m1/s1
