14
gdb 131693	2.70948	1.48376	0.96446	2.6195	69.99	-0.2451	-0.0794	0.1657	1122.7956	0.099452	-469.947551	-469.939286	-469.938342	-469.98091	29.639	
O	-0.0281075165	 1.4193539281	-0.0251446139	-0.424727
C	 0.0024301724	 0.0048772518	-0.0586868249	-0.163686
C	-1.4018735131	-0.5121443883	 0.0204445472	 0.126029
C	-2.4751927661	 0.2960501261	 0.1049102608	 0.046767
O	-3.7413317402	-0.1338986192	 0.1769818619	-0.251594
N	-3.9760179347	-1.598699883	 0.164411548	 0.044873
N	-3.0133420132	-2.3385771165	 0.0883893847	-0.142095
C	-1.6305846572	-1.9331657927	 0.0066379095	 0.327579
N	-0.7106840869	-2.8131706772	-0.0707958746	-0.512407
H	 0.8755018463	 1.7411042434	-0.0782861524	 0.299001
H	 0.4684355512	-0.3790803668	-0.9798512826	 0.123175
H	 0.5818842771	-0.4185497509	 0.7767887906	 0.123228
H	-2.4019986394	 1.377346391	 0.1219983642	 0.16986
H	-1.1205775797	-3.7489040358	-0.0627549386	 0.233996
66.4811	108.1003	192.4394	193.3288	263.4249	336.8676	388.0139	419.4719	485.3885	520.6048	543.5818	612.7931	770.945	797.3805	874.4019	891.5034	933.1346	1015.0795	1046.3684	1095.8498	1157.3877	1211.952	1226.1806	1239.7728	1305.678	1411.3013	1470.5975	1503.4047	1636.1557	1702.1917	1717.8723	2979.3067	2999.7061	3214.2312	3471.99	3851.4306
OCC1=CON=NC1=N	OCC1=CO[N]N=C1[NH]	
InChI=1S/C4H5N3O2/c5-4-3(1-8)2-9-7-6-4/h2,5,8H,1H2	InChI=1S/C4H5N3O2/c5-4-3(1-8)2-9-7-6-4/h2,5,8H,1H2
