20
gdb 86574	2.99905	1.13118	0.97145	5.3035	75.55	-0.2389	0.0166	0.2555	1282.915	0.170398	-440.306196	-440.296891	-440.295947	-440.34044	34.279	
C	-1.4630540213	 0.7186234697	 0.5396814354	-0.406592
C	-0.467618356	-0.4187594146	 0.3308714872	 0.053044
C	 0.3595866191	-0.3109242711	-0.978884764	-0.26324
C	 1.5504535774	 0.151539847	-0.0883525175	-0.114508
N	 0.8145755486	-0.3358248794	 1.095160853	-0.103958
H	 2.1842902146	-1.7247032019	 0.9377320853	 0.295462
C	 0.9111690297	 0.3900253785	 2.3498035521	-0.341292
C	 2.882879953	-0.5561856725	-0.3213527125	 0.420408
O	 3.7198500359	-0.1694366927	-1.0914551279	-0.34308
O	 3.0039796179	-1.6847262899	 0.3975305283	-0.371232
H	-1.0121862794	 1.6981191043	 0.3488265882	 0.123936
H	-2.3039161543	 0.5974683478	-0.150927708	 0.127165
H	-1.8670048714	 0.7205033938	 1.5570060103	 0.123815
H	-0.9735775829	-1.3776090698	 0.4915076006	 0.082344
H	 0.5396370384	-1.2691144448	-1.4684903219	 0.12474
H	 0.0072555605	 0.4120470718	-1.7143232621	 0.121306
H	 1.715767321	 1.2352610111	-0.1221289737	 0.093921
H	 0.6136815566	 1.4472652267	 2.2734122175	 0.112273
H	 0.2839712568	-0.0918245771	 3.1063609342	 0.129785
H	 1.9471516258	 0.3547288029	 2.7022692455	 0.135701
79.3683	91.7239	155.6037	198.9441	221.2597	251.2886	264.4369	301.3792	375.2293	438.2636	525.9768	606.6164	690.1361	739.5427	795.5238	807.5924	849.9657	900.6481	920.8449	981.0929	991.3946	1059.4283	1079.7567	1096.4354	1154.5001	1183.8746	1205.9941	1228.2333	1234.8264	1258.5048	1281.5122	1307.5992	1332.5685	1380.3471	1404.6882	1414.5437	1453.0158	1483.6793	1491.4743	1491.6602	1498.6169	1506.9414	1873.2147	2983.638	3030.8314	3033.2536	3037.2126	3069.1614	3089.0787	3104.1163	3106.0243	3107.7554	3148.2714	3478.4163
CC1CC([NH+]1C)C([O-])=O	C[C@H]1C[C@@H](N1C)C(=O)O	
InChI=1S/C6H11NO2/c1-4-3-5(6(8)9)7(4)2/h4-5H,3H2,1-2H3,(H,8,9)	InChI=1S/C6H11NO2/c1-4-3-5(6(8)9)7(4)2/h4-5H,3H2,1-2H3,(H,8,9)/t4-,5+/m0/s1
