18
gdb 126170	4.17079	0.97335	0.81433	4.3155	73.52	-0.255	-0.0013	0.2536	1386.5986	0.148483	-435.268016	-435.259205	-435.258261	-435.302266	32.003	
C	 0.0415093271	 1.5834551542	-0.4191758677	-0.387342
C	-0.0662672981	 0.0665512739	-0.5866201031	-0.193072
C	-1.1404074449	-0.5551504035	 0.3131687183	-0.008027
O	-2.4393631152	-0.0042807425	 0.0815105555	-0.43198
C	-1.1918191909	-2.0542055561	 0.2009842262	 0.334922
C	-0.2968733202	-3.0493960878	-0.124939848	-0.172012
N	-0.9209497956	-4.2582928318	-0.0303440561	-0.189442
N	-2.15724737	-4.0717347368	 0.3334561819	-0.113828
N	-2.3241512169	-2.7451131658	 0.4796598729	-0.230974
H	 0.7827397499	 2.000555628	-1.1063009706	 0.118367
H	-0.9195177998	 2.0662317853	-0.6144474629	 0.129365
H	 0.3433732942	 1.8465286853	 0.6003305278	 0.121389
H	-0.2936793497	-0.1908792518	-1.6301730594	 0.101455
H	 0.8947682076	-0.4090634086	-0.3582719374	 0.114528
H	-0.9244597257	-0.2822954916	 1.3548898016	 0.116927
H	-2.6400439958	-0.1193421134	-0.8554109234	 0.285283
H	 0.7384808173	-2.9732257081	-0.4140013337	 0.121615
H	-3.2195657934	-2.361041029	 0.7391799481	 0.282825
50.6745	94.2594	135.1116	187.6428	226.8234	287.6949	345.4966	369.7221	457.8735	483.6269	628.3978	677.3487	741.6108	764.7468	809.3482	853.0509	899.0261	980.2401	999.5724	1063.4658	1065.326	1072.1721	1102.3522	1131.1769	1143.5275	1215.4224	1251.6792	1302.2753	1324.4206	1333.3909	1359.8733	1391.6523	1407.6595	1411.9491	1438.1109	1481.9046	1495.3567	1507.528	1593.6513	3014.5082	3026.9686	3042.014	3065.0806	3109.2667	3125.2542	3271.7764	3652.9954	3783.5625
CCC(O)C1=CN=NN1	CC[C@@H](O)c1cnn[nH]1	
InChI=1S/C5H9N3O/c1-2-5(9)4-3-6-8-7-4/h3,5,9H,2H2,1H3,(H,6,7,8)	InChI=1S/C5H9N3O/c1-2-5(9)4-3-6-8-7-4/h3,5,9H,2H2,1H3,(H,6,7,8)/t5-/m1/s1
