19
gdb 109660	2.03758	1.32173	1.13528	3.4595	74.1	-0.243	-0.0194	0.2236	1207.3712	0.155382	-460.14474	-460.134377	-460.133433	-460.180451	36.286	
C	 0.2909306864	 1.0878357013	-0.0252986548	-0.242073
O	-0.3367524781	-0.0438410991	 0.5600072325	-0.254321
C	 0.4837996626	-0.7684478578	 1.4072336499	 0.019761
C	 0.0186561031	-2.1428927302	 1.6729940616	 0.076213
O	-1.1280507143	-2.5996607704	 1.0492981498	-0.425549
C	 1.3086191086	-1.9491677975	 0.8191721228	 0.121319
C	 1.245256338	-2.2735710835	-0.6569948086	-0.488547
C	 2.5602434407	-2.2188222564	 1.5487941745	 0.085508
O	 2.7242167091	-1.9862465671	 2.7289180199	-0.289348
H	 1.144567043	 0.7943877791	-0.6491271397	 0.123695
H	-0.4591811265	 1.5831094019	-0.6447115148	 0.137057
H	 0.6392671184	 1.7852893966	 0.7479777999	 0.125931
H	 0.976656387	-0.2079231506	 2.2007137487	 0.119897
H	 0.1812377843	-2.5635840684	 2.6604753063	 0.130701
H	-1.5191654776	-1.8463979474	 0.5873267681	 0.304105
H	 0.4421486128	-1.722553434	-1.1496395575	 0.129159
H	 2.1855429305	-2.0096909156	-1.1526054811	 0.11898
H	 1.0606917697	-3.339523328	-0.8235582103	 0.136029
H	 3.3768748021	-2.6650154829	 0.937219933	 0.071482
54.76	106.0052	110.3366	158.3544	172.5112	199.9362	211.2494	238.3823	290.8655	360.7924	398.4358	465.7889	513.0953	635.3812	662.5775	728.6687	745.964	895.9901	952.0471	1013.901	1047.5437	1052.2825	1103.2794	1110.0514	1169.0738	1181.5706	1193.1035	1237.9605	1251.9854	1290.1881	1334.8724	1371.1216	1415.0333	1429.6455	1453.8392	1485.988	1487.5611	1492.8265	1497.6027	1508.2395	1778.2488	2872.6545	3006.6024	3039.4327	3066.6944	3098.7181	3119.4344	3130.1825	3132.9587	3164.5399	3766.4004
COC1C(O)C1(C)C=O	CO[C@H]1[C@@H](O)[C@]1(C)C=O	
InChI=1S/C6H10O3/c1-6(3-7)4(8)5(6)9-2/h3-5,8H,1-2H3	InChI=1S/C6H10O3/c1-6(3-7)4(8)5(6)9-2/h3-5,8H,1-2H3/t4-,5+,6+/m1/s1
