20
gdb 122479	3.59628	0.6586	0.59086	1.4747	82.76	-0.2459	0.0367	0.2826	1864.1416	0.168974	-403.080043	-403.069815	-403.068871	-403.116368	36.652	
O	-0.1231635785	 1.4258066583	-0.4453944295	-0.422323
C	-0.0150383782	 0.0862637268	 0.0129682904	-0.075951
C	-1.3920823387	-0.5558817963	-0.0830744441	-0.162672
C	-1.4059380853	-2.00603697	 0.4130580956	-0.208301
C	-2.7719658252	-2.6355081196	 0.2819490244	-0.003682
N	-3.1441753395	-3.1317466433	-1.0459068115	-0.32231
C	-2.97290049	-4.1048273925	 0.0625109704	-0.25818
C	-1.8817395767	-5.0361739465	-0.0263889314	 0.383459
C	-0.9816605727	-5.8325080739	-0.0667925496	-0.447934
H	 0.7499835446	 1.8267665469	-0.4099742945	 0.284572
H	 0.7037439919	-0.4874282857	-0.5947537298	 0.087514
H	 0.341518898	 0.0503160605	 1.0562487169	 0.081039
H	-2.0981864209	 0.0528359851	 0.4959199088	 0.098736
H	-1.7256012084	-0.5227531443	-1.1262253844	 0.120133
H	-0.6887314342	-2.6075494344	-0.1550325811	 0.118153
H	-1.0950976276	-2.0493658623	 1.4655675003	 0.097656
H	-3.5552607862	-2.1527635835	 0.8672333834	 0.087836
H	-4.1361334905	-2.9950101797	-1.2217723974	 0.236191
H	-3.8798712727	-4.5252457803	 0.4928185732	 0.108762
H	-0.1853344093	-6.5331096353	-0.1155379003	 0.197301
49.5559	71.2805	86.7664	134.3007	156.3386	217.4012	262.4165	299.1135	311.5831	442.1958	457.2372	551.5851	600.8511	623.1247	656.6294	756.4966	806.0912	821.5046	868.7468	911.6748	968.4077	1001.2196	1029.5275	1050.1754	1069.915	1088.7048	1143.1463	1190.5198	1209.438	1230.7019	1246.6579	1259.8115	1302.239	1309.7285	1318.0169	1373.6392	1408.4567	1459.4468	1463.9742	1478.6159	1499.9609	1528.1175	2239.2796	2955.3847	2982.0026	3022.1494	3031.1131	3071.2201	3087.5615	3103.8223	3123.2722	3503.9457	3504.8242	3830.9682
OCCCC1NC1C#C	OCCC[C@H]1N[C@H]1C#C	
InChI=1S/C7H11NO/c1-2-6-7(8-6)4-3-5-9/h1,6-9H,3-5H2	InChI=1S/C7H11NO/c1-2-6-7(8-6)4-3-5-9/h1,6-9H,3-5H2/t6-,7+/m0/s1
