23
gdb 95367	2.44946	1.69336	1.25158	1.4176	83.55	-0.2395	0.0731	0.3126	1109.5521	0.209229	-388.319514	-388.311364	-388.31042	-388.352192	32.687	
C	 0.1122611548	 1.589810592	 0.1352755151	-0.384956
C	 0.0428835989	 0.0629729547	 0.012895885	-0.011999
C	 0.8044574803	-0.469085796	-1.2256118214	-0.211835
C	 2.23177025	-0.7224265055	-0.716807893	-0.22286
C	 2.0181283504	-1.3398779356	 0.6787065068	-0.014917
C	 3.062192866	-0.980662512	 1.7476387414	-0.241595
C	 2.4925976687	 0.3176574334	 2.3298050246	-0.081509
O	 1.0799608377	 0.1551535861	 2.3099712552	-0.258746
C	 0.7081109065	-0.6867679755	 1.2152312959	 0.116034
H	 1.1427019585	 1.9583516882	 0.0930404584	 0.110127
H	-0.4387791598	 2.0572812121	-0.6873551635	 0.103418
H	-0.3164629563	 1.9298661274	 1.0802350779	 0.127685
H	-1.0139672623	-0.2181908002	-0.0449794992	 0.064531
H	 0.3631347734	-1.4157848483	-1.5607852844	 0.091883
H	 0.762901595	 0.2225554681	-2.0730576093	 0.091732
H	 2.8185714192	-1.3667190891	-1.3779296983	 0.092918
H	 2.7755112909	 0.226855331	-0.6311555038	 0.095991
H	 1.8971738412	-2.4226513302	 0.584338651	 0.069181
H	 3.1012722262	-1.7517870771	 2.5234825117	 0.102881
H	 4.0700190993	-0.8575084533	 1.3405434679	 0.098484
H	 2.7948448129	 0.5078565627	 3.3639991077	 0.104647
H	 2.7964340832	 1.1869465783	 1.7245465246	 0.086824
H	 0.0146612753	-1.4297452213	 1.6235893701	 0.07208
63.8989	169.1756	216.995	234.1446	279.9829	343.8794	378.4497	468.3305	545.5677	621.6462	649.8845	761.4394	777.4855	792.5072	849.0641	897.2395	911.9144	940.8724	954.2939	959.5573	1005.5619	1008.7727	1036.889	1051.6055	1068.7879	1083.0487	1129.56	1159.5325	1200.7206	1208.5649	1223.1778	1231.6122	1256.7834	1299.0479	1311.6615	1322.8347	1342.8183	1348.8804	1358.3866	1369.0421	1372.2268	1395.5398	1413.8728	1484.5992	1487.3892	1495.8052	1497.4115	1504.3156	1525.2806	2974.2568	3023.3445	3029.0968	3032.4596	3037.4851	3047.1043	3049.7877	3064.8532	3078.0327	3079.2894	3089.4874	3097.8436	3100.3078	3127.3469
CC1CCC2CCOC12	C[C@H]1CC[C@H]2CCO[C@@H]12	
InChI=1S/C8H14O/c1-6-2-3-7-4-5-9-8(6)7/h6-8H,2-5H2,1H3	InChI=1S/C8H14O/c1-6-2-3-7-4-5-9-8(6)7/h6-8H,2-5H2,1H3/t6-,7-,8-/m0/s1
