19
gdb 78421	5.09676	1.21117	1.18329	2.2241	78.18	-0.2279	0.0898	0.3176	1101.491	0.160646	-385.809633	-385.80275	-385.801806	-385.840554	28.797	
C	-0.0074459893	 1.5448809949	 0.0246839214	-0.424093
C	 0.0165075456	 0.0325390719	 0.0233826587	-0.018465
C	 1.3245661239	-0.6773307975	-0.2534641084	-0.08104
C	 0.7286990686	-0.6879577046	 1.1482116692	-0.081036
C	 0.4507614258	-2.1669136149	 1.3372295026	-0.049824
C	-0.0150736832	-2.793193851	-0.0114652646	 0.027085
O	 0.6836045254	-4.0516717415	 0.2760052436	-0.3192
C	 1.6126216197	-2.9953554286	 0.6789491484	 0.049412
C	 1.2758792884	-2.1521980912	-0.6037264955	-0.049822
H	 0.9265815225	 1.9540021899	 0.4246980989	 0.115215
H	-0.1356379276	 1.9401476658	-0.9888774628	 0.119995
H	-0.828200565	 1.9277740265	 0.6409084236	 0.119995
H	-0.8898772097	-0.4251185158	-0.3654041838	 0.084991
H	 2.2025496955	-0.0904172542	-0.4992863698	 0.08502
H	 1.157723667	-0.1090475809	 1.9584911409	 0.085019
H	 0.0050210011	-2.5412119212	 2.2578247795	 0.07759
H	-1.0162928206	-2.8628751671	-0.437621178	 0.091995
H	 2.5795919072	-3.2930312822	 1.0877584609	 0.089573
H	 1.6314979447	-2.5122066182	-1.5681998647	 0.07759
175.395	210.3456	240.217	339.1669	373.3628	478.1435	499.6139	687.339	731.8028	764.0358	782.1112	815.599	852.395	860.9707	893.5671	899.585	907.9618	958.6037	985.8527	993.8011	1011.2125	1047.3653	1064.796	1084.178	1116.9428	1129.2935	1136.7743	1160.6624	1163.8632	1184.2179	1210.9993	1225.6958	1260.3742	1275.3478	1304.0667	1318.0714	1352.2282	1415.7952	1435.033	1493.7613	1500.9324	3027.7063	3092.3994	3093.8132	3103.2688	3107.5925	3132.4193	3134.1189	3138.7791	3167.3192	3176.5021
CC1C2C1C1C3OC1C23	C[C@H]1[C@H]2[C@@H]1[C@H]1[C@@H]3O[C@H]1[C@H]23	
InChI=1S/C8H10O/c1-2-3-4(2)6-7-5(3)8(6)9-7/h2-8H,1H3	InChI=1S/C8H10O/c1-2-3-4(2)6-7-5(3)8(6)9-7/h2-8H,1H3/t2-,3-,4+,5-,6+,7-,8+
