13
gdb 42974	3.47763	1.42337	1.08532	6.3287	71.94	-0.2776	-0.0922	0.1853	1035.7459	0.090553	-415.626511	-415.619546	-415.618602	-415.658157	25.982	
O	-0.0224402339	-0.0120826438	 0.0773201411	-0.289306
C	-0.0059147008	 1.1815923807	 0.0035579937	 0.311813
N	-1.1824656034	 2.0216308089	-0.0588665812	-0.120061
C	-1.4174437379	 2.7774138585	 1.1849430642	-0.236838
C	-0.7132095133	 3.4076412925	 0.0203631564	-0.073773
C	 0.7664892608	 3.3750126419	 0.0119477091	-0.18488
C	 1.1898916771	 2.0974573732	-0.0207592172	 0.088878
C	 2.5270162164	 1.6249203957	 0.0123846601	 0.240154
N	 3.6143344966	 1.2291776416	 0.0337180553	-0.323948
H	-2.4553817385	 3.0311111579	 1.3771064424	 0.151067
H	-0.8237432681	 2.5187260166	 2.0576578769	 0.149549
H	-1.2352363771	 4.1440379003	-0.58285311	 0.13339
H	 1.3925841919	 4.2577624858	 0.0096683591	 0.153956
110.5522	145.4046	209.5027	319.7369	404.9041	442.8322	525.8021	565.7864	586.3601	714.2247	758.6041	812.4453	839.6943	865.7148	917.9799	946.3233	992.71	1052.6504	1064.5369	1117.5538	1153.5739	1204.332	1264.0819	1291.5292	1357.62	1497.4087	1649.581	1858.8183	2350.8053	3117.4345	3165.4546	3215.6324	3228.5717
O=C1N2CC2C=C1C#N	O=C1N2C[C@H]2C=C1C#N	
InChI=1S/C6H4N2O/c7-2-4-1-5-3-8(5)6(4)9/h1,5H,3H2	InChI=1S/C6H4N2O/c7-2-4-1-5-3-8(5)6(4)9/h1,5H,3H2/t5-,8?/m1/s1
