13
gdb 21580	3.50104	2.35608	1.40842	3.9706	67.09	-0.2145	-0.0459	0.1687	808.5962	0.096657	-394.7745	-394.76753	-394.766586	-394.805725	25.967	
N	 0.0606070188	 1.3295979905	-0.0879256698	-0.575493
C	-0.0301957057	-0.0121525924	-0.0130686525	 0.325183
C	-1.1622356238	-0.7650752951	 0.0821294244	-0.255721
C	-1.0184268211	-2.1790786746	 0.1700642999	 0.054883
N	 0.0838616728	-2.8523135282	 0.1686003161	-0.118459
O	 1.2582004315	-2.0703325365	 0.0643861373	-0.282302
C	 1.2658484861	-0.7141342135	-0.0295183409	 0.397205
N	 2.346711023	-0.0470715305	-0.1322680106	-0.556928
H	 0.9843369703	 1.7150737352	-0.214722019	 0.28584
H	-0.7532981039	 1.9112739136	-0.1700365366	 0.26438
H	-2.1496899449	-0.3199931425	 0.0958503324	 0.099228
H	-1.8982879938	-2.8119601954	 0.2502370339	 0.130465
H	 3.1621238907	-0.6588985105	-0.1336654745	 0.231718
90.8011	159.6114	210.756	342.7869	433.4805	466.5637	540.94	561.381	574.8259	586.4207	735.2281	777.2338	831.6776	848.8805	886.5741	941.8033	948.1053	1032.3434	1083.4557	1114.9781	1278.0028	1333.0772	1384.8189	1449.0434	1586.8837	1633.3586	1680.4972	1716.2675	3172.3971	3200.8442	3502.9997	3584.6527	3736.8521
NC1=CC=NOC1=N	NC1=C(ON=C[CH]1)[NH]	
InChI=1S/C4H5N3O/c5-3-1-2-7-8-4(3)6/h1-2,6H,5H2	InChI=1S/C4H5N3O/c5-3-1-2-7-8-4(3)6/h1-2,6H,5H2
