15
gdb 53877	4.1474	0.842	0.74951	1.586	63.8	-0.2652	-0.0839	0.1813	1464.8878	0.107803	-494.944292	-494.934488	-494.933544	-494.981128	32.293	
C	 0.0129377979	 1.3477784865	-0.1858681906	-0.473195
C	 0.4521700015	-0.0818938315	-0.0028218534	 0.284181
O	 0.8641580894	-0.5536412672	 1.0240823152	-0.256999
C	 0.3285669722	-0.9513867342	-1.2778744488	 0.348785
O	-0.1154579006	-0.5388776039	-2.3208314652	-0.341143
O	 0.7706493692	-2.1985139706	-1.074858614	-0.215665
C	 0.7098283788	-3.0557580237	-2.219819525	-0.160358
C	-0.7221220464	-3.4438024602	-2.5717562145	 0.15238
O	-1.0016014783	-4.0447548552	-3.5713273966	-0.22419
H	-1.0280593968	 1.3805926441	-0.522905391	 0.161456
H	 0.1275609019	 1.8879061279	 0.7537622987	 0.147784
H	 0.6033438884	 1.8238674845	-0.9755240748	 0.160176
H	 1.1790178502	-2.5874499806	-3.0889159151	 0.161974
H	 1.2682254074	-3.9531351049	-1.9411539851	 0.157634
H	-1.480311075	-3.1539065609	-1.8110721998	 0.097181
33.9252	48.3415	70.7614	121.6755	137.109	188.4731	279.479	335.2727	360.7207	444.1756	508.8499	531.413	633.3457	709.3185	723.476	857.2862	949.1203	1033.0696	1038.9201	1044.3968	1111.4751	1159.7654	1276.5003	1298.7044	1358.9006	1388.1614	1408.7938	1448.65	1452.5476	1460.6599	1802.0531	1832.6472	1849.5766	2894.7136	3049.5058	3071.6521	3110.4969	3130.6647	3165.2457
CC(=O)C(=O)OCC=O	CC(=O)C(=O)OCC=O	
InChI=1S/C5H6O4/c1-4(7)5(8)9-3-2-6/h2H,3H2,1H3	InChI=1S/C5H6O4/c1-4(7)5(8)9-3-2-6/h2H,3H2,1H3
