21
gdb 94207	2.71267	1.20485	1.14178	2.6614	77.85	-0.2446	0.0708	0.3154	1210.6402	0.181678	-424.199874	-424.190624	-424.18968	-424.233775	35.863	
O	 0.4277400077	 1.1908553661	-0.2531368939	-0.442768
C	 0.1733879229	-0.156680688	 0.0085171113	 0.143157
C	 0.3164478649	-0.7289109816	 1.4478367855	-0.26821
C	-0.9562855848	-1.5828874671	 1.1841984699	-0.283829
C	-1.3175377209	-0.6186489031	 0.0145311794	 0.370619
O	-2.0416223943	 0.5129467425	 0.5122214497	-0.498345
C	-1.9523347894	-1.1087748704	-1.2581327213	-0.08154
C	-1.7805202854	-2.5086852959	-1.7821693091	-0.278012
C	-3.1145807931	-2.0803893912	-1.2247952838	-0.285403
H	-0.321581903	 1.6746677369	 0.1188187558	 0.290227
H	 0.752437123	-0.7492703509	-0.7066858953	 0.085498
H	 1.2417198376	-1.2528627335	 1.6953619079	 0.095924
H	 0.1320176134	 0.0492332796	 2.1918441587	 0.1097
H	-0.715072802	-2.5939238694	 0.8466627836	 0.10214
H	-1.6941338529	-1.640694062	 1.9869893247	 0.097814
H	-2.9800417438	 0.304271863	 0.4642679531	 0.283454
H	-2.0087132599	-0.3276090073	-2.0124257707	 0.096474
H	-1.6878165335	-2.634642662	-2.8549906129	 0.116313
H	-1.1956878607	-3.2148860874	-1.2036917146	 0.11678
H	-3.4036521742	-2.4906256881	-0.2622077309	 0.114371
H	-3.9405681716	-1.9272849303	-1.9103175772	 0.115634
62.4648	121.3486	152.8998	224.8438	241.9582	275.9913	300.6885	390.7705	436.2819	444.1219	486.4743	569.6594	614.5829	719.4144	774.6009	793.6095	833.4724	890.1022	905.0955	924.7128	946.6608	966.3472	987.0647	1043.3472	1056.3878	1083.1626	1097.7737	1127.9255	1144.9312	1153.7713	1195.0916	1198.6242	1212.035	1227.0959	1238.3624	1267.6107	1278.0736	1340.2171	1362.5653	1412.4235	1446.1842	1463.9142	1471.7744	1489.514	1505.4905	3061.119	3066.0592	3071.6073	3115.0414	3128.5307	3132.505	3135.7752	3140.2233	3208.9175	3224.914	3764.8848	3818.3299	62.4643	121.3486	152.8998	224.8444	241.9583	275.9913	300.6886	390.7706	436.2819	444.1215	486.4743	569.6594	614.5829	719.4144	774.601	793.6095	833.4724	890.1022	905.0955	924.7128	946.6608	966.3472	987.0647	1043.3472	1056.3879	1083.1626	1097.7737	1127.9255	1144.9313	1153.7713	1195.0916	1198.6243	1212.0351	1227.0959	1238.3625	1267.6107	1278.0737	1340.2171	1362.5654	1412.4235	1446.1843	1463.9142	1471.7744	1489.5139	1505.4905	3061.119	3066.0592	3071.6073	3115.0414	3128.5307	3132.505	3135.7751	3140.2233	3208.9175	3224.914	3764.8848	3818.3299
OC1CCC1(O)C1CC1	O[C@H]1CC[C@]1(O)C1CC1	
InChI=1S/C7H12O2/c8-6-3-4-7(6,9)5-1-2-5/h5-6,8-9H,1-4H2	InChI=1S/C7H12O2/c8-6-3-4-7(6,9)5-1-2-5/h5-6,8-9H,1-4H2/t6-,7-/m0/s1
