21
gdb 100370	2.19315	1.17537	1.01551	2.2459	85.03	-0.2517	-0.0322	0.2196	1307.9333	0.178133	-387.071532	-387.060661	-387.059717	-387.10767	39.359	
C	-0.1424557741	 1.5462236912	-0.1251704296	-0.409649
C	-0.1192336701	 0.0235640823	 0.0269419234	-0.182411
C	 0.7004067588	-0.5210431612	 1.2324219719	 0.028285
C	 0.6617775723	-2.0678538734	 1.2103466529	-0.418348
C	 2.1798570197	-0.0057863165	 1.1993625991	-0.286714
C	 2.9044359454	-0.3233850235	-0.0900549689	 0.139288
O	 3.1708554399	 0.4947714244	-0.934961348	-0.237177
C	 0.1038566997	-0.056659734	 2.4889236506	 0.357899
C	-0.3820996576	 0.3167972466	 3.5236117954	-0.485156
H	 0.8445789064	 1.9365311751	-0.3876275377	 0.139548
H	-0.8333884981	 1.8341135373	-0.9231625887	 0.114715
H	-0.4755933625	 2.029771869	 0.7982772984	 0.126985
H	-1.1425126732	-0.3537099212	 0.1334725859	 0.104527
H	 0.2845894935	-0.4293689042	-0.8868581444	 0.103842
H	 1.0720629758	-2.4569669934	 0.2734215676	 0.117248
H	 1.2344296778	-2.4879062796	 2.042018538	 0.123463
H	-0.3691858312	-2.4204633305	 1.298884894	 0.130793
H	 2.1982818129	 1.0760126273	 1.3428485049	 0.134432
H	 2.7206821547	-0.4747206642	 2.0301605034	 0.119391
H	 3.1953493568	-1.3892317799	-0.2280513339	 0.081851
H	-0.814319577	 0.6465652585	 4.4359865756	 0.197188
44.6534	81.3998	118.6249	138.5223	177.4565	234.8566	245.6298	257.3849	281.6929	334.0703	406.3116	414.8079	482.1697	560.7149	578.1786	633.2754	637.0346	676.7125	784.6241	854.1238	884.7774	925.0816	988.126	1013.6296	1022.4503	1073.1088	1082.8089	1142.4106	1193.2038	1210.9385	1262.2261	1298.0919	1335.4067	1365.907	1408.709	1413.7773	1429.0161	1470.4428	1480.8469	1491.1397	1499.5544	1503.3596	1515.4119	1821.901	2228.9872	2872.9882	3027.9049	3040.14	3042.5864	3044.3598	3067.2915	3110.184	3113.9238	3119.6564	3121.3285	3126.8131	3500.4893
CCC(C)(CC=O)C#C	CC[C@@](C)(CC=O)C#C	
InChI=1S/C8H12O/c1-4-8(3,5-2)6-7-9/h1,7H,5-6H2,2-3H3	InChI=1S/C8H12O/c1-4-8(3,5-2)6-7-9/h1,7H,5-6H2,2-3H3/t8-/m0/s1
