21
gdb 87166	3.32981	1.09545	0.94149	3.1857	78.34	-0.2417	0.075	0.3167	1321.3743	0.180637	-424.19131	-424.181683	-424.180739	-424.226024	35.06	
C	 0.0932845019	 1.3578996356	-0.3217963051	-0.426257
C	 0.2150802231	-0.0916484131	 0.07301816	 0.026777
O	 1.5351620274	-0.6294635903	 0.2461117622	-0.29175
C	 0.6589702797	-0.5966401613	 1.3866601138	 0.35631
C	 1.0761814766	 0.3297991085	 2.5095721873	-0.466961
C	 0.1832184899	-1.95396162	 1.8597098169	-0.094021
C	-0.0197178263	-3.0956326382	 0.8389271164	-0.099976
O	 0.8440731944	-3.9754102878	 1.5873171733	-0.273961
C	 1.2387281519	-2.909631333	 2.4711419336	-0.08353
H	 0.7547936134	 2.0028480292	 0.2587425253	 0.127856
H	 0.348673872	 1.4787930515	-1.3798017846	 0.133019
H	-0.9382175544	 1.7015601196	-0.1872285432	 0.122954
H	-0.4425410693	-0.7526661357	-0.4974076508	 0.083284
H	 1.4839885864	 1.2681107342	 2.1324259373	 0.131046
H	 0.224843325	 0.5537799092	 3.1617070659	 0.121732
H	 1.8494981969	-0.1450337918	 3.1232636687	 0.130854
H	-0.6810472784	-1.8225371019	 2.5177052914	 0.082885
H	-1.0342505885	-3.498973186	 0.7450792977	 0.098196
H	 0.3886025443	-2.8832319276	-0.1563276668	 0.114938
H	 2.2772258896	-2.5975618674	 2.295757954	 0.10644
H	 1.1152984042	-3.1805265337	 3.5258944265	 0.100164
77.8818	92.8031	148.3098	148.7028	161.932	215.5625	276.162	299.3795	353.4175	448.8685	478.9656	577.1452	639.5138	762.9802	819.877	878.1968	892.6026	913.0948	976.5371	988.2791	1008.4036	1035.0051	1042.8296	1067.2582	1107.9085	1128.6515	1137.3275	1169.6365	1182.5089	1194.3643	1230.0616	1261.7649	1315.6692	1350.3103	1357.4019	1398.8864	1406.5473	1417.0121	1461.9106	1475.8731	1486.5613	1500.3235	1503.29	1519.9131	1532.4167	3005.5014	3023.4323	3037.8021	3040.8315	3050.9866	3063.4187	3073.3606	3076.0864	3096.3623	3099.5642	3134.681	3146.4301
CC1OC1(C)C1COC1	C[C@H]1O[C@]1(C)C1COC1	
InChI=1S/C7H12O2/c1-5-7(2,9-5)6-3-8-4-6/h5-6H,3-4H2,1-2H3	InChI=1S/C7H12O2/c1-5-7(2,9-5)6-3-8-4-6/h5-6H,3-4H2,1-2H3/t5-,7+/m1/s1
