15
gdb 28169	5.2568	1.31319	1.05763	2.9772	74.53	-0.1956	0.018	0.2136	1084.941	0.114736	-416.851734	-416.844385	-416.843441	-416.883496	27.822	
C	-0.0181187586	 1.43579251	 0.1056308882	-0.492344
C	-0.0045997021	-0.0377260306	-0.0688868381	 0.342351
N	-0.0488606976	-0.729577925	-1.1613110838	-0.379229
C	-0.0057958104	-2.0589682314	-0.7343093606	 0.239291
C	 0.0636925926	-2.0520994245	 0.6304217806	 0.38111
N	 0.1087910047	-3.309973042	 1.1316959817	-0.415338
C	 0.0656112605	-4.1636040387	 0.0218202038	-0.072162
C	-0.0052718018	-3.4271986344	-1.1414797962	-0.300905
O	 0.0680330089	-0.7931389961	 1.1141008018	-0.245549
H	 0.8931238625	 1.7869890752	 0.6019808475	 0.142338
H	-0.0883745559	 1.9015488927	-0.8776917192	 0.158038
H	-0.8698936522	 1.7570924974	 0.7147336168	 0.142227
H	 0.162199657	-3.59435326	 2.0929811094	 0.272014
H	 0.090199511	-5.2304418867	 0.1713381007	 0.12293
H	-0.0496632387	-3.8357525459	-2.1383138725	 0.10523
109.8622	133.6674	246.3388	281.0146	312.272	369.8308	513.7648	579.4202	606.6606	639.3655	680.1284	759.188	765.6156	805.5495	820.035	874.2824	950.4444	1026.0448	1051.9008	1061.7852	1100.2792	1157.5901	1248.0928	1278.4544	1346.4662	1407.4204	1462.8721	1472.7745	1483.0195	1495.4004	1587.081	1588.8677	1631.535	3038.438	3090.1593	3155.6856	3257.9896	3278.2341	3695.8845
CC1=NC2=C(NC=C2)O1	Cc1nc2c([nH]cc2)o1	
InChI=1S/C6H6N2O/c1-4-8-5-2-3-7-6(5)9-4/h2-3,7H,1H3	InChI=1S/C6H6N2O/c1-4-8-5-2-3-7-6(5)9-4/h2-3,7H,1H3
