15
gdb 83063	2.92239	1.51132	1.26997	0.9296	72.25	-0.2267	0.0003	0.227	1004.8754	0.112599	-416.752406	-416.744515	-416.743571	-416.784557	30.274	
N	 0.1452240497	 1.3919759943	 0.006540731	-0.521867
C	-0.0093884483	-0.0223703225	 0.0453131878	-0.070279
C	-0.4965511554	-0.7149217811	 1.2756889269	-0.005326
O	-1.2373590439	 0.0870085783	 2.1787910998	-0.216511
C	-2.3544589719	 0.471214382	 1.4940715972	 0.063827
N	-2.5371975776	 0.0276023529	 0.3185138923	-0.286268
C	-1.3771286611	-0.7767762957	 0.0071746566	 0.122499
C	-1.5312328915	-1.9226461374	-0.8301962627	 0.19783
C	-1.6224434898	-2.8895364267	-1.5396085558	-0.368785
H	-0.3392279898	 1.8104334742	-0.7795361239	 0.248461
H	-0.1882477888	 1.8298903788	 0.856673112	 0.245801
H	 0.752069113	-0.5853593103	-0.4886577914	 0.118469
H	 0.0165637386	-1.5377395728	 1.7559505437	 0.130206
H	-3.0125512364	 1.1364595052	 2.0387600131	 0.151209
H	-1.7182827968	-3.7417905692	-2.1657266766	 0.190735
134.3423	155.3091	171.5928	230.2666	261.8868	427.6851	460.3217	493.2551	556.2736	576.0544	591.8388	679.4721	725.0621	743.1407	754.0414	787.887	895.0012	912.1922	937.7288	970.0591	1016.7052	1068.5642	1119.2539	1121.6662	1230.5196	1265.463	1275.7533	1307.5356	1352.2209	1431.343	1652.1964	1671.451	2239.0494	3142.0948	3203.0881	3235.2876	3502.1952	3522.4265	3604.9003
NC1C2OC=NC12C#C	N[C@H]1[C@H]2OC=N[C@@]12C#C	
InChI=1S/C6H6N2O/c1-2-6-4(7)5(6)9-3-8-6/h1,3-5H,7H2	InChI=1S/C6H6N2O/c1-2-6-4(7)5(6)9-3-8-6/h1,3-5H,7H2/t4-,5+,6-/m0/s1
