15
gdb 23863	3.57301	1.27352	1.16383	2.9133	50.45	-0.2779	0.061	0.3389	1037.7926	0.113536	-531.315969	-531.307397	-531.306453	-531.349591	30.515	
C	-0.0374739513	 1.5958302281	 0.0836871438	-0.402457
C	 0.0145786214	 0.0698731135	-0.0065659421	 0.134288
O	 0.8457914317	-0.4867694812	 1.0009029791	-0.423294
C	-1.3986588374	-0.534043238	 0.0034786707	-0.363459
C	-1.4342156409	-2.0472380494	-0.1107416815	 0.294888
F	-1.0092904075	-2.65507039	 1.0051619652	-0.076417
F	-2.6915814201	-2.4727992154	-0.3353107289	-0.084071
F	-0.6777644277	-2.4885897675	-1.1277686882	-0.082947
H	 0.9777115826	 2.0000562309	 0.0838676488	 0.132521
H	-0.5861060824	 2.0295935435	-0.7587347801	 0.118931
H	-0.5332853407	 1.9159416869	 1.0083893644	 0.10998
H	 0.4995668409	-0.2186939119	-0.9452458484	 0.109793
H	 0.4302976519	-0.3349146913	 1.8570450239	 0.279177
H	-1.929826834	-0.2630727727	 0.9236142737	 0.120207
H	-1.9776408567	-0.1340304154	-0.8344534004	 0.132861
51.8359	111.1341	163.2944	237.5788	262.9694	302.6754	313.9789	365.5423	459.053	473.8894	538.251	554.1408	669.4195	838.0079	866.4908	901.1318	954.6378	1037.6424	1077.9245	1125.6071	1153.6249	1187.8003	1272.3946	1285.7768	1333.5148	1346.8467	1398.8877	1406.0055	1428.4309	1467.2045	1491.8434	1496.0848	3027.2055	3046.3945	3062.7374	3094.1753	3105.9259	3125.1685	3801.3145
CC(O)CC(F)(F)F	C[C@@H](O)CC(F)(F)F	
InChI=1S/C4H7F3O/c1-3(8)2-4(5,6)7/h3,8H,2H2,1H3	InChI=1S/C4H7F3O/c1-3(8)2-4(5,6)7/h3,8H,2H2,1H3/t3-/m1/s1
