23
gdb 112602	3.63839	0.82804	0.79134	2.9239	86.97	-0.2441	-0.0162	0.2279	1579.3803	0.203572	-388.304413	-388.294154	-388.29321	-388.339918	37.833	
C	 0.1495954409	 1.5052038189	-0.1522232959	-0.380602
C	 0.0596082615	-0.0060877644	 0.08197769	-0.198301
C	-1.3721522478	-0.5281602758	 0.0996235541	 0.066864
C	-2.1762600101	-0.5404153216	-1.2301190358	-0.282681
C	-2.6989181664	-1.9858616949	-0.9038037034	 0.218679
C	-2.656368715	-3.023213229	-2.0143542056	-0.458694
C	-1.5946246399	-2.059629864	 0.2113929652	-0.299711
C	-4.0648833643	-1.9043700377	-0.2661160676	 0.140198
O	-5.0208091965	-2.5673960613	-0.5805698433	-0.265
H	 1.1897498681	 1.8445445515	-0.1668040101	 0.114774
H	-0.3048301882	 1.7875789651	-1.1081688663	 0.119577
H	-0.3706542796	 2.0591446407	 0.6371027649	 0.115466
H	 0.6223950124	-0.5354606994	-0.6990871357	 0.091075
H	 0.5451598124	-0.2614852756	 1.0333379468	 0.097517
H	-1.9369215991	-0.0025974447	 0.8787053406	 0.071958
H	-2.9279218047	 0.2397371484	-1.3796319803	 0.105233
H	-1.5232677382	-0.5614498389	-2.1082651499	 0.105237
H	-1.6602266606	-3.0634077706	-2.4654877825	 0.104398
H	-2.9037706336	-4.0177361599	-1.6311402398	 0.128021
H	-3.3826014842	-2.7884244049	-2.7983191536	 0.128092
H	-0.7312979758	-2.6302104502	-0.1445145953	 0.105476
H	-1.8927092705	-2.4590787494	 1.1851052657	 0.104553
H	-4.1431016806	-1.154537822	 0.5573479276	 0.06787
58.3878	81.0041	103.417	180.339	211.452	234.982	250.7732	291.3393	327.7204	352.1625	408.417	430.1349	503.138	662.8475	760.4462	783.4529	827.0896	857.0449	869.2136	917.2078	954.7292	969.0785	995.8869	1011.8475	1027.8774	1081.8615	1093.9621	1136.3679	1159.7343	1189.1891	1217.4299	1240.1454	1274.7065	1282.0577	1301.7261	1332.2535	1346.7841	1391.8595	1411.1193	1412.4559	1438.2071	1471.1663	1483.6135	1487.9612	1488.9689	1497.7111	1499.8118	1507.2255	1823.7666	2844.6269	3009.9636	3027.2606	3031.3585	3038.2478	3045.3505	3046.9992	3049.5326	3096.8369	3098.6016	3100.5469	3104.4388	3111.2892	3112.6933
CCC1CC(C)(C1)C=O	CC[C@H]1C[C@@](C)(C1)C=O	
InChI=1S/C8H14O/c1-3-7-4-8(2,5-7)6-9/h6-7H,3-5H2,1-2H3	InChI=1S/C8H14O/c1-3-7-4-8(2,5-7)6-9/h6-7H,3-5H2,1-2H3/t7-,8-
