12
gdb 27046	2.52658	1.49086	0.93809	6.8221	63.13	-0.2389	-0.055	0.184	1122.1396	0.076765	-509.818485	-509.810768	-509.809823	-509.850977	27.777	
N	 0.1342906422	 1.3602813475	 0.1599651551	-0.589191
C	-0.0381103381	 0.0224158805	 0.0538686168	 0.321459
C	-1.1236136034	-0.798721524	 0.0178122212	 0.165099
O	-0.6356410501	-2.1147874325	-0.0194168701	-0.22829
C	 0.7053299874	-2.0721332368	-0.015876251	 0.505712
O	 1.471066947	-2.9742452961	-0.047485025	-0.350651
O	 1.0928196381	-0.7236364413	 0.0318160793	-0.222346
C	-2.5293661227	-0.5174505576	 0.0065748403	 0.063905
O	-3.424807842	-1.3337853141	-0.0299207171	-0.28967
H	 1.0290825758	 1.7188958177	-0.1369093731	 0.287791
H	-0.6576704097	 1.9507544174	-0.0359102803	 0.285669
H	-2.7392269646	 0.5788456592	 0.0344763039	 0.050514
120.3852	155.6277	191.6639	212.5439	303.2	351.0498	409.0368	444.28	476.705	603.0397	661.8784	686.9733	712.0789	770.9994	846.2631	938.9208	996.923	1013.3636	1120.3902	1231.8565	1324.4974	1420.5687	1476.8337	1625.1643	1726.1219	1780.2311	1962.897	2831.3591	3593.117	3707.8812
NC1=C(OC(=O)O1)C=O	Nc1c(oc(=O)o1)C=O	
InChI=1S/C4H3NO4/c5-3-2(1-6)8-4(7)9-3/h1H,5H2	InChI=1S/C4H3NO4/c5-3-2(1-6)8-4(7)9-3/h1H,5H2
