18
gdb 92060	2.88492	1.57364	1.10898	4.4699	72.22	-0.2318	0.0132	0.245	1093.1544	0.14842	-439.097288	-439.089318	-439.088374	-439.129759	30.929	
C	-0.2100127357	 1.5125311225	-0.0261341281	-0.404168
C	 0.0669503915	 0.0134561405	-0.0050073364	-0.111421
N	 0.9421910083	-0.3778095159	-1.1123846417	-0.314115
C	 1.1188869417	-1.8011915052	-1.1760847406	-0.036417
C	 2.5024271831	-2.3488062348	-0.8750763871	-0.31279
C	 1.4195666823	-2.3963537161	 0.1651214736	 0.107912
O	 1.4958791465	-1.5320184428	 1.2775524439	-0.229405
C	 0.7533717636	-0.3902553298	 1.3059984853	 0.463038
O	 0.6846146601	 0.2379417016	 2.3243352709	-0.326725
H	 0.7288270434	 2.0723290868	-0.0259718507	 0.136588
H	-0.7779087109	 1.7801533635	-0.9233314086	 0.106534
H	-0.7850058187	 1.8028963854	 0.8536526813	 0.146743
H	-0.8984179095	-0.5289944434	-0.0251420911	 0.088195
H	 0.6252272841	 0.0114355565	-1.9910221052	 0.229061
H	 0.4670476171	-2.3717118222	-1.8383195911	 0.089528
H	 2.8112125683	-3.286126513	-1.3240341839	 0.117705
H	 3.2796652448	-1.607077458	-0.7363094133	 0.136433
H	 0.9934054199	-3.3550813659	 0.4405177328	 0.113304
85.6942	141.8417	205.3452	278.7012	312.2076	358.4589	429.1988	466.2683	475.8967	544.9309	629.0714	683.3785	736.5269	799.6978	823.6631	855.8033	917.1491	953.7433	1032.3523	1033.0754	1061.6509	1070.6995	1111.4041	1129.5015	1141.4061	1155.1313	1185.1534	1202.6306	1254.2682	1319.5332	1338.6517	1382.5336	1407.7958	1415.6691	1452.7871	1482.5207	1495.9285	1499.888	1855.0527	2907.7104	3046.761	3089.1768	3117.7604	3142.8579	3153.0389	3164.6508	3242.5538	3558.9117
CC1NC2CC2OC1=O	C[C@H]1N[C@H]2C[C@H]2OC1=O	
InChI=1S/C6H9NO2/c1-3-6(8)9-5-2-4(5)7-3/h3-5,7H,2H2,1H3	InChI=1S/C6H9NO2/c1-3-6(8)9-5-2-4(5)7-3/h3-5,7H,2H2,1H3/t3-,4+,5-/m1/s1
