21
gdb 85001	2.167	1.54184	0.9673	3.747	87.72	-0.2292	-0.0318	0.1974	1272.9358	0.180816	-387.154982	-387.144898	-387.143954	-387.191108	36.263	
C	-0.1353874551	 1.5576290301	 0.0448650113	-0.400888
C	 0.0312638465	 0.0292216538	 0.0063254563	-0.070141
C	 0.8773056327	-0.4673926296	-1.1826997257	-0.357779
C	 2.0016601371	-1.2988624777	-0.5608968197	 0.339466
O	 2.8672365273	-1.8956336304	-1.1637546312	-0.33711
C	 1.8375734018	-1.2553092568	 0.9106618991	 0.09722
C	 2.8110302879	-1.9730151011	 1.7906814974	-0.500846
C	 0.7475378876	-0.5297420145	 1.229286549	 0.224291
C	 0.2102584112	-0.257589116	 2.5983247488	-0.49754
H	 0.8399082578	 2.0536367287	 0.1034810276	 0.120294
H	-0.6389892918	 1.9106802613	-0.8603306126	 0.121943
H	-0.7317138676	 1.8806417345	 0.9036648031	 0.116368
H	-0.9751804665	-0.4119590097	-0.0318957858	 0.084342
H	 0.3134480214	-1.0796106118	-1.8924766238	 0.127614
H	 1.3138927555	 0.3570637536	-1.7564212504	 0.126377
H	 3.0304466528	-2.9610279398	 1.3742437146	 0.145539
H	 3.7672163817	-1.4379269114	 1.8312952779	 0.138205
H	 2.4476789713	-2.0919895024	 2.8141704243	 0.117706
H	 0.7207774398	-0.8388737247	 3.3687846654	 0.131618
H	 0.3139095668	 0.8032401375	 2.8576078479	 0.141094
H	-0.8619062381	-0.4850527635	 2.6470710966	 0.132227
30.314	51.3638	109.0786	137.2438	217.2771	266.7081	279.1437	292.696	325.9697	379.0225	508.9068	540.8072	552.8681	604.347	651.2557	683.8941	819.1207	902.8147	922.9482	958.8643	1000.551	1040.3818	1062.1471	1073.1943	1083.713	1115.1064	1129.3978	1186.0667	1212.0995	1263.8204	1313.6447	1337.7353	1338.3233	1407.6231	1409.7215	1416.0204	1454.6232	1472.525	1478.6086	1480.7949	1486.7573	1500.415	1503.1795	1705.016	1801.4833	2996.9222	3025.0253	3032.1855	3035.364	3054.7788	3071.4957	3089.9092	3096.6499	3102.8437	3107.4621	3121.5597	3127.0954
CC1CC(=O)C(C)=C1C	C[C@H]1CC(=O)C(=C1C)C	
InChI=1S/C8H12O/c1-5-4-8(9)7(3)6(5)2/h5H,4H2,1-3H3	InChI=1S/C8H12O/c1-5-4-8(9)7(3)6(5)2/h5H,4H2,1-3H3/t5-/m0/s1
