14
gdb 47339	3.38383	1.18329	0.89824	3.3704	72.41	-0.2873	-0.0973	0.19	1193.2723	0.102387	-436.743745	-436.736231	-436.735287	-436.776174	27.405	
O	-0.0143674893	 0.01442064	 0.3064641237	-0.322437
C	-0.0185819361	 1.1725617035	-0.0162425896	 0.441263
O	-1.1916218161	 1.8255397999	-0.207705131	-0.233127
C	-1.1614266967	 3.1075231698	-0.8539310808	-0.088863
C	-0.1134485499	 4.0354717662	-0.2530940775	-0.318538
C	 1.2102013509	 3.3066097637	-0.2101352269	 0.160569
C	 1.2295592925	 1.9653422395	-0.1522394879	-0.278667
C	 2.4140336668	 4.0733624201	-0.212062887	 0.234486
N	 3.3698143124	 4.7271775416	-0.2191083663	-0.311981
H	-0.9635989022	 2.9601024429	-1.9230190733	 0.127885
H	-2.1682686587	 3.5126351085	-0.7412211569	 0.139284
H	-0.0356805708	 4.9444258185	-0.8570282203	 0.145759
H	-0.3957564252	 4.3477036392	 0.7602763415	 0.152472
H	 2.1486565726	 1.3950228468	-0.1090854777	 0.151895
109.6887	135.9279	151.7057	247.8908	346.2338	399.9469	452.8738	480.4795	577.5903	595.2171	658.2506	739.6734	796.7791	852.6441	928.3651	940.3361	1008.7295	1079.5394	1100.3352	1138.1177	1224.3198	1236.3465	1285.9629	1322.4468	1375.3341	1427.9392	1466.008	1508.4071	1673.1769	1827.0884	2338.5342	3031.9056	3040.7813	3094.7421	3123.2522	3226.0386
O=C1OCCC(=C1)C#N	O=C1OCCC(=C1)C#N	
InChI=1S/C6H5NO2/c7-4-5-1-2-9-6(8)3-5/h3H,1-2H2	InChI=1S/C6H5NO2/c7-4-5-1-2-9-6(8)3-5/h3H,1-2H2
