19
gdb 53022	3.96026	1.0085	0.89786	0.3298	91.59	-0.2346	0.0488	0.2834	1370.0946	0.15909	-348.660519	-348.652183	-348.651239	-348.69505	31.306	
C	-0.022186006	 1.4262749408	-0.0047767551	-0.516973
C	 0.0195794895	-0.0281014858	 0.0042776961	 0.365797
C	 0.0545457788	-1.2336826226	 0.0123742994	-0.37942
C	 0.1036571683	-2.6644042725	 0.0314522295	 0.296382
C	 0.8916698485	-3.6025904093	 0.9794713194	-0.312061
C	 0.1508419122	-4.5639653122	 0.0345117754	-0.087694
C	-1.1277790538	-3.6598220814	-0.0197360257	-0.072967
C	-1.1582415513	-3.6577389852	-1.5593824271	-0.264841
C	 0.3402045713	-3.6252658579	-1.2057622632	-0.072971
H	 0.6094043537	 1.8460905315	 0.7862522705	 0.148583
H	 0.3325745118	 1.8303337337	-0.9596940939	 0.14766
H	-1.0408442577	 1.7979312054	 0.1539452535	 0.147659
H	 1.9826798218	-3.5665275943	 0.8978447487	 0.094875
H	 0.5820774737	-3.5994967153	 2.0294281014	 0.094876
H	 0.1597656344	-5.6536281956	 0.013809907	 0.071646
H	-1.9540110789	-3.6660819533	 0.6931028977	 0.073574
H	-1.5273464858	-4.5677961394	-2.042749834	 0.09066
H	-1.5690879572	-2.766174075	-2.0419232855	 0.101637
H	 1.2103370367	-3.5915959816	-1.863465654	 0.073575
19.3057	87.728	107.1164	270.1848	295.5497	390.6436	401.9806	468.8936	516.7395	525.6304	712.8319	766.122	864.7025	865.1977	874.2962	888.8647	917.8797	969.4092	997.691	1004.2854	1026.0692	1052.1441	1054.4502	1063.9361	1084.8265	1093.474	1124.7956	1156.1814	1159.3488	1186.6421	1232.4132	1237.9263	1250.3097	1291.5067	1342.8016	1414.5371	1477.0817	1478.1076	1504.4538	1509.3133	2358.1662	3023.4375	3037.9996	3042.5987	3083.1184	3084.2375	3097.2318	3098.3681	3099.8795	3102.4365	3119.4087
CC#CC12CC3C1CC23	CC#C[C@@]12C[C@H]3[C@@H]1C[C@@H]23	
InChI=1S/C9H10/c1-2-3-9-5-6-7(9)4-8(6)9/h6-8H,4-5H2,1H3	InChI=1S/C9H10/c1-2-3-9-5-6-7(9)4-8(6)9/h6-8H,4-5H2,1H3/t6-,7-,8+,9+
