17
gdb 71214	2.43934	2.05522	1.63956	2.5598	71.37	-0.2418	-0.0147	0.2271	888.7746	0.137448	-421.809569	-421.802728	-421.801784	-421.840417	28.248	
O	 0.0066627586	 1.3865098669	 0.0143244397	-0.489242
C	-0.036142683	 0.0126408421	 0.0806258419	 0.323701
C	 0.444886809	-0.8159142807	 1.3124296303	-0.306356
C	-0.4014716193	-1.9265210146	 0.6582186503	-0.039736
C	 0.0258033045	-2.0982819548	-0.8669315783	-0.166082
C	-1.4279684263	-1.6598020997	-1.26729685	-0.250883
C	-1.3706139256	-0.8683749617	 0.0555076753	-0.093688
C	 0.6880503656	-0.7428823754	-1.0249843027	 0.38983
O	 1.4810226317	-0.2899335403	-1.8088562545	-0.365124
H	 0.607109483	 1.6074732106	-0.7137645862	 0.291221
H	 1.5219833649	-0.9537779567	 1.4527643892	 0.106212
H	-0.0138984186	-0.4641435138	 2.2404995503	 0.115058
H	-0.7413626779	-2.8157643409	 1.183562503	 0.085171
H	 0.5117588789	-2.9809680586	-1.2758782714	 0.089517
H	-1.5540443864	-1.1305149069	-2.2170178007	 0.11359
H	-2.1355209186	-2.4911898138	-1.2108176226	 0.111625
H	-2.2376343006	-0.4682809014	 0.5784692063	 0.085188
148.8553	246.7276	283.7089	370.684	382.2687	438.4077	500.7456	575.7285	665.7105	700.2338	765.3502	787.7726	803.6307	844.737	879.2686	902.8024	959.5743	968.6732	986.0311	1002.4837	1011.1602	1047.3791	1086.3684	1127.3387	1139.9406	1175.3732	1193.3018	1203.5757	1236.6649	1252.2547	1264.5949	1289.2865	1373.722	1395.617	1498.9321	1500.9838	1869.0548	3045.8475	3049.0357	3107.4854	3109.7385	3132.5949	3144.6551	3152.0559	3712.4818
OC12CC3C(CC13)C2=O	O[C@@]12C[C@@H]3[C@@H](C[C@H]13)C2=O	
InChI=1S/C7H8O2/c8-6-3-1-5-4(3)2-7(5,6)9/h3-5,9H,1-2H2	InChI=1S/C7H8O2/c8-6-3-1-5-4(3)2-7(5,6)9/h3-5,9H,1-2H2/t3-,4-,5+,7+/m1/s1
