17
gdb 20102	4.63993	1.5456	1.39706	1.549	68.52	-0.2397	0.0715	0.3112	931.7575	0.14281	-363.793856	-363.786754	-363.78581	-363.82546	27.132	
C	-0.0366664653	 1.5235796679	-0.0086606423	-0.236394
N	 1.2384736221	 0.7943780784	-0.0882172849	-0.316641
C	-0.0202168157	 0.0366126495	 0.0301041729	-0.161663
C	-0.211641061	-0.714886036	 1.2901922402	 0.498897
C	 0.308833477	-0.3822539715	 2.6990338188	-0.301135
C	 0.3052073491	-1.9208046482	 3.0107641317	-0.238821
C	-0.2166033449	-2.1608141175	 1.5882410457	-0.054728
O	-1.4458683182	-1.4305824489	 1.4562713125	-0.300484
H	-0.1799566007	 2.0845682071	 0.910366129	 0.12401
H	-0.4290751183	 2.0044313085	-0.9005337782	 0.116085
H	 1.570278343	 0.7672054409	-1.0482273514	 0.236579
H	-0.3968221449	-0.4820491069	-0.8489645485	 0.088766
H	 1.3130023282	 0.0442303816	 2.6843563172	 0.127414
H	-0.3560025612	 0.2428349718	 3.2997763729	 0.10332
H	 1.3101982784	-2.3169481983	 3.1731288735	 0.10722
H	-0.3576731734	-2.2622359992	 3.8092182989	 0.109875
H	-0.0853868743	-3.0222766194	 0.9424162722	 0.0977
72.8965	161.0933	177.2397	280.6206	389.4236	469.9762	506.2111	619.4082	739.9352	776.4992	853.7243	875.8657	886.4309	901.327	921.5667	944.3906	954.9761	971.2206	1010.2508	1057.7544	1075.997	1117.3126	1142.6113	1159.152	1211.1772	1216.2958	1226.9869	1241.5402	1264.5944	1283.483	1310.5739	1368.6049	1464.3517	1476.8756	1501.095	1522.9312	3066.0917	3073.8247	3111.5807	3120.1626	3132.4832	3140.2742	3177.9526	3198.0032	3511.6072
C1NC1C12CCC1O2	C1N[C@H]1[C@]12CC[C@H]1O2	
InChI=1S/C6H9NO/c1-2-6(4-3-7-4)5(1)8-6/h4-5,7H,1-3H2	InChI=1S/C6H9NO/c1-2-6(4-3-7-4)5(1)8-6/h4-5,7H,1-3H2/t4-,5-,6-/m1/s1
