17
gdb 93320	2.25354	1.63711	1.09573	1.8039	73.95	-0.2439	-0.0305	0.2134	1109.7817	0.133811	-421.812555	-421.803789	-421.802845	-421.846099	32.633	
C	 0.5029397058	 1.3214488706	-0.5089673659	-0.404265
C	-0.0781730045	 0.0918793476	 0.1819096025	 0.095365
O	-0.2439916897	-1.0099846292	-0.7249664299	-0.26078
C	 0.9718731053	-1.7245164764	-0.8124923141	-0.191815
C	 1.721486201	-1.4667366093	 0.4950202328	 0.364303
O	 2.7824846899	-1.9176473287	 0.8175085909	-0.286688
C	 0.8198561642	-0.4978575719	 1.3026451139	-0.320888
C	 1.5290679124	 0.4293505698	 2.1564612017	 0.335598
C	 2.1222340897	 1.1991482734	 2.8629235054	-0.43985
H	 1.5155749021	 1.1369339379	-0.882994048	 0.123475
H	-0.1318291205	 1.600125	-1.3539706953	 0.129208
H	 0.5550942469	 2.1614074119	 0.1883052403	 0.136811
H	-1.078037453	 0.3171793082	 0.5608285289	 0.101199
H	 0.7611067141	-2.7906294784	-0.9449074229	 0.142812
H	 1.6005126338	-1.3960118773	-1.6545245359	 0.130368
H	 0.1835483372	-1.1552722324	 1.9142671259	 0.143406
H	 2.6487680654	 1.8758700341	 3.4895034495	 0.201742
67.0595	130.5645	159.3948	178.2833	226.6492	331.5711	385.6252	405.4477	458.3966	495.2189	574.9955	627.5856	634.1948	650.9543	712.4743	732.8097	836.3918	911.2639	973.4131	1011.0484	1060.1896	1077.7741	1082.1073	1128.4487	1157.5672	1211.1303	1226.5173	1297.9962	1322.6091	1350.3111	1384.7454	1410.6539	1477.7804	1490.0426	1492.5567	1871.4914	2242.7528	2993.099	3001.1672	3043.8488	3077.3068	3079.9449	3116.968	3132.0302	3503.6844
CC1OCC(=O)C1C#C	C[C@H]1OCC(=O)[C@H]1C#C	
InChI=1S/C7H8O2/c1-3-6-5(2)9-4-7(6)8/h1,5-6H,4H2,2H3	InChI=1S/C7H8O2/c1-3-6-5(2)9-4-7(6)8/h1,5-6H,4H2,2H3/t5-,6+/m1/s1
