16
gdb 106084	3.08459	1.49595	1.3454	4.8309	69.88	-0.2142	-0.0547	0.1595	991.7003	0.122489	-437.731858	-437.724089	-437.723145	-437.764295	29.45	
O	 0.1119730764	 1.2822432856	-0.480048602	-0.409445
C	 0.1145512988	-0.0202662624	 0.0798864999	-0.229179
C	-1.285029144	-0.5309899973	 0.0772363944	 0.238453
C	-1.9028372436	-1.8833373701	 0.1947738584	-0.173294
C	-2.6042143343	-1.8813590029	 1.5791537945	-0.173223
N	-3.212287666	-0.5016289741	 1.6458996644	-0.234753
C	-2.6013905935	 0.066415604	 0.6934222732	 0.238175
O	-3.2157432601	 0.3071653247	-0.5442391356	-0.258434
C	-2.2896206451	-0.797730711	-0.9450976116	 0.034784
H	 0.9920461081	 1.6567181245	-0.3767551593	 0.29325
H	 0.7485620791	-0.7124647543	-0.4990263241	 0.095285
H	 0.4981671782	-0.0157039711	 1.1124688592	 0.103651
H	-1.4022448533	-2.7739293946	-0.1819558709	 0.095821
H	-3.4556234591	-2.5655241047	 1.6391004322	 0.136014
H	-1.9016401807	-2.1343161675	 2.3876419422	 0.110222
H	-2.2396349209	-0.9873911689	-2.0105928549	 0.132674
76.252	131.6038	207.9465	253.7901	263.365	378.476	461.0902	522.9811	565.5523	613.5778	676.0431	718.2214	783.8375	873.9321	883.7123	921.8336	933.6509	966.5687	1001.1267	1021.2482	1044.862	1069.6895	1098.359	1132.227	1173.0479	1183.8521	1248.9448	1258.9289	1276.7612	1295.8313	1434.5378	1485.1831	1496.3279	1510.4026	1618.4453	2960.9624	2987.6561	2991.8958	3082.9271	3134.4356	3198.1227	3828.3996
OCC12C3CN=C1OC23	OC[C@@]12[C@H]3C[N][C]1O[C@@H]23	
InChI=1S/C6H7NO2/c8-2-6-3-1-7-5(6)9-4(3)6/h3-4,8H,1-2H2	InChI=1S/C6H7NO2/c8-2-6-3-1-7-5(6)9-4(3)6/h3-4,8H,1-2H2/t3-,4+,6-/m0/s1
