19
gdb 70986	3.21248	1.57552	1.44858	2.0395	80.32	-0.2266	0.0045	0.2311	989.2364	0.159033	-385.762318	-385.755001	-385.754057	-385.793331	30.891	
C	-0.0456981434	 1.6200697119	-0.0208094439	-0.501271
C	-0.0287966316	 0.1103512535	 0.0069243333	 0.230614
C	 1.0740679	-0.7421588869	-0.8493301784	-0.336654
C	 0.566003664	-1.8191194846	 0.188255318	 0.37217
O	 0.9602333382	-2.834951496	 1.1552428082	-0.359086
C	 0.3278431039	-1.9563063358	 2.1784001895	-0.170104
C	 0.5632010911	-0.7423709526	 1.2267532275	-0.058748
C	-0.9039291485	-1.9460110207	-0.2447347734	-0.172535
C	-1.2966542683	-0.6770617337	-0.3408463613	-0.104174
H	 0.9207533583	 2.0362612441	 0.2793356527	 0.118869
H	-0.2729933769	 1.991842217	-1.0262804657	 0.122226
H	-0.808719683	 2.0117144498	 0.6609806308	 0.124065
H	 0.8511990163	-0.8905465538	-1.9092799006	 0.10122
H	 2.0989847556	-0.3957026887	-0.6941437152	 0.106978
H	-0.7123972686	-2.251743496	 2.3417961823	 0.116688
H	 0.8955392161	-1.967458007	 3.1114936474	 0.113786
H	 1.5827762622	-0.3945090872	 1.4173422097	 0.086826
H	-1.4276209907	-2.8781365833	-0.4016034048	 0.106501
H	-2.2496899047	-0.2477351302	-0.619309706	 0.102631
209.2011	230.022	264.5782	289.218	354.7366	446.6895	467.7801	522.9165	562.6515	602.4701	674.5961	691.1218	720.4522	766.6524	835.6861	863.3463	895.6116	909.2969	957.8301	976.9886	995.5003	1023.534	1043.8127	1056.1252	1089.7296	1095.2151	1139.3873	1168.5342	1169.2351	1184.6719	1213.2718	1257.7912	1298.8058	1321.5493	1399.9221	1410.3847	1486.234	1491.1561	1492.4108	1493.2879	1633.3465	3028.1639	3050.1564	3054.1228	3060.9353	3092.6131	3103.2669	3123.7025	3130.7052	3212.1248	3245.7924
CC12CC3(OCC13)C=C2	C[C@@]12C[C@]3(OC[C@H]13)C=C2	
InChI=1S/C8H10O/c1-7-2-3-8(5-7)6(7)4-9-8/h2-3,6H,4-5H2,1H3	InChI=1S/C8H10O/c1-7-2-3-8(5-7)6(7)4-9-8/h2-3,6H,4-5H2,1H3/t6-,7-,8-/m1/s1
