21
gdb 88548	3.25211	1.13596	1.09006	0.3247	83.37	-0.2345	0.0756	0.3102	1240.799	0.183837	-383.205452	-383.196877	-383.195932	-383.238893	33.167	
C	-0.2196665809	 1.4738794922	-0.2046235335	-0.407206
C	-0.0729797289	-0.0054467883	 0.0591313789	 0.0143
N	 1.2478454213	-0.6142531186	-0.1736654915	-0.349696
C	 0.6959244696	-0.5981965004	 1.1926659937	-0.144226
C	 1.4403577543	 0.170212095	 2.2248963991	 0.397519
C	 2.4352040571	 1.3252583894	 2.0073545339	-0.298154
C	 3.2716320311	 0.801579758	 3.2208630076	-0.250249
C	 2.249877329	-0.3280149164	 3.3989236205	-0.089357
N	 0.8986976348	 0.1901978408	 3.5819876056	-0.366661
H	 0.6872493514	 2.0184892153	 0.062973809	 0.132969
H	-0.4174362083	 1.6555920177	-1.2667889998	 0.117271
H	-1.0565585776	 1.8881452474	 0.3681361895	 0.117292
H	-0.9369277012	-0.594002418	-0.2505053131	 0.08063
H	 1.1587274875	-1.5380008702	-0.5867312148	 0.230687
H	 0.2933268471	-1.5291412074	 1.5895190931	 0.080717
H	 2.971343676	 1.237332385	 1.0613717152	 0.129758
H	 2.0152688655	 2.3338405108	 2.0885890647	 0.090114
H	 4.2601019931	 0.4479018182	 2.9187599673	 0.109275
H	 3.3877909846	 1.4728555605	 4.0789433575	 0.094565
H	 2.4518800891	-1.3408503339	 3.730877192	 0.089745
H	 0.8842449255	 1.1233494428	 3.9913117751	 0.220707
58.5262	127.5532	170.8126	195.2311	246.1374	309.5104	391.7929	426.3384	464.8768	531.0545	672.0407	758.1337	780.8643	791.6056	822.2242	858.1604	914.2464	933.8688	950.0785	964.0233	995.0673	1015.9846	1035.7857	1058.6067	1063.1431	1088.9777	1119.6453	1146.7624	1171.9211	1183.9904	1218.1668	1230.1629	1247.1697	1258.3848	1261.7708	1287.883	1321.8436	1369.2631	1407.9017	1444.5318	1479.3638	1485.3695	1493.7718	1498.9765	1510.8874	3036.2614	3037.6742	3046.5431	3093.27	3096.6944	3102.483	3117.2565	3129.1913	3141.6928	3169.2786	3452.2406	3509.9372
CC1NC1C12CCC1N2	C[C@H]1N[C@H]1[C@]12CC[C@H]1N2	
InChI=1S/C7H12N2/c1-4-6(8-4)7-3-2-5(7)9-7/h4-6,8-9H,2-3H2,1H3	InChI=1S/C7H12N2/c1-4-6(8-4)7-3-2-5(7)9-7/h4-6,8-9H,2-3H2,1H3/t4-,5-,6-,7+/m1/s1
