17
gdb 79538	4.00396	1.14147	1.00762	4.8979	78.11	-0.2457	-0.0048	0.2409	1196.3295	0.135837	-380.795554	-380.787664	-380.78672	-380.827753	30.539	
C	-0.0186943683	 1.4644512859	-0.0145182552	-0.427894
C	 0.0054959056	-0.0521928187	-0.0026193006	-0.040143
C	 1.3682433751	-0.6753284559	-0.151810502	-0.011142
C	 0.6715904989	-0.690546335	 1.1873588259	-0.122091
C	 0.7119518822	-2.2344299451	 1.1025026503	 0.149174
C	 0.1511615414	-2.8149089468	-0.147995213	-0.27657
N	 1.4769948715	-2.1914908996	-0.2113152124	-0.16339
C	 1.14152437	-3.0394768366	 2.2052988161	 0.23676
N	 1.4600159509	-3.6676017932	 3.1235467917	-0.338627
H	 0.886035104	 1.8812959209	 0.439693133	 0.126038
H	-0.0852109042	 1.8434661226	-1.0391305985	 0.130004
H	-0.8786932549	 1.844612446	 0.5456676553	 0.130642
H	-0.8764689915	-0.5002881985	-0.4483975206	 0.092329
H	 2.2362361252	-0.1243676677	-0.4892574917	 0.115732
H	 0.9116296659	-0.1605659286	 2.098764533	 0.112906
H	 0.2098646559	-3.8957589924	-0.23517996	 0.149335
H	-0.7105989776	-2.3739008271	-0.6334898313	 0.136936
133.529	136.6916	215.3726	257.5008	262.0927	340.6854	428.4593	464.4591	549.5763	559.2677	605.4316	726.8178	801.2756	814.3515	830.1089	877.4627	915.0653	948.8391	977.3748	1032.2597	1045.8677	1074.1912	1095.7901	1118.2025	1141.2756	1145.4457	1182.6754	1216.6575	1264.4879	1277.3897	1334.3426	1411.8572	1420.4552	1495.05	1497.1909	1507.2283	2346.4506	3035.7493	3103.9886	3105.7568	3134.0685	3155.9024	3198.5843	3213.9731	3226.1907
CC1C2C1C1(CN21)C#N	C[C@H]1[C@H]2[C@@H]1[C@]1(CN21)C#N	
InChI=1S/C7H8N2/c1-4-5-6(4)9-3-7(5,9)2-8/h4-6H,3H2,1H3	InChI=1S/C7H8N2/c1-4-5-6(4)9-3-7(5,9)2-8/h4-6H,3H2,1H3/t4-,5-,6+,7-,9?/m1/s1
