16
gdb 22511	2.44285	1.20644	1.1326	3.02	73.87	-0.2579	-0.0241	0.2337	1167.8353	0.122872	-434.008794	-433.999713	-433.998769	-434.042688	32.883	
C	-0.2623073152	 1.562001979	 0.1941824062	-0.421196
C	 0.0434066734	 0.0709247297	 0.0661598629	 0.081728
N	 1.2499577768	-0.2490505355	-0.770671654	-0.348098
C	 1.8407675067	-1.1175602476	 0.2921863436	-0.261581
C	 0.7728142303	-0.60692545	 1.228193315	 0.380087
N	 0.5090916955	-0.5948423105	 2.4611286584	-0.222711
O	 1.4688664728	-1.297239262	 3.1952686698	-0.379909
C	-1.1494651943	-0.6855341418	-0.3467011479	 0.25169
N	-2.0670497994	-1.2875092374	-0.7116203766	-0.335242
H	 0.6500427361	 2.0882189459	 0.4812429585	 0.135748
H	-0.6158839186	 1.960151774	-0.760805588	 0.137618
H	-1.0306815922	 1.7290496133	 0.9534716605	 0.146428
H	 1.0318420798	-0.7310923911	-1.6358837619	 0.240103
H	 1.773448305	-2.1984061535	 0.1124759415	 0.137427
H	 2.874456046	-0.8665630188	 0.5488438242	 0.141808
H	 1.1472409872	-1.2063218336	 4.0993802177	 0.316101
80.1756	113.7688	161.8998	194.6911	212.8491	245.4098	311.229	365.5539	422.7169	451.3322	505.8751	540.2574	627.4527	649.4922	730.0703	774.9468	921.411	952.3846	971.3751	998.536	1024.1316	1108.5932	1123.929	1154.8284	1183.6167	1226.5328	1296.7857	1373.5952	1403.6494	1415.4948	1481.5545	1484.5497	1492.2252	1805.6841	2343.9278	3023.3233	3051.4296	3080.4363	3130.5341	3143.5599	3543.5139	3811.3388
CC1(NCC1=NO)C#N	C[C@]1(NCC1=NO)C#N	
InChI=1S/C5H7N3O/c1-5(3-6)4(8-9)2-7-5/h7,9H,2H2,1H3	InChI=1S/C5H7N3O/c1-5(3-6)4(8-9)2-7-5/h7,9H,2H2,1H3/t5-/m0/s1
