19
gdb 106840	2.80263	1.14513	0.9381	0.7532	71.71	-0.261	0.0625	0.3235	1285.4792	0.157749	-460.116745	-460.107393	-460.106449	-460.151521	34.314	
O	-0.0929319408	 1.2090371073	 0.7040778576	-0.412478
C	 0.032005631	-0.0115698795	-0.0092146231	-0.173886
C	-1.3072395553	-0.6059803665	-0.3144341342	 0.313229
C	-2.3714003578	-0.150210912	-1.3254796409	-0.284301
C	-2.9201823772	-1.6197349283	-1.3420539341	-0.284272
C	-1.8252367597	-1.9930933708	-0.3300713602	 0.313463
C	-1.205544156	-3.3257699944	-0.0473357366	-0.174015
O	-2.1062811785	-4.181334845	 0.6389753678	-0.412446
O	-2.0352554853	-1.1372907748	 0.8157651738	-0.343006
H	-0.5983180144	 1.0141031732	 1.5014295046	 0.293957
H	 0.556959887	 0.2309630483	-0.9390075902	 0.114932
H	 0.6403522788	-0.7434864912	 0.5426779795	 0.095702
H	-3.0464665153	 0.6268765103	-0.9623342653	 0.115656
H	-1.9478931351	 0.1536363639	-2.2857462319	 0.108574
H	-3.941987453	-1.771185905	-0.9893221203	 0.115648
H	-2.7924321102	-2.1077175086	-2.3112492354	 0.108586
H	-0.9586554254	-3.8328317278	-0.9858723759	 0.114963
H	-0.2719122048	-3.1831310798	 0.5168745241	 0.095754
H	-2.366920788	-3.7211827593	 1.4448884307	 0.293939
52.5895	82.6228	117.1747	165.7954	257.7474	271.6043	316.8729	359.2242	404.5404	411.1661	508.0997	535.5811	702.4993	713.7438	760.7166	781.7035	886.0101	915.8385	936.3271	941.8392	1008.3542	1046.1154	1062.0546	1088.635	1132.6421	1175.811	1187.4134	1214.1758	1222.3255	1230.5817	1280.6872	1314.4189	1362.0271	1372.5719	1421.9703	1424.5619	1464.5342	1469.9786	1485.1721	1491.8197	1509.8716	2990.748	2999.1577	3068.5082	3075.1873	3077.7333	3079.918	3121.5628	3137.2587	3802.9449	3803.5626
OCC12CCC1(CO)O2	OC[C@@]12CC[C@]1(CO)O2	
InChI=1S/C6H10O3/c7-3-5-1-2-6(5,4-8)9-5/h7-8H,1-4H2	InChI=1S/C6H10O3/c7-3-5-1-2-6(5,4-8)9-5/h7-8H,1-4H2/t5-,6+
