18
gdb 52798	1.90643	1.26497	0.84715	1.6842	88.5	-0.2334	0.0287	0.2621	1417.9803	0.144044	-364.729139	-364.718801	-364.717857	-364.766543	36.608	
C	 0.1151603833	 1.4983681533	-0.0184308625	-0.503989
C	 0.074795944	 0.0439318672	-0.0104419539	 0.1541
C	 0.0256439975	-1.1586461966	 0.0146003168	 0.048068
C	 0.0064457972	-2.5999105157	-0.0103035677	 0.079912
C	 1.1466811861	-3.2391519372	-0.7856990691	-0.46582
N	-0.4626750704	-3.2554070066	 1.2290281695	-0.344036
C	-1.3152194546	-3.3363950199	 0.0229964333	-0.307741
C	-2.5852932307	-2.6696347102	 0.047260442	 0.401537
C	-3.6605010424	-2.1329179161	 0.0305654331	-0.436902
H	 1.1445710506	 1.8687944042	-0.0775178501	 0.147253
H	-0.4349952032	 1.9070838817	-0.8732398945	 0.149323
H	-0.3340219171	 1.9087813171	 0.8925255703	 0.153818
H	 2.1062143583	-2.9951357569	-0.3188742774	 0.135334
H	 1.0403666895	-4.3287229747	-0.8115797632	 0.112942
H	 1.1710582237	-2.8703468469	-1.8151460276	 0.138661
H	 0.0296060788	-4.1388852629	 1.3494128086	 0.233358
H	-1.3161582113	-4.2795736637	-0.5210829063	 0.10894
H	-4.6049144292	-1.647901496	 0.0268175788	 0.195242
8.5937	66.5959	112.5877	150.6644	170.8144	222.5214	299.7914	303.4319	337.4201	357.7915	444.6364	533.5453	566.8246	593.6598	608.2732	630.194	655.6203	784.6743	853.7685	933.2936	971.7287	1024.9099	1051.968	1053.1624	1066.5033	1086.1764	1143.9463	1203.2341	1260.5422	1372.5918	1411.5907	1413.1306	1423.362	1476.7747	1477.592	1480.1192	1499.7929	2243.1846	2374.2522	3026.8495	3032.6813	3087.1094	3089.9323	3104.1357	3112.6519	3115.708	3484.126	3505.4943
CC#CC1(C)NC1C#C	CC#C[C@@]1(C)N[C@H]1C#C	
InChI=1S/C8H9N/c1-4-6-8(3)7(5-2)9-8/h2,7,9H,1,3H3	InChI=1S/C8H9N/c1-4-6-8(3)7(5-2)9-8/h2,7,9H,1,3H3/t7-,8+/m0/s1
