12
gdb 128625	7.24996	0.93291	0.83093	6.1737	63.97	-0.2897	-0.0664	0.2232	1273.8053	0.077661	-468.801506	-468.793808	-468.792864	-468.834319	26.368	
C	 0.0056171547	 1.3949959694	-0.0311732874	-0.258549
O	 0.0212607084	-0.0464966461	-0.0338149438	-0.246673
C	 0.5961904854	-0.6474216527	-1.0420650552	 0.529095
N	 0.7010034942	-1.934823751	-1.2065871885	-0.390535
C	 1.3742134235	-1.9858995276	-2.3978850276	 0.280882
N	 1.6758413157	-0.8315400704	-2.9500561952	-0.166396
O	 1.1458222066	 0.0835860014	-2.0269424631	-0.204358
C	 1.7436414727	-3.2120374118	-3.031956223	 0.281855
N	 2.0390007888	-4.20709231	-3.538623669	-0.31035
H	 1.0252704807	 1.7873731047	-0.0247647877	 0.160342
H	-0.5313857505	 1.7721136789	-0.9047281109	 0.160343
H	-0.5144483403	 1.6715538153	 0.8840408412	 0.164345
81.135	140.8769	145.3102	174.64	250.4561	325.9037	460.3008	502.5294	566.4182	624.9118	729.0326	731.4518	782.6345	933.3775	994.845	1018.2926	1115.8414	1176.7839	1200.9826	1344.8163	1391.7914	1472.8016	1488.4606	1493.7932	1523.783	1666.8299	2376.9222	3056.83	3137.7122	3179.8028
COC1=NC(=NO1)C#N	COc1nc(no1)C#N	
InChI=1S/C4H3N3O2/c1-8-4-6-3(2-5)7-9-4/h1H3	InChI=1S/C4H3N3O2/c1-8-4-6-3(2-5)7-9-4/h1H3
