14
gdb 127834	4.66989	1.06103	0.87007	3.8912	67.9	-0.2518	-0.0815	0.1703	1252.5568	0.099896	-466.12797	-466.119666	-466.118722	-466.161397	29.443	
C	-0.1090513865	 1.4377367917	-0.0161511023	-0.344411
N	-0.1260856415	-0.01197535	-0.0109347145	-0.265804
C	 0.5533110491	-0.6090445343	-0.9095630724	 0.297895
N	 1.3416651181	-0.0513801243	-1.8913347734	-0.572332
C	 0.5645995638	-2.0884828368	-0.9224910919	 0.426931
N	 0.0031522124	-2.8814486329	-0.0511124246	-0.146331
O	 0.2837544609	-4.1232585655	-0.4979177681	-0.12616
N	 1.0338123718	-4.0356858621	-1.666183158	 0.042312
N	 1.1996651328	-2.8154756407	-1.9154490371	-0.225209
H	 0.9094857278	 1.8417340126	 0.0933065295	 0.121949
H	-0.5312776485	 1.8575757795	-0.9444842153	 0.112274
H	-0.7114732559	 1.8104002792	 0.8147432461	 0.135998
H	 1.1961079435	 0.9173105414	-2.1198602272	 0.265185
H	 1.6550481522	-0.6450637078	-2.6428439908	 0.277702
62.2966	137.5685	148.2628	167.0752	298.0595	313.0825	373.4106	397.5313	470.1607	490.6664	661.5962	692.0622	697.8358	749.1752	805.4124	965.555	982.3207	1065.3816	1091.1423	1099.5327	1113.3634	1191.7089	1255.8848	1343.8956	1431.7739	1480.9573	1496.5147	1504.1789	1591.7132	1635.3823	1733.074	2961.4517	3011.2662	3112.5807	3598.709	3718.5903
CN=C(N)C1=NON=N1	CN=C(N)c1nonn1	
InChI=1S/C3H5N5O/c1-5-2(4)3-6-8-9-7-3/h1H3,(H2,4,5)	InChI=1S/C3H5N5O/c1-5-2(4)3-6-8-9-7-3/h1H3,(H2,4,5)
