15
gdb 25972	5.03668	1.08091	0.89485	2.1785	69.82	-0.2186	-0.0182	0.2004	1242.7976	0.113103	-454.018948	-454.010881	-454.009937	-454.052602	28.834	
C	 0.0806981421	 1.4004372657	 0.2495170046	-0.483345
C	-0.3472634503	 0.0738504729	-0.3159570401	 0.4335
O	-0.714614787	-0.1251616153	-1.4478198968	-0.352456
O	-0.2601703629	-0.8852160956	 0.6439787753	-0.243727
C	-0.5885219524	-2.1917556696	 0.4087919387	 0.453585
N	-0.4972628778	-3.0945127879	 1.3440136871	-0.334654
C	-0.9074422592	-4.2608580137	 0.7298126288	-0.085757
C	-1.2407330418	-4.0332398964	-0.5769163089	-0.115192
N	-1.0300741775	-2.6823705199	-0.778035042	-0.29108
H	 1.1081336709	 1.3342576975	 0.6182198996	 0.164071
H	 0.0077371508	 2.1631454644	-0.5242280449	 0.154683
H	-0.5528553284	 1.664601056	 1.1008110729	 0.164056
H	-0.9358370782	-5.1927850434	 1.2722505258	 0.113235
H	-1.5969453128	-4.6735176253	-1.3660165838	 0.131892
H	-1.1572768856	-2.1198654193	-1.6042990463	 0.291189
63.384	75.6775	100.1595	200.2356	327.1236	357.5238	393.3905	586.6974	604.1742	611.862	673.8604	698.1546	742.7702	750.7742	852.9972	928.7995	931.539	1004.5359	1045.564	1062.0785	1088.8282	1134.0373	1199.0538	1261.8135	1270.9137	1380.0419	1399.5546	1466.7902	1473.2089	1489.1415	1521.9922	1588.5999	1811.9377	3060.119	3125.4193	3174.8382	3257.1696	3285.526	3646.0754
CC(=O)OC1=NC=CN1	CC(=O)Oc1ncc[nH]1	
InChI=1S/C5H6N2O2/c1-4(8)9-5-6-2-3-7-5/h2-3H,1H3,(H,6,7)	InChI=1S/C5H6N2O2/c1-4(8)9-5-6-2-3-7-5/h2-3H,1H3,(H,6,7)
