21
gdb 41817	2.38192	1.90501	1.44186	0.8212	76.97	-0.2377	0.0784	0.3162	1000.9253	0.186848	-424.240101	-424.232841	-424.231897	-424.271536	29.894	
C	 0.105579431	 1.6814708401	 0.1111152862	-0.217679
C	 1.5790521305	 1.9701223441	-0.2356480225	-0.249796
C	 2.0314188158	 0.695400961	-0.9946270687	 0.107369
C	 3.202933571	-0.0135716224	-0.3120260649	-0.09502
O	 2.9683532832	-0.2693966024	 1.0592143987	-0.250818
C	 1.9123266109	-1.1858729792	 1.3189653639	-0.06034
C	 0.5271050184	-0.5322026645	 1.3983818305	-0.240444
C	 0.0540962757	 0.1461444264	 0.0784564485	 0.101344
O	 0.8970754974	-0.1836688051	-1.0265625514	-0.270978
H	-0.2033780025	 2.1033610762	 1.0706782044	 0.099855
H	-0.5570393697	 2.0796684936	-0.6632021717	 0.102726
H	 1.6966984892	 2.8712815302	-0.8405858059	 0.101844
H	 2.1751042605	 2.0893744882	 0.6723736518	 0.120473
H	 2.3017634447	 0.9011158451	-2.0371857628	 0.074816
H	 3.4130137849	-0.9523709818	-0.8480014598	 0.095338
H	 4.0993380434	 0.6161032024	-0.3558635632	 0.101386
H	 1.9092536204	-1.9806770602	 0.5610397973	 0.101525
H	 2.142503399	-1.6412734469	 2.2885031163	 0.09905
H	-0.1839348774	-1.3158322188	 1.6872588359	 0.097913
H	 0.5308297499	 0.1993506788	 2.2144110106	 0.103429
H	-0.9429007962	-0.2183158747	-0.1837064134	 0.078006
121.6711	195.2196	277.4545	332.1831	359.647	384.546	436.4409	568.7433	623.7457	659.8321	746.1478	769.4886	804.3406	862.7097	892.7417	908.3228	917.5407	960.1342	990.5173	1011.9427	1040.1104	1058.6755	1079.9132	1090.8781	1124.5164	1165.027	1180.3897	1218.2444	1245.5708	1272.8011	1302.2713	1321.915	1329.3755	1332.9425	1353.461	1361.598	1365.1961	1384.75	1399.8118	1422.376	1477.3252	1478.5047	1487.3986	1497.1594	1507.87	2984.3956	3013.5454	3029.0653	3036.1288	3052.0032	3063.1153	3065.0073	3071.247	3075.0908	3079.6043	3103.2989	3122.8239
C1CC2COCCC1O2	C1C[C@H]2COCC[C@@H]1O2	
InChI=1S/C7H12O2/c1-2-7-5-8-4-3-6(1)9-7/h6-7H,1-5H2	InChI=1S/C7H12O2/c1-2-7-5-8-4-3-6(1)9-7/h6-7H,1-5H2/t6-,7+/m1/s1
