25
gdb 101695	3.3822	0.79014	0.76996	1.2213	89.33	-0.2347	0.0681	0.3028	1674.3823	0.226068	-389.483228	-389.471966	-389.471022	-389.519989	41.617	
C	-0.0367911281	 1.5739249625	 0.0866721562	-0.391945
C	-0.013743034	 0.0509089142	-0.0794491187	-0.170388
C	 0.8318819447	-0.4584348696	-1.2622850574	 0.054513
C	 2.322697222	-0.1361176481	-1.0906811478	-0.394531
C	 0.5823706749	-1.9667982087	-1.4647741511	-0.235922
C	 1.2070099812	-2.5668831039	-2.7070970028	 0.42701
O	 0.7955533549	-1.8397012099	-3.8406279203	-0.47115
C	 2.5878964593	-3.1691585258	-2.6750736527	-0.321784
C	 1.3624887292	-4.0610638228	-2.8115477197	-0.337454
H	 0.9515075511	 1.9776027993	 0.3267975443	 0.116368
H	-0.3817839264	 2.0643837354	-0.8306891966	 0.11355
H	-0.7140435609	 1.8683246715	 0.8948260045	 0.108901
H	 0.3483792955	-0.4132394062	 0.8492416325	 0.08635
H	-1.0444194562	-0.3033497828	-0.2109517549	 0.089457
H	 0.4798231663	 0.0481854706	-2.1698973177	 0.089607
H	 2.7342062297	-0.6340385199	-0.2032421688	 0.101082
H	 2.9011160878	-0.4646185058	-1.9576933035	 0.121136
H	 2.4898164047	 0.9385062462	-0.973662918	 0.109949
H	 0.9413349127	-2.5248398154	-0.5904285598	 0.088128
H	-0.5010284094	-2.1362809353	-1.5199476169	 0.098712
H	 1.2517921872	-2.1845436739	-4.6138725027	 0.279398
H	 3.2178756127	-3.0418887542	-3.5511548389	 0.10325
H	 3.1370305224	-3.1814235838	-1.739916907	 0.117428
H	 1.0752221852	-4.6814927751	-1.9688327771	 0.113834
H	 1.1783846734	-4.5166188085	-3.779781185	 0.104502
43.9314	73.4637	106.9317	135.1544	141.9018	220.4997	250.6285	261.1446	294.6765	310.4084	368.3902	409.1786	435.3465	443.9537	533.9862	741.8336	767.833	776.1088	809.088	871.2659	895.114	912.1837	933.5794	958.1949	972.7778	985.9215	1019.4486	1049.766	1050.308	1062.6996	1114.3804	1153.2214	1177.7849	1179.6428	1184.281	1230.3509	1291.9204	1308.5709	1331.1059	1359.7897	1381.3514	1385.6611	1409.1318	1413.5296	1435.6262	1460.9275	1471.9025	1486.2459	1496.2912	1497.4921	1502.3052	1507.6314	1514.6363	3002.4831	3014.7154	3021.6366	3030.2914	3032.6871	3041.0037	3059.8468	3094.5284	3096.7246	3106.6791	3117.9022	3118.8809	3123.6881	3198.6577	3213.6963	3829.5704
CCC(C)CC1(O)CC1	CC[C@@H](C)CC1(O)CC1	
InChI=1S/C8H16O/c1-3-7(2)6-8(9)4-5-8/h7,9H,3-6H2,1-2H3	InChI=1S/C8H16O/c1-3-7(2)6-8(9)4-5-8/h7,9H,3-6H2,1-2H3/t7-/m1/s1
