17
gdb 114163	5.16027	0.90359	0.83599	1.1346	76.92	-0.2443	0.019	0.2633	1359.8675	0.133561	-421.743552	-421.734714	-421.73377	-421.777223	32.917	
O	 0.0251690273	 1.3729523792	-0.2126946724	-0.422723
C	 0.0570540479	-0.0178845729	 0.0777505325	-0.094031
C	-1.3705177225	-0.5249034348	 0.0205642415	-0.001535
C	-2.0934288588	-0.5335469612	-1.3732607046	-0.319656
C	-2.2794486056	-2.0557121843	-1.2211433747	 0.288317
O	-0.9568374282	-2.6165245123	-1.0743038397	-0.279355
C	-1.5691996337	-2.0481476991	 0.0824918628	-0.084112
C	-3.327199144	-2.8754745384	-1.7233304508	 0.181026
C	-4.2357934575	-3.5256433724	-2.1683732532	-0.380259
H	 0.9314730841	 1.6870831716	-0.2801775548	 0.28851
H	 0.663604511	-0.5708889933	-0.6530278201	 0.104916
H	 0.4796056898	-0.2082844086	 1.0783740371	 0.084628
H	-1.9812183467	-0.0114787273	 0.7686282152	 0.091017
H	-3.0341323209	 0.0186141794	-1.3664166388	 0.120793
H	-1.494372321	-0.2344300213	-2.2352809305	 0.119157
H	-1.6912210447	-2.692921437	 0.945905831	 0.111757
H	-5.0322695964	-4.1104924275	-2.5574085404	 0.191551
77.5975	104.9257	137.1391	206.2438	234.3214	262.849	370.2411	447.5032	455.5622	520.3067	565.7935	610.6921	636.1653	671.1092	726.2835	822.5673	864.9789	912.3654	932.1892	970.8969	1014.0609	1059.7765	1076.2333	1098.7284	1155.8044	1165.0318	1199.3191	1244.8466	1257.8369	1266.7382	1282.1647	1359.7307	1408.5924	1462.7073	1474.6543	1524.4957	2241.0182	2963.9058	3022.3394	3076.6305	3083.0079	3143.5505	3183.1719	3502.5117	3829.7802
OCC1CC2(OC12)C#C	OC[C@H]1C[C@]2(O[C@@H]12)C#C	
InChI=1S/C7H8O2/c1-2-7-3-5(4-8)6(7)9-7/h1,5-6,8H,3-4H2	InChI=1S/C7H8O2/c1-2-7-3-5(4-8)6(7)9-7/h1,5-6,8H,3-4H2/t5-,6+,7-/m1/s1
