14
gdb 129919	3.35201	1.81278	1.18391	3.1105	68.37	-0.219	0.0173	0.2363	953.5922	0.105119	-429.073406	-429.06629	-429.065346	-429.10515	26.613	
N	-0.0475326487	 1.4215559486	 0.0180570135	-0.607149
C	-0.039609614	 0.0217981803	 0.0196944612	 0.217184
C	-1.0896531171	-0.8481732925	 0.059874929	-0.089629
N	-0.6090282585	-2.1580689291	 0.0439971416	-0.420373
C	 0.7527405462	-2.1040890475	-0.0067190646	 0.498687
N	 1.8138837647	-2.8958249464	-0.0451640316	-0.404317
C	 2.8116332829	-1.9626886368	-0.0835150267	 0.032786
N	 2.4552003295	-0.6754550728	-0.0721217435	-0.303659
N	 1.0996319096	-0.7941135635	-0.0214226461	 0.011846
H	 0.4589059769	 1.7943206764	 0.8165136172	 0.254839
H	 0.4030149968	 1.7919473206	-0.8142727609	 0.254878
H	-2.1420072136	-0.6276764538	 0.0985476046	 0.151252
H	-1.160559291	-2.9962924582	 0.0657599664	 0.282162
H	 3.8544828563	-2.2421369253	-0.1219711801	 0.121494
79.164	183.3632	246.2493	263.2237	313.8928	428.5503	566.2797	604.1978	644.1239	656.4502	728.6549	748.0921	773.5682	828.6223	845.9148	899.4021	983.1674	1082.3891	1130.0479	1193.918	1228.2159	1230.5496	1260.212	1292.6544	1352.5421	1389.8208	1430.1749	1483.78	1642.7648	1643.6026	1693.6223	3255.2924	3297.1078	3488.6944	3549.1576	3704.421
NC1=CNC2=NC=NN12	Nc1c[nH]c2ncnn12	
InChI=1S/C4H5N5/c5-3-1-6-4-7-2-8-9(3)4/h1-2H,5H2,(H,6,7,8)	InChI=1S/C4H5N5/c5-3-1-6-4-7-2-8-9(3)4/h1-2H,5H2,(H,6,7,8)
