15
gdb 19891	3.99636	1.95172	1.61198	4.4051	68.28	-0.2344	0.0213	0.2557	806.0454	0.119988	-325.460385	-325.454012	-325.453068	-325.490735	25.302	
N	-0.2850578454	-1.2178886952	-0.2091198105	-0.3537
C	-0.0856273057	-0.0876493948	-0.0594123479	 0.286475
C	 0.0779153628	 1.3384935862	 0.070440868	-0.167661
C	 0.5023054852	 2.1551560155	 1.2781098083	-0.085319
C	 1.7188342836	 1.6338684395	 2.0904301831	-0.053627
C	 2.3412251204	 0.3668539408	 1.5732754792	-0.320821
C	 2.5661137938	 1.6518387254	 0.8260251631	-0.053628
C	 1.345394286	 2.1730351334	 0.0199591505	-0.085318
H	-0.7245715191	 1.8490172727	-0.4600574481	 0.141751
H	-0.1622024417	 2.920966181	 1.6574323905	 0.106051
H	 1.9563066317	 2.0416537483	 3.0637266057	 0.099456
H	 3.2072345282	 0.0522902026	 2.1491189148	 0.119536
H	 1.7670210086	-0.4585187816	 1.1767688027	 0.1613
H	 3.5511370702	 2.0754801922	 0.6837408314	 0.099456
H	 1.4333863716	 2.9548023441	-0.7236933106	 0.106051
136.5772	175.5918	340.5797	355.3006	448.0365	601.6635	639.3928	704.3239	709.1613	711.3587	766.2562	866.1225	902.834	909.0311	919.0666	943.1622	1009.8094	1016.4214	1033.404	1054.5355	1073.1297	1090.0548	1093.0745	1171.0923	1212.5883	1259.3035	1292.5211	1319.5114	1350.0149	1422.4389	1499.2146	2343.882	3126.0711	3140.7142	3185.9153	3195.8287	3199.6566	3209.4255	3241.4881
N#CC1C2C3CC3C12	N#C[C@H]1[C@H]2[C@H]3C[C@H]3[C@@H]12	
InChI=1S/C7H7N/c8-2-5-6-3-1-4(3)7(5)6/h3-7H,1H2	InChI=1S/C7H7N/c8-2-5-6-3-1-4(3)7(5)6/h3-7H,1H2/t3-,4+,5-,6+,7-
