18
gdb 71309	3.37832	1.4895	1.19194	1.7531	83.3	-0.2311	0.0295	0.2606	1058.7034	0.146394	-364.684233	-364.676309	-364.675365	-364.716216	31.531	
C	 0.0336180359	 1.4659681755	-0.1135668026	-0.523021
C	 0.1049548878	-0.0316160588	-0.0758222266	 0.365748
C	 0.569882378	-0.9762803731	-1.1945321252	-0.300074
C	 0.0458139799	-1.8821094578	-0.0857350805	-0.006794
C	 0.593634553	-0.9920335706	 1.0623880888	-0.117693
C	-0.8050001947	-1.0038003497	 1.6913293559	-0.177143
C	-1.2686991746	 0.0672167206	 2.5490980643	 0.327308
C	-1.658557674	 0.9198794178	 3.3032167343	-0.423951
N	-1.1542973093	-0.9363255117	 0.1899002676	-0.195562
H	 1.0348802731	 1.8846655555	-0.2645061722	 0.120253
H	-0.5985959191	 1.7896593755	-0.9468823618	 0.130004
H	-0.3765645909	 1.8736037217	 0.8123465978	 0.144768
H	-0.0170542588	-0.9514057965	-2.1171799739	 0.107898
H	 1.6437568384	-1.0095138948	-1.3970802306	 0.098149
H	-0.1020327094	-2.9629625919	-0.0668600981	 0.083377
H	 1.5750272784	-1.0278592859	 1.5470951859	 0.070683
H	-1.1120162075	-1.9697166292	 2.1108449269	 0.099669
H	-2.0046621162	 1.6806558035	 3.9584604699	 0.196378
138.1821	140.6691	192.3675	275.7899	295.0114	399.0196	404.8921	498.8028	526.2138	620.6697	632.926	647.3491	689.7159	798.7127	828.2602	853.874	879.6522	890.8195	928.9977	956.2507	1008.8162	1032.6404	1039.4533	1071.4319	1127.9256	1144.9996	1156.4386	1164.8829	1210.418	1219.7766	1237.172	1297.0984	1333.5423	1379.492	1409.9793	1482.952	1491.2908	1494.7487	2227.1276	3031.1124	3037.0228	3047.7473	3053.3334	3100.0738	3105.9356	3116.8209	3136.7197	3502.2568
CC12CC3C1C(C#C)N23	C[C@@]12C[C@H]3[C@@H]1[C@@H](C#C)N23	
InChI=1S/C8H9N/c1-3-5-7-6-4-8(7,2)9(5)6/h1,5-7H,4H2,2H3	InChI=1S/C8H9N/c1-3-5-7-6-4-8(7,2)9(5)6/h1,5-7H,4H2,2H3/t5-,6+,7+,8-/m1/s1
