16
gdb 30071	3.14876	1.26061	1.00549	3.3333	74.89	-0.2352	0.0095	0.2447	1158.3703	0.126084	-396.980957	-396.972624	-396.971679	-397.014597	29.588	
C	 0.3013779501	 1.365231871	 0.2069991119	-0.35851
N	 0.0896223539	-0.0663285203	 0.0933242474	-0.04566
C	-0.0485099652	-0.7732780356	-1.0655048192	 0.005357
N	-0.228089564	-2.0570651276	-0.8560240935	-0.268188
C	-0.2029307025	-2.1989948123	 0.5076297923	-0.158765
C	-0.0097782274	-0.9872001546	 1.1218467873	 0.275624
C	 0.0659874135	-0.6287306568	 2.5746767091	-0.457085
C	 1.3572240905	-0.0541077742	 2.9754973238	 0.270072
N	 2.3696397482	 0.4202351507	 3.2675843798	-0.312255
H	 1.2374717968	 1.5828157028	 0.7280220299	 0.173651
H	 0.348926672	 1.7904867225	-0.7967432668	 0.151074
H	-0.5233318376	 1.8431172191	 0.7457036935	 0.143292
H	-0.0063774037	-0.2863791526	-2.0292514106	 0.131513
H	-0.3248784989	-3.1623882514	 0.9809421988	 0.114178
H	-0.7205906397	 0.0811037572	 2.8648222592	 0.160779
H	-0.107348546	-1.5358216678	 3.162052457	 0.174922
60.5044	106.4439	122.578	210.1142	246.4113	286.3743	383.0232	403.8876	479.1821	632.4549	676.832	697.6407	765.468	820.3476	850.8142	917.9772	929.4007	942.8631	1080.955	1151.4011	1153.3701	1192.324	1224.4875	1278.0924	1296.1903	1338.2039	1383.8677	1419.9944	1450.3718	1460.5765	1486.4354	1515.1222	1535.0015	1593.6043	2359.7889	3020.3659	3043.1969	3089.2226	3109.942	3144.2544	3240.6137	3244.6035
CN1C=NC=C1CC#N	Cn1cncc1CC#N	
InChI=1S/C6H7N3/c1-9-5-8-4-6(9)2-3-7/h4-5H,2H2,1H3	InChI=1S/C6H7N3/c1-9-5-8-4-6(9)2-3-7/h4-5H,2H2,1H3
