20
gdb 39132	3.46812	1.31899	1.19943	1.4778	77.29	-0.2355	0.0671	0.3026	1099.1955	0.173213	-403.104907	-403.097295	-403.096351	-403.137506	29.802	
C	 0.0065820024	 1.4783196767	 0.0176166108	-0.262158
C	 1.2292096343	 0.6313504261	-0.0048582849	-0.095365
N	-0.1136531656	 0.0149904608	-0.0192114818	-0.095663
C	-0.3081688521	-0.5213431569	-1.3829596433	-0.157679
C	 0.771845391	 0.0995531545	-2.2973617766	-0.333243
C	 1.9295070335	 0.4164024083	-1.3318383383	 0.319712
C	 3.0021050268	 1.4302868521	-1.7970155912	-0.131963
O	 4.025044355	 0.4162559099	-1.8289673253	-0.271839
C	 3.1213474648	-0.5783721091	-1.3135192865	-0.123552
H	-0.3121836555	 1.9320008472	 0.9513841718	 0.118869
H	-0.2493728742	 2.0535045402	-0.8690195331	 0.10883
H	 1.8129209176	 0.506531855	 0.9038211873	 0.092085
H	-0.1838287799	-1.6079988061	-1.3204532413	 0.110773
H	-1.3285159805	-0.3247429235	-1.7259927405	 0.108195
H	 1.0734066049	-0.5696744212	-3.1071104191	 0.109517
H	 0.4138245748	 1.0215412971	-2.7674369521	 0.108043
H	 2.8353396409	 1.8795418395	-2.7845493859	 0.098278
H	 3.234458519	 2.2272121726	-1.0781002471	 0.099857
H	 3.4204211447	-0.9272436765	-0.3156732959	 0.09876
H	 3.0341925282	-1.4449875166	-1.981464797	 0.098541
55.4073	113.2537	210.3263	309.6743	357.0005	392.8137	430.3352	492.2595	654.4107	706.6265	789.7263	822.311	853.109	858.8355	919.0424	949.9991	956.9128	984.0307	990.2013	1004.734	1030.2114	1044.2302	1094.4387	1109.1911	1132.5698	1154.9705	1159.9864	1161.925	1178.9219	1222.933	1241.3454	1270.4069	1276.7328	1310.0553	1316.4341	1348.4004	1380.2538	1397.3064	1486.0223	1497.7089	1509.2665	1517.7512	1535.8303	2994.5825	3006.8712	3042.1939	3043.1602	3044.2277	3049.9004	3086.2167	3101.282	3107.9121	3136.7749	3190.6368
C1C2N1CCC21COC1	C1[C@H]2N1CCC12COC1	
InChI=1S/C7H11NO/c1-2-8-3-6(8)7(1)4-9-5-7/h6H,1-5H2	InChI=1S/C7H11NO/c1-2-8-3-6(8)7(1)4-9-5-7/h6H,1-5H2/t6-,8?/m1/s1
