13
gdb 24817	3.08241	1.53006	1.0225	8.4229	75.76	-0.2355	-0.0646	0.171	1057.3319	0.092596	-411.837184	-411.829988	-411.829044	-411.869162	26.686	
N	-0.0623364332	 1.3229277639	 0.0103765574	-0.513757
C	-0.0089617258	 0.0494595332	 0.0034309538	 0.286996
N	 1.2091507215	-0.6735750152	-0.0079327436	-0.304347
C	 1.191844425	-1.9515899158	-0.014617239	 0.101894
N	 0.0524111484	-2.7229478318	-0.0116817988	-0.318635
C	-1.1730175789	-2.1084384891	-0.0007953983	-0.046077
C	-1.2491998233	-0.7563840008	 0.0068583342	 0.060908
C	-2.5250970616	-0.1241529858	 0.0181488499	 0.255781
N	-3.5802299259	 0.3521198171	 0.0272470028	-0.333001
H	 0.8890350034	 1.6956649064	 0.006417849	 0.223472
H	 2.1242432914	-2.5128246411	-0.0233581571	 0.143223
H	 0.1203836373	-3.7273212283	-0.0174186552	 0.280242
H	-2.0442959282	-2.7499369427	 0.0012149847	 0.163301
80.7736	154.6249	198.7262	391.1734	401.8995	421.3689	466.3609	516.9015	581.521	583.1601	588.9364	730.0672	798.0059	905.1828	915.9774	921.4785	964.1913	1001.421	1072.688	1194.4651	1229.3539	1298.3214	1389.0915	1426.598	1503.8024	1638.5301	1693.5314	1721.0177	2345.3877	3156.0867	3229.2129	3469.7611	3655.1677
N=C1N=CNC=C1C#N	[NH]C1=NCNC=C1C#N	
InChI=1S/C5H4N4/c6-1-4-2-8-3-9-5(4)7/h2-3H,(H2,7,8,9)	InChI=1S/C5H5N4/c6-1-4-2-8-3-9-5(4)7/h2,7-8H,3H2
