17
gdb 34197	4.04357	1.42925	1.26393	1.9292	78.72	-0.2431	0.0204	0.2634	1011.2657	0.136068	-384.605363	-384.598279	-384.597335	-384.636555	29.016	
C	 0.1281636492	-1.2003809577	 0.0862893093	-0.352371
C	 0.0507067804	-0.0018304964	 0.0272065994	 0.150353
C	-0.0786354729	 1.4296184514	-0.0455184075	 0.303403
C	-1.1211690991	 2.164970575	 0.8449915818	-0.272453
C	-1.3105140013	 3.227673628	-0.2691540787	-0.065912
C	-0.1124653685	 4.2118492995	-0.3687066617	-0.241032
C	 0.7281323727	 3.0889639462	-1.0188432939	 0.105283
O	 1.1931254166	 2.1346490293	-0.0355723408	-0.338219
C	-0.5648715157	 2.2703280807	-1.2764106956	-0.148495
H	 0.2076032721	-2.2581839952	 0.1390043236	 0.189492
H	-2.0188547652	 1.5509952807	 0.9608256682	 0.112909
H	-0.7663173435	 2.4908128521	 1.8259761896	 0.108452
H	-2.3134658455	 3.6216445562	-0.425994775	 0.074665
H	-0.320416059	 5.0048088313	-1.0948534847	 0.102779
H	 0.2775475498	 4.6533937962	 0.5523563505	 0.10487
H	 1.5054901242	 3.3352345605	-1.7440521772	 0.081859
H	-0.9290421244	 1.8752796722	-2.2201682773	 0.084417
139.9053	146.4471	315.7864	325.4145	438.1648	455.4338	523.0492	550.9356	619.5004	671.0955	680.6369	742.405	796.3597	836.8587	860.2019	889.0558	896.7903	940.5406	973.3866	984.7404	1023.9724	1038.9903	1064.1062	1112.6711	1121.7135	1143.3563	1169.2155	1211.0661	1217.9051	1256.2689	1266.6539	1302.7076	1306.1544	1335.3757	1461.1838	1472.9102	2235.4772	3045.5477	3055.9574	3094.8538	3105.3299	3114.9568	3120.6593	3162.5414	3500.7191
C#CC12CC3CC(O1)C23	C#C[C@@]12C[C@H]3C[C@@H](O1)[C@@H]23	
InChI=1S/C8H8O/c1-2-8-4-5-3-6(9-8)7(5)8/h1,5-7H,3-4H2	InChI=1S/C8H8O/c1-2-8-4-5-3-6(9-8)7(5)8/h1,5-7H,3-4H2/t5-,6-,7+,8+/m1/s1
