19
gdb 8111	2.90701	1.94687	1.45166	2.0402	72.13	-0.1958	0.075	0.2708	940.6711	0.163979	-365.005289	-364.99672	-364.995776	-365.037626	32.315	
C	-0.0616059866	 1.7704423295	 0.8012998504	-0.426054
C	 0.0846596113	 0.2691138583	 0.6646678499	-0.074168
C	 1.2074963978	-0.5181397548	-0.0095461804	-0.093905
N	 2.5616379501	-0.0241248042	 0.202079357	-0.058704
C	 3.06694315	 1.1394556999	-0.499020597	-0.327122
C	 2.3785567338	-0.01625537	 1.6750900316	-0.249938
C	 0.9789242602	-0.625364182	 1.4864510611	 0.332116
O	 0.528608662	-1.7243674559	 2.1963603839	-0.458163
H	-0.3460402366	 2.2309552608	-0.150963014	 0.120039
H	-0.8418290432	 2.0155050745	 1.5316981731	 0.111193
H	 0.8593292998	 2.2507161702	 1.1381603864	 0.123916
H	-0.8592100138	-0.2437917544	 0.4758678208	 0.08846
H	 0.9996720855	-1.2295837878	-0.80290185	 0.095294
H	 2.5183924791	 2.0774892207	-0.3126330466	 0.095122
H	 4.1145768826	 1.3016941952	-0.2219455871	 0.118152
H	 3.0382009529	 0.9446740858	-1.5764130401	 0.120815
H	 3.0727274337	-0.6950224749	 2.1827456471	 0.110224
H	 2.4250625253	 0.9704940635	 2.1565538461	 0.087381
H	-0.0398270236	-1.4119051743	 2.9082711679	 0.28534
148.1438	168.2585	196.7373	209.4764	233.9354	257.496	295.9174	342.4311	408.3838	478.0145	594.8842	611.0398	687.9432	753.4135	841.4657	925.4563	962.3082	981.4852	986.6026	1036.5208	1076.7575	1113.4455	1117.1097	1133.7978	1162.0317	1209.5349	1229.8988	1235.4765	1273.1001	1293.7207	1338.2903	1356.5153	1411.7865	1450.1874	1472.2102	1479.5164	1498.8184	1502.9345	1508.282	1516.2034	2968.1417	3002.3608	3029.2848	3053.9206	3060.9559	3083.6466	3093.5703	3104.4703	3126.612	3156.5839	3799.2676
CC1C2N(C)CC12O	C[C@H]1[C@H]2N(C)C[C@@]12O	
InChI=1S/C6H11NO/c1-4-5-6(4,8)3-7(5)2/h4-5,8H,3H2,1-2H3	InChI=1S/C6H11NO/c1-4-5-6(4,8)3-7(5)2/h4-5,8H,3H2,1-2H3/t4-,5+,6+/m0/s1
