17
gdb 41114	3.52893	1.98193	1.59822	2.0692	74.54	-0.238	-0.0099	0.2281	854.1347	0.138794	-380.804225	-380.798144	-380.7972	-380.834231	26.	
C	-0.0067890535	 1.4350865723	 0.2396743456	-0.246016
C	 1.5013124858	 1.5646580629	-0.1612541179	-0.334668
C	 1.3962104506	 0.1890975041	-0.8054756529	 0.350502
N	 2.3008461391	-0.9432927205	-0.7233843462	-0.25662
C	 1.6891400908	-1.8373344632	-1.4021698579	 0.022868
N	 0.5253603745	-1.4401265664	-2.1458496187	-0.173088
C	-0.5221225827	-0.5987196461	-1.3570482851	-0.039781
C	 0.585776018	 0.0200730214	-2.1255142965	-0.111692
C	 0.0281523149	-0.1062710486	-0.0479745963	-0.069097
H	-0.2405197299	 1.6936828306	 1.2733526946	 0.112419
H	-0.6854565812	 1.98419402	-0.4172323523	 0.110007
H	 1.7962152649	 2.4018251961	-0.7998235964	 0.100761
H	 2.1528073221	 1.5413042738	 0.7160528766	 0.122753
H	 1.9974267649	-2.8760929658	-1.455382895	 0.126593
H	-1.5427534591	-0.8134002766	-1.650305643	 0.108254
H	 0.6127487647	 0.5914134296	-3.0481917617	 0.097466
H	 0.0135844561	-0.7478792635	 0.8349764533	 0.079338
212.1751	283.8387	362.0828	394.2961	518.4498	593.8239	631.9015	684.3985	722.4039	784.7207	792.8927	838.9563	857.9328	882.2268	903.7474	931.8018	955.6795	972.4713	980.1919	1028.7845	1047.5325	1071.1746	1097.9662	1141.0583	1175.2424	1208.6721	1214.9262	1226.0757	1251.2369	1267.5221	1294.2592	1320.6966	1328.7377	1338.8545	1477.3262	1493.5361	1621.9452	3058.0755	3072.4682	3092.3487	3110.0412	3132.456	3158.162	3189.3366	3200.9923
C1CC23N=CN4C(C24)C13	C1C[C@]23[N][CH]N4[C@H]([C@@H]24)[C@H]13	
InChI=1S/C7H8N2/c1-2-7-4(1)5-6(7)9(5)3-8-7/h3-6H,1-2H2	InChI=1S/C7H8N2/c1-2-7-4(1)5-6(7)9(5)3-8-7/h3-6H,1-2H2/t4-,5-,6-,7+,9?/m0/s1
