19
gdb 53267	3.61925	0.86641	0.7703	2.0308	86.47	-0.2418	0.0274	0.2692	1550.6864	0.157288	-385.838955	-385.829512	-385.828568	-385.874652	33.79	
C	-0.0565020443	 1.4625578838	-0.090098584	-0.501041
C	-0.0577294346	 0.0077819844	-0.1049384335	 0.100765
C	-0.0547821864	-1.1972175994	-0.1066224072	 0.104897
C	-0.046569971	-2.6325931543	-0.139221287	-0.29096
O	-0.261307202	-3.3363516573	 1.1101295074	-0.280858
C	-1.261522396	-3.4303179291	 0.1233603321	 0.47563
C	-2.7000796444	-2.931821527	 0.2521380205	-0.313745
C	-3.0984758972	-4.0247225246	-0.7874649615	-0.211378
C	-1.7160321837	-4.7149053659	-0.5734546732	-0.314084
H	 0.9477630323	 1.8617161843	-0.2694013526	 0.152155
H	-0.719998227	 1.8699998801	-0.8609270975	 0.150226
H	-0.3985127736	 1.8448072337	 0.877871309	 0.155103
H	 0.7270250994	-3.085310772	-0.7597652322	 0.108884
H	-3.103749008	-3.1339604436	 1.2485161714	 0.114516
H	-2.8847728139	-1.8858969409	-0.0020277748	 0.11377
H	-3.981502067	-4.6217023211	-0.555185395	 0.104976
H	-3.205200332	-3.6167681428	-1.7949587114	 0.109613
H	-1.1602174435	-5.0391585067	-1.4565076501	 0.105292
H	-1.771658817	-5.5472152416	 0.1347461498	 0.116238
33.7152	68.7586	93.6596	117.6567	226.8064	251.2433	339.7809	364.2796	381.9336	488.9902	534.7308	576.5118	713.1442	768.3971	810.3779	845.388	874.2638	905.5359	920.7007	981.3071	1027.5954	1049.3434	1052.5698	1057.4581	1141.28	1156.5019	1189.3546	1202.528	1223.8203	1243.8234	1263.4839	1275.1786	1340.3409	1413.5601	1463.8148	1468.1352	1475.7646	1477.5295	1479.6958	1508.6839	2367.5036	3028.2701	3056.5228	3062.7772	3075.3891	3089.0744	3091.8552	3105.2828	3107.1766	3115.814	3133.9957
CC#CC1OC11CCC1	CC#C[C@H]1OC21CCC2	
InChI=1S/C8H10O/c1-2-4-7-8(9-7)5-3-6-8/h7H,3,5-6H2,1H3	InChI=1S/C8H10O/c1-2-4-7-8(9-7)5-3-6-8/h7H,3,5-6H2,1H3/t7-/m1/s1
