14
gdb 131476	3.45185	1.64342	1.17005	3.7871	69.47	-0.2553	-0.0523	0.203	971.2482	0.10354	-432.853898	-432.847241	-432.846297	-432.885037	25.652	
O	 0.1902678015	 1.4185179921	-0.1748316059	-0.405564
C	 0.0611846501	 0.0164355466	-0.0421538684	-0.065003
C	 0.6016234123	-0.5586865267	 1.2752401249	-0.165697
C	-0.3336703482	-1.2901189736	 1.8882628579	-0.015893
N	-1.5052585133	-1.2663894498	 1.0991402417	 0.059771
N	-2.7361141484	-1.7805334872	 1.2224272772	-0.165743
N	-3.4035897587	-1.3649804704	 0.1748646352	-0.188573
C	-2.5935291474	-0.587678428	-0.6136981451	-0.214736
C	-1.3570187932	-0.5165370822	-0.0227232184	 0.307792
H	-0.3203442299	 1.8292253916	 0.5326877394	 0.289962
H	 0.6221931615	-0.398343909	-0.8883062028	 0.133284
H	 1.6066809763	-0.3759822733	 1.6261058774	 0.132351
H	-0.3238814368	-1.8445085522	 2.8139692425	 0.162776
H	-2.9594710259	-0.1472441879	-1.5261812457	 0.135274
143.1977	151.5766	288.2853	348.4637	369.9196	486.8947	566.4718	653.2148	697.8654	706.1468	736.8209	788.6509	853.0274	870.1286	921.2182	972.2189	999.3849	1075.2844	1083.0481	1113.4273	1175.8156	1232.4095	1246.2701	1262.2186	1282.1347	1311.5601	1383.4737	1419.5115	1442.5431	1574.6239	1650.507	3046.1127	3245.9198	3273.9005	3279.6596	3796.8248
OC1C=CN2N=NC=C12	O[C@H]1C=Cn2nncc12	
InChI=1S/C5H5N3O/c9-5-1-2-8-4(5)3-6-7-8/h1-3,5,9H	InChI=1S/C5H5N3O/c9-5-1-2-8-4(5)3-6-7-8/h1-3,5,9H/t5-/m0/s1
