19
gdb 39445	2.44888	1.95786	1.33001	2.0786	74.35	-0.2468	0.0686	0.3154	996.3629	0.161239	-423.001633	-422.994464	-422.99352	-423.032948	29.298	
C	 0.0354719672	 1.5383567808	-0.1206961846	-0.268891
C	 1.593316753	 1.4908590003	-0.0061218603	-0.333373
C	 1.4084052702	 0.1438333727	 0.6837706594	 0.425005
O	 2.320133385	-0.8954865019	 0.9534808983	-0.306352
C	 1.6700035104	-0.2489648379	 2.0693766363	-0.072993
C	 0.5582325207	-1.0160454936	 2.7696733639	-0.237113
C	-0.8066981563	-0.4968857086	 2.292157091	-0.084231
O	-0.9784735489	-0.6353487362	 0.8892489723	-0.261649
C	 0.0095539035	-0.0129391288	 0.1035389551	 0.071392
H	-0.4170232945	 2.0769471313	 0.7149596149	 0.11164
H	-0.3898547785	 1.9024193882	-1.0562584267	 0.108892
H	 2.0731752678	 1.3874713799	-0.9835561135	 0.117347
H	 2.0902271558	 2.2858882906	 0.5530351865	 0.109572
H	 2.3446325706	 0.3505330293	 2.6785285677	 0.096298
H	 0.6508336585	-2.0804920716	 2.5318235963	 0.12709
H	 0.6310225377	-0.9057701677	 3.856480841	 0.101747
H	-1.6221449669	-1.0689634177	 2.7427270109	 0.111811
H	-0.9285038897	 0.5547076454	 2.5998817734	 0.088843
H	 0.0119205944	-0.5387916144	-0.8564225618	 0.094965
138.1738	205.5627	244.1423	323.9346	400.0671	458.0701	462.8047	495.9739	561.8554	649.1585	729.7953	791.8162	804.3047	863.7129	891.4634	921.5536	937.9822	965.2347	984.1843	1049.5941	1065.6687	1083.4331	1094.3793	1114.203	1147.1454	1175.6222	1206.1928	1225.6996	1236.3641	1259.5061	1273.9188	1292.2102	1331.3427	1355.4368	1381.9893	1417.1136	1462.7089	1474.9786	1485.0507	1501.5121	1514.8366	2971.8875	3048.9874	3061.3363	3066.2544	3077.9924	3090.9936	3098.2315	3116.9566	3124.134	3140.087
C1CC23OC2CCOC13	C1C[C@@]23O[C@@H]2CCO[C@@H]13	
InChI=1S/C7H10O2/c1-3-7-5(1)8-4-2-6(7)9-7/h5-6H,1-4H2	InChI=1S/C7H10O2/c1-3-7-5(1)8-4-2-6(7)9-7/h5-6H,1-4H2/t5-,6+,7-/m0/s1
