16
gdb 124244	2.67635	1.5581	0.99179	1.2359	76.63	-0.2059	-0.0436	0.1623	1136.1655	0.125341	-434.112774	-434.104229	-434.103285	-434.145989	31.627	
C	-0.0128739726	 1.5052574385	 0.0034304949	-0.506493
C	 0.0531098463	-0.0127009274	 0.0330202637	 0.325722
O	 1.1293308345	-0.6028327454	 0.0275935213	-0.358276
C	-1.1893751443	-0.7537833459	 0.0570377166	 0.216911
C	-1.3603894537	-2.1447568057	 0.0566442621	 0.169123
N	-0.3577273826	-3.0782387516	 0.1410708208	-0.610503
C	-2.7618722561	-2.3311943518	 0.0202164257	-0.074566
N	-3.4108230347	-1.1646398756	 0.0051213524	-0.202706
N	-2.465415163	-0.2315480812	 0.0304055082	-0.292786
H	 1.0011976223	 1.9054995652	-0.0126428035	 0.149721
H	-0.5520156789	 1.855800736	-0.8843952695	 0.13688
H	-0.5380994227	 1.8906282494	 0.8851436588	 0.137405
H	 0.5621070351	-2.6979043235	-0.042400374	 0.273146
H	-0.5430046899	-3.9804300849	-0.2676055575	 0.250455
H	-3.3160357901	-3.2577569639	 0.0068933508	 0.112464
H	-2.7345984396	 0.7370184379	 0.0320321092	 0.273503
92.9939	109.3347	170.6473	180.2515	308.1226	324.4454	383.7464	419.2234	441.0201	489.6236	570.8839	603.8572	642.6236	687.678	727.1719	742.3373	847.5757	941.5671	955.4099	1039.5336	1067.8919	1115.5272	1165.0524	1273.3527	1286.6175	1321.988	1376.8297	1410.6883	1454.8031	1474.3314	1478.6387	1546.6614	1575.8467	1648.7856	1725.0318	3030.3312	3091.0615	3153.3911	3249.0321	3541.8542	3673.3178	3679.4236
CC(=O)C1=C(N)C=NN1	CC(=O)c1c(N)cn[nH]1	
InChI=1S/C5H7N3O/c1-3(9)5-4(6)2-7-8-5/h2H,6H2,1H3,(H,7,8)	InChI=1S/C5H7N3O/c1-3(9)5-4(6)2-7-8-5/h2H,6H2,1H3,(H,7,8)
