18
gdb 63886	2.68131	1.62893	1.35331	3.8254	71.07	-0.2465	-0.013	0.2334	998.3491	0.147536	-439.071249	-439.063172	-439.062228	-439.103396	31.885	
C	-0.091777488	 1.5557804683	 0.0286352166	-0.458119
C	 0.0443747582	 0.0371053223	 0.0188632378	 0.397431
O	-1.2344823964	-0.5916511009	-0.0253597648	-0.481015
C	 1.0103931025	-0.5372004121	-1.0879382271	-0.301013
C	 1.9679250149	-1.3529874529	-0.1805680995	-0.130189
N	 1.0823957333	-1.9629001297	 0.8676623757	-0.325953
C	 0.7592942822	-0.5532476986	 1.2645707723	-0.157961
C	 2.2404462341	-0.291916473	 0.9079876642	 0.48161
O	 3.1505519011	 0.3574087597	 1.3142252943	-0.318812
H	 0.8814321635	 2.0427535717	 0.1438844816	 0.137071
H	-0.535820708	 1.9138338469	-0.9077592538	 0.111148
H	-0.7382534976	 1.8715356804	 0.8527383396	 0.131011
H	-1.6671892256	-0.332952133	-0.8466375626	 0.278243
H	 0.463616027	-1.1845643237	-1.779963729	 0.104633
H	 1.520736674	 0.2406732176	-1.6639992452	 0.113666
H	 2.7385973506	-1.9723333554	-0.6362109561	 0.093138
H	 0.2588639501	-2.411842467	 0.4650297027	 0.231576
H	 0.3155348841	-0.3685518806	 2.2410821433	 0.093536
122.7343	163.2389	240.8885	261.3304	272.8119	349.3671	378.7186	452.5695	461.8978	531.7517	594.7808	642.1529	766.4082	772.1798	814.1961	862.8253	916.0695	929.4973	946.2802	954.5245	1025.6076	1046.9439	1064.9566	1075.4338	1103.7278	1140.6418	1170.0637	1203.1478	1229.7524	1240.4443	1281.8587	1311.537	1326.1358	1363.6392	1411.1678	1480.8391	1488.6852	1494.5154	1932.9866	3028.3629	3049.7109	3095.8124	3100.8443	3117.5729	3139.2096	3146.0965	3457.4623	3799.4309
CC1(O)CC2NC1C2=O	C[C@@]1(O)C[C@@H]2N[C@H]1C2=O	
InChI=1S/C6H9NO2/c1-6(9)2-3-4(8)5(6)7-3/h3,5,7,9H,2H2,1H3	InChI=1S/C6H9NO2/c1-6(9)2-3-4(8)5(6)7-3/h3,5,7,9H,2H2,1H3/t3-,5-,6+/m0/s1
