16
gdb 56828	2.45975	1.28283	0.98537	4.4018	65.46	-0.2578	0.0174	0.2752	1185.241	0.122199	-474.990005	-474.980582	-474.979638	-475.024753	33.884	
O	-0.2557989102	 1.3249190728	 0.0640042683	-0.407569
C	 0.0541791125	-0.0504908741	-0.0609292946	-0.017724
C	 0.8358305061	-0.3013310913	-1.2921556717	 0.270259
N	 1.4753026868	-0.4599316908	-2.2415639789	-0.3289
C	 0.7840636797	-0.5981040458	 1.1518147061	-0.124641
C	-0.0135116243	-1.1515149801	 2.327114495	 0.063913
O	-1.3961362892	-1.2496625856	 2.225105015	-0.416537
C	 0.8011746662	-2.0765368264	 1.4550196296	 0.029462
O	 0.0503190004	-2.8858663461	 0.5836952668	-0.420813
H	 0.570658265	 1.8191998011	 0.1101273136	 0.291557
H	-0.9092170105	-0.5554038938	-0.1596552193	 0.144391
H	 1.7036081057	-0.0680969453	 1.3877340741	 0.102209
H	 0.3184167897	-0.9099322704	 3.3322896732	 0.111258
H	-1.5739832841	-2.006664855	 1.6483750977	 0.289697
H	 1.7259889923	-2.5188473042	 1.816076106	 0.108196
H	 0.026777694	-3.7776026052	 0.9466876291	 0.305243
42.9198	96.8877	158.955	188.8463	236.1559	253.3276	279.1714	318.3406	334.5337	478.4358	508.1439	569.9447	577.244	624.2281	678.717	775.2453	802.9094	904.7911	971.2911	1039.0187	1052.2519	1070.2287	1115.7533	1126.1816	1157.9898	1222.3004	1237.4402	1280.4169	1287.4094	1331.8408	1384.6857	1408.8364	1417.0061	1471.32	2354.2431	3103.568	3133.4002	3141.9256	3158.6805	3726.1961	3802.3507	3816.225
OC(C#N)C1C(O)C1O	O[C@@H](C#N)[C@H]1[C@@H](O)[C@H]1O	
InChI=1S/C5H7NO3/c6-1-2(7)3-4(8)5(3)9/h2-5,7-9H	InChI=1S/C5H7NO3/c6-1-2(7)3-4(8)5(3)9/h2-5,7-9H/t2-,3-,4+,5-/m0/s1
