19
gdb 35518	3.08903	1.45487	1.365	4.3706	77.8	-0.2461	0.0206	0.2667	1019.4872	0.163841	-382.086351	-382.079247	-382.078303	-382.117898	28.696	
N	-0.1434523893	-1.1634127655	-0.2377069208	-0.333073
C	-0.0575439749	-0.0166795639	-0.1216383198	 0.279143
C	 0.0139900347	 1.4334859282	 0.0409515354	-0.105862
C	-0.6452313034	 1.9644859779	 1.3768206872	-0.249098
C	 0.5108929523	 2.8105460011	 1.9476933802	-0.00806
C	 1.5966550304	 1.845399062	 2.4678694691	-0.228102
C	 2.177988579	 1.2880560727	 1.1224468469	-0.186864
N	 1.410115138	 1.9585287531	 0.0357519386	-0.097358
C	 1.1773753671	 3.2945307429	 0.6385107553	-0.183398
H	-0.4956760552	 1.8772090737	-0.8204394232	 0.130492
H	-1.5294365876	 2.5658450095	 1.1504855606	 0.109713
H	-0.9468920646	 1.154544335	 2.0439400384	 0.124765
H	 0.1963962282	 3.576027035	 2.6580141747	 0.072979
H	 2.360707529	 2.3768389021	 3.0424921167	 0.101314
H	 1.1836879602	 1.0617033497	 3.1085865794	 0.108207
H	 3.2299560697	 1.5571990381	 1.0002207472	 0.113105
H	 2.0993000492	 0.2043271211	 1.0263702417	 0.137242
H	 0.5292719202	 3.9049159879	 0.0024462002	 0.104743
H	 2.1269578368	 3.8151672394	 0.7867657724	 0.110113
93.8854	166.8702	247.9548	359.9356	406.5345	473.1618	499.1365	556.1321	603.5623	754.6888	786.6565	794.5187	828.0914	844.2263	884.9895	935.6318	936.5859	959.7963	971.7823	992.3771	1021.3115	1050.1094	1077.8026	1114.8739	1146.6428	1162.2826	1216.2278	1262.3944	1262.8749	1286.3636	1297.9594	1303.0087	1314.4619	1328.8574	1352.5491	1370.8614	1489.5625	1500.417	1501.1428	1522.4676	2359.0419	3053.3635	3055.0005	3057.7412	3067.1184	3073.8065	3098.3878	3111.0794	3112.9456	3119.566	3131.1417
N#CC1CC2CCN1C2	N#C[C@H]1C[C@H]2CCN1C2	
InChI=1S/C7H10N2/c8-4-7-3-6-1-2-9(7)5-6/h6-7H,1-3,5H2	InChI=1S/C7H10N2/c8-4-7-3-6-1-2-9(7)5-6/h6-7H,1-3,5H2/t6-,7-/m1/s1
