21
gdb 53037	3.23379	0.91263	0.81345	0.1612	95.48	-0.214	0.0475	0.2614	1540.0609	0.181448	-349.912627	-349.902797	-349.901853	-349.948917	35.811	
C	-0.0134484499	 1.4790678236	 0.0294513543	-0.507286
C	-0.0030716387	 0.02387153	 0.0038715388	 0.227102
C	 0.0026952612	-1.1827104409	-0.0141517163	-0.1879
C	 0.0302336344	-2.6058804505	-0.0564261839	 0.199968
C	 0.7530052284	-3.4339432281	-1.1401780166	-0.299944
C	-0.4343771609	-4.4454797078	-1.1579303089	-0.229338
C	-1.1422819339	-3.6305199852	-0.0712200229	-0.123831
C	-0.2917650257	-3.4659633846	 1.1540164487	-0.046193
C	 0.6250818176	-4.5172880257	 1.7421766729	-0.419506
H	 0.7048534925	 1.8919720115	-0.6880307101	 0.146085
H	-1.0008679658	 1.8789318118	-0.2291782925	 0.144271
H	 0.251285424	 1.8674852243	 1.0196889696	 0.144017
H	 0.8396237914	-2.8826763991	-2.0777384758	 0.112404
H	 1.7411896387	-3.8191285799	-0.8708235568	 0.096151
H	-0.9702435513	-4.428592048	-2.1089547973	 0.105234
H	-0.2066233591	-5.4873783971	-0.9111772996	 0.097394
H	-2.203754554	-3.4122278347	-0.0535970447	 0.090294
H	-0.80083467	-2.8740157458	 1.9118027366	 0.091663
H	 1.1335544361	-5.1097177291	 0.9776664723	 0.120619
H	 1.3952575384	-4.0535880274	 2.3678025251	 0.121152
H	 0.0577767965	-5.211590847	 2.3721260771	 0.117643
14.3234	86.4602	98.8408	170.3622	233.9549	248.067	262.8038	298.9766	374.5847	433.6063	501.7645	524.4822	569.6728	716.1593	748.7925	798.9631	846.2336	921.1863	937.5357	964.1397	991.7272	1003.2566	1046.0069	1052.6571	1054.3902	1082.0898	1119.6932	1129.4332	1151.1378	1220.5241	1225.6114	1244.0587	1274.5091	1311.9331	1342.8479	1411.6849	1415.4339	1456.4308	1477.0244	1477.3094	1480.0291	1500.591	1502.1921	1508.9376	2356.399	3020.1972	3033.4524	3048.1599	3056.2331	3077.1566	3080.8142	3090.6035	3101.4539	3113.2605	3122.7509	3136.9115	3178.6893
CC#CC12CCC1C2C	CC#C[C@]12CC[C@H]1[C@H]2C	
InChI=1S/C9H12/c1-3-5-9-6-4-8(9)7(9)2/h7-8H,4,6H2,1-2H3	InChI=1S/C9H12/c1-3-5-9-6-4-8(9)7(9)2/h7-8H,4,6H2,1-2H3/t7-,8+,9-/m1/s1
