19
gdb 88564	3.46328	1.13091	1.07634	1.3452	74.88	-0.2285	0.0687	0.2971	1186.4292	0.158388	-422.951825	-422.943335	-422.942391	-422.985615	32.343	
O	 0.1142347891	 1.3898996647	 0.5873240908	-0.427215
C	 0.0664638141	 0.0507778538	 0.1945807511	 0.148413
C	-0.4750087935	-1.0184052827	 1.1005578059	-0.349747
C	-1.2449764058	-0.6215786596	-0.1538110912	-0.198261
C	-2.5102780759	 0.1558647232	-0.0985727017	 0.272802
C	-3.19913049	 0.700685619	 1.151650768	-0.366364
C	-3.9464636831	-0.205727735	 0.2249217897	 0.043235
O	-4.4759384754	 0.521519676	-0.8815028935	-0.285936
C	-3.1299227862	 0.8632233387	-1.3094578761	-0.127428
H	-0.7653357211	 1.6485259268	 0.8819832601	 0.292535
H	 0.9341873207	-0.1845164969	-0.4127696059	 0.106412
H	 0.0022629442	-1.9922399004	 1.1195073573	 0.116467
H	-0.8645205665	-0.6949059389	 2.0599602854	 0.113783
H	-1.2072667351	-1.3333183932	-0.9756228743	 0.090155
H	-2.8839707645	 0.2470068442	 2.0858129147	 0.12421
H	-3.4932416033	 1.7456747782	 1.2195478553	 0.117704
H	-4.4239912423	-1.1373344492	 0.5056845899	 0.111217
H	-2.9794927195	 1.9449913388	-1.4057479913	 0.10809
H	-2.8929817659	 0.3709271324	-2.2597597946	 0.109927
35.0538	119.8215	181.6744	208.8461	244.868	355.7667	368.4188	433.4622	470.4663	519.4387	678.4051	757.903	792.2011	807.2971	854.3589	887.0211	928.7849	954.7644	984.3009	997.4107	1006.445	1019.5146	1051.7648	1059.5723	1072.2979	1086.9826	1108.7992	1127.0651	1148.9883	1154.9402	1205.1219	1227.2508	1273.6703	1303.3014	1330.635	1373.4327	1421.9732	1439.0816	1477.8196	1490.6103	1516.943	3022.2142	3072.9247	3107.7528	3123.7486	3131.4074	3166.8741	3182.764	3207.4968	3218.6698	3813.9561
OC1CC1C12CC1OC2	O[C@H]1C[C@H]1[C@]12C[C@H]1OC2	
InChI=1S/C7H10O2/c8-5-1-4(5)7-2-6(7)9-3-7/h4-6,8H,1-3H2	InChI=1S/C7H10O2/c8-5-1-4(5)7-2-6(7)9-3-7/h4-6,8H,1-3H2/t4-,5+,6-,7-/m1/s1
