15
gdb 25844	3.97866	1.21009	0.9394	3.3242	74.85	-0.2569	-0.0562	0.2006	1169.145	0.115713	-416.900411	-416.893	-416.892056	-416.9327	28.084	
N	-0.0045012922	 1.3489716413	 0.0822481785	-0.538972
C	 0.0319544271	 0.0019286278	-0.1639236616	 0.337438
O	 1.0582456847	-0.5800914819	-0.4590274421	-0.346456
C	-1.2869063286	-0.719254747	-0.0736806238	 0.198037
C	-2.5314862002	-0.0905156161	-0.1292830612	-0.231908
C	-3.6812331862	-0.8718734342	-0.0443425134	 0.020445
N	-3.6680444609	-2.1992119654	 0.0932251129	-0.265214
C	-2.4708569636	-2.7934873807	 0.1358430007	 0.00872
C	-1.2645558764	-2.1079926526	 0.0504914111	-0.172218
H	 0.8902867008	 1.8099900497	 0.1399490239	 0.265308
H	-0.7630718352	 1.7557846191	 0.6025015312	 0.261031
H	-2.6225150836	 0.9810655051	-0.2692005624	 0.101326
H	-4.6617243939	-0.4040044102	-0.0927114318	 0.113758
H	-2.4782681128	-3.8754270982	 0.2428042514	 0.116538
H	-0.312497969	-2.6237214669	 0.0754575266	 0.132165
63.1223	153.5672	212.8341	368.1886	381.5563	391.2179	425.1698	509.2441	567.7587	615.8078	679.79	732.3568	766.4972	785.9158	873.1613	911.2958	994.1421	1009.6802	1014.3337	1085.1623	1092.0666	1114.4036	1152.3162	1245.5763	1289.5323	1348.5692	1368.1558	1439.5106	1523.5226	1600.073	1616.8295	1634.3654	1786.7744	3155.2569	3160.8074	3189.8393	3218.0627	3593.6813	3721.8251
NC(=O)C1=CC=NC=C1	NC(=O)c1ccncc1	
InChI=1S/C6H6N2O/c7-6(9)5-1-3-8-4-2-5/h1-4H,(H2,7,9)	InChI=1S/C6H6N2O/c7-6(9)5-1-3-8-4-2-5/h1-4H,(H2,7,9)
