17
gdb 124818	4.54709	0.91757	0.78993	5.0716	70.77	-0.2636	-0.0306	0.233	1403.6841	0.134608	-455.127458	-455.118714	-455.11777	-455.161658	31.706	
C	-0.1203181305	 1.5420932916	-0.1226750169	-0.404415
C	 0.07984025	 0.0282274305	-0.1698683963	 0.125823
O	 1.0636377578	-0.3384511828	-1.1320815187	-0.419202
C	 0.4098781079	-0.5428790898	 1.2206410415	-0.340464
C	 0.5383418224	-2.0302777545	 1.2467444775	 0.409524
C	 0.8721072638	-2.9756020002	 0.3233596796	-0.196358
N	 0.8139105938	-4.1938267941	 0.9574961898	-0.112703
N	 0.4837148494	-4.0595513132	 2.1608532778	-0.018183
O	 0.2895390682	-2.6524265189	 2.4006189923	-0.220865
H	 0.7819237822	 2.0437892565	 0.2493793483	 0.112398
H	-0.3346553134	 1.9214782721	-1.1247686865	 0.134038
H	-0.9494376284	 1.8140268635	 0.5378288464	 0.125748
H	-0.8394801809	-0.4476762156	-0.5296210054	 0.107391
H	 1.8819424781	 0.1219592812	-0.9127963864	 0.282222
H	 1.3453821888	-0.0906638114	 1.5818294126	 0.124652
H	-0.3643533981	-0.2483871857	 1.9371930531	 0.136335
H	 1.141229599	-2.865811059	-0.7108658087	 0.154058
48.5065	85.0046	141.0723	242.7586	273.0759	293.399	310.5669	327.9341	457.7024	475.4976	634.7446	667.9156	704.475	746.7311	849.0017	858.0309	905.4772	945.5653	990.8554	1051.4683	1062.6589	1081.0317	1118.7201	1154.9975	1195.1646	1221.6739	1301.4453	1326.5822	1365.8062	1398.4336	1407.3093	1424.3692	1456.2776	1465.069	1492.5372	1495.6463	1601.1185	3006.8344	3027.605	3053.9845	3076.8315	3100.4542	3126.5799	3320.7337	3794.3622
CC(O)CC1=CN=NO1	C[C@@H](O)Cc1cnno1	
InChI=1S/C5H8N2O2/c1-4(8)2-5-3-6-7-9-5/h3-4,8H,2H2,1H3	InChI=1S/C5H8N2O2/c1-4(8)2-5-3-6-7-9-5/h3-4,8H,2H2,1H3/t4-/m1/s1
