14
gdb 21689	3.45247	1.76756	1.17967	4.403	59.54	-0.2321	0.0093	0.2414	946.6396	0.107732	-415.841598	-415.833922	-415.832978	-415.874115	27.477	
N	 0.0324553574	 1.3901944475	 0.1519212137	-0.59035
C	 0.0389947429	 0.0064009784	 0.0346633759	 0.317476
N	-1.0804214612	-0.6833802965	 0.0115475961	-0.226459
O	-0.6856924784	-2.0251776251	-0.0166066515	-0.178829
C	 0.6529031484	-2.0814583561	-0.0260868828	 0.016584
C	 1.1936402433	-0.8388464742	 0.0063297268	 0.113286
C	 2.6324453687	-0.4457907492	 0.0421009336	-0.205891
O	 3.4138266669	-1.6257888495	-0.0292485592	-0.416843
H	 0.7139209648	 1.853537866	-0.4342434264	 0.251601
H	-0.8910762024	 1.7789803571	 0.0072768022	 0.2608
H	 1.0953304764	-3.0640003473	-0.0507792389	 0.160297
H	 2.8616971782	 0.2331687241	-0.7990820999	 0.092425
H	 2.8393448536	 0.1209223805	 0.9654435586	 0.111775
H	 4.3392733714	-1.3800058958	 0.0555925618	 0.294128
49.3429	161.3752	208.2593	251.2639	280.0463	323.0792	347.1803	518.2899	591.5205	639.7278	675.5182	760.1494	788.4284	852.3837	920.295	945.7856	1051.4066	1079.4588	1134.3885	1170.4479	1215.4922	1231.5721	1245.4287	1308.9213	1463.2996	1482.1943	1518.3097	1546.1168	1643.0755	1685.8404	2934.418	2966.294	3281.0122	3541.4056	3637.3682	3839.6837
NC1=NOC=C1CO	Nc1nocc1CO	
InChI=1S/C4H6N2O2/c5-4-3(1-7)2-8-6-4/h2,7H,1H2,(H2,5,6)	InChI=1S/C4H6N2O2/c5-4-3(1-7)2-8-6-4/h2,7H,1H2,(H2,5,6)
