16
gdb 131543	3.03984	1.6123	1.0983	3.2831	71.51	-0.1924	0.0152	0.2076	1045.9927	0.128211	-434.061184	-434.053823	-434.052878	-434.09312	28.312	
O	 0.0619330988	 1.4264244721	-0.1560963902	-0.426531
C	 0.0038717509	 0.0125901689	-0.0151815946	-0.051539
C	 0.5700021801	-0.4993021934	 1.3626517272	-0.193769
N	-0.3337456828	-1.5852109964	 1.839328447	-0.419172
C	-1.5420007641	-1.3651414619	 1.1440904233	 0.213928
C	-1.3927652786	-0.4888281824	 0.1015485414	 0.368825
N	-2.5711424887	-0.468987888	-0.5680962184	-0.33437
N	-3.4953565422	-1.25238136	 0.023123944	-0.221856
C	-2.8717519534	-1.8230784841	 1.0636908999	-0.138871
H	 0.9616708342	 1.6640382127	-0.4025671389	 0.285411
H	 0.5374491356	-0.4606725487	-0.854775645	 0.086196
H	 1.5974959219	-0.8656172322	 1.2830679503	 0.104619
H	 0.555232032	 0.3674658106	 2.0367187411	 0.113381
H	-0.4270492063	-1.5932572945	 2.8481701351	 0.232755
H	-2.8455645322	 0.1024101674	-1.3482902322	 0.274509
H	-3.4126161851	-2.51302868	 1.6931769101	 0.106485
89.6245	161.374	263.6808	273.6944	315.7583	454.7811	476.3922	508.1899	571.3011	655.4525	680.1412	704.1264	757.8019	818.3569	853.3083	959.4108	982.0642	987.4245	1041.2253	1089.7618	1114.7958	1149.9549	1212.593	1230.8017	1246.4346	1280.9692	1320.2918	1340.8167	1368.4792	1408.4028	1435.9694	1466.8191	1509.536	1567.5932	1626.1269	2965.8053	3017.8675	3084.5185	3251.3134	3538.6813	3681.4113	3815.2187
OC1CNC2=C1NN=C2	O[C@H]1CNc2c1[nH]nc2	
InChI=1S/C5H7N3O/c9-4-2-6-3-1-7-8-5(3)4/h1,4,6,9H,2H2,(H,7,8)	InChI=1S/C5H7N3O/c9-4-2-6-3-1-7-8-5(3)4/h1,4,6,9H,2H2,(H,7,8)/t4-/m0/s1
