17
gdb 35921	3.13488	1.39391	1.07267	5.4809	72.4	-0.2506	0.0218	0.2724	1105.2292	0.138307	-417.995767	-417.988182	-417.987238	-418.027999	29.03	
N	-0.0834530054	-1.1136148179	-0.244426041	-0.314309
C	-0.0449331504	 0.0342425267	-0.1235856627	 0.276788
C	-0.0158196618	 1.5009521596	-0.0114258077	-0.141774
N	-0.7441147447	 1.9258954775	 1.1783827946	-0.296322
C	-0.713665745	 3.3772437674	 1.3438399013	-0.171886
C	 0.6999310556	 3.8266998223	 1.7324459219	-0.209063
C	 1.7585560063	 3.1723912503	 0.8608970357	 0.031028
O	 2.1448279324	 1.8382282091	 1.222261469	-0.228668
C	 1.4242218514	 2.0124106175	 0.0179094493	 0.061187
H	-0.4532035611	 1.8995747751	-0.9496375461	 0.106516
H	-1.6955808183	 1.5811060941	 1.1367694422	 0.238074
H	-1.0249616535	 3.9087998029	 0.4242360574	 0.084916
H	-1.4252808342	 3.6460928898	 2.1290954406	 0.113203
H	 0.7760606315	 4.9153473154	 1.6454858584	 0.104559
H	 0.9055546886	 3.5626162339	 2.7747214054	 0.133142
H	 2.5972845634	 3.797715058	 0.5565158717	 0.102489
H	 1.9822638253	 1.8165242483	-0.8974731502	 0.110122
89.7609	141.8202	208.7448	290.9428	349.6187	377.2927	446.51	451.6515	557.1227	625.9097	652.1525	789.8457	799.1115	830.3868	892.6468	912.3699	947.8885	992.0103	1039.0874	1062.7297	1079.1534	1118.5172	1150.834	1182.5976	1240.7104	1265.9358	1288.3588	1318.6325	1335.8213	1363.6485	1375.0764	1410.5072	1462.7075	1470.0435	1494.2645	1502.9236	2365.9483	2893.0784	2918.0189	3050.0188	3086.4439	3096.1823	3110.3325	3121.9186	3550.5296
N#CC1NCCC2OC12	N#C[C@H]1NCC[C@H]2O[C@@H]12	
InChI=1S/C6H8N2O/c7-3-4-6-5(9-6)1-2-8-4/h4-6,8H,1-2H2	InChI=1S/C6H8N2O/c7-3-4-6-5(9-6)1-2-8-4/h4-6,8H,1-2H2/t4-,5-,6+/m1/s1
