18
gdb 53814	3.21775	1.18414	0.92233	2.7382	75.44	-0.2359	-0.0229	0.213	1265.4149	0.149167	-435.286919	-435.277973	-435.277029	-435.321288	32.529	
N	 0.0640589412	 1.2563528794	 0.2281475997	-0.50411
C	 0.0829145	-0.0874392551	-0.0145559248	 0.250408
N	 1.1534408395	-0.7114259401	-0.3374686647	-0.525516
C	-1.3139463437	-0.6830539294	 0.1558701102	 0.344964
O	-2.309890889	 0.0116679369	-0.0008413808	-0.392061
N	-1.3987581561	-1.997478185	 0.467721863	-0.096923
C	-0.5016800547	-2.9454928959	 1.159294223	-0.179326
C	-1.7585559157	-3.7113868504	 1.6581098845	-0.246498
C	-2.6306910747	-2.6715631171	 0.8992282596	-0.1613
H	 0.8611239808	 1.7805088902	-0.0963951596	 0.257912
H	-0.8453312653	 1.6877506772	 0.1540962337	 0.270456
H	 0.9673959844	-1.7006260935	-0.476079088	 0.217312
H	 0.1420238454	-3.5159332481	 0.481852553	 0.123406
H	 0.1215906929	-2.482632875	 1.929348307	 0.138032
H	-1.8413326166	-4.735812107	 1.2948784315	 0.121079
H	-1.8889667748	-3.7049599562	 2.7404571588	 0.123921
H	-3.267567075	-2.0291455607	 1.5140481278	 0.133214
H	-3.2258356486	-3.0632650503	 0.0688236361	 0.12503
57.1413	92.893	117.1883	172.2993	176.5885	300.8754	369.5517	408.8457	480.5362	536.446	563.9983	618.2284	672.4751	765.1208	805.034	841.6015	848.3048	864.9235	942.6784	953.6878	1033.31	1127.5983	1136.7867	1141.0048	1150.5299	1181.1232	1205.8085	1230.5091	1270.0068	1298.9855	1338.0725	1389.9378	1468.8628	1493.0872	1507.4087	1528.9875	1596.7231	1709.6586	1739.5962	3040.5947	3052.9344	3092.2113	3095.0393	3097.2605	3149.7865	3534.4992	3575.6607	3702.2658
NC(=N)C(=O)N1CCC1	NC(=N)C(=O)N1CCC1	
InChI=1S/C5H9N3O/c6-4(7)5(9)8-2-1-3-8/h1-3H2,(H3,6,7)	InChI=1S/C5H9N3O/c6-4(7)5(9)8-2-1-3-8/h1-3H2,(H3,6,7)
