21
gdb 86393	2.51173	1.55461	1.15977	2.0948	78.66	-0.249	0.0877	0.3368	1158.294	0.180816	-424.232959	-424.223703	-424.222758	-424.26644	35.252	
C	 0.2600274401	 1.5706479294	-0.0757680894	-0.40217
C	 0.0503974515	 0.0680303698	 0.0392858652	 0.116559
O	 0.625868992	-0.5617642342	-1.1068439148	-0.291509
C	 1.1556708991	-1.8445602458	-0.7723201577	 0.083843
C	 2.3837181611	-2.0983735637	-1.6340554974	-0.406782
C	 1.4159084474	-1.792890818	 0.7309230173	 0.395163
C	 1.6852676254	-3.0444179627	 1.5170254453	-0.496552
O	 2.1628581703	-0.615415329	 1.0918001012	-0.295736
C	 0.7337879057	-0.5944559341	 1.2197617396	-0.066489
H	 1.3284317603	 1.7976104011	-0.0436729266	 0.137405
H	-0.1493835587	 1.9373851613	-1.0207021789	 0.126074
H	-0.2419847605	 2.0940866682	 0.7442046147	 0.110293
H	-1.0286310635	-0.1604926852	 0.0991894861	 0.066102
H	 0.3974392119	-2.6264005945	-0.956253124	 0.063867
H	 3.1637589289	-1.3738169355	-1.3873244232	 0.137123
H	 2.7698293927	-3.1100753479	-1.4735236489	 0.110563
H	 2.1286882073	-1.9935735211	-2.6917252447	 0.126344
H	 2.6117505629	-3.5231997423	 1.182006919	 0.133127
H	 1.7897646083	-2.8133560147	 2.5796901823	 0.133742
H	 0.8706229937	-3.7654904716	 1.3924026665	 0.125291
H	 0.3396041038	-0.4889578494	 2.2277685784	 0.093744
104.0715	139.239	188.7571	225.2156	231.2842	238.023	242.9901	316.5049	401.0805	417.039	506.7103	569.134	594.3117	672.9447	750.6209	826.5224	858.3065	892.3908	904.1074	967.3523	1004.5673	1026.3765	1040.2763	1072.0429	1096.4545	1129.4195	1135.7187	1144.5667	1161.2923	1250.1431	1289.0291	1327.9339	1357.8932	1366.323	1387.1597	1400.7625	1407.1588	1411.3514	1465.3679	1483.4748	1486.0791	1491.4743	1497.5539	1499.3151	1502.6692	2942.084	2948.0295	3037.5984	3044.5917	3045.0285	3099.3365	3116.5452	3116.9408	3126.0933	3132.9972	3133.4629	3145.186
CC1OC(C)C2(C)OC12	C[C@H]1O[C@@H](C)[C@@]2(C)O[C@@H]12	
InChI=1S/C7H12O2/c1-4-6-7(3,9-6)5(2)8-4/h4-6H,1-3H3	InChI=1S/C7H12O2/c1-4-6-7(3,9-6)5(2)8-4/h4-6H,1-3H3/t4-,5+,6+,7-/m1/s1
