17
gdb 46288	3.12582	1.33863	1.2422	1.0683	73.8	-0.2512	-0.0308	0.2203	1066.6553	0.135493	-421.835531	-421.827769	-421.826825	-421.868321	29.313	
O	-0.4437135226	 0.0810503992	-0.211683357	-0.283264
C	-0.2186638915	 1.2386771973	-0.0295283273	 0.283452
C	-1.0102279789	 2.4728770915	 0.4108973744	-0.19674
O	 0.1882841091	 3.2628946133	 0.285706893	-0.319864
C	 1.0174534147	 2.1398005583	-0.1411087451	 0.311674
C	 2.2033412677	 1.8602122162	 0.8150767182	-0.320145
C	 3.4207770244	 2.2071693732	-0.0039409604	-0.063035
C	 3.1176028011	 2.4658325147	-1.2735393139	-0.063036
C	 1.6397553434	 2.3410533834	-1.5450453582	-0.320141
H	-1.8093638619	 2.7874988526	-0.2724897508	 0.131915
H	-1.4015189611	 2.4394664187	 1.4357865105	 0.131914
H	 2.0925434207	 2.4687727706	 1.7191391266	 0.127093
H	 2.2142340562	 0.8084299762	 1.1312961605	 0.127182
H	 4.418446373	 2.2175967097	 0.4198665601	 0.09936
H	 3.8283682916	 2.7210413349	-2.0511942846	 0.09936
H	 1.418879615	 1.4870107423	-2.1994029881	 0.127183
H	 1.201320179	 3.229148428	-2.0130325079	 0.127093
66.833	104.9285	154.4554	266.6379	360.7186	393.5122	403.3048	536.4504	576.7519	661.2044	728.2336	772.8739	791.5938	852.073	892.5341	947.6167	973.3257	979.5579	982.6362	1009.6239	1020.5564	1075.0336	1117.7429	1122.4107	1140.2923	1169.7186	1172.0583	1239.1261	1288.3616	1299.0691	1332.7415	1359.9077	1460.5725	1465.0215	1484.5576	1692.462	1918.2023	3015.6823	3020.0171	3021.772	3061.8095	3070.8512	3071.2354	3187.8731	3212.6174
O=C1COC11CC=CC1	O=C1CO[C@]21CC=CC2	
InChI=1S/C7H8O2/c8-6-5-9-7(6)3-1-2-4-7/h1-2H,3-5H2	InChI=1S/C7H8O2/c8-6-5-9-7(6)3-1-2-4-7/h1-2H,3-5H2
