22
gdb 95155	2.53643	1.39132	1.03961	2.4129	81.42	-0.2321	0.0696	0.3017	1224.4683	0.195827	-404.345732	-404.336975	-404.336031	-404.378572	34.963	
C	 0.0262299979	 1.5281532984	-0.0361217814	-0.453738
C	-0.0087234701	 0.0156928164	 0.028656941	 0.322738
C	-1.2440604745	-0.6315379406	-0.6027988705	-0.285173
C	-1.8454449492	-1.7818102259	 0.2082927367	 0.14328
O	-2.7784604261	-2.4298409052	-0.6471713952	-0.439826
C	-0.7650575056	-2.7347996266	 0.7237165637	-0.250241
C	 0.1776288819	-2.0058904667	 1.6914949658	-0.243144
C	 0.6968909942	-0.6924535896	 1.1383024352	-0.02845
N	 1.3095927416	-0.6213910667	-0.200046441	-0.372505
H	 0.9686839543	 1.9091392459	 0.3648367748	 0.123965
H	-0.0626754368	 1.8733568395	-1.0727867719	 0.11784
H	-0.8009606341	 1.9652846711	 0.5349343272	 0.109851
H	-2.0181985504	 0.1257769313	-0.7603272943	 0.107076
H	-0.9941115834	-1.0182549514	-1.5997033509	 0.111663
H	-2.3663700136	-1.3558444033	 1.0837155021	 0.062315
H	-3.1929565666	-3.1425024823	-0.1502442918	 0.278351
H	-1.2308816532	-3.5853181835	 1.2369316599	 0.086522
H	-0.2208381129	-3.1547862931	-0.1317632325	 0.103045
H	-0.3598590112	-1.7940589258	 2.6255875831	 0.103449
H	 1.0205809612	-2.6528124832	 1.9648966527	 0.104819
H	 1.2200524981	-0.0808141728	 1.8728208098	 0.080515
H	 1.1841863885	-1.507696916	-0.6847665024	 0.217648
102.0281	179.2465	222.1092	258.5885	286.5089	297.3457	359.2099	369.3693	406.1136	429.3721	483.6665	521.6172	614.053	726.5468	790.3135	826.2106	870.0734	901.1647	918.2767	946.4944	1016.5734	1019.8772	1050.011	1065.664	1082.1371	1108.5277	1122.8281	1129.784	1170.7778	1208.7678	1228.6455	1247.3089	1277.7593	1308.3582	1336.4555	1346.9785	1349.934	1376.6045	1403.7965	1414.8712	1435.8638	1449.7285	1485.1756	1489.4768	1490.9025	1497.1741	1503.2293	2943.0624	3014.7939	3021.212	3024.4784	3027.5416	3047.1585	3061.2579	3078.4135	3086.3878	3105.8033	3120.2123	3487.76	3814.4801
CC12CC(O)CCC1N2	C[C@]12C[C@@H](O)CC[C@H]1N2	
InChI=1S/C7H13NO/c1-7-4-5(9)2-3-6(7)8-7/h5-6,8-9H,2-4H2,1H3	InChI=1S/C7H13NO/c1-7-4-5(9)2-3-6(7)8-7/h5-6,8-9H,2-4H2,1H3/t5-,6+,7-/m0/s1
