18
gdb 63330	2.53299	1.46415	1.16753	2.6416	73.01	-0.2748	-0.0132	0.2616	1109.9443	0.146979	-439.155821	-439.147118	-439.146174	-439.189288	32.767	
C	 0.0655228745	 1.5031392639	-0.0054313718	-0.424123
C	-0.0539854726	-0.0360153681	-0.0188885129	 0.18146
C	-1.5262022491	-0.4610637363	 0.0028401549	-0.428876
C	 0.7530226781	-0.64088859	-1.1848061278	-0.401831
C	 2.0744903756	-1.0631177863	-0.5711706181	 0.416695
O	 3.0922861779	-1.3887912242	-1.0960654604	-0.307799
O	 1.9436651942	-1.0500180598	 0.8080230504	-0.219179
C	 0.6971115729	-0.5795008318	 1.1915824989	 0.394921
N	 0.2845600234	-0.5812208905	 2.3780977278	-0.518696
H	 1.1117806161	 1.8260540344	-0.0207979999	 0.125894
H	-0.4328191387	 1.9254488454	-0.883890545	 0.122249
H	-0.402674644	 1.9112379457	 0.893511075	 0.144631
H	-2.0528283268	-0.0548596843	-0.866644687	 0.117281
H	-1.6250237552	-1.5506978037	-0.0137950122	 0.120211
H	-2.0120988368	-0.0948067502	 0.9098103027	 0.148389
H	 0.2759942555	-1.5394186874	-1.5920976099	 0.147288
H	 0.9279540109	 0.0411897553	-2.0188554026	 0.145095
H	 0.9784165539	-0.9745668421	 3.0152221379	 0.236391
52.33	135.2551	220.5799	229.349	264.6134	298.1469	325.4715	355.7027	403.2159	541.5397	577.0408	595.1579	638.8581	707.3667	745.2232	865.4285	897.2615	914.5598	932.784	964.0872	982.5736	1036.4501	1045.9768	1122.4868	1136.2112	1218.0744	1244.8849	1257.4149	1288.1872	1347.0784	1399.5029	1422.1001	1461.2392	1481.653	1489.0634	1500.734	1509.3227	1785.4424	1916.7318	3034.5835	3040.4206	3056.4816	3103.0573	3108.1509	3119.3628	3126.6946	3132.6987	3485.664
CC1(C)CC(=O)OC1=N	CC1(C)CC(=O)O[C]1[NH]	
InChI=1S/C6H9NO2/c1-6(2)3-4(8)9-5(6)7/h7H,3H2,1-2H3	InChI=1S/C6H9NO2/c1-6(2)3-4(8)9-5(6)7/h7H,3H2,1-2H3
