20
gdb 39476	2.39448	1.73331	1.22763	1.0451	81.1	-0.2154	-0.0054	0.21	1067.7071	0.173108	-403.093429	-403.085551	-403.084607	-403.12564	31.196	
C	 0.1771492263	 1.5275392378	-0.4650715864	-0.248081
C	 1.2381853344	 0.5059679793	-0.1522079917	-0.039848
C	 2.2309181258	 0.6434995478	 0.9506995685	-0.025241
C	 2.101138037	 0.9347770416	 2.2483711753	-0.120342
C	 0.815737405	 1.2105386996	 2.9803965652	-0.127783
O	 0.1015669048	 0.0361736955	 3.3468948551	-0.248106
C	-0.2763467806	-0.811879665	 2.2748370964	-0.065722
C	-0.9925992429	-0.1060757994	 1.1124903775	-0.180258
N	-0.1927437067	 0.1873108863	-0.0845081146	-0.088022
H	 0.0500908652	 2.3321568744	 0.2599030007	 0.1126
H	-0.0196803393	 1.8189800824	-1.4956111917	 0.113316
H	 1.6927456821	 0.0223232578	-1.0157955407	 0.09455
H	 3.241157663	 0.4381645279	 0.5993825289	 0.092262
H	 3.0040096259	 0.9284671451	 2.8533210722	 0.094076
H	 1.0225974508	 1.7182106157	 3.9262436338	 0.110643
H	 0.1685362885	 1.8809671247	 2.3961913303	 0.088016
H	 0.5835746395	-1.37527805	 1.8861997235	 0.104932
H	-0.9611852851	-1.5317453616	 2.7328647663	 0.109594
H	-1.7995708962	-0.7662962115	 0.772614026	 0.112217
H	-1.4835099076	 0.7978206215	 1.4960339554	 0.111197
87.6167	201.8957	226.0655	283.9601	294.5573	322.2669	361.4936	479.1383	532.4186	598.2982	654.6738	727.8116	772.3896	789.2644	827.9963	918.6634	936.122	985.4831	988.6339	1006.4928	1037.7974	1042.9854	1093.4425	1101.8547	1111.5214	1131.2135	1140.6313	1173.5546	1247.5594	1270.3993	1306.6262	1325.051	1365.8252	1384.9033	1396.0077	1412.9085	1417.7155	1439.0924	1493.707	1496.0151	1503.1578	1525.9432	1717.4663	2991.6039	3010.8291	3016.4268	3045.2072	3072.2251	3082.4748	3087.4901	3100.9071	3132.2441	3151.9456	3163.5721
C1C2C=CCOCCN12	C1[C@H]2C=CCOCCN12	
InChI=1S/C7H11NO/c1-2-7-6-8(7)3-5-9-4-1/h1-2,7H,3-6H2/b2-1-	InChI=1S/C7H11NO/c1-2-7-6-8(7)3-5-9-4-1/h1-2,7H,3-6H2/b2-1-/t7-,8?/m1/s1
