23
gdb 112631	3.04555	1.00791	0.7888	1.0396	90.27	-0.2184	0.0352	0.2535	1530.589	0.204156	-388.310938	-388.300616	-388.299671	-388.346384	37.7	
C	 0.2033886895	 1.6161965199	-0.4422324053	-0.234726
O	-0.2910065559	 0.3038252737	-0.3225901514	-0.242508
C	 0.5391494206	-0.6738746119	-0.9170299563	 0.143848
C	 1.8624481549	-0.9620603936	-0.1610443474	-0.326755
C	 2.0228865743	-2.4637424711	-0.2783176542	 0.226813
C	 3.3147612649	-3.1104235223	 0.1149401215	-0.49683
C	 0.8945471233	-3.0454719456	-0.7105221753	 0.223536
C	 0.6157775972	-4.5013783646	-0.9191693157	-0.496993
C	-0.1969734218	-2.0252134209	-0.9498353333	-0.330162
H	 1.157309937	 1.7551235498	 0.0887095878	 0.104966
H	 0.3549964791	 1.8993163772	-1.4966054841	 0.100446
H	-0.5402493676	 2.285723843	-0.0023411979	 0.123554
H	 0.7806389474	-0.3627930087	-1.9467703961	 0.063037
H	 2.7199487502	-0.4133716862	-0.5698053628	 0.092375
H	 1.7650163115	-0.6563372791	 0.8915795725	 0.106728
H	 3.5563615559	-2.8983806874	 1.1650284421	 0.123503
H	 3.2997292703	-4.195695468	-0.0104952011	 0.120889
H	 4.1496812332	-2.714997071	-0.4783916663	 0.121235
H	 1.4804626427	-5.1330980358	-0.703077571	 0.120386
H	-0.2122687693	-4.8371838243	-0.2808688576	 0.124675
H	 0.3053403465	-4.6978406835	-1.953726193	 0.122275
H	-0.9499985591	-2.0486768141	-0.1492971577	 0.113724
H	-0.7371393347	-2.1855023256	-1.8904470373	 0.095983
53.6671	102.7501	148.3609	162.6827	176.893	201.8275	249.5201	287.915	290.1003	336.8814	429.9491	473.9188	511.6728	579.1083	592.7165	739.8693	866.2542	906.6421	932.6976	960.0309	990.447	1007.6157	1053.6622	1059.7562	1093.9625	1131.5185	1152.4024	1170.8324	1183.2229	1198.4796	1202.5878	1234.7884	1249.3506	1306.6587	1331.1313	1358.6705	1393.1276	1409.4071	1420.1148	1477.7445	1480.0875	1480.7997	1481.5479	1486.2657	1488.8398	1492.6263	1495.0825	1510.8973	1743.0604	2958.3313	2970.7492	2997.3778	3009.9181	3012.8225	3016.1075	3016.9558	3042.1715	3051.0626	3053.9029	3055.3036	3108.8083	3112.8371	3119.6893
COC1CC(C)=C(C)C1	CO[C@H]1CC(=C(C)C1)C	
InChI=1S/C8H14O/c1-6-4-8(9-3)5-7(6)2/h8H,4-5H2,1-3H3	InChI=1S/C8H14O/c1-6-4-8(9-3)5-7(6)2/h8H,4-5H2,1-3H3
