17
gdb 115247	4.27223	0.97793	0.83149	6.9453	65.4	-0.2771	0.0416	0.3187	1324.4823	0.136348	-496.134262	-496.125629	-496.124685	-496.168362	30.645	
O	-0.1989538869	 1.4818445784	 0.0939533494	-0.41895
C	-0.0220184226	 0.0768863806	 0.1526087144	-0.099267
C	-1.3929403002	-0.5648818295	-0.033127926	-0.043526
C	-2.010685106	-0.2049688075	-1.3746359292	-0.061447
O	-3.2635814601	-0.8771852943	-1.5694349699	-0.257474
C	-3.5141166854	-2.1058490601	-1.0712515	 0.468613
O	-4.538408497	-2.6684420968	-1.3153221838	-0.359847
O	-2.5943421052	-2.6788722077	-0.2601392486	-0.259127
C	-1.3220826382	-2.0814572946	 0.0180661355	-0.077165
H	 0.6591929786	 1.9041309437	 0.1938107966	 0.295918
H	 0.662973153	-0.2742509727	-0.6370495955	 0.09484
H	 0.4020509891	-0.237099284	 1.1193098659	 0.100639
H	-2.0537924115	-0.2081184638	 0.7660169631	 0.113599
H	-2.2287867489	 0.8601114878	-1.4507234796	 0.147449
H	-1.3327270814	-0.4791789483	-2.194972148	 0.11144
H	-0.591755868	-2.4593744747	-0.710757058	 0.115397
H	-1.0370877993	-2.4517039867	 1.0064937937	 0.128908
77.2448	86.2612	112.9658	178.3902	222.8361	270.3457	361.7082	421.6437	442.4825	514.0263	587.5983	723.6577	764.5164	804.4973	898.3234	918.1138	977.3872	1041.2083	1074.6171	1094.1973	1133.9837	1157.5174	1172.7937	1183.32	1238.6491	1246.5536	1262.5766	1306.8992	1328.5961	1383.3146	1424.7018	1434.3557	1464.2961	1512.2622	1519.679	1527.5489	1880.5878	2962.5446	2994.8157	3011.7022	3015.9107	3052.1217	3092.972	3135.1899	3834.7694
OCC1COC(=O)OC1	OCC1COC(=O)OC1	
InChI=1S/C5H8O4/c6-1-4-2-8-5(7)9-3-4/h4,6H,1-3H2	InChI=1S/C5H8O4/c6-1-4-2-8-5(7)9-3-4/h4,6H,1-3H2
