16
gdb 56354	4.72257	0.8683	0.7897	5.3612	73.94	-0.2539	-0.0395	0.2144	1400.454	0.1242	-434.051513	-434.042752	-434.041808	-434.085357	31.738	
N	 0.3497326857	 1.1888083253	 0.7156295831	-0.558053
C	 0.2373393362	-0.0733227184	 0.1837461281	 0.266854
N	 1.1482961706	-0.8272980352	-0.3040306081	-0.282121
C	 2.5108568279	-0.3116298701	-0.3480319625	-0.217502
C	 3.2193919359	-0.3361234052	 0.9895140856	 0.087253
C	 4.2778731519	 0.6296133779	 1.3065086689	-0.178639
O	 2.9688941077	 0.7753604018	 1.8725519986	-0.236239
C	-1.1273058425	-0.5752582309	 0.1330584722	 0.276291
N	-2.222692859	-0.9429552256	 0.1120199583	-0.319751
H	 1.241875916	 1.4325330735	 1.1320609561	 0.285639
H	-0.4648336628	 1.5750103202	 1.1651164946	 0.27029
H	 3.0778895424	-0.9425785654	-1.0418120443	 0.122546
H	 2.541310128	 0.7188774832	-0.7365099417	 0.109339
H	 3.224791256	-1.2990582569	 1.4984488184	 0.118395
H	 5.0569057265	 0.3674818582	 2.0191578292	 0.129853
H	 4.5531820794	 1.3830677475	 0.5706954532	 0.125845
75.547	98.68	139.5811	182.386	252.3073	279.3452	365.949	393.9889	454.6584	483.3965	576.9253	609.3069	633.3643	726.6068	782.6778	843.8601	857.9707	937.1323	991.5013	1022.6146	1095.8404	1129.5367	1158.087	1165.1264	1181.6593	1275.1423	1288.7884	1342.1898	1368.5639	1432.393	1484.4223	1526.1974	1656.623	1710.5644	2359.4014	2981.9653	3060.3494	3095.6194	3130.6737	3185.9696	3507.0893	3673.3094
NC(=NCC1CO1)C#N	NC(=NC[C@H]1CO1)C#N	
InChI=1S/C5H7N3O/c6-1-5(7)8-2-4-3-9-4/h4H,2-3H2,(H2,7,8)	InChI=1S/C5H7N3O/c6-1-5(7)8-2-4-3-9-4/h4H,2-3H2,(H2,7,8)/t4-/m0/s1
