18
gdb 47707	2.03668	1.76169	1.06324	4.919	73.17	-0.2354	-0.0395	0.196	1126.9371	0.148696	-439.118492	-439.110268	-439.109324	-439.151998	30.981	
O	 0.4110818885	 0.1834816787	 0.543564751	-0.284935
C	-0.0276083003	 1.2683572161	 0.2491462604	 0.364299
C	-1.4938704603	 1.4815417506	-0.0972450532	-0.266848
C	-1.7440092584	 2.1659792661	-1.454234355	-0.182898
N	-1.1182612665	 3.4875536327	-1.5362073646	-0.297842
C	 0.2212924712	 3.4921595371	-2.1015064038	-0.270008
C	 1.2912261735	 2.87759014	-1.1944758457	 0.374593
O	 2.4124615174	 2.7085109959	-1.6051268071	-0.288453
C	 0.8847815197	 2.5049323763	 0.2305435969	-0.372375
H	-1.9856966531	 0.5058753142	-0.0660584548	 0.121033
H	-1.9290739972	 2.1160207142	 0.6859233247	 0.123879
H	-1.4096840078	 1.5026606557	-2.2703723725	 0.10457
H	-2.8252373858	 2.2861481983	-1.5703968552	 0.112752
H	-1.7070168422	 4.1172405169	-2.064785126	 0.231596
H	 0.3031732199	 2.9749174943	-3.0741188347	 0.120049
H	 0.5294067319	 4.5303246536	-2.2738571766	 0.13683
H	 0.3450364123	 3.3517759282	 0.6664878614	 0.134728
H	 1.7898352872	 2.2734135811	 0.7910614846	 0.139029
46.9944	97.9933	156.1415	280.6286	321.3129	358.5921	461.825	470.5156	489.2637	520.2768	547.4317	632.801	729.6332	777.8765	806.4308	871.5555	880.2489	936.3685	997.8843	1031.4254	1058.6945	1102.331	1168.4555	1194.4257	1225.921	1235.1247	1251.6583	1262.0771	1297.4413	1344.6728	1356.5098	1410.8474	1442.566	1455.6482	1461.0999	1486.2363	1500.3024	1803.7862	1827.517	2951.8998	2958.8177	3030.2574	3060.7442	3061.7674	3077.6947	3108.5153	3154.9573	3564.6329
O=C1CCNCC(=O)C1	O=C1CCNCC(=O)C1	
InChI=1S/C6H9NO2/c8-5-1-2-7-4-6(9)3-5/h7H,1-4H2	InChI=1S/C6H9NO2/c8-5-1-2-7-4-6(9)3-5/h7H,1-4H2
