22
gdb 105529	1.87901	1.79786	1.1781	2.6106	80.92	-0.2389	0.0675	0.3064	1168.0585	0.19448	-404.308967	-404.299676	-404.298732	-404.343134	34.909	
C	 0.8444539844	-0.6988906626	-1.1888255492	-0.39757
C	 0.0905610523	-0.0892857615	-0.0025919948	-0.226656
C	-1.4113029371	-0.3836150686	 0.0010264889	 0.407227
C	-2.2510046364	 0.5408979949	 0.9254913706	-0.33508
C	-2.836105465	 1.0951692762	-0.385753322	-0.068198
O	-2.0581526561	 0.174135217	-1.1831205214	-0.329215
C	-1.7084966888	-1.8672945541	 0.1170959102	-0.031007
C	-3.0197601811	-2.4182068662	-0.296538322	-0.255661
N	-1.8113103505	-2.6888996911	-1.0989488858	-0.326454
H	 1.9001544914	-0.4132070033	-1.1619924979	 0.11001
H	 0.788595193	-1.7909278567	-1.1867869166	 0.14016
H	 0.4216373357	-0.339498932	-2.1317038824	 0.129695
H	 0.5099576611	-0.4522021547	 0.9455230741	 0.096763
H	 0.2232149503	 0.9993357262	-0.0047725046	 0.09288
H	-2.9621725891	 0.0180447293	 1.5661568966	 0.113035
H	-1.6735097648	 1.248498589	 1.5228704622	 0.108279
H	-3.9126854532	 0.9506372137	-0.5318768381	 0.105181
H	-2.5848100552	 2.1372536297	-0.6155201142	 0.10634
H	-1.1784817331	-2.3566406993	 0.9334027842	 0.086742
H	-3.4331140525	-3.2801602279	 0.2193499477	 0.11284
H	-3.7522179797	-1.7296718348	-0.7075095648	 0.115949
H	-1.8270402155	-2.0560104431	-1.8975959906	 0.244741
90.1765	92.5025	115.539	188.0397	220.5816	238.9752	265.9741	355.4015	390.5625	480.9117	529.6111	654.5694	774.0254	788.0305	839.8114	857.5261	866.0987	921.244	951.9332	969.5283	985.016	1010.0116	1016.4	1025.9649	1045.712	1107.6626	1127.9363	1155.089	1161.2242	1185.3475	1200.8842	1218.4992	1236.8569	1260.745	1283.646	1310.4086	1318.2334	1351.3939	1374.031	1408.3135	1419.4316	1478.2283	1488.7696	1497.0111	1501.0562	1514.2621	1529.7618	3017.4915	3022.5809	3044.0327	3055.2609	3062.8716	3079.7357	3110.8307	3112.1286	3115.5748	3122.2292	3136.5182	3200.6323	3484.0063
CCC1(CCO1)C1CN1	CC[C@]1(CCO1)[C@H]1CN1	
InChI=1S/C7H13NO/c1-2-7(3-4-9-7)6-5-8-6/h6,8H,2-5H2,1H3	InChI=1S/C7H13NO/c1-2-7(3-4-9-7)6-5-8-6/h6,8H,2-5H2,1H3/t6-,7+/m1/s1
