21
gdb 104516	2.7663	1.14362	0.94059	1.383	84.82	-0.2405	0.0508	0.2913	1335.2989	0.178933	-387.033559	-387.023156	-387.022212	-387.068886	38.334	
C	 0.9931270608	-0.1381910624	-0.1863403659	-0.254651
O	 0.1681731924	-0.5397532073	-1.2657499713	-0.276341
C	-1.1429780042	-0.8745304879	-0.916652087	 0.442961
C	-1.9643985401	 0.2438710796	-0.2752421142	-0.447845
C	-2.0505592844	 1.4465006447	-1.0974171809	 0.333539
C	-2.1146318934	 2.4363389501	-1.7756275409	-0.458615
C	-1.8087441641	-1.7979779858	-1.8886150501	-0.340154
C	-1.4307878942	-2.308319414	-0.5076728031	-0.067291
C	-0.3231180288	-3.3276750837	-0.3603266387	-0.414307
H	 2.0113053295	-0.0761036645	-0.577521399	 0.128015
H	 0.710453231	 0.8498288727	 0.2013058463	 0.118913
H	 0.9720537581	-0.8632584869	 0.6386153551	 0.108351
H	-2.9711792328	-0.141415367	-0.076358766	 0.13138
H	-1.5456157033	 0.5009952078	 0.7063670964	 0.128153
H	-2.1726908612	 3.3081513461	-2.3786787543	 0.194563
H	-2.8530380886	-1.6348213572	-2.1317091084	 0.112475
H	-1.1952528316	-2.1319783623	-2.7184183929	 0.121698
H	-2.2582880251	-2.4359866982	 0.1869305844	 0.078757
H	 0.5196712472	-3.0794633132	-1.0105410679	 0.131131
H	 0.0465032316	-3.375635592	 0.6700223361	 0.112383
H	-0.676346179	-4.3286734584	-0.6311470377	 0.116885
49.2299	108.5669	122.9364	171.5703	209.7099	220.6315	251.9936	289.1161	332.9315	355.4844	393.6052	427.0413	482.7244	619.3146	620.9233	635.2204	731.0151	813.9973	869.2018	905.4116	926.4697	930.1582	981.5967	1013.3034	1064.0211	1084.4313	1121.9202	1136.0381	1178.852	1183.2958	1198.7298	1214.925	1263.8926	1321.129	1343.2511	1401.6408	1420.0758	1459.4507	1475.4576	1489.5236	1494.1275	1500.5081	1503.0022	1510.6903	2239.9182	2997.2408	3023.7335	3030.6623	3053.0673	3059.9792	3086.5861	3112.9831	3117.5605	3131.0045	3133.4662	3222.1622	3507.069
COC1(CC#C)CC1C	CO[C@@]1(CC#C)C[C@H]1C	
InChI=1S/C8H12O/c1-4-5-8(9-3)6-7(8)2/h1,7H,5-6H2,2-3H3	InChI=1S/C8H12O/c1-4-5-8(9-3)6-7(8)2/h1,7H,5-6H2,2-3H3/t7-,8+/m1/s1
