19
gdb 73698	2.72819	1.92863	1.33583	2.0948	74.17	-0.2361	0.0711	0.3072	979.3811	0.160348	-422.965273	-422.958052	-422.957108	-422.99643	29.743	
C	 0.0113869655	 1.5492570594	-0.0452335526	-0.486826
C	-0.0100529885	 0.0306015191	-0.0270946243	 0.339244
C	 0.3438951947	-0.6125892234	-1.3746666087	-0.308484
C	-0.1753520343	-2.0487276107	-1.4308760587	-0.075594
O	 0.0456744173	-2.7347230995	-0.2030563281	-0.265583
C	-0.2326981878	-1.9399321468	 0.9068485857	 0.123936
C	 0.6159823263	-0.6726975479	 1.217340054	-0.023076
O	-0.5070244775	-0.204206749	 2.0522986881	-0.31042
C	-1.1416464235	-0.6714850624	 0.8086347078	-0.056483
H	 0.9902168967	 1.917912781	-0.3730425463	 0.114282
H	-0.7353411572	 1.9403941165	-0.7456221224	 0.112309
H	-0.1970292145	 1.9495933283	 0.9483100309	 0.140396
H	-0.094089022	-0.0389152075	-2.1997971886	 0.103667
H	 1.4323392313	-0.5832187622	-1.5114008873	 0.108675
H	-1.255735651	-2.0367298924	-1.6454109023	 0.096469
H	 0.314086513	-2.6372834057	-2.2109840907	 0.111578
H	-0.4236238099	-2.5750853206	 1.7719300492	 0.100487
H	 1.6245257361	-0.5841797995	 1.6249410933	 0.086712
H	-2.2267216143	-0.5765413668	 0.7402862211	 0.08871
188.9101	217.0644	235.839	316.8099	357.4844	414.1681	428.5725	509.0884	581.812	658.1577	699.9854	763.3862	810.2309	866.9865	876.2288	892.5554	916.4491	924.1682	982.3323	1026.6837	1040.2623	1078.546	1108.0419	1136.6089	1144.3997	1164.1814	1197.3244	1208.2247	1239.3995	1245.2439	1263.4791	1274.3804	1318.0864	1362.2854	1376.5902	1401.6369	1419.6687	1480.6358	1492.4612	1504.0032	1509.6617	2978.5936	3024.1544	3031.2451	3066.2089	3085.628	3094.4325	3100.8437	3105.8486	3127.8046	3137.8626
CC12CCOC3C1OC23	C[C@@]12CCO[C@H]3[C@@H]1O[C@@H]23	
InChI=1S/C7H10O2/c1-7-2-3-8-4-5(7)9-6(4)7/h4-6H,2-3H2,1H3	InChI=1S/C7H10O2/c1-7-2-3-8-4-5(7)9-6(4)7/h4-6H,2-3H2,1H3/t4-,5-,6+,7+
