18
gdb 59501	3.86822	0.79585	0.7229	5.3125	73.2	-0.2764	0.0296	0.306	1557.5593	0.145091	-439.07486	-439.064954	-439.06401	-439.111072	34.768	
C	-0.0760545888	 1.4786969989	-0.2661778664	-0.420984
C	 0.0425027468	 0.0423880485	 0.2375155416	 0.107619
O	 0.7197507073	-0.0412255913	 1.4881870382	-0.431515
C	-1.3195843986	-0.6214957065	 0.3421301388	 0.034793
O	-1.8675983997	-1.2112639813	-0.8434237007	-0.249391
C	-1.5418515261	-2.0691979504	 0.249895496	 0.06222
C	-0.415972966	-3.0725888884	 0.0513827219	-0.369407
C	-0.8920656288	-4.3236684587	-0.5386621618	 0.259374
N	-1.2786253847	-5.312311356	-0.9942153463	-0.298412
H	 0.9122579605	 1.9401693152	-0.3358755011	 0.131423
H	-0.5488914149	 1.5032132485	-1.2525805822	 0.142172
H	-0.6916237752	 2.0796313238	 0.4154462179	 0.111488
H	 0.6605465032	-0.5276797886	-0.462396369	 0.098125
H	 0.3107063917	 0.5873867364	 2.0933498036	 0.283935
H	-2.0464539604	-0.0514951929	 0.9285536362	 0.09131
H	-2.4102702284	-2.4807588325	 0.7649951684	 0.114972
H	 0.361646486	-2.6538765491	-0.5917676856	 0.163082
H	 0.0466908461	-3.2930307454	 1.0205420305	 0.169196
33.9363	46.1913	107.9233	158.9279	220.005	250.5399	262.4207	343.3817	370.9528	383.0342	386.925	496.9989	535.1773	589.81	811.8573	821.8475	902.8933	926.1223	953.4595	977.3157	1030.8096	1066.3341	1097.2782	1119.6861	1155.7654	1190.8743	1236.7982	1269.383	1299.1223	1316.4516	1340.1045	1399.918	1407.2999	1412.0099	1445.9317	1487.7912	1492.2652	1501.9115	2366.5662	3025.4997	3054.0301	3061.7929	3074.3779	3101.7378	3105.7057	3119.7139	3127.1436	3801.5165
CC(O)C1OC1CC#N	C[C@@H](O)[C@H]1O[C@H]1CC#N	
InChI=1S/C6H9NO2/c1-4(8)6-5(9-6)2-3-7/h4-6,8H,2H2,1H3	InChI=1S/C6H9NO2/c1-4(8)6-5(9-6)2-3-7/h4-6,8H,2H2,1H3/t4-,5+,6-/m1/s1
