17
gdb 23059	2.33298	1.46162	1.04133	1.1972	73.7	-0.22	-0.0087	0.2113	1154.8347	0.134484	-455.047355	-455.0386	-455.037656	-455.080703	33.04	
O	-0.0217403598	 1.1620492853	 0.2641228524	-0.387251
N	-0.0000465645	-0.2415891139	 0.3143751263	-0.283072
C	-1.1262966408	-0.7370337529	 0.007014024	 0.358477
C	-2.5210559083	-0.2834330627	-0.3688972313	-0.260992
N	-2.9299394728	-1.7308321316	-0.4429656432	-0.390351
C	-1.5845727858	-2.1415861797	 0.0198470975	 0.215011
C	-0.805255464	-3.3767246762	-0.3669467082	-0.362187
C	-1.1522481445	-3.130341949	 1.080610655	 0.068777
O	-0.1995731243	-2.7685265405	 2.0236282388	-0.42545
H	 0.8891504134	 1.3925239631	 0.4766112581	 0.310348
H	-3.0159214613	 0.3117788375	 0.4065826115	 0.131874
H	-2.6103786728	 0.2380901602	-1.3266545668	 0.138452
H	-3.6525727334	-1.9507793848	 0.2363100788	 0.225327
H	-1.3545532794	-4.1523244321	-0.8915393287	 0.125057
H	 0.2224256852	-3.2310122625	-0.6857824731	 0.128448
H	-1.9200763906	-3.7626219695	 1.5192282239	 0.110031
H	 0.2247025438	-1.9482973507	 1.7291712551	 0.297501
101.366	113.7435	150.737	237.4188	260.6031	324.8219	348.2437	372.6881	441.1442	463.3532	509.5013	556.9669	639.7651	757.7665	770.6323	830.4372	892.0804	926.8391	957.4973	980.0743	994.3756	1022.4222	1056.3248	1087.094	1112.694	1140.9806	1167.8038	1226.1445	1287.9444	1318.6949	1356.6417	1372.0844	1428.2379	1434.8815	1470.3555	1488.0146	1787.1691	3040.9398	3087.9452	3122.0021	3147.0454	3218.7139	3508.6967	3700.5288	3818.2628
ON=C1CNC11CC1O	ON=C1CN[C@]21C[C@H]2O	
InChI=1S/C5H8N2O2/c8-4-1-5(4)3(7-9)2-6-5/h4,6,8-9H,1-2H2	InChI=1S/C5H8N2O2/c8-4-1-5(4)3(7-9)2-6-5/h4,6,8-9H,1-2H2/t4-,5+/m1/s1
