21
gdb 73521	2.71906	1.68215	1.34875	0.3936	91.59	-0.2052	-0.0105	0.1947	1048.5743	0.184846	-349.986049	-349.978353	-349.977409	-350.017553	31.934	
C	-0.0632749584	 1.5322260041	-0.0282675788	-0.431206
C	-0.0141436496	-0.0096552095	-0.0593320787	 0.266063
C	-1.419802568	-0.613151322	 0.1585342837	-0.281383
C	-1.5385782306	-0.721751953	 1.7088671992	-0.24829
C	-0.0951054646	-0.8877810372	 2.1505889257	-0.251663
C	 0.7333512974	-0.5420111084	 1.1608238034	 0.349486
C	 2.1290922429	-0.7134401356	 0.7922883417	-0.199337
C	 2.2350293049	-0.6819047757	-0.5484090999	-0.066684
C	 0.8930564751	-0.4733171962	-1.2310935215	-0.345032
H	 0.9460622288	 1.9556485916	-0.0192933458	 0.116115
H	-0.5855410908	 1.9174036419	-0.9114619484	 0.10767
H	-0.586976911	 1.8952664545	 0.8614805849	 0.114332
H	-2.2240610113	-0.0214669264	-0.2900690395	 0.087492
H	-1.4637561092	-1.6192830526	-0.2735742017	 0.094637
H	-2.0013671957	 0.1773090945	 2.1419957345	 0.103746
H	-2.1688077638	-1.5632646309	 2.0183438315	 0.099656
H	 0.1877447096	-1.286826413	 3.1179000629	 0.086447
H	 2.9385049596	-0.9115517523	 1.4846750329	 0.097858
H	 3.1526765352	-0.8464009419	-1.103033755	 0.095339
H	 0.5439900203	-1.41936958	-1.6706695745	 0.105785
H	 0.9422122891	 0.2532337581	-2.0500949367	 0.098969
157.7976	201.9928	261.2186	270.8255	328.6147	345.8242	404.3102	465.3259	599.945	630.506	661.7667	720.989	759.5941	796.9043	827.1629	865.3006	910.9388	922.4697	931.4776	940.1243	967.3439	971.4032	977.289	1009.2984	1092.1927	1096.8258	1130.589	1136.7668	1202.4338	1215.6118	1219.8229	1257.9503	1282.4138	1306.0056	1319.2121	1338.6401	1370.6444	1407.2758	1473.1677	1481.0379	1492.9887	1498.5099	1501.4624	1620.2281	1715.1769	2997.2965	3000.5915	3027.2005	3036.2497	3054.4267	3054.9857	3085.8193	3095.4252	3107.0504	3185.2407	3194.6018	3211.5611
CC12CCC=C1C=CC2	C[C@]12CCC=C1C=CC2	
InChI=1S/C9H12/c1-9-6-2-4-8(9)5-3-7-9/h2,4-5H,3,6-7H2,1H3	InChI=1S/C9H12/c1-9-6-2-4-8(9)5-3-7-9/h2,4-5H,3,6-7H2,1H3/t9-/m0/s1
