22
gdb 100267	1.9377	1.32043	1.1712	2.0417	77.72	-0.2406	0.0342	0.2748	1240.4449	0.191305	-441.521817	-441.510251	-441.509307	-441.558843	41.322	
C	-0.0618016044	 1.5580651751	 0.1529669522	-0.401515
C	-0.0112445887	 0.0349217542	-0.0001926971	-0.18804
C	 0.7138781747	-0.4873936361	-1.2687210256	 0.124045
C	 0.725863979	-2.0320397961	-1.2475799207	-0.426495
C	-0.0025570838	-0.0104233778	-2.544826806	-0.094414
O	-1.3590267724	-0.438294784	-2.4726588817	-0.435588
C	 2.1601110425	 0.0387476851	-1.3408713664	 0.396282
N	 2.9524401224	-0.254096863	-0.2679585247	-0.522857
O	 2.5847264217	 0.6782457372	-2.2870016201	-0.377869
H	 0.9396395003	 2.0004489102	 0.1533751785	 0.126249
H	-0.6353829959	 2.0239216902	-0.6532884532	 0.12666
H	-0.5455858934	 1.8291202155	 1.0965090562	 0.110419
H	 0.4668867405	-0.4006477744	 0.8862737504	 0.074207
H	-1.0301758793	-0.3629559103	-0.0238338701	 0.122663
H	-0.297252368	-2.4028840051	-1.3435103149	 0.141754
H	 1.3143395732	-2.4338083469	-2.0787813918	 0.120448
H	 1.145575356	-2.4265243422	-0.3165160489	 0.095848
H	 0.070851849	 1.0800007265	-2.629290797	 0.104377
H	 0.5053491836	-0.4345474733	-3.420660872	 0.098745
H	-1.7986313145	-0.1636730451	-3.2816679877	 0.289023
H	 2.6482536705	-0.8384296702	 0.4895382041	 0.25751
H	 3.9190150868	 0.0238483204	-0.3090566737	 0.25855
32.9741	70.8499	124.1948	142.8547	178.6483	204.2652	220.5528	242.1723	264.4201	284.3492	323.825	361.4299	387.8006	447.9147	488.4047	568.4481	596.6489	701.4442	759.7287	788.8369	873.7112	927.3455	962.9742	1017.0322	1049.0923	1060.4088	1078.3252	1092.6591	1163.3207	1179.0127	1219.8197	1269.7929	1284.4042	1306.5355	1352.5933	1376.4354	1411.2471	1415.1536	1450.7032	1482.174	1490.1662	1499.9667	1502.0272	1506.0464	1522.6008	1613.7474	1777.5924	3016.7164	3024.0343	3035.5125	3039.4994	3056.2881	3082.6173	3098.7318	3105.2049	3115.2181	3127.2478	3608.3904	3746.1	3842.9009
CCC(C)(CO)C(N)=O	CC[C@@](C)(CO)C(=O)N	
InChI=1S/C6H13NO2/c1-3-6(2,4-8)5(7)9/h8H,3-4H2,1-2H3,(H2,7,9)	InChI=1S/C6H13NO2/c1-3-6(2,4-8)5(7)9/h8H,3-4H2,1-2H3,(H2,7,9)/t6-/m0/s1
