23
gdb 102411	1.68979	1.55478	1.01421	3.4174	77.03	-0.2532	0.0505	0.3037	1300.346	0.202608	-462.542499	-462.531037	-462.530092	-462.578907	41.336	
C	-0.0256312824	 1.5007173424	 0.0907058359	-0.395916
C	-0.0775556923	-0.025820655	-0.045353508	-0.244093
C	 0.6390790246	-0.591965164	-1.2821020281	 0.304746
C	 0.5279256416	-2.1284561828	-1.3133875061	-0.081247
O	 1.3413527258	-2.6890669449	-2.3249093721	-0.435021
C	 0.0755495607	-0.0148401152	-2.5991277296	-0.105934
O	-1.324160526	-0.2049316127	-2.7283801298	-0.421081
O	 2.0283474279	-0.2146880099	-1.3460079811	-0.296609
C	 2.8449295768	-0.5145746329	-0.2276104295	-0.25947
H	 1.0034988705	 1.8692199815	 0.0575134112	 0.133346
H	-0.573080872	 2.0051907943	-0.7128358007	 0.109064
H	-0.4716876745	 1.8194079435	 1.0373120439	 0.11757
H	 0.3432097157	-0.4889136417	 0.8541981464	 0.101602
H	-1.1190194963	-0.3654543347	-0.0863713687	 0.107522
H	 0.7790456848	-2.5464426842	-0.3249914655	 0.076258
H	-0.5096445154	-2.3972281709	-1.5336183208	 0.12372
H	 2.1347801157	-2.1396913215	-2.3607049309	 0.287243
H	 0.3607339397	 1.0408600489	-2.6808135758	 0.09811
H	 0.5384210356	-0.5530880331	-3.4293976989	 0.124229
H	-1.7712393852	 0.4663816278	-2.2049308559	 0.288278
H	 2.5560211066	 0.0528773317	 0.6659954993	 0.116011
H	 2.8443011578	-1.5836255912	 0.0234337265	 0.119744
H	 3.8615615403	-0.2248367954	-0.5055285217	 0.131929
63.1202	95.1955	119.4512	141.4429	154.5838	191.9821	232.3635	257.4889	283.0128	305.8582	335.1978	340.0826	396.204	421.7377	446.2384	542.4005	598.3199	740.0785	778.5989	866.8502	900.3461	977.0295	1033.487	1040.5317	1070.3313	1091.5875	1099.9995	1119.4296	1156.6392	1181.6266	1196.5929	1231.9675	1244.1298	1263.9094	1315.6095	1358.2128	1370.5659	1388.9746	1410.7966	1414.3954	1436.0647	1473.8797	1482.1143	1490.1353	1499.8294	1500.6928	1505.1922	1513.2043	1520.7491	2969.2974	3004.7443	3030.9538	3039.2172	3040.2362	3059.7389	3066.791	3086.6817	3101.0896	3111.0962	3111.7296	3117.0515	3768.5158	3829.201
CCC(CO)(CO)OC	CCC(CO)(CO)OC	
InChI=1S/C6H14O3/c1-3-6(4-7,5-8)9-2/h7-8H,3-5H2,1-2H3	InChI=1S/C6H14O3/c1-3-6(4-7,5-8)9-2/h7-8H,3-5H2,1-2H3
