21
gdb 111506	2.41266	1.58589	1.11337	2.0452	78.57	-0.2306	0.0743	0.3049	1163.2436	0.181934	-424.201978	-424.192993	-424.192049	-424.235784	33.974	
C	 0.237540613	 1.4712729746	 0.1148682126	-0.24113
O	 0.0131404281	 0.0808673211	 0.0495766016	-0.237029
C	 0.5676129055	-0.5619354762	-1.0887099471	 0.062283
C	 1.0636549185	-1.9611357932	-0.7339503651	-0.091179
C	 0.1515400231	-2.8079487649	 0.1355908777	-0.297597
C	 0.0896756338	-2.9202090082	-1.3582597516	 0.094832
O	-0.9378182339	-2.1921415035	-1.9783434232	-0.275222
C	-0.4693376896	-0.8555026661	-2.2153121061	 0.133235
C	-1.670147663	 0.0684832175	-2.29750823	-0.407784
H	 1.3128052099	 1.7078973802	 0.1001737673	 0.105934
H	-0.2471939274	 2.0196550194	-0.7051306845	 0.106675
H	-0.1841519014	 1.8194106836	 1.0613368704	 0.127968
H	 1.3896181875	 0.0487976747	-1.4854827386	 0.065394
H	 2.1300632447	-2.148034313	-0.7160599318	 0.087947
H	 0.6188564327	-3.6121664713	 0.6941877238	 0.10718
H	-0.6725842451	-2.311964288	 0.6333368048	 0.134991
H	 0.3889698336	-3.8243981153	-1.8800958986	 0.089945
H	 0.0791788196	-0.8450598423	-3.1725333669	 0.063392
H	-2.1591954201	 0.1424070232	-1.3239525509	 0.134322
H	-1.3705429428	 1.0693749567	-2.6230507452	 0.109976
H	-2.3870134968	-0.3237038391	-3.0236226983	 0.125868
76.9878	91.2402	163.6765	190.1572	246.9289	259.9968	337.4042	363.1675	407.2683	473.1798	552.8924	689.6617	711.7929	783.3565	814.5869	833.4583	896.6205	936.1019	958.9875	995.8374	1026.9949	1040.3755	1055.2155	1096.8542	1103.345	1121.4124	1144.3911	1147.8823	1175.6817	1182.5896	1200.2013	1222.858	1274.0686	1319.1606	1365.6574	1367.7174	1390.4397	1392.0173	1409.6744	1475.4255	1479.3764	1482.7364	1494.7473	1498.0289	1511.0225	2952.7313	2979.0462	3013.771	3032.0511	3049.0763	3110.8431	3117.2924	3136.9951	3138.1027	3148.2554	3184.287	3236.0303
COC1C2CC2OC1C	CO[C@H]1[C@H]2C[C@H]2O[C@H]1C	
InChI=1S/C7H12O2/c1-4-7(8-2)5-3-6(5)9-4/h4-7H,3H2,1-2H3	InChI=1S/C7H12O2/c1-4-7(8-2)5-3-6(5)9-4/h4-7H,3H2,1-2H3/t4-,5-,6+,7+/m0/s1
