15
gdb 15331	3.37685	1.14764	0.91228	3.0479	72.27	-0.2424	-0.0281	0.2143	1249.3701	0.116658	-362.617098	-362.60835	-362.607406	-362.652496	29.484	
C	 0.0933422437	 1.509385397	-0.1031381559	-0.500282
C	 0.0383979489	 0.056860001	-0.0419825658	 0.109634
C	-0.0119864994	-1.144755427	 0.0191002649	 0.122001
C	-0.0457333406	-2.5817080959	 0.0479820312	-0.251776
N	-0.3435085762	-3.2491442298	 1.3207250857	-0.318589
C	-1.3210613933	-3.3774415141	 0.2272468753	-0.119239
C	-2.6194783422	-2.6787121803	 0.4484530755	 0.181406
O	-3.6493581737	-3.0069130553	-0.0843162657	-0.258493
H	 0.9107677396	 1.8467052515	-0.7495678153	 0.15288
H	-0.838904538	 1.9264777646	-0.4992882631	 0.154716
H	 0.2558667278	 1.9398596549	 0.89091493	 0.15549
H	 0.676980838	-3.0643495802	-0.6081029501	 0.119492
H	 0.1969607929	-4.1060712969	 1.4050247363	 0.247711
H	-1.3957461935	-4.3093313431	-0.3275362002	 0.109041
H	-2.5562594241	-1.8235754463	 1.1529954173	 0.096006
18.0623	63.292	121.0623	135.4443	233.0495	292.7343	342.3098	363.0456	475.9307	507.687	569.301	728.6112	823.5489	893.1955	921.1935	984.8569	1041.4218	1051.6379	1052.5585	1094.4301	1140.1688	1183.048	1214.7057	1251.3524	1362.0147	1413.4272	1414.3385	1446.0218	1475.5737	1476.8613	1825.1048	2373.0039	2925.4443	3029.2591	3091.5137	3092.6934	3115.4925	3151.1235	3512.2525
CC#CC1NC1C=O	CC#C[C@H]1N[C@H]1C=O	
InChI=1S/C6H7NO/c1-2-3-5-6(4-8)7-5/h4-7H,1H3	InChI=1S/C6H7NO/c1-2-3-5-6(4-8)7-5/h4-7H,1H3/t5-,6+/m1/s1
