23
gdb 114515	2.42443	1.34207	1.02768	1.4165	85.18	-0.2482	0.0651	0.3134	1278.6174	0.205973	-388.263227	-388.253914	-388.25297	-388.297676	35.779	
C	-0.2506584209	 1.6870848594	 0.6808295841	-0.38469
C	-0.0564319478	 0.16682021	 0.6677511053	-0.182337
C	-1.3026078909	-0.5645591245	 0.1731662955	 0.052274
C	-1.6738062086	-0.4647303269	-1.3443180262	-0.250945
C	-1.6862206353	-2.0077519123	-1.4466317697	-0.007286
C	-0.2987828384	-2.6285323688	-1.7780058404	-0.28409
C	-0.1017285765	-2.9448638064	-0.2645587925	 0.138005
O	 1.0955760624	-2.5692063526	 0.3797545682	-0.425968
C	-1.3596540906	-2.1268048685	 0.0920625093	-0.09014
H	 0.651025727	 2.2004302257	 1.0295964872	 0.107752
H	-0.4826933444	 2.0697944018	-0.3195564108	 0.113049
H	-1.0754971647	 1.9770505768	 1.3422633455	 0.107809
H	 0.8043817159	-0.0966842801	 0.0461744527	 0.102496
H	 0.1910814862	-0.1844645499	 1.6766187881	 0.09726
H	-2.1516757039	-0.2302320252	 0.7810088686	 0.067334
H	-2.6423537219	 0.0071478939	-1.5296767608	 0.093697
H	-0.9306564785	 0.0265070359	-1.981784246	 0.090384
H	-2.5527352001	-2.4848417531	-1.9045080016	 0.060392
H	-0.3029617898	-3.4993438125	-2.438791791	 0.091944
H	 0.4202694297	-1.8998060832	-2.1645312488	 0.097984
H	-0.3161974565	-4.008485038	-0.079710826	 0.066152
H	 1.7930017813	-3.1660299689	 0.0900997113	 0.281614
H	-2.0274149738	-2.5925692528	 0.8189994678	 0.05731
41.788	101.5094	151.872	201.9793	248.3922	253.9932	337.8641	349.9443	400.9655	408.4749	571.628	602.0628	711.4896	754.0465	777.8388	815.2893	850.204	893.695	919.7365	937.4357	958.4517	1000.0659	1014.8874	1034.925	1069.8587	1090.9485	1128.0805	1134.6676	1146.3175	1153.1661	1195.8142	1220.7701	1225.4935	1242.3995	1271.7972	1284.4733	1292.3186	1296.1076	1332.4545	1340.3039	1348.5817	1390.4206	1409.7639	1428.2998	1474.9592	1479.5334	1491.6347	1500.6938	1506.4713	2973.8565	3021.0166	3025.3303	3037.9049	3039.9181	3049.2516	3075.6368	3083.6473	3089.3362	3097.4732	3098.644	3100.8124	3112.5408	3812.4304
CCC1CC2CC(O)C12	CC[C@H]1C[C@H]2C[C@@H](O)[C@@H]12	
InChI=1S/C8H14O/c1-2-5-3-6-4-7(9)8(5)6/h5-9H,2-4H2,1H3	InChI=1S/C8H14O/c1-2-5-3-6-4-7(9)8(5)6/h5-9H,2-4H2,1H3/t5-,6-,7+,8-/m0/s1
