23
gdb 100188	2.05135	1.36146	1.07757	2.5485	82.44	-0.2378	-0.0258	0.212	1287.4202	0.200968	-425.429295	-425.417886	-425.416942	-425.465527	41.172	
C	-0.149375185	 1.3717597338	 0.1255298697	-0.252316
O	-0.0017829431	-0.0257956496	-0.0454109393	-0.270062
C	 0.6418972097	-0.4861520506	-1.2208340585	 0.264711
C	-0.0309497852	 0.0230538402	-2.5086880222	-0.45949
C	 2.1158096183	-0.0585834872	-1.2408717729	 0.137947
O	 2.7204991788	 0.362013606	-0.2899078913	-0.263237
C	 0.5969034451	-2.0444325254	-1.079985647	 0.027529
C	-0.8459586232	-2.568725504	-1.0741098536	-0.409901
C	 1.4485813584	-2.8053714786	-2.1076474318	-0.422283
H	 0.8102555042	 1.8983253491	 0.0857393452	 0.127418
H	-0.8360066124	 1.8116151948	-0.610879932	 0.102888
H	-0.580174781	 1.5093493069	 1.1201926956	 0.129673
H	 0.0966617179	 1.1024934307	-2.6318807235	 0.125585
H	 0.3997063462	-0.457715235	-3.3911507559	 0.126055
H	-1.1010681899	-0.1929341141	-2.4859119927	 0.137307
H	 2.6111324379	-0.1645264463	-2.2338868158	 0.078787
H	 1.0212699136	-2.2257601918	-0.0851253001	 0.10059
H	-0.8590881767	-3.6176005329	-0.7606578569	 0.112223
H	-1.4661998846	-1.9950154262	-0.3833286998	 0.135423
H	-1.297750242	-2.5226743859	-2.0710536303	 0.109922
H	 2.51087896	-2.5506962338	-2.0509254544	 0.121978
H	 1.3638438057	-3.8811757768	-1.9251889148	 0.121705
H	 1.1115270073	-2.6262148934	-3.1346083876	 0.117547
61.54	77.214	120.6068	172.7139	196.3742	217.1846	238.5764	248.279	264.6873	294.0265	338.2436	338.7059	355.2584	413.6262	459.4956	491.3056	632.5745	774.0549	818.4069	889.542	916.0715	933.0047	968.3475	987.4163	1023.4107	1086.6145	1132.0761	1167.4935	1178.5045	1183.2963	1202.7474	1222.6377	1251.8759	1344.6161	1361.0081	1395.2809	1397.9722	1416.283	1426.3403	1475.0077	1485.9873	1487.7896	1491.9831	1496.3924	1505.6002	1509.8141	1510.5268	1516.0768	1833.2598	2856.8806	3004.419	3033.4814	3033.8451	3039.3786	3051.0562	3076.1206	3093.8558	3101.3116	3107.4644	3115.2036	3119.2089	3134.675	3137.9815
COC(C)(C=O)C(C)C	CO[C@@](C)(C=O)C(C)C	
InChI=1S/C7H14O2/c1-6(2)7(3,5-8)9-4/h5-6H,1-4H3	InChI=1S/C7H14O2/c1-6(2)7(3,5-8)9-4/h5-6H,1-4H3/t7-/m0/s1
