21
gdb 112603	3.18618	0.96633	0.89888	2.1413	79.78	-0.2399	-0.0274	0.2126	1418.8207	0.179414	-424.233252	-424.223156	-424.222212	-424.268955	36.382	
C	 0.1363858324	 1.3765329767	 0.2857700169	-0.381916
C	 0.0315738129	-0.1274602507	 0.0175371665	-0.189804
C	-1.3963960085	-0.5765110312	-0.2296779222	 0.166871
C	-1.7051715183	-2.0882529306	-0.2322387677	-0.3697
C	-2.68801434	-1.7557873379	 0.9046730021	 0.344606
C	-2.5290727075	-2.4453732443	 2.2493592454	-0.457197
O	-2.2495286096	-0.3684320293	 0.938297228	-0.346294
C	-4.1518747827	-1.7406632159	 0.4790159702	 0.123481
O	-4.6120243792	-2.3486648232	-0.4518269639	-0.249181
H	 1.1696088738	 1.6707039593	 0.4916895741	 0.113214
H	-0.2123709717	 1.9575185771	-0.5750378031	 0.115393
H	-0.4765646392	 1.6536315621	 1.1481178733	 0.136711
H	 0.6314188175	-0.4033408552	-0.8601690182	 0.099722
H	 0.4357938408	-0.6905976745	 0.8679690351	 0.096082
H	-1.815718006	-0.0433125542	-1.094326818	 0.080264
H	-2.170560887	-2.4984587892	-1.1282330677	 0.131653
H	-0.8645573237	-2.7142171964	 0.074321511	 0.105074
H	-1.4940829298	-2.3600290929	 2.5913999009	 0.129849
H	-3.1769204142	-1.9829434715	 3.0018741697	 0.13004
H	-2.7908895529	-3.5059663319	 2.1707638367	 0.133295
H	-4.776327877	-1.0687263765	 1.1109118709	 0.087836
42.7841	79.3199	106.1801	151.8273	210.2708	231.5334	267.8652	297.5461	328.281	348.3373	421.9834	474.9034	566.9461	667.4799	761.6092	803.6811	877.2611	901.2456	928.5182	941.9481	960.9892	988.2712	1008.9141	1034.8695	1081.7285	1107.9782	1146.2445	1197.2703	1221.6087	1258.6307	1277.0875	1287.4255	1316.4447	1346.8467	1396.9682	1406.3386	1409.7168	1415.9839	1473.5788	1480.0983	1485.4798	1491.675	1498.717	1509.397	1832.4373	2880.2566	3005.1513	3019.273	3033.1321	3038.1596	3058.9671	3079.2116	3105.4003	3105.618	3118.2986	3119.5677	3146.2325
CCC1CC(C)(O1)C=O	CC[C@H]1C[C@@](C)(O1)C=O	
InChI=1S/C7H12O2/c1-3-6-4-7(2,5-8)9-6/h5-6H,3-4H2,1-2H3	InChI=1S/C7H12O2/c1-3-6-4-7(2,5-8)9-6/h5-6H,3-4H2,1-2H3/t6-,7+/m0/s1
