17
gdb 52831	2.51578	1.01118	0.98658	2.6713	78.91	-0.2282	-0.0303	0.1979	1348.9819	0.132345	-421.804632	-421.794594	-421.79365	-421.841352	34.659	
C	-0.0406181407	 1.4806598822	-0.1059735108	-0.500243
C	 0.0325668321	 0.0287692858	-0.0470122822	 0.029906
C	 0.1042400911	-1.1735897289	 0.0059603841	 0.049901
C	 0.148199134	-2.6290441912	 0.024303598	 0.148134
O	 1.0883619793	-3.1806535076	-0.8702511154	-0.452203
C	 0.2364056917	-3.2657525944	 1.4496058215	-0.269416
C	-1.2932511898	-3.5624698211	 1.4474253668	-0.337889
C	-1.2940387025	-3.2541766731	-0.0546446828	 0.344436
O	-2.0081071526	-3.5138528035	-0.9750543878	-0.293126
H	 0.8227897899	 1.895540754	-0.6374239076	 0.155622
H	-0.9448239631	 1.8142975858	-0.6265605556	 0.154624
H	-0.0518795758	 1.9174238811	 0.8985456274	 0.153288
H	 0.8987838979	-2.8261515287	-1.7468188969	 0.291056
H	 0.8385578781	-4.1745037744	 1.4001531294	 0.13062
H	 0.6108215868	-2.611204595	 2.2349198032	 0.118941
H	-1.6262416663	-4.5629131699	 1.7311808193	 0.135018
H	-1.8784945101	-2.8256216609	 2.0062924994	 0.14133
22.6369	65.8955	79.9404	122.3922	162.3385	232.7144	292.7886	309.1559	339.51	415.9087	495.2611	514.9472	555.3903	626.3126	718.011	754.5201	848.4285	920.2503	961.217	1006.222	1048.3488	1050.6507	1058.337	1064.8873	1142.9869	1196.1026	1212.6602	1251.6488	1266.5999	1360.3129	1413.4755	1441.3646	1474.9306	1477.2627	1479.5221	1897.6315	2355.0243	3029.4733	3065.1101	3091.9957	3092.3155	3092.5085	3122.9944	3160.5612	3802.0307
CC#CC1(O)CCC1=O	CC#C[C@@]1(O)CCC1=O	
InChI=1S/C7H8O2/c1-2-4-7(9)5-3-6(7)8/h9H,3,5H2,1H3	InChI=1S/C7H8O2/c1-2-4-7(9)5-3-6(7)8/h9H,3,5H2,1H3/t7-/m1/s1
