20
gdb 111655	2.75547	1.23595	1.14329	2.5404	78.97	-0.2346	-0.0225	0.2121	1194.5379	0.17137	-403.1517	-403.143103	-403.142159	-403.185277	32.552	
C	-0.2265730909	 1.4823491658	-0.125348718	-0.379731
C	 0.2257306298	 0.0348110987	 0.1128783549	-0.224702
C	 0.8249523129	-0.583137284	-1.1356975245	 0.028933
C	 0.9841945705	-2.0516589733	-1.4013533532	-0.194215
N	 0.0807484102	-1.2158765242	-2.2243368783	-0.11897
C	-1.3202696568	-1.6111011282	-1.8994321674	-0.170752
C	-1.3044883954	-2.6896609166	-0.7976135358	-0.349934
C	 0.1815584393	-3.0060086117	-0.5694330396	 0.417261
O	 0.6215768792	-3.9037139635	 0.1031337129	-0.321085
H	 0.6068620157	 2.1019100997	-0.4730506413	 0.122577
H	-1.0147517876	 1.5373191655	-0.8830223807	 0.126562
H	-0.6126723629	 1.9279446489	 0.7960773838	 0.118578
H	 0.995444874	 0.0181214914	 0.8943859974	 0.116262
H	-0.6091553595	-0.5531407955	 0.5020945494	 0.105757
H	 1.645687877	 0.0190118813	-1.5280341208	 0.101048
H	 1.9013013528	-2.4283313473	-1.8436817826	 0.111505
H	-1.8987269167	-0.7251145431	-1.6239385951	 0.115765
H	-1.7529544782	-2.0054132077	-2.8223960993	 0.120274
H	-1.7662406454	-2.3856291958	 0.1470607859	 0.136643
H	-1.8068684578	-3.6104394005	-1.1069737176	 0.138225
77.3531	88.2555	157.1719	193.7369	252.2119	265.2201	414.3475	449.3787	499.8223	593.7101	609.7451	691.8519	724.4121	742.9022	801.527	824.5739	862.2689	917.8052	968.4635	1005.3497	1009.7502	1032.4692	1057.8339	1084.4915	1119.8968	1171.8721	1182.3795	1199.1539	1252.7496	1255.7406	1286.3755	1290.7578	1330.9267	1342.0239	1366.0424	1411.1141	1435.1865	1459.037	1481.3659	1496.8351	1505.3837	1509.7193	1834.8541	3036.1016	3038.6517	3057.4324	3064.0615	3086.1165	3090.5512	3095.7324	3108.2465	3111.3552	3115.8903	3162.5916
CCC1C2N1CCC2=O	CC[C@H]1[C@@H]2N1CCC2=O	
InChI=1S/C7H11NO/c1-2-5-7-6(9)3-4-8(5)7/h5,7H,2-4H2,1H3	InChI=1S/C7H11NO/c1-2-5-7-6(9)3-4-8(5)7/h5,7H,2-4H2,1H3/t5-,7-,8?/m0/s1
