18
gdb 78919	4.47913	1.33399	1.31082	2.2556	74.5	-0.2256	0.0692	0.2948	1024.9596	0.148482	-401.857333	-401.850107	-401.849163	-401.888574	29.413	
C	 0.0153093453	 1.4986256532	 0.0242172413	-0.521605
C	 0.0122907913	 0.0102431964	 0.0016174045	 0.383653
C	 0.9259608735	-1.0379038542	-0.56463907	-0.157694
C	 0.5037731047	-1.0597735678	 0.9330514509	-0.157695
C	-0.8028603281	-1.8362612032	 0.804816457	-0.052456
C	-0.6186751098	-2.9768551112	-0.2198729982	 0.157606
O	-1.811260246	-3.6405317442	-0.5657490061	-0.4515
C	-0.2493837842	-1.8075782205	-1.1586381217	-0.052454
N	-1.1904829999	-0.8747655143	-0.3503507153	-0.253746
H	 1.0048305314	 1.8727532821	 0.3078579323	 0.124479
H	-0.2336117677	 1.9077353523	-0.9610033314	 0.12918
H	-0.7135578557	 1.8828672949	 0.7460913388	 0.129164
H	 1.9597588588	-0.9683841055	-0.877325485	 0.091481
H	 1.221592835	-1.0066231918	 1.74129197	 0.091483
H	-1.4803893552	-1.9297740057	 1.6541514065	 0.079599
H	 0.1342790011	-3.7429078913	-0.0188141432	 0.086129
H	-2.4742494019	-2.96115891	-0.7427055999	 0.294777
H	-0.3829723325	-1.8729038992	-2.2389375403	 0.079599
153.6528	199.6406	219.2378	298.3857	336.5938	426.6513	492.4434	546.7655	596.3123	727.7573	797.3479	819.0434	849.6005	850.6085	888.1612	890.0887	905.234	927.4373	967.7269	978.3976	1010.036	1029.6693	1036.3828	1100.2633	1124.2372	1146.4447	1154.7517	1196.8253	1212.6736	1224.0169	1241.0112	1247.0134	1281.8893	1312.9619	1403.104	1433.008	1469.9261	1474.8913	1497.7418	3027.2819	3085.3963	3093.3152	3101.0988	3111.0742	3114.1619	3193.1853	3202.2583	3780.4916
CC12C3C1C1C(O)C3N21	C[C@@]12[C@H]3[C@@H]1[C@@H]1[C@@H](O)[C@H]3N21	
InChI=1S/C7H9NO/c1-7-2-3(7)5-6(9)4(2)8(5)7/h2-6,9H,1H3	InChI=1S/C7H9NO/c1-7-2-3(7)5-6(9)4(2)8(5)7/h2-6,9H,1H3/t2-,3+,4-,5+,6-,7+
