17
gdb 54713	4.41435	1.19861	1.09329	3.9436	73.79	-0.2321	0.0184	0.2504	1122.8641	0.135408	-417.915976	-417.908177	-417.907233	-417.949042	29.142	
C	-0.0490907862	 1.4776955435	-0.1408548395	-0.484865
C	 0.0103253834	-0.0376755157	-0.0397067593	 0.363932
O	 0.969008704	-0.6923453006	-0.3988589158	-0.352745
N	-1.086133196	-0.6221696634	 0.5697569165	-0.110614
C	-2.5247947039	-0.3959419523	 0.2494294916	-0.05904
C	-2.564477909	-1.5164916333	-0.8598609019	-0.033016
N	-3.6837325554	-2.2921478176	-0.2407005074	-0.341939
C	-2.9324318606	-1.745019135	 0.9330947009	-0.031853
C	-1.5577841579	-1.992663866	 0.2430925732	-0.005877
H	 0.9649215549	 1.8645911783	-0.2442300826	 0.149007
H	-0.6193171516	 1.7679033734	-1.0311180685	 0.137807
H	-0.5346540789	 1.9254517064	 0.7299962795	 0.133828
H	-3.0133374976	 0.5782689884	 0.285876945	 0.09672
H	-2.405915657	-1.4286757509	-1.9353069742	 0.101352
H	-4.5704576441	-1.7956491428	-0.3586868793	 0.214394
H	-3.2046468634	-1.9215024115	 1.973243803	 0.099074
H	-0.9234843405	-2.8735891111	 0.2597637187	 0.123836
70.7032	97.1575	113.9691	170.4845	364.4111	447.2426	511.5288	577.5767	629.8304	674.5764	745.562	782.8354	815.3738	827.9923	896.2259	904.7817	935.3404	969.6787	1038.0571	1042.5686	1049.9964	1053.8359	1099.8832	1104.0461	1153.3629	1157.563	1163.6939	1167.7048	1215.5239	1268.4229	1293.7368	1341.2141	1365.4579	1395.6269	1470.6687	1481.26	1777.6431	3041.3785	3109.6561	3111.2777	3120.0572	3131.419	3156.9493	3181.6796	3409.4621
CC(=O)N1C2C3NC2C13	CC(=O)N1[C@H]2[C@@H]3N[C@H]2[C@H]13	
InChI=1S/C6H8N2O/c1-2(9)8-5-3-6(8)4(5)7-3/h3-7H,1H3	InChI=1S/C6H8N2O/c1-2(9)8-5-3-6(8)4(5)7-3/h3-7H,1H3/t3-,4+,5-,6+
