20
gdb 80765	3.26293	1.04847	0.92138	3.3821	82.28	-0.2555	0.0259	0.2813	1338.1425	0.170768	-403.116788	-403.10784	-403.106896	-403.151276	33.122	
C	-0.1073426548	 1.5485823301	-0.0774779885	-0.419181
C	 0.0894002628	 0.0515060703	 0.0505764046	 0.007611
C	 1.3690128317	-0.6975117511	-0.1806570354	-0.071089
C	 2.5775482768	 0.0847817351	 0.3490573705	-0.281168
C	 1.945160344	 0.0121294017	 1.7755941024	 0.132051
O	 1.7094215699	 1.2322016082	 2.4749111823	-0.18951
C	 2.6168910084	 1.6059593119	 3.3952561803	 0.124095
N	 2.5396360964	 2.74098869	 3.9426663218	-0.444794
C	 0.7107674313	-0.6748791572	 1.218914194	-0.111991
H	 0.7174871975	 2.1210043904	 0.3477223116	 0.143264
H	-0.2198137036	 1.831183637	-1.1303551483	 0.109844
H	-1.015325643	 1.857631861	 0.4506029076	 0.122348
H	-0.7633275304	-0.5153316599	-0.3213622296	 0.088609
H	 1.4350928539	-1.5337334041	-0.8652731253	 0.089239
H	 3.5223962877	-0.4590430624	 0.2859313348	 0.105058
H	 2.7201398796	 1.0893273879	-0.0570803078	 0.114046
H	 2.5174089008	-0.6651517862	 2.4200328216	 0.088308
H	 3.3730650589	 0.8339226661	 3.6008104124	 0.080256
H	 3.2842933511	 2.8442411306	 4.6289615256	 0.226994
H	 0.1784196411	-1.4630984693	 1.7381308056	 0.086008
46.7495	96.2901	109.9185	176.5047	231.8776	260.5603	355.276	394.6259	428.3066	538.0929	659.6039	721.832	729.805	796.529	821.0417	870.9211	883.5546	967.0483	981.5609	981.8481	1028.394	1045.1058	1045.7835	1061.0631	1071.1228	1095.3888	1127.8793	1143.167	1175.0844	1218.2431	1240.8989	1269.775	1293.2525	1315.3316	1351.698	1388.1811	1420.7293	1429.3705	1447.742	1485.7794	1497.38	1506.4383	1744.1747	3006.0591	3036.3978	3036.9352	3066.1596	3093.7841	3114.5297	3117.6875	3148.0279	3176.407	3192.305	3516.0595
CC1C2CC(OC=N)C12	C[C@H]1[C@H]2C[C@@H](O[CH][NH])[C@@H]12	
InChI=1S/C7H11NO/c1-4-5-2-6(7(4)5)9-3-8/h3-8H,2H2,1H3	InChI=1S/C7H11NO/c1-4-5-2-6(7(4)5)9-3-8/h3-8H,2H2,1H3/t4-,5+,6+,7-/m0/s1
