19
gdb 89895	4.12689	1.12905	1.07523	0.9899	75.16	-0.2381	0.0745	0.3126	1192.9341	0.158193	-422.973025	-422.964924	-422.963979	-423.006024	31.301	
C	 0.4888218372	 1.51416902	 0.0609205214	-0.395659
C	-0.0649177061	 0.1150076234	-0.1145727185	 0.152969
C	 0.4540310133	-0.7364333279	-1.2945896672	-0.375072
C	 0.9842446171	-1.6792236018	-0.2048566002	 0.454944
C	 0.6040742631	-3.1941995856	-0.0605320633	-0.332687
C	 2.1027140526	-3.5116704321	 0.0022717298	 0.038562
O	 2.6880835769	-2.9884850619	-1.1992677827	-0.247851
C	 2.4640253845	-2.09021105	-0.1044440873	-0.060808
O	 0.4983814405	-0.826053758	 0.8429609333	-0.34045
H	 1.5781296294	 1.5184310889	-0.0464605198	 0.117409
H	 0.0623591292	 2.1900480086	-0.6886393363	 0.117273
H	 0.2396646123	 1.9029797441	 1.0532425943	 0.127599
H	-1.1590514061	 0.1261979863	-0.0262858149	 0.077413
H	-0.309940242	-1.1590796223	-1.9485618571	 0.112606
H	 1.2271146028	-0.2637985742	-1.9044353243	 0.114857
H	 0.0887740241	-3.3482739254	 0.8909150163	 0.12221
H	 0.0487245619	-3.6634777175	-0.8765593796	 0.105993
H	 2.6165020781	-4.3337827976	 0.4859763296	 0.106533
H	 3.306312851	-1.524784837	 0.2786647064	 0.10416
52.9011	121.1109	212.2086	235.4794	341.9803	350.8941	388.7985	413.8038	502.1684	554.4025	763.8311	792.5188	832.4189	850.3825	865.6327	892.5092	911.9072	920.5883	944.7121	970.5995	984.3845	1038.5282	1067.4357	1101.4949	1104.6654	1149.8134	1162.2484	1200.9369	1206.2586	1222.5612	1242.5787	1267.0734	1306.9755	1320.5815	1379.702	1390.5438	1411.3353	1459.6849	1482.3945	1488.3307	1495.2922	3015.6197	3032.5693	3062.0326	3076.1806	3105.0666	3111.8098	3126.1502	3131.7776	3178.906	3196.7631
CC1CC2(CC3OC23)O1	C[C@H]1C[C@]2(C[C@H]3O[C@@H]23)O1	
InChI=1S/C7H10O2/c1-4-2-7(9-4)3-5-6(7)8-5/h4-6H,2-3H2,1H3	InChI=1S/C7H10O2/c1-4-2-7(9-4)3-5-6(7)8-5/h4-6H,2-3H2,1H3/t4-,5+,6+,7+/m0/s1
