17
gdb 67058	2.93842	1.71559	1.42733	3.215	74.34	-0.2276	-0.0153	0.2123	948.1483	0.135523	-417.867613	-417.860057	-417.859113	-417.899284	30.031	
C	-0.1217111681	 1.5302064374	-0.1276558717	-0.477583
C	-0.0513813828	 0.0257937964	 0.0177076495	 0.200981
N	-1.2017124247	-0.6100165265	 0.9559219423	-0.196074
C	-0.3547387333	-1.8783941242	 0.8851549162	-0.197947
C	 0.7187113721	-0.7815351802	 1.0265617808	 0.23481
C	-0.2358533796	-0.1912079419	 2.1172914553	-0.244125
N	 1.9088362171	-0.7987860985	 0.1608922469	-0.423941
C	 1.0593309806	-0.5808518844	-0.9765638984	 0.297803
O	 1.2629962367	-0.7044268024	-2.1440463587	-0.315019
H	 0.8764697734	 1.9815413556	-0.1062606539	 0.137601
H	-0.5676612823	 1.7703467264	-1.0983847644	 0.145249
H	-0.7386133	 1.9973328447	 0.6432520073	 0.130637
H	-0.5185211043	-2.5599862047	 1.7227422229	 0.101732
H	-0.4276114384	-2.3918156067	-0.0778951657	 0.120337
H	-0.2059855371	 0.8763615926	 2.3250302393	 0.124562
H	-0.4101490701	-0.7786211956	 3.0215185762	 0.116819
H	 2.641051641	-1.5024766178	 0.1519112862	 0.244159
133.3597	145.3088	241.3685	276.6998	327.0483	411.544	486.0026	544.1136	578.5138	594.84	630.0057	720.2956	724.3525	773.9418	818.9574	851.8762	865.5972	944.302	982.5997	1028.3201	1055.2894	1064.6527	1097.7346	1109.7635	1154.0655	1165.0577	1179.7455	1200.053	1240.0988	1291.8667	1313.9391	1405.5881	1479.5863	1487.8367	1513.0358	1544.0465	1891.3919	3036.2912	3054.0796	3081.0532	3098.4467	3122.1738	3125.4939	3169.7375	3527.8297
CC12N3CC1(C3)NC2=O	C[C@]12N3C[C@@]1(C3)NC2=O	
InChI=1S/C6H8N2O/c1-5-4(9)7-6(5)2-8(5)3-6/h2-3H2,1H3,(H,7,9)	InChI=1S/C6H8N2O/c1-5-4(9)7-6(5)2-8(5)3-6/h2-3H2,1H3,(H,7,9)/t5-/m1/s1
