17
gdb 90313	2.66533	1.62131	1.07557	3.653	75.35	-0.2403	-0.0108	0.2295	1107.0726	0.136879	-418.035258	-418.027345	-418.026401	-418.068241	29.475	
C	-0.5353774624	 1.5136935086	-0.5122199546	-0.399038
C	 0.0075538537	 0.1658751406	-0.0784399094	 0.044828
C	 1.3204741692	-0.3674709492	-0.7841209147	-0.394625
C	 1.9316663063	-0.3658695328	 0.608425367	 0.418358
N	 2.9129330868	-0.6917385038	 1.3494252763	-0.359203
C	 2.4152471414	-0.3325566322	 2.6988808713	-0.298579
C	 0.9413004498	 0.1774532313	 2.5700559984	 0.360636
O	 0.1569847812	 0.4916685073	 3.4264753086	-0.356745
N	 0.7986557432	 0.1725139507	 1.1861217472	-0.118119
H	 0.2609723371	 2.2631712078	-0.5468294129	 0.129356
H	-0.9834197627	 1.4346099256	-1.5079260821	 0.129361
H	-1.3055188072	 1.8614391306	 0.1821506229	 0.146716
H	-0.7862496636	-0.586293663	-0.0433974483	 0.112546
H	 1.2422926753	-1.3467858209	-1.2584675751	 0.144285
H	 1.7691011567	 0.3421301345	-1.48269204	 0.141343
H	 2.4507674566	-1.1984910526	 3.3676530752	 0.149461
H	 3.0346244184	 0.4514588074	 3.1482237803	 0.14942
55.5772	116.206	203.0602	238.5665	265.691	382.95	410.2605	509.3518	552.4961	626.4357	646.626	686.8024	745.2323	824.1773	902.1588	937.8004	961.0475	985.3065	1064.2872	1067.1932	1090.1509	1107.8819	1171.8771	1181.7959	1217.504	1239.4335	1251.6188	1291.3738	1359.753	1377.3602	1413.5513	1439.953	1464.0547	1486.7102	1495.8204	1744.826	1847.3952	3040.6066	3055.2543	3065.2668	3084.4224	3096.0229	3115.33	3121.289	3142.5733
CC1CC2=NCC(=O)N12	C[C@H]1CC2=NCC(=O)N12	
InChI=1S/C6H8N2O/c1-4-2-5-7-3-6(9)8(4)5/h4H,2-3H2,1H3	InChI=1S/C6H8N2O/c1-4-2-5-7-3-6(9)8(4)5/h4H,2-3H2,1H3/t4-/m0/s1
