21
gdb 75547	2.36174	1.68753	1.11304	1.3992	85.79	-0.2231	0.0265	0.2495	1151.3345	0.183482	-387.087849	-387.079438	-387.078494	-387.120478	33.323	
C	-0.099918688	 1.5253658601	 0.0090246342	-0.49923
C	-0.0219389285	 0.0221145395	 0.0070727261	 0.257669
C	-0.0191431238	-0.6807988466	-1.1303974223	-0.183973
C	 0.0892396373	-2.1794619349	-1.1825723242	-0.128163
O	 0.4251078974	-2.7640328464	 0.0611152429	-0.247203
C	-0.3064298808	-2.1887908106	 1.1272735816	-0.162897
C	 0.0367219655	-0.7206656244	 1.3037559776	 0.279355
C	 1.078115856	-0.3564440603	 2.3471752575	-0.299719
C	-0.3761670388	-0.0819067257	 2.6125602553	-0.319914
H	 0.7256553162	 1.9779102896	 0.5722778767	 0.12497
H	-0.0595215036	 1.9177883476	-1.0101686297	 0.122174
H	-1.0290548747	 1.8811068199	 0.4704728086	 0.127562
H	-0.0959907228	-0.1744020178	-2.0898839651	 0.080876
H	-0.8544535414	-2.6106871756	-1.56890992	 0.092421
H	 0.8788815762	-2.4808909273	-1.881837588	 0.114577
H	-1.3904537682	-2.2958673435	 0.9487688792	 0.085562
H	-0.0531061962	-2.7634915633	 2.0236383029	 0.098612
H	 1.5593125808	-1.1730832002	 2.87511876	 0.117458
H	 1.7291127478	 0.4877993498	 2.1488822934	 0.114424
H	-0.7139046792	 0.9478727402	 2.6080174509	 0.113794
H	-0.8958460012	-0.71112853	 3.3286790824	 0.111648
88.6083	183.3788	225.8268	256.4353	278.7073	289.9685	357.3086	382.624	439.8084	509.9982	590.6732	658.6092	731.9506	784.6008	809.2152	848.3023	898.2529	937.5422	952.3761	967.8323	1003.316	1028.4738	1046.1249	1054.0497	1066.1636	1072.1924	1086.0293	1150.6714	1178.9636	1190.7346	1244.5793	1281.0359	1303.6392	1331.0048	1371.6284	1400.665	1412.7509	1425.2501	1466.103	1482.9974	1486.2208	1493.42	1497.6896	1507.4796	1725.8739	2917.9074	2955.6037	3020.8985	3042.8538	3068.3883	3074.5035	3112.7568	3129.9375	3133.6478	3151.8092	3208.8894	3222.8963
CC1=CCOCC11CC1	CC1=CCOCC21CC2	
InChI=1S/C8H12O/c1-7-2-5-9-6-8(7)3-4-8/h2H,3-6H2,1H3	InChI=1S/C8H12O/c1-7-2-5-9-6-8(7)3-4-8/h2H,3-6H2,1H3
