16
gdb 49613	2.61336	1.54717	1.0904	5.6085	69.55	-0.243	-0.0364	0.2066	1077.8046	0.12411	-437.894309	-437.886489	-437.885545	-437.927517	28.9	
O	-0.2231495218	 0.0652144368	 0.2024878725	-0.244774
C	-0.0701925809	 1.2460566946	 0.0341527496	 0.168015
C	 1.2801959279	 1.939265908	 0.0372480172	-0.189532
C	 1.5043381117	 2.8579033848	-1.1477715167	-0.075171
N	 0.5896559642	 4.0186747063	-1.1302412498	-0.333639
C	 1.983206593	 4.1921855007	-0.6825158839	-0.043561
C	 2.0990648232	 4.1979427315	 0.8215394643	-0.318726
C	 1.4354488966	 2.88394124	 1.2670995613	 0.373524
O	 1.0945606264	 2.6108031316	 2.3835089146	-0.290752
H	-0.9235719299	 1.9309586533	-0.1483751189	 0.102331
H	 2.0549676711	 1.1669664756	 0.1066679257	 0.12141
H	 1.8188102761	 2.443008814	-2.0988340182	 0.106161
H	 0.4711416918	 4.3837819155	-2.0711869106	 0.24252
H	 2.6649868665	 4.7778751052	-1.289022679	 0.101601
H	 3.146586132	 4.1876785799	 1.148122487	 0.134371
H	 1.6046840619	 5.0438250121	 1.305427585	 0.146223
58.7639	77.1942	179.8692	218.4139	354.1291	404.5655	454.705	495.8974	546.3405	652.1938	664.2894	776.6539	816.602	848.6699	890.3157	926.1539	956.5934	991.2513	1056.7529	1066.9301	1082.5862	1097.9148	1141.1034	1154.5609	1184.7895	1225.8839	1229.8607	1280.104	1305.872	1371.7868	1412.4116	1423.081	1443.9613	1819.8688	1860.7201	2927.1363	3044.0135	3058.751	3109.5931	3170.1177	3179.9662	3517.4756
O=CC1C2NC2CC1=O	O=C[C@H]1[C@H]2N[C@H]2CC1=O	
InChI=1S/C6H7NO2/c8-2-3-5(9)1-4-6(3)7-4/h2-4,6-7H,1H2	InChI=1S/C6H7NO2/c8-2-3-5(9)1-4-6(3)7-4/h2-4,6-7H,1H2/t3-,4+,6-/m1/s1
