18
gdb 38384	4.00636	1.31584	1.22419	2.3654	75.54	-0.2305	0.0698	0.3003	1056.696	0.148627	-401.84128	-401.834192	-401.833248	-401.872826	28.275	
C	 0.1327741121	 1.4432143594	-0.0768162324	-0.238895
C	 1.3893103009	 0.6691370748	-0.0217977777	-0.12047
N	 0.0286502354	-0.0199728573	 0.0675171805	-0.125028
C	 0.266701142	-0.589045619	-1.3097553802	-0.268352
C	 1.6717645518	 0.0222551216	-1.3533220174	 0.364018
C	 2.4308233179	 0.4936664548	-2.5731638217	-0.227487
C	 3.7447675552	 1.1241916497	-2.1251321092	-0.090504
O	 4.0696320343	-0.0339462988	-1.3042024078	-0.287411
C	 2.897074084	-0.7086119095	-1.7701463427	 0.002221
H	-0.1729001107	 1.9754126117	 0.8189887853	 0.122833
H	-0.1766826832	 1.9075916189	-1.0117785425	 0.109584
H	 2.0748264986	 0.6956518006	 0.8178847693	 0.109608
H	 0.2515031887	-1.6814237639	-1.2745784168	 0.11801
H	-0.4565946124	-0.2416330053	-2.0562878428	 0.104654
H	 1.9849913503	 0.5607595418	-3.5569596916	 0.099552
H	 4.4788818753	 1.2362131949	-2.9304585236	 0.112215
H	 3.6906316237	 2.0488645684	-1.5386601387	 0.110125
H	 2.9682329962	-1.7703483528	-1.9828803401	 0.105329
122.1037	154.0381	185.429	315.8605	424.8974	432.9421	550.1133	574.6071	735.8796	775.4198	789.3958	803.3106	866.356	874.4728	941.3601	954.3238	957.4855	994.0563	1012.9275	1017.3911	1050.7197	1055.7651	1086.3573	1101.491	1111.6585	1132.4227	1154.518	1171.6006	1198.4593	1211.4326	1236.3139	1258.2677	1285.9588	1322.6678	1355.3917	1453.3955	1490.1869	1505.1168	1513.0671	3025.7651	3035.1082	3075.7624	3096.1335	3097.0383	3164.5346	3175.5327	3194.7377	3197.9952
C1C2N1CC21C2COC12	C1[C@H]2N1C[C@]12[C@H]2CO[C@@H]12	
InChI=1S/C7H9NO/c1-5-7(3-8(1)5)4-2-9-6(4)7/h4-6H,1-3H2	InChI=1S/C7H9NO/c1-5-7(3-8(1)5)4-2-9-6(4)7/h4-6H,1-3H2/t4-,5+,6+,7+,8?/m0/s1
