20
gdb 109880	2.3629	1.54087	1.10394	2.6272	75.67	-0.2268	0.0698	0.2966	1168.26	0.169926	-440.230242	-440.22101	-440.220066	-440.263876	34.746	
C	 0.2371907656	 1.3858054928	 0.1184617094	-0.24263
O	-0.2251500005	 0.0991481608	-0.2499037335	-0.244178
C	 0.5698593081	-0.5117925005	-1.2194985971	 0.070614
C	 1.970238877	-1.1252663193	-0.7711812012	 0.100256
O	 2.2589374859	-1.0809299013	 0.5955430459	-0.436425
C	 1.4710090609	-2.4707080721	-1.3173335985	-0.137834
N	 0.3075786516	-2.7731827029	-0.4454608479	-0.388734
C	 0.1216284562	-1.9090320493	-1.64054996	 0.300386
C	-0.8660648896	-2.248080288	-2.7135875723	-0.516308
H	 1.2379595522	 1.3394251833	 0.5639182274	 0.131234
H	 0.2607529348	 2.0666044562	-0.7475466798	 0.097373
H	-0.4670236262	 1.78012368	 0.8549826808	 0.124109
H	 0.7002371976	 0.1384551118	-2.100294074	 0.056773
H	 2.820310083	-0.7013348712	-1.3089893231	 0.083194
H	 1.5209157889	-1.5447701685	 1.0180892527	 0.296538
H	 2.0281488686	-3.2632569041	-1.8026243938	 0.092637
H	-0.0292837403	-3.7034661158	-0.689082048	 0.229544
H	-1.8881788553	-2.0221996935	-2.3902912353	 0.1403
H	-0.6682093821	-1.6717594881	-3.6235196685	 0.126406
H	-0.8211755063	-3.3118082204	-2.9722356432	 0.116746
120.3946	122.745	170.2366	194.8757	214.6245	233.856	257.9197	342.1258	351.4938	504.1468	524.3046	553.1943	612.0248	709.4838	755.5205	813.8521	846.0185	918.8492	947.4592	965.6495	1018.7822	1036.0667	1078.2775	1098.3535	1105.9112	1134.094	1167.2704	1177.8799	1198.8823	1232.2698	1241.7757	1284.4273	1308.8018	1347.5282	1373.0905	1411.8338	1446.7907	1462.3091	1481.3694	1483.1143	1486.8336	1499.8434	1513.7095	2965.5022	2978.8258	3027.0006	3060.4652	3093.5836	3096.8059	3098.174	3118.4668	3186.3965	3482.4379	3733.3947
COC1C(O)C2NC12C	CO[C@H]1[C@@H](O)[C@H]2N[C@@]12C	
InChI=1S/C6H11NO2/c1-6-4(7-6)3(8)5(6)9-2/h3-5,7-8H,1-2H3	InChI=1S/C6H11NO2/c1-6-4(7-6)3(8)5(6)9-2/h3-5,7-8H,1-2H3/t3-,4+,5-,6+/m0/s1
