22
gdb 16169	3.92334	1.51316	1.31422	0.172	81.33	-0.2526	0.0865	0.3391	1051.9203	0.202259	-313.084595	-313.076585	-313.075641	-313.116644	31.691	
C	 0.0529663045	 1.5262875883	 0.3734259076	-0.374941
C	 0.0226463257	 0.0390061385	-0.0030503484	-0.275464
C	-1.3756608784	-0.5171613604	-0.1704075349	 0.398216
C	-2.1372355592	-0.9894645975	 1.0492791033	-0.334632
C	-1.6911278755	-1.989443148	 0.0062106453	-0.078881
C	-2.7038940897	-2.4068697095	-1.0494446614	-0.212667
C	-3.3325208915	-1.0785827544	-1.5318699869	-0.227734
C	-2.2287900589	-0.0143063292	-1.3348699951	-0.264035
H	 1.0803561943	 1.8790098037	 0.5082385539	 0.107593
H	-0.4103416823	 2.1442053823	-0.402714036	 0.116336
H	-0.4907672051	 1.7049937456	 1.3071276376	 0.115991
H	 0.5857805388	-0.1110983122	-0.9349141566	 0.089696
H	 0.5478151792	-0.5391447279	 0.7677035032	 0.089716
H	-1.5976769001	-0.9904736314	 1.9912357809	 0.102202
H	-3.1935832353	-0.7612237627	 1.1530960763	 0.102652
H	-0.9087195636	-2.6904756427	 0.2796719301	 0.073275
H	-2.1799908437	-2.9056485182	-1.8742320695	 0.095509
H	-3.4572312321	-3.1097181297	-0.6763322755	 0.093648
H	-3.6816507205	-1.1316558236	-2.5665134239	 0.094484
H	-4.2069513745	-0.8317031122	-0.9216691001	 0.103334
H	-2.646750071	 0.9847836561	-1.1691707954	 0.093671
H	-1.5951443211	 0.0498760752	-2.2298290246	 0.092032
90.7669	154.4678	212.8186	242.5485	274.3615	346.4465	386.1243	430.7139	578.1196	624.5447	680.918	783.8489	815.0562	825.8651	885.4008	896.1893	917.4989	934.3644	969.8391	976.1889	997.3041	1047.6481	1061.3885	1075.8851	1088.7607	1096.869	1128.3064	1181.6667	1200.0887	1255.6717	1258.3906	1268.4839	1312.7319	1328.0174	1340.6841	1356.0375	1368.2811	1407.2273	1412.6089	1479.3654	1489.7456	1494.2744	1495.7153	1498.4628	1507.8826	1520.4257	3005.1622	3015.6795	3026.7928	3033.2888	3043.2682	3048.8445	3062.5613	3068.0743	3097.202	3102.5978	3102.9477	3120.8589	3155.1669	3200.9732
CCC12CC1CCC2	CC[C@]12C[C@H]1CCC2	
InChI=1S/C8H14/c1-2-8-5-3-4-7(8)6-8/h7H,2-6H2,1H3	InChI=1S/C8H14/c1-2-8-5-3-4-7(8)6-8/h7H,2-6H2,1H3/t7-,8+/m1/s1
