18
gdb 11418	5.67667	1.1698	1.01451	4.5866	67.69	-0.2619	0.0166	0.2785	1153.4712	0.154626	-384.997383	-384.989478	-384.988534	-385.029961	29.007	
C	 0.0107234764	 1.5935666507	 0.0171260003	-0.389762
C	 0.0709602888	 0.063252471	-0.0392194012	-0.197941
C	 0.6905754052	-0.5739099814	 1.2063256575	 0.01323
C	-0.10430486	-0.3399682209	 2.5062753707	-0.085935
O	 0.2161526645	-1.4379399082	 3.374158999	-0.217765
C	 0.7066780777	-2.4931654259	 2.6632633043	 0.427502
O	 1.0046633191	-3.5287069436	 3.1813378177	-0.334138
C	 0.7800651841	-2.1044398903	 1.1907352123	-0.384724
H	 1.0100655209	 2.0244100686	 0.1430802373	 0.120661
H	-0.4141619728	 2.0035029873	-0.9036970263	 0.121671
H	-0.6090676886	 1.9448685124	 0.8490210315	 0.122042
H	-0.9397207433	-0.3431171499	-0.1812627293	 0.099944
H	 0.6495798347	-0.2460689557	-0.917968906	 0.106467
H	 1.7004415992	-0.1679292615	 1.3494587127	 0.089147
H	 0.1575479562	 0.5825770382	 3.0278597272	 0.125654
H	-1.186742553	-0.3420003101	 2.3193098032	 0.110755
H	-0.0828678975	-2.5516538636	 0.6802136571	 0.134219
H	 1.6815157983	-2.5129517971	 0.7323943119	 0.138974
80.403	116.8894	181.5162	199.4122	247.4402	351.3917	409.2289	516.0407	529.7353	619.2615	693.4692	782.6652	835.9757	872.1109	915.4832	954.9028	989.4238	1038.118	1065.3811	1085.2896	1131.6421	1151.7385	1176.5893	1201.1598	1249.2725	1269.1439	1300.7731	1333.8296	1362.7065	1383.3259	1408.6121	1415.9786	1464.9605	1487.9642	1502.0395	1506.9003	1522.9986	1886.8746	3013.5883	3016.0525	3025.5694	3034.1274	3039.9587	3056.3381	3100.3838	3107.9038	3110.9444	3127.6054
CCC1COC(=O)C1	CC[C@H]1COC(=O)C1	
InChI=1S/C6H10O2/c1-2-5-3-6(7)8-4-5/h5H,2-4H2,1H3	InChI=1S/C6H10O2/c1-2-5-3-6(7)8-4-5/h5H,2-4H2,1H3/t5-/m1/s1
