16
gdb 87750	4.86447	0.9174	0.87809	4.595	70.43	-0.254	-0.0012	0.2528	1303.5036	0.122897	-437.848696	-437.840245	-437.839301	-437.882356	31.105	
O	 0.0482064583	 1.3570644425	 0.2956278347	-0.419522
C	 0.0020176811	-0.0266326605	 0.1199355647	 0.012685
C	-0.7074725162	-0.9080448722	 1.1444205315	-0.395197
C	-1.3390168928	-0.5956439206	-0.1741065411	 0.446125
C	-2.6179355832	 0.1595043253	-0.4990036803	-0.366992
C	-2.7647105654	-0.9115890951	-1.6160801583	-0.013539
O	-1.55706286	-1.581190697	-1.191866632	-0.303573
C	-3.9427649907	-1.7775219514	-1.5395917119	 0.27931
N	-4.8841933544	-2.4446422489	-1.4777678066	-0.315423
H	 0.6739245523	 1.5517820698	 1.0016395187	 0.294195
H	 0.8492933784	-0.4733676282	-0.4008529638	 0.104737
H	-0.3171708865	-1.9090446549	 1.2955279754	 0.134473
H	-1.1308462382	-0.4316139899	 2.0233810767	 0.125564
H	-3.3944349332	 0.1271897006	 0.265103227	 0.138868
H	-2.4794790412	 1.1804114937	-0.8534040373	 0.144884
H	-2.6702471381	-0.5263288532	-2.6372651775	 0.133405
43.3077	115.6678	196.5534	223.3703	244.8206	299.2664	373.4469	436.5595	465.6674	509.012	565.3394	624.9334	768.1612	814.2454	875.5975	899.2211	912.7126	987.1542	992.9629	1018.4087	1047.1786	1071.9678	1087.7417	1151.1687	1172.1076	1201.164	1240.5425	1267.4764	1292.227	1345.3986	1369.4116	1416.4513	1488.6551	1506.4598	2358.7948	3050.6187	3097.3391	3105.3068	3127.0267	3158.2386	3222.3386	3801.3433
OC1CC11CC(O1)C#N	O[C@H]1C[C@]21C[C@@H](O2)C#N	
InChI=1S/C6H7NO2/c7-3-4-1-6(9-4)2-5(6)8/h4-5,8H,1-2H2	InChI=1S/C6H7NO2/c7-3-4-1-6(9-4)2-5(6)8/h4-5,8H,1-2H2/t4-,5+,6+/m1/s1
