15
gdb 20712	6.57329	1.64345	1.34836	3.0687	68.39	-0.2426	0.0267	0.2693	900.1428	0.120931	-358.839367	-358.832389	-358.831445	-358.871333	24.801	
C	-0.2276636442	 1.4791558533	 0.0661534229	-0.481246
C	 0.0933943915	 0.0232066057	 0.0008357754	 0.332853
N	 0.0907638269	-0.644648015	-1.1643495852	-0.33562
N	 0.4287088458	-1.8769046099	-0.7192515097	 0.085212
C	 0.7196639761	-3.3023734314	-0.9589888134	-0.168552
C	 0.9458649374	-3.3849970603	 0.6116098243	-0.369145
C	 0.6070243031	-1.8989537503	 0.5937781727	 0.366587
N	 0.4089885921	-0.7115878625	 1.1308342831	-0.412375
H	 0.6117542785	 2.0416208569	 0.4868247265	 0.138292
H	-0.4463036393	 1.8599309549	-0.9327440481	 0.138719
H	-1.0929089865	 1.6555857265	 0.7128110129	 0.138295
H	-0.1300480514	-3.870296118	-1.3444939059	 0.141369
H	 1.6054459312	-3.4774631014	-1.5737309037	 0.141358
H	 0.2389139862	-4.0288651107	 1.13830472	 0.142127
H	 1.9650538825	-3.6378359079	 0.9100984481	 0.142126
45.2368	103.1786	223.8025	282.3702	291.9234	499.1461	599.1715	680.7115	707.76	800.4996	815.7151	839.8335	911.2304	975.2043	1028.515	1059.1621	1065.8915	1130.0348	1131.1039	1167.5094	1213.5512	1262.6556	1296.7253	1314.7423	1399.6593	1465.2099	1476.0202	1477.2276	1490.8482	1507.2766	1521.3559	1586.8722	3046.4013	3070.3017	3082.7578	3102.2555	3125.5054	3139.8932	3145.3352
CC1=NN2CCC2=N1	Cc1nn2CCc2n1	
InChI=1S/C5H7N3/c1-4-6-5-2-3-8(5)7-4/h2-3H2,1H3	InChI=1S/C5H7N3/c1-4-6-5-2-3-8(5)7-4/h2-3H2,1H3
