14
gdb 132659	3.19414	1.33544	0.94243	2.9342	69.55	-0.2001	-0.0142	0.1858	1123.7971	0.101711	-478.03049	-478.022962	-478.022018	-478.062178	29.522	
N	-0.0499226566	 1.391880954	-0.1441938746	-0.566895
C	-0.0196751733	 0.0113266034	-0.0598956251	 0.314442
N	-1.1691899406	-0.6461018569	 0.0228864146	-0.329661
C	-1.1616213886	-1.9865289391	 0.0411209995	-0.13607
C	 0.0118872661	-2.708696327	-0.0130736758	 0.244982
F	-0.0082589258	-4.0479218174	 0.0103660854	-0.083889
C	 1.2363366626	-2.0451241612	-0.0856134749	-0.361263
C	 1.2240041197	-0.6643390701	-0.1104110023	 0.33494
O	 2.3420342707	 0.1183430793	-0.1719798636	-0.454135
H	 0.7845871188	 1.8649304164	 0.1667011171	 0.259476
H	-0.9137080181	 1.7963487654	 0.1851856813	 0.25439
H	-2.1182632852	-2.4953539457	 0.1059161267	 0.115224
H	 2.1622571388	-2.6103170506	-0.120476778	 0.106331
H	 3.1271604015	-0.4388471004	-0.1786401203	 0.302129
145.0973	235.6581	305.2756	318.993	330.7726	384.0854	417.1996	471.9654	478.1951	509.3895	569.8961	588.7767	617.516	728.6931	781.7583	817.9393	873.394	911.1147	1008.796	1077.7561	1158.8341	1187.8632	1301.809	1328.5836	1332.8195	1377.9606	1476.7582	1536.9483	1617.7565	1633.57	1665.9207	3179.0696	3183.3931	3575.6912	3692.291	3824.2552
NC1=NC=C(F)C=C1O	Nc1ncc(F)cc1O	
InChI=1S/C5H5FN2O/c6-3-1-4(9)5(7)8-2-3/h1-2,9H,(H2,7,8)	InChI=1S/C5H5FN2O/c6-3-1-4(9)5(7)8-2-3/h1-2,9H,(H2,7,8)
