22
gdb 13136	3.52375	1.1157	0.94668	1.4616	78.09	-0.2522	0.0752	0.3274	1320.0571	0.200083	-350.20008	-350.190901	-350.189957	-350.23401	34.236	
C	-0.1794449579	 1.5641215421	 0.3014482594	-0.380586
C	-0.0923624817	 0.0534327545	 0.0686936529	-0.168543
C	-1.4631013516	-0.6341811224	 0.0570484847	-0.186368
C	-1.3839660112	-2.1455204264	-0.1638494483	-0.031835
C	-0.9905787504	-2.9710601567	 1.0998758271	-0.228792
C	-2.4938499066	-3.2758470252	 1.3485616914	-0.258041
C	-2.7669398483	-2.8768165328	-0.1241575159	 0.148962
O	-3.9455958558	-2.1917814895	-0.4676572344	-0.430643
H	 0.8121294171	 2.0274630508	 0.2949255686	 0.111897
H	-0.7794129681	 2.050600056	-0.4757690987	 0.114421
H	-0.6455357801	 1.7905670118	 1.2671017255	 0.111819
H	 0.4121715731	-0.1432327575	-0.8863587787	 0.0971
H	 0.5389467252	-0.4007872437	 0.8429947092	 0.098426
H	-1.9766344477	-0.4155533926	 1.0059092309	 0.07966
H	-2.0822194204	-0.1921213039	-0.7352069802	 0.101376
H	-0.7886030386	-2.3433005302	-1.061684065	 0.062271
H	-0.4213392173	-3.8696886544	 0.8493108575	 0.102108
H	-0.4577543632	-2.4368022134	 1.8904565758	 0.09726
H	-2.7776955908	-4.2817317999	 1.6665394189	 0.099087
H	-2.9434767033	-2.5570344362	 2.0422415924	 0.093237
H	-2.7469685073	-3.7575560516	-0.7730764363	 0.088089
H	-4.0315639949	-1.4330612987	 0.1185998133	 0.279098
86.0058	104.7532	127.8109	146.3184	249.9217	260.3514	315.3098	319.0858	402.6978	442.2272	552.1361	652.6099	747.3072	755.2595	838.6874	870.5471	896.9861	920.9089	934.4045	964.0986	993.7106	1045.298	1063.4148	1083.1158	1116.7208	1143.3773	1165.845	1206.3672	1229.5181	1251.652	1257.0867	1265.7022	1296.6383	1306.8693	1321.117	1334.3284	1371.3225	1398.5854	1412.1117	1437.073	1479.9933	1484.2287	1494.1437	1499.8723	1501.0655	1511.0971	2987.429	3018.6846	3027.9822	3029.9122	3041.4192	3047.3244	3056.8054	3061.3598	3068.2782	3095.014	3100.579	3101.2469	3115.9484	3816.8177
CCCC1CCC1O	CCC[C@H]1CC[C@H]1O	
InChI=1S/C7H14O/c1-2-3-6-4-5-7(6)8/h6-8H,2-5H2,1H3	InChI=1S/C7H14O/c1-2-3-6-4-5-7(6)8/h6-8H,2-5H2,1H3/t6-,7+/m0/s1
