14
gdb 66975	2.65921	1.73977	1.30491	3.9951	64.74	-0.2462	0.0126	0.2588	945.7163	0.10065	-436.616021	-436.608914	-436.60797	-436.647559	27.512	
O	-0.1785393804	 1.3668610509	 0.0772448155	-0.44565
C	 0.0001502857	 0.0116740063	 0.0495631875	 0.334183
C	-0.1875707916	-0.8734347997	-1.2011039893	 0.016582
O	 0.5304271522	-2.0881856399	-0.9947960567	-0.271031
C	 0.049179062	-2.0410931232	 0.3691397038	 0.055508
C	-1.0953956037	-1.0373732987	-0.0216147867	-0.203259
C	 0.8372821725	-0.8516836572	 1.0153730535	-0.23095
C	 2.2903511681	-0.8433579115	 0.9246576596	 0.267653
N	 3.443279245	-0.8083944402	 0.8485857329	-0.325313
H	 0.5483548413	 1.7880880403	-0.397173971	 0.304484
H	-0.3443330002	-0.4967682868	-2.2028400192	 0.128192
H	-0.0258866166	-3.0087138668	 0.8570596233	 0.111867
H	-2.1641781627	-1.0057157516	 0.1308709101	 0.123115
H	 0.5108151484	-0.6835959019	 2.0444714566	 0.134619
126.156	136.4648	284.5066	337.212	357.7451	400.4507	467.4575	556.8622	577.1803	702.9069	757.2206	792.6427	823.923	847.9978	891.7718	936.3181	956.1659	964.6257	1007.0097	1030.215	1065.0746	1117.2288	1135.7152	1183.9048	1193.3894	1275.1235	1287.3658	1315.665	1347.5467	1452.8295	2354.7517	3095.0616	3167.7687	3216.5407	3231.7632	3785.6137
OC12C3OC(C13)C2C#N	O[C@]12[C@H]3O[C@H]([C@@H]13)[C@H]2C#N	
InChI=1S/C6H5NO2/c7-1-2-4-3-5(9-4)6(2,3)8/h2-5,8H	InChI=1S/C6H5NO2/c7-1-2-4-3-5(9-4)6(2,3)8/h2-5,8H/t2-,3-,4+,5+,6+/m1/s1
