18
gdb 102234	1.89877	1.18437	0.8568	5.0843	74.32	-0.2544	0.0055	0.2599	1401.8193	0.146384	-435.303859	-435.293319	-435.292374	-435.341026	35.957	
C	 0.0089484646	 1.5028447562	-0.09122087	-0.495897
C	 0.0365980109	 0.0060026745	 0.1622228754	 0.416605
O	 1.0075489776	-0.5785175788	 0.5937308666	-0.34473
N	-1.1446547802	-0.6450803828	-0.1395582356	-0.32711
C	-1.2267375973	-2.0982148731	-0.1437357075	-0.10217
C	-2.4459284927	-2.6060794117	 0.6511709709	-0.15826
N	-2.2871304268	-2.2528549123	 2.0542801398	-0.506713
C	-1.2624833311	-2.617449932	-1.5222275794	 0.266636
N	-1.3267981206	-3.0119725805	-2.6064811734	-0.31812
H	 0.7431069513	 1.9816963951	 0.5566623215	 0.159594
H	 0.2912910068	 1.6977387564	-1.1315799851	 0.15817
H	-0.9785152629	 1.9399548076	 0.0814342036	 0.126064
H	-1.8538207016	-0.1396873584	-0.649108059	 0.253048
H	-0.3123765711	-2.4443777736	 0.3482692226	 0.179457
H	-3.3616207614	-2.22034564	 0.1682167865	 0.091114
H	-2.4776518739	-3.6968001436	 0.5621766256	 0.13234
H	-2.3157156563	-1.2441171999	 2.1636329056	 0.233084
H	-3.0531345852	-2.6325985529	 2.599784822	 0.236887
40.4192	54.5841	74.156	112.5011	140.7737	177.1907	233.9008	273.6076	329.5997	399.3757	439.8727	505.0617	544.4041	578.761	599.8232	641.34	837.7597	871.9795	926.4703	988.7363	995.3211	1051.8158	1066.4699	1096.728	1129.5556	1208.783	1245.4475	1270.7251	1336.4204	1345.7021	1392.0258	1426.379	1466.5059	1484.5829	1500.2772	1521.4733	1650.9524	1800.9684	2356.3559	2940.8874	3046.5065	3075.5544	3088.817	3112.608	3159.2639	3507.5689	3588.1586	3619.1828
CC(=O)NC(CN)C#N	CC(=O)N[C@@H](CN)C#N	
InChI=1S/C5H9N3O/c1-4(9)8-5(2-6)3-7/h5H,2,6H2,1H3,(H,8,9)	InChI=1S/C5H9N3O/c1-4(9)8-5(2-6)3-7/h5H,2,6H2,1H3,(H,8,9)/t5-/m0/s1
