16
gdb 25803	4.08027	1.11027	0.8823	3.0483	76.76	-0.2483	-0.0606	0.1877	1289.7427	0.123069	-437.950904	-437.942127	-437.941183	-437.985147	30.653	
C	 0.0268363847	 1.4383598543	-0.0193428371	-0.477796
C	 0.0127242443	-0.0704900559	-0.1315213006	 0.295697
O	 1.0059863407	-0.741107478	-0.3088762572	-0.301843
C	-1.3214574421	-0.7038819174	-0.0092214017	 0.288852
N	-2.4712670184	-0.1225830463	 0.1813227245	-0.28967
C	-3.3811192632	-1.1565990675	 0.2191900743	-0.194166
C	-2.7284276298	-2.3419577646	 0.0464099533	 0.329166
C	-3.1461109518	-3.7639780463	-0.0077755214	-0.495632
O	-1.4070801375	-2.0578654241	-0.1006819228	-0.179781
H	 1.0528715941	 1.7918007844	-0.1237513571	 0.1395
H	-0.6085239708	 1.8839819443	-0.7907911047	 0.152438
H	-0.3868383603	 1.7529207641	 0.9436335334	 0.152436
H	-4.4362887082	-0.9874834563	 0.3665525536	 0.129036
H	-2.8816089476	-4.2183717973	-0.9685615208	 0.153407
H	-2.6592975294	-4.3503143919	 0.7788349472	 0.153404
H	-4.2275054048	-3.8380788215	 0.124164227	 0.144952
59.6346	103.6655	130.4869	154.1046	159.1421	284.4456	307.205	382.8329	524.0362	562.5364	611.9169	661.0943	695.0588	739.8239	856.3953	945.2613	969.5168	1010.982	1031.5807	1043.2034	1065.3714	1135.8708	1155.528	1245.4258	1294.4452	1375.3875	1398.6779	1419.8839	1458.4681	1466.6858	1472.1515	1487.5494	1546.3803	1620.1076	1787.9981	3039.4558	3051.211	3094.8078	3115.0044	3135.7666	3160.7529	3261.2783
CC(=O)C1=NC=C(C)O1	CC(=O)c1ncc(C)o1	
InChI=1S/C6H7NO2/c1-4-3-7-6(9-4)5(2)8/h3H,1-2H3	InChI=1S/C6H7NO2/c1-4-3-7-6(9-4)5(2)8/h3H,1-2H3
