17
gdb 95104	2.61458	1.57255	1.18466	1.9977	75.12	-0.2581	0.0155	0.2736	1069.4732	0.13428	-421.778454	-421.770144	-421.7692	-421.811133	31.681	
C	 0.1617439679	 1.5613363653	-0.044889475	-0.407955
C	 0.0558262196	 0.0466343047	 0.0033408107	 0.045591
O	 0.7404868291	-0.4996523199	-1.1238971721	-0.274481
C	 1.2936053267	-1.7662925184	-0.7983847184	-0.110764
C	 1.516348764	-1.7343311292	 0.6972097671	-0.063812
O	 2.1599979197	-0.5414503869	 1.1429367739	-0.289643
C	 0.7204071879	-0.6092617362	 1.2162720876	 0.256393
C	 0.103347305	-0.5472963663	 2.5066047669	 0.203912
C	-0.4494791034	-0.4580400662	 3.5702518292	-0.360874
H	 1.2096827457	 1.8620929997	 0.0273324073	 0.13882
H	-0.2485568643	 1.9359122106	-0.9859903079	 0.128338
H	-0.3979359571	 2.0078052159	 0.7822127087	 0.124949
H	-1.0019649493	-0.2650945265	 3.5303*^-6	 0.076624
H	 0.6097362219	-2.594493797	-1.0473250034	 0.099654
H	 2.2161437912	-1.8888651493	-1.3750399168	 0.123662
H	 1.7130115196	-2.6377030893	 1.2675653627	 0.11387
H	-0.9265845944	-0.3878064409	 4.5166440392	 0.195716
110.1705	141.724	169.0101	229.1211	248.4691	328.6408	383.9322	473.6307	521.2137	533.3854	594.4237	622.969	672.5228	678.2432	772.5446	847.8088	886.2718	910.1494	944.3135	1005.5522	1052.4509	1084.604	1105.7067	1124.2456	1138.2814	1199.902	1236.9581	1278.495	1329.1489	1372.3973	1375.5616	1405.4662	1440.8683	1485.1964	1498.3501	1504.0904	2242.7182	2966.9907	2976.3617	3049.7131	3075.2367	3124.8465	3135.7827	3163.7042	3500.9897
CC1OCC2OC12C#C	C[C@H]1OC[C@H]2O[C@@]12C#C	
InChI=1S/C7H8O2/c1-3-7-5(2)8-4-6(7)9-7/h1,5-6H,4H2,2H3	InChI=1S/C7H8O2/c1-3-7-5(2)8-4-6(7)9-7/h1,5-6H,4H2,2H3/t5-,6-,7+/m1/s1
