20
gdb 95043	2.13737	1.99694	1.20328	3.5379	78.81	-0.2356	0.0158	0.2513	1076.6091	0.172956	-403.186903	-403.178834	-403.17789	-403.219504	31.382	
C	-0.1890003794	 1.5623128772	-0.0126507354	-0.40133
C	 0.0098635697	 0.0517563128	-0.0034419765	 0.030872
C	 0.7447347353	-0.5298973706	-1.2390564245	-0.21588
C	 1.3134413576	-1.8903555537	-0.7639858627	-0.246882
C	 1.4616868229	-1.7477214893	 0.7721867461	 0.032616
C	 2.793992119	-1.2392848843	 1.3845821135	-0.389972
C	 2.0651075542	 0.1134030041	 1.5244481091	 0.401197
O	 2.3798267705	 1.2332212202	 1.822976981	-0.352462
N	 0.8439922499	-0.4357126069	 1.1043612963	-0.104272
H	 0.7655453764	 2.0882916918	-0.0794265879	 0.145059
H	-0.8085302715	 1.8455175226	-0.8692307223	 0.112475
H	-0.6913784987	 1.8953274123	 0.899219083	 0.131088
H	-0.9693209557	-0.4377826742	 0.091771139	 0.083726
H	 0.090699862	-0.6281917207	-2.1097439632	 0.102552
H	 1.5574085488	 0.1531038912	-1.5131786339	 0.110414
H	 0.6137336435	-2.699934782	-0.9928319388	 0.108213
H	 2.2595957814	-2.1383576042	-1.2525752408	 0.109447
H	 1.0073356263	-2.5856426642	 1.3069032315	 0.083807
H	 3.1155876269	-1.7094243012	 2.3161291377	 0.129777
H	 3.6397914108	-1.1923072707	 0.6938902789	 0.129555
92.4458	129.2818	178.6093	230.3364	294.7421	350.7326	434.1251	480.5205	540.1734	568.6108	629.4837	705.0883	764.6929	796.2737	839.721	896.0153	931.3544	956.0617	993.0269	999.3561	1039.8679	1050.864	1085.5302	1095.7741	1137.7874	1177.9588	1191.7193	1202.3031	1227.0472	1254.5884	1292.1108	1309.5378	1324.4834	1361.7452	1364.8123	1394.1253	1418.9996	1453.2544	1486.8883	1490.9562	1498.3104	1503.6564	1870.258	3002.8276	3040.7959	3049.1977	3052.808	3069.5425	3075.1029	3092.3914	3105.6558	3117.9496	3130.5339	3139.0856
CC1CCC2CC(=O)N12	C[C@H]1CC[C@H]2CC(=O)N12	
InChI=1S/C7H11NO/c1-5-2-3-6-4-7(9)8(5)6/h5-6H,2-4H2,1H3	InChI=1S/C7H11NO/c1-5-2-3-6-4-7(9)8(5)6/h5-6H,2-4H2,1H3/t5-,6-/m0/s1
