19
gdb 63812	3.32583	1.40837	1.39035	3.0869	73.96	-0.2271	0.0641	0.2912	1018.737	0.159144	-422.968258	-422.960642	-422.959698	-422.999894	31.172	
C	-0.1384781301	 1.5617801434	-0.0447527845	-0.452535
C	 0.0135637287	 0.041879391	-0.0191113971	 0.37877
O	-1.2672441325	-0.5901104501	-0.0210275711	-0.480622
C	 0.9462434777	-0.5208489845	-1.1496848343	-0.307188
C	 1.9617580569	-1.286597371	-0.3152220634	-0.035155
C	 1.2595307229	-1.9250915944	 0.9201193041	 0.050197
O	 2.4544018328	-1.7047024483	 1.7525334767	-0.321026
C	 2.2874250685	-0.4726938283	 0.9715163546	 0.041466
C	 0.749272377	-0.4859399765	 1.2075961492	-0.042345
H	 0.8327230464	 2.062693006	 0.0206695652	 0.119349
H	-0.6135380981	 1.8875672234	-0.978590146	 0.107337
H	-0.759976185	 1.8983224629	 0.7903275006	 0.126315
H	-1.7623374305	-0.2561839589	-0.7769399561	 0.274807
H	 0.3775251216	-1.1681339294	-1.8240134285	 0.101645
H	 1.4114602605	 0.2708049796	-1.7469651744	 0.096751
H	 2.7701442478	-1.8415953686	-0.7898996893	 0.078206
H	 0.7365294434	-2.8757835669	 1.0151195267	 0.096595
H	 3.0101515797	 0.3298020724	 1.1261935664	 0.087941
H	 0.3634204924	-0.2533272016	 2.1990266513	 0.079491
114.0653	230.4599	251.9738	291.1047	332.855	364.7771	411.2592	496.356	526.8558	594.9646	672.5862	768.1432	792.3208	822.3913	884.6371	895.428	905.5604	930.4192	950.9011	964.4183	983.9576	995.4498	1003.9687	1095.6179	1114.637	1137.3325	1152.6961	1173.3477	1178.4203	1196.0513	1235.9621	1253.7433	1263.017	1270.3681	1289.8037	1363.8859	1398.7217	1408.2138	1485.6232	1490.0471	1495.5161	3022.9937	3042.9486	3089.1004	3091.2784	3104.5461	3113.4969	3125.173	3133.6732	3142.8825	3802.0791
CC1(O)CC2C3OC2C13	C[C@@]1(O)C[C@@H]2[C@H]3O[C@@H]2[C@@H]13	
InChI=1S/C7H10O2/c1-7(8)2-3-5-4(7)6(3)9-5/h3-6,8H,2H2,1H3	InChI=1S/C7H10O2/c1-7(8)2-3-5-4(7)6(3)9-5/h3-6,8H,2H2,1H3/t3-,4+,5-,6+,7-/m1/s1
