20
gdb 108169	2.57087	1.45671	1.23957	1.7917	78.29	-0.2366	0.0185	0.2551	1128.4075	0.170957	-403.156754	-403.147897	-403.146953	-403.190335	33.134	
C	 0.415650203	 1.3707838447	-0.3805104485	-0.376259
C	-0.2349147297	 0.112482604	 0.2086667043	-0.273299
C	 0.5382294846	-0.4705446539	 1.3581563632	 0.395347
O	 1.8145364628	-0.9987771836	 0.9689196537	-0.244787
C	 2.005114883	-2.101080912	 1.7378259356	 0.078959
N	 1.1018133583	-2.4395082089	 2.5666604337	-0.252903
C	 0.0748910637	-1.4298031278	 2.452053651	-0.108513
C	 0.461249728	 0.0103392357	 2.7838807003	-0.088036
C	 1.6546644595	 0.3973765012	 3.6255430728	-0.415467
H	 1.4219075854	 1.1504462692	-0.7479557593	 0.133372
H	-0.1733930676	 1.7610462055	-1.215713715	 0.112961
H	 0.4985919753	 2.1601933742	 0.3735814871	 0.118069
H	-1.2450802751	 0.3436582809	 0.566171827	 0.104263
H	-0.3443498564	-0.6525731566	-0.569713379	 0.109099
H	 2.9425060752	-2.6172392066	 1.5682541179	 0.140365
H	-0.9469387711	-1.7619786481	 2.5959089775	 0.097934
H	-0.4176883851	 0.6302074573	 2.9488598711	 0.091947
H	 2.4869983073	-0.2990141136	 3.5060980232	 0.133715
H	 2.0134128666	 1.3959615862	 3.3552298948	 0.12014
H	 1.385975542	 0.4095585019	 4.686638259	 0.123093
80.3985	123.1048	141.5691	198.8039	224.5901	238.5015	313.3203	357.0088	475.5224	519.0792	622.5368	691.7642	731.0102	765.4878	795.8037	886.7601	912.7018	939.8971	953.8598	958.9777	982.9859	1041.6292	1058.0562	1096.3267	1114.8281	1130.9828	1140.5454	1151.8793	1219.9183	1247.6365	1297.5187	1337.6633	1341.0837	1367.0604	1408.8266	1419.3069	1452.0346	1475.2388	1489.9525	1497.2194	1502.2881	1508.6372	1666.6158	3030.3759	3039.6329	3040.742	3068.0998	3099.1422	3108.7064	3118.5487	3121.8563	3136.4164	3173.5196	3225.4693
CCC12OC=NC1C2C	CC[C@]12OC=N[C@H]1[C@H]2C	
InChI=1S/C7H11NO/c1-3-7-5(2)6(7)8-4-9-7/h4-6H,3H2,1-2H3	InChI=1S/C7H11NO/c1-3-7-5(2)6(7)8-4-9-7/h4-6H,3H2,1-2H3/t5-,6+,7-/m1/s1
