17
gdb 33544	2.21231	1.67259	1.17156	5.0216	72.06	-0.2591	-0.0034	0.2556	1078.8801	0.136464	-417.965469	-417.95712	-417.956176	-417.999032	30.384	
N	-0.1597853668	-1.1828712874	-0.207445774	-0.328344
C	-0.1055613731	-0.0329102885	-0.1082264256	 0.270198
C	-0.0551730467	 1.4329438451	 0.0464828011	 0.228919
C	-0.2128631231	 1.90984127	 1.5217326147	-0.322444
C	 1.2680187907	 2.3138279317	 1.3989690697	-0.073034
O	 1.3086093028	 1.9069088256	 0.0047111741	-0.307403
C	-0.9235225615	 2.1035019438	-1.0024318266	-0.035447
C	-0.6494298081	 3.5080402011	-1.3849662403	-0.251212
N	-0.352449978	 2.4049204632	-2.317428478	-0.315141
H	-0.9155903157	 2.7360347396	 1.6290021718	 0.132356
H	-0.4388144233	 1.1299036017	 2.2473350585	 0.140432
H	 1.4947826541	 3.378271178	 1.5113804857	 0.120862
H	 1.966492222	 1.7259238277	 2.0026345925	 0.128696
H	-1.9442785416	 1.7273212469	-1.0265122207	 0.11276
H	-1.4718215104	 4.1525503455	-1.6804735653	 0.124383
H	 0.1882924996	 4.0084702713	-0.9094209674	 0.123016
H	 0.6496897292	 2.2215333549	-2.2900041001	 0.251401
73.6245	86.7235	148.0724	191.7268	215.7007	280.6025	416.6335	463.5834	544.1811	567.4548	644.6445	779.7624	835.0539	866.1801	874.4909	922.9343	958.1953	968.5992	1004.4814	1007.2186	1041.4495	1109.0468	1141.6017	1153.3944	1168.1526	1182.7804	1215.9411	1227.6864	1261.3971	1275.6146	1306.387	1347.7547	1407.8684	1484.0331	1498.0188	1528.3918	2353.575	3045.8148	3093.7262	3099.3713	3119.1836	3132.3511	3162.3108	3209.0658	3486.1395
N#CC1(CCO1)C1CN1	N#C[C@]1(CCO1)[C@H]1CN1	
InChI=1S/C6H8N2O/c7-4-6(1-2-9-6)5-3-8-5/h5,8H,1-3H2	InChI=1S/C6H8N2O/c7-4-6(1-2-9-6)5-3-8-5/h5,8H,1-3H2/t5-,6-/m1/s1
