17
gdb 24379	3.53326	1.60225	1.11731	3.3553	79.05	-0.2069	0.0287	0.2355	1044.9118	0.140382	-380.932175	-380.925344	-380.9244	-380.963345	27.361	
C	-0.0261656662	 1.5070139437	-0.1405777671	-0.411324
C	 1.3586168885	 2.059393446	 0.1136189828	-0.044393
C	 2.439449556	 1.3238119479	 0.3775051934	-0.040127
C	 2.4711238403	-0.1826014221	 0.4685687932	-0.392427
C	 1.113427822	-0.7511268169	 0.2204024548	 0.250503
C	 0.0172794258	 0.02148302	-0.0487235487	 0.286389
N	-1.0214398727	-0.8708778297	-0.2130819822	-0.340556
C	-0.5020907158	-2.1235050719	-0.0361702318	-0.008739
N	 0.7833447652	-2.0890798117	 0.2270199864	-0.329194
H	-0.7356966265	 1.9397959469	 0.5828927624	 0.114753
H	-0.3838742925	 1.8443985474	-1.1266532445	 0.114734
H	 1.447450272	 3.14176776	 0.0711919454	 0.085611
H	 3.3873799312	 1.8296438015	 0.5443754531	 0.086647
H	 3.202088939	-0.5843849865	-0.2486776971	 0.121434
H	 2.8507051552	-0.4887526362	 1.4546677117	 0.121433
H	-1.9795422076	-0.6459667529	-0.4232334095	 0.260512
H	-1.1115491341	-3.0118483756	-0.1123047523	 0.124746
105.2851	225.1003	268.5774	386.6948	404.6927	478.1458	498.8442	593.4794	659.0489	679.0774	699.1835	730.1963	799.0619	870.7521	906.7669	961.1573	978.8519	979.3348	988.6566	1014.5099	1106.3829	1158.6934	1190.7515	1196.2282	1202.3283	1237.1695	1264.0277	1328.7867	1386.1858	1401.6158	1409.7249	1466.0673	1474.4509	1484.7871	1527.1001	1642.6261	1727.6558	2972.573	2981.3299	2997.3194	3009.6514	3147.0034	3170.6321	3248.7702	3661.1125
C1C=CCC2=C1NC=N2	C1C=CCc2c1[nH]cn2	
InChI=1S/C7H8N2/c1-2-4-7-6(3-1)8-5-9-7/h1-2,5H,3-4H2,(H,8,9)	InChI=1S/C7H8N2/c1-2-4-7-6(3-1)8-5-9-7/h1-2,5H,3-4H2,(H,8,9)
