20
gdb 89575	4.65984	1.05194	0.99742	0.8812	83.13	-0.2136	0.0155	0.2291	1271.5597	0.171012	-403.125126	-403.116806	-403.115862	-403.158106	31.887	
C	-0.1364946613	 1.5378154273	-0.0189098482	-0.316384
N	-0.0899791827	 0.0978597252	 0.0972520262	-0.072208
C	-1.2381964431	-0.5978380563	 0.7065031834	-0.225996
C	-0.2363350047	-1.6018764363	 1.3496777193	 0.380346
C	 0.8316148681	-0.5008341961	 1.0800111749	-0.225995
O	-0.4655419035	-1.9363404975	 2.7065383307	-0.311365
C	-0.4316162224	-3.3522580626	 2.8873753367	-0.136765
C	-0.1586093556	-3.9104729674	 1.5192709636	-0.113742
C	-0.0488002473	-2.9121987853	 0.6509343681	-0.124931
H	 0.8166291296	 1.9108403089	-0.4092557164	 0.119091
H	-0.9231768617	 1.8293158735	-0.7232688255	 0.11909
H	-0.3342305468	 2.0450288329	 0.9449734588	 0.090298
H	-1.7398516734	-0.0173665627	 1.4981021864	 0.091931
H	-1.9853986616	-0.9788072782	 0.0015989081	 0.096948
H	 1.8089839593	-0.8009823876	 0.6863120761	 0.096946
H	 0.9708851298	 0.1096724976	 1.9872705472	 0.091929
H	 0.3503028622	-3.615545256	 3.6163173906	 0.107975
H	-1.3912466588	-3.6973657911	 3.3021969686	 0.107979
H	-0.0722113096	-4.9700816479	 1.3160630672	 0.107471
H	 0.1458376336	-2.9749672705	-0.4115986658	 0.117383
85.0373	96.4795	212.6524	238.1754	290.6395	299.1931	376.068	395.0225	442.3307	527.4125	709.6836	743.2397	784.5191	834.1779	869.6225	947.4732	954.425	966.7322	978.2239	985.7117	1016.9324	1037.2002	1052.9479	1113.5725	1115.662	1115.8142	1146.0218	1197.2405	1197.3235	1219.7347	1244.021	1272.262	1289.7819	1339.9507	1369.4339	1381.1782	1451.5276	1485.2923	1493.5921	1499.635	1519.3016	1524.2858	1687.8536	2923.9433	2965.9106	2976.5264	2980.6106	2998.5612	3053.4491	3057.5669	3058.9572	3094.9539	3211.1828	3236.4036
CN1CC2(C1)OCC=C2	CN1CC2(C1)OCC=C2	
InChI=1S/C7H11NO/c1-8-5-7(6-8)3-2-4-9-7/h2-3H,4-6H2,1H3	InChI=1S/C7H11NO/c1-8-5-7(6-8)3-2-4-9-7/h2-3H,4-6H2,1H3
