20
gdb 10515	3.09406	1.24286	1.00151	1.3562	70.67	-0.2564	0.075	0.3314	1225.9723	0.175248	-386.118097	-386.108647	-386.107702	-386.152688	33.947	
C	 0.08251496	 1.3120430529	 0.6483819549	-0.383829
C	-0.0128677311	-0.0741226055	-0.0015676532	-0.241085
C	-1.3881108985	-0.7131665016	 0.1189407675	 0.403343
C	-2.524191415	 0.0133074439	-0.5850414724	-0.273356
C	-3.8919193121	-0.674181511	-0.5334124797	-0.080027
O	-4.9167484651	 0.1383702944	-1.0854217856	-0.420378
C	-1.4628908103	-2.1540900887	 0.4148183157	-0.232388
O	-1.6911554733	-1.187186901	 1.4450101109	-0.275623
H	 1.1113487904	 1.6822254213	 0.6159018387	 0.114986
H	-0.5468528048	 2.0489101678	 0.1401997416	 0.117918
H	-0.2274861941	 1.2645342394	 1.6967451796	 0.133181
H	 0.2579516723	-0.0119997854	-1.0634330091	 0.099046
H	 0.7141393518	-0.7426648277	 0.4718189444	 0.103073
H	-2.6261017562	 1.0065636526	-0.126422704	 0.098945
H	-2.2470657926	 0.1870360219	-1.6318022741	 0.11023
H	-3.887471018	-1.5834887599	-1.1425595455	 0.110848
H	-4.1174431862	-0.9668325435	 0.5016088747	 0.110439
H	-5.0295460509	 0.9004456981	-0.5084561582	 0.280894
H	-2.3328734459	-2.7405803825	 0.1268429569	 0.114953
H	-0.5404060303	-2.7264871455	 0.5087662469	 0.108829
63.7102	83.4	107.3074	164.7374	216.3795	262.1825	297.4552	340.0468	363.0954	390.9058	458.7907	537.8419	722.4042	774.7203	781.3503	848.9967	895.8678	963.483	996.4843	1024.5245	1057.937	1077.692	1085.9002	1111.4383	1134.9789	1169.9104	1192.9367	1219.796	1290.5566	1320.9557	1339.9364	1355.0927	1404.5388	1408.1213	1415.0482	1428.6529	1474.7464	1478.1925	1501.9272	1508.4992	1519.1814	1536.7976	3008.9642	3015.6035	3026.5031	3040.9794	3057.2985	3069.7428	3081.6263	3087.3067	3109.6947	3115.4623	3169.717	3815.4657
CCC1(CCO)CO1	CC[C@@]1(CCO)CO1	
InChI=1S/C6H12O2/c1-2-6(3-4-7)5-8-6/h7H,2-5H2,1H3	InChI=1S/C6H12O2/c1-2-6(3-4-7)5-8-6/h7H,2-5H2,1H3/t6-/m1/s1
