15
gdb 28817	3.1679	1.42465	1.1058	4.0876	78.24	-0.2445	-0.0789	0.1656	1083.9647	0.112958	-416.83843	-416.830664	-416.82972	-416.870869	28.585	
C	-0.3331637696	 1.4397619539	 0.1277977157	-0.489998
C	-0.0481781549	-0.03606118	-0.0005972396	 0.228589
C	-0.353052807	-0.709664314	-1.1488411341	-0.060219
N	 0.0630637828	-1.9584766144	-1.5356464254	-0.173368
C	 0.3171625097	-2.9307246983	-0.7431354776	-0.070795
C	-0.0091501435	-2.9045360483	 0.72331685	 0.334889
O	-0.7431187569	-3.7142952421	 1.2381650421	-0.315324
N	 0.6829379112	-1.9210109491	 1.4094990898	-0.228711
C	 0.6662946632	-0.6744330985	 1.0844920212	-0.035954
H	-0.9534459775	 1.6485841548	 1.0064448404	 0.145068
H	 0.5935435788	 2.0139993103	 0.2461839882	 0.141555
H	-0.8530076562	 1.8208011116	-0.7540639094	 0.136683
H	-0.8685346254	-0.1689671954	-1.9398519386	 0.119171
H	 0.7357054605	-3.8487665343	-1.1574356809	 0.14524
H	 1.2585344048	-0.0117155761	 1.721875318	 0.123175
91.4163	129.9646	188.3139	279.5016	315.7664	320.5286	399.0724	487.8638	495.8304	603.1222	648.9198	668.6362	785.4867	870.0654	919.4336	940.0738	954.678	988.0302	1010.3329	1066.8118	1123.6765	1176.226	1228.6532	1371.6501	1398.7984	1415.6898	1441.3085	1479.3237	1492.6353	1550.0853	1660.1394	1678.7818	1797.5673	3029.9022	3083.0322	3088.8055	3124.8	3126.1116	3151.9073
CC1=CN=CC(=O)N=C1	Cc1cncc(=O)nc1	
InChI=1S/C6H6N2O/c1-5-2-7-4-6(9)8-3-5/h2-4H,1H3	InChI=1S/C6H6N2O/c1-5-2-7-4-6(9)8-3-5/h2-4H,1H3
