16
gdb 49858	2.81226	1.46564	1.15204	4.4889	69.15	-0.2477	-0.0385	0.2091	1055.9685	0.124973	-437.923176	-437.915441	-437.914497	-437.955922	28.888	
O	-0.2140398373	 0.0020614062	 0.0138760222	-0.248871
C	-0.0908964234	 1.1985999558	 0.0355021623	 0.168884
C	 1.2426450729	 1.9229675939	-0.0353557993	-0.093295
N	 2.3717200249	 1.0349497808	-0.1629501476	-0.311892
C	 3.2342750644	 1.3046524379	-1.2059534387	 0.419093
O	 4.2567712311	 0.7089427174	-1.4509392715	-0.374535
C	 2.6395610566	 2.4654186489	-1.9652944062	-0.149119
C	 1.3043368049	 2.1580287045	-2.6099150705	-0.288885
C	 1.3501201823	 2.834422003	-1.2685096132	-0.072217
H	-0.9683789907	 1.8782137666	 0.1200289729	 0.086621
H	 1.3079608391	 2.5438309735	 0.8751247559	 0.106609
H	 2.4100048164	 0.1526553218	 0.3225419452	 0.26289
H	 3.3098616301	 3.185636434	-2.4144756081	 0.117663
H	 1.0216152441	 2.7675368309	-3.4604145126	 0.128556
H	 0.9866044602	 1.1217251458	-2.6685530923	 0.142031
H	 1.0275774542	 3.862621069	-1.1714798486	 0.106467
77.4068	95.2757	204.1969	229.4728	302.1838	419.8098	439.8741	474.9597	604.9119	656.3792	724.7117	753.6083	811.6786	814.0464	847.1957	917.0938	945.283	1005.36	1013.1291	1055.5386	1073.9265	1092.2062	1102.5187	1155.9687	1199.8466	1246.1349	1280.2038	1333.1054	1354.5016	1370.9058	1420.7744	1423.2965	1485.8424	1832.61	1838.4197	2884.869	2953.3768	3133.4551	3198.1805	3211.3279	3225.51	3647.8451
O=CC1NC(=O)C2CC12	O=C[C@H]1NC(=O)[C@H]2C[C@@H]12	
InChI=1S/C6H7NO2/c8-2-5-3-1-4(3)6(9)7-5/h2-5H,1H2,(H,7,9)	InChI=1S/C6H7NO2/c8-2-5-3-1-4(3)6(9)7-5/h2-5H,1H2,(H,7,9)/t3-,4+,5-/m1/s1
