23
gdb 58463	2.82026	0.97178	0.96125	1.8768	81.07	-0.2539	0.0653	0.3191	1394.3952	0.20345	-425.417048	-425.406645	-425.4057	-425.4519	39.849	
C	 0.1197000278	 1.4380186815	-0.1779610591	-0.42093
C	-0.0480627954	-0.0594565456	 0.087155807	 0.082548
O	 0.6526740482	-0.4610646253	 1.2627077234	-0.439376
C	-1.510770649	-0.5383467046	 0.1127974052	 0.352203
C	-2.3286554938	 0.1204906024	 1.2282757966	-0.474322
C	-2.241247613	-0.5071042167	-1.2687011675	-0.319514
C	-2.762385811	-1.9418900296	-0.9873172282	 0.17188
O	-2.836263381	-2.8772344708	-2.0340488159	-0.435495
C	-1.6777472271	-2.0914526312	 0.1104953094	-0.311954
H	 1.1814249344	 1.6844466538	-0.2646897801	 0.12449
H	-0.382419541	 1.7371493771	-1.1034509078	 0.122382
H	-0.2991599191	 2.039762236	 0.6368340389	 0.110514
H	 0.4543584604	-0.6074276251	-0.7206456373	 0.073017
H	 0.3754752706	 0.1143596103	 1.9832443477	 0.27832
H	-2.4145743033	 1.2030932179	 1.0893906711	 0.116237
H	-3.3449474009	-0.2836143887	 1.263921288	 0.122323
H	-1.8769843455	-0.0668374538	 2.2091969215	 0.108402
H	-2.9760315807	 0.2826070347	-1.4469452899	 0.096751
H	-1.5249865946	-0.5115691845	-2.0994404694	 0.086459
H	-3.7667110801	-1.9187094537	-0.555720848	 0.091287
H	-1.9585274995	-2.9563170513	-2.4224919806	 0.274338
H	-0.7825993013	-2.587459532	-0.2814061152	 0.091413
H	-1.9585994553	-2.5785552706	 1.0473173402	 0.099025
69.447	89.3718	187.3728	223.3577	251.17	263.352	284.3341	304.9034	318.5092	334.6677	358.443	382.0613	464.0642	482.2501	510.0545	638.0556	723.8494	827.2681	871.2898	894.6113	899.2145	934.2288	963.0666	1009.237	1028.7742	1048.9617	1077.6027	1100.7272	1108.9613	1118.9036	1174.4963	1192.2868	1218.7257	1272.7482	1280.9983	1298.7572	1306.7453	1335.9849	1369.4943	1400.8994	1410.1437	1420.7469	1441.065	1466.5086	1487.3211	1491.7468	1494.4639	1503.3353	1505.1348	3019.4799	3027.6544	3031.486	3033.9591	3044.1892	3070.9774	3092.5767	3096.3245	3098.7001	3103.1483	3107.7442	3117.9473	3805.9019	3814.5752
CC(O)C1(C)CC(O)C1	C[C@@H](O)[C@@]1(C)C[C@@H](O)C1	
InChI=1S/C7H14O2/c1-5(8)7(2)3-6(9)4-7/h5-6,8-9H,3-4H2,1-2H3	InChI=1S/C7H14O2/c1-5(8)7(2)3-6(9)4-7/h5-6,8-9H,3-4H2,1-2H3/t5-,6-,7+/m1/s1
