20
gdb 114143	4.88041	0.8942	0.82552	1.2707	88.5	-0.2213	0.0324	0.2536	1447.4338	0.169981	-365.941577	-365.932457	-365.931513	-365.975316	34.919	
C	 0.0836895766	 1.5092717349	-0.067616813	-0.380209
C	 0.01751231	-0.0044535696	 0.1579730871	-0.192786
C	-1.3962917012	-0.562654178	 0.0382042686	 0.04212
C	-2.1003720157	-0.568921156	-1.37168825	-0.308966
C	-2.2859481386	-2.0901470769	-1.2359435463	 0.238073
N	-0.9037639267	-2.6451101108	-1.0999127393	-0.365698
C	-1.5758040941	-2.0875803557	 0.0881544053	-0.144607
C	-3.368380739	-2.8836762382	-1.6989989988	 0.143085
C	-4.2938775221	-3.5385070865	-2.1049066482	-0.400928
H	 1.1102874157	 1.878175349	 0.0195941359	 0.112891
H	-0.2814287658	 1.7789660949	-1.0645942336	 0.118322
H	-0.5272495606	 2.0495501759	 0.6645814135	 0.110364
H	 0.6593305011	-0.5226520597	-0.5622551873	 0.118718
H	 0.4104393701	-0.2435841833	 1.1553272868	 0.089967
H	-2.0563376133	-0.0870311307	 0.7714984376	 0.074827
H	-3.0433665172	-0.0206974548	-1.3816351862	 0.113759
H	-1.4867326144	-0.2693100067	-2.2246013382	 0.109444
H	-0.9991387648	-3.6596938604	-1.0538486811	 0.236051
H	-1.763391716	-2.7052085316	 0.9588518951	 0.099394
H	-5.1090982139	-4.1181952058	-2.460750128	 0.186178
88.0834	105.8611	130.6323	205.3334	214.4771	264.4894	362.8154	421.6085	453.4981	517.8681	555.6177	576.4858	619.8345	660.9688	684.3447	774.1258	808.4357	865.5875	909.1031	930.5456	958.6512	969.6036	1006.4078	1047.8431	1059.5505	1103.0015	1129.7699	1135.3056	1195.0038	1225.4891	1233.7054	1279.0946	1291.3676	1324.8684	1352.3763	1385.6402	1407.6484	1413.2778	1475.3101	1491.4244	1500.6536	1507.5337	2230.4858	3019.7277	3029.3811	3046.9908	3070.9882	3073.9207	3098.6782	3102.6997	3135.0182	3183.7414	3475.2988	3503.026
CCC1CC2(NC12)C#C	CC[C@H]1C[C@]2(N[C@@H]12)C#C	
InChI=1S/C8H11N/c1-3-6-5-8(4-2)7(6)9-8/h2,6-7,9H,3,5H2,1H3	InChI=1S/C8H11N/c1-3-6-5-8(4-2)7(6)9-8/h2,6-7,9H,3,5H2,1H3/t6-,7-,8+/m0/s1
