20
gdb 89363	2.66421	1.51687	1.24422	3.2566	79.54	-0.2097	-0.0059	0.2038	1102.1786	0.170632	-403.136005	-403.127377	-403.126433	-403.168813	33.225	
C	 0.061782015	 1.4431113334	-0.109678494	-0.32418
N	 0.0022446136	 0.0068279957	 0.0940041762	-0.06828
C	-1.366217317	-0.5349286157	 0.3440555126	-0.207414
C	-1.1335720864	-1.3763957868	 1.6236878242	 0.174488
C	-2.2670078066	-2.201591386	 2.1750815625	-0.500735
C	-0.2786017554	-0.3529470113	 2.4638816628	-0.297175
C	 0.733704805	-0.4927349665	 1.2743787948	-0.130293
C	 0.2561484697	-1.9598794518	 1.28254434	 0.437715
O	 0.7465188818	-3.0480315073	 1.2578051178	-0.327677
H	 1.0976253551	 1.7446991123	-0.2950958917	 0.123235
H	-0.5248154385	 1.7033814993	-0.9966585265	 0.124793
H	-0.3236062159	 2.0421360429	 0.7358733576	 0.091704
H	-2.0988331487	 0.2639223402	 0.5251916299	 0.095384
H	-1.7192504193	-1.1399789201	-0.4990570145	 0.111753
H	-2.6357103298	-2.9055852629	 1.4215641103	 0.131338
H	-1.9417372735	-2.7847356129	 3.0417009834	 0.130152
H	-3.1077221863	-1.5709829611	 2.4841435921	 0.120006
H	-0.7235876042	 0.6328180004	 2.61698477	 0.109728
H	 0.0862895565	-0.7657544085	 3.406832438	 0.117162
H	 1.7785760549	-0.1950101132	 1.3214055844	 0.088297
132.6805	152.208	175.8468	214.4978	221.3359	263.0777	330.2445	409.0646	447.6959	513.1939	554.0605	655.1455	690.3545	775.4066	802.0545	830.0942	855.6635	919.2681	967.3448	991.1403	1014.4285	1028.4201	1061.0173	1104.8301	1129.9318	1161.9472	1165.5878	1180.4484	1213.499	1225.7168	1242.3421	1279.8647	1315.4232	1375.7004	1415.4895	1455.5171	1480.8811	1488.7229	1489.978	1492.9308	1502.0289	1522.946	1904.7935	2935.3626	3000.9886	3032.9909	3051.4223	3060.5898	3068.5834	3097.346	3102.9122	3108.1387	3133.1788	3154.4209
CN1CC2(C)CC1C2=O	CN1C[C@]2(C)C[C@H]1C2=O	
InChI=1S/C7H11NO/c1-7-3-5(6(7)9)8(2)4-7/h5H,3-4H2,1-2H3	InChI=1S/C7H11NO/c1-7-3-5(6(7)9)8(2)4-7/h5H,3-4H2,1-2H3/t5-,7-/m0/s1
