18
gdb 95554	2.44778	1.73873	1.14351	1.952	73.16	-0.2364	0.0165	0.253	1059.9978	0.149344	-439.064289	-439.056427	-439.055483	-439.096696	30.554	
O	-0.2378683658	 1.4155043639	 0.3430795774	-0.425306
C	-0.0114910357	 0.0378462314	 0.0485376466	 0.06084
C	 0.7160023915	-0.607212344	 1.228271577	-0.114547
O	 1.2445354668	-1.9067690698	 0.9683409362	-0.22452
C	 0.4196064516	-2.9653662366	 0.7408658444	 0.117548
N	-0.764764354	-3.0652083881	 0.324919824	-0.254924
C	-1.6479089702	-2.0477434165	-0.1284518399	 0.019718
C	-2.3024834372	-1.0513055211	 0.8058762676	-0.304013
C	-1.3574549602	-0.566103785	-0.2665058582	-0.024816
H	 0.6075634956	 1.874736481	 0.3042740023	 0.285578
H	 0.6336383569	-0.0671635156	-0.838528186	 0.080237
H	 1.5912406276	 0.0004919427	 1.4756854283	 0.107067
H	 0.0707360362	-0.6327693955	 2.1140753659	 0.120269
H	 0.976715149	-3.8760339415	 0.9618353312	 0.119927
H	-2.3123534861	-2.4479382934	-0.8889544647	 0.102979
H	-3.3611327703	-0.8501976874	 0.6865863836	 0.11763
H	-1.9672466972	-1.0556141309	 1.8360977398	 0.121637
H	-1.8278999586	-0.0818176536	-1.1179528655	 0.094695
70.7504	199.4181	229.7846	278.1624	296.0539	342.1728	387.4036	430.7979	519.9095	573.0976	619.7046	744.8234	786.8034	814.4722	868.8764	939.6794	949.9168	968.0376	982.8164	1030.086	1048.6422	1058.3457	1079.5582	1138.2677	1145.8504	1164.4163	1184.0588	1242.1215	1265.4962	1271.5184	1353.8252	1386.7835	1401.4549	1425.3884	1440.0275	1449.3072	1482.653	1507.1243	1767.6057	2974.7063	3041.0635	3092.468	3134.4631	3137.6746	3140.9266	3147.5606	3227.6762	3812.7747
OC1COC=NC2CC12	O[C@H]1COC=N[C@H]2C[C@@H]12	
InChI=1S/C6H9NO2/c8-6-2-9-3-7-5-1-4(5)6/h3-6,8H,1-2H2	InChI=1S/C6H9NO2/c8-6-2-9-3-7-5-1-4(5)6/h3-6,8H,1-2H2/t4-,5+,6+/m1/s1
