18
gdb 18104	4.34029	1.97885	1.43874	0.4217	81.81	-0.2044	-0.0101	0.1943	880.1211	0.157163	-310.696345	-310.690015	-310.689071	-310.726528	25.947	
C	-0.0719512022	 1.4968957511	 0.0080224706	-0.241105
C	 1.4237749071	 1.9353045289	 0.0294959325	-0.242154
C	 2.1388438054	 0.7689250348	-0.6741091058	-0.031006
C	 3.5534901034	 0.2644538135	-0.3052728831	-0.305946
C	 3.3673569247	-1.2451730322	-0.3117152409	-0.066404
C	 2.0709362937	-1.6054076199	-0.3252627397	-0.19884
C	 1.2422804948	-0.4111934779	-0.3376459775	 0.376983
C	 0.0134226298	-0.0203146263	 0.0136113333	-0.251187
H	-0.6384102565	 1.8939099639	 0.8579550398	 0.099085
H	-0.5774570682	 1.8684825855	-0.8969031757	 0.101864
H	 1.5903109914	 2.9089365617	-0.4403414745	 0.089718
H	 1.763475775	 2.0022684171	 1.0700734702	 0.098144
H	 2.1097722522	 0.9245462216	-1.7634858076	 0.079868
H	 4.3334003003	 0.6011645991	-0.9961991092	 0.103017
H	 3.8578678846	 0.6005440328	 0.6977611061	 0.1088
H	 4.2018603433	-1.9350793289	-0.2452053425	 0.095896
H	 1.7001421556	-2.6215873364	-0.2649101523	 0.097437
H	-0.8129257243	-0.6612439184	 0.2978276662	 0.085829
160.4528	203.2841	326.4488	381.7718	450.796	594.1231	615.079	661.6607	747.8826	773.6118	822.8851	832.3375	871.7152	912.5884	934.4175	948.9555	968.7951	971.4839	991.7197	1057.7458	1090.3493	1121.1175	1135.1373	1177.1591	1195.2171	1221.6715	1259.5138	1281.5903	1298.7595	1305.4226	1340.0913	1356.0263	1375.2305	1478.9922	1483.7649	1496.4707	1619.547	1715.8801	2980.1347	2987.3585	2996.5331	3034.396	3056.8405	3065.0955	3090.9561	3185.8897	3197.4381	3212.4062
C1CC2CC=CC2=C1	C1C[C@H]2CC=CC2=C1	
InChI=1S/C8H10/c1-3-7-5-2-6-8(7)4-1/h1,3,5,8H,2,4,6H2	InChI=1S/C8H10/c1-3-7-5-2-6-8(7)4-1/h1,3,5,8H,2,4,6H2/t8-/m1/s1
