18
gdb 15578	2.81513	1.96336	1.35383	4.7669	71.29	-0.2365	0.0336	0.2701	949.1863	0.155592	-344.004242	-343.996208	-343.995264	-344.037063	29.657	
C	-0.2063323066	 1.553643717	-0.0878589517	-0.421324
C	 0.0587881732	 0.0519794605	-0.0432522867	 0.027052
C	 0.9259494773	-0.5078516782	-1.1821061893	-0.207825
C	 1.3103318278	-1.8922959248	-0.6583910964	-0.161671
N	 1.5639524658	-1.6505543594	 0.7681057843	-0.288029
C	 0.7998054885	-0.4820871625	 1.2248503048	-0.153151
C	 1.710160085	 0.51952427	 1.8209980105	 0.309705
N	 2.4126085164	 1.3046720307	 2.296783059	-0.340897
H	 0.7266668221	 2.1239100637	-0.0620882825	 0.145026
H	-0.7415779282	 1.8153280821	-1.0058862852	 0.116839
H	-0.8190020025	 1.8795441558	 0.7588407457	 0.122905
H	-0.9023965076	-0.4772186571	-0.0660669452	 0.08471
H	 0.3939716421	-0.5466666089	-2.1356087521	 0.105026
H	 1.8203874561	 0.1116728191	-1.3143691947	 0.12141
H	 0.485480566	-2.6023505036	-0.8335533805	 0.087528
H	 2.2047473923	-2.2981390968	-1.1426696981	 0.110609
H	 1.4274266122	-2.4617761651	 1.3532211548	 0.229582
H	 0.0686754199	-0.7362372926	 2.0030089833	 0.112505
41.2411	154.092	201.2672	227.6387	247.2765	306.903	411.2913	469.795	522.3409	580.2503	614.6854	745.9826	827.9045	866.1087	915.1291	935.1821	957.5782	989.7488	1015.1751	1086.5649	1116.498	1153.9217	1167.313	1191.1438	1225.7437	1256.6749	1312.0806	1331.7774	1353.9362	1372.1502	1390.7755	1419.0034	1449.6998	1487.1829	1496.9115	1498.5813	1528.6444	2350.2575	2963.6797	3011.8687	3027.283	3039.0621	3047.2938	3063.0012	3104.6565	3108.965	3118.54	3594.3387
CC1CCNC1C#N	C[C@H]1CCN[C@H]1C#N	
InChI=1S/C6H10N2/c1-5-2-3-8-6(5)4-7/h5-6,8H,2-3H2,1H3	InChI=1S/C6H10N2/c1-5-2-3-8-6(5)4-7/h5-6,8H,2-3H2,1H3/t5-,6-/m0/s1
