15
gdb 13052	4.14474	1.30729	1.04109	4.9921	62.53	-0.2477	-0.0238	0.2239	1068.3371	0.118061	-399.82685	-399.818847	-399.817903	-399.860287	27.559	
O	-0.6228774183	 0.5704014066	 0.6728959156	-0.242103
C	 0.135129814	 0.881582634	-0.2097149574	 0.150143
C	 1.30525946	 1.833867414	-0.0206553179	-0.299371
C	 1.3334250891	 2.926472975	-1.0913460746	-0.155088
C	 2.6108008648	 3.8172032006	-1.1955128518	-0.182955
N	 2.7763089802	 3.3032547587	-2.5577685177	-0.318509
C	 1.6959875487	 2.4590855189	-2.5293347161	 0.428812
O	 1.2503781898	 1.6632002055	-3.3133301889	-0.359736
H	 0.0278881433	 0.483113995	-1.240221879	 0.116045
H	 1.2495402138	 2.2553314622	 0.9874593463	 0.125445
H	 2.2272062758	 1.2377951709	-0.0896665883	 0.12631
H	 0.4112229833	 3.5141018246	-1.0746865133	 0.116658
H	 2.4383548146	 4.8959538444	-1.1380817118	 0.120506
H	 3.4171394652	 3.5359732297	-0.5101590185	 0.118009
H	 3.4928667458	 3.4477880898	-3.2535493067	 0.255834
65.4025	84.1943	109.539	178.866	235.7088	337.4879	428.3314	487.0984	523.065	698.4797	754.4532	811.6974	826.7257	908.8741	980.9035	996.6976	1067.31	1089.8467	1139.59	1164.8224	1173.3644	1185.5462	1240.0917	1275.4768	1314.7864	1354.208	1397.2937	1427.9621	1462.7462	1527.2447	1831.7572	1886.3225	2927.7869	3010.8738	3041.83	3075.8256	3091.8505	3095.6635	3613.0111
O=CCC1CNC1=O	O=CC[C@H]1CNC1=O	
InChI=1S/C5H7NO2/c7-2-1-4-3-6-5(4)8/h2,4H,1,3H2,(H,6,8)	InChI=1S/C5H7NO2/c7-2-1-4-3-6-5(4)8/h2,4H,1,3H2,(H,6,8)/t4-/m0/s1
