19
gdb 51480	2.99952	1.18916	1.11856	3.8856	75.43	-0.2712	0.0028	0.274	1175.768	0.160472	-423.047536	-423.039331	-423.038387	-423.081218	30.414	
O	 0.4071940493	 0.0335995409	 0.2831987308	-0.277451
C	 0.4326996364	 1.2228847816	 0.3865622622	 0.17763
O	 1.1090993869	 2.0120775701	-0.4750320426	-0.187457
C	 1.032393782	 3.4079909421	-0.2364145986	 0.093932
C	 1.8909294172	 4.0908494039	 0.7984543864	-0.090681
C	 3.0702898962	 3.3329342771	 1.3966158992	-0.220042
C	 3.8603435115	 2.7510031562	 0.1981305101	-0.220903
C	 3.503742626	 3.6420366464	-1.0168075092	-0.208962
C	 2.1594583511	 4.2814457718	-0.6901616613	-0.094387
H	-0.0833417208	 1.7984292619	 1.1783629932	 0.082315
H	 0.0272892668	 3.7958949208	-0.3796319159	 0.108996
H	 1.4199833534	 4.8630141534	 1.3978235708	 0.088924
H	 3.6828229996	 4.0468085048	 1.9585589515	 0.106375
H	 2.7652275708	 2.5543677907	 2.1046528231	 0.105073
H	 4.936203425	 2.7344610977	 0.3907681795	 0.097752
H	 3.5495677611	 1.7229609018	 0.0068227236	 0.131167
H	 4.2398838708	 4.443738944	-1.143536099	 0.102877
H	 3.4835674316	 3.0717424294	-1.9503978362	 0.113874
H	 1.8917761951	 5.1980791155	-1.2046407275	 0.090967
48.3193	117.2329	125.1643	204.6889	237.0342	279.2211	468.856	497.6687	608.7308	700.9975	721.4853	763.311	804.2959	813.6603	885.2439	887.3843	941.9016	984.2894	1030.8669	1044.9452	1053.2931	1054.311	1090.1349	1112.6392	1122.0006	1171.4342	1191.8181	1217.6628	1227.1315	1258.9394	1316.0493	1320.7692	1331.6182	1361.821	1364.6792	1415.0407	1441.3541	1490.4024	1491.7056	1513.164	1866.1728	2960.774	3037.1905	3042.0653	3069.8326	3073.8179	3084.0222	3125.8417	3136.9006	3159.9231	3171.2797
O=COC1C2CCCC12	O=CO[C@H]1[C@H]2CCC[C@@H]12	
InChI=1S/C7H10O2/c8-4-9-7-5-2-1-3-6(5)7/h4-7H,1-3H2	InChI=1S/C7H10O2/c8-4-9-7-5-2-1-3-6(5)7/h4-7H,1-3H2/t5-,6+,7-
