16
gdb 60995	2.5435	1.16048	0.91136	3.3369	70.27	-0.2796	-0.0487	0.2309	1257.2042	0.122732	-437.890446	-437.881573	-437.880629	-437.924853	31.709	
O	 1.4014227987	 1.5685659561	-0.5857116672	-0.433934
C	 0.4628803582	 0.7596868882	 0.0653227211	 0.022254
C	-0.0195239941	-0.3431684888	-0.8665716016	 0.130005
O	 0.4102051279	-0.4440846362	-1.9897206611	-0.255599
C	 1.0636953266	 0.1641243313	 1.32961292	-0.022377
C	 1.0665502553	 0.9570191729	 2.5984962664	-0.29229
C	 0.1802185293	-0.2741353086	 2.4955646172	-0.180853
C	-1.2469877536	-0.1275043793	 2.4208252543	 0.288232
N	-2.3972294678	-0.0204243377	 2.348463932	-0.340995
H	 1.4828785056	 1.2019146863	-1.4814113766	 0.297498
H	-0.4313282204	 1.3437168903	 0.3462188811	 0.115106
H	-0.7798783601	-1.0375406593	-0.4606956128	 0.121954
H	 1.9244049982	-0.4722529429	 1.1467441286	 0.117657
H	 1.9238343716	 0.8887609617	 3.2571822433	 0.139518
H	 0.572696335	 1.9218338959	 2.5887682732	 0.151083
H	 0.4985165598	-1.1591421098	 3.0355718221	 0.14274
52.9977	103.9676	106.5295	182.3342	235.4129	301.4735	341.4398	379.0466	415.4861	474.9961	555.6143	625.9327	752.7664	776.1362	806.7776	847.3069	917.272	959.701	964.698	1029.6507	1081.8867	1120.0701	1126.252	1153.4588	1166.2208	1224.3633	1276.4999	1309.8688	1368.5803	1389.3355	1404.8334	1447.2771	1487.266	1814.4164	2349.5338	2954.1433	2967.1511	3149.2824	3159.2407	3174.3746	3241.1459	3678.5362
OC(C=O)C1CC1C#N	O[C@@H](C=O)[C@H]1C[C@H]1C#N	
InChI=1S/C6H7NO2/c7-2-4-1-5(4)6(9)3-8/h3-6,9H,1H2	InChI=1S/C6H7NO2/c7-2-4-1-5(4)6(9)3-8/h3-6,9H,1H2/t4-,5-,6-/m0/s1
