20
gdb 100631	2.49353	1.09243	0.9612	4.0361	75.09	-0.2732	0.0337	0.307	1315.5447	0.16846	-440.29391	-440.283361	-440.282417	-440.329153	38.669	
C	-0.1206237066	 1.5782059493	 0.0832947882	-0.431396
C	 0.0299476224	 0.0400247094	 0.031574206	 0.042005
C	 0.6988728181	-0.4732127944	 1.328030671	-0.41736
C	-1.319086752	-0.5497288351	-0.0497965526	 0.286363
N	-2.3786403527	-1.0098140755	-0.0817289682	-0.338958
C	 0.8220772814	-0.4457693868	-1.2220816513	 0.094662
O	 0.1764057145	-0.0860239534	-2.4404241765	-0.43811
C	 2.2901994017	-0.003448784	-1.291742286	-0.087765
O	 2.8925533892	-0.5278126047	-2.4538305786	-0.418832
H	 0.8561185966	 2.058735537	 0.1811039325	 0.132128
H	-0.620223686	 1.9678054429	-0.8086321451	 0.127938
H	-0.7291985136	 1.8674538505	 0.943547203	 0.145855
H	 0.0626456962	-0.2649567288	 2.1916290064	 0.140985
H	 0.8675374527	-1.5526851051	 1.2840537551	 0.140614
H	 1.6589927934	 0.0243579955	 1.4862301599	 0.130721
H	 0.8059467412	-1.5407620566	-1.2222464161	 0.118307
H	 0.1346132998	 0.8761046745	-2.4924372631	 0.287772
H	 2.351777743	 1.0990442461	-1.2725378009	 0.080652
H	 2.8587432017	-0.3800360926	-0.436700144	 0.11572
H	 2.233363349	-0.4381657681	-3.1545269097	 0.288699
58.8081	116.8477	133.6825	186.6128	231.0573	251.6109	255.1027	276.1022	311.5327	345.0089	348.8599	414.6859	433.8171	501.2827	517.3562	590.1987	618.0531	753.1822	852.2335	910.1501	947.8128	970.8337	1032.3472	1062.0619	1086.345	1104.3399	1150.3377	1206.9559	1225.0734	1236.4068	1294.8339	1324.1068	1383.0401	1402.2637	1420.0672	1428.8974	1444.8979	1481.8196	1493.1143	1500.7275	1508.4846	1514.7658	2355.8287	2948.9889	3046.6509	3049.8143	3065.4068	3089.1053	3117.5601	3126.3468	3127.5979	3131.2994	3766.5525	3794.3342
CC(C)(C#N)C(O)CO	CC(C)(C#N)[C@@H](O)CO	
InChI=1S/C6H11NO2/c1-6(2,4-7)5(9)3-8/h5,8-9H,3H2,1-2H3	InChI=1S/C6H11NO2/c1-6(2,4-7)5(9)3-8/h5,8-9H,3H2,1-2H3/t5-/m0/s1
