22
gdb 104281	2.08604	1.34065	1.06913	4.3362	83.85	-0.2366	0.0297	0.2663	1272.672	0.193107	-404.372625	-404.362621	-404.361677	-404.407744	36.625	
C	 0.0355313909	 1.6417017617	-0.0725031943	-0.401115
C	-0.0139877794	 0.1130129966	-0.1432887081	-0.204428
C	-1.4065351589	-0.520716186	 0.0111798363	 0.32225
C	-2.3841579999	-0.0920107655	-1.0832970483	-0.44468
C	-1.344559705	-2.0681826892	 0.246423229	-0.305505
C	-1.9046812313	-1.8401841909	 1.6765835591	-0.162896
N	-1.9565481279	-0.4071207896	 1.3900098979	-0.06216
C	-2.6725079519	 0.5351874537	 2.0437379036	 0.116675
O	-3.2407811797	 0.3494817821	 3.1026335348	-0.337286
H	 1.0686685613	 1.9928221577	-0.1520507532	 0.120489
H	-0.5324991138	 2.1116452032	-0.8810031127	 0.119693
H	-0.3622142891	 2.0080883788	 0.8791542329	 0.128748
H	 0.3990954719	-0.2279333966	-1.1018448531	 0.100036
H	 0.6329257863	-0.3027734854	 0.638147052	 0.100654
H	-1.9895317967	-0.3695807899	-2.0668505431	 0.122307
H	-3.3518107894	-0.5845209638	-0.951165376	 0.123777
H	-2.5542799399	 0.9881928744	-1.0852633456	 0.128317
H	-2.000910085	-2.6423666771	-0.4093027168	 0.111382
H	-0.3390247596	-2.4893740352	 0.20353131	 0.110147
H	-2.8881029757	-2.2723091294	 1.8843774931	 0.126703
H	-1.2309627902	-2.1007274547	 2.4988780036	 0.120943
H	-2.6814303069	 1.5085408551	 1.5137074688	 0.065948
68.5265	79.8168	105.8215	183.8992	221.2601	239.3248	254.1573	320.2459	341.4014	352.511	394.3541	446.2499	575.6337	654.5945	782.3873	785.6083	833.5141	883.8739	906.4103	959.5292	981.4388	1010.0972	1036.2141	1039.8552	1068.7754	1127.2353	1159.9228	1176.8085	1202.8672	1217.4747	1261.1759	1271.9041	1310.4636	1333.8962	1371.921	1393.3273	1408.9656	1410.9495	1437.5	1475.037	1488.4745	1490.8752	1496.5434	1506.2398	1509.0479	1523.6194	1779.4931	2930.8573	3020.5754	3036.4421	3041.6703	3046.4821	3059.2265	3081.7921	3087.5704	3105.7772	3108.7537	3111.4501	3117.3682	3136.9765
CCC1(C)CCN1C=O	CC[C@@]1(C)CCN1C=O	
InChI=1S/C7H13NO/c1-3-7(2)4-5-8(7)6-9/h6H,3-5H2,1-2H3	InChI=1S/C7H13NO/c1-3-7(2)4-5-8(7)6-9/h6H,3-5H2,1-2H3/t7-/m0/s1
