18
gdb 97035	3.14954	1.3063	0.9396	2.444	79.8	-0.2276	0.0095	0.237	1236.5846	0.14774	-435.300991	-435.291556	-435.290612	-435.336512	32.617	
C	-0.0381947911	 1.3915519036	-0.0490040765	-0.332311
N	 0.0013643928	-0.0555949993	 0.0099658212	-0.326854
C	 0.6031540826	-0.619946619	 0.9700688959	 0.379234
C	 1.3558287098	-0.068861847	 2.1745787628	-0.201224
O	 1.8033764903	-1.2258023012	 2.885596068	-0.252124
C	 1.3994598701	-2.3599907692	 2.2372493159	 0.476276
N	 1.6266796053	-3.5492464259	 2.5967805912	-0.59123
N	 0.6911561911	-1.9908996157	 1.1068208015	-0.150452
C	 0.1092729648	-2.9344160182	 0.1744765778	-0.334928
H	 0.4760575329	 1.9111017081	 0.7737171807	 0.10142
H	 0.4089899417	 1.7320333186	-0.990523685	 0.130983
H	-1.0813603095	 1.7293440528	-0.0572496443	 0.130979
H	 2.2209030078	 0.5352444551	 1.8818636108	 0.143341
H	 0.7124019213	 0.5318661761	 2.8258414217	 0.143332
H	 2.1661320506	-3.5655924895	 3.4585649457	 0.230029
H	 0.3365816581	-3.9367661037	 0.5354493521	 0.170406
H	-0.9728049864	-2.7872230873	 0.1151685329	 0.141565
H	 0.5289853777	-2.7851209782	-0.8243511523	 0.141556
35.3255	74.0224	97.9196	162.1721	176.6266	200.2272	278.1557	298.7391	407.3167	550.9818	575.3983	614.4775	680.7817	715.0429	766.1994	785.0139	940.0428	1010.8476	1025.9644	1076.06	1096.6089	1126.4974	1129.6867	1163.7037	1170.8226	1215.3124	1226.4764	1347.8304	1369.5104	1428.8777	1449.7132	1481.4065	1483.8317	1485.1315	1501.9921	1506.7375	1516.298	1764.9433	1806.6441	2984.2068	3044.0717	3049.7212	3056.4361	3069.7957	3084.5902	3109.3195	3170.2561	3538.7846
CN=C1COC(=N)N1C	CN=C1CO[C]([NH])N1C	
InChI=1S/C5H9N3O/c1-7-4-3-9-5(6)8(4)2/h6H,3H2,1-2H3	InChI=1S/C5H9N3O/c1-7-4-3-9-5(6)8(4)2/h6H,3H2,1-2H3
