21
gdb 122648	2.73848	0.93509	0.87367	2.0553	75.37	-0.2546	0.0629	0.3175	1449.0973	0.181512	-461.333864	-461.324104	-461.32316	-461.369605	35.781	
O	-0.1098035274	 1.4387827226	-0.5002521572	-0.419258
C	-0.1131402194	 0.1112072403	-0.0142820115	-0.063261
C	-1.52561033	-0.4380985539	 0.0994135596	-0.075817
O	-2.0728903995	-0.4516851541	-1.2114156247	-0.294325
C	-3.459779216	-0.7440710838	-1.2744726743	 0.087197
C	-4.3489006247	 0.5228267449	-1.1493755301	-0.252454
C	-4.2730710869	 0.688033353	-2.6943008402	-0.256203
C	-3.8409381075	-0.8065387082	-2.7805367623	 0.152828
O	-2.8544183789	-1.2154028137	-3.6798627543	-0.435979
H	-0.648214483	 1.4297910931	-1.2996892175	 0.286106
H	 0.4817966602	-0.5573606625	-0.6570985023	 0.094542
H	 0.3546720402	 0.1283004441	 0.9753519215	 0.112621
H	-1.5221050443	-1.4546851985	 0.5230700926	 0.095494
H	-2.122734828	 0.2108638623	 0.7557015959	 0.1048
H	-3.6880866383	-1.6105427283	-0.6406198228	 0.065707
H	-5.3549801717	 0.2777691085	-0.7987017138	 0.107481
H	-3.9491864663	 1.3331556202	-0.5362445318	 0.110541
H	-5.1785115446	 0.9855460987	-3.2267523866	 0.101481
H	-3.4528022372	 1.3458963565	-2.9928058296	 0.103544
H	-4.7134691871	-1.4508334018	-2.928410696	 0.088753
H	-2.0121274396	-0.9540433595	-3.2861598045	 0.286201
37.1644	67.7606	117.6584	138.2138	188.1101	271.2728	311.2028	383.9425	409.174	415.8436	419.5057	530.9407	582.0221	676.0546	738.4276	836.223	891.8321	909.3965	916.3262	934.5522	963.2284	1021.2301	1080.4155	1092.8264	1111.2731	1130.5319	1135.2313	1162.8053	1189.9685	1225.5947	1235.9891	1255.8256	1264.8709	1273.0283	1285.7866	1343.8792	1357.8919	1385.8096	1420.1405	1438.8748	1442.2959	1469.298	1489.9746	1499.2235	1507.537	2979.2042	2983.1334	3017.7124	3032.5928	3059.8744	3067.491	3069.8934	3082.4431	3115.2691	3130.2285	3772.7701	3804.7999
OCCOC1CCC1O	OCCO[C@H]1CC[C@H]1O	
InChI=1S/C6H12O3/c7-3-4-9-6-2-1-5(6)8/h5-8H,1-4H2	InChI=1S/C6H12O3/c7-3-4-9-6-2-1-5(6)8/h5-8H,1-4H2/t5-,6+/m1/s1
