16
gdb 102014	2.10593	1.52709	0.94296	3.8761	68.46	-0.2542	-0.0965	0.1577	1201.5784	0.121252	-475.062787	-475.053164	-475.05222	-475.098462	32.625	
C	 0.2039489595	 1.2992668339	 0.1425600132	-0.377041
C	-0.0810850919	-0.1957258706	 0.2704854739	-0.168376
N	-1.5134386419	-0.5335579329	 0.1210336375	-0.15566
C	-1.9612155996	-0.7153831926	-1.2054549103	 0.162914
O	-3.0847126302	-0.9067261113	-1.5703050548	-0.252968
C	-2.3847755332	-0.6848573802	 1.1981739846	 0.332162
O	-3.5245481749	-1.0804098181	 1.1185139103	-0.287102
C	-1.932098279	-0.3026318035	 2.6234769043	 0.089645
O	-0.9898513052	 0.3690497135	 2.945720613	-0.237777
H	 1.2806787275	 1.4784275607	 0.21970832	 0.128588
H	-0.1366573132	 1.6851724904	-0.8234453847	 0.124417
H	-0.292574492	 1.8554943949	 0.9395323986	 0.147857
H	 0.4515092812	-0.7511778876	-0.5084009813	 0.121843
H	 0.2712376877	-0.5733045277	 1.2274951627	 0.14663
H	-1.1011550582	-0.6510461573	-1.9009580527	 0.092592
H	-2.6789563165	-0.6908320616	 3.3442169956	 0.132275
33.8821	82.2604	121.4012	143.2793	206.285	218.4663	238.3015	255.4854	394.5199	425.2758	485.0659	555.0504	616.3501	666.7058	759.6342	789.9567	966.8929	1021.2184	1029.0254	1061.8555	1105.6524	1164.4155	1199.7881	1285.7843	1376.5132	1390.889	1397.2031	1415.1067	1459.9691	1489.1123	1497.7969	1512.0051	1757.5022	1828.4375	1859.6796	2935.057	2954.6618	3046.2434	3058.9719	3111.8741	3143.7035	3162.2279
CCN(C=O)C(=O)C=O	CCN(C=O)C(=O)C=O	
InChI=1S/C5H7NO3/c1-2-6(4-8)5(9)3-7/h3-4H,2H2,1H3	InChI=1S/C5H7NO3/c1-2-6(4-8)5(9)3-7/h3-4H,2H2,1H3
