18
gdb 91519	2.55766	1.45761	1.13469	13.0545	73.28	-0.1777	-0.0089	0.1689	1115.0972	0.147707	-439.027794	-439.019214	-439.01827	-439.061354	32.047	
C	 0.0379583841	 1.671698814	 0.1573822319	-0.430806
C	 0.070518126	 0.1642327272	 0.1496560372	-0.01699
N	 1.0561838871	-0.494330584	-0.8952510279	-0.30431
H	 0.5686510323	-1.0330036023	-1.6087699219	 0.306265
H	 1.7179786605	 0.1354172345	-1.3541971173	 0.292462
C	 1.6272226177	-1.3390677002	 0.2222391426	-0.083088
C	 2.2328801404	-0.4509997531	 1.250609011	-0.348197
C	 0.7433820349	-0.6329084349	 1.2541667638	 0.228401
C	-0.0799212062	-1.2808191589	 2.3972372512	 0.296289
O	-1.2784705422	-0.9430599705	 2.3438977063	-0.486856
O	 0.5766875134	-2.0279398139	 3.1328956964	-0.480311
H	 1.0232605292	 2.1116663411	 0.3379407556	 0.128163
H	-0.3783379088	 2.0857334481	-0.7667174302	 0.125609
H	-0.617564719	 1.9591728361	 0.9848208922	 0.193686
H	-0.9127371249	-0.2671580809	-0.0392381263	 0.151715
H	 1.8358854773	-2.3807597907	 0.0203157473	 0.147
H	 2.6825855573	-1.0049276996	 2.0699543515	 0.177886
H	 2.7336838808	 0.4737337079	 0.9690561267	 0.103082
64.0202	103.6043	171.5281	206.873	243.565	274.8368	368.1289	422.8488	473.8878	540.6844	664.4526	692.8733	735.7785	771.1835	810.0376	837.4284	873.9729	909.0768	931.7185	985.3138	1025.8447	1056.6346	1077.1958	1088.01	1133.3649	1171.6465	1202.0331	1224.4463	1240.3534	1309.256	1330.9149	1360.2483	1390.7888	1409.9041	1459.8156	1488.7582	1491.158	1625.3808	1791.7414	3040.5017	3095.1575	3109.3046	3125.3868	3136.9839	3203.2114	3214.3431	3422.9536	3528.6068
CC1[NH2+]C2CC12C([O-])=O	C[C@H]1[NH2][C@H]2C[C@@]12C(=O)[O]	
InChI=1S/C6H9NO2/c1-3-6(5(8)9)2-4(6)7-3/h3-4,7H,2H2,1H3,(H,8,9)	InChI=1S/C6H9NO2/c1-3-6(5(8)9)2-4(6)7-3/h3-4H,2,7H2,1H3/t3-,4+,6-/m1/s1
