18
gdb 73964	2.33028	1.49338	0.94111	5.5862	79.2	-0.218	-0.0359	0.1821	1211.295	0.148441	-439.109933	-439.101305	-439.10036	-439.143178	32.361	
N	 0.1379935223	 1.4049386614	 0.0801827921	-0.569174
C	-0.0017119181	 0.0413611869	 0.027682965	 0.274152
C	-1.1780803828	-0.643685518	 0.1156269574	 0.077095
C	-1.1958184315	-2.1600893476	 0.075718757	-0.160623
O	 0.0200494213	-2.7323241844	-0.3745038848	-0.242116
C	 1.1323255776	-2.1794624377	 0.2895358012	-0.088313
C	 1.3034084365	-0.7093513069	-0.0977701058	-0.30248
C	-2.4680592639	-0.0057090076	 0.2721434254	 0.07455
O	-3.5231483863	-0.6082157439	 0.3714515523	-0.302026
H	 1.0071436109	 1.7913487711	-0.2501945857	 0.25808
H	-0.6651173982	 1.9916025845	-0.0739080466	 0.26389
H	-1.4556852167	-2.5594960264	 1.071147363	 0.103059
H	-1.9754975515	-2.5000498477	-0.6108134879	 0.131847
H	 1.0200914527	-2.2681978939	 1.3829315345	 0.095677
H	 2.0073204745	-2.7637532168	-0.0086672867	 0.11039
H	 1.6557996957	-0.6383636625	-1.1355936128	 0.129464
H	 2.062741645	-0.231466135	 0.5340504551	 0.114123
H	-2.4720196377	 1.1093934346	 0.3050740573	 0.032405
98.4027	121.593	168.4257	212.0869	314.9422	338.6082	351.2073	376.6925	430.0982	454.2926	490.9374	559.8595	619.8011	681.2859	764.0693	879.3439	910.8052	990.19	998.3655	1030.2933	1041.8437	1092.6634	1144.4524	1199.3869	1225.1891	1235.7358	1258.4887	1306.4255	1335.3583	1370.3281	1419.6615	1421.1767	1457.2853	1463.4781	1492.9971	1505.6258	1643.0379	1686.0487	1749.1122	2831.7938	2956.7462	2970.5985	3017.4938	3058.3441	3087.4285	3092.0602	3597.4079	3706.4335
NC1=C(COCC1)C=O	NC1=C(COCC1)C=O	
InChI=1S/C6H9NO2/c7-6-1-2-9-4-5(6)3-8/h3H,1-2,4,7H2	InChI=1S/C6H9NO2/c7-6-1-2-9-4-5(6)3-8/h3H,1-2,4,7H2
