20
gdb 14770	9.4164	0.56773	0.5578	4.2598	74.04	-0.2763	0.0102	0.2865	1980.8801	0.175171	-386.173369	-386.163493	-386.162549	-386.209771	33.318	
C	 0.0917233057	 1.4333157436	 0.1870136168	-0.38154
C	 0.1211333565	-0.0851336892	-0.0039857473	-0.164304
C	 0.6300974944	-0.5064979699	-1.3871044784	-0.166732
C	 0.661361442	-2.0264365744	-1.5796100689	-0.187876
C	 1.1670449832	-2.4270719143	-2.9601000607	-0.091413
O	 1.1015103113	-3.8499787527	-3.1340867004	-0.173422
C	 2.2505518575	-4.546419693	-3.0949345073	 0.170731
O	 2.2929761797	-5.736110017	-3.1890645076	-0.275558
H	 1.0913328465	 1.866898619	 0.071514471	 0.114924
H	-0.562901234	 1.913013075	-0.5491261109	 0.115567
H	-0.2744077076	 1.7025212873	 1.1824023296	 0.115769
H	 0.7550583016	-0.5410034662	 0.767713649	 0.098893
H	-0.8853631185	-0.4953855517	 0.1496515382	 0.100185
H	-0.0051727606	-0.052351951	-2.1603263325	 0.098422
H	 1.6370845999	-0.0944430233	-1.5428370923	 0.095787
H	 1.3026043637	-2.4890925451	-0.8183580025	 0.10526
H	-0.3414912941	-2.4468580197	-1.4395654177	 0.117791
H	 0.5438416269	-1.9944254456	-3.7488099179	 0.12522
H	 2.1971256943	-2.0797514737	-3.1180590587	 0.109327
H	 3.1412823318	-3.8969277181	-2.9752993716	 0.072967
32.1753	59.7872	98.5246	116.1258	145.614	172.9157	247.5701	298.5569	332.501	389.6449	475.5415	676.3869	735.8646	766.616	854.5185	901.7972	982.517	1019.1947	1032.0577	1046.4755	1057.6445	1067.5769	1135.0488	1144.377	1216.0661	1264.1069	1273.5296	1315.3157	1329.2158	1340.7613	1355.6367	1402.6974	1409.2222	1417.2442	1434.6838	1484.8864	1488.0283	1497.3457	1500.6473	1508.3657	1516.6288	1866.6154	2932.8293	3003.7555	3017.1701	3018.7823	3028.0218	3030.7503	3032.1694	3053.7377	3069.6908	3092.262	3097.5101	3104.6287
CCCCCOC=O	CCCCCOC=O	
InChI=1S/C6H12O2/c1-2-3-4-5-8-6-7/h6H,2-5H2,1H3	InChI=1S/C6H12O2/c1-2-3-4-5-8-6-7/h6H,2-5H2,1H3
