23
gdb 76236	2.67436	1.34129	1.09777	0.2963	91.56	-0.2253	0.0343	0.2596	1243.4084	0.205686	-351.167474	-351.158208	-351.157264	-351.201124	36.243	
C	-0.0994623876	 1.5615881555	-0.0423438894	-0.389684
C	 0.0012418742	 0.0254472078	 0.0103037358	-0.169719
C	 0.8191536971	-0.5273431889	-1.1493292752	 0.344285
C	 0.3142976331	-0.4905176669	-2.5582824924	-0.497415
C	 2.0000353408	-0.9903749432	-0.7333745157	-0.173059
C	 2.1850665865	-0.8670993427	 0.7576402648	-0.339079
C	 0.7703175898	-0.511115282	 1.2337118591	 0.38294
C	 0.5059029006	-0.0369543173	 2.6357839621	-0.322263
C	 0.07525537	-1.422171834	 2.2151633613	-0.310232
H	 0.8943338231	 2.0200969336	-0.0098362348	 0.11654
H	-0.594067136	 1.8950686074	-0.9605804782	 0.109515
H	-0.6783548826	 1.9494530044	 0.8016727495	 0.110894
H	-1.0210416524	-0.3782705863	-0.0081400178	 0.065825
H	 0.0964681941	 0.5338865194	-2.8849397973	 0.124864
H	 1.0406379652	-0.917485328	-3.2554860476	 0.120977
H	-0.6230263394	-1.0534308367	-2.6574512966	 0.122354
H	 2.766439203	-1.3956819273	-1.386571103	 0.080199
H	 2.5584256713	-1.7890371891	 1.2210717267	 0.098344
H	 2.9166721748	-0.082731613	 1.0044075821	 0.101154
H	 1.35123509	 0.0543705213	 3.3108452407	 0.106048
H	-0.2663354022	 0.7083644092	 2.7971566515	 0.106446
H	-0.9869023812	-1.6039693981	 2.0818666561	 0.105597
H	 0.6261400479	-2.2724810652	 2.6052200082	 0.105469
60.5829	161.4105	208.8974	210.7024	243.745	256.978	268.0621	326.2685	385.4843	460.4129	497.4773	580.1608	641.6012	753.896	778.5856	806.0282	832.7149	877.4913	902.874	932.2027	970.058	983.3014	1020.5829	1025.8165	1041.3291	1052.4637	1056.7049	1080.6194	1092.1413	1108.3755	1170.805	1187.5726	1190.3265	1259.1946	1275.4951	1296.9183	1328.515	1345.35	1381.231	1406.3009	1413.807	1468.0469	1477.7435	1488.6471	1489.844	1495.7558	1498.735	1506.212	1722.9413	2988.4759	2997.5488	3016.241	3032.125	3034.4415	3061.8806	3099.0265	3104.8718	3107.38	3116.8709	3123.5058	3178.6705	3194.2524	3209.9354
CC1C(C)=CCC11CC1	C[C@H]1C(=CCC21CC2)C	
InChI=1S/C9H14/c1-7-3-4-9(5-6-9)8(7)2/h3,8H,4-6H2,1-2H3	InChI=1S/C9H14/c1-7-3-4-9(5-6-9)8(7)2/h3,8H,4-6H2,1-2H3/t8-/m0/s1
