19
gdb 38379	2.19495	2.09657	1.33974	3.313	70.76	-0.248	0.0626	0.3105	992.4869	0.161332	-460.125762	-460.118264	-460.11732	-460.157657	29.274	
C	-0.1034383089	 1.6048124336	-0.0573714456	-0.319519
C	 1.4371411492	 1.5816463994	 0.0089058352	 0.113918
C	 2.1152965512	 2.0663627604	 1.2952774658	-0.095985
O	 2.0093708147	 1.2361462462	 2.4339874238	-0.22693
C	 0.7578925909	 0.8067361489	 2.8972799429	 0.017929
O	 0.40673691	-0.47110336	 2.4400632348	-0.226931
C	-0.4191137338	-0.6335501822	 1.3048440942	-0.095981
C	 0.017238431	 0.0690327586	 0.0142766021	 0.113916
O	 1.4522009141	 0.144209214	-0.1450655288	-0.27645
H	-0.6407677993	 2.1120612874	 0.7450355173	 0.107623
H	-0.4868871754	 1.9613573659	-1.0145815154	 0.112797
H	 1.9320180531	 2.0806266667	-0.8344608192	 0.080976
H	 3.193548161	 2.144657599	 1.1240784963	 0.120303
H	 1.7422029135	 3.084132869	 1.5056928168	 0.089282
H	 0.8777479237	 0.6980689963	 3.9794840123	 0.114912
H	-0.0313151867	 1.5468575681	 2.6931115899	 0.079579
H	-0.4296998525	-1.7152294461	 1.1377398465	 0.120303
H	-1.4576872795	-0.3247344292	 1.5177491381	 0.089281
H	-0.4524668761	-0.4595452662	-0.825447297	 0.080976
132.2676	133.4634	266.9951	278.5882	312.9766	321.4116	392.2357	508.4165	625.1279	661.1363	728.4459	782.5384	877.6288	905.9279	913.1992	914.2441	942.5682	1000.4812	1036.3545	1055.319	1072.7763	1100.1223	1135.0491	1161.1357	1174.164	1229.8516	1235.7532	1262.3829	1272.0643	1294.4256	1342.2181	1360.7958	1362.4772	1379.5022	1413.0753	1422.0522	1446.8781	1485.0771	1489.3701	1492.5496	1515.5117	2956.7624	2957.0129	2983.0021	3015.2268	3018.9471	3076.0969	3076.7329	3079.9687	3083.2829	3133.0286
C1C2COCOCC1O2	C1[C@H]2COCOC[C@@H]1O2	
InChI=1S/C6H10O3/c1-5-2-7-4-8-3-6(1)9-5/h5-6H,1-4H2	InChI=1S/C6H10O3/c1-5-2-7-4-8-3-6(1)9-5/h5-6H,1-4H2/t5-,6+
