22
gdb 99748	1.89137	1.48369	1.05281	4.6904	78.49	-0.2435	0.0196	0.2631	1265.3862	0.193039	-441.511727	-441.501404	-441.50046	-441.546738	37.917	
C	 0.3058615195	-0.5947902206	 1.2031160152	-0.397319
C	-0.0881736237	-0.0001508325	-0.1548009464	-0.228977
C	 0.8251947156	-0.3693530982	-1.3446647244	-0.078891
N	 2.2276245323	 0.069425733	-1.2205747318	-0.103286
H	 2.4439613937	-1.8021264792	-0.6581410427	 0.300428
C	 2.9098208832	-0.026038334	-2.5160275466	-0.334975
C	 2.4169504461	 1.4069192676	-0.6621058112	-0.328499
C	 0.7881754473	-1.9037906483	-1.494134564	 0.423414
O	-0.1305909823	-2.4975919976	-1.9888263871	-0.343385
O	 1.8541836865	-2.5257632638	-0.9587564275	-0.36896
H	 0.3096097566	-1.6881988178	 1.1758207286	 0.144002
H	 1.2992464054	-0.2707903248	 1.5283871979	 0.120202
H	-0.4103741852	-0.2851211257	 1.9697350849	 0.121069
H	-1.0858233554	-0.3575585581	-0.4287121246	 0.133265
H	-0.1628075903	 1.0898000627	-0.0870207431	 0.103943
H	 0.3598196144	 0.044440355	-2.2536446054	 0.089362
H	 2.4953492434	 0.6787119718	-3.2570851476	 0.111849
H	 3.9729126472	 0.1959446035	-2.3876070923	 0.125743
H	 2.8205318157	-1.037307451	-2.9201537168	 0.145068
H	 2.0195275003	 1.4715955253	 0.3509450748	 0.133449
H	 3.4893177328	 1.6168454159	-0.6139903156	 0.126302
H	 1.9465708771	 2.1959999367	-1.2738261041	 0.106199
72.0799	122.9925	144.8555	183.2021	194.749	209.7448	239.4175	265.9312	328.036	335.6054	387.1851	410.6533	487.5991	551.5488	643.4077	733.682	786.7663	847.4638	855.2271	885.7848	913.4019	1006.5132	1061.3589	1075.1291	1085.2278	1118.5264	1128.3717	1183.1925	1206.5415	1243.1874	1282.2366	1292.5807	1330.9226	1351.3292	1379.3026	1403.4034	1423.0298	1444.9937	1477.9239	1484.4887	1494.3533	1494.9383	1501.5814	1504.9231	1507.7126	1517.7371	1872.7271	2960.6635	2967.0045	2976.7473	3044.5396	3054.9151	3079.2265	3083.852	3086.9407	3111.9936	3118.361	3123.7465	3141.2539	3513.3143
CCC([NH+](C)C)C([O-])=O	CC[C@@H](N(C)C)C(=O)O	
InChI=1S/C6H13NO2/c1-4-5(6(8)9)7(2)3/h5H,4H2,1-3H3,(H,8,9)	InChI=1S/C6H13NO2/c1-4-5(6(8)9)7(2)3/h5H,4H2,1-3H3,(H,8,9)/t5-/m1/s1
