20
gdb 99652	2.32211	1.21748	0.90393	1.8113	82.09	-0.228	0.0298	0.2578	1354.7192	0.167602	-403.05893	-403.04867	-403.047726	-403.094459	36.865	
C	 0.6425704662	-0.4862814383	 1.1960677702	-0.240265
O	-0.0780162467	-0.6948834491	-0.0017890251	-0.232212
C	 0.6731549512	-0.4460419511	-1.1793548069	-0.082148
C	 1.7887528179	-1.3928045014	-1.3374460645	 0.339169
C	 2.6923222591	-2.1751443418	-1.4678455044	-0.475093
C	-0.3114013113	-0.5573096659	-2.3353108253	 0.016787
C	-1.0823027852	 0.6395540026	-2.7715653858	-0.260581
N	-0.0794814024	 0.0420375639	-3.6436245599	-0.081487
C	 1.140311539	 0.7905122552	-3.9136298503	-0.317412
H	 1.5037561923	-1.1624546217	 1.2787944557	 0.121856
H	 1.0031473924	 0.5514288083	 1.2737143768	 0.103247
H	-0.0491127613	-0.6834064023	 2.0179567665	 0.130248
H	 1.0886631478	 0.5734135362	-1.1378623104	 0.089471
H	 3.4917878272	-2.8643660275	-1.5872977903	 0.201496
H	-0.7830971229	-1.5369224683	-2.3744874546	 0.106062
H	-2.1172734016	 0.54960047	-3.0904237851	 0.117153
H	-0.837830818	 1.5837033206	-2.2836319693	 0.104695
H	 1.4384529266	 1.4897864313	-3.1161560826	 0.099115
H	 1.9644115082	 0.091743361	-4.0837206508	 0.135131
H	 0.9912157914	 1.3749469485	-4.8269788137	 0.124771
52.3489	100.6055	117.5819	161.3865	176.5831	208.6715	244.0761	274.1531	308.9616	385.8558	439.4216	463.7313	546.3754	601.7085	633.9766	675.1918	755.6005	871.3978	904.1754	965.5253	1009.0505	1034.1355	1081.3078	1118.0962	1128.5637	1132.9042	1161.3262	1176.7319	1183.4572	1202.8032	1224.5697	1291.048	1333.4605	1350.871	1424.9604	1450.8966	1476.6384	1484.7064	1489.4272	1503.6153	1511.0637	1514.5571	2228.1058	2966.0181	2980.6312	2984.3541	3046.4215	3070.1696	3082.5384	3111.2281	3122.8895	3129.9777	3173.6036	3501.1074
COC(C#C)C1CN1C	CO[C@@H](C#C)[C@H]1CN1C	
InChI=1S/C7H11NO/c1-4-7(9-3)6-5-8(6)2/h1,6-7H,5H2,2-3H3	InChI=1S/C7H11NO/c1-4-7(9-3)6-5-8(6)2/h1,6-7H,5H2,2-3H3/t6-,7+,8?/m1/s1
