19
gdb 38581	3.43839	1.67797	1.49147	1.6488	78.43	-0.2478	0.0755	0.3232	939.9388	0.16214	-385.800315	-385.79403	-385.793085	-385.830544	27.484	
C	-0.1206324221	 1.5025597696	 0.1094687184	-0.239002
C	 1.4135967985	 1.3014592498	 0.0572644859	-0.095088
C	 1.20000354	 0.0724798226	 1.0246995508	-0.316907
C	 0.1007011171	-0.0362907068	-0.071473171	 0.362904
C	-0.8972030894	-0.9484305648	-0.7542027696	-0.166742
O	-1.848761067	-0.1835930355	-1.5090368377	-0.242217
C	-0.70763218	-0.6968221568	-2.2073348447	 0.064586
C	 0.4338100877	 0.3270362338	-2.4526262313	-0.333072
C	 1.1975368544	 0.2786175097	-1.1111587785	 0.039967
H	-0.5397437685	 1.8161780545	 1.0692588154	 0.087457
H	-0.5881217689	 2.0381685884	-0.7146890884	 0.105819
H	 2.1857369887	 2.0658897403	 0.1549312546	 0.071548
H	 1.9770995708	-0.69680977	 1.021520059	 0.094162
H	 0.8744340554	 0.3152281171	 2.0396015459	 0.094436
H	-1.2581791426	-1.8885174815	-0.3453854902	 0.093201
H	-0.9429273701	-1.4369256842	-2.9698804455	 0.09372
H	 1.0588790413	 0.017323863	-3.2945989006	 0.099825
H	 0.0036124236	 1.3004428814	-2.7028170032	 0.121796
H	 1.9829356611	-0.4847494208	-1.1633149192	 0.063607
215.6408	261.6674	374.4083	428.5674	480.1623	518.737	575.9547	651.9008	728.1392	754.0136	811.1457	831.7875	844.2664	876.8547	904.6039	915.0494	946.4991	972.915	983.392	1015.0054	1041.9916	1060.2167	1072.6169	1100.8228	1116.0188	1136.4805	1148.6583	1153.8257	1187.618	1202.2097	1212.6296	1235.854	1244.9776	1254.2494	1289.9211	1334.6565	1386.4636	1409.5937	1477.866	1503.4513	1545.2215	3028.1067	3050.0564	3062.3902	3068.59	3100.8997	3106.4253	3118.1599	3128.6774	3148.1407	3153.8009
C1C2CC11C3OC3CC21	C1[C@H]2C[C@]31[C@H]1O[C@H]1C[C@@H]23	
InChI=1S/C8H10O/c1-5-4-2-8(5,3-4)7-6(1)9-7/h4-7H,1-3H2	InChI=1S/C8H10O/c1-5-4-2-8(5,3-4)7-6(1)9-7/h4-7H,1-3H2/t4-,5-,6-,7-,8-/m0/s1
