16
gdb 36559	5.46716	0.50459	0.4713	3.673	84.66	-0.2675	0.0134	0.2809	2191.659	0.121695	-363.564526	-363.554466	-363.553522	-363.603254	34.161	
C	-0.0229299986	-1.1599912733	 0.3192969612	-0.433797
C	 0.115046307	 0.0297136406	 0.4181924564	 0.291883
C	 0.3046570692	 1.471331232	 0.5028269874	-0.341078
C	 1.1664388883	 2.0148534272	-0.6684959594	-0.348919
C	 1.3576082109	 3.4573472417	-0.5911724176	 0.0549
C	 1.4969657409	 4.6481245765	-0.4979476492	 0.118051
C	 1.6775818707	 6.0947468544	-0.4026549694	-0.473397
C	 2.0974519738	 6.5352867822	 0.934864479	 0.279158
N	 2.426276277	 6.8931748137	 1.98209463	-0.29982
H	-0.1541987989	-2.2113095424	 0.2483321602	 0.199661
H	-0.6660516237	 1.9799848937	 0.4984636115	 0.144121
H	 0.7858614524	 1.7335683786	 1.4517811324	 0.149602
H	 2.1373150252	 1.5067313423	-0.6630519365	 0.148663
H	 0.6860002359	 1.7512491429	-1.617574242	 0.146644
H	 2.4290229887	 6.4369881707	-1.1260187461	 0.18288
H	 0.747734201	 6.6192796494	-0.6580112478	 0.181447
4.5537	48.1065	68.2968	113.9723	182.7567	239.0172	299.3794	346.7521	372.5416	395.1222	443.658	497.8419	587.5524	624.4446	655.0286	765.1453	803.5216	928.2007	936.6117	965.9423	1008.4916	1033.7496	1163.6955	1194.9201	1234.4591	1284.3827	1305.5073	1338.0266	1366.7637	1448.5022	1471.0986	1481.3401	2241.0478	2370.5402	2382.1465	3024.6681	3035.1749	3044.6135	3054.375	3064.047	3085.3659	3506.6
C#CCCC#CCC#N	C#CCCC#CCC#N	
InChI=1S/C8H7N/c1-2-3-4-5-6-7-8-9/h1H,3-4,7H2	InChI=1S/C8H7N/c1-2-3-4-5-6-7-8-9/h1H,3-4,7H2
