14
gdb 129563	3.51258	1.23236	0.94762	4.4014	66.83	-0.2745	-0.0114	0.2631	1153.346	0.10442	-429.071948	-429.064208	-429.063264	-429.104926	27.754	
N	-0.8830728481	 0.6211349008	 0.1169023827	-0.514943
C	 0.1573285228	-0.3792977047	-0.1495877014	-0.268827
C	 1.0876443319	 0.0005938658	-1.233100442	 0.299587
N	 1.7462856277	 0.3567926425	-2.112608674	-0.314327
C	 0.8960572159	-0.6818294881	 1.128140893	 0.425486
N	 2.0881842827	-1.2266905591	 1.264554097	-0.316023
C	 2.2211702319	-1.3139810878	 2.6182426731	 0.0238
N	 1.1930285833	-0.859019314	 3.3166832809	-0.206625
N	 0.3492772014	-0.4575556721	 2.3387179804	-0.23247
H	-0.459179297	 1.5404213019	 0.2113652646	 0.256673
H	-1.5209187145	 0.6737970347	-0.6708860827	 0.258012
H	-0.3516794651	-1.297187884	-0.4724490287	 0.165488
H	 3.098995108	-1.7192365746	 3.0982022258	 0.135084
H	-0.5488694011	-0.0495678711	 2.5437905615	 0.289085
57.6518	121.7302	180.7002	237.1982	294.3175	334.8055	443.8392	467.6044	595.2252	619.9832	683.8603	716.986	809.6858	871.251	913.8825	970.227	991.5709	1049.0669	1095.8833	1137.9521	1183.8014	1211.1357	1257.7538	1305.6038	1330.5749	1386.948	1426.0528	1493.716	1580.2239	1665.667	2360.1958	3029.4091	3266.8678	3499.3407	3581.5282	3662.8546
NC(C#N)C1=NC=NN1	N[C@@H](C#N)c1ncn[nH]1	
InChI=1S/C4H5N5/c5-1-3(6)4-7-2-8-9-4/h2-3H,6H2,(H,7,8,9)	InChI=1S/C4H5N5/c5-1-3(6)4-7-2-8-9-4/h2-3H,6H2,(H,7,8,9)/t3-/m0/s1
