21
gdb 65672	4.02433	0.92857	0.90279	2.9478	83.22	-0.2431	-0.0197	0.2234	1375.3083	0.181213	-387.071869	-387.062728	-387.061784	-387.106141	34.37	
C	-0.1080952847	 1.5708860242	 0.2418254191	-0.472545
C	 0.0450121905	 0.0682802605	 0.0796965267	 0.328348
C	-1.1828788598	-0.5929002069	-0.5436935796	-0.347966
C	-1.440362465	-0.1296431394	-1.9638489626	 0.165138
O	-2.508777214	 0.2243122252	-2.3912628645	-0.243663
C	 1.347936186	-0.6043823772	-0.2980577827	-0.087854
C	 2.5665243029	 0.0926625919	 0.3210117033	-0.246313
C	 1.9465785225	-0.1157792319	 1.740816009	-0.248852
C	 0.7375340042	-0.8072932947	 1.0976382878	-0.099137
H	 0.7667072399	 2.0377358979	 0.6978183124	 0.123167
H	-0.272266471	 2.0586005186	-0.7260970792	 0.123507
H	-0.9738038482	 1.8014200478	 0.8733238794	 0.121795
H	-1.0274242374	-1.6807240971	-0.588009443	 0.117827
H	-2.086582117	-0.4098586953	 0.0469605938	 0.118172
H	-0.5381947613	-0.1455302596	-2.6191144871	 0.074089
H	 1.3973748129	-1.305616233	-1.124024596	 0.080987
H	 3.4853052407	-0.4824001719	 0.1889743448	 0.10632
H	 2.7574822802	 1.1214351244	 0.0003975673	 0.099517
H	 2.5413119985	-0.8016822593	 2.3476824666	 0.106608
H	 1.7407447507	 0.7780336053	 2.3379100933	 0.09918
H	 0.2398266993	-1.6813245593	 1.5032588213	 0.081675
56.6306	80.9027	167.5288	178.4674	252.4095	265.5701	322.6183	335.4046	412.3708	460.9763	546.699	674.3517	718.5574	782.9713	793.15	851.4743	870.686	934.1593	964.0785	967.1615	980.0204	1003.1623	1028.2471	1058.3846	1063.0207	1098.8409	1108.7254	1127.9213	1188.2039	1214.6446	1224.0575	1255.5735	1261.3714	1283.849	1309.5019	1313.6985	1417.5858	1424.3225	1425.4938	1454.9034	1477.1536	1496.371	1502.087	1508.6706	1833.5038	2859.9228	3010.8495	3030.6424	3050.1464	3057.0998	3081.7537	3084.5286	3097.9963	3115.9199	3127.7643	3159.8006	3171.2753
CC1(CC=O)C2CCC12	C[C@@]1(CC=O)[C@H]2CC[C@@H]12	
InChI=1S/C8H12O/c1-8(4-5-9)6-2-3-7(6)8/h5-7H,2-4H2,1H3	InChI=1S/C8H12O/c1-8(4-5-9)6-2-3-7(6)8/h5-7H,2-4H2,1H3/t6-,7+,8+
