16
gdb 44554	3.46976	1.54125	1.48664	5.6119	67.36	-0.2306	0.0667	0.2973	920.6781	0.12801	-434.0619	-434.05522	-434.054275	-434.09283	27.156	
O	 0.0058574169	-0.0126515509	 0.2584134837	-0.399892
C	-0.0128566074	 1.1797319894	 0.069559657	 0.430402
N	-1.149256328	 1.977183461	-0.0885463762	-0.325704
C	-0.8281868545	 3.3772552684	 0.025525293	-0.018925
C	-0.7812413668	 4.0551455825	 1.4171806874	-0.068161
N	-0.0092634246	 3.1591192872	 2.2992642411	-0.322312
C	 0.7136877062	 4.0754982663	 1.3967983352	-0.068159
C	 0.741160112	 3.3985164942	 0.0041901229	-0.018913
N	 1.0968233239	 2.0076067629	-0.1190219807	-0.325703
H	-2.0041320428	 1.5972309658	 0.2854774082	 0.250311
H	-1.3131084193	 3.9959189826	-0.733096576	 0.091154
H	-1.4807760612	 4.777045139	 1.8208715912	 0.098126
H	-0.0021550466	 3.5719864222	 3.2303047287	 0.238192
H	 1.404061869	 4.8163213573	 1.7815302642	 0.098124
H	 1.1883487703	 4.029782245	-0.7671225888	 0.091145
H	 1.9715147029	 1.6510894272	 0.231522999	 0.250313
129.249	186.6443	333.7816	392.6753	434.1394	482.5692	538.0471	622.1952	661.0144	713.0821	754.2638	774.7706	820.9817	859.8288	878.6825	911.5943	946.0262	953.3624	982.9878	1021.4126	1093.1491	1099.3264	1117.309	1137.5039	1190.7655	1231.4767	1238.5415	1270.6555	1321.8838	1368.4393	1369.9349	1378.1228	1394.2968	1407.8041	1855.5254	3072.2157	3083.2582	3181.3178	3194.8907	3492.623	3645.7038	3647.6533
O=C1NC2C3NC3C2N1	O=C1N[C@H]2[C@H]3N[C@H]3[C@H]2N1	
InChI=1S/C5H7N3O/c9-5-7-3-1-2(6-1)4(3)8-5/h1-4,6H,(H2,7,8,9)	InChI=1S/C5H7N3O/c9-5-7-3-1-2(6-1)4(3)8-5/h1-4,6H,(H2,7,8,9)/t1-,2+,3-,4+
