20
gdb 120281	3.2462	0.98801	0.88215	3.4136	74.31	-0.2394	0.0692	0.3086	1362.7376	0.171294	-440.228085	-440.219078	-440.218134	-440.262239	33.972	
O	 0.1865780852	 1.4162922844	 0.2152086499	-0.421012
C	 0.0836220125	 0.0161846735	-0.0043435674	-0.064945
C	-1.3422525452	-0.5076711727	 0.1854681904	-0.218499
C	-1.4393924618	-2.0204210999	 0.0359278801	-0.038002
C	-2.8174205205	-2.687364728	 0.089459601	-0.07212
N	-3.563479865	-2.2236187329	-1.1102001227	-0.35825
C	-2.6132076446	-3.3615633067	-1.219222565	-0.084048
C	-1.2547460196	-2.6723659094	-1.408956472	 0.126177
O	-1.1568724153	-1.8158167924	-2.5137650868	-0.431752
H	-0.3194404017	 1.8550684368	-0.4758430434	 0.27921
H	 0.4480478758	-0.2626574457	-1.00298765	 0.109398
H	 0.7529690377	-0.444531262	 0.7318304059	 0.100863
H	-1.6971177414	-0.2093795618	 1.1799851559	 0.099314
H	-2.0068890118	-0.0274463022	-0.542676506	 0.092277
H	-0.7591644772	-2.5194580866	 0.7354912544	 0.073238
H	-3.3538925564	-3.036538164	 0.9634250189	 0.095837
H	-4.5041247925	-2.6105932783	-1.0625198768	 0.235231
H	-2.9440413153	-4.3282511225	-1.5784729531	 0.095741
H	-0.4064832344	-3.3581282532	-1.4494581216	 0.0892
H	-2.0237946784	-1.3905899164	-2.5787886118	 0.292143
82.0925	92.2524	109.8346	192.1354	244.198	290.8168	298.2918	380.5427	450.8564	536.0675	608.9724	633.4637	681.2933	766.2589	812.6362	837.4827	846.9045	907.5502	947.3401	971.8416	1005.8854	1041.2676	1055.2385	1073.8311	1095.8788	1101.1798	1116.7588	1140.2262	1159.9115	1187.8622	1236.6985	1267.1129	1286.7902	1306.4647	1320.2748	1332.0934	1374.2958	1380.6922	1406.3748	1420.2932	1448.9578	1487.5983	1516.2985	3007.465	3028.3438	3042.3315	3052.5992	3078.3345	3098.7149	3182.3371	3196.1655	3492.6548	3740.0142	3817.4322
OCCC1C2NC2C1O	OCC[C@H]1[C@H]2N[C@H]2[C@H]1O	
InChI=1S/C6H11NO2/c8-2-1-3-4-5(7-4)6(3)9/h3-9H,1-2H2	InChI=1S/C6H11NO2/c8-2-1-3-4-5(7-4)6(3)9/h3-9H,1-2H2/t3-,4+,5+,6-/m0/s1
