13
gdb 133586	2.88582	1.1413	0.99881	3.3592	52.48	-0.2631	-0.0409	0.2222	1134.1197	0.084687	-584.228318	-584.220141	-584.219197	-584.262559	28.668	
F	 0.3719549317	 0.2134493403	-0.0893377348	-0.071469
C	 0.0203651681	 1.4993772301	-0.0041514048	 0.313308
F	 1.1183772825	 2.2434780039	-0.2007572708	-0.071345
F	-0.828612862	 1.7591886339	-1.0079570086	-0.072878
C	-0.6133084488	 1.8532794881	 1.3206437654	-0.18988
N	-1.5304025457	 0.893662364	 1.8958963836	-0.319552
C	-0.2836318861	 1.189478846	 2.6242947682	-0.120802
C	 0.6814828672	 0.050976957	 2.7789157248	 0.165071
O	 1.543038125	 0.0527186494	 3.620148395	-0.249451
H	-0.8410963345	 2.9159716091	 1.3718689019	 0.128948
H	-2.3311118717	 1.3498943473	 2.3223931596	 0.25706
H	-0.3113600219	 1.8448384319	 3.492134591	 0.120634
H	 0.5219338061	-0.794700811	 2.0847657796	 0.110356
39.1207	66.0957	180.1286	223.6039	283.2142	314.2283	405.8887	434.2997	506.6749	530.9929	609.1225	675.6793	791.7137	871.5878	918.8514	941.3246	1013.9275	1042.0437	1106.1643	1160.6418	1200.3073	1205.5634	1211.049	1231.1476	1315.5896	1367.8294	1425.39	1491.0062	1824.4051	2971.8868	3137.8284	3147.769	3528.2472
FC(F)(F)C1NC1C=O	FC(F)(F)[C@H]1N[C@H]1C=O	
InChI=1S/C4H4F3NO/c5-4(6,7)3-2(1-9)8-3/h1-3,8H	InChI=1S/C4H4F3NO/c5-4(6,7)3-2(1-9)8-3/h1-3,8H/t2-,3-/m0/s1
