13
gdb 20529	5.04452	1.68033	1.27046	4.6246	59.77	-0.2713	-0.0617	0.2097	883.7574	0.096292	-394.819561	-394.812677	-394.811732	-394.851063	24.364	
C	-0.0020736637	 1.5218411505	 0.0084788859	-0.50575
C	 0.0847135866	 0.0153035467	 0.00151792	 0.428679
O	 1.1104673393	-0.61221361	-0.009191718	-0.295938
N	-1.1602896743	-0.669413889	 0.0086757327	-0.108222
C	-2.4561630301	-0.1889549108	 0.0210925826	 0.040416
N	-3.3134958625	-1.1641738919	 0.0240548844	-0.215861
N	-2.5865129001	-2.3555478141	 0.0131736988	-0.220043
C	-1.3265323573	-2.0414400352	 0.0043621466	 0.055063
H	 1.0103674649	 1.9232636235	 0.0017023832	 0.166534
H	-0.5453249408	 1.8839515461	-0.8699631922	 0.161878
H	-0.5305080762	 1.8765546315	 0.8989047532	 0.161902
H	-2.6998585208	 0.8609750796	 0.0274113153	 0.15427
H	-0.487944335	-2.7176003469	-0.0052024026	 0.177072
93.0574	159.2864	159.9806	216.0015	384.9865	514.286	575.7219	642.1282	649.4066	682.1459	834.9343	884.7807	946.3929	961.817	991.5805	1053.3819	1059.7916	1115.3858	1232.0894	1249.6073	1312.812	1378.2622	1404.117	1469.8737	1480.1316	1529.2138	1541.4002	1834.3374	3050.7419	3116.3417	3170.1086	3278.9538	3294.0308
CC(=O)N1C=NN=C1	CC(=O)n1cnnc1	
InChI=1S/C4H5N3O/c1-4(8)7-2-5-6-3-7/h2-3H,1H3	InChI=1S/C4H5N3O/c1-4(8)7-2-5-6-3-7/h2-3H,1H3
