19
gdb 26423	4.20296	0.9587	0.84881	5.2192	77.34	-0.2163	0.0343	0.2507	1384.8896	0.160028	-419.240623	-419.231651	-419.230706	-419.275807	32.846	
C	 0.0846788418	 1.5163474636	-0.0404748591	-0.411393
C	 0.0507824133	-0.0073334091	 0.0671269775	 0.135976
O	 0.6675711634	-0.4671006127	 1.2616560271	-0.419046
C	-1.3857263655	-0.5474372618	-0.0549013501	-0.188403
N	-1.4517800615	-1.9931477637	-0.1478437607	 0.027108
C	-1.6029169998	-2.734348148	-1.3032325874	-0.132529
C	-1.5578270782	-4.0452128865	-0.9113391297	-0.090695
N	-1.3808571598	-4.1365785857	 0.4498160556	-0.276922
C	-1.317011929	-2.8939019094	 0.8702411039	 0.018105
H	 1.1086047285	 1.8765250642	 0.0861738377	 0.13611
H	-0.2857585193	 1.8586383796	-1.0118710447	 0.123977
H	-0.5390916231	 1.9786558175	 0.735694023	 0.112445
H	 0.6469266796	-0.4477884289	-0.7403910873	 0.107475
H	 0.3007276944	 0.035087568	 1.9983691264	 0.279445
H	-1.9682281769	-0.2183229235	 0.8147866642	 0.113086
H	-1.8682067429	-0.1293035851	-0.9433233164	 0.120978
H	-1.7375112337	-2.260478805	-2.2619907832	 0.119093
H	-1.6505716861	-4.9262582267	-1.5282195158	 0.104756
H	-1.163527415	-2.5752014568	 1.889381859	 0.120438
19.9588	82.9318	102.1137	233.8243	272.5201	305.4235	322.0867	339.1957	454.0648	473.057	635.2418	677.1187	718.9511	747.8933	810.6421	842.1879	850.0098	910.1502	916.2604	943.7197	1046.9476	1066.1172	1091.5004	1103.575	1141.5077	1159.2876	1195.1238	1263.175	1309.3228	1317.8457	1326.4705	1391.9948	1396.2438	1405.4302	1414.5925	1423.2748	1472.9904	1492.3807	1497.7835	1532.0631	1545.0074	3023.4031	3029.9544	3054.1306	3090.0243	3099.7361	3124.9693	3244.3013	3261.8485	3272.1683	3793.5738
CC(O)CN1C=CN=C1	C[C@@H](O)Cn1ccnc1	
InChI=1S/C6H10N2O/c1-6(9)4-8-3-2-7-5-8/h2-3,5-6,9H,4H2,1H3	InChI=1S/C6H10N2O/c1-6(9)4-8-3-2-7-5-8/h2-3,5-6,9H,4H2,1H3/t6-/m1/s1
