18
gdb 104708	2.71813	1.15852	1.03136	2.8062	68.49	-0.2526	0.0162	0.2688	1208.7674	0.147329	-476.235359	-476.226428	-476.225483	-476.269091	33.659	
O	 0.110857454	 1.3373743635	 0.3168016023	-0.432683
C	 0.0593233809	-0.0321861978	-0.0362889489	-0.104211
C	-1.3842531783	-0.5402586132	-0.1042720971	 0.286449
C	-2.1507511299	 0.0342319164	-1.2960046637	-0.125124
O	-2.2232831727	 1.4610333404	-1.2628126374	-0.421081
C	-1.569085367	-2.0723974747	 0.109304107	-0.466556
C	-2.1654908894	-1.6868434902	 1.4849540811	 0.436987
O	-2.5207586622	-2.2773877311	 2.4652380933	-0.341993
N	-2.1051023127	-0.3350715801	 1.1770197327	-0.368998
H	-0.442923284	 1.8019353308	-0.3268910981	 0.289453
H	 0.5661560288	-0.2315676381	-0.9948835251	 0.092066
H	 0.6032038743	-0.5750469254	 0.7443719563	 0.109645
H	-1.6349405576	-0.2188914913	-2.2282766226	 0.122578
H	-3.1577034956	-0.4019733533	-1.3332691897	 0.105
H	-2.8280856712	 1.6974296964	-0.5500813432	 0.295955
H	-2.2618461164	-2.5713541651	-0.5717617597	 0.130598
H	-0.6456712954	-2.6508239724	 0.1781439354	 0.138278
H	-1.9478691657	 0.4270545053	 1.8244852775	 0.253636
77.6777	108.2798	144.4797	230.2135	260.209	330.7774	353.3314	400.5168	408.5159	489.4952	502.8308	534.0298	582.2585	630.8386	711.9753	810.7552	883.7859	935.6941	947.6135	961.2005	1040.6395	1051.6313	1066.7198	1087.1438	1135.9807	1181.7728	1193.3342	1208.7575	1268.4871	1308.3753	1345.4924	1368.963	1401.1511	1415.9853	1456.0295	1467.6631	1488.9488	1506.5792	1900.2396	2971.6914	3016.9615	3067.408	3080.4405	3084.7712	3137.5887	3581.1439	3730.0413	3801.5045
OCC1(CO)CC(=O)N1	OCC1(CO)CC(=O)N1	
InChI=1S/C5H9NO3/c7-2-5(3-8)1-4(9)6-5/h7-8H,1-3H2,(H,6,9)	InChI=1S/C5H9NO3/c7-2-5(3-8)1-4(9)6-5/h7-8H,1-3H2,(H,6,9)
