15
gdb 34898	2.05365	1.90619	1.22899	3.7134	74.13	-0.2615	-0.0012	0.2603	1016.0172	0.112252	-379.593491	-379.585565	-379.584621	-379.62614	29.646	
C	-0.1656772146	-1.2736365619	 0.0276133808	-0.433101
C	-0.1035110118	-0.0735637872	 0.0387716667	 0.335896
C	 0.0006694322	 1.3694660306	 0.0624955585	-0.231643
C	-0.2217796737	 2.1036994063	 1.3927445624	-0.024005
C	 0.8406214631	 1.8025153074	 2.3638714406	-0.248527
N	 1.1160846413	 2.8231741936	 1.3286680121	-0.129262
C	 1.4223061461	 2.0653169762	 0.0607715791	-0.146767
C	 2.6085972084	 1.2217865412	 0.095435759	 0.322281
N	 3.5476426711	 0.5487966949	 0.1303761657	-0.326304
H	-0.2182314948	-2.3346235406	 0.0153131966	 0.209005
H	-0.6008874951	 1.808079483	-0.7374825586	 0.127224
H	-1.1360872993	 2.6260655313	 1.6500924814	 0.115863
H	 0.7514685796	 2.2413652825	 3.3517613933	 0.138262
H	 1.3646503878	 0.8511146502	 2.3291664416	 0.151363
H	 1.5131101295	 2.7757857425	-0.7628143092	 0.139717
97.0737	102.6772	169.3648	207.5321	309.8822	405.1918	433.4493	512.0156	580.0857	615.8734	641.7634	661.8684	756.2947	760.5437	789.3665	809.5217	951.5744	973.5045	1020.1448	1033.897	1068.6719	1094.2253	1117.8651	1138.6517	1190.9076	1223.6809	1256.1081	1334.1439	1348.4236	1369.6868	1503.5172	2239.3259	2355.9056	3077.3883	3099.7067	3124.0754	3180.5682	3217.8483	3500.4864
C#CC1C2CN2C1C#N	C#C[C@H]1[C@H]2CN2[C@H]1C#N	
InChI=1S/C7H6N2/c1-2-5-6(3-8)9-4-7(5)9/h1,5-7H,4H2	InChI=1S/C7H6N2/c1-2-5-6(3-8)9-4-7(5)9/h1,5-7H,4H2/t5-,6+,7-,9?/m1/s1
