13
gdb 123534	4.20121	1.79089	1.25564	2.8336	74.02	-0.2491	-0.0731	0.1761	895.7446	0.094232	-411.813666	-411.808046	-411.807101	-411.843624	22.315	
C	 0.0420374108	 1.3780597928	 0.009746079	 0.031876
N	 1.3035392783	 1.8527782355	-0.0001002547	-0.249542
N	 2.0573897212	 0.762518904	-0.013722763	 0.056005
N	 3.3935733529	 0.8185749845	-0.0266780448	-0.200284
C	 3.9722238246	-0.3573677331	-0.0390413605	 0.100953
N	 3.3842213635	-1.5869453195	-0.0401188434	-0.274831
C	 2.07251266	-1.6043824523	-0.0271876271	-0.06814
C	 1.3120374698	-0.4193314668	-0.0129651565	 0.421108
C	-0.0210583812	-0.0158789653	 0.0025402907	-0.362408
H	-0.776399273	 2.0824455684	 0.0218302384	 0.133289
H	 5.0561361869	-0.3347010929	-0.0496765967	 0.145689
H	 1.5733325438	-2.5707975201	-0.0276648576	 0.14026
H	-0.8939723077	-0.6473412851	 0.0076636466	 0.126024
215.9732	236.6698	432.9295	455.7079	581.6291	618.9661	653.0787	667.4042	762.9188	787.4103	798.3146	910.0507	919.1265	935.0311	943.4573	993.4241	1075.4624	1115.9641	1202.275	1233.6967	1305.4979	1320.2035	1347.6144	1387.0392	1415.9628	1453.2977	1514.0672	1538.4036	1644.3715	3159.3171	3206.7267	3253.1381	3277.9181
C1=NN2N=CN=CC2=C1	c1nn2ncncc2c1	
InChI=1S/C5H4N4/c1-2-7-9-5(1)3-6-4-8-9/h1-4H	InChI=1S/C5H4N4/c1-2-7-9-5(1)3-6-4-8-9/h1-4H
