18
gdb 38636	3.56266	1.95232	1.66637	1.4802	73.78	-0.2268	0.0761	0.3029	848.3159	0.151863	-401.861426	-401.855675	-401.854731	-401.891115	25.437	
C	-0.0095511463	 1.5399570986	 0.0757774922	-0.28223
N	 1.5074855105	 1.3836317783	-0.0385185958	-0.164689
C	 1.826826626	 0.7502876359	 1.2784493109	-0.189637
C	 0.9749655746	-0.5119611753	 1.1423582054	-0.086705
C	 1.5070676623	-1.2494933575	-0.0925919528	 0.0989
O	 0.4060539509	-2.0858488598	-0.5328805766	-0.297905
C	-0.7785545264	-1.2397692265	-0.3956444845	-0.181408
C	-0.0694743579	 0.0151678106	 0.0470324898	 0.24163
C	 1.2260966228	 0.0773965296	-0.815633605	-0.021369
H	-0.3514190947	 2.0912726923	 0.9570897659	 0.104363
H	-0.39580493	 2.0076627824	-0.8330908182	 0.116962
H	 2.9008555784	 0.5530089387	 1.3504243813	 0.107022
H	 1.5359005591	 1.4050097175	 2.1043465278	 0.105422
H	 0.646929478	-1.0684576896	 2.0197022032	 0.07236
H	 2.4215320291	-1.8416741611	-0.1349999527	 0.079743
H	-1.2841528675	-1.1569948641	-1.3635504521	 0.108059
H	-1.4626510411	-1.6848868445	 0.3351746066	 0.104692
H	 1.221587972	 0.1842958545	-1.8985002354	 0.084791
305.5346	360.6708	379.3873	433.7363	489.4138	613.0998	657.699	716.1623	755.0864	830.2127	852.9961	881.3275	887.0683	905.6492	926.4648	954.1518	958.6101	986.5323	1006.8876	1014.4926	1039.9612	1083.9844	1112.1455	1126.5864	1159.14	1183.7556	1204.6954	1212.3132	1231.4621	1234.6358	1244.563	1253.8429	1286.3481	1312.5669	1342.4016	1366.9064	1498.3187	1519.0526	1525.2622	3031.3131	3048.7327	3054.7396	3074.8969	3099.3244	3114.2832	3114.7215	3126.1109	3143.0462
C1N2CC3C4OCC13C24	C1N2C[C@@H]3[C@H]4OC[C@@]13[C@@H]24	
InChI=1S/C7H9NO/c1-4-5-6-7(4,3-9-5)2-8(1)6/h4-6H,1-3H2	InChI=1S/C7H9NO/c1-4-5-6-7(4,3-9-5)2-8(1)6/h4-6H,1-3H2/t4-,5-,6+,7+/m1/s1
