17
gdb 86645	3.06073	1.3087	1.02579	6.4415	71.81	-0.2532	-0.0053	0.2479	1173.131	0.136542	-455.196015	-455.187376	-455.186432	-455.230177	30.681	
C	 0.2906698292	 1.5352245149	-0.0416861594	-0.398505
C	 0.047807586	 0.032139409	-0.0400153869	 0.107444
C	 0.7468086014	-0.7178337429	-1.193058264	-0.21166
N	 1.9188892133	-1.258074338	-0.5225099636	-0.153757
C	 2.9579110533	-1.8488212889	-1.2345051888	 0.08154
N	 3.9840818272	-2.3674002638	-0.7036900906	-0.41095
C	 1.7702095801	-1.2208478768	 0.8720359375	 0.501537
O	 2.4800900018	-1.6770364581	 1.7125754336	-0.347796
O	 0.6104602621	-0.5513076635	 1.1476107572	-0.251648
H	 1.3620736754	 1.7538880423	-0.0939956906	 0.135597
H	-0.2024992789	 1.9989174882	-0.9022230078	 0.12235
H	-0.1088114493	 1.9832274235	 0.8713480627	 0.142853
H	-1.0238847112	-0.180945729	-0.0219878133	 0.106281
H	 0.1170717247	-1.51661562	-1.6043129959	 0.125003
H	 1.0242708767	-0.041712383	-2.0072381656	 0.126904
H	 2.7611434941	-1.7895764638	-2.3128985693	 0.093973
H	 4.6015755044	-2.7250515699	-1.4306033951	 0.230833
47.431	99.2529	135.0968	185.6431	219.8547	252.4443	329.1463	419.074	487.545	515.0428	706.4344	732.9094	758.4431	787.847	816.8624	859.4188	950.3919	977.8448	1062.2191	1075.2404	1085.6764	1132.6508	1154.6201	1174.7892	1230.8157	1261.196	1323.4785	1362.1138	1383.7373	1410.7657	1428.1167	1436.331	1486.4333	1494.7482	1526.4135	1728.473	1906.8487	3017.6383	3030.6126	3040.0672	3073.3382	3081.8264	3114.3549	3130.0284	3501.8826
CC1CN(C=N)C(=O)O1	C[C@H]1CN([CH][NH])C(=O)O1	
InChI=1S/C5H8N2O2/c1-4-2-7(3-6)5(8)9-4/h3-4,6H,2H2,1H3	InChI=1S/C5H8N2O2/c1-4-2-7(3-6)5(8)9-4/h3-4,6H,2H2,1H3/t4-/m0/s1
