19
gdb 92008	2.68479	1.39544	1.15904	3.8232	75.2	-0.2361	-0.0133	0.2228	1114.3629	0.159707	-423.030256	-423.021932	-423.020988	-423.063446	31.888	
O	-0.2905394292	 1.1247297918	 1.2840692249	-0.42348
C	-0.0936837673	 0.1405149838	 0.2675379609	 0.055777
C	 0.9042211868	-0.963572267	 0.6897337961	-0.23988
C	 0.0701191937	-2.0414461625	 1.3655754106	-0.035647
C	-0.9275142416	-1.6068430351	 2.4093005385	-0.28999
C	-1.3772789826	-1.8156367041	 0.9796655876	-0.063832
C	-1.4411381306	-0.6044495337	 0.0519029473	-0.079483
C	-2.6543473279	 0.2817712933	 0.2706431636	 0.166017
O	-3.3897488817	 0.6430616126	-0.6133347948	-0.264882
H	 0.5437088331	 1.5851500333	 1.4173698743	 0.287764
H	 0.2197060364	 0.6347102707	-0.6606952328	 0.0836
H	 1.3930089839	-1.3785044803	-0.1999232454	 0.104764
H	 1.6932772115	-0.5484640547	 1.328719764	 0.093421
H	 0.4767538165	-3.0447874177	 1.4238407104	 0.085279
H	-1.2436594199	-2.3548666188	 3.1283886018	 0.109545
H	-0.8651842078	-0.5978213777	 2.7976599315	 0.135903
H	-2.0381789946	-2.6473046	 0.7631996819	 0.091587
H	-1.4827437813	-0.9436181383	-0.988393812	 0.093591
H	-2.8390210073	 0.5639538841	 1.3268255515	 0.089944
58.8778	110.7428	208.8729	263.9632	277.1062	321.9493	375.7462	419.436	456.7009	496.1683	652.7351	763.8022	784.9656	825.9108	832.7562	881.3462	905.7671	945.1227	980.4435	1015.797	1038.0303	1057.343	1081.6235	1094.0165	1103.0912	1113.6376	1145.7466	1199.629	1208.9411	1224.4904	1278.7261	1300.5548	1316.9317	1326.2751	1370.3278	1389.3606	1419.4162	1428.3248	1476.058	1488.5788	1823.571	2928.1574	3014.4775	3029.7568	3060.9448	3066.2103	3140.0828	3167.0808	3176.6054	3233.2233	3823.7247
OC1CC2CC2C1C=O	O[C@H]1C[C@H]2C[C@H]2[C@H]1C=O	
InChI=1S/C7H10O2/c8-3-6-5-1-4(5)2-7(6)9/h3-7,9H,1-2H2	InChI=1S/C7H10O2/c8-3-6-5-1-4(5)2-7(6)9/h3-7,9H,1-2H2/t4-,5-,6-,7+/m1/s1
