17
gdb 60709	3.63538	0.62842	0.58272	2.2806	84.	-0.2478	-0.0297	0.2181	1884.5833	0.131479	-384.635211	-384.62468	-384.623736	-384.67388	35.817	
C	-0.246129968	 1.0984476909	 1.2218511693	-0.397341
C	-0.1355546216	 0.3581544085	-0.1330446127	-0.214759
C	 1.1345920953	-0.4987817976	-0.1218339375	 0.171916
O	 2.1343653917	-0.2316229037	-0.7306566476	-0.241411
C	-1.2935253233	-0.4927543845	-0.3860740437	 0.077147
C	-2.2234339392	-1.2324210188	-0.5778501147	 0.06756
C	-3.3655509821	-2.1151433311	-0.825046169	-0.491669
C	-4.1030229913	-2.4740139555	 0.3879072164	 0.315518
C	-4.7149224525	-2.7755003272	 1.3756093995	-0.441213
H	 0.6155780296	 1.7564371734	 1.3637000679	 0.133585
H	-1.1585315736	 1.6985209637	 1.2465372788	 0.139915
H	-0.2871163189	 0.3859550221	 2.050959516	 0.134852
H	-0.0138160526	 1.0909121087	-0.9384017815	 0.124763
H	 1.0619280024	-1.3986964095	 0.5291408751	 0.088795
H	-4.0500345593	-1.6341541821	-1.5374243762	 0.164884
H	-3.0189921383	-3.0310841019	-1.3233493465	 0.164805
H	-5.2544428581	-3.0403863654	 2.2509869365	 0.202652
7.1196	49.9466	69.7866	114.1059	170.7791	224.4569	277.0285	301.9692	321.0343	326.9033	443.2526	449.16	505.9204	599.9186	625.4155	652.6319	783.4469	885.0042	925.402	932.6207	950.3927	1048.6731	1085.1897	1125.1294	1175.4634	1230.6227	1269.0528	1325.6309	1336.1826	1398.8359	1417.1227	1451.4426	1491.979	1497.3655	1839.4582	2248.0538	2369.6343	2885.3422	3009.0076	3033.4373	3045.097	3053.1925	3122.5229	3131.1293	3506.6231	7.1172	49.9448	69.7862	114.1055	170.779	224.4575	277.0289	301.9691	321.0328	326.9028	443.2526	449.1601	505.921	599.9186	625.4144	652.6308	783.4469	885.0042	925.4019	932.6207	950.3926	1048.6731	1085.1898	1125.1294	1175.4636	1230.6228	1269.0533	1325.6313	1336.1826	1398.8358	1417.1227	1451.4428	1491.9788	1497.3653	1839.4578	2248.054	2369.6344	2885.3421	3009.0076	3033.4373	3045.097	3053.1925	3122.5229	3131.1293	3506.6227
CC(C=O)C#CCC#C	C[C@@H](C=O)C#CCC#C	
InChI=1S/C8H8O/c1-3-4-5-6-8(2)7-9/h1,7-8H,4H2,2H3	InChI=1S/C8H8O/c1-3-4-5-6-8(2)7-9/h1,7-8H,4H2,2H3/t8-/m1/s1
