19
gdb 37630	2.81618	2.28335	2.0645	0.1652	75.7	-0.1885	0.0894	0.2779	806.947	0.164789	-382.018129	-382.012407	-382.011463	-382.04773	25.709	
C	-0.0299799918	 1.4767200357	 0.051836201	-0.181931
C	 1.4574718666	 1.8377851307	 0.0483328051	-0.021462
C	 2.0247003069	 0.885299135	 1.1179593957	-0.111717
C	 2.5397597578	 0.0349948869	-0.00632724	-0.041151
C	 1.2512073943	-0.3485825606	 0.7176001938	-0.046222
N	 0.019298484	-0.006217431	-0.0101609579	-0.089975
C	 0.1872391015	-0.3871945916	-1.4304173706	-0.17811
C	 1.3159347479	 0.4765095502	-2.0698674303	-0.183148
N	 2.1867916104	 1.0350053746	-1.0211009454	-0.102204
H	-0.508490993	 1.8127075989	 0.9794502907	 0.102305
H	-0.6043479414	 1.8726122007	-0.7910979934	 0.103135
H	 1.7260747106	 2.8963205167	 0.0590736547	 0.072124
H	 2.4269071231	 1.1088221021	 2.0951450442	 0.094
H	 3.4238796731	-0.5884142311	-0.0936264296	 0.086972
H	 1.2294426477	-1.2190495795	 1.3639528596	 0.087051
H	 0.4308206856	-1.4531393006	-1.4628762023	 0.104411
H	-0.7651584328	-0.2563618113	-1.954606678	 0.09912
H	 1.9362216418	-0.1108339358	-2.7554487653	 0.103666
H	 0.9050673078	 1.3087657698	-2.6511064918	 0.103135
255.3377	361.1543	420.7313	515.8307	558.4499	660.3078	666.2546	718.6673	753.1423	794.074	808.0716	823.7992	858.9576	899.8731	915.5888	919.7411	964.5771	996.3308	997.8824	1018.9473	1039.2161	1054.769	1062.5059	1089.8225	1110.1313	1140.7783	1179.4482	1215.5781	1234.4568	1257.802	1261.685	1283.668	1287.3363	1302.7954	1328.1856	1348.5753	1364.9317	1374.8951	1483.7226	1494.9149	1508.3881	3030.8163	3035.6954	3046.3198	3070.5136	3082.4725	3088.9721	3097.4599	3156.2407	3171.5478	3222.4425
C1C2C3C4C3N1CCN24	C1[C@H]2[C@@H]3[C@H]4[C@@H]3N1CCN24	
InChI=1S/C7H10N2/c1-2-9-4-3-8(1)6-5(4)7(6)9/h4-7H,1-3H2	InChI=1S/C7H10N2/c1-2-9-4-3-8(1)6-5(4)7(6)9/h4-7H,1-3H2/t4-,5-,6+,7-/m0/s1
