18
gdb 62218	5.82682	0.57365	0.53795	1.3544	74.24	-0.2671	-0.0397	0.2274	1941.9146	0.144022	-439.100703	-439.09032	-439.089376	-439.137852	34.803	
C	 0.0462961892	 1.3894279788	-0.2143157233	-0.407512
C	 0.0306614756	-0.1284509406	-0.0431745448	 0.038915
O	 0.7523669846	-0.5990763741	 1.0830677405	-0.263807
C	 2.1551509737	-0.5553030835	 0.9603208812	-0.05949
C	 2.7221148324	-1.2831358697	 2.1861375841	-0.338783
C	 4.1812373078	-1.299189079	 2.1845360396	 0.247734
N	 5.3362913312	-1.3018333978	 2.164273078	-0.297667
C	-1.3871556552	-0.6708800507	 0.125941295	 0.149291
O	-2.3501833042	-0.2221167482	-0.4351661902	-0.238807
H	 1.0312630406	 1.7531344367	-0.5165025139	 0.123619
H	-0.6801048436	 1.6658199976	-0.9820568698	 0.151191
H	-0.2381562167	 1.8760930601	 0.7230509356	 0.133942
H	 0.4282843923	-0.6059862444	-0.9587374795	 0.101995
H	 2.4846333541	-1.0553066257	 0.0364780062	 0.113992
H	 2.5309658485	 0.4766725644	 0.9337879108	 0.121133
H	 2.3644194305	-0.7903745842	 3.0961793102	 0.16605
H	 2.3454775793	-2.3109455283	 2.2059643494	 0.16317
H	-1.4450641902	-1.5434403514	 0.8123358407	 0.095033
40.9073	60.6728	74.6574	99.4026	137.9465	196.7516	214.5938	273.1749	325.9706	398.8172	399.6807	454.4605	561.4861	611.7622	797.1073	830.7463	909.0701	928.1087	967.8214	1053.0173	1089.3181	1095.8698	1125.5398	1139.4948	1173.162	1228.653	1299.5265	1304.355	1331.5838	1339.7268	1384.729	1403.6652	1434.293	1471.5109	1488.1525	1496.2975	1528.0713	1843.8998	2367.7051	2905.8077	2933.7276	2987.8787	3031.7559	3052.0105	3057.9241	3101.4592	3127.508	3138.4709
CC(OCCC#N)C=O	C[C@@H](OCCC#N)C=O	
InChI=1S/C6H9NO2/c1-6(5-8)9-4-2-3-7/h5-6H,2,4H2,1H3	InChI=1S/C6H9NO2/c1-6(5-8)9-4-2-3-7/h5-6H,2,4H2,1H3/t6-/m1/s1
