20
gdb 115770	2.82332	0.95869	0.79763	2.8399	77.41	-0.253	0.0208	0.2738	1479.3551	0.170263	-440.295175	-440.285438	-440.284494	-440.331398	34.197	
C	-0.0604940256	 1.4826634046	-0.0062993759	-0.383498
C	-0.0148640226	-0.0474673938	-0.0604965646	-0.190357
C	-1.3808501393	-0.6626955348	 0.1955972037	 0.134749
O	-2.34576426	-0.3235801512	-0.8344832409	-0.290282
C	-2.4773494934	-1.6941575504	-1.2517090054	-0.097023
C	-1.5815096157	-2.1812965779	-0.0937568038	-0.038163
N	-0.4447561887	-3.0013862553	-0.4185460278	-0.281548
C	-0.0956673796	-4.1114039409	 0.2946980649	 0.152907
O	-0.685143534	-4.5342644593	 1.2645602736	-0.315632
H	 0.9172856992	 1.9164476779	-0.2345533945	 0.112986
H	-0.7846270955	 1.8664323711	-0.7302463654	 0.139257
H	-0.3598354288	 1.8328438957	 0.9874912181	 0.11823
H	 0.3516200002	-0.3672059146	-1.0447872986	 0.081981
H	 0.6895226525	-0.4393862783	 0.6841671065	 0.105366
H	-1.7510029304	-0.3505674979	 1.1815659837	 0.081807
H	-3.5182095935	-2.0364792859	-1.2403054164	 0.115137
H	-2.0587312554	-1.8678574166	-2.2535790938	 0.092638
H	-2.1174604005	-2.7006608692	 0.6991232685	 0.133575
H	 0.1351221548	-2.746184119	-1.2024862927	 0.24976
H	 0.8068278665	-4.5977668342	-0.1252336395	 0.078109
30.7212	64.7033	98.4187	138.2471	199.7831	213.3063	234.1659	300.2191	391.6097	445.7705	527.7782	543.961	700.6209	763.7774	834.5563	850.8781	903.5284	944.997	981.6011	1021.8924	1030.5915	1049.8023	1072.9934	1108.5331	1130.6923	1155.1231	1165.1473	1229.2696	1263.4032	1271.1322	1298.7433	1328.2711	1355.0574	1375.4157	1403.6029	1410.0804	1432.9796	1471.7383	1497.5824	1508.6636	1524.2138	1536.0655	1810.0393	2939.9002	2995.7633	3010.4038	3018.4806	3038.7412	3057.7493	3059.9865	3106.1198	3121.4424	3138.6744	3630.0332
CCC1OCC1NC=O	CC[C@H]1OC[C@H]1NC=O	
InChI=1S/C6H11NO2/c1-2-6-5(3-9-6)7-4-8/h4-6H,2-3H2,1H3,(H,7,8)	InChI=1S/C6H11NO2/c1-2-6-5(3-9-6)7-4-8/h4-6H,2-3H2,1H3,(H,7,8)/t5-,6-/m1/s1
