21
gdb 114999	3.20862	0.99416	0.80073	2.2077	80.35	-0.2407	0.017	0.2577	1431.9794	0.183149	-424.234863	-424.225642	-424.224697	-424.268742	35.166	
O	-0.0104526179	 1.4011899341	-0.1040531331	-0.424715
C	 0.0276264813	-0.0139349615	 0.0150026455	-0.096581
C	-1.4057995555	-0.533760623	 0.0126074954	 0.013466
C	-2.1634872106	-0.1257910012	-1.2627084476	-0.238014
C	-3.4696262536	-0.8605940735	-1.4094290155	-0.071356
C	-3.8048188156	-1.924881044	-0.6805767406	-0.090619
C	-2.8964551725	-2.5545229866	 0.3460523247	 0.087859
O	-2.9753720601	-3.979315264	 0.3025126064	-0.437969
C	-1.4531977189	-2.0574286901	 0.1907696591	-0.23345
H	 0.8934031848	 1.7267220219	-0.1383494121	 0.287405
H	 0.5850417665	-0.4684313506	-0.8218673075	 0.081308
H	 0.5284356902	-0.3204584009	 0.9474244096	 0.085586
H	-1.9169640056	-0.0709232406	 0.8686603103	 0.086155
H	-2.3339972062	 0.9556433478	-1.2632143206	 0.123196
H	-1.5343542972	-0.3188892826	-2.1465639952	 0.100632
H	-4.1664670329	-0.4772570788	-2.1520918558	 0.087473
H	-4.7706725156	-2.4085819322	-0.8068119949	 0.089546
H	-3.2558588379	-2.3055890723	 1.3541855867	 0.09562
H	-2.7636746048	-4.2476760033	-0.5988258853	 0.27299
H	-1.0145155502	-2.5420811436	-0.6938817605	 0.083333
H	-0.861909728	-2.3786750748	 1.0551560311	 0.098136
91.8287	115.4291	154.9175	204.4193	257.7654	283.2042	327.3114	344.0538	391.2501	433.1227	451.3593	521.2898	581.619	693.6433	749.4497	848.6293	884.5644	915.0722	958.5695	974.8568	1010.3643	1039.0594	1064.7435	1076.0063	1097.6474	1109.5882	1131.8971	1155.3115	1212.2919	1218.6376	1249.0239	1269.2333	1284.9377	1307.9992	1330.6547	1363.7581	1376.9379	1394.0728	1403.4389	1427.0193	1457.9912	1473.7781	1491.3075	1519.9048	1718.3265	2953.1186	2982.636	2983.9973	3000.6024	3011.4211	3021.1869	3069.5865	3071.6587	3139.4061	3164.8525	3794.3828	3834.0175
OCC1CC=CC(O)C1	OC[C@H]1CC=C[C@@H](O)C1	
InChI=1S/C7H12O2/c8-5-6-2-1-3-7(9)4-6/h1,3,6-9H,2,4-5H2	InChI=1S/C7H12O2/c8-5-6-2-1-3-7(9)4-6/h1,3,6-9H,2,4-5H2/t6-,7+/m0/s1
