15
gdb 25275	3.2687	1.76517	1.15449	3.3798	73.17	-0.2174	-0.0016	0.2158	985.6441	0.116218	-416.892249	-416.885208	-416.884264	-416.924571	26.496	
O	 0.0081020794	-0.0747438803	 0.0275475893	-0.394464
C	-0.0094363254	 1.1297237237	 0.0300834124	 0.494067
N	-1.0870989744	 1.9799898239	 0.055823147	-0.376523
C	-0.7493794723	 3.4006013057	 0.0542283417	-0.292761
C	 0.7514021022	 3.3258840362	 0.0187380615	 0.357502
C	 1.8960009042	 4.0747700958	-0.0052708538	-0.336126
C	 2.9877983205	 3.1421910427	-0.0335034704	-0.141356
C	 2.4759536295	 1.8667442925	-0.0258600537	-0.116874
N	 1.1086774637	 1.9967387063	 0.0060322537	-0.085947
H	-2.0226857225	 1.6156999509	 0.0817392447	 0.267404
H	-1.1701450272	 3.9137912218	-0.8203889087	 0.135957
H	-1.1285590901	 3.9061144052	 0.9520487896	 0.135897
H	 1.9693640225	 5.151224079	-0.0032296654	 0.104895
H	 4.0370162232	 3.3955700657	-0.0569801489	 0.104876
H	 2.9413929867	 0.895886711	-0.0399623989	 0.143452
37.8982	144.6134	235.7855	309.3414	378.5776	563.5468	610.7073	636.7667	647.5484	688.693	732.4622	760.049	780.0457	788.8001	853.1455	926.5314	1026.8995	1028.9298	1047.6565	1061.3345	1136.4939	1186.141	1197.6407	1266.2931	1285.4904	1333.0862	1419.4749	1437.0468	1460.8142	1498.5472	1519.2043	1615.0462	1870.1278	3010.2126	3034.1024	3243.9088	3257.8822	3289.0262	3693.9985
O=C1NCC2=CC=CN12	O=C1NCc2cccn12	
InChI=1S/C6H6N2O/c9-6-7-4-5-2-1-3-8(5)6/h1-3H,4H2,(H,7,9)	InChI=1S/C6H6N2O/c9-6-7-4-5-2-1-3-8(5)6/h1-3H,4H2,(H,7,9)
