20
gdb 121655	2.73029	0.98737	0.89343	2.1242	77.49	-0.2368	-0.0042	0.2325	1426.4613	0.169269	-440.270687	-440.260686	-440.259742	-440.307112	34.764	
C	-0.8220895263	 0.6323170782	-1.0782490764	-0.383707
C	 0.5054426515	-0.0613762331	-0.82920983	-0.048114
O	 0.2539276739	-1.4585922539	-0.6965135629	-0.252858
C	 1.416407739	-2.2349480405	-0.4508248485	-0.155535
C	 2.1833730796	-2.4309640089	-1.7608358327	 0.354751
O	 3.0428258042	-1.6635395483	-2.1401666354	-0.338561
N	 1.8094403937	-3.5612878068	-2.4754632223	-0.073014
C	 0.4696868854	-3.824299124	-2.9744565383	-0.231502
C	 1.6209667195	-3.566790256	-3.9055380733	-0.219881
H	-1.2791989605	 0.2727944788	-2.0049403754	 0.122088
H	-1.5183740928	 0.4415682842	-0.2566529009	 0.126339
H	-0.6724005926	 1.7125850568	-1.1645609604	 0.119409
H	 1.2102603322	 0.1275664994	-1.6495563103	 0.117681
H	 0.9750259633	 0.3123715449	 0.0947627851	 0.092821
H	 2.0789137754	-1.7450708545	 0.2748630633	 0.111692
H	 1.0754024586	-3.1933078782	-0.0503880003	 0.116376
H	 0.1029704125	-4.8379890916	-2.8377404076	 0.12723
H	-0.2693205823	-3.0397115219	-2.8447146026	 0.147683
H	 1.6710981086	-2.6057193745	-4.4100045406	 0.138182
H	 2.0712184571	-4.39666979	-4.4421687406	 0.128919
39.2747	55.9387	95.586	113.1448	185.7257	217.7601	247.462	277.3901	294.3113	401.7469	477.7515	597.2499	674.9706	796.8464	815.2481	817.9458	861.0142	945.6044	971.8875	1013.6944	1023.3973	1058.1942	1116.2585	1123.3517	1130.4584	1133.4487	1166.4348	1175.6702	1187.5646	1207.0576	1284.8932	1298.7533	1372.6108	1401.3556	1413.7617	1430.8885	1483.2075	1483.7387	1497.9823	1500.3607	1523.7523	1531.5183	1782.469	2979.6028	3020.5091	3037.7671	3044.179	3101.0837	3115.4562	3117.7669	3118.8138	3121.4076	3201.5316	3214.8212
CCOCC(=O)N1CC1	CCOCC(=O)N1CC1	
InChI=1S/C6H11NO2/c1-2-9-5-6(8)7-3-4-7/h2-5H2,1H3	InChI=1S/C6H11NO2/c1-2-9-5-6(8)7-3-4-7/h2-5H2,1H3
