22
gdb 58118	2.92076	1.01101	0.91331	4.8902	82.43	-0.2814	0.0284	0.3098	1388.3715	0.191054	-404.375075	-404.364149	-404.363205	-404.410543	40.492	
C	 0.061844031	 1.5188047881	-0.1193087953	-0.405824
C	-0.005667018	-0.0052171799	 0.0631661956	 0.0067
C	 0.8719333993	-0.4418087022	 1.2469631642	-0.411364
C	-1.476268199	-0.5168099305	 0.1195233799	 0.351741
C	-2.2920754563	 0.074737239	 1.2705818343	-0.415705
O	-2.1627052863	-0.1170219651	-1.0647326495	-0.44925
C	-1.4808482734	-2.0735410647	 0.1994020645	-0.401543
C	-2.8128305615	-2.6496680236	 0.0338195556	 0.284715
N	-3.8608467009	-3.1212060217	-0.085692662	-0.31493
H	 1.0789708252	 1.8219639516	-0.3861394614	 0.112237
H	-0.6178738474	 1.8522453974	-0.9061113951	 0.13007
H	-0.2024107504	 2.0435565283	 0.8044781709	 0.119814
H	 0.4217065563	-0.4625443971	-0.8442948634	 0.060739
H	 0.4888039338	-0.0516784876	 2.1957327605	 0.125422
H	 0.9568254143	-1.5284795126	 1.3367188107	 0.115819
H	 1.8855671855	-0.0488524848	 1.1214047284	 0.121313
H	-2.3549378717	 1.1598892709	 1.1722666238	 0.133012
H	-3.3089306102	-0.3246077647	 1.2464522145	 0.150498
H	-1.8480458913	-0.1662460745	 2.2398275845	 0.116765
H	-1.6719875067	-0.4399482232	-1.8292138108	 0.279015
H	-0.827672304	-2.4826355329	-0.5819255324	 0.13673
H	-1.0764919582	-2.4140337702	 1.1574192625	 0.154026
71.7979	81.4001	130.0198	203.2047	225.4723	244.5774	263.0765	285.2504	313.7862	333.091	347.9954	384.5183	404.4569	436.1506	450.4809	492.9456	604.1231	753.0641	854.8101	889.8516	928.2018	936.8441	951.9961	966.8125	977.5064	1041.6537	1115.0454	1144.201	1154.6651	1184.9745	1211.0699	1243.0691	1319.2346	1341.5682	1350.3068	1390.1046	1399.0525	1423.3218	1431.9242	1463.362	1485.975	1488.4707	1492.7757	1507.9377	1510.8063	1517.66	2363.6936	2965.5495	3035.2937	3038.5036	3043.1067	3057.9375	3092.4848	3100.7451	3105.8889	3112.9695	3130.7771	3132.2453	3141.7693	3793.6057
CC(C)C(C)(O)CC#N	CC(C)[C@@](C)(O)CC#N	
InChI=1S/C7H13NO/c1-6(2)7(3,9)4-5-8/h6,9H,4H2,1-3H3	InChI=1S/C7H13NO/c1-6(2)7(3,9)4-5-8/h6,9H,4H2,1-3H3/t7-/m0/s1
