21
gdb 111258	3.006	1.21791	0.96884	2.9711	83.73	-0.231	-0.0066	0.2244	1302.7931	0.18114	-387.095813	-387.086253	-387.085309	-387.130253	35.409	
C	 0.0432999227	 1.5483768322	 0.0863255913	-0.380222
C	 0.0715597666	 0.0332355578	-0.1487021066	-0.205695
C	-1.3157412501	-0.5950406797	-0.0232243852	-0.094658
C	-1.5104909851	-2.1220580962	-0.089163595	-0.13284
C	-0.8675756816	-2.7800241633	 1.0827931517	-0.32532
C	-2.2382990646	-2.1404123731	 1.2859351025	 0.226332
C	-3.4311048158	-2.8958032526	 1.7974980714	-0.497585
C	-2.0459906307	-0.6516269558	 1.3497204874	 0.349319
O	-2.4640539735	 0.198069008	 2.0890273758	-0.328384
H	 1.0491606619	 1.9749900001	 0.0278083904	 0.109216
H	-0.5770724215	 2.0511316742	-0.6639230432	 0.113446
H	-0.3751912468	 1.7834981449	 1.0689934286	 0.144467
H	 0.472119084	-0.1839851525	-1.1474113499	 0.097867
H	 0.7599749196	-0.4357294998	 0.5639444459	 0.097146
H	-2.0064186828	-0.0930728777	-0.7150216444	 0.097859
H	-1.8062527594	-2.6699881123	-0.9749995727	 0.099158
H	-0.8972656651	-3.8655398498	 1.0985108915	 0.1214
H	 0.0205520367	-2.3619986345	 1.5471156517	 0.121818
H	-3.437960574	-3.9238030444	 1.4216399661	 0.119771
H	-3.4229975254	-2.9407417938	 2.8918251604	 0.137239
H	-4.3660663852	-2.4142502919	 1.4935622623	 0.129668
73.8287	102.923	142.3066	158.3237	191.6986	243.0916	269.2597	312.757	347.1839	470.541	499.1361	619.7074	630.1185	745.3351	755.5819	824.4904	838.2143	894.2469	917.3953	955.0085	973.1534	994.2116	1019.0319	1052.3969	1087.1299	1097.2092	1108.7902	1115.771	1160.9403	1205.3053	1257.2383	1280.3215	1298.2571	1333.5692	1370.4213	1389.9459	1414.3692	1417.4102	1482.5741	1488.3648	1495.9722	1498.3126	1501.98	1510.5522	1863.8938	3019.1806	3020.776	3032.3584	3035.673	3058.0037	3096.9271	3101.2563	3104.3281	3119.6732	3120.328	3192.1065	3202.2069
CCC1C2CC2(C)C1=O	CC[C@H]1[C@H]2C[C@@]2(C)C1=O	
InChI=1S/C8H12O/c1-3-5-6-4-8(6,2)7(5)9/h5-6H,3-4H2,1-2H3	InChI=1S/C8H12O/c1-3-5-6-4-8(6,2)7(5)9/h5-6H,3-4H2,1-2H3/t5-,6+,8+/m0/s1
