20
gdb 8421	3.50728	1.82274	1.53572	1.5005	74.74	-0.2303	0.087	0.3173	934.062	0.175435	-348.973387	-348.964993	-348.964049	-349.005372	32.654	
C	 0.209885769	 1.6389999618	-0.4424453849	-0.425252
C	 0.2591628996	 0.1441685281	-0.2063784345	-0.02771
C	 1.5073090084	-0.6734096619	-0.2925703104	 0.070268
O	 2.6354905664	 0.032904162	 0.2316635426	-0.330846
C	 2.0742130981	-0.0488320452	 1.5910115046	 0.408918
C	 2.8389473488	-1.118101677	 2.3681892661	-0.41222
C	 2.1002184319	 1.2833195522	 2.326530148	-0.440981
C	 0.7607141959	-0.6063963527	 1.0229141694	-0.189893
H	 1.1997289177	 2.0842829095	-0.3265472345	 0.139508
H	-0.1262179269	 1.8415328836	-1.4651320692	 0.111729
H	-0.4843690865	 2.1417703917	 0.2393069653	 0.11398
H	-0.5922950078	-0.3944029115	-0.6223000705	 0.086875
H	 1.700832281	-1.4819628706	-0.9891805534	 0.095308
H	 3.8752363707	-0.8026695288	 2.523434939	 0.120862
H	 2.3795224808	-1.2853130899	 3.3488157053	 0.110096
H	 2.8430278042	-2.0647189293	 1.8217411803	 0.118823
H	 1.5260521334	 2.054194557	 1.8141516338	 0.123978
H	 1.6867818299	 1.160630031	 3.3331892502	 0.115627
H	 3.1333806119	 1.6326061371	 2.4289138976	 0.122363
H	 0.1594694836	-1.3583982072	 1.5188980052	 0.088568
165.5264	168.6145	170.906	236.7702	253.1251	290.2949	355.4448	372.5485	384.4548	542.0814	621.9717	642.2	725.36	799.28	835.5859	882.0947	896.1052	929.839	977.1743	994.9286	1004.7763	1035.5283	1050.1558	1061.7733	1085.6787	1131.464	1169.717	1198.1037	1226.6303	1256.6896	1306.6152	1344.1417	1397.216	1405.0138	1413.3864	1438.655	1474.609	1478.6926	1494.2317	1496.4787	1504.6245	1511.2123	3032.8222	3033.8575	3043.0646	3089.1509	3098.8275	3106.9613	3111.0253	3120.9627	3132.514	3155.8657	3165.5329	3186.7933
CC1C2OC(C)(C)C12	C[C@H]1[C@H]2OC(C)(C)[C@@H]12	
InChI=1S/C7H12O/c1-4-5-6(4)8-7(5,2)3/h4-6H,1-3H3	InChI=1S/C7H12O/c1-4-5-6(4)8-7(5,2)3/h4-6H,1-3H3/t4-,5+,6-/m1/s1
