18
gdb 80667	2.61706	1.82932	1.33415	2.7469	72.36	-0.2616	0.0122	0.2738	980.6321	0.150035	-439.08661	-439.079346	-439.078401	-439.118283	29.442	
O	 0.2150909278	 1.1786774939	 0.4248038969	-0.445294
C	-0.0118474489	-0.1560524014	 0.0340595973	 0.079064
C	-1.5082842008	-0.4221919547	-0.1134228844	-0.044442
C	-1.6730018084	-1.8691536466	-0.6613543552	-0.254414
C	-1.3911495488	-1.2454627918	-2.0459840867	 0.113097
C	-1.9722051439	 0.0842553741	-1.5084746931	-0.246348
O	 0.0329723242	-1.1165208498	-2.2523860187	-0.256609
C	 0.7088821652	-0.4371558848	-1.2919490868	 0.367988
N	 1.8928124899	-0.0147906195	-1.4401069936	-0.550879
H	 1.1118221677	 1.3860587336	 0.1247991189	 0.295783
H	 0.4012199072	-0.8533117259	 0.7835742708	 0.09143
H	-2.0521705029	-0.1153221594	 0.7805868977	 0.083438
H	-0.9843595659	-2.644905369	-0.3151132292	 0.108805
H	-2.702441294	-2.225720645	-0.5824977143	 0.112015
H	-1.7737944846	-1.7044150362	-2.9568363599	 0.089152
H	-3.0600327846	 0.1091645148	-1.6015541742	 0.109455
H	-1.5426971929	 1.0151118897	-1.8852240169	 0.121686
H	 2.2518739538	-0.2266643521	-2.3717136887	 0.226073
76.3311	201.9178	299.493	385.1333	393.4871	441.0088	468.1915	478.166	523.0691	577.0173	673.7957	808.7554	831.4304	862.5685	893.7255	897.8316	911.9693	941.5047	957.1023	1011.5966	1062.0309	1074.1139	1095.5931	1100.9922	1138.7012	1148.266	1186.1959	1240.9014	1251.2904	1273.6077	1285.8926	1294.3018	1338.5546	1372.3486	1408.2195	1439.7412	1471.7946	1501.0612	1749.7786	2949.9117	3061.152	3071.8428	3107.7249	3120.6053	3124.7187	3132.3321	3482.9667	3738.8366
OC1C2CC(C2)OC1=N	O[C@H]1[C@@H]2C[C@@H](C2)O[C]1[NH]	
InChI=1S/C6H9NO2/c7-6-5(8)3-1-4(2-3)9-6/h3-5,7-8H,1-2H2	InChI=1S/C6H9NO2/c7-6-5(8)3-1-4(2-3)9-6/h3-5,7-8H,1-2H2/t3-,4+,5-/m0/s1
