18
gdb 111373	2.07172	1.79414	1.1574	1.675	77.96	-0.2333	0.0255	0.2588	1101.6345	0.14618	-401.849164	-401.840428	-401.839484	-401.88256	32.636	
C	-0.171331948	 1.2944756985	 0.0181247423	-0.247697
O	 0.308783505	-0.0306648832	 0.1494456436	-0.240078
C	 0.7215586717	-0.5978571475	-1.0553703186	 0.133581
C	 1.333720459	-1.9759604987	-0.9217956243	-0.071116
C	 0.3287466279	-2.9713747273	-0.5046121866	-0.237866
N	 0.3721746817	-2.5982952917	-1.9296982868	-0.130626
C	-0.3382575072	-1.2584433047	-2.0295348684	-0.246269
C	-1.737169558	-1.2388448181	-1.6598146502	 0.386944
C	-2.8991978022	-1.2223851267	-1.348810453	-0.45823
H	 0.6019430731	 1.9604694983	-0.395009316	 0.105349
H	-1.0605121956	 1.3433217475	-0.6234795762	 0.12227
H	-0.4373436214	 1.6388941154	 1.0197249197	 0.130819
H	 1.3611964768	 0.0980731154	-1.6161230172	 0.0775
H	 2.3968743953	-2.1874746908	-0.9475153131	 0.099051
H	 0.6827774418	-3.9826695276	-0.332767347	 0.124485
H	-0.5218407187	-2.6694687496	 0.0984345376	 0.139932
H	-0.2131340732	-0.8916497974	-3.0517195395	 0.110559
H	-3.926724108	-1.2110076718	-1.0801090464	 0.201392
104.8751	114.0282	139.9452	184.7987	196.8007	292.8669	370.0509	382.9128	485.6136	582.6745	601.4203	619.7817	657.2224	759.9671	775.9738	793.3115	815.4498	960.1072	986.5902	1021.309	1044.1222	1068.8608	1071.9474	1112.8311	1145.1149	1153.4498	1181.0189	1209.4654	1220.2177	1247.4226	1286.925	1344.6203	1371.7318	1396.2818	1482.718	1489.2753	1500.9576	1507.2707	2228.0179	2984.679	3004.1187	3051.6529	3071.9414	3124.3096	3127.226	3175.2662	3217.3358	3501.198
COC1C2CN2C1C#C	CO[C@H]1[C@H]2CN2[C@H]1C#C	
InChI=1S/C7H9NO/c1-3-5-7(9-2)6-4-8(5)6/h1,5-7H,4H2,2H3	InChI=1S/C7H9NO/c1-3-5-7(9-2)6-4-8(5)6/h1,5-7H,4H2,2H3/t5-,6+,7+,8?/m0/s1
