17
gdb 32953	4.57932	0.86103	0.75962	1.6469	74.16	-0.2071	0.0195	0.2266	1494.7755	0.136236	-455.166218	-455.157325	-455.156381	-455.200589	31.722	
C	 0.1911136027	 1.2991383684	 0.1856960982	-0.220803
O	 0.0988435319	-0.1031133398	 0.1012230658	-0.232193
C	 0.5599797038	-0.5990374685	-1.1451190206	-0.195885
C	 0.4974637908	-2.0747191921	-1.1669774695	 0.321628
C	-0.2617339068	-2.9958468355	-1.7999274069	-0.186188
N	 0.1335022167	-4.2815560095	-1.4448447898	-0.338673
C	 1.1149852493	-4.0730797488	-0.6188248407	 0.455379
N	 1.9133906093	-5.0062453717	-0.0095409682	-0.588622
O	 1.4127968761	-2.7783966284	-0.3901542556	-0.211545
H	 1.2291826183	 1.6502627638	 0.0691548114	 0.103412
H	-0.4252131965	 1.7987229197	-0.5793169886	 0.10267
H	-0.1710196287	 1.5901970475	 1.1744682382	 0.128896
H	-0.0592920952	-0.2158547347	-1.9723617372	 0.103364
H	 1.5928796038	-0.2536292104	-1.3234918574	 0.099803
H	-1.0747711986	-2.8266946022	-2.4889568516	 0.121026
H	 1.49747542	-5.9254232268	 0.0108810879	 0.27167
H	 2.3045456531	-4.717277311	 0.8749414047	 0.26606
62.5799	88.6514	100.1141	224.0086	251.1275	280.1342	319.577	342.7659	404.6038	449.3708	592.8767	637.9765	719.4973	758.4255	802.9829	869.3681	955.7929	976.5281	993.9518	1031.0044	1090.6796	1137.6856	1180.7973	1198.6001	1217.4087	1233.194	1265.8353	1284.607	1413.2768	1445.8056	1477.1386	1484.5783	1493.9333	1514.7458	1599.0854	1664.5512	1677.0848	2952.7393	2967.3272	2993.1268	3008.0243	3116.4293	3258.335	3577.7871	3686.7866
COCC1=CN=C(N)O1	COCc1cnc(N)o1	
InChI=1S/C5H8N2O2/c1-8-3-4-2-7-5(6)9-4/h2H,3H2,1H3,(H2,6,7)	InChI=1S/C5H8N2O2/c1-8-3-4-2-7-5(6)9-4/h2H,3H2,1H3,(H2,6,7)
