14
gdb 45865	2.61392	1.90122	1.24256	2.4223	62.62	-0.2756	-0.044	0.2316	952.2426	0.101284	-473.833824	-473.826621	-473.825677	-473.865945	26.653	
O	-0.2274229006	 0.5157280488	 1.2140332562	-0.304877
C	-0.0927518499	 1.4112475389	 0.4367634557	 0.42627
O	-1.1561856853	 1.7930030809	-0.3483077447	-0.215659
C	-1.0168129079	 2.8299893967	-1.2553279217	 0.138726
N	-0.0853393995	 3.6669106917	-1.3461281553	-0.234756
C	 1.0123039708	 3.5624684391	-0.3951868343	-0.246191
C	 1.1855383513	 2.1718790938	 0.1756003911	 0.204074
C	 2.3878811234	 1.7572645228	 0.9056881417	-0.216957
O	 2.1802747989	 1.3358239208	-0.4423300046	-0.253271
H	-1.8814820731	 2.8483315512	-1.9119872124	 0.150545
H	 1.9431476717	 3.85986596	-0.8870934253	 0.141535
H	 0.8297734463	 4.285035762	 0.4128411995	 0.136632
H	 3.1844598013	 2.4862235952	 1.0479911652	 0.124428
H	 2.3016965726	 0.9783356079	 1.6584445289	 0.149501
66.9753	139.3062	255.478	290.7029	340.6311	440.6895	479.1804	493.319	582.2421	667.216	754.7842	809.5519	870.7221	929.2461	944.1363	960.1037	1005.7139	1027.9964	1080.8269	1109.5268	1133.8011	1174.8218	1240.4903	1296.8617	1328.9449	1405.8272	1428.2075	1462.3434	1513.7611	1756.7119	1878.7937	3016.4198	3085.4013	3095.6227	3193.8335	3198.4978
O=C1OC=NCC11CO1	O=C1OC=NC[C@]21CO2	
InChI=1S/C5H5NO3/c7-4-5(2-9-5)1-6-3-8-4/h3H,1-2H2	InChI=1S/C5H5NO3/c7-4-5(2-9-5)1-6-3-8-4/h3H,1-2H2/t5-/m1/s1
