16
gdb 11775	4.69959	1.68634	1.53635	3.111	68.81	-0.2512	0.0182	0.2695	847.2237	0.134035	-342.76587	-342.759567	-342.758623	-342.796172	25.04	
N	 0.0181798024	-1.1553495179	-0.0250120993	-0.337031
C	-0.0004289489	 0.0011157651	-0.023804253	 0.152271
C	-0.0038514348	 1.4462944651	 0.0017994605	 0.211836
C	-0.2763140355	 2.2830299519	 1.2896801203	-0.208724
N	 0.4444729929	 3.4035068954	 0.574924981	-0.125995
C	 1.2944453497	 2.310190317	-0.0317602856	-0.208737
C	-0.5058627432	 3.6491356643	-0.5497138689	-0.175396
C	-0.8797812053	 2.2006382349	-1.0238399569	-0.275858
H	-1.3144830474	 2.4881211835	 1.5622918383	 0.116065
H	 0.2945862244	 1.948319959	 2.1568646436	 0.129202
H	 2.0578807983	 1.9788317575	 0.673458222	 0.1292
H	 1.7362903646	 2.5408677047	-1.004249212	 0.116062
H	-1.3670446954	 4.2128492981	-0.1849455656	 0.117307
H	-0.0106978428	 4.2362163778	-1.3259955641	 0.11731
H	-0.5838589338	 1.9878962832	-2.0535121509	 0.121241
H	-1.9403668754	 1.9644985303	-0.9122475394	 0.121247
161.7238	164.6819	327.7304	461.7972	493.742	519.0254	541.8018	571.4644	686.8198	838.033	847.4439	849.162	870.3708	925.2753	963.6942	991.7953	992.16	1015.9552	1049.8099	1152.7768	1154.1243	1201.0665	1224.7162	1226.7247	1230.6581	1257.66	1263.5506	1309.2749	1334.1448	1497.0136	1500.2904	1506.7944	1538.4	2350.1054	3066.5504	3069.9222	3071.2478	3079.3945	3114.1709	3130.9291	3139.8977	3142.4896
N#CC12CN(C1)CC2	N#C[C@@]12CN(C1)CC2	
InChI=1S/C6H8N2/c7-3-6-1-2-8(4-6)5-6/h1-2,4-5H2	InChI=1S/C6H8N2/c7-3-6-1-2-8(4-6)5-6/h1-2,4-5H2
