13
gdb 129281	3.76073	1.21298	0.91716	3.3096	81.44	-0.2432	-0.0922	0.151	1170.3862	0.088559	-415.556088	-415.548565	-415.547621	-415.588304	28.21	
N	 0.0229434375	 1.3197777497	 0.0104376956	-0.527117
C	-0.009396025	 0.0501913446	 0.0032468615	 0.428277
O	 1.1737922091	-0.6837734777	-0.0073042683	-0.28581
N	 1.2087241511	-2.0746087664	-0.0155350854	-0.059571
C	 0.0837218758	-2.6904181217	-0.0131496121	-0.025015
C	-1.2266638703	-2.051607784	-0.0025294599	 0.134255
C	-1.2473282904	-0.6994868841	 0.0054240052	-0.253413
C	-2.3904994289	-2.8620204602	-0.0010831659	 0.217753
C	-3.3569098156	-3.5799197104	-0.0001692125	-0.373726
H	 0.986232224	 1.6589963141	 0.0073104244	 0.232893
H	 0.1619003926	-3.7725253216	-0.0198183795	 0.149793
H	-2.1639537458	-0.1246971931	 0.013600382	 0.149655
H	-4.2169238641	-4.2036920091	 0.0006737947	 0.212026
119.3848	130.0649	140.2699	303.393	403.3655	439.6015	444.4037	539.8973	565.2728	622.6807	660.0993	661.9681	703.7374	706.5688	859.3478	871.1695	918.4161	923.2907	943.6123	1016.1159	1090.8131	1179.9457	1279.4701	1345.9415	1358.3849	1607.8061	1673.306	1722.5535	2229.5525	3197.3568	3232.6222	3482.6719	3499.6338
N=C1ON=CC(=C1)C#C	[NH]C1=C[C](C=NO1)C#C	
InChI=1S/C6H4N2O/c1-2-5-3-6(7)9-8-4-5/h1,3-4,7H	InChI=1S/C6H4N2O/c1-2-5-3-6(7)9-8-4-5/h1,3-4,7H
