18
gdb 20148	4.05043	2.32086	1.99979	0.0377	72.82	-0.2163	0.0909	0.3072	755.3308	0.156021	-310.627515	-310.621442	-310.620497	-310.657237	25.774	
C	 0.074814561	 1.5538969074	 0.017765201	-0.393359
C	 0.0056481419	 0.025056314	 0.0054394869	 0.008132
C	 0.8203700374	-0.6233926868	-1.1032538158	-0.07285
C	 2.2515469594	-0.8614419112	-0.6522487791	-0.081592
C	 1.2719675368	-2.0152653729	-0.713316885	-0.096694
C	 1.1866960309	-2.0239058409	 0.8360567736	-0.096697
C	 2.1663737674	-0.8700906303	 0.8956736667	-0.081589
C	 0.6942116656	-0.6361725626	 1.1895483159	-0.072851
H	 1.1141308619	 1.8931327884	 0.0768410736	 0.118257
H	-0.3684226956	 1.9781674884	-0.8894510037	 0.107898
H	-0.4655371769	 1.9683336481	 0.8755343718	 0.107898
H	-1.0427276349	-0.296651136	-0.0540403101	 0.069263
H	 0.6280879899	-0.4032341151	-2.1474704806	 0.078435
H	 3.1278293273	-0.6652372356	-1.2544193279	 0.081289
H	 1.254399992	-2.8741966217	-1.3700079114	 0.082368
H	 1.0976942046	-2.8900763793	 1.4772603148	 0.082368
H	 2.9711799053	-0.6811475984	 1.5924977531	 0.081289
H	 0.3883931762	-0.4275184054	 2.2087485761	 0.078434
188.0564	231.5517	279.0677	517.3418	574.2762	681.0767	711.3649	721.1431	746.275	780.9571	809.2917	852.4461	888.9747	908.5921	924.49	943.7955	946.3147	960.5408	986.2541	1031.5021	1038.5972	1040.0857	1057.125	1064.1864	1114.1461	1125.0039	1126.453	1209.878	1243.1155	1274.0076	1278.1881	1287.091	1333.1644	1387.0625	1387.5279	1410.5723	1497.5958	1499.8146	3018.904	3029.983	3094.741	3104.2692	3176.4759	3179.9613	3194.9314	3205.0266	3207.212	3216.9998
CC1C2C3C2C2C3C12	C[C@H]1[C@H]2[C@@H]3[C@H]2[C@H]2[C@@H]3[C@@H]12	
InChI=1S/C8H10/c1-2-3-5-6(3)8-4(2)7(5)8/h2-8H,1H3	InChI=1S/C8H10/c1-2-3-5-6(3)8-4(2)7(5)8/h2-8H,1H3/t2-,3-,4+,5+,6-,7+,8-
