22
gdb 86361	2.334	1.12827	0.96012	3.6358	84.09	-0.245	0.0311	0.2761	1361.2607	0.193827	-404.373417	-404.363464	-404.36252	-404.409107	36.524	
C	 0.6824303009	 1.4887954082	-0.5374434173	-0.412592
C	 0.0674272352	 0.1762143316	-0.0606958568	 0.004683
C	 0.5246658461	-1.0977329431	-0.8342929559	-0.249575
C	 1.3841421457	-1.5504270321	 0.3850632013	 0.00468
C	 2.8936650603	-1.4108530014	 0.2111377072	-0.412596
C	 0.6723117594	-0.4493797208	 1.2409767157	 0.032088
N	 1.4601562396	 0.3786694239	 2.1212780307	-0.280729
C	 1.2031176994	 0.5261975139	 3.4513705797	 0.150405
O	 0.2992215244	-0.0061098474	 4.0588825097	-0.321456
H	 1.7698571981	 1.4203457145	-0.6583238175	 0.108011
H	 0.2697397443	 1.7706461603	-1.5118402148	 0.121454
H	 0.4733015433	 2.3041528214	 0.1630385791	 0.120317
H	-1.0181766836	 0.2995606497	-0.0026709567	 0.076852
H	-0.2950872223	-1.7822230735	-1.0642080681	 0.102629
H	 1.0824244913	-0.9106293489	-1.757094795	 0.094208
H	 1.1648989812	-2.5631583292	 0.7363821498	 0.076851
H	 3.1792627152	-0.4278462748	-0.1811971018	 0.108014
H	 3.419280392	-1.5589748487	 1.1603514817	 0.120316
H	 3.2657865287	-2.1581554454	-0.4975701726	 0.121455
H	-0.106873776	-0.8813884938	 1.8691902123	 0.120027
H	 2.2473624291	 0.8815852243	 1.7443466337	 0.244556
H	 1.9332637674	 1.2073928313	 3.9332943559	 0.070403
28.6192	75.3784	166.9663	172.8264	223.2938	239.9405	251.2148	273.3773	322.6303	381.9336	495.2961	503.2591	542.5793	694.7141	741.2843	819.8925	830.2284	876.3283	910.9235	912.2361	969.7081	1025.5732	1028.5283	1030.4037	1077.706	1115.7758	1138.106	1180.9066	1184.3157	1226.4487	1232.1038	1269.6881	1288.3816	1291.9252	1359.735	1359.7974	1375.0354	1404.7544	1411.8992	1433.7055	1488.8059	1491.2975	1499.0231	1501.2952	1504.5336	1536.2453	1806.9066	2928.0414	3023.9603	3028.3428	3048.2004	3050.9265	3055.6786	3088.1355	3094.2913	3099.5795	3099.9477	3108.1654	3120.3339	3638.8722
CC1CC(C)C1NC=O	C[C@H]1C[C@@H](C)[C@H]1NC=O	
InChI=1S/C7H13NO/c1-5-3-6(2)7(5)8-4-9/h4-7H,3H2,1-2H3,(H,8,9)	InChI=1S/C7H13NO/c1-5-3-6(2)7(5)8-4-9/h4-7H,3H2,1-2H3,(H,8,9)/t5-,6+,7-
