19
gdb 100857	1.83069	1.367	1.092	1.5147	75.06	-0.2537	-0.0241	0.2296	1234.474	0.158364	-456.367178	-456.357103	-456.356159	-456.402671	35.662	
C	 0.3137792312	 1.751487204	 0.1795536341	-0.423753
C	 0.112777719	 0.2392897197	 0.3109272712	 0.031173
C	 0.2942627904	-0.484995634	-1.034189338	-0.088134
O	 1.613766999	-0.3502217252	-1.5432686094	-0.418081
N	 0.9866505402	-0.3744934337	 1.333224619	-0.08595
C	 0.497106607	-1.4324698818	 2.098046655	 0.087349
N	-0.6788252587	-1.886515693	 1.9291054938	-0.469154
C	 2.3115030622	 0.0008541474	 1.5007180379	 0.142731
O	 3.085745337	-0.5304065165	 2.2655744736	-0.325423
H	 1.2307940159	 1.9981258718	-0.3606556875	 0.146037
H	-0.5218961466	 2.1684939787	-0.3899793566	 0.127776
H	 0.3315536161	 2.2388831724	 1.1581359959	 0.127056
H	-0.9036972188	 0.0372344154	 0.6567708825	 0.129032
H	 0.008230273	-1.5372258422	-0.9217319931	 0.118894
H	-0.3778484821	-0.0315437576	-1.7712015571	 0.113156
H	 2.1489130058	-1.063661171	-1.1845508849	 0.295821
H	 1.2399549952	-1.7833796149	 2.8153157981	 0.146619
H	-0.8591372329	-2.6419058912	 2.587521636	 0.234206
H	 2.5940302572	 0.8440970516	 0.8551933796	 0.110649
42.9654	86.4989	138.4065	206.4984	217.4831	236.2822	250.2256	273.6852	286.856	312.4445	358.155	443.5328	548.3463	665.1025	703.2261	821.9706	842.1066	888.7917	929.3773	1002.6594	1017.5329	1059.8777	1086.8282	1110.9874	1115.3622	1148.2787	1239.4343	1278.0951	1328.0114	1342.9787	1388.4222	1394.507	1400.8142	1418.6009	1441.1285	1452.1544	1488.9904	1502.6218	1517.0216	1708.0728	1792.4217	3032.5274	3041.4655	3050.4252	3082.9542	3090.1692	3118.0649	3131.6748	3133.2044	3506.9671	3839.4634
CC(CO)N(C=N)C=O	C[C@@H](CO)N(C=N)C=O	
InChI=1S/C5H10N2O2/c1-5(2-8)7(3-6)4-9/h3-6,8H,2H2,1H3	InChI=1S/C5H10N2O2/c1-5(2-8)7(3-6)4-9/h3-6,8H,2H2,1H3/t5-/m0/s1
