19
gdb 107170	2.85873	1.40499	1.15238	2.3277	74.32	-0.2539	0.0739	0.3278	1119.3429	0.158802	-422.965364	-422.957062	-422.956118	-422.998059	32.334	
C	-0.1074735419	 1.5152192981	-0.0831250113	-0.4236
C	 0.117433251	 0.0194296967	 0.0091425482	-0.007598
C	 1.4437103881	-0.6767700796	-0.1752764932	-0.101278
C	 2.5628689227	 0.0925072371	 0.4880782286	-0.060773
O	 3.0822212415	-0.6986065255	 1.5803086037	-0.309617
C	 1.8676227358	 0.0572970204	 1.791024987	 0.397284
C	 1.9118392913	 1.0144599743	 2.9477869902	-0.179831
O	 3.1649544355	 1.6568200616	 3.0355000896	-0.418792
C	 0.7098632786	-0.7127221188	 1.191306714	-0.178381
H	 0.7205301844	 2.0860385947	 0.3424694588	 0.132703
H	-0.2191584892	 1.8213139487	-1.1289865741	 0.120343
H	-1.0228135264	 1.8025741934	 0.4457752275	 0.119961
H	-0.6937346765	-0.554714058	-0.437997759	 0.093518
H	 1.5764974586	-1.5044259565	-0.8612457627	 0.10051
H	 3.226487098	 0.844998393	 0.0805256381	 0.112947
H	 1.1478412029	 1.7898288395	 2.823991716	 0.118155
H	 1.6686387313	 0.4655784328	 3.8743326621	 0.095563
H	 3.819250078	 0.9653122085	 2.869163655	 0.291558
H	 0.2263564862	-1.5682521902	 1.6472894617	 0.097328
97.0128	172.0447	176.1655	218.8557	238.514	332.6077	393.6048	465.8798	482.4617	521.4541	645.0244	683.2216	733.7242	758.3995	828.1617	859.57	897.4469	934.1914	953.7053	987.7126	1009.0312	1026.2315	1071.4108	1080.12	1086.9302	1103.632	1140.4994	1161.6458	1202.2639	1220.9762	1259.2711	1296.8834	1319.6683	1369.6993	1411.2337	1428.3018	1437.0215	1460.8324	1497.3503	1500.7369	1510.8696	2955.3726	3035.0338	3065.4216	3092.4062	3111.0988	3130.2848	3183.1433	3192.632	3201.0953	3765.1591
CC1C2C3OC3(CO)C12	C[C@H]1[C@H]2[C@@H]3O[C@]3(CO)[C@@H]12	
InChI=1S/C7H10O2/c1-3-4-5(3)7(2-8)6(4)9-7/h3-6,8H,2H2,1H3	InChI=1S/C7H10O2/c1-3-4-5(3)7(2-8)6(4)9-7/h3-6,8H,2H2,1H3/t3-,4+,5-,6-,7+/m0/s1
