15
gdb 128530	2.33624	1.53799	0.93296	0.8068	79.8	-0.2097	-0.015	0.1946	1194.236	0.112782	-416.780813	-416.772429	-416.771485	-416.814046	30.669	
C	-0.0187957731	 1.4486096422	 0.0194220045	-0.254961
O	-0.0155075363	 0.0298698557	 0.022981278	-0.263312
C	 0.5881500727	-0.5531372205	-1.0317577636	 0.170957
C	 0.6928858466	-1.9350138963	-1.1972112675	 0.149392
N	 1.3662272262	-2.0914478724	-2.3817343446	-0.284862
N	 1.6922986137	-0.9439145414	-2.9718851937	-0.205004
C	 1.2235570055	 0.0080910435	-2.1590765033	-0.139218
C	 0.2523968755	-3.0088576814	-0.4061133928	 0.287111
C	-0.1188644603	-3.9411396114	 0.2610088136	-0.445284
H	 1.0030613806	 1.8491166975	 0.0277431601	 0.126676
H	-0.5525080782	 1.8433660413	-0.8546645607	 0.126652
H	-0.5359789522	 1.7558102546	 0.9289006736	 0.139806
H	 1.6174350917	-2.9656682413	-2.8123740532	 0.279413
H	 1.3604600023	 1.046861847	-2.4143553381	 0.11763
H	-0.4511694448	-4.7548522071	 0.8575034277	 0.195004
82.0704	119.2516	164.9805	213.2127	243.232	334.5087	404.27	460.0353	486.9905	535.6362	543.4882	623.8479	687.4695	693.4029	713.3499	726.9867	841.662	948.7239	1070.566	1150.08	1178.8828	1205.8936	1213.7724	1272.8664	1282.9671	1385.4357	1432.7799	1471.3136	1488.7867	1505.2506	1533.9603	1618.8609	2229.0732	3006.4533	3066.3953	3143.7546	3260.5443	3496.6027	3668.3385
COC1=C(NN=C1)C#C	COc1c([nH]nc1)C#C	
InChI=1S/C6H6N2O/c1-3-5-6(9-2)4-7-8-5/h1,4H,2H3,(H,7,8)	InChI=1S/C6H6N2O/c1-3-5-6(9-2)4-7-8-5/h1,4H,2H3,(H,7,8)
