20
gdb 93087	2.36192	1.50109	1.0811	2.1337	82.96	-0.2396	0.0149	0.2545	1194.4533	0.170774	-403.158266	-403.149126	-403.148181	-403.192618	33.853	
C	 0.1581427635	 1.6307627943	 0.0933088975	-0.392181
C	 0.0073913653	 0.106323838	-0.0073199097	 0.063129
O	 0.4331510562	-0.3279538836	-1.3123139332	-0.235159
C	 1.7379010203	-0.3603237951	-1.6784526232	 0.12656
N	 2.8158128474	-0.5278600517	-1.0514187668	-0.26822
C	 3.0085537829	-0.8290072916	 0.3454434169	-0.229033
C	 1.8806431409	-0.9891398305	 1.3421049278	 0.273624
C	 2.3248621346	-1.628939789	 2.6348027973	-0.465541
C	 0.6174737723	-0.6031771851	 1.1685039737	-0.168985
H	 1.2142726544	 1.913797407	 0.0642102519	 0.132232
H	-0.3632780668	 2.1183307045	-0.7353374013	 0.12403
H	-0.264087577	 1.992238779	 1.0355499159	 0.120971
H	-1.061185514	-0.1323229056	-0.0231460282	 0.097806
H	 1.7864541778	-0.2400405654	-2.7623663712	 0.114046
H	 3.6007503504	-1.75698847	 0.3672959547	 0.123379
H	 3.7040964677	-0.0762181276	 0.751885357	 0.123771
H	 2.675975588	-2.6551547358	 2.4681575532	 0.128748
H	 3.1669688073	-1.0806243101	 3.0765610818	 0.125696
H	 1.5173733429	-1.6601957362	 3.3700213625	 0.122402
H	-0.0796689442	-0.7521890456	 1.9912462137	 0.082725
41.4064	105.8797	134.3983	189.5109	249.383	317.5384	323.3417	376.5483	422.5848	431.9264	476.4399	521.232	656.724	773.8925	823.4362	835.5851	881.2611	931.9911	945.2034	980.7213	991.9298	1021.0603	1057.3856	1075.9052	1099.9537	1151.25	1165.8343	1201.3048	1299.3193	1346.0609	1361.9198	1397.0672	1399.221	1409.2182	1414.0042	1443.1719	1455.9257	1478.9438	1485.7839	1492.2848	1494.6199	1758.5646	1783.1278	2975.6959	2993.53	3017.6723	3041.1466	3051.6892	3064.0213	3117.1861	3118.1712	3118.2634	3123.1851	3137.8415
CC1OC=NCC(C)=C1	C[C@H]1OC=NCC(=C1)C	
InChI=1S/C7H11NO/c1-6-3-7(2)9-5-8-4-6/h3,5,7H,4H2,1-2H3	InChI=1S/C7H11NO/c1-6-3-7(2)9-5-8-4-6/h3,5,7H,4H2,1-2H3/t7-/m1/s1
