25
gdb 123032	5.01869	0.5102	0.48802	1.0205	91.37	-0.2493	0.0898	0.3391	2352.7809	0.227121	-389.473177	-389.461958	-389.461014	-389.510843	39.702	
C	 0.0974923894	 1.3647666592	-0.1639506429	-0.226039
O	 0.223997785	-0.0348283899	-0.1423039623	-0.230322
C	 0.571282909	-0.5362538025	 1.1306060633	-0.051795
C	 0.6900113488	-2.0513486366	 1.0452434343	-0.18656
C	 1.0617835418	-2.6956013418	 2.387221656	-0.215057
C	 1.169026483	-4.2043937601	 2.2919362092	 0.014126
C	 2.450621897	-4.8697801617	 1.8433998002	-0.290484
C	 1.9657620358	-5.047102439	 3.2634382196	-0.00632
C	 2.7308035456	-4.4652280563	 4.4327625244	-0.40375
H	 1.0397274033	 1.8668070729	 0.1102054666	 0.100243
H	-0.1721874213	 1.6555301278	-1.1824578885	 0.124485
H	-0.6874625577	 1.7174284569	 0.5248770678	 0.10028
H	 1.5255961326	-0.0935538772	 1.4686497984	 0.079705
H	-0.1926821818	-0.2503868504	 1.8758506948	 0.080256
H	-0.263818299	-2.455986149	 0.6852602067	 0.102927
H	 1.4416113981	-2.3048012302	 0.2887339039	 0.108555
H	 2.0099985717	-2.2721140292	 2.7398537411	 0.093051
H	 0.3090373569	-2.4270268292	 3.1418867264	 0.093851
H	 0.2552419647	-4.6726874422	 1.9311062453	 0.077984
H	 2.4015881487	-5.7082331105	 1.1570401077	 0.106327
H	 3.3142743554	-4.2275541807	 1.6933469873	 0.10429
H	 1.5237235021	-6.016845632	 3.480221181	 0.07967
H	 3.2103524102	-3.5156049974	 4.1790803225	 0.114867
H	 2.0754641098	-4.2864050844	 5.2929872054	 0.114282
H	 3.5214292007	-5.1513158967	 4.7566099618	 0.115426
49.8191	58.0511	81.2896	114.7371	130.8714	166.9249	206.9901	236.1028	238.623	327.4147	359.392	424.3665	462.4302	542.1255	749.4218	767.8243	825.9992	855.9839	867.6967	916.3015	949.9281	985.4827	1020.3301	1050.3591	1059.9105	1074.1065	1104.4964	1115.6875	1152.3455	1165.5181	1175.7969	1196.9837	1199.1472	1224.5381	1232.8979	1250.4028	1280.4229	1303.2724	1314.8931	1365.5672	1396.2491	1418.6353	1427.3744	1431.3023	1480.4156	1482.2796	1485.4951	1493.4702	1494.6912	1499.2952	1506.1095	1507.3692	1532.1369	2934.7665	2959.2309	2964.9454	3004.7627	3006.7374	3028.248	3033.3065	3047.8135	3079.7008	3084.4702	3103.1552	3109.8849	3118.3931	3120.9423	3134.055	3204.773
COCCCC1CC1C	COCCC[C@H]1C[C@H]1C	
InChI=1S/C8H16O/c1-7-6-8(7)4-3-5-9-2/h7-8H,3-6H2,1-2H3	InChI=1S/C8H16O/c1-7-6-8(7)4-3-5-9-2/h7-8H,3-6H2,1-2H3/t7-,8+/m1/s1
