20
gdb 52675	2.82353	0.96989	0.83471	2.8487	83.97	-0.2346	0.0311	0.2657	1478.0899	0.168284	-403.097335	-403.086583	-403.085639	-403.13444	37.837	
C	-0.3489713761	 1.4585708334	-0.1168848819	-0.499621
C	-0.1445352808	 0.0174890693	-0.0926883458	 0.049916
C	 0.0346682514	-1.1739268499	-0.0808436966	 0.055836
C	 0.2039691297	-2.6296227568	-0.0373084135	-0.103328
O	-1.0564587999	-3.2814674543	 0.1432801594	-0.435043
C	 0.8557117969	-3.1761903972	-1.3148299313	 0.343566
C	 2.228593377	-2.6132646522	-1.6064658691	-0.457223
C	 0.5108893145	-4.5600918446	-1.7230309316	-0.28524
N	-0.0080720597	-3.3982926439	-2.4799544338	-0.352749
H	 0.6020015019	 1.9913868091	-0.0091107846	 0.154986
H	-0.8064415278	 1.7803440879	-1.0585203321	 0.15534
H	-1.0030463198	 1.7810920645	 0.7005316502	 0.150591
H	 0.8675648889	-2.8794783612	 0.8072157668	 0.098503
H	-1.6193336431	-2.6851858503	 0.6456316764	 0.292214
H	 2.9302458599	-2.8461103405	-0.7968787453	 0.110076
H	 2.6161274264	-3.0415405324	-2.5334408125	 0.128176
H	 2.1901912989	-1.5257496361	-1.7220975028	 0.127571
H	 1.2504851001	-5.1566770747	-2.2506955024	 0.106752
H	-0.1861216875	-5.1191788214	-1.1087716556	 0.126875
H	-0.9731439908	-3.2491976086	-2.1893056239	 0.2328
24.8371	55.1417	86.0842	152.6783	192.2762	198.7613	255.1538	275.4398	332.8021	344.0992	360.7144	395.488	439.6306	534.4312	588.1968	747.375	803.4006	858.7215	904.5124	936.2985	993.5608	1013.7405	1051.6594	1054.0203	1058.3595	1098.381	1112.3884	1143.744	1158.1126	1247.9198	1279.1437	1312.9307	1339.9122	1382.4798	1399.9662	1414.1888	1423.6762	1476.0395	1478.2922	1484.5077	1497.313	1509.639	2363.9993	2959.9994	3030.3882	3033.7753	3092.0972	3094.0548	3099.4577	3114.9003	3127.6664	3211.7284	3484.9475	3838.9683
CC#CC(O)C1(C)CN1	CC#C[C@@H](O)[C@@]1(C)CN1	
InChI=1S/C7H11NO/c1-3-4-6(9)7(2)5-8-7/h6,8-9H,5H2,1-2H3	InChI=1S/C7H11NO/c1-3-4-6(9)7(2)5-8-7/h6,8-9H,5H2,1-2H3/t6-,7-/m1/s1
