19
gdb 111250	2.65785	1.54716	1.45832	2.4868	69.65	-0.2437	0.0756	0.3193	1000.6647	0.161638	-460.127251	-460.119695	-460.118751	-460.159341	30.031	
O	 0.1273956016	 1.2132103122	-0.5870801906	-0.42869
C	 0.0403069062	 0.0481898518	 0.221847078	-0.106969
C	-1.345292857	-0.5956574125	 0.1473461967	-0.012644
C	-2.0620093027	-0.6256572119	-1.2349160608	 0.091919
O	-1.0752537313	-0.9307436341	-2.2369002209	-0.28974
C	-0.5992164671	-2.2588921788	-2.1094868585	 0.018935
O	-0.45401408	-2.6686605388	-0.7664103539	-0.270316
C	-1.4962588717	-2.1524370987	 0.0683545836	 0.085854
C	-2.788382471	-1.9099958256	-0.756043618	-0.288233
H	 0.0474800492	 0.9031624263	-1.4972302081	 0.289628
H	 0.8031261801	-0.689902794	-0.0571082791	 0.102283
H	 0.2564431029	 0.3694610116	 1.2455693472	 0.103741
H	-2.0262541065	-0.1869075686	 0.8998964994	 0.079931
H	-2.6223540075	 0.2376535952	-1.5931795173	 0.09005
H	-1.2814715554	-2.9422321654	-2.6368625808	 0.098408
H	 0.3883100291	-2.3006755519	-2.5757151123	 0.123422
H	-1.5117895333	-2.7624862954	 0.9722216181	 0.084157
H	-3.6248151455	-1.6557412474	-0.1028942505	 0.116138
H	-3.1134909901	-2.6544777939	-1.4841849021	 0.112126
77.4177	176.4892	212.9427	309.7992	332.9284	423.2927	474.4055	513.3008	550.5754	599.0681	654.3775	758.9948	827.082	838.5988	872.3832	912.5196	941.3643	978.1661	997.6677	1023.2239	1049.7364	1075.3869	1117.3106	1132.0206	1147.9854	1160.7556	1188.1508	1218.4152	1228.6971	1243.8374	1269.2587	1271.6746	1354.1062	1359.1217	1366.4687	1399.1394	1428.4135	1443.4812	1486.0935	1512.8652	1542.7611	2983.6361	3021.4763	3060.7413	3081.8356	3085.1233	3096.3286	3107.8337	3117.7467	3139.2861	3786.4445
OCC1C2OCOC1C2	OC[C@H]1[C@H]2OCO[C@@H]1C2	
InChI=1S/C6H10O3/c7-2-4-5-1-6(4)9-3-8-5/h4-7H,1-3H2	InChI=1S/C6H10O3/c7-2-4-5-1-6(4)9-3-8-5/h4-7H,1-3H2/t4-,5-,6+
