20
gdb 43628	5.09011	0.83734	0.76325	3.9627	80.59	-0.2456	0.0396	0.2853	1497.9363	0.171826	-403.16385	-403.155258	-403.154314	-403.198009	32.235	
O	 0.0692912578	-0.1093090923	-0.0035465156	-0.358886
C	-0.0117004724	 1.0889906305	-0.025450059	 0.428726
C	-1.1539367001	 2.135475171	-0.0086979411	-0.408754
C	-0.022966339	 3.2107428415	-0.0314383459	 0.032011
N	 0.930408199	 2.0886320496	-0.0662686271	-0.326753
C	 0.0265472753	 4.1479805051	-1.2200396702	 0.054203
C	-0.9588697967	 5.3519521119	-1.2532652454	-0.234428
C	 0.1832715407	 6.2223269586	-1.8434864451	-0.206005
C	 1.1998253337	 5.1666598903	-1.3315864839	-0.242391
H	-1.7930523023	 2.1163144082	-0.893834772	 0.128481
H	-1.7705763093	 2.1114503862	 0.8911219051	 0.130382
H	 0.0419540528	 3.7855953077	 0.9021198197	 0.076245
H	 1.9391018613	 2.055254007	-0.0458907822	 0.247901
H	-0.0521946549	 3.560903631	-2.1422672729	 0.073233
H	-1.8769497405	 5.2420155135	-1.834923809	 0.100963
H	-1.2268951263	 5.6722204123	-0.2405930732	 0.100464
H	 0.1459720459	 6.2509770918	-2.9360126038	 0.106593
H	 0.2846813893	 7.245072739	-1.4740794336	 0.099876
H	 1.58992798	 5.4320282871	-0.3427028463	 0.097891
H	 2.0410402356	 4.90604543	-1.9782452287	 0.100248
56.1528	67.9134	133.0801	161.9437	314.5996	339.6261	388.7198	398.855	511.3455	565.4321	637.9199	750.7154	767.6506	784.3479	873.6001	904.0695	933.7579	944.2509	960.3979	967.4845	992.838	1012.4782	1051.1053	1087.4319	1111.6906	1173.4978	1191.9025	1202.9053	1210.4602	1242.3441	1256.8174	1262.9702	1274.6325	1275.8676	1291.8425	1328.2368	1381.2762	1416.0958	1459.2754	1478.1286	1487.5152	1510.6889	1895.3142	3010.8827	3040.4671	3043.3521	3050.3649	3061.6021	3084.9488	3098.8914	3103.0684	3119.9001	3143.6735	3608.5496
O=C1CC(N1)C1CCC1	O=C1C[C@@H](N1)C1CCC1	
InChI=1S/C7H11NO/c9-7-4-6(8-7)5-2-1-3-5/h5-6H,1-4H2,(H,8,9)	InChI=1S/C7H11NO/c9-7-4-6(8-7)5-2-1-3-5/h5-6H,1-4H2,(H,8,9)/t6-/m1/s1
