19
gdb 65679	3.95117	1.00587	0.95307	4.2318	76.57	-0.2648	0.0063	0.2711	1290.2964	0.158007	-423.017183	-423.008526	-423.007582	-423.050468	32.614	
C	 0.0149047071	 1.6072223728	-0.3590611031	-0.466099
C	 0.0433430225	 0.1408663933	-0.0008437546	 0.411225
O	-1.1334496244	-0.5409632959	-0.4484761672	-0.233897
C	-2.2484456311	-0.399978303	 0.2982293566	 0.157932
O	-3.2957568375	-0.8806034462	-0.0161092729	-0.27581
C	 1.2209787435	-0.7770958426	-0.1508863487	-0.099168
C	 2.5333303592	-0.0912769571	 0.2405866265	-0.248945
C	 1.9359062166	 0.2198514522	 1.6538282898	-0.245275
C	 0.6335631876	-0.4773553147	 1.2424605554	-0.115768
H	 0.9524306359	 2.1038534564	-0.1028047509	 0.131894
H	-0.1501912137	 1.723073227	-1.4347679903	 0.138319
H	-0.792808645	 2.1284839836	 0.1659579701	 0.123227
H	-2.080827987	 0.1912505912	 1.2174500711	 0.0834
H	 1.1186709597	-1.669547518	-0.7556032376	 0.105025
H	 3.3652403209	-0.7956121057	 0.2972936715	 0.114729
H	 2.8456612679	 0.7586572059	-0.3740067335	 0.103173
H	 2.459864965	-0.317401142	 2.446511615	 0.114927
H	 1.8570132075	 1.2712421485	 1.9465442754	 0.10232
H	 0.0353027254	-1.1177584956	 1.8795174574	 0.098789
89.9202	147.7753	167.5237	191.3612	248.5421	258.164	334.7457	400.1757	403.5393	485.2369	612.5824	704.2003	734.9909	787.3486	869.9753	883.9313	931.0787	967.445	975.4317	1003.7971	1012.7467	1033.9628	1051.16	1097.5541	1103.6392	1134.2405	1181.6091	1183.7491	1222.3753	1252.8355	1257.2708	1276.7097	1290.2273	1414.2929	1417.6161	1430.8026	1474.8077	1495.2851	1496.9401	1507.2214	1863.6672	2967.2415	3040.956	3052.4839	3059.5425	3102.735	3104.0227	3121.3984	3136.59	3180.0346	3195.7412
CC1(OC=O)C2CCC12	C[C@@]1(OC=O)[C@H]2CC[C@@H]12	
InChI=1S/C7H10O2/c1-7(9-4-8)5-2-3-6(5)7/h4-6H,2-3H2,1H3	InChI=1S/C7H10O2/c1-7(9-4-8)5-2-3-6(5)7/h4-6H,2-3H2,1H3/t5-,6+,7+
