17
gdb 73069	2.60725	1.43401	1.15905	2.9392	68.91	-0.2298	0.0244	0.2542	1085.3405	0.136284	-455.10866	-455.1002	-455.099256	-455.142502	31.423	
O	-0.0302788083	 1.3405170595	 0.3985825772	-0.459383
C	-0.1056440989	-0.0127449125	 0.1691260205	 0.369086
C	 0.7905072065	-0.7808898346	-0.8058165347	-0.244865
N	-0.3216211612	-1.7620543798	-1.0851903914	-0.342165
C	-1.2445504522	-0.9402676134	-0.27556499	-0.154021
C	-0.7523680405	-0.9622315741	 1.1421672424	-0.025578
N	-0.0745231409	-2.0938194001	 1.695508096	-0.279984
C	 0.9053446171	-1.9133811587	 2.6191575374	 0.147688
O	 1.1992600847	-0.8368051978	 3.1016355306	-0.335389
H	 0.3712901627	 1.4577167962	 1.2693202493	 0.30191
H	 1.0351817022	-0.1671769548	-1.6768726947	 0.119125
H	 1.7022444315	-1.2397068153	-0.4086647963	 0.109112
H	-0.581300431	-1.723389146	-2.065279726	 0.22998
H	-2.2831816711	-0.7892412899	-0.5448976915	 0.106252
H	-1.4047814481	-0.43915076	 1.8373493581	 0.116779
H	-0.142118155	-2.9697162476	 1.1985791143	 0.26181
H	 1.4006443726	-2.861929881	 2.9042448988	 0.079645
35.8752	100.2395	176.3476	250.2663	283.7289	319.0133	362.1131	403.8212	488.9496	516.4548	598.0275	632.8577	750.5335	800.3725	832.3282	899.8505	913.0358	967.9569	990.8216	1017.9132	1031.4342	1035.9817	1075.5312	1120.2547	1147.4821	1200.0317	1238.7649	1259.7613	1279.4458	1338.947	1342.4948	1379.0021	1421.7344	1469.669	1499.208	1519.5499	1787.9795	2946.5329	3044.1863	3103.6707	3143.9336	3186.0529	3525.0239	3617.5166	3767.1337
OC12CNC1C2NC=O	O[C@]12CN[C@H]1[C@H]2NC=O	
InChI=1S/C5H8N2O2/c8-2-7-4-3-5(4,9)1-6-3/h2-4,6,9H,1H2,(H,7,8)	InChI=1S/C5H8N2O2/c8-2-7-4-3-5(4,9)1-6-3/h2-4,6,9H,1H2,(H,7,8)/t3-,4+,5+/m0/s1
