21
gdb 118324	2.50216	1.05721	0.79392	1.2764	82.89	-0.2496	-0.0152	0.2344	1498.6461	0.181596	-420.449314	-420.43899	-420.438046	-420.485367	36.84	
C	-0.8372284773	 1.8084941768	 0.2878403627	-0.380232
C	-0.4584486722	 0.3897199908	-0.1439318932	-0.168881
C	-1.4686250626	-0.645658268	 0.359544704	-0.162523
N	-1.1442504239	-2.0253728727	-0.0411218553	-0.091553
C	-0.4501070355	-2.8031926571	 0.8663404329	 0.157021
O	-0.052868124	-3.9355855135	 0.7190622468	-0.32622
C	-1.5410705302	-2.4467216421	-1.3310701616	 0.355715
C	-1.2483508144	-3.8686604127	-1.7434446608	-0.443409
N	-2.1338715601	-1.5816337437	-2.059511527	-0.50217
H	-0.1072173885	 2.5376010638	-0.0752127964	 0.118365
H	-1.817411447	 2.0931000778	-0.1095664808	 0.124377
H	-0.8817521638	 1.8989212446	 1.3792868462	 0.112609
H	-0.4131509476	 0.3286126693	-1.2348362679	 0.128855
H	 0.5386645246	 0.1345609756	 0.2367222108	 0.09466
H	-1.5152609257	-0.6254189929	 1.4531932537	 0.105517
H	-2.4627117684	-0.4157304253	-0.0259338281	 0.143734
H	-0.2861829612	-2.2428635039	 1.8060407933	 0.088091
H	-0.1759147981	-4.0716302835	-1.7453750064	 0.159702
H	-1.6896260132	-4.5879524754	-1.0507623413	 0.15581
H	-1.6534771893	-4.0297508243	-2.7453240039	 0.109754
H	-2.3863567615	-1.9951112236	-2.9547963077	 0.220777
51.8248	74.9357	90.2811	131.2891	211.0641	240.8484	253.6916	266.8642	313.4024	377.3073	393.1461	444.4322	547.8716	595.7328	724.3303	741.1664	787.7505	862.0553	881.1439	902.7594	984.8125	1034.7227	1044.325	1072.2906	1087.4659	1127.4603	1132.156	1183.3762	1256.2261	1321.3626	1334.2891	1375.3981	1404.7752	1409.7558	1417.1189	1420.3347	1452.2221	1462.8588	1467.6855	1490.8727	1494.5086	1502.1192	1508.2497	1693.8937	1805.3601	2951.5408	3030.0513	3031.6943	3054.7161	3057.802	3084.8264	3105.3618	3109.5593	3128.9762	3137.5148	3140.1118	3503.5951
CCCN(C=O)C(C)=N	CCCN(C=O)C(=N)C	
InChI=1S/C6H12N2O/c1-3-4-8(5-9)6(2)7/h5,7H,3-4H2,1-2H3	InChI=1S/C6H12N2O/c1-3-4-8(5-9)6(2)7/h5,7H,3-4H2,1-2H3
