19
gdb 111777	2.97839	1.25808	1.12001	2.8814	75.49	-0.2261	-0.0193	0.2068	1171.5061	0.159595	-423.013282	-423.00507	-423.004126	-423.046327	31.232	
C	 0.0279013867	 1.6196389183	 0.0712281321	-0.38331
C	 0.0039042157	 0.0868615882	 0.0668087247	-0.223665
C	 0.6501850739	-0.49636709	-1.1846288802	 0.014103
C	 0.7313625159	-2.057642537	-1.4070768029	-0.226453
C	-0.75685793	-2.4376632748	-1.3877182548	-0.091361
O	-1.3308502475	-1.3367814035	-2.1475522409	-0.278359
C	-0.1763364419	-0.5618540563	-2.5109727734	-0.038112
C	 0.8414635607	-1.6572511969	-2.8990306759	 0.444575
O	 1.5161527482	-1.9577460163	-3.8350271945	-0.315759
H	 1.0529186142	 2.002645418	 0.0186955525	 0.117316
H	-0.5238679094	 2.0270497458	-0.7823157816	 0.123447
H	-0.4297779358	 2.0159533094	 0.9824423239	 0.118224
H	 0.5319662062	-0.2923936583	 0.9506492432	 0.101895
H	-1.0308766784	-0.2595365543	 0.1407878821	 0.121273
H	 1.6318505496	-0.044633203	-1.3649789751	 0.093681
H	 1.4472582245	-2.7039545717	-0.9050651843	 0.093136
H	-0.9603243627	-3.3885840619	-1.8928681282	 0.118696
H	-1.1985799456	-2.4651542298	-0.3862387191	 0.110934
H	-0.4601871343	 0.2909360041	-3.1216630677	 0.09974
76.5618	125.341	174.2093	211.0693	267.2346	313.7325	363.706	477.1321	524.745	656.1939	673.2718	717.9093	785.2884	814.3128	842.6603	904.8726	922.3391	957.9188	973.7104	1003.192	1055.464	1062.064	1071.6627	1090.1906	1118.5855	1140.0555	1178.0376	1190.6003	1220.197	1251.9546	1274.4956	1303.0257	1343.8651	1365.5724	1404.4053	1414.5457	1484.6051	1499.2466	1504.3696	1532.8251	1912.378	3030.6427	3032.9044	3034.1944	3053.9741	3072.5447	3084.6243	3107.4023	3108.4665	3156.7311	3168.954
CCC1C2COC1C2=O	CC[C@H]1[C@H]2CO[C@@H]1C2=O	
InChI=1S/C7H10O2/c1-2-4-5-3-9-7(4)6(5)8/h4-5,7H,2-3H2,1H3	InChI=1S/C7H10O2/c1-2-4-5-3-9-7(4)6(5)8/h4-5,7H,2-3H2,1H3/t4-,5+,7-/m0/s1
