17
gdb 115787	2.97206	0.94669	0.76817	3.2634	66.46	-0.2623	-0.0067	0.2556	1428.5801	0.13438	-496.087262	-496.078186	-496.077241	-496.122562	31.45	
O	-0.0273633185	 1.3304286982	-0.2332630228	-0.420578
C	 0.0745224903	-0.0739853567	-0.1106412663	-0.064304
C	-1.2883741014	-0.6479581635	 0.2497735537	 0.073378
O	-2.2626860974	-0.3027813548	-0.7747353616	-0.300056
C	-2.3983472722	-1.6814606368	-1.1845197748	-0.101811
C	-1.5347778638	-2.1524968074	-0.0026187627	 0.050293
O	-0.393056668	-2.9152821532	-0.359326766	-0.186252
C	-0.1410971133	-4.0605177536	 0.3146569239	 0.169642
O	 0.8002040096	-4.7508075367	 0.0768350115	-0.263039
H	-0.7394654831	 1.4911827479	-0.8649669815	 0.293591
H	 0.4466371888	-0.5412342909	-1.0333603207	 0.103993
H	 0.7987507558	-0.2811279125	 0.6839722086	 0.116797
H	-1.6105239377	-0.2699569856	 1.2267310324	 0.094164
H	-3.4436634428	-2.0065475188	-1.1945306203	 0.118251
H	-1.9385149163	-1.8808150773	-2.1594507147	 0.125876
H	-2.09029571	-2.6545461886	 0.7950181595	 0.104952
H	-0.9000118702	-4.2726621099	 1.0927896916	 0.085103
46.3811	78.7887	112.6279	132.4235	171.9906	265.1799	296.8458	396.5765	454.076	461.9282	524.5266	643.0293	803.2401	861.765	915.7865	919.8063	1012.0066	1039.9831	1041.5036	1071.6496	1081.7395	1120.2211	1142.0337	1168.3911	1183.1936	1213.4685	1254.7006	1281.389	1331.1634	1348.2301	1390.6169	1399.0145	1432.531	1441.6161	1499.2872	1517.9201	1875.4162	2949.4776	3008.594	3032.4119	3045.151	3063.5124	3083.7549	3088.9544	3782.8815
OCC1OCC1OC=O	OC[C@H]1OC[C@H]1OC=O	
InChI=1S/C5H8O4/c6-1-4-5(2-8-4)9-3-7/h3-6H,1-2H2	InChI=1S/C5H8O4/c6-1-4-5(2-8-4)9-3-7/h3-6H,1-2H2/t4-,5-/m1/s1
