23
gdb 92839	3.42592	1.20737	0.95356	0.2451	92.94	-0.2248	0.0308	0.2555	1313.2693	0.208015	-351.167462	-351.159124	-351.15818	-351.199918	33.816	
C	-0.1341991868	 1.5783535703	-0.0245372691	-0.404841
C	 0.0159167312	 0.054672164	 0.005713732	 0.037834
C	 0.6635096506	-0.4594596916	-1.3039926769	-0.230671
C	 1.2051017872	-1.8683010261	-1.2196586027	-0.24749
C	 1.1676503099	-2.5316432537	-0.0726769284	 0.351839
C	 1.8652871008	-3.7122121375	 0.5710389647	-0.317741
C	 1.8814127159	-2.8572727981	 1.8858402673	-0.25222
C	 0.7664106079	-1.9515974393	 1.2656210337	-0.039069
C	 0.7890593523	-0.4277794798	 1.2547796562	-0.230401
H	 0.8468146159	 2.0679198656	-0.047473391	 0.111442
H	-0.688516225	 1.9068848792	-0.9106526564	 0.10873
H	-0.6682514378	 1.9435109855	 0.8591056963	 0.108078
H	-0.9909477644	-0.3830885392	 0.0677170192	 0.072732
H	-0.0647062822	-0.3709240053	-2.1223046053	 0.099984
H	 1.4901895155	 0.2122719311	-1.5855104844	 0.0985
H	 1.6874089474	-2.2795879656	-2.1041664448	 0.076869
H	 1.2172028226	-4.5903191932	 0.673460221	 0.10604
H	 2.8227269669	-4.0334028007	 0.1525447452	 0.10466
H	 1.6508628398	-3.3710373097	 2.8220351358	 0.095002
H	 2.824243628	-2.314390977	 1.9953272582	 0.104013
H	-0.2193077317	-2.3156417972	 1.5867614019	 0.072729
H	 1.827447182	-0.072660422	 1.2018257123	 0.088151
H	 0.3471148439	 0.0029994303	 2.1612596551	 0.085833
115.102	156.1416	245.9968	257.8523	272.8949	313.3061	382.7402	410.8858	423.3079	520.3586	621.5865	694.9012	754.2597	780.2832	832.5364	848.4475	897.524	915.257	922.3552	932.6159	966.0342	1004.803	1024.2948	1067.4664	1088.5842	1089.4931	1119.5327	1137.662	1166.3822	1183.9178	1199.1746	1239.8827	1249.3652	1260.9161	1279.4388	1293.8566	1322.035	1337.1814	1373.7527	1375.5291	1389.8231	1409.5117	1474.2819	1476.1071	1487.1583	1492.619	1498.3853	1499.9441	1774.8474	2981.0369	2995.1466	3002.9601	3012.9731	3021.7305	3023.3174	3036.4657	3057.9664	3058.3876	3088.755	3092.8159	3094.8067	3117.4396	3143.7766
CC1CC=C2CCC2C1	C[C@H]1C[CH][C]2CC[C@H]2C1	
InChI=1S/C9H14/c1-7-2-3-8-4-5-9(8)6-7/h3,7,9H,2,4-6H2,1H3	InChI=1S/C9H14/c1-7-2-3-8-4-5-9(8)6-7/h3,7,9H,2,4-6H2,1H3/t7-,9-/m0/s1
