25
gdb 100662	2.51725	1.02578	0.90215	2.6717	89.13	-0.244	-0.016	0.228	1467.5462	0.225165	-389.51497	-389.503302	-389.502358	-389.551863	42.556	
C	-0.019226594	 1.6413979054	 0.0943019183	-0.389619
C	 0.0050054177	 0.10999532	 0.0062685337	-0.193187
C	-1.3928100834	-0.5369133027	-0.0702567879	 0.027023
C	-2.1481321638	-0.0887735603	-1.3347383516	-0.41915
C	-1.3666682061	-2.0982972069	 0.0687901673	 0.164442
C	-0.6857820807	-2.8135146563	-1.104678977	-0.420176
C	-0.7149726137	-2.5274041855	 1.405953886	-0.438488
C	-2.819400513	-2.5497958373	 0.1826451448	 0.147698
O	-3.361481482	-3.3721432396	-0.5093657039	-0.261088
H	 0.9927270505	 2.0350572978	 0.2313385934	 0.114065
H	-0.428887118	 2.10140821	-0.8093027021	 0.121211
H	-0.623773617	 1.9791979719	 0.9438800147	 0.11373
H	 0.594981554	-0.1909710393	-0.868645528	 0.099991
H	 0.5387878315	-0.2718288411	 0.8821732339	 0.096915
H	-1.9611874195	-0.1700211528	 0.798962699	 0.068542
H	-3.1122036543	-0.5965559875	-1.4373566678	 0.127359
H	-2.3479490229	 0.9854257931	-1.3116088025	 0.118515
H	-1.5693304668	-0.2970273916	-2.2407103444	 0.121668
H	 0.3648507953	-2.5212168473	-1.186614304	 0.109709
H	-0.7270268467	-3.896710189	-0.9626718398	 0.124769
H	-1.1825427764	-2.5988054272	-2.0532228737	 0.127271
H	-1.1541273781	-1.9974551106	 2.2582728647	 0.115856
H	-0.8472378939	-3.6017391033	 1.5710369456	 0.125698
H	 0.3592906367	-2.3286449332	 1.4015128682	 0.129221
H	-3.3748415152	-2.0512805567	 1.014442003	 0.068024
44.442	78.13	80.8357	173.1966	207.1406	221.327	243.5888	261.2868	271.8479	295.5117	313.8093	333.6317	353.4209	380.5199	449.416	499.4022	637.8517	740.6855	785.7601	827.0828	891.8405	920.2623	948.3361	971.3678	982.946	1023.5055	1025.1755	1038.2422	1085.1821	1130.3642	1174.1836	1204.6529	1222.1282	1255.2018	1304.3653	1342.7345	1361.8328	1382.9485	1396.4465	1408.2153	1413.0392	1422.3502	1435.8492	1480.6926	1482.8092	1489.4736	1496.9093	1501.3696	1503.861	1509.013	1511.7948	1517.3023	1829.1428	2833.4083	2976.3182	3029.2385	3033.2999	3034.553	3040.9408	3052.1197	3072.8364	3098.4497	3099.154	3104.276	3110.3809	3118.15	3119.4245	3121.5369	3129.6304
CCC(C)C(C)(C)C=O	CC[C@@H](C)C(C)(C)C=O	
InChI=1S/C8H16O/c1-5-7(2)8(3,4)6-9/h6-7H,5H2,1-4H3	InChI=1S/C8H16O/c1-5-7(2)8(3,4)6-9/h6-7H,5H2,1-4H3/t7-/m1/s1
