19
gdb 39264	2.46971	2.1938	1.56179	2.7025	73.66	-0.2527	0.0838	0.3365	908.1304	0.163031	-423.003765	-422.997222	-422.996278	-423.034222	28.042	
C	-0.0230697143	 1.4717192572	 0.0340383067	-0.420153
C	 1.3312767675	 0.7915074303	 0.020785287	-0.033045
C	 2.2278994951	 0.3751183472	 1.1641130549	-0.111192
O	 2.3186898846	-1.0652762331	 1.1923735289	-0.278846
C	 1.1065011983	-1.7582257473	 0.9354281852	 0.251429
C	-0.0898872628	-0.8710122915	 1.2606222698	-0.323673
C	 0.0465153782	-0.0196813172	 0.0003560702	 0.292451
C	 0.0531783299	-1.0893044683	-1.0628051623	-0.143211
O	 0.9204563933	-2.0771736578	-0.453872434	-0.285237
H	-0.3986333029	 1.9195163711	 0.9496256767	 0.118449
H	-0.2871840723	 2.0233227955	-0.8624117464	 0.122842
H	 1.8383927898	 0.8369814205	-0.9387419232	 0.098775
H	 3.254740964	 0.7259178139	 1.0375502449	 0.112901
H	 1.8679047657	 0.7535457599	 2.1302783433	 0.095643
H	 1.1924891106	-2.709548907	 1.462576509	 0.087583
H	-1.024416265	-1.4397654994	 1.2678227418	 0.106249
H	 0.0028242237	-0.3319581233	 2.2030986933	 0.109724
H	-0.9321268875	-1.5381148839	-1.2512309906	 0.093366
H	 0.4860844742	-0.7691783267	-2.0151090953	 0.105944
208.4775	267.6423	365.215	380.4018	428.7703	477.3663	493.6024	569.8877	588.8861	765.1437	804.0792	836.1172	850.0408	867.6389	894.3361	915.7274	924.1943	964.4126	994.6131	1001.3167	1054.3026	1065.8134	1082.4044	1097.7621	1109.4713	1156.3125	1173.0334	1190.8121	1245.5519	1266.3544	1288.0516	1319.1352	1328.6593	1371.9877	1375.1607	1395.3469	1440.1685	1488.4238	1491.6943	1523.5202	1531.1079	3003.6886	3010.1189	3064.0613	3078.5559	3093.922	3108.4953	3122.5224	3135.4291	3146.7315	3206.007
C1C2COC3CC12CO3	C1[C@H]2CO[C@H]3C[C@@]12CO3	
InChI=1S/C7H10O2/c1-5-3-8-6-2-7(1,5)4-9-6/h5-6H,1-4H2	InChI=1S/C7H10O2/c1-5-3-8-6-2-7(1,5)4-9-6/h5-6H,1-4H2/t5-,6+,7+/m0/s1
