19
gdb 59011	3.344	0.95657	0.87951	2.3447	78.06	-0.2425	-0.0183	0.2242	1380.198	0.157419	-423.06029	-423.050962	-423.050018	-423.095095	34.314	
C	 0.111349411	 1.4807087516	-0.0955638396	-0.412683
C	 0.002172754	-0.045188919	-0.0047109982	 0.011362
O	 0.7046093174	-0.5450660223	 1.1359791682	-0.429018
C	-1.4252512993	-0.5287089624	-0.016525757	 0.357996
C	-2.0255470029	-1.1879615606	-1.0123720442	-0.200342
C	-3.457500618	-1.5375173705	-0.7190573716	-0.368413
C	-3.6767596143	-0.9612796263	 0.6895037954	 0.397428
O	-4.7021150329	-0.9913948472	 1.3155160248	-0.300317
C	-2.3543877535	-0.3299961021	 1.1580646407	-0.443737
H	 1.1631779914	 1.779713587	-0.077810246	 0.128471
H	-0.3461319232	 1.852974217	-1.0169390869	 0.12586
H	-0.3962856929	 1.9645358644	 0.7480088655	 0.111645
H	 0.5191130787	-0.4867057164	-0.8642454391	 0.093135
H	 0.4483972863	-0.0130623643	 1.8969856205	 0.28165
H	-1.5381528442	-1.4565718137	-1.943753086	 0.09653
H	-4.1798909691	-1.0991727047	-1.4199325013	 0.137055
H	-3.6567869122	-2.6173998762	-0.7155819048	 0.139699
H	-2.0052864051	-0.8351858153	 2.0679556997	 0.140457
H	-2.523366221	 0.719472721	 1.4322171398	 0.133222
48.4326	66.5492	151.1074	179.6554	245.7324	259.767	310.5503	343.1764	463.8773	466.4535	498.1075	542.326	600.114	678.4638	786.2797	809.948	853.0543	866.4336	910.6141	988.6817	1002.0545	1008.3604	1059.8381	1095.8241	1124.3758	1128.647	1182.8209	1197.4864	1256.402	1282.2743	1293.0907	1333.4647	1372.2233	1400.0861	1412.0755	1441.7039	1446.501	1490.914	1494.367	1708.2746	1854.9656	3022.5683	3025.2712	3029.0987	3047.7783	3050.7764	3054.9307	3099.5952	3121.2567	3185.1998	3807.224
CC(O)C1=CCC(=O)C1	C[C@@H](O)C1=CCC(=O)C1	
InChI=1S/C7H10O2/c1-5(8)6-2-3-7(9)4-6/h2,5,8H,3-4H2,1H3	InChI=1S/C7H10O2/c1-5(8)6-2-3-7(9)4-6/h2,5,8H,3-4H2,1H3/t5-/m1/s1
