19
gdb 107835	3.29232	1.48672	1.29464	2.3297	73.23	-0.2296	0.0707	0.3003	1029.0906	0.160785	-422.991831	-422.984337	-422.983393	-423.023665	30.229	
O	-0.0097454375	 1.3490446271	-0.3217603338	-0.419815
C	 0.0304252333	-0.0074383083	 0.0808565041	-0.155594
C	-1.3679304914	-0.5639807158	 0.2173412159	 0.406965
C	-2.2965931914	 0.012995372	 1.2825344383	-0.234646
C	-3.5847205057	-0.8445736153	 1.1295512203	-0.236658
C	-3.1273808941	-2.0680283086	 0.3307766742	-0.087012
C	-2.4556191778	-1.789581082	-0.9992624304	 0.097171
O	-2.0737505021	-0.4153445884	-1.0822934169	-0.35799
C	-1.6155849247	-2.0911026198	 0.1985889932	-0.218313
H	-0.5464635377	 1.3694980017	-1.1237756296	 0.296576
H	 0.5984086593	-0.6239333006	-0.632619165	 0.091607
H	 0.5499358973	-0.0415276093	 1.045031819	 0.107453
H	-1.8458665276	-0.1194125684	 2.273247105	 0.09748
H	-2.4645284011	 1.080690685	 1.125954073	 0.115846
H	-3.9926613746	-1.1401619202	 2.100023871	 0.100284
H	-4.3673367275	-0.2950297395	 0.5985124532	 0.111352
H	-3.6559962396	-3.0112303521	 0.4167403193	 0.088966
H	-2.6414138768	-2.3236208016	-1.9239313049	 0.101566
H	-0.9307230505	-2.8911587359	 0.4433249441	 0.09476
98.7094	161.9041	219.6376	298.2726	369.0687	419.3648	456.9282	496.3389	636.8996	690.6211	745.3244	756.7987	804.0809	817.3278	856.5052	865.5308	915.3262	933.3073	982.8845	1010.2853	1024.5283	1036.829	1044.8435	1076.8277	1090.7276	1096.7274	1156.0524	1182.4305	1204.3582	1229.9368	1249.969	1274.9428	1301.1835	1314.3792	1353.063	1381.0372	1400.7653	1435.1758	1476.6419	1497.1156	1499.7028	2987.5523	3040.382	3057.6305	3069.5706	3093.9196	3116.1334	3173.1121	3181.3751	3207.4964	3786.8444
OCC12CCC3C(O1)C23	OC[C@@]12CC[C@H]3[C@@H](O1)[C@@H]23	
InChI=1S/C7H10O2/c8-3-7-2-1-4-5(7)6(4)9-7/h4-6,8H,1-3H2	InChI=1S/C7H10O2/c8-3-7-2-1-4-5(7)6(4)9-7/h4-6,8H,1-3H2/t4-,5+,6-,7-/m1/s1
