21
gdb 84436	2.48231	1.67306	1.21743	1.7265	83.27	-0.2388	0.0071	0.2459	1119.8667	0.180637	-387.10024	-387.090952	-387.090008	-387.133464	35.876	
C	-0.0713969079	 1.5462753941	 0.0734295025	-0.396503
C	-0.0089110348	 0.0143916969	-0.0229235762	-0.096497
C	 0.7930176009	-0.4846512418	-1.2097313456	-0.08666
C	 1.7830624118	-1.3021433356	-0.8505356236	-0.134776
C	 1.8210452935	-1.4622166978	 0.6404552892	 0.319853
C	 2.433033886	-2.679196761	 1.274107211	-0.496416
O	 2.0690972068	-0.1916131317	 1.3093506567	-0.34094
C	 0.7104337343	-0.6396377458	 1.170777018	 0.330756
C	-0.0473229786	-0.8810042494	 2.4477890584	-0.489734
H	 0.9348367116	 1.9520135183	 0.2056410333	 0.139129
H	-0.5057936013	 1.9804358774	-0.832548564	 0.110788
H	-0.6865980438	 1.8632134486	 0.9220015928	 0.113055
H	-1.0360649376	-0.3756940341	-0.0774877979	 0.077491
H	 0.5838581402	-0.1544645225	-2.2219894061	 0.096791
H	 2.4935610374	-1.7805326636	-1.5148290831	 0.096591
H	 3.5054963453	-2.7255160111	 1.0540298503	 0.128914
H	 2.3151855651	-2.6649243964	 2.3596532952	 0.129
H	 1.9721076832	-3.5922821709	 0.8821791145	 0.123614
H	-0.3858000229	 0.0688560384	 2.8775819187	 0.127921
H	-0.9327396294	-1.4992893518	 2.2651541029	 0.119805
H	 0.5795651502	-1.3767941403	 3.1920076729	 0.127817
125.9366	164.5514	168.7931	204.1641	228.1307	244.9379	279.4152	309.8279	374.9943	455.4465	529.0992	557.1829	589.6065	668.4042	705.5665	761.8687	795.2802	832.8874	897.2913	910.1211	956.0917	965.4016	1016.6362	1056.9734	1078.91	1085.5366	1105.9605	1135.4899	1168.2576	1208.575	1234.243	1316.19	1321.61	1372.5074	1401.0253	1410.9821	1414.5452	1449.738	1476.277	1486.7368	1491.5997	1496.3107	1504.0707	1507.8307	1670.3709	2996.3826	3032.7029	3035.5484	3037.1454	3091.7254	3094.1584	3100.325	3124.7865	3125.8342	3130.5486	3179.1964	3206.7712
CC1C=CC2(C)OC12C	C[C@H]1C=C[C@@]2(C)O[C@@]12C	
InChI=1S/C8H12O/c1-6-4-5-7(2)8(6,3)9-7/h4-6H,1-3H3	InChI=1S/C8H12O/c1-6-4-5-7(2)8(6,3)9-7/h4-6H,1-3H3/t6-,7+,8-/m0/s1
