23
gdb 108220	1.95736	1.3776	1.2943	1.209	86.24	-0.2335	0.0703	0.3038	1217.0214	0.204663	-388.26769	-388.257652	-388.256708	-388.302038	38.038	
C	 0.1080170863	 1.6526599682	 0.2821310655	-0.422595
C	 0.1459618708	 0.1396502862	 0.3620070938	-0.110388
C	 1.2592680156	-0.7573341184	-0.137026092	 0.303138
C	 1.0236074895	-1.8668890779	-1.1242179647	-0.499961
C	 2.6260250124	-0.1050171195	 0.1267190847	-0.281526
C	 2.2886354671	-0.0316343653	 1.6494059577	-0.296915
C	 0.9245891366	-0.6785020214	 1.3648546834	 0.27301
C	 0.3005312081	-1.6979727757	 2.2855752538	-0.18907
O	-0.8812299319	-2.2989715803	 1.7724256671	-0.409474
H	 1.0790429141	 2.1094312298	 0.4890731354	 0.120034
H	-0.2029341835	 1.9820092204	-0.715727122	 0.116064
H	-0.6069887555	 2.0664282103	 1.0025947989	 0.110524
H	-0.8196935575	-0.3166482606	 0.1475736948	 0.070513
H	 1.0114203662	-1.4920764336	-2.1555809134	 0.111486
H	 1.8113553535	-2.6272367154	-1.0621196572	 0.109614
H	 0.0685761308	-2.3630128294	-0.9293401278	 0.133222
H	 3.4559588369	-0.7868618493	-0.0764540201	 0.098132
H	 2.8296024682	 0.8407003623	-0.386670892	 0.091668
H	 2.9389086408	-0.6788591704	 2.2445148328	 0.09887
H	 2.276537686	 0.9587447552	 2.1164997868	 0.092375
H	 1.0008993195	-2.5259603909	 2.4513530491	 0.108199
H	 0.1149790998	-1.241185284	 3.2728546507	 0.088441
H	-1.5737113239	-1.6311817102	 1.7807168345	 0.284639
80.9199	152.3727	162.6235	195.6895	199.6341	229.3872	246.8922	274.3284	316.2603	340.8281	406.6335	507.1829	526.765	634.9164	685.7475	722.4588	744.5543	800.1603	924.465	943.1639	953.1904	998.3766	1011.5782	1042.2342	1067.0695	1082.8255	1109.6453	1122.1337	1144.1437	1179.7003	1208.9252	1214.5217	1236.4691	1248.9326	1261.2777	1319.0017	1330.5654	1385.3677	1409.604	1411.5607	1420.3079	1470.715	1476.565	1489.0767	1497.8468	1500.2465	1502.1951	1506.648	1520.4607	2954.7609	3015.74	3028.7063	3037.8869	3043.0329	3045.852	3068.9364	3081.1551	3082.6496	3100.2663	3105.5371	3108.9423	3123.4684	3823.7225
CC1C2(C)CCC12CO	C[C@H]1[C@@]2(C)CC[C@@]12CO	
InChI=1S/C8H14O/c1-6-7(2)3-4-8(6,7)5-9/h6,9H,3-5H2,1-2H3	InChI=1S/C8H14O/c1-6-7(2)3-4-8(6,7)5-9/h6,9H,3-5H2,1-2H3/t6-,7+,8+/m0/s1
