12
gdb 129506	4.68382	1.1612	0.93051	3.3372	58.59	-0.2737	-0.063	0.2107	1132.4543	0.078381	-502.139908	-502.132243	-502.131299	-502.172641	27.403	
N	-0.1267423412	 1.2995287419	 0.0363350093	-0.562505
C	 0.1016436167	-0.030292545	 0.0236131032	 0.540126
O	 1.1551687027	-0.600807848	 0.0340549549	-0.327668
N	-1.1513439575	-0.776320261	-0.0067858934	 0.029713
N	-2.3454874728	-0.1866107327	-0.0207813722	-0.120757
N	-3.2289425804	-1.1427865844	-0.0485175278	-0.292598
C	-2.5102505947	-2.3004579039	-0.0485445002	 0.50212
O	-3.0648625089	-3.5079774405	-0.072429396	-0.38959
N	-1.2042128936	-2.112175272	-0.0223854394	-0.281264
H	 0.6721029907	 1.9085753076	 0.0543784993	 0.284261
H	-1.0623298014	 1.6703747066	 0.0226389882	 0.293893
H	-4.0231300196	-3.3893592986	-0.0886994558	 0.324269
59.8704	134.7461	201.6527	239.8649	362.6244	391.8434	406.8968	436.9386	542.6908	560.2733	653.863	683.7412	760.9606	774.6264	792.7351	1008.5195	1086.9522	1114.9956	1196.4353	1230.1957	1281.6722	1309.1683	1401.1855	1471.6523	1600.5283	1647.1597	1890.1781	3608.5319	3750.8687	3803.9442
NC(=O)N1N=NC(O)=N1	NC(=O)n1nnc(O)n1	
InChI=1S/C2H3N5O2/c3-1(8)7-5-2(9)4-6-7/h(H2,3,8)(H,5,9)	InChI=1S/C2H3N5O2/c3-1(8)7-5-2(9)4-6-7/h(H2,3,8)(H,5,9)
