19
gdb 74473	3.06983	1.40668	1.10774	1.8223	83.1	-0.2246	0.0093	0.2339	1150.483	0.159159	-385.870456	-385.862461	-385.861517	-385.902702	31.57	
C	-0.0457956422	 1.5068242296	 0.0821423092	-0.499318
C	-0.0153353787	 0.0147197615	-0.0032683291	 0.312608
C	 0.0466764562	-0.7541874878	-1.1003483996	-0.272399
C	 0.047613994	-2.2086037976	-0.7767914122	 0.357039
C	-0.7429458617	-3.2216546342	-1.5832897391	-0.315027
C	 0.7576018401	-3.2429165121	-1.624342034	-0.303965
C	 0.0574674604	-2.2611381774	 0.7293469718	-0.066691
O	 1.2020377892	-1.6567065775	 1.3405604883	-0.265002
C	-0.0078800732	-0.8710438298	 1.2092322236	-0.079186
H	 0.8313234094	 1.8931741901	 0.6164076801	 0.134824
H	-0.0675858722	 1.9640332798	-0.9107999963	 0.123837
H	-0.9275177418	 1.8570304111	 0.6341207805	 0.124964
H	 0.1256685697	-0.38611047	-2.1184484348	 0.095288
H	-1.2535165928	-4.0056043384	-1.0322855951	 0.115815
H	-1.2825011314	-2.8629522147	-2.4530812489	 0.115388
H	 1.2526532087	-2.8941491927	-2.524232009	 0.118065
H	 1.281354422	-4.0400113319	-1.1082965201	 0.123107
H	-0.3655699412	-3.1109002094	 1.260264544	 0.090887
H	-0.4611682546	-0.5676244386	 2.1493458608	 0.089766
120.4241	179.6402	185.0944	224.4944	271.6512	346.0196	410.4989	476.1238	524.3516	602.4424	627.4479	777.142	825.4359	842.4964	857.6807	867.4166	891.3584	922.649	939.9958	956.3702	986.8601	1009.6704	1033.6135	1060.6347	1064.5437	1077.9133	1096.0658	1172.4083	1191.2961	1245.3711	1265.9303	1301.6461	1321.3399	1374.963	1413.7704	1418.9547	1467.8259	1478.8305	1490.1455	1500.5237	1692.539	3017.012	3063.0245	3110.0254	3125.6403	3134.7109	3135.8422	3151.2919	3179.8284	3207.4877	3224.2268
CC1=CC2(CC2)C2OC12	CC1=CC2(CC2)[C@H]2O[C@@H]12	
InChI=1S/C8H10O/c1-5-4-8(2-3-8)7-6(5)9-7/h4,6-7H,2-3H2,1H3	InChI=1S/C8H10O/c1-5-4-8(2-3-8)7-6(5)9-7/h4,6-7H,2-3H2,1H3/t6-,7-/m0/s1
