15
gdb 18695	3.22304	2.43727	1.54301	3.4522	61.07	-0.2465	-0.002	0.2445	798.8484	0.120813	-399.801826	-399.795348	-399.794404	-399.832688	24.607	
O	-0.006414184	 0.0460326049	 0.3683773612	-0.327855
C	-0.013643928	 1.1990289622	 0.0379092691	 0.419008
O	-1.184716794	 1.8215035789	-0.2485199997	-0.227555
C	-1.1229010428	 3.0971304051	-0.9136143361	-0.076791
C	-0.180269864	 4.0415157774	-0.1939770826	-0.170984
N	 1.1844751847	 3.4896487131	-0.203179548	-0.096005
C	 1.6496756059	 2.9050946435	 1.0486435234	-0.237208
C	 1.2376415276	 2.025188455	-0.0838557703	-0.164406
H	-0.8037999839	 2.9472485421	-1.9522692116	 0.126627
H	-2.147280182	 3.4749056671	-0.916998605	 0.130986
H	-0.1686227986	 5.0132409238	-0.6994287178	 0.122108
H	-0.547519743	 4.202395512	 0.8285186945	 0.11334
H	 2.7059369061	 3.0280342599	 1.2688018138	 0.130842
H	 0.9917108998	 2.9548695803	 1.9143999151	 0.128065
H	 2.0104617361	 1.5337679348	-0.6677793561	 0.129828
80.0378	218.6988	260.0144	409.638	423.1176	475.1885	519.0006	680.5458	714.7896	746.2831	786.6148	886.3081	938.9409	974.0002	990.2563	1058.2403	1062.4697	1106.8228	1114.2385	1123.2314	1169.5618	1221.7575	1252.9237	1287.1563	1305.0305	1369.5734	1385.2954	1419.1925	1490.6485	1505.6189	1515.8427	1852.4447	3014.1879	3038.3919	3070.6363	3100.902	3116.9551	3153.627	3192.5867
O=C1OCCN2CC12	O=C1OCCN2C[C@@H]12	
InChI=1S/C5H7NO2/c7-5-4-3-6(4)1-2-8-5/h4H,1-3H2	InChI=1S/C5H7NO2/c7-5-4-3-6(4)1-2-8-5/h4H,1-3H2/t4-,6?/m0/s1
