21
gdb 77925	2.17081	1.40312	1.34541	1.3161	79.2	-0.2429	0.068	0.3109	1134.7598	0.180367	-424.17211	-424.162304	-424.16136	-424.205878	37.306	
C	-0.3597472147	 1.5392251701	-0.125952103	-0.452889
C	-0.0142845771	 0.0558672433	-0.0650067091	 0.003438
C	 1.2455933041	-0.5752389798	-0.7462156692	-0.18863
C	 2.1067409608	-0.0886209742	 0.4642583566	 0.124349
O	 2.4220689209	 1.2673649676	 0.663143554	-0.437579
C	 0.797549627	-0.6104348202	 1.1144058212	 0.236178
C	 0.4460349351	-0.6389089894	 2.5764224044	-0.523394
C	 0.9985041914	-1.8337670341	 0.1473381677	 0.153095
O	-0.0249099616	-2.7496962028	-0.1100988201	-0.449703
H	-0.7502588591	 1.7886150796	-1.119849848	 0.106838
H	-1.1543685621	 1.7665146234	 0.594740481	 0.109882
H	 0.4913097286	 2.1813207449	 0.0863014871	 0.144691
H	-0.9413564534	-0.4887409482	-0.2939153844	 0.031751
H	 1.5141359614	-0.5581128555	-1.804160693	 0.065025
H	 2.9911735377	-0.7113958748	 0.6661715899	 0.060749
H	 3.1713870516	 1.4832788664	 0.0994350482	 0.285246
H	 0.3600670481	 0.3743177937	 2.9828067603	 0.129377
H	-0.5083108418	-1.15230284	 2.7371673583	 0.119528
H	 1.2113764951	-1.1685252578	 3.1545109236	 0.11957
H	 1.8837200755	-2.4417811191	 0.3537221299	 0.077351
H	-0.8284404473	-2.276801813	-0.3489702952	 0.285126
151.9133	160.8693	172.0737	178.2737	195.4117	246.5564	264.2392	279.3693	290.7797	348.1901	421.8531	520.1536	533.0112	636.6415	669.5248	713.6355	792.9667	816.1541	844.5283	901.2329	968.406	1009.2895	1061.2525	1068.8032	1086.0575	1107.0674	1117.3428	1133.9332	1191.7423	1200.8003	1215.2004	1229.5015	1257.6448	1283.8663	1290.0045	1355.8859	1401.4616	1409.0532	1431.4169	1465.6031	1486.4493	1489.0326	1491.6629	1497.0442	1513.7512	2980.2586	2982.3149	3026.9762	3029.6304	3073.5487	3076.5717	3093.7501	3097.7454	3098.0202	3181.8386	3811.9336	3819.7489
CC1C2C(O)C1(C)C2O	C[C@H]1[C@H]2[C@@H](O)[C@]1(C)[C@H]2O	
InChI=1S/C7H12O2/c1-3-4-5(8)7(3,2)6(4)9/h3-6,8-9H,1-2H3	InChI=1S/C7H12O2/c1-3-4-5(8)7(3,2)6(4)9/h3-6,8-9H,1-2H3/t3-,4-,5+,6-,7+/m0/s1
