17
gdb 50545	2.8137	1.12492	0.86911	5.3327	73.58	-0.2507	-0.0402	0.2105	1294.4642	0.135624	-418.003211	-417.99432	-417.993376	-418.038206	31.08	
O	-0.6758994243	 0.6418956543	 0.5653426634	-0.237553
C	 0.0060043185	 1.1086993288	-0.3105745947	 0.154894
C	 1.2178771482	 1.9874078553	-0.1300673614	-0.145691
C	 1.0852156962	 3.3761923881	-0.8262841346	-0.180108
N	 0.8249644082	 3.9694219495	 0.5020261966	-0.300276
C	 1.4019324679	 2.7952912659	 1.1870397378	 0.038394
C	 0.6933323325	 2.3922836672	 2.4895228546	-0.348246
C	 0.9696830622	 3.3745519597	 3.536559399	 0.257263
N	 1.2106167194	 4.1685133891	 4.341264484	-0.309681
H	-0.2192511627	 0.8958465241	-1.3820552419	 0.090073
H	 2.0870609587	 1.4020615634	-0.448955083	 0.112375
H	 2.0237406724	 3.6892629144	-1.3026362783	 0.105525
H	 0.2677745424	 3.4982401536	-1.545785553	 0.115023
H	 1.2738594294	 4.8585029093	 0.6923513928	 0.234533
H	 2.4770649779	 2.8994535964	 1.396298398	 0.087292
H	-0.3826857991	 2.3215300173	 2.3265160271	 0.174224
H	 1.0374348024	 1.4075356935	 2.8225728535	 0.151959
44.9939	68.9503	114.3082	133.4269	191.2779	318.9203	328.0369	394.0882	410.4785	522.1849	655.0251	708.7656	772.2595	831.9847	883.4068	932.2061	944.5407	991.6136	1008.0585	1045.3189	1056.0626	1119.1877	1134.9835	1159.0657	1189.7184	1225.6972	1255.0007	1295.3427	1342.8095	1360.8894	1384.8468	1404.3654	1428.354	1443.3113	1527.5318	1828.1748	2359.2649	2861.2268	2984.5918	3008.5024	3056.8826	3062.8682	3068.6734	3138.1744	3536.6601
O=CC1CNC1CC#N	O=C[C@H]1CN[C@H]1CC#N	
InChI=1S/C6H8N2O/c7-2-1-6-5(4-9)3-8-6/h4-6,8H,1,3H2	InChI=1S/C6H8N2O/c7-2-1-6-5(4-9)3-8-6/h4-6,8H,1,3H2/t5-,6+/m1/s1
