18
gdb 74887	2.83238	1.62147	1.13196	3.1181	81.51	-0.2334	-0.0269	0.2065	1089.7234	0.148848	-401.962262	-401.954389	-401.953444	-401.994617	30.735	
C	 0.0191943441	 1.4786778052	-0.1607022137	-0.46581
C	 0.029266293	-0.0199639985	-0.0472398349	 0.234515
C	-1.0888505547	-0.7604971633	-0.0230968938	-0.163355
C	-1.0657622639	-2.2316908111	 0.0494049507	-0.120043
C	-0.4289342631	-3.0114732074	-1.1070286242	-0.320122
C	 0.3007603759	-2.8414088798	 0.1873818542	 0.114391
O	 1.4292092986	-2.0114927577	 0.2880952108	-0.26181
C	 1.3548853564	-0.6604772398	 0.0657977372	 0.319479
N	 2.4203047563	 0.0321754037	 0.0058869928	-0.518238
H	 0.5620169763	 1.8059408839	-1.0526249149	 0.142642
H	-1.0059326088	 1.855286597	-0.2099902321	 0.10805
H	 0.5293746502	 1.9378137935	 0.691167978	 0.142509
H	-2.0583854418	-0.2709846818	-0.0658623777	 0.09997
H	-1.8942749613	-2.7050076168	 0.5661846492	 0.100414
H	-0.8227205963	-3.9942941093	-1.3418537715	 0.122503
H	-0.0979211884	-2.4266843653	-1.9578918788	 0.133036
H	 0.4374708604	-3.7068023533	 0.8253083787	 0.112974
H	 3.2352285972	-0.5731572194	 0.1217779501	 0.218897
89.2503	136.4376	181.1896	312.2306	335.819	374.0787	423.1602	461.7051	505.3541	573.0752	688.8162	739.7185	745.6315	804.8477	830.4543	876.2869	896.5081	917.4908	974.0909	1010.4535	1035.9478	1041.1194	1066.5311	1076.0441	1113.8117	1128.7183	1185.7563	1195.8042	1246.1517	1294.2247	1385.2765	1388.3141	1416.1338	1435.4064	1468.5492	1474.4279	1487.1741	1693.1146	1722.7192	3043.3472	3105.1577	3122.1562	3134.8049	3153.6529	3164.7485	3179.2431	3230.8655	3470.8788
CC1=CC2CC2OC1=N	CC1=C(O[C@H]2[C@@H]([CH]1)C2)[NH]	
InChI=1S/C7H9NO/c1-4-2-5-3-6(5)9-7(4)8/h2,5-6,8H,3H2,1H3	InChI=1S/C7H9NO/c1-4-2-5-3-6(5)9-7(4)8/h2,5-6,8H,3H2,1H3/t5-,6+/m0/s1
