17
gdb 98127	4.61879	0.87708	0.74055	0.816	75.48	-0.2451	-0.0382	0.2069	1492.8683	0.137308	-451.378645	-451.369207	-451.368263	-451.413596	32.96	
C	-0.1728530645	 1.4096822543	 0.3482246937	-0.335483
N	-0.1128437169	-0.0228932133	 0.1596339505	-0.30671
C	 0.500303873	-0.6062836093	-0.8822109705	 0.408283
O	 1.0797382588	-0.0311246558	-1.7976987573	-0.417176
C	 0.421699296	-2.1301359456	-0.848558552	 0.285296
N	-0.179920102	-2.7220009018	 0.1032031446	-0.540362
N	 1.0716142397	-2.6604426884	-1.9498581517	-0.31576
C	 1.2172083872	-3.9863301384	-2.2714027717	 0.100508
N	 0.7453410873	-4.9306148098	-1.554937699	-0.453095
H	 0.3504987995	 1.8782882106	-0.4863661055	 0.166743
H	-1.2095744315	 1.7632561455	 0.364492324	 0.132725
H	 0.3107506957	 1.7059800313	 1.2854987255	 0.132731
H	-0.5371625929	-0.6653217021	 0.8167132717	 0.271943
H	-0.1435921691	-3.7359416315	-0.0198612933	 0.258377
H	 1.4646804346	-1.9447540888	-2.5506758359	 0.273592
H	 1.7789313321	-4.1209727643	-3.2025400479	 0.10609
H	 0.962205993	-5.8344166125	-1.967319085	 0.2323
68.5554	89.4524	114.1778	154.0441	155.5825	229.847	266.8791	314.9043	378.4797	503.7426	519.3502	599.3124	671.0662	697.4866	811.4834	816.1207	826.9621	909.3211	967.8336	990.6016	1053.8818	1110.0246	1153.7009	1164.6137	1188.1272	1237.1651	1262.7569	1364.3749	1419.1776	1445.0079	1497.2258	1497.6658	1553.3697	1590.5143	1694.8464	1742.2765	1776.1319	3031.0445	3059.5739	3083.7393	3150.0784	3457.3376	3521.0487	3555.0714	3577.425
CNC(=O)C(=N)NC=N	CNC(=O)C(=N)NC=N	
InChI=1S/C4H8N4O/c1-7-4(9)3(6)8-2-5/h2H,1H3,(H,7,9)(H3,5,6,8)	InChI=1S/C4H8N4O/c1-7-4(9)3(6)8-2-5/h2H,1H3,(H,7,9)(H3,5,6,8)
