20
gdb 98295	2.8287	0.97003	0.85502	3.6564	76.67	-0.2455	0.0283	0.2738	1443.084	0.169098	-440.297111	-440.286699	-440.285755	-440.334036	36.062	
C	 0.7320850669	 1.1970150543	 0.297214827	-0.334196
N	 0.4778409918	-0.203722927	 0.0197269476	-0.321813
C	 0.1596201533	-0.6596820603	-1.2252219754	 0.425891
O	 0.0779941853	 0.0666940711	-2.2023437416	-0.390336
C	-0.090175801	-2.1663079173	-1.3326675506	-0.14089
C	-1.535696421	-2.4274773025	-1.7882232145	-0.395233
C	 0.8929949143	-2.7440608819	-2.3354445096	 0.115026
C	 2.139192058	-3.40098017	-1.9270887625	-0.185431
O	 1.0080247981	-4.1667787557	-2.3529125684	-0.243748
H	 0.6261134745	 1.7359452491	-0.6448676833	 0.173692
H	 0.0148043477	 1.5972483735	 1.0223376741	 0.126624
H	 1.7451163889	 1.3493410603	 0.6857462124	 0.126214
H	 0.5165937643	-0.8629905459	 0.77851535	 0.24604
H	 0.0812138345	-2.6587654719	-0.3677270737	 0.067684
H	-2.2543324482	-2.0876610291	-1.03628707	 0.113849
H	-1.735337155	-1.8885153709	-2.7179712267	 0.143429
H	-1.686573779	-3.4970723484	-1.9554521278	 0.133212
H	 0.8530309076	-2.2756734564	-3.3183001201	 0.11494
H	 2.9942577191	-3.4136852517	-2.6011149503	 0.119177
H	 2.3843244	-3.4823836894	-0.8683351665	 0.105868
26.1413	71.6583	85.0047	121.5996	181.3591	207.1965	230.7123	249.9199	316.4042	360.4397	406.2775	470.9415	504.3697	707.8397	750.2223	826.3624	864.1523	880.6863	945.0926	970.6993	1038.0927	1062.6823	1094.9632	1111.4451	1153.8814	1155.0447	1170.7141	1178.0399	1190.2786	1213.5766	1284.5482	1301.9392	1355.1924	1396.326	1437.3298	1438.5623	1490.9843	1496.178	1500.5271	1501.1975	1531.3896	1558.4449	1770.0622	3028.5627	3030.6026	3044.3234	3080.8987	3081.0912	3116.3128	3125.0662	3132.2028	3155.4584	3167.6647	3654.8004
CNC(=O)C(C)C1CO1	CNC(=O)[C@@H](C)[C@H]1CO1	
InChI=1S/C6H11NO2/c1-4(5-3-9-5)6(8)7-2/h4-5H,3H2,1-2H3,(H,7,8)	InChI=1S/C6H11NO2/c1-4(5-3-9-5)6(8)7-2/h4-5H,3H2,1-2H3,(H,7,8)/t4-,5+/m0/s1
