22
gdb 105199	1.85437	1.46807	1.04211	2.4999	83.79	-0.242	-0.0173	0.2247	1298.6383	0.191582	-404.355765	-404.345152	-404.344207	-404.391395	38.651	
C	-0.8445773283	 1.0868788627	 0.5367351376	-0.386682
C	-0.8025281266	-0.2191178204	-0.265837277	-0.234513
C	 0.3854130442	-0.2777956793	-1.2105551191	 0.20486
N	 1.7087186646	-0.4977307793	-0.5850460057	-0.368961
C	 1.1721722387	-1.5471209486	-1.4438646414	-0.043891
C	 0.8296526348	-2.8796807971	-0.8211911944	-0.403146
C	 0.2716247458	 0.6372799284	-2.4082431091	 0.350786
C	 1.5335506378	 1.0522102636	-3.1563706199	-0.510527
O	-0.809348657	 1.067575783	-2.7498775398	-0.314857
H	 0.0755554797	 1.2116961267	 1.1161981544	 0.122496
H	-0.9599584931	 1.9513939299	-0.1232123192	 0.127675
H	-1.6874351048	 1.0860589716	 1.2343170909	 0.110202
H	-0.758474629	-1.0651861432	 0.4233301107	 0.095818
H	-1.7155010106	-0.3214022272	-0.8592865129	 0.117741
H	 2.4375521741	 0.0320267584	-1.05494857	 0.230283
H	 1.6080273123	-1.638831867	-2.4386129874	 0.084306
H	 0.4939425615	-2.7685622376	 0.2107245469	 0.136977
H	 0.0485969606	-3.3896240713	-1.39462854	 0.125188
H	 1.7160876383	-3.5232158898	-0.8143450759	 0.123854
H	 2.0427517105	 1.8433465947	-2.5919197776	 0.149234
H	 2.250641704	 0.239793349	-3.3027966512	 0.133684
H	 1.2418271725	 1.4604032628	-4.1245883299	 0.149474
68.7431	81.8007	141.6991	149.2965	173.9417	209.4543	214.5135	229.6167	310.712	353.4624	425.921	473.225	511.7676	524.2181	605.5364	662.1348	763.8067	793.6962	857.7798	894.2571	959.7583	983.6141	1006.1505	1022.318	1043.0499	1089.5536	1096.1212	1108.4819	1139.963	1183.1691	1235.13	1270.2064	1320.9207	1337.7373	1372.2514	1391.0844	1402.0275	1407.6	1450.942	1467.1688	1468.8019	1481.8621	1489.2323	1497.1548	1501.3368	1510.3813	1782.1731	3035.3434	3039.6935	3040.5824	3067.3388	3097.7749	3099.8103	3102.9222	3105.4568	3110.226	3124.8183	3143.8319	3151.4116	3511.7918
CCC1(NC1C)C(C)=O	CC[C@]1(N[C@H]1C)C(=O)C	
InChI=1S/C7H13NO/c1-4-7(6(3)9)5(2)8-7/h5,8H,4H2,1-3H3	InChI=1S/C7H13NO/c1-4-7(6(3)9)5(2)8-7/h5,8H,4H2,1-3H3/t5-,7+/m0/s1
