23
gdb 120971	4.55296	0.76188	0.71147	1.4969	85.25	-0.2597	0.0791	0.3389	1648.2727	0.207066	-388.28555	-388.276352	-388.275408	-388.320078	35.07	
O	-0.0947610028	 1.4694498527	-0.0743328922	-0.42157
C	 0.0236195022	 0.0567248589	 0.0198635728	-0.077913
C	-1.3808200409	-0.5332426499	-0.0114621841	-0.187621
C	-1.4120703709	-2.0621322994	 0.0232626427	 0.052291
C	-0.8573767449	-2.7113477539	 1.3206318865	-0.242771
C	-1.5575407654	-4.0672612957	 1.4273256488	-0.030049
C	-2.9437624616	-4.0897456252	 2.0195605999	-0.276168
C	-2.7753319995	-4.0379561055	 0.5224349726	-0.02897
C	-2.8327326497	-2.6628859299	-0.1432819357	-0.255175
H	 0.7879663677	 1.8482188572	-0.0322819096	 0.283728
H	 0.6141540556	-0.3493353464	-0.8187239989	 0.081167
H	 0.5371014581	-0.2354306918	 0.9496377885	 0.086567
H	-1.9491209918	-0.1308302462	 0.8374390484	 0.099226
H	-1.8784353908	-0.169871258	-0.919177023	 0.101743
H	-0.804654053	-2.4423635448	-0.8104145084	 0.067259
H	 0.2301441738	-2.8247232132	 1.2845030807	 0.095852
H	-1.0786927555	-2.0798696539	 2.1917723224	 0.094972
H	-0.950047085	-4.9610620403	 1.5154878359	 0.078835
H	-3.2917535934	-5.0188937084	 2.4593334626	 0.104056
H	-3.3010572907	-3.1975248923	 2.5275887396	 0.102798
H	-3.0608530053	-4.9098451324	-0.0553831052	 0.079274
H	-3.5799916083	-2.0190546775	 0.3388262247	 0.095556
H	-3.113760018	-2.7320803941	-1.198449359	 0.096914
60.658	97.1209	104.0843	163.2711	266.8927	294.3842	322.9953	349.3571	418.2195	446.5317	612.4112	665.5546	773.4191	791.6004	812.8842	847.1366	867.2263	897.5017	937.1618	967.889	991.0634	1002.8682	1042.3918	1049.5046	1065.7596	1070.6916	1105.3436	1108.9433	1117.2823	1152.6639	1204.3537	1205.1794	1217.3993	1240.2377	1268.5322	1287.0304	1298.878	1316.239	1331.3577	1335.4506	1365.2497	1376.8673	1391.756	1462.0624	1482.2291	1489.3257	1490.5897	1505.1589	1527.5022	2956.7459	2986.6826	2996.3364	3015.0122	3018.5581	3026.1945	3064.3027	3076.0704	3080.3376	3111.2421	3162.2283	3169.7755	3199.6038	3830.3274
OCCC1CC2CC2C1	OCC[C@H]1C[C@H]2C[C@H]2C1	
InChI=1S/C8H14O/c9-2-1-6-3-7-5-8(7)4-6/h6-9H,1-5H2	InChI=1S/C8H14O/c9-2-1-6-3-7-5-8(7)4-6/h6-9H,1-5H2/t6-,7-,8+
