22
gdb 115103	2.64131	1.29338	1.03288	2.2633	82.38	-0.2435	0.0277	0.2712	1266.4755	0.195029	-404.375729	-404.366406	-404.365462	-404.409718	34.99	
C	-0.0263827568	 1.593933922	-0.0201347238	-0.388571
C	 0.0451054656	 0.0647571013	 0.0305476571	-0.203641
C	 0.6938558815	-0.5448345063	-1.2066349807	 0.154941
O	 2.0621316974	-0.0766406605	-1.2424280204	-0.24267
C	 2.883786264	-0.7162786745	-2.1099576717	 0.125273
N	 2.6766221611	-1.7651472879	-2.7830956163	-0.266831
C	 1.3979597956	-2.4522526229	-2.6055560644	-0.16865
C	 0.6637443605	-2.0785403047	-1.3038064601	-0.041229
C	 1.2736257075	-2.7815298492	-0.0824823339	-0.395132
H	 0.9734499883	 2.0250868491	-0.1146369299	 0.135737
H	-0.6213387857	 1.9342508847	-0.8750415518	 0.113097
H	-0.4869203102	 1.9946929083	 0.8875345152	 0.113269
H	 0.6031280567	-0.2515591196	 0.9182064041	 0.111549
H	-0.9635069641	-0.3574813146	 0.1216573403	 0.09837
H	 0.1974303956	-0.1384103545	-2.1009553743	 0.0806
H	 3.8375135516	-0.193831771	-2.1698786555	 0.119921
H	 0.7667291841	-2.2344516666	-3.4773366098	 0.106989
H	 1.5922599097	-3.5307222483	-2.6349906572	 0.10665
H	-0.3873135494	-2.3810075716	-1.3941086828	 0.074991
H	 2.311451466	-2.476499937	 0.080223867	 0.13371
H	 0.7132990258	-2.5674036097	 0.8317320132	 0.116107
H	 1.2650288153	-3.8660024264	-0.2289112246	 0.115521
98.8066	111.7069	148.2066	180.3419	193.3596	232.0395	301.4513	343.5819	390.8037	446.0016	498.1716	562.1709	652.7159	752.3878	808.8612	849.956	885.0172	923.7104	929.6332	965.1583	974.42	993.1075	1038.3944	1057.9783	1111.0438	1120.6597	1157.0047	1171.0386	1176.3325	1257.6416	1293.4491	1299.6987	1324.9543	1355.9615	1371.3842	1388.3017	1405.9684	1411.4717	1413.7384	1420.5513	1475.4803	1486.2069	1498.8971	1499.112	1504.4322	1509.4374	1735.3277	2985.7627	3012.7149	3029.2445	3033.6	3038.2833	3043.7401	3052.1028	3076.5429	3104.9365	3109.2635	3118.8146	3125.5097	3151.401
CCC1OC=NCC1C	CC[C@H]1OC=NC[C@H]1C	
InChI=1S/C7H13NO/c1-3-7-6(2)4-8-5-9-7/h5-7H,3-4H2,1-2H3	InChI=1S/C7H13NO/c1-3-7-6(2)4-8-5-9-7/h5-7H,3-4H2,1-2H3/t6-,7-/m1/s1
