21
gdb 94325	2.5269	1.29074	1.0703	0.8857	89.6	-0.2349	0.0501	0.285	1237.6522	0.180916	-349.904497	-349.895157	-349.894212	-349.938521	35.986	
C	-0.63583195	 1.1600337269	 0.0275554215	-0.416463
C	 0.1396297299	-0.1409988048	-0.1087108244	-0.019298
C	 1.5396577678	-0.1044917548	-0.7965062663	-0.231744
C	 2.1076341055	-1.0216904396	 0.326035812	-0.306032
C	 0.8314834522	-0.7433602727	 1.1285923026	 0.359185
C	 0.7594181245	-0.2267281708	 2.5283002762	-0.350935
C	 0.2100902412	-1.6134677466	 2.2051864458	-0.272734
C	-1.2028826004	-1.8483555874	 2.1977673967	 0.338057
C	-2.3902623994	-2.0454156542	 2.1665887786	-0.470829
H	-0.0245665765	 1.9382621396	 0.4979332142	 0.110693
H	-0.950144016	 1.5292648612	-0.9549299974	 0.112565
H	-1.5366286905	 1.0214092091	 0.6348256732	 0.125345
H	-0.4982634018	-0.9004462708	-0.5757372902	 0.081171
H	 1.5977226502	-0.4810876191	-1.8200559848	 0.097713
H	 1.9769841715	 0.8978073555	-0.7686711684	 0.100509
H	 2.1925635012	-2.0677964366	 0.0158382566	 0.10489
H	 3.0529080526	-0.716376213	 0.7830385494	 0.099812
H	 1.6728188831	-0.1851016321	 3.1135158279	 0.113618
H	 0.0356108589	 0.5472735212	 2.7594089753	 0.125395
H	 0.8146049059	-2.4525649928	 2.540975715	 0.106562
H	-3.4367919499	-2.2222813685	 2.1518817064	 0.192519
66.8249	94.7723	145.245	212.6646	239.1769	269.0074	329.9407	362.5669	435.1009	486.373	529.3855	563.9526	623.5448	646.9766	692.6536	772.5694	800.3358	867.3277	884.6906	893.0943	930.8657	949.9109	956.5279	1030.629	1061.9534	1078.5145	1093.8096	1119.7938	1147.5526	1172.0517	1193.037	1218.0915	1254.8406	1272.7736	1281.4805	1322.9149	1371.9033	1401.0609	1407.0807	1476.2107	1481.8456	1494.669	1498.392	1502.1844	2229.886	3025.9658	3035.2451	3047.3607	3057.6942	3093.0866	3094.1982	3099.0264	3115.5981	3125.3257	3133.3785	3216.0565	3505.9527
CC1CCC11CC1C#C	C[C@H]1CC[C@]21C[C@H]2C#C	
InChI=1S/C9H12/c1-3-8-6-9(8)5-4-7(9)2/h1,7-8H,4-6H2,2H3	InChI=1S/C9H12/c1-3-8-6-9(8)5-4-7(9)2/h1,7-8H,4-6H2,2H3/t7-,8+,9+/m0/s1
