19
gdb 128287	3.46852	1.14495	0.87754	2.0275	80.55	-0.1932	0.0264	0.2196	1349.7385	0.159916	-415.425881	-415.41603	-415.415086	-415.461147	34.175	
C	-0.0438977035	 1.3985707344	-0.0809904778	-0.315082
N	 0.1677606948	-0.0333140275	 0.0168649509	-0.372365
C	 0.6821281024	-0.7116578741	-1.0602201321	 0.422928
N	 1.3134748561	-0.1153316328	-2.0637159231	-0.357652
N	 1.6815694006	-1.1879977544	-2.8374592209	 0.001035
C	 2.4170080066	-0.964725565	-4.0580155654	-0.322887
C	 1.2489721347	-2.3347851961	-2.2744428109	 0.352778
C	 1.4626355791	-3.6987473006	-2.8426210013	-0.505443
N	 0.6079875924	-2.0733311979	-1.1443600311	-0.3903
H	 0.905967639	 1.8922929087	-0.3016549194	 0.147046
H	-0.756297396	 1.6818158485	-0.8703903713	 0.113014
H	-0.4119682931	 1.7691241548	 0.8786396962	 0.11688
H	-0.5443200506	-0.5594747829	 0.4991899655	 0.245167
H	 3.3746044316	-0.480944871	-3.843035538	 0.147043
H	 2.6020547716	-1.9218532421	-4.547494255	 0.137757
H	 1.8451076762	-0.3208466398	-4.7328504526	 0.14674
H	 2.526818295	-3.9454006966	-2.9239184469	 0.138195
H	 0.9914549043	-4.4246092364	-2.1793693266	 0.158498
H	 1.0199226587	-3.801591079	-3.8392126204	 0.136647
68.1525	96.126	105.6016	134.1495	175.3372	180.94	238.1918	277.2614	356.7659	381.7419	510.154	537.0982	654.5284	662.0892	696.2613	776.6636	826.0038	1008.1732	1016.0515	1055.1229	1062.4242	1131.6292	1152.6211	1160.3576	1178.8487	1211.8198	1318.1109	1348.5524	1405.0425	1444.5606	1454.3385	1459.9216	1471.3583	1480.8987	1487.9429	1495.8975	1503.4461	1516.9279	1546.0084	1578.7052	1623.6205	2991.7624	3037.6333	3043.8708	3084.9637	3090.1954	3103.265	3127.7382	3147.8622	3152.1147	3626.0112
CNC1=NN(C)C(C)=N1	CNc1nn(C)c(C)n1	
InChI=1S/C5H10N4/c1-4-7-5(6-2)8-9(4)3/h1-3H3,(H,6,8)	InChI=1S/C5H10N4/c1-4-7-5(6-2)8-9(4)3/h1-3H3,(H,6,8)
