21
gdb 72485	2.5515	1.78838	1.49086	1.8344	76.69	-0.2522	0.0769	0.3291	996.7758	0.185236	-424.248882	-424.241377	-424.240433	-424.280142	31.441	
C	-0.1240700262	 1.4849620126	 0.0104390663	-0.455441
C	 0.0388638938	-0.0234950862	-0.0044314201	 0.401482
C	 0.8489666568	-0.5803021583	-1.2079761764	-0.261402
C	 1.4074610915	-1.9478924664	-0.7182255064	-0.249018
C	 0.8582824414	-2.0926953347	 0.7213390238	 0.106908
C	 0.78000494	-0.6372380125	 1.1985835125	-0.237504
O	-0.464940822	-2.6412568884	 0.7523613647	-0.266681
C	-1.3460563346	-1.9647557121	-0.1100929926	 0.015044
O	-1.2993558814	-0.5654455139	 0.01506517	-0.300261
H	 0.8513430544	 1.9762765144	 0.0751080342	 0.110487
H	-0.628208557	 1.8272603691	-0.8984736978	 0.121128
H	-0.7279864955	 1.7927360544	 0.8686312425	 0.125397
H	 0.2157558836	-0.6639954298	-2.0952985595	 0.110121
H	 1.6573030245	 0.1147171261	-1.4521593978	 0.099953
H	 1.1070505092	-2.7912881252	-1.3450967894	 0.11092
H	 2.5008282545	-1.9404631907	-0.6868291251	 0.10248
H	 1.4603830896	-2.7524217509	 1.3485131333	 0.076015
H	 1.7799123789	-0.202658262	 1.3124445521	 0.089372
H	 0.2236809982	-0.5271343665	 2.1314770325	 0.105909
H	-1.1490058095	-2.2578199292	-1.1558374646	 0.078907
H	-2.3578335101	-2.2739393097	 0.1637672376	 0.116182
206.2313	222.5465	266.4392	316.1252	324.7198	398.9041	419.7661	430.6997	486.8632	569.049	663.0015	764.7522	778.9734	821.7859	835.3214	863.7267	902.2206	924.2295	946.9333	971.9314	1015.1915	1024.693	1056.9494	1094.151	1099.5797	1151.1182	1176.2644	1194.275	1231.0688	1235.4404	1270.7019	1280.4635	1286.1777	1296.1139	1326.9254	1359.4242	1382.0645	1411.9545	1444.0623	1468.9761	1477.5879	1482.5641	1494.9745	1499.4397	1531.5541	2948.7411	3039.55	3044.1057	3054.1171	3063.9707	3092.9191	3095.7286	3099.4902	3111.9478	3114.3962	3117.107	3121.3559
CC12CCC(C1)OCO2	C[C@@]12CC[C@@H](C1)OCO2	
InChI=1S/C7H12O2/c1-7-3-2-6(4-7)8-5-9-7/h6H,2-5H2,1H3	InChI=1S/C7H12O2/c1-7-3-2-6(4-7)8-5-9-7/h6H,2-5H2,1H3/t6-,7+/m0/s1
