15
gdb 45126	2.87224	1.66021	1.13542	6.8282	67.34	-0.2466	-0.0347	0.2119	1019.7897	0.114905	-453.988261	-453.980867	-453.979923	-454.020579	28.261	
O	-0.0292788051	-0.0681995119	-0.1100147986	-0.331253
C	-0.0106052791	 1.1394589525	-0.0589858065	 0.314818
N	-1.1477550446	 1.8953544414	 0.0450917395	-0.339162
C	-1.2228799409	 3.3199893914	 0.0992371328	 0.011749
C	-0.7863889355	 4.0844506395	 1.3363562798	-0.322776
C	 0.0752091669	 4.0615335492	 0.0863474844	 0.011743
N	 1.2633425581	 3.2727073113	 0.0211419095	-0.33916
C	 1.3354137777	 1.9083785696	-0.0723262136	 0.314813
O	 2.384346225	 1.3105771961	-0.1336961321	-0.331252
H	-2.0011842159	 1.3594589598	 0.1247944026	 0.255796
H	-2.0392156408	 3.7309783757	-0.4863072025	 0.119099
H	-1.3078896555	 5.0016814106	 1.5861037561	 0.126028
H	-0.4408442153	 3.4941921982	 2.1774543562	 0.134665
H	 0.1269820948	 4.9684344207	-0.5078144617	 0.119097
H	 2.1595006004	 3.7362505259	 0.0836558741	 0.255795
77.3177	83.3944	323.2192	349.8632	385.5522	436.6712	458.5607	542.6787	545.2357	569.6487	628.2242	697.7642	743.1353	816.2499	827.5927	855.1338	914.3358	1035.3127	1039.6388	1068.815	1094.4105	1138.7391	1146.5738	1249.1297	1270.3174	1391.7626	1396.3985	1426.9088	1450.101	1476.8358	1503.5236	1813.1763	1814.6147	3138.1509	3148.9803	3157.7912	3236.9066	3591.8858	3593.0163
O=C1NC2CC2NC1=O	O=C1N[C@H]2C[C@H]2NC1=O	
InChI=1S/C5H6N2O2/c8-4-5(9)7-3-1-2(3)6-4/h2-3H,1H2,(H,6,8)(H,7,9)	InChI=1S/C5H6N2O2/c8-4-5(9)7-3-1-2(3)6-4/h2-3H,1H2,(H,6,8)(H,7,9)/t2-,3+
