19
gdb 108287	2.84892	1.35055	1.07826	3.2707	75.92	-0.2382	-0.0202	0.218	1163.545	0.157618	-423.008972	-423.000265	-422.999321	-423.042699	32.591	
C	-0.1590468451	 1.4514931801	-0.1087827057	-0.263474
O	-0.1498602854	 0.037292	-0.0756172239	-0.288936
C	 0.6530953481	-0.5412397486	-1.053631566	 0.446263
C	 0.1832855944	-0.4828635563	-2.5330787718	-0.290195
C	 0.3862895972	-2.0229801545	-2.6484017708	-0.23284
C	 0.7521426963	-2.1078446549	-1.1269966462	-0.231229
C	 2.2591065724	-1.9857260792	-0.9102801284	 0.421004
O	 3.1530370939	-2.7774524835	-0.825351656	-0.302992
C	 2.2003985282	-0.4451139743	-0.8423992428	-0.425219
H	 0.8435811984	 1.8702335764	 0.0619238723	 0.111394
H	-0.5368516958	 1.8353235236	-1.067352415	 0.112531
H	-0.8224567265	 1.7862692359	 0.6914287293	 0.132259
H	-0.8696901628	-0.1995050723	-2.6029870369	 0.113527
H	 0.7647711428	 0.1453740918	-3.2124390966	 0.099734
H	-0.5228137313	-2.5723123868	-2.896373829	 0.120543
H	 1.1786023377	-2.3506359788	-3.3250125244	 0.119208
H	 0.1790341952	-2.7933633031	-0.5036053512	 0.097858
H	 2.8074104403	 0.1030385205	-1.5682185961	 0.120699
H	 2.443963102	-0.094683306	 0.1665302691	 0.139864
55.5571	114.9867	162.1705	187.1343	221.399	325.2575	379.6125	389.441	444.823	533.6815	581.2949	632.364	727.7944	760.2151	839.7766	894.6654	916.6561	939.388	956.2771	996.4747	1025.2962	1056.3198	1122.1623	1126.0596	1138.612	1173.0543	1182.7696	1199.6605	1212.8654	1227.0281	1239.1999	1262.0566	1277.0782	1318.3738	1421.9485	1473.2054	1481.8224	1487.4901	1495.3768	1507.3581	1887.4328	2987.5774	3037.5794	3050.198	3060.8011	3075.1112	3109.0376	3110.7587	3122.7883	3124.5083	3133.9876
COC12CCC1C(=O)C2	CO[C@]12CC[C@H]1C(=O)C2	
InChI=1S/C7H10O2/c1-9-7-3-2-5(7)6(8)4-7/h5H,2-4H2,1H3	InChI=1S/C7H10O2/c1-9-7-3-2-5(7)6(8)4-7/h5H,2-4H2,1H3/t5-,7-/m0/s1
