20
gdb 40744	4.13927	1.08842	0.96548	2.0116	80.16	-0.2148	0.0747	0.2894	1266.6057	0.171474	-403.07481	-403.066853	-403.065908	-403.107826	30.739	
C	-0.1721158762	 1.3634150644	-0.2331768897	-0.278042
C	 1.2414628757	 1.0180587402	 0.1666758014	-0.275722
C	 0.2247654352	-0.0765497625	-0.0319961408	 0.057705
N	-0.2612238593	-0.751070909	 1.124674488	-0.085381
C	 0.4411290657	-1.9850609101	 1.5695630437	-0.192881
C	-0.9174019793	-2.6928875392	 1.7299097712	 0.103259
O	-1.6028898625	-2.4038407068	 2.9631130674	-0.297283
C	-2.3678587163	-1.3330795016	 2.3490413266	-0.074928
C	-1.5615524724	-1.4615283744	 1.047542887	-0.042574
H	-0.8089665114	 1.8054404114	 0.523925579	 0.117821
H	-0.3564174596	 1.7073967351	-1.2446986064	 0.110757
H	 2.0300843278	 1.1245023056	-0.5695420527	 0.110823
H	 1.5349944165	 1.2292276633	 1.1880506295	 0.120602
H	 0.339234731	-0.678312271	-0.9414765206	 0.064248
H	 1.0501633284	-2.4433917917	 0.7751878782	 0.089982
H	 1.0468118298	-1.8710612449	 2.473982839	 0.110851
H	-1.0085168659	-3.7387514928	 1.4301265725	 0.081868
H	-3.428191086	-1.6063999857	 2.2659087019	 0.095392
H	-2.2616036112	-0.382066741	 2.8806949807	 0.106978
H	-2.0698902401	-1.4456588895	 0.0816776841	 0.076524
78.5833	84.5933	169.9736	222.9417	324.7824	377.5849	400.482	464.79	650.4231	739.2879	784.846	808.0248	826.5701	834.0363	904.347	930.6406	954.6259	969.2506	996.6054	1004.0307	1048.075	1054.8829	1070.6627	1075.7427	1079.1018	1101.7194	1132.9505	1158.6259	1162.9533	1194.4894	1196.0836	1214.485	1223.3296	1259.9773	1293.9504	1314.45	1350.935	1360.2607	1404.7059	1456.912	1489.1791	1499.4945	1504.3233	2985.2335	3009.9547	3016.1937	3075.9594	3079.892	3085.2853	3097.7716	3139.1466	3144.0397	3223.9544	3237.4053
C1CC1N1CC2OCC12	C1CC1N1C[C@H]2OC[C@@H]12	
InChI=1S/C7H11NO/c1-2-5(1)8-3-7-6(8)4-9-7/h5-7H,1-4H2	InChI=1S/C7H11NO/c1-2-5(1)8-3-7-6(8)4-9-7/h5-7H,1-4H2/t6-,7-/m1/s1
