21
gdb 114461	3.26366	1.26748	1.15555	1.6642	81.12	-0.2499	0.0718	0.3217	1173.2968	0.182835	-387.030894	-387.022777	-387.021833	-387.06355	32.149	
C	-0.0275645062	 1.6382923709	 0.0246257882	-0.377961
C	 0.1404484263	 0.1218440102	-0.1206807938	-0.202579
C	 0.6816323306	-0.5347898384	 1.1452448838	 0.050006
C	-0.2328474134	-0.6295458185	 2.4178226718	-0.260007
C	 0.0813434127	-2.1513561834	 2.5305582529	-0.060517
C	-0.9101164894	-3.1160652472	 1.8328127348	 0.013464
O	-1.4696900127	-2.4332738107	 0.7065415658	-0.233263
C	-0.1689998678	-3.01865698	 0.5596365316	 0.014917
C	 0.8902476877	-2.0812666338	 1.1944375964	-0.095999
H	 0.9276607469	 2.1260247642	 0.2510998737	 0.107673
H	-0.4200215789	 2.0851682283	-0.8942350306	 0.10943
H	-0.7232817852	 1.8836106143	 0.8345509959	 0.117765
H	-0.8189642212	-0.3342095032	-0.3822082339	 0.121125
H	 0.8271087436	-0.09117883	-0.9515099264	 0.08549
H	 1.6291775752	-0.0527869493	 1.4155225003	 0.066035
H	 0.1098466286	-0.0361502038	 3.2682655339	 0.093474
H	-1.2858499711	-0.4095209685	 2.2307344036	 0.109863
H	 0.5373670429	-2.5258897747	 3.4463685535	 0.071852
H	-1.5038809634	-3.917738215	 2.2586438183	 0.100545
H	-0.0491796897	-3.7249418615	-0.254783158	 0.101007
H	 1.9078656047	-2.4693260699	 1.1285496783	 0.067681
92.3377	132.7037	165.6123	236.4663	280.8814	339.3153	399.9169	464.0225	610.367	693.8096	724.7352	775.6268	785.2018	817.4111	831.4037	871.9123	885.3894	903.2687	953.4569	967.8993	972.8967	986.9198	1024.3271	1050.2985	1070.2808	1094.1511	1120.7692	1135.1914	1190.9381	1200.4723	1228.14	1237.2072	1249.324	1270.8128	1289.4445	1293.8212	1317.8405	1340.7156	1379.5427	1389.121	1410.5676	1468.9184	1492.4268	1500.625	1507.6872	3015.3736	3022.3753	3027.7213	3066.7641	3078.6885	3098.103	3100.006	3101.5224	3115.745	3126.5382	3166.6101	3181.8374
CCC1CC2C3OC3C12	CC[C@H]1C[C@H]2[C@H]3O[C@H]3[C@@H]12	
InChI=1S/C8H12O/c1-2-4-3-5-6(4)8-7(5)9-8/h4-8H,2-3H2,1H3	InChI=1S/C8H12O/c1-2-4-3-5-6(4)8-7(5)9-8/h4-8H,2-3H2,1H3/t4-,5+,6-,7+,8-/m0/s1
