17
gdb 29603	2.94586	1.19262	0.92781	1.7408	75.17	-0.2261	-0.0275	0.1986	1239.0978	0.134866	-421.868759	-421.859962	-421.859018	-421.903442	31.207	
C	-0.1187117511	 1.5031054512	 0.2390119508	-0.511255
C	-0.0326522579	 0.0178504598	 0.0684045419	 0.161994
C	 0.0064406792	-0.6845617823	-1.0939546636	-0.092509
O	 0.0974443062	-2.0230431856	-0.8590211963	-0.143561
C	 0.1162703691	-2.1796382663	 0.4874761283	-0.10219
C	 0.0446792885	-0.9757495563	 1.117197462	 0.137867
C	-0.0054278698	-0.7176150961	 2.5958964452	-0.390912
C	-1.4280521468	-0.3695980269	 3.01225387	 0.165979
O	-1.774455078	 0.6960731505	 3.4503950811	-0.236916
H	 0.7808750563	 1.9033533828	 0.7216886	 0.132229
H	-0.2267117103	 2.0035897821	-0.7268815492	 0.125947
H	-0.9682012311	 1.7892976002	 0.867732032	 0.149159
H	-0.018226144	-0.391697599	-2.1310159515	 0.136767
H	 0.19381305	-3.1939938652	 0.8446841056	 0.137392
H	 0.2977466287	-1.6199263576	 3.1413162445	 0.122163
H	 0.6501684266	 0.1065459821	 2.8920249029	 0.126703
H	-2.1586155355	-1.1939299935	 2.8454243563	 0.081143
46.4048	59.6629	137.7036	165.415	222.4027	257.4734	369.5515	388.1851	475.8203	621.2523	624.3373	673.8817	697.3632	752.8581	777.8117	851.0489	892.9188	1008.4376	1019.5427	1056.0123	1070.5304	1087.5754	1157.0721	1184.4746	1209.7604	1263.4204	1284.5894	1319.7207	1397.5745	1418.4288	1425.5516	1460.3479	1483.8801	1497.0837	1579.9087	1649.1189	1831.12	2874.2511	3031.197	3034.3234	3085.0631	3098.1861	3116.6337	3267.2899	3273.947
CC1=COC=C1CC=O	Cc1cocc1CC=O	
InChI=1S/C7H8O2/c1-6-4-9-5-7(6)2-3-8/h3-5H,2H2,1H3	InChI=1S/C7H8O2/c1-6-4-9-5-7(6)2-3-8/h3-5H,2H2,1H3
