21
gdb 67877	2.67961	1.97539	1.33261	0.1916	87.6	-0.2285	0.0215	0.2499	1016.9117	0.185066	-349.923111	-349.915867	-349.914923	-349.954143	30.88	
C	-0.0145281612	 1.557967913	-0.1237271483	-0.504706
C	-0.0094958787	 0.0371967835	 0.0058185594	 0.355188
C	 0.2303197677	-0.5943776663	-1.3444307941	-0.109931
C	 0.2784099726	-1.9148505912	-1.490278567	-0.089927
C	 0.08760742	-2.7710213617	-0.2738382142	-0.314068
C	-0.1369904808	-1.9118517679	 0.9627856881	 0.019057
C	 0.7514145379	-0.6445773794	 1.2101628711	-0.090911
C	-0.3713992426	-0.1565700398	 2.1635123351	-0.25666
C	-1.100406711	-0.6773942856	 0.8966166644	-0.090906
H	 0.9424694902	 1.9044479863	-0.5315440346	 0.116274
H	-0.7954932477	 1.8736446393	-0.8256179106	 0.116276
H	-0.1827882315	 2.0862108602	 0.8153701512	 0.115419
H	 0.3622417799	 0.0716838822	-2.193214516	 0.077086
H	 0.4499189383	-2.3858662776	-2.4538739494	 0.084841
H	-0.7631172751	-3.4544616207	-0.4129634677	 0.106299
H	 0.9597144437	-3.4239591155	-0.1212621464	 0.106299
H	-0.2770953158	-2.5305198841	 1.8550167178	 0.058936
H	 1.8303051585	-0.6249807068	 1.3833313361	 0.062031
H	-0.5143761183	-0.75113614	 3.070171927	 0.086838
H	-0.4287238055	 0.9072007477	 2.3907333276	 0.090535
H	-2.1761839806	-0.6959686255	 0.7049521107	 0.062031
179.6867	197.986	285.1135	325.9315	367.897	456.5246	474.7936	527.8267	573.997	651.2544	689.9038	773.4454	789.199	793.7514	877.4862	895.9415	908.4004	935.1626	954.4656	973.1283	991.3457	1017.4616	1032.7685	1067.3586	1082.3684	1102.0286	1105.4674	1141.9391	1165.1819	1182.7433	1199.9234	1204.9749	1229.4501	1246.8488	1258.4388	1288.4462	1346.0714	1390.3946	1413.8612	1429.2915	1468.5058	1494.8049	1495.444	1535.4882	1721.3748	2995.2627	3015.0581	3028.3823	3051.1412	3061.4627	3076.5114	3080.1559	3085.6822	3126.0421	3145.2418	3149.7859	3175.8229
CC12C=CCC3C1CC23	C[C@@]12C=CC[C@H]3[C@@H]1C[C@@H]23	
InChI=1S/C9H12/c1-9-4-2-3-6-7(9)5-8(6)9/h2,4,6-8H,3,5H2,1H3	InChI=1S/C9H12/c1-9-4-2-3-6-7(9)5-8(6)9/h2,4,6-8H,3,5H2,1H3/t6-,7-,8+,9+
