19
gdb 12541	3.34827	1.84586	1.26998	2.3449	73.19	-0.2378	0.022	0.2598	984.549	0.166876	-365.078498	-365.070653	-365.069709	-365.1108	29.547	
C	-0.0944643026	 1.5496699937	 0.0125660722	-0.397722
C	-0.0338092355	 0.0283634439	-0.0483914776	 0.146711
C	 0.8241981851	-0.4841218503	-1.2025258844	-0.1901
C	 0.7101804966	-1.9924231075	-1.4175785313	-0.222852
C	 1.3662295754	-2.8268390693	-0.3135113057	-0.140157
N	 0.8386677213	-2.7423879249	 1.0366734779	-0.245547
C	 0.5006619772	-1.6865069454	 1.6340064131	 0.116606
O	 0.4299458925	-0.3802008221	 1.2535455919	-0.24396
H	 0.9109875811	 1.9695944855	 0.1152830069	 0.126243
H	-0.5466906233	 1.9503481786	-0.8990887039	 0.116997
H	-0.6901292866	 1.8733383374	 0.8694823124	 0.126825
H	-1.0510062727	-0.3741956899	-0.1692610905	 0.082133
H	 0.4997796186	 0.0403780594	-2.109321273	 0.099084
H	 1.869673978	-0.1974472957	-1.0269866587	 0.10145
H	-0.3481002375	-2.2719987386	-1.5061520999	 0.100462
H	 1.1849678855	-2.2653152426	-2.3678238391	 0.096688
H	 1.3309061862	-3.8825921697	-0.6044563658	 0.105027
H	 2.4346108583	-2.5642594345	-0.2643811298	 0.110215
H	 0.2460211924	-1.7486186878	 2.6938655451	 0.111896
76.2324	108.3704	221.5241	290.3151	293.5298	359.6035	380.8665	447.5848	487.0665	546.7969	747.279	789.9619	835.1753	872.9936	896.4566	939.8476	967.5967	992.7088	1011.8004	1082.7048	1101.5955	1148.2492	1152.0215	1162.2163	1225.0626	1259.3393	1303.4848	1341.1929	1373.4332	1384.6864	1398.6655	1405.1605	1411.7389	1436.8753	1469.6616	1481.3854	1486.6059	1491.065	1499.9989	1760.3093	2989.5098	2991.7989	3017.7383	3020.4351	3045.2771	3053.2111	3060.7409	3066.9719	3117.0608	3118.543	3127.7618
CC1CCCN=CO1	C[C@H]1CCCN=CO1	
InChI=1S/C6H11NO/c1-6-3-2-4-7-5-8-6/h5-6H,2-4H2,1H3	InChI=1S/C6H11NO/c1-6-3-2-4-7-5-8-6/h5-6H,2-4H2,1H3/t6-/m0/s1
