21
gdb 41721	3.14624	1.68947	1.67035	1.5912	79.54	-0.2304	0.0816	0.312	940.9278	0.188217	-387.115081	-387.108685	-387.107741	-387.145428	27.905	
C	-0.0223976912	 1.5950170158	-0.0375266988	-0.219328
C	 1.4982269642	 1.9578597167	-0.0137083229	-0.24492
C	 2.1924863771	 0.6038303588	-0.2403590831	-0.018021
C	 2.1852950579	-0.3317113241	 1.0012810152	-0.052386
C	 2.4491920249	-1.6749256782	 0.3167624833	-0.079585
O	 1.6040955259	-1.6254826865	-0.8480222406	-0.292918
C	 1.1454635571	-0.2804624499	-0.9517476037	 0.136851
C	 0.0036031767	 0.0608117957	 0.0435505868	-0.02996
C	 0.6772447974	-0.3311628957	 1.3938115564	-0.21954
H	-0.5828596293	 2.0472026655	 0.7856639526	 0.095475
H	-0.4863453433	 1.9307422663	-0.9714761798	 0.094874
H	 1.7534507929	 2.6699650161	-0.8034323978	 0.099697
H	 1.8013095363	 2.4149251352	 0.9335544325	 0.099583
H	 3.1668316309	 0.6619761398	-0.7298004096	 0.063004
H	 2.8806694922	-0.0884918498	 1.8064424651	 0.062296
H	 3.4991481225	-1.7966576839	 0.0117143579	 0.086965
H	 2.1645377364	-2.5357185655	 0.9328572729	 0.097423
H	 0.9241710475	-0.064296603	-1.9988892156	 0.070502
H	-0.95332636	-0.4274433208	-0.1455974511	 0.060588
H	 0.3617779899	-1.3145789296	 1.7531277918	 0.098492
H	 0.4474348343	 0.3948856471	 2.1793451687	 0.090908
214.3495	248.1691	339.5478	365.9481	434.748	518.9589	628.4013	706.2517	741.7535	802.0678	804.6375	847.6892	871.5138	889.6646	920.2055	932.635	953.005	969.8264	970.4118	981.6192	1021.5301	1047.9584	1069.0959	1076.5679	1091.5066	1128.0681	1146.804	1181.6448	1197.1245	1211.1155	1244.4564	1254.4695	1274.5346	1285.4462	1305.1267	1311.9777	1316.6309	1335.1479	1343.5975	1360.0227	1395.0684	1491.662	1496.5049	1514.1251	1528.4223	2990.2957	3039.8388	3048.5741	3050.606	3053.1559	3077.5229	3089.0963	3089.9511	3095.3019	3098.9792	3103.6977	3110.5825
C1CC2C3COC2C1C3	C1C[C@H]2[C@@H]3CO[C@H]2[C@H]1C3	
InChI=1S/C8H12O/c1-2-7-6-3-5(1)8(7)9-4-6/h5-8H,1-4H2	InChI=1S/C8H12O/c1-2-7-6-3-5(1)8(7)9-4-6/h5-8H,1-4H2/t5-,6+,7+,8+/m1/s1
