23
gdb 94934	2.31319	1.47264	1.22979	1.4054	85.23	-0.247	0.072	0.319	1174.4164	0.20607	-388.293827	-388.284366	-388.283422	-388.327477	36.782	
C	 0.0477923555	 1.6008685123	-0.1608228833	-0.456019
C	 0.0724614583	 0.0893110068	-0.0217813656	 0.338458
C	-1.2581781362	-0.5392461546	-0.4125209539	-0.447249
C	 1.289776248	-0.7540377336	-0.3383003025	-0.088707
C	 2.6753635469	-0.1171905397	-0.4237495818	-0.235821
C	 2.9227159051	 0.5837323158	 0.9356629217	-0.268749
C	 1.8585062712	 0.036476668	 1.9296781652	 0.113903
O	 1.2724415724	 1.0447108624	 2.7502456443	-0.437374
C	 0.7944036341	-0.6463036451	 1.09259492	-0.085642
H	 1.009609557	 2.0745670438	 0.0267719346	 0.117255
H	-0.2669474642	 1.8770222395	-1.1747588861	 0.103168
H	-0.6706722962	 2.0369954617	 0.5410139059	 0.123105
H	-1.5131635938	-0.3020572442	-1.4523381187	 0.109812
H	-1.2359861058	-1.6291911501	-0.3150399146	 0.108506
H	-2.0696297137	-0.1639406136	 0.222050859	 0.11533
H	 1.1277449232	-1.6606111606	-0.9137469483	 0.072448
H	 3.414725818	-0.9087914237	-0.5860219952	 0.099384
H	 2.7741489985	 0.5772948046	-1.2657963163	 0.099939
H	 3.9395451438	 0.4078668096	 1.3003007639	 0.091318
H	 2.8007817093	 1.6674030153	 0.862478883	 0.111562
H	 2.3191522808	-0.7306252525	 2.5720159871	 0.062211
H	 1.9618424819	 1.3988142883	 3.3210770285	 0.278652
H	 0.2580379156	-1.4622258102	 1.5659978832	 0.07451
101.9646	129.5658	165.5226	191.874	230.8753	258.7405	289.5868	355.8321	377.7486	417.4793	443.0066	530.5486	638.7278	671.4863	712.3948	792.4111	827.39	867.7114	895.9282	958.7122	970.0119	985.5978	1001.423	1017.6456	1032.7105	1081.3449	1091.7936	1099.1231	1133.3993	1154.9877	1193.3956	1208.8938	1234.931	1251.5588	1287.7863	1321.5125	1329.381	1345.6651	1353.2176	1409.3163	1422.7391	1430.2378	1444.8012	1477.6946	1485.3531	1492.5889	1502.7174	1508.7451	1515.8817	2965.3381	3019.3764	3030.1482	3034.6857	3055.8657	3065.0767	3079.6956	3087.1282	3097.3386	3100.0376	3145.0854	3157.8585	3161.62	3812.9593
CC1(C)C2CCC(O)C12	CC1(C)[C@H]2CC[C@@H](O)[C@@H]12	
InChI=1S/C8H14O/c1-8(2)5-3-4-6(9)7(5)8/h5-7,9H,3-4H2,1-2H3	InChI=1S/C8H14O/c1-8(2)5-3-4-6(9)7(5)8/h5-7,9H,3-4H2,1-2H3/t5-,6+,7-/m0/s1
