18
gdb 31993	2.85815	1.07331	0.81587	1.4287	78.2	-0.1903	0.0358	0.2261	1391.8623	0.148034	-439.108778	-439.099523	-439.098579	-439.143708	33.442	
O	 0.5740307808	-0.692020333	 0.5054029873	-0.424218
C	-0.2110176405	 0.1088476295	-0.3788573764	-0.207322
C	-1.6480050265	-0.2135829746	-0.153644197	 0.32353
C	-2.7820517036	 0.5693466679	-0.1875303242	-0.247279
C	-3.9008447277	-0.2922937751	-0.0140902917	-0.247345
C	-3.41611944	-1.5736506525	 0.1386518238	 0.323533
C	-4.0954319574	-2.8622284492	 0.451014228	-0.207322
O	-3.4349608739	-3.9051155977	-0.2672290249	-0.424237
N	-2.0500467209	-1.5082062237	 0.048233197	-0.31021
H	 1.4941658249	-0.6136583436	 0.2357632866	 0.288327
H	-0.0547569243	 1.1841251296	-0.2074320371	 0.103405
H	 0.0777086633	-0.0977794577	-1.4236493082	 0.097945
H	-2.8038481894	 1.6385802729	-0.3360658639	 0.087185
H	-4.941628745	-0.0061661166	 0.0122136078	 0.087198
H	-4.0563855923	-3.0733403708	 1.5333833006	 0.097933
H	-5.1574256535	-2.782300468	 0.1757197861	 0.103405
H	-3.7569530581	-4.7460108905	 0.0714736107	 0.288317
H	-1.4311431459	-2.297830117	 0.1188631655	 0.267155
49.0514	71.8112	141.87	142.3947	261.4692	271.4176	301.0215	314.5334	430.5757	468.7173	564.9934	620.6525	659.2497	676.4394	749.9492	784.8328	818.1603	993.9738	1000.6779	1013.051	1036.5723	1045.6729	1049.7622	1073.3457	1173.1436	1226.5593	1229.6692	1236.2367	1244.1342	1286.8461	1300.8484	1440.9556	1442.1579	1456.7278	1468.765	1514.2711	1515.4176	1549.7009	1631.2501	2947.9797	2948.5264	3004.6107	3004.8059	3235.969	3251.1415	3682.7668	3823.2945	3823.3614
OCC1=CC=C(CO)N1	OCc1ccc(CO)[nH]1	
InChI=1S/C6H9NO2/c8-3-5-1-2-6(4-9)7-5/h1-2,7-9H,3-4H2	InChI=1S/C6H9NO2/c8-3-5-1-2-6(4-9)7-5/h1-2,7-9H,3-4H2
