19
gdb 86370	2.41556	1.18384	0.91226	2.9409	73.65	-0.2593	-0.0003	0.259	1315.44	0.156646	-460.174756	-460.165101	-460.164157	-460.210427	33.941	
C	 0.2250654701	 1.5693704757	-0.2852953181	-0.402128
C	 0.0287185514	 0.09772466	 0.0099997158	 0.128692
O	 0.8251975915	-0.7636012039	-0.8377287909	-0.310121
C	 1.3778803406	-1.4771566675	 0.2937514444	 0.128686
C	 2.8901690973	-1.5415746493	 0.2752704961	-0.402117
C	 0.6783843369	-0.5082139112	 1.2778111454	 0.022835
O	 1.5660753893	 0.3738172248	 1.9526594818	-0.178906
C	 1.4492617789	 0.5150382075	 3.28957585	 0.170791
O	 2.1556403648	 1.235001044	 3.9254786707	-0.270006
H	 1.2676976006	 1.8628250755	-0.1499518424	 0.140087
H	-0.0684524481	 1.7733835365	-1.3192609325	 0.13152
H	-0.3989045653	 2.180830588	 0.3749413597	 0.119788
H	-1.0350523442	-0.1701492151	-0.0655364434	 0.078187
H	 0.9514601109	-2.488993565	 0.3522764318	 0.078186
H	 3.3273506383	-0.5414120142	 0.282995698	 0.140084
H	 3.2624192485	-2.0927451208	 1.1451997739	 0.11979
H	 3.2192036267	-2.0644709996	-0.6276009548	 0.131511
H	-0.0074085644	-0.9661310058	 1.9970274794	 0.091538
H	 0.6358170263	-0.1053024695	 3.7140650952	 0.081583
43.1763	53.5425	143.4089	166.6557	200.1102	201.9041	254.1763	305.1983	384.85	401.5352	453.4692	549.0886	648.3839	782.52	807.1754	875.5723	935.1022	936.5269	1006.9897	1011.4409	1041.5903	1078.7973	1118.2655	1145.7106	1156.016	1168.344	1194.9064	1240.3295	1283.0208	1340.9743	1359.2261	1382.955	1401.9765	1405.5986	1416.8388	1441.4774	1481.5876	1487.9161	1488.082	1493.2854	1870.6925	2947.9113	2994.6107	2999.1996	3044.8782	3045.236	3060.6622	3113.0189	3113.2466	3140.3897	3141.9618
CC1OC(C)C1OC=O	C[C@H]1O[C@@H](C)[C@H]1OC=O	
InChI=1S/C6H10O3/c1-4-6(8-3-7)5(2)9-4/h3-6H,1-2H3	InChI=1S/C6H10O3/c1-4-6(8-3-7)5(2)9-4/h3-6H,1-2H3/t4-,5+,6+
