15
gdb 45340	2.59924	1.87053	1.19451	5.489	67.81	-0.2596	-0.0126	0.247	986.2342	0.114622	-453.972752	-453.965698	-453.964754	-454.004652	26.626	
N	-0.0715920813	 1.2682471133	 0.3562237666	-0.535231
C	-0.0117124629	 0.0979445451	-0.0957211009	 0.436134
O	 1.0244800076	-0.4559318001	-0.8127886284	-0.248427
C	 0.8801978735	-1.8883993527	-0.8882308368	-0.114854
C	-0.623075644	-2.1195556375	-0.6804332143	 0.008622
C	-1.1379357449	-2.9594073753	 0.5180326918	-0.400367
C	-1.3751579378	-1.6036532619	 1.2210962988	 0.401353
O	-1.694185278	-1.2311683876	 2.303778298	-0.288761
N	-1.0075113378	-0.8890020744	 0.0380209873	-0.149315
H	 0.8058760884	 1.7586741008	 0.1886567323	 0.234903
H	 1.2482150875	-2.2112637461	-1.8631139724	 0.134258
H	 1.4864169103	-2.35309295	-0.1003178608	 0.120036
H	-1.1600942485	-2.2571942847	-1.6217413215	 0.108049
H	-2.0397357173	-3.5472369916	 0.3386586232	 0.148451
H	-0.3918443747	-3.5810518273	 1.0177651171	 0.14515
94.0061	147.2623	163.5497	307.5077	436.9999	469.0362	523.313	606.8347	665.6231	713.3688	725.0205	780.2287	852.8309	854.966	918.8546	971.7822	1021.709	1038.8496	1059.6522	1066.449	1114.5029	1158.5616	1176.6937	1221.1211	1239.3084	1270.3636	1293.2242	1373.0276	1393.2263	1452.6107	1516.7044	1786.9865	1924.8885	3028.6046	3080.3271	3085.4748	3124.176	3143.0073	3512.6734
N=C1OCC2CC(=O)N12	[NH][C]1OC[C@H]2CC(=O)N12	
InChI=1S/C5H6N2O2/c6-5-7-3(2-9-5)1-4(7)8/h3,6H,1-2H2	InChI=1S/C5H6N2O2/c6-5-7-3(2-9-5)1-4(7)8/h3,6H,1-2H2/t3-/m1/s1
