23
gdb 89519	2.29093	1.65037	1.24872	1.3618	84.36	-0.2393	0.0746	0.3139	1140.906	0.206597	-388.30228	-388.293524	-388.29258	-388.335181	34.975	
C	 0.3722559636	 1.6581427105	-0.0768492966	-0.412109
C	 0.1250420323	 0.1565313484	-0.0195763275	 0.04387
C	 0.9946210587	-0.7631716478	-0.9259053288	-0.309631
C	 1.2871869834	-1.6942212257	 0.2939888762	 0.448335
C	 0.7430422408	-3.1045352824	 0.2088606103	-0.462457
O	 2.6541284476	-1.7593913706	 0.6807280306	-0.293635
C	 2.9912518837	-0.540428336	 1.3269385234	-0.094981
C	 1.7293198688	-0.114849917	 2.0994624562	-0.238164
C	 0.5803077147	-0.6589619575	 1.2365332711	-0.100824
H	 1.431583973	 1.9030303903	 0.0574295599	 0.113885
H	 0.0658607989	 2.0624250781	-1.0480375032	 0.114634
H	-0.1931163332	 2.1899296748	 0.6967662622	 0.113434
H	-0.938621399	-0.0310913086	-0.1995476168	 0.069722
H	 0.4838363382	-1.2343022885	-1.7698120164	 0.093344
H	 1.9013028371	-0.2798381906	-1.3012571362	 0.100891
H	 1.2920148367	-3.6814585422	-0.5427052987	 0.123475
H	 0.8440319194	-3.6138171777	 1.1722112478	 0.117546
H	-0.3143446295	-3.0954721392	-0.0731218073	 0.111027
H	 3.8572109167	-0.729565898	 1.9674130136	 0.105315
H	 3.2788480033	 0.2278602963	 0.5911305224	 0.088267
H	 1.7119704213	-0.6032061853	 3.0785118752	 0.104453
H	 1.684864554	 0.964502357	 2.2671736012	 0.100626
H	-0.2402599103	-1.0382780083	 1.8494062817	 0.062975
79.9832	211.0962	223.3711	229.5878	249.5284	270.4037	300.3005	384.3056	433.0371	477.5082	576.9023	610.0061	670.5379	742.1279	809.5511	856.8005	888.9687	896.9785	916.0772	920.6029	939.876	973.6333	999.0494	1056.2894	1068.7747	1100.7448	1122.0297	1146.5045	1165.8733	1190.7235	1195.3634	1227.951	1244.9483	1256.0318	1276.1932	1320.1553	1323.7533	1336.6801	1365.1634	1389.3835	1409.9833	1410.7022	1478.2259	1483.4213	1484.017	1493.5638	1495.143	1503.7165	1525.9317	2971.8964	3025.3519	3034.3	3039.1618	3052.709	3053.4507	3079.7267	3085.9398	3089.6028	3093.7561	3103.5454	3105.5358	3106.8824	3112.3829
CC1CC2(C)OCCC12	C[C@H]1C[C@@]2(C)OCC[C@@H]12	
InChI=1S/C8H14O/c1-6-5-8(2)7(6)3-4-9-8/h6-7H,3-5H2,1-2H3	InChI=1S/C8H14O/c1-6-5-8(2)7(6)3-4-9-8/h6-7H,3-5H2,1-2H3/t6-,7-,8+/m0/s1
