15
gdb 43301	3.12526	1.8775	1.42971	4.3417	71.47	-0.2378	-0.0576	0.1802	888.7619	0.114505	-420.609102	-420.602814	-420.601869	-420.639673	25.565	
O	 0.0522514412	-0.0234266832	 0.2275589871	-0.340909
C	-0.0340068378	 1.1752170906	 0.0513052115	 0.413688
C	-1.306406533	 1.9146039653	 0.012087147	-0.210952
C	-1.3533472089	 3.2013757876	-0.3765564468	-0.006314
C	-0.1587056114	 3.9527694803	-0.7882285602	-0.133154
C	 1.0904882557	 4.0894596021	 0.1124991466	 0.096648
O	 1.2037345133	 3.0235645972	 1.0279109503	-0.276558
C	 1.2032953716	 2.0620944887	-0.0811138281	-0.033578
C	 1.1281787931	 3.2148230539	-1.1001720306	-0.182142
H	-2.2003402962	 1.3597431515	 0.2754001525	 0.112879
H	-2.3047052403	 3.7265273604	-0.4011507038	 0.111923
H	-0.3242555897	 4.8386936472	-1.3933630068	 0.104337
H	 1.5264895123	 5.0455038743	 0.3764040732	 0.121639
H	 2.1208982551	 1.4721262653	-0.0857994536	 0.107714
H	 1.6607829151	 3.2891111489	-2.0383029384	 0.114781
123.9128	280.588	336.0984	422.7597	454.5336	499.0871	580.7479	686.4757	720.9518	755.0729	800.325	825.2336	848.3152	891.2537	928.828	934.9635	983.7425	1005.3057	1005.732	1041.5919	1065.3481	1090.3811	1135.5035	1165.2231	1235.3475	1248.5712	1268.2695	1285.8476	1338.4201	1396.7924	1434.9615	1657.8102	1779.2896	3111.1462	3156.6843	3169.5546	3189.5482	3198.5452	3209.08
O=C1C=CC2C3OC1C23	O=C1C=C[C@H]2[C@H]3O[C@@H]1[C@@H]23	
InChI=1S/C7H6O2/c8-4-2-1-3-5-6(3)9-7(4)5/h1-3,5-7H	InChI=1S/C7H6O2/c8-4-2-1-3-5-6(3)9-7(4)5/h1-3,5-7H/t3-,5+,6-,7+/m1/s1
