14
gdb 10892	3.22444	1.97207	1.53329	3.3734	58.15	-0.2353	-0.039	0.1963	838.8629	0.105079	-419.647004	-419.639506	-419.638562	-419.678729	27.543	
C	-0.0900778949	 1.504760066	 0.0724099242	-0.511919
C	 0.1652782606	 0.0380254283	-0.030224361	 0.381005
O	-0.747120951	-0.8772225233	 0.591804125	-0.290299
C	 0.6532110392	-0.9409742676	 0.9801714605	-0.185076
C	 1.2817117206	-1.7861411114	-0.1190285694	 0.392191
O	 1.990576628	-2.7456241099	-0.1470904189	-0.294048
C	 0.7411551009	-0.7780588982	-1.2105886671	-0.03681
O	-0.1480795743	-1.2037000352	-2.1966466502	-0.423234
H	 0.8205440453	 2.0697832561	-0.148838684	 0.136666
H	-0.8575735442	 1.8072120612	-0.6475998331	 0.1472
H	-0.4360005292	 1.7669370092	 1.075354017	 0.142523
H	 0.8853723829	-0.8177383455	 2.0310115595	 0.128775
H	 1.5869812821	-0.2924902642	-1.7100528838	 0.117573
H	-0.896567616	-1.6056437756	-1.7374101388	 0.295453
94.6941	192.5518	206.4632	223.7807	269.0218	358.2197	466.0682	512.5064	574.5925	594.1295	689.6317	728.9829	825.8441	835.5551	896.9816	987.4965	1022.2938	1038.5476	1093.3946	1135.0464	1170.1591	1214.1196	1238.2979	1286.1936	1392.3944	1422.9761	1452.72	1479.8157	1492.4794	1904.4711	3042.0317	3065.8598	3107.9951	3127.6146	3201.2558	3780.0259
CC12OC1C(=O)C2O	C[C@]12O[C@H]1C(=O)[C@H]2O	
InChI=1S/C5H6O3/c1-5-3(7)2(6)4(5)8-5/h3-4,7H,1H3	InChI=1S/C5H6O3/c1-5-3(7)2(6)4(5)8-5/h3-4,7H,1H3/t3-,4+,5-/m1/s1
