22
gdb 105521	1.85362	1.56348	1.18635	2.91	77.69	-0.2263	0.0636	0.2899	1191.7759	0.193274	-441.433072	-441.423203	-441.422258	-441.467764	36.657	
C	 0.5933738746	-0.3141676583	 1.3806573309	-0.337263
N	-0.0213371603	 0.0245867499	 0.0976542666	-0.135717
C	 0.972872601	-0.0084768627	-0.9693241043	-0.336103
C	-1.2690093961	-0.7073582599	-0.1362303088	 0.254173
C	-2.3776247981	-0.0513154673	 0.7019079386	-0.086954
O	-2.4785918438	 1.3206525587	 0.3946119117	-0.42628
C	-1.779671057	-0.9208765735	-1.5844955377	-0.136259
O	-2.0945495857	-2.2984785784	-1.2908618033	-0.275015
C	-1.3294604065	-2.2585175323	-0.0709206632	-0.12715
H	 1.411141268	 0.3825396314	 1.5870302001	 0.124437
H	-0.1313214117	-0.22669199	 2.1923786542	 0.129702
H	 1.0089141151	-1.3370587813	 1.4012522127	 0.104364
H	 1.351816912	-1.0207321512	-1.1959911865	 0.104244
H	 0.5738624526	 0.4251491039	-1.8878363919	 0.131173
H	 1.8281908651	 0.6013994235	-0.6629683775	 0.122383
H	-3.3356441472	-0.524100891	 0.4627833913	 0.117074
H	-2.1958467151	-0.2155333841	 1.776907939	 0.08122
H	-1.559049957	 1.6198292646	 0.3326232756	 0.275948
H	-2.6587017199	-0.3345001431	-1.868901354	 0.121583
H	-1.0263814066	-0.8506298666	-2.3760766789	 0.096104
H	-0.3551602727	-2.7555261011	-0.1818142243	 0.094876
H	-1.8672457006	-2.7063000412	 0.7733052298	 0.103458
64.1673	114.5284	125.8531	199.1841	212.8602	233.9688	244.1609	329.8972	380.8857	397.325	423.3194	461.7942	531.4212	563.6618	642.8658	818.6998	880.5019	903.4833	957.9023	1001.8157	1006.0605	1028.355	1066.0291	1080.596	1099.9856	1118.2946	1155.3427	1160.6675	1163.7679	1186.6954	1209.5078	1250.7605	1292.0377	1301.1661	1314.7873	1355.7036	1380.2313	1441.8559	1444.5962	1479.112	1487.0604	1497.2606	1500.4474	1509.0111	1515.7446	1526.3898	1536.1076	2949.6343	2956.6261	2964.2776	2997.0919	3037.2916	3053.9013	3074.5594	3075.3036	3077.8213	3087.6475	3125.2993	3130.3991	3711.8785
CN(C)C1(CO)COC1	CN(C)C1(CO)COC1	
InChI=1S/C6H13NO2/c1-7(2)6(3-8)4-9-5-6/h8H,3-5H2,1-2H3	InChI=1S/C6H13NO2/c1-7(2)6(3-8)4-9-5-6/h8H,3-5H2,1-2H3
