18
gdb 91894	2.6612	1.51501	1.06864	3.0901	72.26	-0.2432	0.0036	0.2468	1113.2022	0.148771	-439.094016	-439.086034	-439.085089	-439.126698	30.802	
O	-0.0879256777	 1.4718807529	-0.0358769487	-0.434157
C	-0.0440711101	 0.0597014135	 0.0881444802	 0.136793
C	-1.4285323622	-0.4862615546	-0.281543659	-0.249098
C	-1.3893823429	-1.9830795246	-0.0600845308	-0.023566
C	-1.5918212985	-2.9811344498	-1.1597600763	-0.252951
N	-0.2558027896	-2.6601267482	-0.6824041118	-0.083456
C	 0.6325833463	-1.9082927286	-1.460601946	 0.355781
O	 1.0650386354	-2.29488764	-2.5201586141	-0.334516
C	 1.0319104431	-0.5695623598	-0.8335004881	-0.345378
H	 0.7696209435	 1.8258617685	 0.221114896	 0.285081
H	 0.1618122643	-0.2212686891	 1.1333432392	 0.072947
H	-2.1975311971	-0.008480065	 0.3304484369	 0.117453
H	-1.6385062881	-0.2440825612	-1.3303460863	 0.117298
H	-1.5918362318	-2.3119089397	 0.9582000115	 0.102939
H	-1.9527852278	-3.9777657204	-0.9230727333	 0.129209
H	-1.8623679641	-2.6143940151	-2.1465085116	 0.13634
H	 1.2222215228	 0.1108194105	-1.6682709044	 0.140575
H	 1.9815380446	-0.7021781993	-0.3019508733	 0.128704
69.8731	133.529	235.7353	281.6508	321.0583	368.2381	417.1694	421.0459	501.0967	509.0403	588.8311	672.5309	712.1797	860.0855	881.6598	906.2645	925.9797	966.3769	1024.219	1059.5457	1080.2149	1093.5559	1122.4285	1133.0454	1164.2472	1179.8919	1198.2511	1234.5825	1258.8963	1297.459	1315.7656	1354.6999	1380.1033	1417.7784	1436.8066	1460.7364	1486.0783	1511.0412	1804.5554	2967.9541	3041.7336	3046.485	3102.0381	3104.3978	3113.3753	3121.0064	3203.2149	3816.4273
OC1CC2CN2C(=O)C1	O[C@H]1C[C@H]2CN2C(=O)C1	
InChI=1S/C6H9NO2/c8-5-1-4-3-7(4)6(9)2-5/h4-5,8H,1-3H2	InChI=1S/C6H9NO2/c8-5-1-4-3-7(4)6(9)2-5/h4-5,8H,1-3H2/t4-,5-,7?/m0/s1
