15
gdb 84184	3.55148	1.12064	0.89085	2.3058	75.44	-0.2451	-0.0603	0.1848	1241.0567	0.112862	-416.871496	-416.863174	-416.86223	-416.904681	30.273	
C	-0.1089251635	 1.5848726981	 0.0443244283	-0.393326
C	 0.0272227933	 0.0559362228	-0.0369286033	-0.162591
C	 0.8149653472	-0.4754231522	-1.2034532637	-0.222521
C	 1.8196883054	-1.2358587697	-0.7355614592	 0.270507
N	 1.806238936	-1.2903489425	 0.6700453043	-0.405553
C	 0.7811089491	-0.5116467908	 1.1854047363	 0.417669
O	 0.5524632069	-0.3213465373	 2.3543064451	-0.363668
C	 2.8095221542	-1.9385836913	-1.4730475636	 0.226547
N	 3.6250228848	-2.5159266774	-2.0575396823	-0.323949
H	 0.8703403451	 2.0686336766	-0.0107569308	 0.131884
H	-0.7265629218	 1.9643366864	-0.7739036184	 0.125284
H	-0.5742152325	 1.8553519842	 0.9953910116	 0.151587
H	-0.9796181808	-0.3852185507	-0.0251824457	 0.135158
H	 0.6068791868	-0.2870607406	-2.2453054259	 0.13612
H	 2.4989632701	-1.7483250056	 1.2400495771	 0.276851
95.1752	114.2052	149.1284	213.5233	233.0805	306.042	433.4705	459.6438	482.9724	530.8951	592.5384	645.2534	669.6322	723.0855	783.7839	817.9386	928.6036	983.6006	1028.3883	1083.8392	1098.8484	1189.6959	1193.9021	1274.8276	1285.0932	1321.5755	1403.3098	1416.4477	1492.4973	1499.4251	1657.5494	1846.354	2349.7488	3016.822	3047.6547	3122.3123	3132.6926	3258.7924	3658.1587
CC1C=C(NC1=O)C#N	C[C@H]1C=C(NC1=O)C#N	
InChI=1S/C6H6N2O/c1-4-2-5(3-7)8-6(4)9/h2,4H,1H3,(H,8,9)	InChI=1S/C6H6N2O/c1-4-2-5(3-7)8-6(4)9/h2,4H,1H3,(H,8,9)/t4-/m0/s1
