16
gdb 54492	2.5225	1.65049	1.10893	1.8752	71.22	-0.253	-0.0413	0.2117	1072.907	0.122063	-437.875589	-437.867061	-437.866117	-437.909662	30.701	
C	 0.3761673974	 1.0587033722	 0.862726555	-0.488731
C	-0.1190612381	 0.1994383514	-0.2759084651	 0.298988
O	 0.3559346442	 0.219924453	-1.3881848235	-0.298162
C	-1.267434154	-0.7158806747	 0.0363824377	 0.083294
C	-1.5033466384	-1.9520113094	-0.7938909309	-0.256438
N	-2.4845929476	-0.9056179676	-0.9200663889	-0.125284
C	-3.386175446	-1.0596288164	 0.2805203696	-0.288152
C	-2.201234329	-0.7366029651	 1.209083471	 0.348954
O	-2.1002977516	-0.4002867826	 2.3545902163	-0.3109
H	 1.258013094	 1.6157637377	 0.545647602	 0.142746
H	-0.4134104855	 1.7519996527	 1.1748116697	 0.156055
H	 0.6006313293	 0.4435039229	 1.7399102691	 0.157073
H	-0.8317148972	-2.0287368609	-1.6437842292	 0.164196
H	-1.7640245516	-2.8845841083	-0.2964483767	 0.128035
H	-4.146091865	-0.2749532797	 0.3067412399	 0.151396
H	-3.8599843508	-2.0419972051	 0.3592111339	 0.136929
37.1375	106.2425	135.6285	177.3383	219.7488	348.5297	361.8923	469.1383	534.2734	565.5166	586.8114	644.8002	677.26	757.053	841.6601	879.9547	956.6614	981.3634	1015.3051	1037.6921	1050.6019	1099.7793	1122.012	1181.9453	1198.7498	1238.	1275.3128	1335.9215	1390.5922	1449.8159	1458.8172	1467.1526	1489.931	1800.2105	1881.0009	3042.2558	3064.1245	3099.2831	3103.2788	3127.8887	3160.2796	3208.6197
CC(=O)C12CN1CC2=O	CC(=O)[C@]12CN1CC2=O	
InChI=1S/C6H7NO2/c1-4(8)6-3-7(6)2-5(6)9/h2-3H2,1H3	InChI=1S/C6H7NO2/c1-4(8)6-3-7(6)2-5(6)9/h2-3H2,1H3/t6-,7?/m0/s1
