17
gdb 46495	4.06955	1.21145	1.04662	5.2213	77.2	-0.2595	-0.0442	0.2152	1141.9221	0.13728	-421.858673	-421.851169	-421.850225	-421.890743	29.203	
O	-0.0253471543	 0.046810762	 0.4138347949	-0.339766
C	-0.0132402167	 1.1807767643	 0.0097889322	 0.413218
O	-1.1937860123	 1.8289281281	-0.2048479064	-0.238573
C	-1.1706062513	 3.037029034	-0.976777794	-0.159039
C	-0.0828330469	 3.9901792788	-0.5403525466	 0.294998
C	-0.1200950219	 5.4050361101	-1.0771335009	-0.312004
C	-0.4042041911	 5.1643591414	 0.3753220172	-0.297138
C	 1.2024746008	 3.2884750467	-0.3731107905	-0.110441
C	 1.2272131465	 1.9632443679	-0.1897546659	-0.228881
H	-1.024823165	 2.7725945772	-2.0334215176	 0.115443
H	-2.1653465497	 3.4759002014	-0.8675429689	 0.119318
H	 0.8239288412	 5.8630368085	-1.3523954977	 0.124571
H	-0.9479869812	 5.6682874307	-1.7276082343	 0.124635
H	-1.4274075051	 5.2486880623	 0.7252993101	 0.131319
H	 0.3440886048	 5.4541822443	 1.1042201746	 0.127561
H	 2.1217201325	 3.8696894518	-0.3902937827	 0.111967
H	 2.1455542097	 1.4038033906	-0.0617373935	 0.122812
78.538	190.4977	223.202	274.0973	337.4137	393.849	441.7968	478.2241	587.7942	684.2574	723.4025	778.8881	790.192	823.0154	843.4608	922.2091	948.7413	957.9437	979.121	1007.3133	1054.1933	1069.128	1085.9677	1089.9327	1133.483	1191.1551	1225.8292	1265.99	1320.6717	1349.9768	1418.3289	1429.2972	1468.0592	1496.1198	1505.868	1677.3811	1824.9331	3010.949	3098.5849	3130.0935	3137.7298	3154.7142	3211.2651	3216.8342	3228.6383
O=C1OCC2(CC2)C=C1	O=C1OCC2(CC2)C=C1	
InChI=1S/C7H8O2/c8-6-1-2-7(3-4-7)5-9-6/h1-2H,3-5H2	InChI=1S/C7H8O2/c8-6-1-2-7(3-4-7)5-9-6/h1-2H,3-5H2
