20
gdb 51865	3.80376	0.94363	0.83614	3.7653	83.41	-0.2388	0.0127	0.2515	1411.6668	0.173041	-403.196515	-403.187896	-403.186952	-403.230835	32.318	
O	-0.0879062263	 0.2333382321	-0.916493232	-0.325729
C	-0.0416989537	 1.2501619334	-0.2560161267	 0.152581
N	 1.0650152899	 1.7359242651	 0.3657650845	-0.289263
C	 2.3751594812	 1.09188494	 0.2978106896	 0.008154
C	 3.3373610503	 1.8583511516	-0.6263551155	-0.208943
C	 4.7683936244	 1.3302691432	-0.4803389727	-0.211985
C	 5.2794179033	 1.5145903568	 0.9565255696	-0.240979
C	 4.2387837685	 1.1324926072	 1.976838461	-0.060041
C	 2.9544402363	 0.9309081819	 1.683713036	-0.068913
H	-0.9244085896	 1.8987725353	-0.0855698212	 0.072394
H	 0.9868704289	 2.6050100272	 0.8715499342	 0.243538
H	 2.1684187563	 0.1057956992	-0.1349659138	 0.131172
H	 2.9883646448	 1.7794644704	-1.6605226113	 0.11035
H	 3.3112449521	 2.9235807421	-0.3588753503	 0.087941
H	 4.7851868231	 0.2630252978	-0.7353168371	 0.107952
H	 5.4346162701	 1.8328534643	-1.1889700343	 0.096252
H	 6.1882061876	 0.9212680889	 1.1173669777	 0.106582
H	 5.5829330971	 2.5595837487	 1.1215516792	 0.108617
H	 4.576290635	 1.0098231648	 3.0036276203	 0.089469
H	 2.2526000608	 0.63150404	 2.4584696926	 0.09085
31.4269	86.3722	178.9559	200.7881	266.4051	312.0724	398.5116	436.7377	478.6612	539.4017	547.8243	670.5526	741.4469	755.6645	841.5472	871.1987	921.0875	950.1566	967.3192	1011.4047	1030.1722	1059.778	1069.6367	1082.6	1104.4605	1154.4069	1204.4334	1218.1446	1249.5246	1274.6191	1330.2148	1341.2969	1370.3383	1374.0254	1380.7857	1419.3323	1429.9451	1473.6667	1488.2997	1496.0642	1521.1245	1721.8957	1801.6407	2930.2397	2995.8184	3015.0499	3026.9448	3043.8595	3049.2474	3076.3463	3083.2576	3142.6657	3166.4789	3622.289
O=CNC1CCCC=C1	O=CN[C@H]1CCCC=C1	
InChI=1S/C7H11NO/c9-6-8-7-4-2-1-3-5-7/h2,4,6-7H,1,3,5H2,(H,8,9)	InChI=1S/C7H11NO/c9-6-8-7-4-2-1-3-5-7/h2,4,6-7H,1,3,5H2,(H,8,9)/t7-/m1/s1
