23
gdb 122378	4.01833	0.78388	0.76077	0.9424	86.44	-0.237	0.0867	0.3237	1654.1206	0.205417	-388.256166	-388.246566	-388.245622	-388.2917	35.409	
C	-0.4388865076	 1.1652643515	 0.0668195254	-0.381962
C	 0.3618943404	-0.1323838316	-0.0664028283	-0.184794
C	 0.7026875503	-0.746002314	 1.2841185762	-0.03598
O	 1.4494850208	-1.9325553359	 1.0692905364	-0.254423
C	 1.7905028044	-2.588273151	 2.249879097	 0.141342
C	 0.8440984761	-3.5039030359	 2.974766184	-0.110811
C	-0.065882443	-4.2328129114	 1.9769972223	-0.221948
C	 1.1923413519	-4.7737237813	 1.2282381752	-0.215752
C	 2.0957068481	-4.0438615487	 2.2307735393	-0.116127
H	 0.1186308003	 1.9228522863	 0.6287756838	 0.115862
H	-0.6715796562	 1.5864167726	-0.9154438044	 0.116758
H	-1.3873767133	 0.9978210302	 0.5891564756	 0.115838
H	-0.2015386582	-0.8685429448	-0.651382462	 0.105668
H	 1.2951244737	 0.0502699324	-0.6114063754	 0.106788
H	 1.2900859978	-0.0349514719	 1.8902928048	 0.082458
H	-0.2143888762	-0.9713684347	 1.8518863071	 0.090037
H	 2.4303202512	-1.9988782025	 2.9109429784	 0.078847
H	 0.6628486153	-3.4130143172	 4.0399298598	 0.079869
H	-0.644631922	-5.0323819727	 2.4438214112	 0.099844
H	-0.7445250588	-3.5992846991	 1.3986926437	 0.098623
H	 1.279511226	-5.8597590348	 1.299257161	 0.098285
H	 1.3085440278	-4.4720731692	 0.1846495478	 0.108638
H	 3.0243983114	-4.4325492864	 2.632861211	 0.082939
48.7057	61.6386	110.215	131.3764	215.1441	227.614	249.9571	335.616	375.7157	508.2695	612.7249	735.0426	757.821	765.2082	792.7192	813.1883	899.6426	909.8728	928.891	959.8754	967.2854	995.3878	1018.8095	1027.8239	1049.3603	1078.6777	1090.1941	1128.7621	1145.3491	1161.4882	1192.1435	1221.6174	1229.9211	1249.1391	1266.0902	1266.7779	1302.1933	1312.6699	1330.4791	1347.6862	1406.0429	1413.3945	1459.9483	1475.6644	1492.028	1500.3006	1501.1653	1507.2049	1525.9581	2955.1065	2989.0254	3031.3137	3038.1612	3056.7414	3068.0848	3070.8499	3077.12	3099.3384	3104.0539	3107.7427	3123.9368	3166.0193	3177.5519
CCCOC1C2CCC12	CCCO[C@H]1[C@H]2CC[C@@H]12	
InChI=1S/C8H14O/c1-2-5-9-8-6-3-4-7(6)8/h6-8H,2-5H2,1H3	InChI=1S/C8H14O/c1-2-5-9-8-6-3-4-7(6)8/h6-8H,2-5H2,1H3/t6-,7+,8-
