13
gdb 42350	7.76461	0.59404	0.55368	3.2509	91.56	-0.2682	-0.0845	0.1838	1850.642	0.084474	-382.209144	-382.199638	-382.198694	-382.244556	33.025	
O	-0.0885489101	-0.1658311749	 0.0023612807	-0.250771
C	-0.069514265	 1.0417660645	 0.0053701269	 0.142391
C	 1.2163603582	 1.8809149554	-0.0023317345	-0.457292
C	 2.4386840885	 1.0978799441	-0.0150221113	 0.316695
C	 3.4547565328	 0.4590688251	-0.0255462484	-0.437677
C	-1.2861856533	 1.8293507285	 0.016846611	 0.365192
C	-2.3100627661	 2.4799940675	 0.026455605	-0.169168
C	-3.4542828911	 3.2101621466	 0.0370759358	 0.28787
C	-4.472052439	 3.86004801	 0.0462062093	-0.538449
H	 1.1659890477	 2.5511640998	-0.8717111699	 0.165211
H	 1.1802112903	 2.5449755918	 0.8725123086	 0.165251
H	 4.3502950527	-0.111527385	-0.0348335835	 0.203019
H	-5.3680830257	 4.4309011166	 0.0545226504	 0.207728
38.2792	58.7893	113.2529	146.7358	214.7816	292.024	321.1928	346.7722	423.9189	487.6558	535.4195	549.8109	594.3715	601.0598	630.8798	640.1205	655.9169	790.7049	919.9888	940.6161	1013.6006	1183.7006	1211.9932	1335.7714	1433.0749	1773.4889	2173.5311	2251.4963	2333.6113	3016.9923	3044.3601	3499.4875	3506.515
O=C(CC#C)C#CC#C	O=C(CC#C)C#CC#C	
InChI=1S/C8H4O/c1-3-5-7-8(9)6-4-2/h1-2H,6H2	InChI=1S/C8H4O/c1-3-5-7-8(9)6-4-2/h1-2H,6H2
