14
gdb 50388	3.10735	1.21912	0.97808	5.304	69.44	-0.26	-0.0588	0.2012	1155.5277	0.101605	-432.891046	-432.883175	-432.882231	-432.924187	27.91	
O	 0.1509845712	-0.1334296029	-0.0261905658	-0.238271
C	 0.0713259774	 1.0631448479	 0.0734511635	 0.157524
C	 1.2714131413	 1.9950596615	-0.00256946	-0.105278
C	 1.4808321794	 2.8376278491	 1.3016133516	-0.199408
N	 2.606652776	 2.2082586517	 2.0009033288	-0.275266
C	 3.0925461711	 1.3517678273	 1.1858271557	 0.284736
N	 2.5275744483	 1.2517602057	-0.0858036234	-0.342329
C	 4.2259276986	 0.5255906961	 1.5041648697	 0.269384
N	 5.1271002247	-0.160620735	 1.7312196589	-0.309081
H	-0.9042287947	 1.5763894352	 0.2215569088	 0.098782
H	 1.1242591406	 2.6477142048	-0.8720439849	 0.12106
H	 1.739297652	 3.8749499668	 1.0634022796	 0.14045
H	 0.5954033026	 2.8630123366	 1.9456764864	 0.131002
H	 2.4389700516	 0.3131344851	-0.461704689	 0.266697
69.654	118.9244	164.5753	179.6997	260.5489	342.4397	424.3305	541.9164	556.2678	623.0906	680.6773	726.5381	773.4986	848.457	903.1514	944.3211	1007.1244	1034.91	1079.1098	1122.4093	1205.752	1250.863	1251.7883	1323.4917	1349.8883	1404.4003	1441.5377	1491.1678	1680.3809	1828.591	2369.4415	2897.6551	3031.4732	3046.2399	3078.6951	3546.5579
O=CC1CN=C(N1)C#N	O=C[C@H]1C[N][C](N1)C#N	
InChI=1S/C5H5N3O/c6-1-5-7-2-4(3-9)8-5/h3-4H,2H2,(H,7,8)	InChI=1S/C5H5N3O/c6-1-5-7-2-4(3-9)8-5/h3-4H,2H2,(H,7,8)/t4-/m1/s1
