17
gdb 92406	2.23646	1.65964	1.28276	3.0128	75.27	-0.246	0.0184	0.2644	1049.2655	0.134049	-421.745209	-421.736631	-421.735687	-421.778493	32.202	
O	-0.1880859401	 1.4537118271	 0.2117231705	-0.422375
C	-0.0519051339	 0.0704659655	 0.0545760806	 0.081722
C	 0.3775797303	-0.8059611748	 1.275467853	-0.288081
C	-0.8671628815	-1.7103593025	 1.0632850887	-0.148192
C	-2.0846439239	-1.2589788324	 1.8731149283	-0.081549
O	-2.3765254358	-0.199712326	 0.9302105043	-0.318029
C	-1.4005484456	-0.6950497788	-0.0168808009	 0.269469
C	-1.9532663199	-1.0261905158	-1.3067037685	 0.250061
C	-2.3837101297	-1.3140124399	-2.3923098184	-0.419011
H	 0.6671398536	 1.8646189317	 0.0537675705	 0.288508
H	 0.5430452435	-0.1876041593	-0.8325830071	 0.079498
H	 1.3444782592	-1.30102743	 1.1662176792	 0.102242
H	 0.3599668041	-0.2581968561	 2.2210993256	 0.111661
H	-0.7140113977	-2.7695141614	 0.8696053873	 0.089248
H	-2.9037629946	-1.9888632107	 1.912883126	 0.10522
H	-1.8914919871	-0.8736658883	 2.8810790648	 0.105104
H	-2.775949071	-1.5614526182	-3.3476840239	 0.194505
78.1297	125.5519	157.3646	169.6652	233.9315	354.4387	361.7381	459.7701	514.2389	529.333	601.5393	619.0961	652.7715	659.786	800.1177	828.5668	911.7321	958.9858	976.8928	1009.6352	1025.9108	1068.2805	1077.7408	1112.2782	1138.3034	1153.5495	1188.8923	1196.2509	1242.0137	1258.3125	1299.6445	1326.7142	1349.4284	1433.5486	1477.4576	1523.478	2231.0803	3004.5199	3010.7087	3061.6147	3065.3255	3121.2463	3142.0598	3501.1851	3827.81
OC1CC2COC12C#C	O[C@H]1C[C@H]2CO[C@@]12C#C	
InChI=1S/C7H8O2/c1-2-7-5(4-9-7)3-6(7)8/h1,5-6,8H,3-4H2	InChI=1S/C7H8O2/c1-2-7-5(4-9-7)3-6(7)8/h1,5-6,8H,3-4H2/t5-,6-,7+/m0/s1
