23
gdb 41849	2.20228	1.9239	1.53915	0.1868	88.81	-0.234	0.0316	0.2656	1024.0948	0.211054	-351.19703	-351.189728	-351.188784	-351.228183	31.326	
C	 0.0058633705	 1.5445374881	-0.1459996751	-0.184944
C	 1.4486072438	 2.0698809073	-0.0404389648	-0.198429
C	 2.2110515927	 1.5394837447	 1.1936093024	 0.010527
C	 1.660841531	 2.0657581423	 2.5403252208	-0.255298
C	 0.5166636557	 1.2534756252	 3.0930003949	-0.045104
C	 0.083711969	 0.1208035312	 2.5394954448	-0.062462
C	 0.6997552301	-0.4506883763	 1.2831568172	-0.031831
C	-0.0663439429	 0.0186135809	 0.0192784597	-0.195608
C	 2.1682405897	 0.0014351821	 1.1862759867	-0.221325
H	-0.6132268926	 2.017054491	 0.6243490651	 0.103767
H	-0.4242840479	 1.8366920129	-1.1108124718	 0.086249
H	 2.0063912078	 1.7621683219	-0.93590999	 0.086546
H	 1.4479952543	 3.1667260128	-0.0396125742	 0.084808
H	 3.2512081418	 1.8746555298	 1.1052534748	 0.059403
H	 2.4698893579	 2.0841250519	 3.2857079025	 0.102665
H	 1.349982229	 3.1146434527	 2.4337771766	 0.099383
H	 0.0472015516	 1.6303378676	 3.9995044143	 0.078345
H	-0.7577894191	-0.4123226066	 2.9763023103	 0.077692
H	 0.6527997445	-1.5454022919	 1.327735217	 0.060749
H	-1.1125191656	-0.3056278659	 0.0662255016	 0.087022
H	 0.37680773	-0.4734525077	-0.8572630964	 0.087223
H	 2.623557532	-0.384048238	 0.2656648103	 0.082577
H	 2.7412576868	-0.403322616	 2.0282505736	 0.088044
144.9032	231.1109	289.7327	342.6563	385.8866	407.664	459.3217	496.7823	601.7655	626.7709	718.9409	767.3062	794.9834	811.7792	849.1962	868.5871	893.2772	937.0974	950.0548	970.0089	1002.552	1013.7268	1039.2962	1047.4749	1074.4896	1088.4225	1123.5283	1137.2808	1158.3223	1177.0212	1218.9024	1256.4262	1279.0238	1303.8887	1322.9259	1345.7547	1351.0813	1356.003	1374.997	1385.8185	1391.6209	1396.4253	1422.882	1466.8819	1480.0613	1484.0264	1490.6782	1503.523	1717.7964	2993.0485	3004.5113	3010.4984	3016.0849	3019.2823	3028.6234	3033.5996	3036.9245	3049.3659	3056.3971	3064.1702	3077.525	3134.2205	3159.127
C1CC2CC=CC(C1)C2	C1C[C@H]2CC=C[C@@H](C1)C2	
InChI=1S/C9H14/c1-3-8-5-2-6-9(4-1)7-8/h1,3,8-9H,2,4-7H2	InChI=1S/C9H14/c1-3-8-5-2-6-9(4-1)7-8/h1,3,8-9H,2,4-7H2/t8-,9+/m0/s1
