18
gdb 82723	2.68768	1.90831	1.43155	4.0455	74.12	-0.2451	-0.0078	0.2373	951.036	0.14901	-401.941714	-401.934464	-401.93352	-401.973221	28.919	
C	-0.2248064497	 1.5773679191	 0.008440101	-0.409339
C	 0.0249175058	 0.0740893511	-0.0401207145	-0.086753
C	 0.88420033	-0.4899307811	-1.1797448058	-0.076219
C	 2.3883601073	-0.0699218658	-1.0203087693	-0.260315
C	 2.6218240182	-1.3742679977	-0.2464640353	-0.042526
C	 1.2893192216	-1.8933611917	-0.6460271716	-0.063184
N	 1.5566535826	-1.6224759988	 0.771643254	-0.145268
C	 0.8192553801	-0.4493179387	 1.168850564	 0.387652
O	 0.8597127703	 0.0228879609	 2.2692764849	-0.313891
H	 0.7085763715	 2.1418828239	-0.0782548776	 0.1237
H	-0.8888270311	 1.8936548047	-0.8011931348	 0.113587
H	-0.6840566714	 1.846870297	 0.963170104	 0.142211
H	-0.9398571699	-0.4559248167	-0.0421041379	 0.105
H	 0.458436235	-0.4068715379	-2.1783697912	 0.08138
H	 2.9129389465	-0.1014240333	-1.9781227896	 0.115871
H	 2.6124358826	 0.8770743685	-0.5200424161	 0.114103
H	 3.5636346018	-1.8844721782	-0.0853115032	 0.109777
H	 0.9519716587	-2.8775457053	-0.946114731	 0.104214
114.9317	185.188	229.435	243.5043	359.2631	465.0908	517.6585	559.5472	652.6476	668.8528	764.9839	790.8229	837.3228	848.2021	881.0607	899.3115	935.2376	970.7505	987.8968	1012.2168	1034.2413	1049.2135	1103.1818	1110.2781	1126.901	1139.829	1189.496	1222.4504	1244.3236	1257.9044	1277.166	1312.1448	1339.7006	1361.8462	1409.5379	1488.1993	1496.514	1498.6208	1865.1518	2997.3327	3043.4807	3056.1064	3110.16	3113.5555	3123.2979	3128.7791	3185.428	3199.1629
CC1C2CC3C2N3C1=O	C[C@H]1[C@H]2C[C@@H]3[C@H]2N3C1=O	
InChI=1S/C7H9NO/c1-3-4-2-5-6(4)8(5)7(3)9/h3-6H,2H2,1H3	InChI=1S/C7H9NO/c1-3-4-2-5-6(4)8(5)7(3)9/h3-6H,2H2,1H3/t3-,4+,5+,6-,8?/m0/s1
