19
gdb 90134	3.35789	1.48553	1.33038	1.5329	79.8	-0.2167	0.0192	0.2359	1021.1822	0.160672	-385.854996	-385.84753	-385.846585	-385.88644	30.693	
O	-0.0941887512	 1.4845421591	-0.0729108738	-0.432781
C	 0.0209117109	 0.0823212349	 0.0359584724	 0.046738
C	 0.2738595206	-0.5453768936	 1.4587677161	-0.332453
C	-1.063541912	-1.2981804495	 1.3408414613	 0.252503
C	-2.1901020605	-0.3309549929	 1.1515504869	-0.357974
C	-1.3192888073	-0.6530180149	-0.039491436	 0.249549
C	-1.7301640909	-1.7696928428	-0.9269218333	-0.189555
C	-1.7584388851	-2.928837669	-0.2522220332	-0.060613
C	-1.3020356096	-2.7959212365	 1.2002583109	-0.359016
H	 0.7806114876	 1.8676343857	 0.0496383875	 0.281961
H	 0.7314091006	-0.3163171596	-0.7002829534	 0.070851
H	 1.1461889851	-1.203894314	 1.477980208	 0.098299
H	 0.3475837698	 0.1710511454	 2.2842319857	 0.094454
H	-3.1910282513	-0.7456077548	 1.1118843443	 0.115344
H	-2.1213522747	 0.6565111362	 1.598101409	 0.121102
H	-1.999992692	-1.6559993256	-1.9715704308	 0.095002
H	-2.0993294103	-3.8745902476	-0.6632188974	 0.090846
H	-0.3851703248	-3.3730538099	 1.383627564	 0.105549
H	-2.0514810448	-3.1866013006	 1.9004203619	 0.110193
124.3024	219.8961	252.9353	301.509	334.6619	400.5467	461.7936	485.2859	574.6773	639.5997	701.6489	744.6256	775.1248	813.488	840.8522	867.5201	915.1187	939.1206	947.6535	957.1972	971.2537	978.4065	1075.4078	1081.5542	1109.9851	1131.2112	1147.3369	1169.718	1216.6162	1231.7785	1257.636	1263.2635	1309.0273	1332.0386	1366.8002	1372.9947	1425.7293	1467.4026	1475.1497	1490.4315	1637.8689	3007.9938	3011.2023	3036.5682	3040.7573	3101.3924	3125.2973	3169.3504	3194.9061	3218.7568	3811.3762
OC1CC23CC12C=CC3	O[C@H]1C[C@@]23C[C@@]12C=CC3	
InChI=1S/C8H10O/c9-6-4-7-2-1-3-8(6,7)5-7/h1,3,6,9H,2,4-5H2	InChI=1S/C8H10O/c9-6-4-7-2-1-3-8(6,7)5-7/h1,3,6,9H,2,4-5H2/t6-,7-,8-/m0/s1
