18
gdb 17569	3.40786	2.346	1.89967	1.8545	70.09	-0.2503	0.0865	0.3368	782.0011	0.155307	-347.762659	-347.756259	-347.755315	-347.792653	26.82	
C	-0.0397571259	 1.5239081626	 0.0416751303	-0.507191
C	 0.0349290329	 0.0146589522	 0.0474275348	 0.297751
C	 0.9223751588	-0.8106244617	-0.9628768174	-0.252604
C	 0.7163027701	-1.9380293951	 0.107679672	-0.080996
C	 0.768606366	-0.7962655236	 1.1572846808	-0.251783
C	-0.8023606747	-2.1650356015	-0.0595382194	 0.042406
O	-1.6327035348	-1.6471534343	 0.9943556506	-0.258256
C	-1.2847556498	-0.7873857726	-0.1039234275	 0.010404
H	 0.9579432449	 1.9723145389	 0.0883741549	 0.114641
H	-0.5288239244	 1.8947499753	-0.8669631735	 0.114506
H	-0.6131340636	 1.892313829	 0.8996877316	 0.124893
H	 0.524047374	-0.9826262272	-1.9683521089	 0.088503
H	 1.952974529	-0.4487613707	-1.0214840632	 0.094648
H	 1.3630155827	-2.8126657219	 0.1652296127	 0.064216
H	 1.7876088451	-0.4325954775	 1.3053077341	 0.090601
H	 0.2609137235	-0.944611928	 2.108800375	 0.115688
H	-1.209765968	-2.9940789588	-0.6281232116	 0.09837
H	-2.1086747558	-0.4233615451	-0.7100406753	 0.094203
213.7678	245.9686	288.135	400.6546	419.4128	518.0891	585.5581	600.6835	687.6287	791.1178	816.0545	847.0297	861.6474	886.9751	898.3933	925.7946	959.255	984.7617	996.7717	1036.6422	1055.9255	1081.7835	1095.9081	1119.8939	1192.808	1210.0684	1226.2597	1242.0885	1251.1962	1262.3056	1292.0786	1332.4787	1404.8877	1414.8795	1476.2204	1492.6517	1495.1084	1514.937	3023.9271	3041.4584	3080.7713	3086.5055	3096.6039	3104.0929	3122.344	3154.2794	3159.0362	3176.9245
CC12CC(C1)C1OC21	C[C@@]12C[C@@H](C1)[C@H]1O[C@@H]21	
InChI=1S/C7H10O/c1-7-2-4(3-7)5-6(7)8-5/h4-6H,2-3H2,1H3	InChI=1S/C7H10O/c1-7-2-4(3-7)5-6(7)8-5/h4-6H,2-3H2,1H3/t4-,5-,6-,7+/m1/s1
