17
gdb 12331	3.17836	2.1718	1.34847	2.8777	71.75	-0.2115	-0.0016	0.2099	909.0287	0.1438	-363.915232	-363.907628	-363.906684	-363.947256	28.12	
C	 0.0654667915	 1.460731476	-0.013375523	-0.354522
N	 0.0019351478	 0.0059572712	 0.0184508732	-0.107793
C	-0.0055756721	-0.6977186521	-1.1968201989	 0.040511
C	-0.3294857139	-1.9871788562	-1.2999618545	-0.138523
C	-0.7211247231	-2.7584144789	-0.0691725142	-0.272559
C	-0.013424773	-2.1667774565	 1.15765178	-0.314362
C	-0.074617503	-0.645443842	 1.2387244361	 0.404493
O	-0.1286029314	-0.0456993172	 2.2953392142	-0.373051
H	 0.9208869146	 1.7904446101	-0.6128577181	 0.126191
H	-0.8482451121	 1.8880310203	-0.4417716015	 0.130212
H	 0.1776403248	 1.8124479542	 1.0108296521	 0.170769
H	 0.2659452142	-0.0930776044	-2.0552859108	 0.107559
H	-0.3240796006	-2.4647058164	-2.2719068998	 0.095683
H	-1.8125084236	-2.7211775977	 0.0684025188	 0.117417
H	-0.4661566645	-3.8183845878	-0.1685174662	 0.110806
H	-0.4085127956	-2.5547063752	 2.0980186085	 0.128461
H	 1.05294088	-2.4290467873	 1.120019994	 0.128706
94.2685	124.9687	151.2632	228.2923	349.961	421.3151	438.3916	511.0388	550.6695	633.5391	711.0562	727.8959	781.721	892.1191	913.2089	948.6855	1008.3712	1043.4393	1059.6155	1144.1376	1156.1645	1184.895	1191.6992	1248.9105	1282.9861	1341.9078	1354.6801	1397.2976	1417.8194	1456.8426	1465.6091	1485.4375	1499.6625	1514.1032	1725.2095	1778.4836	2993.0134	3025.3864	3028.3893	3068.6688	3082.3137	3120.3525	3170.0215	3185.6436	3211.6083
CN1C=CCCC1=O	CN1C=CCCC1=O	
InChI=1S/C6H9NO/c1-7-5-3-2-4-6(7)8/h3,5H,2,4H2,1H3	InChI=1S/C6H9NO/c1-7-5-3-2-4-6(7)8/h3,5H,2,4H2,1H3
