23
gdb 96250	2.23075	1.47015	1.01823	1.3116	86.9	-0.2361	0.0096	0.2457	1264.4659	0.207599	-388.28871	-388.279874	-388.27893	-388.321721	35.053	
C	 0.139919287	 1.5852980573	 0.0263765682	-0.40573
C	 0.029304132	 0.0525468914	 0.0211336582	 0.044322
C	 0.6563003829	-0.4967836001	-1.2782875676	-0.188149
C	 0.8073210755	-2.0317294331	-1.3765483795	-0.269892
C	-0.4600749936	-2.7769293883	-1.0581897015	-0.034568
C	-0.8300295544	-3.1372621905	 0.1712486736	-0.06216
C	-0.0192711423	-2.8705081541	 1.4218239477	-0.123316
O	-0.1578163844	-1.5529610297	 1.9428226137	-0.243195
C	 0.6168642948	-0.5334120838	 1.3321900331	-0.087491
H	 1.1853222109	 1.9069039693	 0.1123657818	 0.111967
H	-0.2594091675	 2.0151597822	-0.8981935162	 0.110943
H	-0.4120464965	 2.020242985	 0.865679077	 0.114559
H	-1.0337312969	-0.2109038059	 0.0348878635	 0.090373
H	 0.0521295118	-0.1391355774	-2.122144769	 0.095463
H	 1.6521554245	-0.0521722422	-1.4116592052	 0.091636
H	 1.1479048373	-2.2819747475	-2.3874904723	 0.097098
H	 1.6053776082	-2.352474037	-0.6979014206	 0.103668
H	-1.1332658845	-2.9766336075	-1.8901571023	 0.086665
H	-1.790601085	-3.6257638935	 0.3150737454	 0.088182
H	-0.3584731165	-3.5298401146	 2.226512002	 0.104096
H	 1.0455910735	-3.0902415612	 1.248788978	 0.09386
H	 1.6534790249	-0.877436054	 1.1794805686	 0.0816
H	 0.6555426084	 0.2600392951	 2.0862939532	 0.10007
106.496	158.5222	226.898	239.7659	252.3598	286.8082	331.3041	356.6395	415.3814	463.7542	493.729	548.4915	623.9442	747.8238	800.6944	842.713	885.9113	903.3244	932.8028	973.6803	983.1719	990.5787	1005.2975	1038.6002	1057.1671	1101.778	1124.4965	1155.2756	1164.5755	1207.9046	1252.4435	1275.2658	1281.8681	1318.6302	1328.5737	1348.7333	1360.4998	1380.5298	1398.4579	1407.2205	1421.5175	1429.7547	1481.1075	1485.9309	1491.2164	1501.1362	1503.0222	1511.487	1717.2592	2966.2558	2984.2127	3007.6568	3023.2441	3032.3218	3041.7132	3055.5138	3062.0032	3072.0044	3076.1917	3089.7416	3101.6197	3134.9503	3163.6143
CC1CCC=CCOC1	C[C@H]1CCC=CCOC1	
InChI=1S/C8H14O/c1-8-5-3-2-4-6-9-7-8/h2,4,8H,3,5-7H2,1H3/b4-2-	InChI=1S/C8H14O/c1-8-5-3-2-4-6-9-7-8/h2,4,8H,3,5-7H2,1H3/b4-2-/t8-/m0/s1
