15
gdb 128251	3.14477	1.37184	0.971	6.5294	74.44	-0.2349	-0.0578	0.1771	1157.6928	0.113934	-446.282816	-446.27444	-446.273496	-446.316369	29.953	
C	-0.0814686513	 1.4606020896	 0.0383294706	-0.320187
N	-0.0181751815	 0.0067515954	-0.047572626	-0.375502
C	 0.6522922021	-0.5890171073	-1.0702948037	 0.525278
N	 1.0975830848	 0.0838680032	-2.0776214159	-0.342367
C	 1.7181040032	-0.6457164508	-3.0763791227	 0.391392
N	 2.4630094924	-0.1010858766	-3.9522988112	-0.495758
N	 1.4715701399	-2.074982072	-3.1500475982	-0.199189
N	 1.0456091216	-2.6896148116	-2.156893206	-0.048403
N	 0.8118032121	-1.9621697017	-0.991592509	-0.326014
H	 0.9046152783	 1.9088038616	 0.2060974523	 0.144055
H	-0.4797633004	 1.8616308488	-0.894262178	 0.170824
H	-0.7492647715	 1.7270352729	 0.8594115369	 0.128873
H	-0.0750739924	-0.5029356139	 0.8194247703	 0.251086
H	 2.7721080046	-0.8231144997	-4.6053890016	 0.226966
H	 0.2739565982	-2.5074125377	-0.3341793477	 0.268945
77.1567	91.7029	135.2832	199.8804	217.7031	340.0157	418.8414	444.8449	501.066	548.2248	586.3394	651.4646	713.1061	741.9562	790.2492	891.5191	925.0069	973.7976	1028.2011	1082.4738	1144.6718	1152.607	1212.8553	1305.5651	1340.9905	1416.166	1454.1899	1477.3609	1508.5953	1553.0706	1633.0841	1687.4854	1726.9579	3038.5974	3117.4259	3155.5247	3476.3	3614.2234	3636.7795
CNC1=NC(=N)N=NN1	CNC1=N[C@H]([NH])N=NN1	
InChI=1S/C3H6N6/c1-5-3-6-2(4)7-9-8-3/h1H3,(H3,4,5,6,7,8)	InChI=1S/C3H7N6/c1-5-3-6-2(4)7-9-8-3/h2,4H,1H3,(H2,5,6,7,8)/t2-/m0/s1
