23
gdb 53690	5.09317	0.46739	0.44247	1.2848	92.25	-0.2389	0.0634	0.3024	2523.6928	0.202331	-388.277492	-388.265582	-388.264638	-388.317214	41.027	
C	 0.0326879842	 1.5270054177	 0.0345732011	-0.496899
C	 0.0309754187	 0.071480154	-0.0124215956	 0.107136
C	 0.0384719518	-1.1320941077	-0.0515773115	 0.026631
C	 0.0129324807	-2.5903297925	-0.0986971065	-0.359965
C	-1.4100492751	-3.1770582385	-0.0120460558	-0.164847
C	-1.4218493384	-4.7061925916	-0.0784251846	-0.191325
C	-2.8227233743	-5.3109856168	 0.0878269263	 0.130958
C	-2.820541305	-6.8330148754	-0.0590118962	-0.401703
O	-3.4217093881	-4.9138760203	 1.3207080426	-0.426989
H	 0.7439965279	 1.9022736263	 0.7789730969	 0.144209
H	 0.3107461094	 1.9585495592	-0.9336153021	 0.143967
H	-0.9563101427	 1.9188108192	 0.2977026472	 0.145552
H	 0.4935190682	-2.9366263153	-1.0243182462	 0.119864
H	 0.6216906937	-2.9959304677	 0.7214297088	 0.119404
H	-1.8859830793	-2.8512883185	 0.9173648458	 0.119439
H	-2.0148428742	-2.7658534955	-0.8292352442	 0.103635
H	-0.9995163198	-5.0449692392	-1.0340707894	 0.093368
H	-0.7678844479	-5.1188260827	 0.7058397183	 0.080752
H	-3.4819475187	-4.8814416819	-0.6776605783	 0.0885
H	-2.1606161472	-7.294520916	 0.6868854925	 0.104687
H	-3.8289590261	-7.2298178429	 0.0858776373	 0.123608
H	-2.4649049819	-7.1366812957	-1.0489646423	 0.115347
H	-2.9088924959	-5.3120762981	 2.0332949157	 0.274673
15.3393	43.0578	62.001	83.7961	134.299	164.4379	222.2376	244.7174	264.9445	289.1881	302.7177	379.0228	386.0206	461.1712	475.4748	536.2702	742.3907	763.335	831.2148	859.5136	939.7654	987.8379	1014.6464	1050.639	1053.1285	1053.8953	1086.1042	1111.7816	1149.5046	1167.0856	1173.4239	1254.3337	1280.8721	1311.5047	1333.0284	1343.0784	1375.5575	1394.6825	1405.6171	1415.5352	1421.39	1474.931	1476.8328	1479.6795	1479.8866	1493.3365	1496.2414	1505.5666	2373.8459	2988.1363	3003.5715	3021.3358	3024.1034	3027.9466	3029.4397	3038.2859	3045.9627	3083.0793	3083.6668	3092.6077	3098.9634	3118.6243	3792.4372
CC#CCCCC(C)O	CC#CCCC[C@@H](C)O	
InChI=1S/C8H14O/c1-3-4-5-6-7-8(2)9/h8-9H,5-7H2,1-2H3	InChI=1S/C8H14O/c1-3-4-5-6-7-8(2)9/h8-9H,5-7H2,1-2H3/t8-/m1/s1
