20
gdb 46532	3.78054	1.17265	1.0705	3.2265	80.43	-0.2505	0.0319	0.2825	1199.1783	0.172756	-403.172096	-403.164168	-403.163224	-403.204692	31.287	
N	-0.0414658245	 1.2814883639	-0.0361089765	-0.54398
C	-0.0490246386	 0.0193052542	-0.0519773345	 0.399235
C	-1.2755249836	-0.8661988013	-0.1014206202	-0.304862
C	-0.7026738279	-2.2010677043	-0.5923006416	-0.285803
C	 0.7274968136	-2.1643210283	-0.0351910127	 0.436148
C	 0.96014581	-2.9180214351	 1.3042214776	-0.278169
C	 1.6075699952	-4.0702996829	 0.4877670343	-0.21536
C	 1.7736410489	-3.0821453929	-0.7011282173	-0.287426
O	 1.0698950414	-0.7684898856	-0.0269382167	-0.277911
H	 0.9174265675	 1.6308352605	 0.0141250277	 0.218921
H	-1.6888299261	-0.9554508406	 0.9099344416	 0.131627
H	-2.0489643659	-0.4354910223	-0.7373079637	 0.135541
H	-1.2622401585	-3.0760953236	-0.2551762007	 0.110636
H	-0.6692463407	-2.2208619893	-1.6871733587	 0.113445
H	 1.6975530768	-2.386340692	 1.9106156363	 0.116168
H	 0.0856502344	-3.1434179938	 1.920381157	 0.098028
H	 2.5167440943	-4.5158652849	 0.8939908879	 0.107698
H	 0.8982953211	-4.871093866	 0.2642408742	 0.107466
H	 1.5541068861	-3.4387834714	-1.7106621796	 0.09989
H	 2.7555484368	-2.6024869241	-0.6969685544	 0.118711
89.3721	124.3665	144.8074	273.0044	346.162	409.1927	438.7368	493.3668	515.6972	645.5897	697.4231	750.5501	790.5649	818.3204	869.5192	895.9481	917.7615	920.0393	929.2246	959.6476	975.4539	1005.4046	1039.3301	1076.6379	1097.9051	1132.0253	1181.9789	1194.4025	1211.9925	1224.995	1248.9674	1257.864	1273.6422	1299.4315	1314.4678	1338.5219	1352.0169	1469.6017	1472.6664	1485.4231	1496.9348	1507.0641	1778.9291	3045.9953	3052.4506	3058.2567	3062.612	3072.5005	3109.9972	3111.2017	3117.878	3132.6434	3134.7132	3467.7267
N=C1CCC2(CCC2)O1	[NH][C]1CCC2(CCC2)O1	
InChI=1S/C7H11NO/c8-6-2-5-7(9-6)3-1-4-7/h8H,1-5H2	InChI=1S/C7H11NO/c8-6-2-5-7(9-6)3-1-4-7/h8H,1-5H2
