19
gdb 39295	2.60578	2.10636	1.83453	1.2065	72.86	-0.2374	0.0809	0.3184	862.3263	0.163618	-423.020066	-423.013812	-423.012868	-423.050332	26.769	
C	-0.0288969772	 1.5138790044	 0.1169638166	-0.244489
C	 1.5190175478	 1.4066341498	 0.0039948245	-0.094959
C	 2.0706871087	 1.0322491259	 1.3791551687	-0.0829
O	 1.1646893353	 0.1573742602	 2.0588699093	-0.272912
C	 0.5092525107	-0.7559531932	 1.1883582706	 0.080551
C	 1.5039825038	-1.7417039516	 0.5588257237	-0.097447
O	 2.1131736191	-1.0307719648	-0.5266996334	-0.275748
C	 1.2944142785	 0.0865696168	-0.8195292783	 0.140419
C	-0.0446684875	-0.0207716765	-0.065920497	-0.08261
H	-0.4342280146	 1.9184529583	 1.0465093205	 0.110387
H	-0.4778980639	 2.0248842024	-0.7377591549	 0.100245
H	 2.087969855	 2.2198676419	-0.4512898466	 0.067594
H	 3.0588902158	 0.5630880625	 1.2748407797	 0.107033
H	 2.1704096498	 1.9154362558	 2.0184073913	 0.105736
H	-0.2561281491	-1.2510283165	 1.790350268	 0.084521
H	 2.2764505333	-2.04774155	 1.2705111717	 0.115438
H	 0.9918273725	-2.6392240673	 0.1815519435	 0.094389
H	 1.2583257482	 0.2392032781	-1.9001187747	 0.076818
H	-0.9024577061	-0.5278083762	-0.5118959931	 0.067935
188.9577	276.0576	370.0678	404.9811	409.2359	540.695	598.7923	672.2826	750.1848	797.5758	825.0237	842.7349	868.6797	899.3071	916.4834	944.9839	982.2269	985.4377	1008.9957	1036.9702	1060.5076	1061.2882	1092.6357	1121.1832	1147.5121	1164.5844	1216.8976	1228.6199	1238.2311	1253.3896	1275.6226	1290.9763	1310.3443	1319.7964	1344.3531	1363.0135	1386.3131	1406.0174	1487.1901	1504.89	1507.8613	2996.0403	3010.201	3066.8409	3073.8771	3082.174	3085.2919	3087.097	3092.5898	3100.6511	3124.4308
C1C2COC3COC2C13	C1[C@H]2CO[C@@H]3CO[C@H]2[C@H]13	
InChI=1S/C7H10O2/c1-4-2-8-6-3-9-7(4)5(1)6/h4-7H,1-3H2	InChI=1S/C7H10O2/c1-4-2-8-6-3-9-7(4)5(1)6/h4-7H,1-3H2/t4-,5+,6+,7+/m0/s1
