25
gdb 59252	2.34101	1.24739	1.04397	0.2559	93.01	-0.2377	0.0841	0.3218	1347.7069	0.22815	-352.342487	-352.33239	-352.331445	-352.377102	38.887	
C	 0.0760567217	 1.3641994577	-0.3227882769	-0.383773
C	 0.095834612	-0.099293726	 0.1427040878	 0.00651
C	 0.6864230788	-0.226243084	 1.5551013535	-0.385622
C	-1.3028099031	-0.6946920178	 0.0923360744	-0.019838
C	-2.0187297755	-1.1735816019	-1.1468646638	-0.136008
C	-1.0672784764	-1.9000310698	-2.1053675969	-0.225978
C	-0.6908059864	-2.8890331865	-0.9574891569	-0.285505
C	-1.6608566823	-2.1555490559	-0.0129087565	 0.329834
C	-2.5454721065	-2.8567125904	 0.979399812	-0.497503
H	 1.0826162746	 1.7960428568	-0.3200586128	 0.105236
H	-0.3295182634	 1.4517523974	-1.3356481825	 0.114831
H	-0.548874107	 1.976088493	 0.3390858114	 0.107963
H	 0.7479317111	-0.6569612602	-0.5399138942	 0.072823
H	 0.0760547127	 0.3192426284	 2.2850112468	 0.108365
H	 0.7295697402	-1.2723474468	 1.8747348288	 0.112702
H	 1.7010008538	 0.1840818642	 1.5999892613	 0.106039
H	-1.9879536057	-0.174121114	 0.7641038584	 0.070553
H	-2.9926449034	-0.7820280635	-1.420899612	 0.074643
H	-1.5942729233	-2.401176769	-2.9203351177	 0.098659
H	-0.2567972397	-1.3052068831	-2.5394947849	 0.09444
H	-1.0215680451	-3.9087198076	-1.1722367231	 0.096726
H	 0.3598289544	-2.9303771477	-0.6512143462	 0.092027
H	-1.9665955764	-3.2461725389	 1.826582684	 0.11673
H	-3.3030905836	-2.1780588361	 1.3855290759	 0.114592
H	-3.0675083516	-3.7055556483	 0.52142649	 0.111554
58.8334	126.4108	174.811	201.9853	225.4311	226.7703	248.3022	286.1274	326.7077	345.5291	414.805	487.8014	519.3166	615.7885	769.0034	785.2645	792.4969	854.1524	894.0379	927.6282	940.4821	941.479	956.1953	965.3702	982.0269	1004.8407	1063.8392	1085.119	1114.995	1141.257	1141.6042	1174.0618	1199.6623	1223.0623	1236.4108	1248.2609	1265.155	1304.3765	1322.3685	1346.8028	1371.2019	1396.2481	1415.8045	1417.0258	1471.9577	1481.4472	1485.7975	1487.5959	1491.8724	1498.3983	1502.7921	1508.7193	1513.247	3013.4702	3021.6315	3025.468	3032.9716	3039.2367	3048.27	3068.743	3085.1557	3085.5925	3087.6936	3090.7429	3096.0446	3099.3687	3102.0656	3106.4849	3162.8323
CC(C)C1C2CCC12C	CC(C)[C@H]1[C@H]2CC[C@@]12C	
InChI=1S/C9H16/c1-6(2)8-7-4-5-9(7,8)3/h6-8H,4-5H2,1-3H3	InChI=1S/C9H16/c1-6(2)8-7-4-5-9(7,8)3/h6-8H,4-5H2,1-3H3/t7-,8+,9-/m1/s1
