20
gdb 115052	2.62224	1.18597	0.87888	0.2616	75.25	-0.2489	0.015	0.2638	1344.9908	0.171402	-440.299007	-440.289745	-440.288801	-440.333804	33.726	
C	-0.1177694481	 1.6511618185	-0.0372015472	-0.38833
C	 0.0180798561	 0.1265212375	-0.0707814415	-0.178649
C	-1.3408140451	-0.5787581763	 0.027540725	 0.003436
N	-2.1965769444	-0.2686936783	-1.1406696897	-0.266536
C	-2.6571276144	-1.3734557819	-1.5471679075	 0.114759
O	-2.3164309918	-2.5248823374	-0.9171599806	-0.248819
C	-1.3240016603	-2.1388934438	 0.0871871084	 0.0493
C	-0.0314624828	-2.8629434178	-0.2762511292	-0.068678
O	-0.2179110007	-4.2641617244	-0.2757299792	-0.425291
H	 0.8605671127	 2.1328749544	-0.1248153382	 0.110201
H	-0.7508794745	 1.9987363263	-0.8570346522	 0.144556
H	-0.5720531616	 1.9854721038	 0.9022874103	 0.112259
H	 0.5201642636	-0.1772641395	-0.9960796496	 0.104735
H	 0.6524943682	-0.2058050366	 0.7602988305	 0.098153
H	-1.8528746095	-0.1893525756	 0.9176340878	 0.091006
H	-3.3349341806	-1.5057631944	-2.3836613415	 0.142011
H	-1.6858041192	-2.5245516909	 1.0440286681	 0.102003
H	 0.3331096551	-2.5053062912	-1.251312766	 0.096907
H	 0.739947208	-2.6475281704	 0.469262765	 0.116402
H	-0.9583679508	-4.441048432	-0.8673996327	 0.290574
47.1691	103.4948	123.3605	154.9072	217.7564	252.0306	307.5218	346.9405	429.2929	448.4055	502.4899	575.2462	749.7506	798.9968	808.0567	862.8288	882.2968	955.1966	963.9685	991.7122	1026.1874	1050.7839	1083.8407	1101.3727	1127.0216	1138.491	1158.9993	1222.5784	1286.6303	1287.3172	1315.2804	1330.1595	1341.5519	1362.6397	1394.6665	1400.661	1410.4818	1433.4026	1480.0941	1496.204	1498.0455	1509.639	1712.6496	2989.8957	3008.4643	3028.5487	3037.5053	3069.9073	3075.6802	3091.3961	3103.1872	3129.4749	3211.7185	3800.8065
CCC1N=COC1CO	CC[C@H]1N=CO[C@H]1CO	
InChI=1S/C6H11NO2/c1-2-5-6(3-8)9-4-7-5/h4-6,8H,2-3H2,1H3	InChI=1S/C6H11NO2/c1-2-5-6(3-8)9-4-7-5/h4-6,8H,2-3H2,1H3/t5-,6+/m1/s1
