25
gdb 94536	2.2134	1.399	1.12065	1.5651	88.26	-0.2551	0.066	0.3211	1261.1319	0.227393	-389.485601	-389.475171	-389.474227	-389.519845	40.806	
C	 0.0191091353	 1.6184939873	-0.0182703982	-0.422862
C	 0.0300372884	 0.0774595008	 0.0182636446	 0.265381
C	 0.7493720935	-0.396223893	 1.2980772201	-0.414466
C	-1.4261542381	-0.4292161363	 0.0601833096	-0.402058
C	 0.7200012054	-0.5626510561	-1.2132468546	-0.012322
C	 0.2242945082	-0.1162163244	-2.6280006362	-0.248131
C	 1.5414012012	 0.6768154391	-2.837979952	-0.25623
C	 2.1504247286	-0.0979600481	-1.6428422121	 0.11683
O	 2.9059025894	 0.6139774468	-0.682873767	-0.420271
H	 1.0336640954	 2.020863503	-0.0128250137	 0.132523
H	-0.502289409	 2.0004734744	-0.9027526443	 0.101784
H	-0.508870412	 2.0084694302	 0.859201973	 0.10144
H	 0.2494115425	 0.0025041123	 2.1881334557	 0.098195
H	 0.7339333651	-1.489862586	 1.3731739485	 0.097024
H	 1.7902707823	-0.0684257725	 1.3094859965	 0.137592
H	-1.9955962	-0.1094181586	-0.8187641764	 0.106729
H	-1.465827778	-1.5233714169	 0.1053989791	 0.103484
H	-1.9407467347	-0.0408085916	 0.945991533	 0.105974
H	 0.673732207	-1.6467852972	-1.0638167542	 0.06314
H	 0.1203444328	-0.958604966	-3.316418789	 0.098099
H	-0.6996093262	 0.4645352864	-2.6646111465	 0.102832
H	 2.0433448047	 0.5889117245	-3.8053589445	 0.087132
H	 1.4246144367	 1.7354787976	-2.5925781224	 0.10867
H	 2.721122441	-0.9682389728	-1.9988618376	 0.066246
H	 3.7529161207	 0.8423949172	-1.0787919313	 0.283263
107.6433	124.5993	191.7758	227.5512	232.7566	250.2455	267.0701	289.0976	300.1107	336.4647	378.9257	388.5902	426.3141	465.0338	572.2731	661.3097	704.8756	763.2343	845.5281	906.8162	933.9033	935.7456	945.094	962.1744	964.6196	1005.6628	1035.877	1047.3447	1088.6809	1099.9315	1144.8137	1201.8089	1206.321	1230.5673	1243.7165	1252.6451	1266.8302	1286.2419	1292.2666	1334.5923	1366.5915	1395.232	1397.6193	1419.3113	1433.9756	1476.8871	1480.8156	1488.5167	1493.7073	1500.1018	1508.8875	1513.2104	1527.4947	2981.7692	3022.8296	3025.493	3031.9219	3038.3959	3056.0583	3066.9476	3082.7323	3086.3871	3092.7773	3095.7437	3104.6988	3121.1374	3134.2086	3137.0427	3814.6518
CC(C)(C)C1CCC1O	CC(C)(C)[C@H]1CC[C@H]1O	
InChI=1S/C8H16O/c1-8(2,3)6-4-5-7(6)9/h6-7,9H,4-5H2,1-3H3	InChI=1S/C8H16O/c1-8(2,3)6-4-5-7(6)9/h6-7,9H,4-5H2,1-3H3/t6-,7+/m0/s1
