18
gdb 82082	2.52923	1.56104	1.2579	10.1389	72.55	-0.1966	0.0112	0.2078	1049.5745	0.148186	-439.03109	-439.022743	-439.021799	-439.064446	31.229	
C	-0.722117641	 1.3912349092	 0.5938743791	-0.352796
N	-0.2084310381	 0.0262594409	 0.2908621402	-0.095338
H	-0.8792811465	-0.6625190211	 0.6215503964	 0.280823
C	 0.1763308849	-0.3338958777	-1.1055888719	-0.040758
C	 1.4512377953	 0.3408858545	-1.5227581971	-0.278487
C	 1.5123022012	-0.8949246939	-0.6710956398	-0.058431
C	 1.2441567791	-0.4920832268	 0.7836272706	-0.14573
C	 2.267882751	 0.5207073818	 1.3965720413	 0.393863
O	 2.0351869459	 1.7349090658	 1.2223595993	-0.46859
O	 3.2073394477	-0.0993340842	 1.8982227276	-0.435791
H	 0.1376783836	 2.0631787148	 0.602796316	 0.231423
H	-1.4758835582	 1.6489842065	-0.154178012	 0.134158
H	-1.1710569623	 1.3752541482	 1.5887992132	 0.149364
H	-0.5958206641	-0.6865731883	-1.7776322414	 0.125531
H	 1.6775419229	 0.2004735831	-2.5743600838	 0.133378
H	 1.7469126026	 1.2911481857	-1.090431538	 0.181957
H	 1.9892259262	-1.815872657	-0.9717976942	 0.125536
H	 1.0508124397	-1.3265328018	 1.4555770048	 0.119887
52.3851	139.4871	154.5781	219.4166	250.0255	288.1366	383.3971	421.6528	521.99	605.5582	695.5972	730.8279	771.4638	795.3839	812.3607	838.0849	921.7084	980.8093	1002.8044	1010.5278	1048.4632	1063.6783	1091.0567	1115.0634	1126.103	1167.9744	1197.0775	1222.2168	1254.2674	1273.8557	1297.1807	1334.454	1368.3463	1409.3646	1444.4972	1476.471	1477.3428	1519.4217	1792.8695	3044.5756	3132.6286	3136.4119	3145.1329	3152.6005	3192.7974	3227.7288	3235.0751	3503.223
C[NH+]1C2CC2C1C([O-])=O	C[NH]1[C@H]2C[C@H]2[C@H]1C(=O)[O]	
InChI=1S/C6H9NO2/c1-7-4-2-3(4)5(7)6(8)9/h3-5H,2H2,1H3,(H,8,9)	InChI=1S/C6H9NO2/c1-7-4-2-3(4)5(7)6(8)9/h3-5,7H,2H2,1H3/t3-,4+,5+/m1/s1
