18
gdb 58033	1.99051	1.51311	1.04321	6.3308	72.85	-0.251	0.0064	0.2574	1194.8713	0.146328	-435.294843	-435.284789	-435.283845	-435.329824	35.955	
C	 0.9316959088	-0.3150582454	 0.164865528	-0.34391
N	-0.4549149414	 0.018853005	 0.5012937035	-0.078706
C	-0.6212884103	 1.4500776907	 0.7496649962	-0.332294
C	-1.4230597765	-0.50513936	-0.4571964506	-0.238555
C	-1.1438918369	-0.1192522419	-1.8571387559	 0.310158
N	-0.8574297441	 0.2747955111	-2.904793843	-0.332609
C	-1.6220694727	-2.0440481984	-0.3481756008	 0.399919
N	-1.4280136106	-2.5037249721	 0.9107592492	-0.522519
O	-1.9806128193	-2.7095180078	-1.2933719553	-0.341249
H	 1.5783934186	-0.0099867636	 0.9919859109	 0.127142
H	 1.0325652982	-1.3952856852	 0.0312609526	 0.137444
H	 1.2792899159	 0.1826022799	-0.7535688501	 0.137807
H	-0.406779654	 2.0680466964	-0.1372519361	 0.129587
H	-1.6459379629	 1.65304396	 1.0751321311	 0.126805
H	 0.0580492792	 1.7541958903	 1.5508213464	 0.129607
H	-2.4013165717	-0.0790020939	-0.1986996063	 0.153705
H	-1.0658457347	-1.8788891094	 1.6131053591	 0.268288
H	-1.5444309255	-3.4859479256	 1.095324751	 0.269383
57.4664	107.3048	139.93	177.0827	192.1361	243.5921	253.957	336.4114	361.2236	365.813	377.2455	434.8589	475.8693	552.9179	623.5496	645.0361	705.2729	867.4606	905.9294	991.3855	1058.2808	1067.1447	1100.2848	1124.3185	1192.2968	1194.2054	1270.2771	1298.3843	1348.8791	1358.0801	1447.2235	1475.2933	1482.2144	1497.8332	1502.7516	1518.0996	1580.908	1824.1743	2354.1055	2980.7735	2993.885	3034.6791	3074.9507	3083.7487	3114.7612	3123.2812	3585.3543	3729.991
CN(C)C(C#N)C(N)=O	CN(C)[C@@H](C#N)C(=O)N	
InChI=1S/C5H9N3O/c1-8(2)4(3-6)5(7)9/h4H,1-2H3,(H2,7,9)	InChI=1S/C5H9N3O/c1-8(2)4(3-6)5(7)9/h4H,1-2H3,(H2,7,9)/t4-/m0/s1
