18
gdb 29523	3.00108	1.57397	1.05502	1.6708	79.96	-0.1679	0.0546	0.2225	1116.0723	0.151655	-398.144253	-398.136191	-398.135247	-398.176495	31.353	
N	 0.0372523352	 1.4389897229	-0.1720294828	-0.61662
C	 0.0239692487	 0.034223567	-0.0460186634	 0.097312
C	-1.0695721094	-0.8169019729	-0.0293595184	-0.160135
N	-0.6150840649	-2.1319336388	 0.007611971	-0.392157
C	 0.7491088006	-2.1127252919	 0.0439589646	 0.29227
C	 1.1645926633	-0.81110895	-0.0055685525	 0.245185
N	 2.583232383	-0.6625292697	 0.0153183233	-0.423481
C	 3.0609755601	-2.0477894196	 0.3088676768	-0.155558
C	 1.9005608014	-3.0665070345	 0.0097810555	-0.35744
H	 0.7999776229	 1.8428718779	 0.3598777105	 0.243472
H	-0.8293392368	 1.8595455619	 0.1405170345	 0.234278
H	-2.1247024773	-0.5953314021	-0.0327978436	 0.099207
H	-1.2072670273	-2.9331086391	 0.1291148743	 0.253301
H	 2.9274042489	-0.3609309264	-0.8932759787	 0.222513
H	 3.9736977949	-2.2655308314	-0.2512100063	 0.099338
H	 3.3031109232	-2.1008006904	 1.3759649506	 0.113719
H	 1.8796876359	-3.8568811072	 0.7679322954	 0.103515
H	 2.0117216477	-3.5602675858	-0.967645931	 0.101281
131.7569	169.9882	204.5719	243.1778	258.7176	288.652	381.2366	502.9718	598.2708	603.3952	608.6132	630.6543	683.0759	742.9669	791.1293	798.4842	824.9014	909.8202	936.0813	980.961	1044.4729	1074.3389	1084.0605	1126.427	1180.879	1227.8421	1235.973	1281.2874	1311.0223	1348.9487	1373.0181	1404.9047	1471.6089	1488.7381	1505.7878	1531.4746	1577.3049	1637.8559	1658.7616	2982.3892	3036.9093	3057.4561	3101.1179	3258.0945	3464.1423	3515.6052	3605.9591	3693.2575
NC1=CNC2=C1NCC2	Nc1c[nH]c2c1NCC2	
InChI=1S/C6H9N3/c7-4-3-9-5-1-2-8-6(4)5/h3,8-9H,1-2,7H2	InChI=1S/C6H9N3/c7-4-3-9-5-1-2-8-6(4)5/h3,8-9H,1-2,7H2
