18
gdb 132508	3.01399	1.28329	0.91018	1.3476	83.39	-0.2274	-0.0014	0.226	1259.6484	0.146869	-409.999971	-409.991173	-409.990229	-410.034515	32.223	
C	-0.0398345905	 1.5299843134	-0.0011791999	-0.493517
C	-0.0204355357	 0.0203556485	-0.0154326209	 0.321493
C	-0.0236520509	-0.6926192518	-1.2140685909	-0.205053
C	 0.0093479503	-2.0861250234	-1.2177117574	-0.232915
C	 0.0443570166	-2.7573470888	-0.0091213758	 0.213588
F	 0.0743196586	-4.1006479026	-0.0064748918	-0.081345
C	 0.0466634812	-2.0946418434	 1.2183881265	 0.178847
C	 0.0814843226	-2.8777586656	 2.5040384191	-0.497112
C	 0.0132337334	-0.7017630213	 1.18319451	-0.274874
H	 0.9197341774	 1.940490358	 0.3353742413	 0.131644
H	-0.239316016	 1.9345143428	-0.9970644608	 0.122489
H	-0.80822711	 1.9152253632	 0.6775707072	 0.128313
H	-0.0528873157	-0.1588661699	-2.1587875591	 0.095837
H	 0.0059240203	-2.6541233994	-2.1407657572	 0.106648
H	 0.9769347364	-3.5057071865	 2.5642955978	 0.137832
H	 0.0745164511	-2.2089548828	 3.3679031732	 0.121723
H	-0.7789945305	-3.5506470162	 2.584655235	 0.137806
H	 0.0125145814	-0.1612945741	 2.1264994336	 0.088596
27.4119	90.4763	146.733	201.9406	260.9387	306.3911	355.0253	439.5812	451.6584	493.0231	575.339	577.3575	723.3892	728.1144	779.1869	834.3753	898.6595	931.8066	941.3583	999.9222	1035.2865	1062.0073	1063.3438	1145.7308	1161.3405	1245.3802	1287.296	1306.0593	1339.2928	1413.2754	1415.6347	1436.4224	1480.3124	1486.0494	1489.7827	1501.6417	1541.6648	1635.4462	1654.8177	3028.4654	3035.9787	3081.8754	3089.0571	3112.9993	3121.1548	3156.7891	3175.4876	3202.6922
CC1=CC=C(F)C(C)=C1	Cc1ccc(F)c(C)c1	
InChI=1S/C8H9F/c1-6-3-4-8(9)7(2)5-6/h3-5H,1-2H3	InChI=1S/C8H9F/c1-6-3-4-8(9)7(2)5-6/h3-5H,1-2H3
