16
gdb 125516	4.3918	0.90834	0.79423	1.4384	72.29	-0.2566	-0.0442	0.2124	1403.1994	0.123864	-434.103876	-434.095115	-434.094171	-434.139395	29.778	
C	-0.0183487967	 1.4623910575	 0.11311428	-0.481181
C	 0.0172020343	-0.027194614	 0.0557611371	 0.353601
N	 0.1019793881	-0.6969641991	-1.0865171145	-0.301712
N	 0.1089188068	-1.9933513171	-0.6765483999	 0.046489
C	 0.1613086758	-3.0579073187	-1.6464783209	-0.24996
C	-1.0768520292	-3.0907205581	-2.5463320341	 0.156016
O	-1.1556894536	-3.8081730005	-3.5044595157	-0.222598
C	 0.0237530338	-2.0374541563	 0.6696759287	 0.002504
N	-0.0322327562	-0.8204186899	 1.1691725801	-0.309565
H	 0.8223508356	 1.8452645649	 0.6998411674	 0.143009
H	 0.0308628176	 1.8804559806	-0.8934886511	 0.141092
H	-0.9362947366	 1.8075698018	 0.5987344391	 0.142418
H	 1.0488174071	-2.9564248052	-2.2782940895	 0.168253
H	 0.2335319009	-4.013375569	-1.1170692598	 0.156727
H	-1.8944330152	-2.4060834537	-2.235908398	 0.110159
H	 0.0121533875	-2.9638863433	 1.2253959713	 0.144749
25.9675	74.4084	92.3924	101.5445	237.9586	280.6999	360.6161	412.9193	433.2701	652.0755	678.5173	713.2631	722.7798	813.4648	857.1599	991.4744	1019.5725	1036.2232	1052.1141	1069.9611	1072.0385	1196.3105	1231.2635	1323.9664	1336.7827	1351.4014	1405.6395	1409.1808	1440.9113	1463.7796	1477.7389	1480.6854	1499.0913	1567.6004	1846.4396	2917.7773	3048.9187	3060.8659	3105.8074	3110.5786	3146.8409	3249.9465
CC1=NN(CC=O)C=N1	Cc1nn(CC=O)cn1	
InChI=1S/C5H7N3O/c1-5-6-4-8(7-5)2-3-9/h3-4H,2H2,1H3	InChI=1S/C5H7N3O/c1-5-6-4-8(7-5)2-3-9/h3-4H,2H2,1H3
