17
gdb 90909	3.64958	1.5173	1.42988	0.5669	73.02	-0.2428	-0.0176	0.2252	964.0624	0.134511	-421.664377	-421.657159	-421.656214	-421.695535	29.497	
C	-0.330090072	 1.5199271204	-0.0747880306	-0.407335
C	 0.0317473274	 0.0542101014	 0.0025896638	 0.029807
O	 1.1123517196	-0.3342660005	-0.9694106793	-0.328853
C	 2.0681143177	-0.1685732114	 0.1443449678	 0.109986
C	 2.8961870967	-0.9556756079	 1.2733113335	-0.074047
O	 2.0037706933	-0.1732977219	 2.1979605602	-0.357138
C	 0.9980950994	-0.4950584892	 1.1003423984	 0.273204
C	 0.97536476	-2.0249093118	 1.1774572902	-0.103445
C	 2.2654681199	-2.3342180244	 1.2993794782	-0.060562
H	 0.5218089688	 2.1660309054	 0.1485920655	 0.133587
H	-0.6915178772	 1.7577452457	-1.0792637022	 0.135959
H	-1.1294646561	 1.7427377486	 0.6394042199	 0.128338
H	-0.8418300836	-0.5857306889	-0.1601828454	 0.096919
H	 2.4215350152	 0.8642985808	 0.1371779038	 0.104468
H	 3.9554350912	-0.7968582139	 1.4741172904	 0.090017
H	 0.0913235979	-2.6441723145	 1.1337989021	 0.110156
H	 2.7731480317	-3.2823720079	 1.3908826336	 0.118938
169.2594	204.9523	214.0594	325.4473	345.0051	467.4102	498.1051	554.9922	569.5691	686.8549	707.8097	738.7776	772.3155	820.2811	826.7017	838.0265	899.0069	910.9018	933.895	966.2578	1007.3834	1029.6286	1083.5453	1091.8807	1136.967	1142.8783	1183.3194	1240.9616	1260.3262	1275.6422	1322.0981	1361.5583	1384.7086	1410.5928	1485.408	1490.0604	1625.3081	3045.2181	3055.9765	3086.7705	3114.81	3131.8834	3133.1287	3232.5197	3261.3352
CC1OC2C3OC12C=C3	C[C@H]1O[C@@H]2[C@H]3O[C@@]12C=C3	
InChI=1S/C7H8O2/c1-4-7-3-2-5(9-7)6(7)8-4/h2-6H,1H3	InChI=1S/C7H8O2/c1-4-7-3-2-5(9-7)6(7)8-4/h2-6H,1H3/t4-,5+,6-,7+/m1/s1
