19
gdb 34720	3.53233	1.42489	1.39563	0.761	83.36	-0.2498	0.0557	0.3055	1011.0243	0.162069	-348.735328	-348.728365	-348.727421	-348.766391	29.416	
C	-0.0641350278	-1.2358500521	-0.1085863265	-0.455114
C	-0.0348068107	-0.0356066484	-0.0351837887	 0.311418
C	-0.0050309873	 1.4173146363	 0.043970403	-0.172597
C	-0.4695981323	 2.0026087957	 1.386419036	-0.056432
C	 0.7575906885	 2.1386411862	 2.264616524	-0.046602
C	 1.9467961793	 1.6295796912	 1.4554442426	-0.225265
C	 1.4224556974	 2.0536862074	 0.0646974253	-0.054328
C	 1.0787682191	 3.5438325614	 0.2902973627	-0.23174
C	 0.2103530346	 3.3499419184	 1.52991218	-0.071975
H	-0.0918166055	-2.295264077	-0.1721613416	 0.189241
H	-0.5895277637	 1.8314887277	-0.7872813802	 0.096219
H	-1.4521392241	 1.7962498018	 1.788067392	 0.088846
H	 0.6963337546	 2.0454325928	 3.3405991758	 0.0812
H	 2.8859717677	 2.130208837	 1.7129751831	 0.09254
H	 2.0881857195	 0.5484372337	 1.5373028218	 0.111737
H	 2.0525648735	 1.8167347188	-0.7908774918	 0.071709
H	 1.9694191191	 4.1511759246	 0.4825565303	 0.094451
H	 0.5344543869	 3.9848322039	-0.5517245656	 0.094202
H	-0.2637505288	 4.1724446505	 2.0490219279	 0.08249
131.6324	150.2867	359.0169	409.8062	425.5435	493.338	511.8488	619.5537	628.3229	662.4643	703.0126	795.5906	815.3947	822.9971	879.8296	911.3259	916.9873	921.5904	944.8368	953.6958	994.4207	1021.3744	1036.0897	1054.9768	1072.9302	1081.636	1088.9817	1150.1028	1152.9454	1198.8411	1238.6487	1258.1312	1281.8359	1283.92	1312.9075	1332.8638	1353.8194	1389.3199	1487.6623	1504.8287	2232.11	3025.632	3040.3522	3050.9798	3083.3135	3101.074	3134.3622	3196.8706	3202.048	3215.211	3504.7126
C#CC1C2C3CC1CC23	C#C[C@H]1[C@H]2[C@H]3C[C@@H]1C[C@@H]23	
InChI=1S/C9H10/c1-2-6-5-3-7-8(4-5)9(6)7/h1,5-9H,3-4H2	InChI=1S/C9H10/c1-2-6-5-3-7-8(4-5)9(6)7/h1,5-9H,3-4H2/t5-,6-,7+,8-,9+/m1/s1
