16
gdb 72072	2.8125	1.7262	1.41678	1.9995	70.6	-0.2324	-0.0394	0.193	939.1224	0.12392	-437.810858	-437.803427	-437.802482	-437.842649	28.802	
O	-0.3974548171	 1.16206155	 0.095013193	-0.465512
C	-0.0084509446	-0.1431293963	 0.0991530262	 0.381266
C	 0.8980816997	-0.8559022385	-0.8950845207	-0.226056
N	 0.2294330764	-2.1715854544	-0.5235321223	-0.215244
C	 0.643370611	-2.3126330892	 0.9336879541	-0.177339
C	-0.1761507455	-1.0763954656	 1.271890447	-0.187554
C	-0.9611758042	-1.3521251515	-0.0213633349	 0.212674
C	-2.3379204058	-1.181078998	-0.4037180059	-0.00812
O	-2.9876615258	-0.2339437764	 0.0213255055	-0.318675
H	-1.3674839205	 1.1702520474	 0.1874198709	 0.309944
H	 0.6552912638	-0.5994504876	-1.9281393355	 0.126231
H	 1.9825010032	-0.8375450287	-0.7431487159	 0.111395
H	 0.2236239976	-3.2337383996	 1.3442633624	 0.122654
H	 1.7258247845	-2.2863928033	 1.0954496002	 0.110778
H	-0.5921822292	-0.7349687714	 2.2110827415	 0.121138
H	-2.7621522335	-1.8985182767	-1.1329116755	 0.102419
112.775	141.0636	215.2851	319.6674	352.9516	409.0225	442.8562	520.6795	544.2019	624.9975	697.5764	728.9479	782.255	833.9329	888.2463	922.1461	946.1313	980.7937	1012.2803	1040.6728	1078.0722	1087.2308	1148.7797	1170.9672	1189.4238	1227.4961	1259.0367	1295.3974	1308.7606	1394.0075	1431.0087	1441.683	1500.8142	1519.8369	1716.1811	2941.2125	3043.7426	3052.205	3112.4001	3121.994	3207.8737	3630.0887
OC12CN3CC1C23C=O	O[C@@]12CN3C[C@@H]1[C@@]23C=O	
InChI=1S/C6H7NO2/c8-3-5-4-1-7(5)2-6(4,5)9/h3-4,9H,1-2H2	InChI=1S/C6H7NO2/c8-3-5-4-1-7(5)2-6(4,5)9/h3-4,9H,1-2H2/t4-,5+,6+/m1/s1
