13
gdb 15480	2.95721	2.07594	1.47734	5.1799	57.82	-0.2893	-0.0216	0.2677	833.2778	0.097106	-398.653773	-398.646956	-398.646011	-398.685325	24.23	
O	-0.0103872911	 0.0660191957	-0.4314584552	-0.317249
C	 0.010442579	 1.214388555	-0.1162654614	 0.44825
O	-1.0962832699	 1.9468887057	 0.1426361036	-0.208263
C	-0.7646915404	 3.2938482318	 0.5271917265	-0.082508
C	 0.6500436623	 3.5380772247	-0.0154316174	-0.247185
C	 1.2613767483	 2.1245256585	 0.0465189418	-0.288916
C	 1.9223579281	 1.8473307488	 1.3195673646	 0.279364
N	 2.4357378734	 1.6554501144	 2.3369532896	-0.308873
H	-1.5179677966	 3.9553664168	 0.0972626546	 0.140388
H	-0.8055606198	 3.3649798563	 1.6192400153	 0.14314
H	 0.607973166	 3.8639623296	-1.0578275714	 0.1355
H	 1.2029825848	 4.2796775539	 0.5612664265	 0.144977
H	 1.9562090359	 1.9083253488	-0.7675118172	 0.161375
80.7883	147.7465	187.7436	253.1799	423.3081	464.4918	539.5719	666.9512	678.291	711.8133	827.9037	869.8465	922.3907	970.5125	1028.2015	1062.0678	1108.2678	1162.7326	1191.221	1228.315	1259.5659	1311.6167	1344.3645	1401.8023	1491.1942	1522.4233	1899.8849	2359.5904	3056.7147	3077.4495	3102.9921	3127.4002	3144.1418
O=C1OCCC1C#N	O=C1OCC[C@H]1C#N	
InChI=1S/C5H5NO2/c6-3-4-1-2-8-5(4)7/h4H,1-2H2	InChI=1S/C5H5NO2/c6-3-4-1-2-8-5(4)7/h4H,1-2H2/t4-/m0/s1
