14
gdb 48488	2.05065	1.70868	1.21818	2.5976	62.57	-0.277	-0.0713	0.2057	1026.8667	0.099744	-473.822318	-473.814024	-473.81308	-473.856574	28.454	
O	-0.4311876699	 0.4336247194	 0.6660039731	-0.226813
C	 0.2961690498	 0.8089839713	-0.2093447113	 0.140707
C	 1.364886185	 1.9183107179	-0.0209015782	 0.129652
C	 1.3756127068	 2.5349161787	 1.4067253756	-0.164717
O	 2.7460326153	 2.4943133488	 1.7643882917	-0.222333
C	 3.2447694689	 1.3419404832	 1.1562253059	 0.014858
O	 2.632037047	 1.2696458493	-0.1349576469	-0.284526
C	 1.2249993036	 2.9136176065	-1.091604308	 0.250215
N	 1.0546633432	 3.6770597467	-1.9420863925	-0.314357
H	 0.3100239771	 0.3532325307	-1.218397905	 0.12901
H	 1.0348708396	 3.5693100625	 1.4349866384	 0.15281
H	 0.7559247425	 1.9132845692	 2.0638886272	 0.143454
H	 4.3249501446	 1.4337245832	 1.0247442555	 0.143649
H	 2.9934447966	 0.4362815126	 1.7327841745	 0.10839
40.0562	66.025	166.9072	176.1718	242.3239	291.279	332.9541	469.0814	521.9534	563.0159	676.9104	735.2722	785.2226	908.8229	963.26	980.7012	1024.0103	1055.9901	1111.6555	1134.4455	1171.0056	1190.1799	1231.2575	1276.8853	1355.5293	1409.1436	1421.3585	1512.3853	1540.7462	1841.3812	2355.6209	2954.0889	2970.2717	3045.9642	3115.4899	3145.1951
O=CC1(COCO1)C#N	O=C[C@]1(COCO1)C#N	
InChI=1S/C5H5NO3/c6-1-5(2-7)3-8-4-9-5/h2H,3-4H2	InChI=1S/C5H5NO3/c6-1-5(2-7)3-8-4-9-5/h2H,3-4H2/t5-/m0/s1
