20
gdb 11573	3.7264	1.08742	0.93969	2.8042	71.7	-0.251	0.079	0.33	1293.4046	0.174618	-386.109955	-386.100459	-386.099515	-386.145041	33.284	
C	 0.1418707195	 1.5629865098	-0.3665395994	-0.236012
O	-0.0560385395	 0.1883207498	-0.1337143259	-0.246506
C	 0.571688383	-0.6782564071	-1.0740296368	 0.140953
C	 2.0801551963	-0.7856414894	-0.8359641094	-0.401134
C	-0.1245602364	-2.0348481666	-0.9390356848	-0.236792
C	-1.5987680615	-1.9721651534	-1.2609911307	 0.097597
C	-2.1165064072	-2.2939363338	-2.5977402618	-0.177614
O	-2.2483145941	-3.2201817993	-1.5186229929	-0.240927
H	 1.1901717471	 1.8696777212	-0.2399303583	 0.107342
H	-0.1816681284	 1.8548775129	-1.3782151416	 0.103251
H	-0.4647304963	 2.1027988127	 0.3650880341	 0.12809
H	 0.3951964569	-0.2856783308	-2.0909057825	 0.063127
H	 2.5369822216	-1.4567749448	-1.5701218446	 0.116726
H	 2.5728435251	 0.1864472172	-0.9261131163	 0.116412
H	 2.278850544	-1.179772625	 0.165674136	 0.125375
H	 0.3564653538	-2.7640152333	-1.5996474895	 0.10233
H	 0.0072306689	-2.3911530985	 0.0902289647	 0.113956
H	-2.1777374676	-1.2870706055	-0.6439016136	 0.104917
H	-3.0455900094	-1.8450121046	-2.9468715549	 0.112376
H	-1.4228946858	-2.5903569914	-3.3846789819	 0.106532
55.0298	72.3586	91.8899	145.428	197.585	237.6618	277.7183	340.3285	363.4887	409.7314	477.9426	540.6583	804.0311	831.1387	865.5483	882.3509	927.8406	970.7468	1018.359	1079.0565	1117.1394	1128.6832	1141.5347	1155.4869	1167.7633	1183.3995	1185.1368	1212.919	1265.2858	1282.5033	1311.002	1378.9687	1388.6232	1404.7816	1440.4261	1472.2238	1478.2557	1482.7288	1493.4719	1504.3954	1512.8965	1531.0415	2948.0048	2976.8638	3026.0508	3034.4106	3042.0553	3076.8542	3082.6851	3110.1665	3112.2255	3117.7954	3130.8286	3162.8322
COC(C)CC1CO1	CO[C@@H](C)C[C@H]1CO1	
InChI=1S/C6H12O2/c1-5(7-2)3-6-4-8-6/h5-6H,3-4H2,1-2H3	InChI=1S/C6H12O2/c1-5(7-2)3-6-4-8-6/h5-6H,3-4H2,1-2H3/t5-,6-/m0/s1
