20
gdb 78529	2.3488	1.59313	1.25562	3.6808	79.5	-0.2076	0.0713	0.279	1110.1069	0.169929	-403.07015	-403.061563	-403.060619	-403.102623	34.286	
C	-0.0531744148	 1.5130064659	 0.0130071706	-0.507877
C	 0.0833834275	 0.0249526305	-0.0233762125	 0.362317
N	-0.8880148493	-0.8766812673	 0.6686779456	-0.414311
C	 0.5787509219	-0.9515833853	 0.964606243	-0.168946
C	 1.302269157	-1.7773100686	-0.1343052578	 0.263239
C	 2.7062389607	-2.2675525105	 0.073142629	-0.492607
C	 0.3810400857	-2.2365816662	-1.2377866376	 0.090866
O	-0.872514037	-2.8133279277	-1.137983015	-0.43119
C	 0.7433138923	-0.7673751812	-1.1848897653	-0.239012
H	 0.8922235551	 1.9969882357	-0.2544605329	 0.131235
H	-0.8159774751	 1.8577424829	-0.6952396645	 0.13365
H	-0.3366426546	 1.8586767863	 1.013350859	 0.116558
H	-1.3202069641	-0.3396694253	 1.4201809454	 0.22787
H	 0.9389212181	-0.8107118395	 1.9767407922	 0.09365
H	 2.7335214762	-3.1006503319	 0.7868598034	 0.123369
H	 3.1379546374	-2.6235611104	-0.8675703882	 0.121793
H	 3.3613245779	-1.4774819947	 0.4614762121	 0.112764
H	 0.947582276	-2.7392905287	-2.0216994432	 0.097201
H	-1.3205130722	-2.300368568	-0.4414114962	 0.297764
H	 1.2775073814	-0.2633096661	-1.9832833671	 0.081668
141.8459	200.1373	210.6262	220.056	268.7605	281.6008	322.8339	358.4045	476.5631	519.7942	576.3881	608.5168	672.3204	690.2559	752.4933	786.5273	844.7816	882.1538	911.7424	914.606	950.6897	968.8186	1001.7886	1021.8594	1094.7885	1105.9195	1111.5305	1111.9676	1168.2604	1217.4551	1219.6721	1281.9463	1302.9014	1328.4108	1402.6452	1414.2177	1419.8956	1457.6682	1480.5827	1483.4289	1497.8762	1500.4866	1506.8415	3012.6613	3022.7117	3066.2434	3086.3689	3096.7307	3096.8592	3114.0819	3165.2734	3184.5795	3466.2945	3588.2808
CC12NC1C1(C)C(O)C21	C[C@]12N[C@H]1[C@@]1(C)[C@@H](O)[C@@H]21	
InChI=1S/C7H11NO/c1-6-3(4(6)9)7(2)5(6)8-7/h3-5,8-9H,1-2H3	InChI=1S/C7H11NO/c1-6-3(4(6)9)7(2)5(6)8-7/h3-5,8-9H,1-2H3/t3-,4+,5+,6-,7-/m1/s1
