19
gdb 93210	2.75875	1.38068	0.96652	0.9914	79.83	-0.2276	-0.0559	0.1717	1224.4359	0.160151	-419.25807	-419.24933	-419.248386	-419.2912	33.774	
C	-0.0547768801	 1.5538430285	 0.0183090947	-0.385077
C	 0.0344691853	 0.0256861523	 0.0010750902	 0.066621
C	 0.6777892449	-0.4931700424	-1.2931276927	-0.221062
C	 0.8637711812	-2.0121738122	-1.2215101137	-0.326033
C	 1.65411029	-2.3785585683	 0.0101808656	 0.360484
O	 2.4214857291	-3.3143446809	 0.0768049537	-0.324047
C	 1.4255104263	-1.4782960948	 1.2155951454	 0.25804
N	 2.0409036834	-1.9430843746	 2.3428196705	-0.540287
N	 0.7127306126	-0.4142048935	 1.2175742768	-0.298629
H	 0.9462993805	 1.9961864915	-0.0224810248	 0.114077
H	-0.630795188	 1.9230320536	-0.836680933	 0.104277
H	-0.5344385573	 1.8937706259	 0.9394066797	 0.123189
H	-0.9962783179	-0.3663718458	 0.0454936347	 0.080242
H	 0.0660173604	-0.2213652406	-2.1598970185	 0.102778
H	 1.6539761264	-0.0076827856	-1.4258716529	 0.105065
H	-0.1191816249	-2.4992380544	-1.1322802839	 0.131628
H	 1.3569433364	-2.4372004546	-2.0995846043	 0.124663
H	 2.7496390351	-2.6457031452	 2.2059611858	 0.267744
H	 2.1268165267	-1.3110218089	 3.1209712868	 0.256326
72.6367	161.5952	203.8155	243.7857	284.5382	339.4897	351.8029	418.3085	420.2552	451.443	522.5694	537.3481	558.8256	620.1652	689.1726	747.993	819.6818	899.0839	919.8277	959.7608	1016.7904	1049.5804	1097.7407	1138.2807	1165.7019	1201.9165	1206.4878	1249.8659	1321.4307	1340.4101	1341.3975	1372.3507	1404.9778	1407.7111	1456.2075	1483.7395	1489.8532	1498.5122	1590.9356	1710.9506	1798.0995	2950.4571	3006.0571	3022.6648	3035.2579	3072.7597	3098.2368	3103.6559	3123.1085	3594.9796	3725.8531
CC1CCC(=O)C(N)=N1	C[C@H]1CCC(=O)C(=N1)N	
InChI=1S/C6H10N2O/c1-4-2-3-5(9)6(7)8-4/h4H,2-3H2,1H3,(H2,7,8)	InChI=1S/C6H10N2O/c1-4-2-3-5(9)6(7)8-4/h4H,2-3H2,1H3,(H2,7,8)/t4-/m0/s1
