17
gdb 52950	3.17243	0.97546	0.87383	2.1899	81.55	-0.2139	0.0244	0.2383	1397.4115	0.132979	-421.751419	-421.742	-421.741056	-421.787143	33.571	
C	 0.0537933355	 1.4778532814	-0.0127792272	-0.507652
C	 0.0128397757	 0.0246372009	 0.0060144578	 0.176727
C	-0.0195569061	-1.1805316599	 0.0153772683	-0.074761
C	-0.0571302282	-2.5964142572	 0.017114766	 0.25122
C	-0.4019851008	-3.477145966	 1.2065923005	-0.406287
C	-1.1758888054	-3.6372178337	-0.074667779	 0.250435
O	-2.5359649023	-3.4747848246	-0.1911952968	-0.446218
C	-0.3005001524	-4.3023023124	-1.1283508114	-0.140064
O	 0.7678430294	-3.3457852315	-0.8932913939	-0.320308
H	 0.820321637	 1.8336139791	-0.7101016584	 0.156052
H	-0.9051856004	 1.9006864851	-0.3327335051	 0.151601
H	 0.2887818873	 1.8877387877	 0.9758203349	 0.148948
H	 0.3154087315	-4.2245607049	 1.5369887566	 0.117984
H	-0.9475434914	-2.9610167345	 1.9906694953	 0.127625
H	-2.9684890197	-3.9923298694	 0.496248109	 0.29359
H	 0.019681251	-5.3369755786	-0.9582177634	 0.101962
H	-0.7071140207	-4.1910849417	-2.139732413	 0.119144
20.3602	78.4845	99.0789	182.7926	247.4542	253.0623	333.5456	369.0624	388.59	417.4952	507.9604	533.3636	595.0481	669.6659	772.6511	837.6033	911.5267	949.2674	985.7319	1008.6433	1048.1749	1053.3658	1053.7236	1058.9531	1100.5182	1143.5683	1202.5312	1284.2043	1322.1035	1374.3855	1409.6921	1417.581	1473.3984	1478.114	1484.5065	1519.2309	2360.883	3024.6739	3025.5348	3080.2739	3085.0927	3089.4253	3107.0562	3209.8008	3802.8887
CC#CC12CC1(O)CO2	CC#C[C@@]12C[C@]1(O)CO2	
InChI=1S/C7H8O2/c1-2-3-7-4-6(7,8)5-9-7/h8H,4-5H2,1H3	InChI=1S/C7H8O2/c1-2-3-7-4-6(7,8)5-9-7/h8H,4-5H2,1H3/t6-,7+/m0/s1
