20
gdb 117563	1.85802	1.22617	0.82163	2.8956	80.26	-0.2531	0.0203	0.2734	1449.8377	0.171411	-399.303259	-399.293404	-399.29246	-399.338924	35.001	
C	 0.1810016978	 1.3743707943	 0.2528111301	-0.394766
C	-0.1445010019	-0.0990585616	 0.0346292636	-0.119628
N	 0.855121503	-0.723201865	-0.8408879663	-0.295931
C	 0.6170119175	-2.1318943873	-1.1305780985	-0.139962
C	-0.5044706164	-2.3446442911	-2.0749618207	 0.266971
N	-1.3762417659	-2.461145459	-2.8256656463	-0.325538
C	 1.8733071969	-2.8442255918	-1.6389979839	 0.01243
C	 2.9088879716	-2.1351134015	-2.4243782714	-0.23677
N	 3.162704213	-2.531178671	-1.0250366904	-0.324052
H	 1.1835492817	 1.4931745278	 0.673478815	 0.129698
H	 0.1383950607	 1.9323467841	-0.6894369098	 0.121006
H	-0.5411946389	 1.8278662468	 0.9372131455	 0.127146
H	-0.1219005258	-0.632333297	 0.9928058391	 0.1135
H	-1.1670285147	-0.2017481882	-0.3643838592	 0.110033
H	 0.9044447374	-0.2027420965	-1.7116398065	 0.232957
H	 0.3320881429	-2.6102137285	-0.1838620477	 0.136087
H	 1.7076911689	-3.9017762439	-1.8302836556	 0.11212
H	 3.4794459761	-2.6781242396	-3.1716080482	 0.127285
H	 2.7739813609	-1.0790161183	-2.639074292	 0.109697
H	 3.0311179451	-1.7046492525	-0.4416254567	 0.237717
68.6405	78.6775	88.3451	142.1947	148.1925	235.2265	262.0811	297.1395	358.174	397.4181	474.4184	567.2416	624.7673	778.5366	812.7327	820.518	879.7005	917.1682	932.156	964.8063	986.9472	1008.5453	1056.6275	1109.4801	1129.3016	1150.444	1160.5724	1183.8733	1229.5282	1278.7076	1293.9151	1306.2699	1312.8807	1341.2183	1398.9169	1414.8679	1419.4173	1481.2082	1496.5743	1501.212	1512.1454	1522.8073	2343.8378	2971.3608	3026.2848	3037.139	3047.5544	3105.7672	3117.7192	3123.8614	3138.5834	3201.7354	3468.7372	3514.7353
CCNC(C#N)C1CN1	CCN[C@@H](C#N)[C@H]1CN1	
InChI=1S/C6H11N3/c1-2-8-5(3-7)6-4-9-6/h5-6,8-9H,2,4H2,1H3	InChI=1S/C6H11N3/c1-2-8-5(3-7)6-4-9-6/h5-6,8-9H,2,4H2,1H3/t5-,6+/m0/s1
