17
gdb 38224	3.32986	1.7975	1.43771	1.0135	71.93	-0.2472	0.0162	0.2634	911.4105	0.13956	-417.924984	-417.918679	-417.917735	-417.955525	26.206	
C	-0.0169419881	 1.5603499053	 0.1410872496	-0.23504
N	 1.4846913825	 1.2405762259	 0.0689268224	-0.167619
C	 1.1386357783	 0.0461115665	 1.0022193405	-0.240923
C	 0.0208084241	 0.0299751891	-0.0491111485	 0.38105
O	-1.0503409706	-0.8239924827	-0.3330788361	-0.271123
C	-1.3094053793	-0.8110687096	-1.6878582915	 0.104368
N	-0.7114046806	-0.2239448693	-2.6353193562	-0.26478
C	 0.5006318354	 0.588678458	-2.4330866588	-0.222374
C	 1.1076493315	 0.2475723259	-1.0794384509	-0.002811
H	-0.3291853011	 1.9458899436	 1.1137174799	 0.108405
H	-0.3822971827	 2.1906192759	-0.6685727076	 0.116814
H	 1.8792285129	-0.7557768544	 0.9772486783	 0.115329
H	 0.9000554047	 0.3588758621	 2.0206869842	 0.113035
H	-2.1856828905	-1.4233572105	-1.8886617727	 0.128251
H	 1.1877297363	 0.3594145086	-3.2528942431	 0.121044
H	 0.2367618761	 1.645053568	-2.5493748566	 0.12957
H	 1.8571318012	-0.5437069223	-1.162394223	 0.086806
121.4003	319.1565	366.4101	417.9887	448.1693	519.9325	593.2901	621.0561	629.7624	735.4473	787.3742	843.0541	867.2928	900.7591	934.9456	954.7098	988.3014	992.4507	1036.0456	1070.059	1084.2756	1115.4885	1129.5672	1165.357	1177.7667	1188.7264	1220.9762	1236.5906	1240.3983	1281.119	1350.0078	1411.6415	1417.9917	1484.9332	1516.9006	1557.0043	1712.318	3049.9287	3066.1932	3069.6276	3082.7184	3087.7472	3142.7978	3154.4517	3167.7727
C1N2CC11OC=NCC21	C1N2C[C@]31OC=NC[C@@H]23	
InChI=1S/C6H8N2O/c1-5-6(9-4-7-1)2-8(5)3-6/h4-5H,1-3H2	InChI=1S/C6H8N2O/c1-5-6(9-4-7-1)2-8(5)3-6/h4-5H,1-3H2/t5-/m1/s1
