22
gdb 100835	2.38225	0.97	0.81469	4.2127	80.21	-0.2436	0.0381	0.2817	1522.5177	0.191982	-441.521461	-441.51038	-441.509436	-441.55854	39.379	
C	-0.0785510666	 1.4092425786	-0.152821063	-0.410038
C	 0.1715514844	-0.1005517991	-0.0864814542	-0.180063
C	 0.6632861955	-0.5811774471	 1.2836686258	 0.113795
O	-0.2717987268	-0.2893410026	 2.3259967154	-0.451972
C	 0.8904599156	-2.100336451	 1.3427639448	 0.046174
C	 1.6537629795	-2.5217764078	 2.6051401335	-0.40339
N	-0.3980331756	-2.7772767862	 1.2488870757	-0.270388
C	-0.5907583199	-3.9214505544	 0.5475913892	 0.154025
O	 0.2581919007	-4.4982980998	-0.1020228984	-0.335082
H	 0.8177259065	 1.9783556843	 0.120627271	 0.117883
H	-0.3672255039	 1.7137365197	-1.1627430817	 0.126431
H	-0.8926413954	 1.7173359502	 0.513591981	 0.110034
H	-0.7435754199	-0.6444291556	-0.344871201	 0.107539
H	 0.9261865125	-0.37852277	-0.8322123142	 0.106403
H	 1.6270959252	-0.0932346298	 1.5032935763	 0.06742
H	-0.416522079	 0.6605783476	 2.3503390671	 0.290268
H	 1.4609636643	-2.4072600428	 0.4618449486	 0.114382
H	 2.6445512365	-2.055780033	 2.6295921261	 0.111394
H	 1.1099252005	-2.218946219	 3.5040264976	 0.127427
H	 1.7854119541	-3.6064726721	 2.6180453681	 0.132717
H	-1.1552931647	-2.3861509223	 1.7879688713	 0.254929
H	-1.6368498236	-4.2806758178	 0.6264288609	 0.07011
27.5134	84.3621	92.2058	169.6168	185.8517	217.7515	225.1323	248.0712	267.6645	288.7822	315.5863	353.8141	481.2633	513.1635	590.3193	633.7964	755.4168	786.1158	851.651	899.2489	958.6446	978.7795	1027.7578	1033.5175	1047.7087	1078.8875	1135.4447	1155.8976	1170.9458	1189.5414	1248.0755	1290.6205	1317.3748	1349.8978	1371.5593	1390.4934	1402.0333	1410.3609	1423.6328	1431.6615	1479.9755	1491.4945	1495.2855	1500.7113	1510.6108	1522.4628	1797.9295	2927.6024	2968.0127	3024.7673	3036.6136	3040.9758	3071.6217	3084.426	3094.9435	3107.7232	3112.9905	3131.2151	3631.5111	3839.373
CCC(O)C(C)NC=O	CC[C@@H](O)[C@@H](C)NC=O	
InChI=1S/C6H13NO2/c1-3-6(9)5(2)7-4-8/h4-6,9H,3H2,1-2H3,(H,7,8)	InChI=1S/C6H13NO2/c1-3-6(9)5(2)7-4-8/h4-6,9H,3H2,1-2H3,(H,7,8)/t5-,6-/m1/s1
