19
gdb 71770	3.23326	1.85061	1.63348	0.2666	76.88	-0.2092	0.086	0.2952	905.9113	0.16256	-382.047913	-382.041235	-382.040291	-382.078476	28.116	
C	-0.0374469606	 1.5240047476	-0.0037925216	-0.480164
C	-0.0356909941	 0.0185671689	-0.0839553553	 0.314519
C	 0.8990784713	-0.6864177962	-1.0584387352	-0.227982
N	 0.4205913151	-2.0700887026	-1.2206090528	-0.121064
C	 0.2053150203	-2.7722082833	 0.0538422499	-0.046532
C	 0.4599974597	-1.9693338621	 1.3151984031	-0.188769
N	-0.2818677085	-0.703184765	 1.1802707516	-0.155892
C	-1.2441543026	-0.8519487394	 0.0610731149	-0.113048
C	-0.9477362422	-2.1465229616	-0.6585036965	-0.058526
H	 0.9439596932	 1.9002303849	 0.3070548039	 0.120527
H	-0.2771123169	 1.9697282501	-0.9753972966	 0.116776
H	-0.7718844644	 1.8646733106	 0.7298372706	 0.130785
H	 0.8752265733	-0.1913633078	-2.0359344118	 0.109031
H	 1.9420908626	-0.6883749661	-0.7188389728	 0.108383
H	 0.4114849725	-3.8396495059	 0.0364712041	 0.090806
H	 0.0861241159	-2.5053095078	 2.1949619464	 0.111537
H	 1.5233061036	-1.7622260516	 1.4850685569	 0.110574
H	-2.256771054	-0.4904592773	 0.1999750476	 0.087602
H	-1.7061582544	-2.6845953254	-1.2146102066	 0.091439
185.37	234.1321	299.4028	315.1841	440.4555	456.2747	570.1721	654.37	721.5069	726.5805	758.5522	777.6058	810.5554	841.5659	912.7564	928.769	951.0261	960.3485	1004.3613	1013.2549	1031.1758	1049.4726	1079.1495	1094.3004	1119.0997	1125.935	1217.1125	1229.4316	1241.3346	1252.2937	1282.0868	1306.6768	1313.053	1334.4514	1362.1483	1411.1689	1429.4137	1485.6214	1486.7264	1494.3364	1508.6677	3028.2069	3031.3948	3035.6189	3066.1455	3068.8761	3091.3671	3123.4258	3135.7399	3171.9342	3186.8743
CC12CN3C4CN1C2C34	C[C@@]12CN3[C@H]4CN1[C@@H]2[C@@H]34	
InChI=1S/C7H10N2/c1-7-3-8-4-2-9(7)6(7)5(4)8/h4-6H,2-3H2,1H3	InChI=1S/C7H10N2/c1-7-3-8-4-2-9(7)6(7)5(4)8/h4-6H,2-3H2,1H3/t4-,5-,6+,7-,8?,9?/m0/s1
