19
gdb 89226	2.95476	1.71509	1.33592	1.9194	74.5	-0.2131	0.0743	0.2874	1015.6361	0.158793	-422.988787	-422.981009	-422.980065	-423.02054	31.147	
C	 0.0024770987	 1.5275303838	-0.0319268828	-0.405545
C	 0.0361847986	 0.0105209989	 0.0282131217	 0.138839
O	 0.7547245097	-0.5020248564	-1.1114104819	-0.318136
C	 1.5375539858	-1.5969567948	-0.6852854254	 0.43477
C	 1.8479896025	-2.5845487255	-1.7698009057	-0.48234
C	 2.5320595115	-1.3187929189	 0.4361956739	 0.024366
O	 2.1890339667	-0.1054336794	 1.1041498945	-0.300656
C	 0.8075306694	-0.5798823326	 1.2066240547	 0.043005
C	 1.2105502844	-1.9921815235	 0.7304057451	-0.247964
H	 1.0172147399	 1.9225020728	 0.048832919	 0.142642
H	-0.4339720645	 1.8587668748	-0.9778066561	 0.125434
H	-0.6061112272	 1.9290425561	 0.7851367329	 0.109129
H	-0.9887833109	-0.3983174077	 0.0229227075	 0.066409
H	 2.3545338677	-2.0887787985	-2.6035943814	 0.135517
H	 2.5027059934	-3.3770052984	-1.3948745611	 0.120856
H	 0.9312843431	-3.045167691	-2.151694048	 0.127745
H	 3.5614886423	-1.6576843815	 0.4839291961	 0.102858
H	 0.3862299419	-0.4229544609	 2.2005264601	 0.085638
H	 0.925977667	-2.9596194973	 1.1221625067	 0.097433
153.0727	210.1761	225.7709	232.4885	269.0699	318.5382	408.7035	509.282	555.6238	586.2272	679.4655	751.9701	792.326	838.976	847.4034	878.997	890.9874	908.211	946.2201	978.4978	1026.9368	1032.6527	1055.8185	1099.0799	1112.2167	1125.563	1144.3967	1184.0131	1210.8312	1224.2075	1276.902	1297.516	1353.4926	1380.4482	1404.4588	1405.3673	1427.2044	1477.4704	1485.8449	1500.5737	1503.847	2957.3483	3037.3862	3045.1763	3105.3049	3109.2481	3113.7145	3115.0159	3141.3997	3169.7077	3196.9546
CC1OC2(C)C3OC1C23	C[C@H]1O[C@@]2(C)[C@H]3O[C@@H]1[C@@H]23	
InChI=1S/C7H10O2/c1-3-5-4-6(8-5)7(4,2)9-3/h3-6H,1-2H3	InChI=1S/C7H10O2/c1-3-5-4-6(8-5)7(4,2)9-3/h3-6H,1-2H3/t3-,4-,5+,6+,7-/m1/s1
