16
gdb 49109	3.73553	1.45696	1.21994	3.4297	79.26	-0.2323	-0.0937	0.1386	1002.5602	0.124242	-400.633851	-400.626886	-400.625942	-400.665266	27.358	
O	-0.0677198705	 0.2613369402	 0.4552217699	-0.274655
C	 0.059683276	 1.4134816734	 0.0891045213	 0.078705
C	 1.3119828323	 1.9861476838	-0.392263115	 0.131181
C	 1.5501617892	 3.3210251192	-0.5103178993	-0.024894
C	 1.4658220966	 4.134299049	 0.7795369772	-0.274858
C	 3.0159977185	 3.7570767614	 0.8322353124	-0.039271
C	 3.0723961604	 3.5704195269	-0.6301274901	-0.078377
N	 3.5593294434	 2.4821398667	 0.1872173033	-0.113336
C	 2.6650017166	 1.3300822927	-0.1271432442	-0.235799
H	-0.8069741365	 2.1098996476	 0.072519156	 0.073342
H	 1.4068349034	 5.2226773013	 0.6789262838	 0.126597
H	 0.7830387194	 3.7779551713	 1.5531475196	 0.125272
H	 3.7246287099	 4.2609996912	 1.4805555768	 0.122265
H	 3.6373235287	 4.058780782	-1.4145653603	 0.106257
H	 2.5506702502	 0.6418679485	 0.7156074517	 0.14936
H	 3.1324868123	 0.7793310549	-0.9511424232	 0.128211
103.4304	183.1859	223.2965	305.7173	432.0997	487.8583	504.4244	595.1423	674.7046	736.5641	748.8813	786.0596	829.199	852.575	920.7805	933.3375	967.1244	1001.9217	1025.6928	1036.9532	1054.4157	1080.1559	1098.3242	1174.9395	1191.4554	1205.9146	1221.7661	1262.2665	1294.1095	1323.7945	1406.4121	1476.7993	1498.139	1572.9337	1753.2826	2889.1144	3043.8904	3049.2386	3100.3127	3121.8266	3175.0249	3192.8248
O=CC1=C2CC3C2N3C1	O=C[C]1[C]2C[C@@H]3[C@H]2N3C1	
InChI=1S/C7H7NO/c9-3-4-2-8-6-1-5(4)7(6)8/h3,6-7H,1-2H2	InChI=1S/C7H7NO/c9-3-4-2-8-6-1-5(4)7(6)8/h3,6-7H,1-2H2/t6-,7+,8?/m1/s1
