22
gdb 114252	4.88859	0.85205	0.83689	2.2456	84.08	-0.2102	0.0785	0.2887	1502.9	0.193471	-404.306709	-404.297465	-404.296521	-404.341307	34.318	
C	 0.1678475905	 1.5094592047	-0.1195580993	-0.379068
C	 0.0850694721	-0.0114096337	-0.0096391148	-0.119857
N	-1.2826515133	-0.4668419414	 0.129311854	-0.069708
C	-1.994034814	-0.2135391953	 1.3991108014	-0.230385
C	-2.6012099794	-1.6310358684	 1.3164212311	 0.4403
C	-2.8866793161	-2.534662994	 2.5259843394	-0.357969
C	-4.3276984572	-2.5709455301	 1.9832518819	-0.070795
O	-3.9729093123	-1.7074083299	 0.8829704687	-0.313339
C	-1.5319353471	-1.9163844927	 0.2391327836	-0.228684
H	 1.2062327506	 1.8332130764	-0.2394119449	 0.110906
H	-0.4120791397	 1.8643863412	-0.9762467932	 0.126321
H	-0.2292613468	 1.9923211804	 0.7798006542	 0.117888
H	 0.4993052142	-0.4707968778	-0.9158042734	 0.100813
H	 0.7160323493	-0.3575613938	 0.8362351077	 0.065158
H	-1.323049882	-0.1045671719	 2.2694164055	 0.078705
H	-2.7058161305	 0.6180479946	 1.381651321	 0.11107
H	-2.3552278365	-3.4886008723	 2.5265580082	 0.111743
H	-2.7609514187	-2.0544379268	 3.4986377176	 0.111924
H	-4.6836816536	-3.5487076641	 1.6371568903	 0.103352
H	-5.0943108956	-2.1212097542	 2.6253365847	 0.10359
H	-1.8837279787	-2.3992499977	-0.6788981274	 0.109388
H	-0.6793018251	-2.4852116032	 0.6492459834	 0.078645
63.9835	72.8555	105.4233	191.8302	232.5641	256.6402	317.1384	357.1753	388.3257	446.2465	511.0048	711.7875	777.4852	811.9159	850.4418	877.2849	878.8571	927.3745	952.6739	974.9425	985.6547	1028.3697	1042.5996	1108.3492	1126.4629	1136.6296	1156.571	1170.2758	1181.0412	1202.1881	1216.0861	1226.5449	1248.595	1273.3281	1294.8906	1319.9594	1348.4055	1364.0646	1395.0178	1413.9963	1479.1712	1485.4972	1487.9163	1491.3382	1502.3237	1516.2335	1532.3174	2879.7159	2944.2561	2955.5007	3019.1754	3036.8939	3040.6967	3058.5439	3062.4389	3067.9208	3071.2866	3104.4412	3118.3857	3124.987
CCN1CC2(CCO2)C1	CCN1CC2(CCO2)C1	
InChI=1S/C7H13NO/c1-2-8-5-7(6-8)3-4-9-7/h2-6H2,1H3	InChI=1S/C7H13NO/c1-2-8-5-7(6-8)3-4-9-7/h2-6H2,1H3
