19
gdb 117465	5.78616	0.55575	0.52135	3.59	75.13	-0.254	-0.0236	0.2304	2077.5885	0.155599	-460.214424	-460.203831	-460.202887	-460.252669	35.2	
C	 0.1564444808	 1.5229520455	-0.0619757239	-0.391919
C	-0.1023647916	 0.0294111946	-0.0851946557	-0.04548
O	 0.6919884454	-0.5351932249	-1.151556481	-0.24395
C	 0.608024684	-1.867291472	-1.303959591	 0.456073
O	-0.0611031185	-2.5874057162	-0.605376147	-0.356201
C	 1.4432660167	-2.3300949338	-2.4851802206	-0.343311
C	 1.8084946886	-3.8156024192	-2.3864668946	-0.2661
C	 2.2663384834	-4.3760365188	-3.7120287611	 0.160152
O	 3.2802563613	-4.9984929005	-3.8899848338	-0.236874
H	 1.2136909158	 1.7334731323	 0.1216488785	 0.131972
H	-0.1266891881	 1.9843414318	-1.0121933103	 0.131191
H	-0.431044362	 1.9876474335	 0.735295651	 0.126298
H	 0.1793013442	-0.4530471491	 0.8555964137	 0.126638
H	-1.1557776191	-0.2033550399	-0.2699558794	 0.12371
H	 0.8429828891	-2.1449259534	-3.3874004022	 0.138406
H	 2.3276684273	-1.6937693444	-2.5740911385	 0.140971
H	 2.5814787647	-3.9967078717	-1.6355309417	 0.129656
H	 0.9078907213	-4.3639585572	-2.0786963839	 0.149713
H	 1.5641466768	-4.1720552768	-4.5567155685	 0.069056
29.1266	52.0887	59.0653	71.5787	130.8018	155.6607	232.0223	260.665	289.5233	367.9265	420.5352	520.2098	602.9324	708.7856	785.3205	806.344	853.1047	885.0906	944.4936	1024.4412	1051.0923	1091.7962	1096.4196	1135.9127	1182.1678	1190.7954	1213.1784	1263.9989	1291.6016	1315.692	1375.137	1401.7256	1424.0197	1430.0896	1457.5537	1471.5019	1485.7667	1495.7588	1519.2166	1815.158	1840.8006	2838.5589	3022.3377	3035.3156	3047.2719	3053.9937	3092.6247	3096.2103	3115.02	3122.0747	3127.6898
CCOC(=O)CCC=O	CCOC(=O)CCC=O	
InChI=1S/C6H10O3/c1-2-9-6(8)4-3-5-7/h5H,2-4H2,1H3	InChI=1S/C6H10O3/c1-2-9-6(8)4-3-5-7/h5H,2-4H2,1H3
