21
gdb 39236	2.86287	1.59085	1.17853	0.9225	81.88	-0.2206	0.0717	0.2923	1092.388	0.186647	-383.223013	-383.215617	-383.214673	-383.254529	30.674	
C	 0.0142021842	 1.4849117992	 0.0136256697	-0.268864
C	 1.3103109373	 0.7530360787	 0.0527352357	 0.036529
C	 2.1990261723	 0.718196262	 1.2805541637	-0.245405
C	 2.8903680456	-0.6460197756	 1.4260213486	-0.203143
C	 1.974888379	-1.8367233838	 1.67140566	 0.009438
N	 1.1513782508	-1.8649644608	 2.889232767	-0.33987
C	 0.4844168852	-1.8522400122	 1.5735428127	-0.028053
C	-0.3598267723	-0.6226490859	 1.2723297677	-0.178239
N	 0.0380572682	 0.0211479689	 0.0202115314	-0.083159
H	-0.2999069331	 1.9889273949	 0.9272786946	 0.105315
H	-0.3348417061	 1.9531746186	-0.9029782593	 0.11055
H	 1.8633428558	 0.6650981353	-0.8833375241	 0.081745
H	 2.963678768	 1.4985506229	 1.1867986431	 0.096139
H	 1.6352065438	 0.9489817121	 2.1881407114	 0.115859
H	 3.4552043967	-0.8495356396	 0.5064197047	 0.097115
H	 3.6282178611	-0.6045973701	 2.2372277332	 0.099624
H	 2.446241081	-2.781363999	 1.39877821	 0.078632
H	 1.1428217801	-2.7957306526	 3.2963263522	 0.229028
H	 0.0597671213	-2.7914664208	 1.223886872	 0.084844
H	-1.41143103	-0.9157686899	 1.17065231	 0.098615
H	-0.3042447287	 0.0484280578	 2.1408584855	 0.1033
120.3227	219.3678	260.1912	341.0979	369.1308	383.0553	438.1631	468.3565	549.019	650.9377	748.652	769.4621	790.9906	800.9878	880.435	922.0084	937.2163	962.6888	973.4492	997.1528	1011.7069	1050.5414	1072.3776	1100.4566	1118.6129	1127.2585	1149.8025	1169.7281	1185.1942	1220.5803	1236.9128	1271.1788	1278.4726	1286.6503	1323.7931	1341.0124	1371.9049	1390.722	1419.1558	1427.5458	1468.9155	1479.3985	1483.9515	1506.7027	1527.2661	2999.9787	3014.7392	3039.45	3047.4438	3052.275	3084.682	3087.9855	3094.2954	3103.5713	3120.876	3174.1591	3506.569
C1C2CCC3NC3CN12	C1[C@H]2CC[C@H]3N[C@H]3CN12	
InChI=1S/C7H12N2/c1-2-6-7(8-6)4-9-3-5(1)9/h5-8H,1-4H2	InChI=1S/C7H12N2/c1-2-6-7(8-6)4-9-3-5(1)9/h5-8H,1-4H2/t5-,6-,7+,9?/m1/s1
