17
gdb 78006	3.09126	1.27907	1.06515	5.114	75.62	-0.2242	0.0104	0.2346	1145.4611	0.135458	-417.964207	-417.955587	-417.954643	-417.997201	32.074	
C	-0.256973014	 1.4868582064	 0.0292844044	-0.333708
N	 0.1508892148	 0.0916801136	 0.0277225154	-0.063211
C	 1.2411072175	-0.3679670591	-0.8637131115	-0.228921
C	 1.9055787075	-1.0959777064	 0.3199159862	 0.132036
C	 2.4304848601	-2.4185255039	 0.2853169242	 0.192354
N	 2.8600527052	-3.493085823	 0.2489739512	-0.348525
C	 2.2201931421	-0.1073456849	 1.4095730155	 0.046843
O	 2.7675461548	 1.1180291732	 1.0373671802	-0.414431
C	 0.7763830901	-0.48378278	 1.2017037009	-0.123631
H	 0.57687338	 2.1954677559	 0.1421930254	 0.106835
H	-0.7770226619	 1.7110788713	-0.9077716537	 0.128869
H	-0.9678296336	 1.6471387066	 0.8465896249	 0.124507
H	 0.8824511085	-1.0444693111	-1.6440502662	 0.128436
H	 1.8567332902	 0.4234281492	-1.3044264374	 0.125467
H	 2.6729108587	-0.5776904114	 2.2841744258	 0.115862
H	 2.5442288158	 1.7661954828	 1.7141696891	 0.29614
H	 0.1814703544	-0.9571289391	 1.9777236456	 0.115077
120.5775	151.5682	169.6356	204.9407	234.6977	281.8542	316.9528	360.706	446.7288	492.5914	548.6918	598.6336	665.2859	689.8748	828.1543	879.7788	915.6775	983.8478	996.8901	1046.2818	1060.8469	1111.7111	1140.1824	1166.3377	1210.5032	1230.7323	1247.1414	1280.6618	1291.722	1304.8919	1357.8588	1445.9406	1463.5788	1479.5594	1507.3075	1514.8006	2346.6582	2992.0641	3042.9039	3069.074	3097.0834	3098.8347	3101.7045	3154.7938	3808.722
CN1CC2(C#N)C(O)C12	CN1C[C@@]2(C#N)[C@@H](O)[C@@H]12	
InChI=1S/C6H8N2O/c1-8-3-6(2-7)4(8)5(6)9/h4-5,9H,3H2,1H3	InChI=1S/C6H8N2O/c1-8-3-6(2-7)4(8)5(6)9/h4-5,9H,3H2,1H3/t4-,5+,6-/m1/s1
