20
gdb 115018	2.39984	1.43484	1.04081	2.2205	80.63	-0.2264	0.0219	0.2483	1193.3431	0.171865	-403.123877	-403.115238	-403.114294	-403.157363	33.126	
O	-0.0806869866	 1.449441896	-0.0633416098	-0.420509
C	 0.0176315071	 0.0394022199	 0.0874098538	-0.083513
C	-1.3943143813	-0.5434810817	 0.0025587675	-0.08931
C	-2.0149968649	-0.2705861336	-1.3975257651	-0.274563
C	-1.9330999821	-1.6079139614	-2.0939074766	-0.083037
C	-1.592130599	-2.5896454498	-1.2610301864	-0.103072
C	-1.3885143531	-2.0808492262	 0.1233157289	 0.311166
C	-0.6420821177	-2.8180548991	 1.1783983205	-0.299433
N	-2.1135622035	-2.8004903196	 1.2005238921	-0.365146
H	 0.8092795069	 1.8125471293	-0.0837907883	 0.287242
H	 0.6416132809	-0.4064634095	-0.7036370537	 0.092945
H	 0.4758624048	-0.2171347241	 1.0537988606	 0.083612
H	-1.9906027389	-0.0853584628	 0.7989838614	 0.076294
H	-3.0572759951	 0.066728202	-1.3251190181	 0.107989
H	-1.4740043526	 0.5266494171	-1.9166253845	 0.119001
H	-2.1634184939	-1.7319383514	-3.14635666	 0.09354
H	-1.5066628505	-3.6420750903	-1.5041031957	 0.097359
H	-0.198674768	-3.7855913218	 0.9546288793	 0.114128
H	-0.1020681287	-2.2458071212	 1.9286672953	 0.108064
H	-2.4354445738	-2.1313548517	 1.8968015088	 0.227244
62.0264	115.3658	191.9879	240.4379	255.8207	290.4254	308.6115	401.0408	463.8243	533.9747	551.658	740.6295	748.7785	839.7862	855.3143	863.2738	909.7336	929.7549	952.0859	971.6604	977.4406	987.2465	1037.1523	1064.4105	1084.0752	1096.3606	1117.9305	1138.9325	1188.4263	1218.0691	1254.3649	1265.745	1277.1617	1293.4474	1326.8426	1334.7957	1348.5491	1417.4849	1450.8696	1494.875	1509.2371	1518.9535	1683.1864	2974.2144	3008.4065	3021.731	3051.511	3078.4723	3097.6334	3178.8309	3186.3	3214.1714	3484.5666	3832.3953
OCC1CC=CC11CN1	OC[C@H]1CC=C[C@]21CN2	
InChI=1S/C7H11NO/c9-4-6-2-1-3-7(6)5-8-7/h1,3,6,8-9H,2,4-5H2	InChI=1S/C7H11NO/c9-4-6-2-1-3-7(6)5-8-7/h1,3,6,8-9H,2,4-5H2/t6-,7-/m1/s1
