16
gdb 64570	2.24763	1.56307	1.45003	4.0019	69.67	-0.253	-0.0532	0.1998	1004.9761	0.122281	-437.870923	-437.862453	-437.861509	-437.904159	30.681	
C	 0.1018071196	 1.7123273544	 0.1926823766	-0.462944
C	 0.0340495073	 0.1915059418	 0.0353292378	 0.038672
C	-1.3600189081	-0.306337605	 0.3828329054	 0.12526
O	-2.0137792798	-1.0428615414	-0.3078797147	-0.239224
C	 0.6152260037	-0.5076057596	-1.1945323535	-0.04518
C	 2.0724628107	-0.3721466962	-1.2838534777	-0.267846
N	 1.5320657055	-1.3989065409	-0.3356913748	-0.170494
C	 1.0822631702	-0.6589876494	 0.8210861962	 0.367646
O	 1.3824354037	-0.7670067326	 1.9668230362	-0.292562
H	 1.108815555	 2.0912098032	 0.0053770602	 0.134848
H	-0.5851787967	 2.2089096104	-0.4998312963	 0.138897
H	-0.174256853	 1.9958343868	 1.2130784377	 0.146849
H	-1.7414095131	 0.0774451481	 1.3534752821	 0.100693
H	 0.0062058721	-0.9665736065	-1.9612005905	 0.138962
H	 2.5764299669	-0.8307698393	-2.1280083443	 0.149536
H	 2.582947406	 0.4937618061	-0.8719590705	 0.136887
85.5019	127.0769	169.1482	195.3472	227.2233	238.7882	304.8671	413.2054	502.1586	611.3029	626.3677	695.3193	742.4681	795.691	816.1576	888.0851	944.6927	981.3563	1001.4235	1028.863	1059.2724	1118.2012	1143.6629	1152.9112	1178.2688	1220.4727	1249.9197	1356.7755	1404.0549	1424.9487	1487.8231	1496.3342	1510.5534	1817.6732	1909.6623	2905.6839	3042.5731	3112.3626	3123.2461	3127.8532	3212.8777	3225.1834
CC1(C=O)C2CN2C1=O	C[C@@]1(C=O)[C@H]2CN2C1=O	
InChI=1S/C6H7NO2/c1-6(3-8)4-2-7(4)5(6)9/h3-4H,2H2,1H3	InChI=1S/C6H7NO2/c1-6(3-8)4-2-7(4)5(6)9/h3-4H,2H2,1H3/t4-,6-,7?/m1/s1
