16
gdb 15814	3.57586	1.34092	1.0567	1.9937	62.31	-0.2681	-0.0052	0.2629	1123.1215	0.128689	-420.885299	-420.8768	-420.875856	-420.919458	29.034	
C	-0.4249665807	 1.3161552699	 0.3996929078	-0.392187
C	 0.1470919622	-0.0440358548	 0.0524503676	-0.043563
O	 0.3700665556	-0.7521941452	 1.2903824791	-0.237994
C	 0.8649995607	-1.991722234	 1.1717868429	 0.431264
O	 1.135642551	-2.5307139059	 0.1269402531	-0.368092
C	 1.0764104087	-2.650571202	 2.5048783941	-0.03213
C	 1.5895516229	-1.8915927522	 3.662166778	-0.166025
O	 0.2264714029	-2.277724919	 3.5859460162	-0.212271
H	 0.2709334558	 1.8858188601	 1.0219274206	 0.129196
H	-0.611606066	 1.8835772345	-0.5168292621	 0.124947
H	-1.3686585521	 1.2149958216	 0.9425024038	 0.136143
H	-0.5353263463	-0.6319645932	-0.568842486	 0.127125
H	 1.0970361467	 0.0324373848	-0.4859155989	 0.123754
H	 1.2982051601	-3.7112727965	 2.416774881	 0.122235
H	 2.1913239303	-2.4142225634	 4.4039791063	 0.126227
H	 1.7794460782	-0.8265206745	 3.5509604364	 0.131373
50.9312	79.369	126.3861	131.4566	248.4168	273.6669	313.0682	372.7461	484.5614	627.138	761.1547	809.0543	853.9257	881.9385	893.1965	947.8652	1010.6837	1073.2317	1100.1078	1134.6417	1158.327	1169.7002	1182.6981	1263.709	1293.358	1307.5581	1389.368	1406.8271	1428.7995	1486.0967	1496.2116	1514.5507	1519.768	1814.4404	3047.9306	3053.8015	3092.6381	3093.3037	3122.1694	3129.2163	3153.7721	3190.051
CCOC(=O)C1CO1	CCOC(=O)[C@H]1CO1	
InChI=1S/C5H8O3/c1-2-7-5(6)4-3-8-4/h4H,2-3H2,1H3	InChI=1S/C5H8O3/c1-2-7-5(6)4-3-8-4/h4H,2-3H2,1H3/t4-/m1/s1
