17
gdb 34132	2.83898	1.74375	1.37673	0.4714	83.81	-0.2243	-0.0056	0.2187	970.9981	0.136663	-347.465723	-347.458781	-347.457837	-347.496753	28.965	
C	-0.0069314529	-1.1813746135	 0.0408039043	-0.365771
C	-0.0205837914	 0.0221756789	 0.0379211992	 0.072231
C	-0.0355546816	 1.455231495	 0.0323566692	 0.267489
C	-0.7142152771	 2.4041010051	 1.057304279	-0.291892
C	-0.0578067899	 3.3497690822	 0.0287872612	-0.076912
C	 1.2187464978	 2.4348738006	-0.0205734069	-0.095931
C	 1.7151381395	 2.4431040335	-1.4552992138	-0.105306
C	 0.5957716476	 2.4285868539	-2.1830315591	-0.105305
C	-0.5138441025	 2.412401676	-1.146980535	-0.095932
H	 0.0054107957	-2.243101691	 0.0429503043	 0.177649
H	-1.8068473861	 2.3803550958	 1.0841850102	 0.097723
H	-0.295134568	 2.3999611884	 2.0669998601	 0.097722
H	-0.06371229	 4.4414257668	 0.016092999	 0.07448
H	 1.9205685747	 2.4337421706	 0.8138587913	 0.070096
H	 2.7474613935	 2.446043509	-1.7748230107	 0.104782
H	 0.4689597017	 2.4164918167	-3.2561428285	 0.104782
H	-1.5610585013	 2.3885857721	-1.4496479837	 0.070096
129.551	160.1452	352.0985	399.3498	449.3927	503.3894	552.3573	570.6386	630.583	636.8232	695.765	725.5404	781.1701	801.9805	821.3201	901.0289	909.5722	913.5496	948.9611	964.9278	986.8625	1005.2722	1046.344	1065.2918	1122.3453	1125.0738	1139.639	1201.0518	1208.008	1214.0592	1254.8728	1269.998	1315.4088	1331.1664	1517.518	1631.7309	2226.2275	3052.815	3098.6368	3113.7416	3117.0639	3121.2011	3223.5716	3250.1135	3501.963
C#CC12CC3C1C=CC23	C#C[C@@]12C[C@H]3[C@@H]1C=C[C@@H]23	
InChI=1S/C9H8/c1-2-9-5-6-7(9)3-4-8(6)9/h1,3-4,6-8H,5H2	InChI=1S/C9H8/c1-2-9-5-6-7(9)3-4-8(6)9/h1,3-4,6-8H,5H2/t6-,7-,8+,9+
