17
gdb 55971	2.98167	1.10708	0.92402	3.4762	68.58	-0.2535	-0.025	0.2285	1270.7991	0.134264	-459.008763	-458.99973	-458.998786	-459.044143	31.5	
C	 0.7860567156	 0.9565308239	 0.2059252006	-0.490555
C	-0.3318922205	-0.0514560479	 0.0821366916	 0.395342
O	-1.1133110273	-0.2877373812	 0.9731500803	-0.304307
C	-0.4232432257	-0.8355608762	-1.237550701	-0.32024
C	 0.0125606425	-2.2854990051	-1.0070338489	-0.173457
C	 0.1048894741	-3.2580574523	-2.1996715152	-0.112792
O	 1.5397757691	-3.433219455	-1.9572637642	-0.234323
C	 1.5233374697	-2.5334715021	-0.9238790364	 0.456458
O	 2.4464779732	-2.1349440022	-0.2871648679	-0.321659
H	 1.7426760725	 0.4270458228	 0.1177922953	 0.175641
H	 0.7430751602	 1.6854244225	-0.6112019615	 0.135267
H	 0.7302983825	 1.4662326551	 1.1681988579	 0.14358
H	-1.4717726549	-0.8240843444	-1.5525244488	 0.135925
H	 0.1816715177	-0.3737352217	-2.0243176662	 0.112113
H	-0.52098659	-2.6964016402	-0.1462174872	 0.14057
H	-0.4245586868	-4.2071192706	-2.1005547319	 0.133465
H	-0.0645724419	-2.8212142654	-3.1864583365	 0.128973
29.9471	70.5549	110.3382	162.4885	186.8824	235.0151	316.6716	381.9578	489.3009	528.2701	581.0358	705.5463	761.9413	784.6607	832.64	880.899	923.5084	960.3241	997.2134	1056.9684	1086.1251	1122.6317	1129.8413	1154.4581	1167.112	1212.0605	1269.2816	1291.348	1346.3086	1367.6664	1383.6021	1462.997	1476.026	1479.3042	1516.2937	1816.5687	1925.2865	3032.2082	3046.026	3073.2949	3088.8327	3096.1621	3102.9899	3136.841	3155.6545
CC(=O)CC1COC1=O	CC(=O)C[C@H]1COC1=O	
InChI=1S/C6H8O3/c1-4(7)2-5-3-9-6(5)8/h5H,2-3H2,1H3	InChI=1S/C6H8O3/c1-4(7)2-5-3-9-6(5)8/h5H,2-3H2,1H3/t5-/m0/s1
