19
gdb 70641	2.4285	1.57932	1.15504	5.037	79.25	-0.2489	0.0398	0.2887	1109.4073	0.161098	-382.085805	-382.07753	-382.076586	-382.118478	31.927	
C	-0.4459944294	 1.3072274103	-0.0269562668	-0.498578
C	 0.0615346019	-0.1064004647	 0.0667721586	 0.329005
N	-0.517258699	-1.0554493649	 1.0373089319	-0.362459
C	 0.8985612555	-0.6402747951	 1.1705703356	-0.084541
C	 1.8659828332	-1.6781865685	 0.6345530306	-0.222903
C	 1.2510999777	-2.095548549	-0.7207809634	-0.235162
C	 0.4990577543	-0.827318974	-1.2188254934	-0.178982
C	-0.6045573485	-1.1182060678	-2.1312778477	 0.280721
N	-1.4827952376	-1.3303150468	-2.8524348323	-0.335551
H	 0.2703404275	 1.9516674398	-0.5486277867	 0.126307
H	-1.392483823	 1.3480741331	-0.5771966775	 0.148027
H	-0.6135269001	 1.7288050167	 0.9692573666	 0.1191
H	-1.0893986426	-0.5411469845	 1.7027410664	 0.232331
H	 1.1830946069	-0.0095262611	 2.0073469504	 0.089553
H	 2.8514791227	-1.2168919457	 0.4988939324	 0.10363
H	 1.9892893238	-2.534069171	 1.3047601536	 0.113829
H	 1.9936643515	-2.4372548528	-1.4443237023	 0.111454
H	 0.5285272767	-2.8979911732	-0.5708611553	 0.146029
H	 1.1973776484	-0.1652870408	-1.7475549507	 0.11819
103.5182	130.8232	204.0915	240.0937	254.3684	313.4795	385.5161	436.4501	503.1437	543.051	570.7273	646.6608	710.6456	829.768	844.4638	871.4069	913.9249	950.6018	967.9028	997.2029	1038.7173	1045.5454	1048.9623	1100.4866	1118.1501	1132.9192	1187.0547	1239.7219	1275.432	1294.9485	1310.3029	1340.283	1345.1057	1365.1538	1417.94	1445.6353	1481.1489	1484.6708	1495.3918	1501.8068	2355.907	3026.322	3029.3768	3039.2809	3085.3571	3090.6842	3093.1827	3103.1444	3141.3848	3158.7678	3503.321
CC12NC1CCC2C#N	C[C@]12N[C@H]1CC[C@H]2C#N	
InChI=1S/C7H10N2/c1-7-5(4-8)2-3-6(7)9-7/h5-6,9H,2-3H2,1H3	InChI=1S/C7H10N2/c1-7-5(4-8)2-3-6(7)9-7/h5-6,9H,2-3H2,1H3/t5-,6-,7+/m0/s1
