17
gdb 5223	6.74985	1.06199	0.97555	2.1643	70.51	-0.2349	0.0071	0.242	1211.0731	0.143326	-363.905122	-363.897382	-363.896438	-363.938002	27.697	
C	 0.0745462782	 1.5507517829	 0.1159323461	-0.382766
C	 0.053783959	 0.0223552308	 0.0535225648	-0.161112
C	 0.5953431992	-0.5208236025	-1.2835569197	-0.307171
C	 0.6043861226	-2.004961344	-1.3671708375	 0.344273
C	-0.0332386684	-2.9337960982	-2.1220882742	-0.197978
N	 0.3701373336	-4.2104433328	-1.741952018	-0.256196
C	 1.2161271549	-3.9963775999	-0.7910978669	 0.06962
O	 1.4198105713	-2.6904622161	-0.4970969686	-0.180392
H	 1.0925235921	 1.9388758486	-0.0006428943	 0.117144
H	-0.5396330005	 1.9900332659	-0.6781143728	 0.116007
H	-0.3117783903	 1.9123797673	 1.0735172094	 0.11699
H	 0.6511038321	-0.3943116735	 0.8721905932	 0.113707
H	-0.9685539682	-0.3464278572	 0.1981594072	 0.10522
H	-0.0120921802	-0.1419548286	-2.112978413	 0.117012
H	 1.6126767833	-0.1376377368	-1.441099242	 0.118057
H	-0.7499875275	-2.778161311	-2.9129027949	 0.120748
H	 1.7730776488	-4.7158468449	-0.2115540186	 0.146838
65.68	91.3435	117.4025	245.1175	303.5034	323.1472	377.0491	657.8757	670.8796	743.9949	752.5974	832.0037	853.4127	872.1136	897.7443	941.0842	976.7396	1043.3044	1092.1348	1111.6271	1126.3802	1133.5952	1228.9862	1244.0428	1274.2397	1312.0418	1323.7224	1361.0224	1384.5273	1414.5223	1473.476	1493.523	1499.8581	1509.6682	1553.1103	1639.2171	3017.0502	3030.3328	3038.419	3061.4756	3079.9028	3101.0924	3106.463	3262.5969	3274.9037
CCCC1=CN=CO1	CCCc1cnco1	
InChI=1S/C6H9NO/c1-2-3-6-4-7-5-8-6/h4-5H,2-3H2,1H3	InChI=1S/C6H9NO/c1-2-3-6-4-7-5-8-6/h4-5H,2-3H2,1H3
