23
gdb 122948	4.03154	0.56735	0.56041	3.235	79.89	-0.2607	0.0709	0.3316	2063.9571	0.203073	-462.545515	-462.534038	-462.533094	-462.583527	39.989	
C	-0.0029116614	 1.5575403698	-0.0253502252	-0.38602
C	 0.0413379875	 0.025606159	-0.0503837665	 0.01415
C	-1.3584030589	-0.5824600344	 0.0450762297	-0.078369
O	-1.9283468652	-0.1838728446	 1.2824470575	-0.421831
C	 0.7567307825	-0.5016676512	-1.2929358124	-0.057851
O	 2.0949866934	-0.0458819176	-1.2799957645	-0.263024
C	 2.8569652366	-0.4629219196	-2.3972774383	-0.069549
C	 4.2886437087	-0.0202789324	-2.1383420863	-0.058519
O	 4.7964258942	-0.5931100386	-0.9502323599	-0.421524
H	 1.0064924382	 1.9725822812	-0.0641951753	 0.123451
H	-0.5595151242	 1.9426034659	-0.8892851421	 0.102338
H	-0.5003793047	 1.9102529581	 0.8802232289	 0.131745
H	 0.6043252182	-0.3258396979	 0.8243824695	 0.090539
H	-1.9711723655	-0.2355168981	-0.8042019092	 0.08351
H	-1.2935964804	-1.6807516984	-0.0228260671	 0.083432
H	-2.8318241573	-0.5102608423	 1.317565723	 0.28757
H	 0.7361566241	-1.6045170173	-1.3148901316	 0.086094
H	 0.2483627605	-0.1477652302	-2.2069724254	 0.084868
H	 2.8155585619	-1.5595133128	-2.4981801561	 0.093985
H	 2.4691711348	-0.0169162109	-3.3280656403	 0.086826
H	 4.932581241	-0.3486984734	-2.9608095258	 0.106986
H	 4.3215783904	 1.0805836183	-2.1017587291	 0.092731
H	 4.1210403058	-0.4364854627	-0.2795212034	 0.288461
42.3246	50.3567	97.9353	104.0905	127.4253	185.2356	228.5779	241.8907	252.2421	299.2358	317.3727	388.1928	425.2456	450.8124	534.5774	564.0695	840.2006	875.2759	907.7538	928.8918	938.5727	964.5253	1043.4285	1075.0242	1088.4081	1115.5164	1138.3867	1158.1562	1172.7152	1180.8977	1231.3515	1248.2664	1263.7249	1268.3129	1287.1655	1319.3414	1383.0634	1385.1003	1387.764	1400.6225	1436.703	1447.9317	1464.1177	1497.8835	1498.5414	1499.9631	1503.8135	1520.1064	1529.2336	2943.6947	2955.4347	2966.5224	2974.1285	2976.1682	2984.1999	3006.5268	3027.2029	3037.0489	3078.6323	3108.8803	3140.984	3793.561	3835.5359
CC(CO)COCCO	C[C@@H](CO)COCCO	
InChI=1S/C6H14O3/c1-6(4-8)5-9-3-2-7/h6-8H,2-5H2,1H3	InChI=1S/C6H14O3/c1-6(4-8)5-9-3-2-7/h6-8H,2-5H2,1H3/t6-/m0/s1
