18
gdb 68768	2.55238	1.74058	1.21546	3.4009	73.59	-0.259	0.0108	0.2698	1054.4982	0.146592	-439.099772	-439.091122	-439.090178	-439.132667	32.578	
C	-0.0652155574	 1.528354065	 0.025207325	-0.493441
C	 0.1614942782	 0.0443453318	-0.0063931361	 0.321235
C	 0.446048837	-0.6620586555	-1.3201365469	-0.146037
O	 1.055158844	-1.917468926	-0.9758561076	-0.254348
C	 1.382173533	-1.9594203765	 0.3498932274	 0.404447
N	 2.0913597437	-2.8457676543	 0.9014779079	-0.547872
C	 0.7720159508	-0.7840994085	 1.0513828754	 0.234793
C	 1.2805724833	-0.3619158578	 2.3948528064	-0.490699
O	-0.6617808999	-0.7780888495	 0.8282462894	-0.32314
H	 0.7887875433	 2.0630021714	-0.4027235975	 0.130129
H	-0.9556473227	 1.7922610758	-0.5557512917	 0.137003
H	-0.2184952835	 1.8734823782	 1.0496150599	 0.141356
H	-0.4668097127	-0.8667594813	-1.8880086346	 0.128718
H	 1.1396432669	-0.0872596332	-1.9456139351	 0.11498
H	 2.4105853249	-3.5335107257	 0.2166427556	 0.225574
H	 2.3380270982	-0.0886512785	 2.3369451719	 0.135031
H	 0.7088388015	 0.4859579793	 2.7775920662	 0.126063
H	 1.1939107214	-1.1947092146	 3.0978322345	 0.156206
125.3484	153.4886	171.2027	201.518	227.2937	273.0959	305.6915	387.8576	462.0665	503.7399	539.0363	654.8721	679.3123	709.6142	766.5867	853.0329	895.4094	905.6896	949.2112	987.9067	1008.856	1080.531	1087.9246	1131.4526	1140.4805	1208.1802	1229.9091	1239.5328	1351.2041	1388.7116	1415.2033	1418.7601	1462.8017	1473.7684	1485.2759	1493.2121	1502.4989	1512.5863	1779.8195	3032.6063	3041.3218	3053.0857	3088.2267	3102.6577	3122.3431	3133.0699	3138.532	3471.749
CC12COC(=N)C1(C)O2	C[C@@]12CO[C]([NH])[C@]1(C)O2	
InChI=1S/C6H9NO2/c1-5-3-8-4(7)6(5,2)9-5/h7H,3H2,1-2H3	InChI=1S/C6H9NO2/c1-5-3-8-4(7)6(5,2)9-5/h7H,3H2,1-2H3/t5-,6+/m1/s1
