16
gdb 49633	3.37315	1.60041	1.39257	3.4683	67.26	-0.2428	-0.0158	0.2269	929.4179	0.125557	-437.821546	-437.814878	-437.813934	-437.853014	26.155	
O	-0.4461404878	 0.6719703139	 0.6908706085	-0.260649
C	 0.0742926304	 1.1978535241	-0.2601452793	 0.158978
C	 1.3359080005	 2.0294206991	-0.1676301598	-0.073899
C	 1.3040822185	 3.292610351	-1.0488678731	-0.101569
N	 0.0024502042	 3.865328308	-0.5496299109	-0.327305
C	 0.7873901285	 4.1865511378	 0.6719427232	-0.056137
C	 2.1332294621	 4.2578068797	-0.0646431884	 0.091032
O	 2.8104770077	 3.4633757696	 0.9094828826	-0.291966
C	 1.5056600532	 2.8468248245	 1.1296626286	 0.069699
H	-0.328643577	 1.0622289202	-1.2874876798	 0.078832
H	 2.2138754723	 1.3941587233	-0.326195376	 0.112023
H	 1.4577641752	 3.2181195536	-2.1235735931	 0.081934
H	-0.1949411865	 4.7400099662	-1.0345773515	 0.224781
H	 0.4007076112	 4.8812621495	 1.4143731286	 0.093297
H	 2.6692353408	 5.1312094099	-0.4355745471	 0.092704
H	 1.3802340268	 2.3710815595	 2.0976744674	 0.108245
79.6979	174.5334	187.0428	403.715	502.5625	543.7836	651.6233	691.3705	744.9328	772.3612	822.4592	843.9359	861.9443	899.4883	930.9239	951.486	962.3799	996.8933	1003.4649	1023.0217	1063.1759	1085.8068	1128.9152	1160.955	1163.72	1179.0028	1206.3531	1241.7922	1257.2746	1301.9331	1305.9571	1347.9748	1353.7354	1423.8783	1821.469	2891.0841	3066.4271	3124.3277	3142.7353	3149.9488	3178.0945	3471.0573
O=CC1C2NC3C2OC13	O=C[C@H]1[C@H]2N[C@@H]3[C@H]2O[C@H]13	
InChI=1S/C6H7NO2/c8-1-2-3-6-4(7-3)5(2)9-6/h1-7H	InChI=1S/C6H7NO2/c8-1-2-3-6-4(7-3)5(2)9-6/h1-7H/t2-,3+,4-,5+,6-/m0/s1
