20
gdb 66928	2.23321	1.9422	1.52622	2.8996	78.05	-0.2303	0.0675	0.2978	991.2011	0.169814	-403.091107	-403.082537	-403.081593	-403.12337	34.075	
C	 0.0020525062	 1.5033104622	 0.0664083516	-0.517072
C	-0.0596087122	 0.0090217135	 0.0331571642	 0.327298
C	 0.117023355	-1.0098040654	 1.1015324355	-0.11281
C	-0.4265705946	-2.0737356648	 0.0793343005	-0.164287
C	 0.9961188128	-2.0798670876	-0.488017673	-0.155791
N	 1.2410468231	-0.7432399839	 0.1581103674	-0.200788
C	-1.0814527491	-0.8732778646	-0.68548613	 0.387079
C	-2.5197860655	-0.6037116362	-0.254529547	-0.46905
O	-0.9591832635	-0.8412298102	-2.0952483951	-0.483354
H	 0.7859050007	 1.8353647165	 0.7518986281	 0.133264
H	 0.2319750294	 1.900107902	-0.9279536764	 0.135245
H	-0.9501722178	 1.9348711844	 0.3929212356	 0.115423
H	 0.1844997993	-0.9457302339	 2.1794331109	 0.094411
H	-0.9996803712	-2.9765232235	 0.2899348205	 0.061914
H	 1.6522999883	-2.8122261702	-0.0108844853	 0.100367
H	 1.1116999559	-2.1033709015	-1.5750021769	 0.111232
H	-2.6233590399	-0.6142790061	 0.8338905447	 0.127388
H	-2.85941194	 0.367645089	-0.6271782948	 0.126838
H	-3.1897230987	-1.3731418578	-0.6589112447	 0.106888
H	-1.7095400182	-1.3063573917	-2.4800286858	 0.275807
172.0292	187.173	219.7458	233.7292	249.1816	272.9068	297.5904	373.0821	413.2621	506.4699	576.6602	617.6297	649.5451	760.4455	787.4385	833.9034	839.8769	913.891	933.445	957.3445	980.0529	997.0061	1021.0384	1043.3848	1084.4719	1100.0165	1142.0101	1157.9209	1167.9285	1179.189	1209.0916	1237.2927	1251.8102	1310.9888	1368.5712	1402.1528	1408.2413	1438.6824	1483.1279	1488.0765	1493.9071	1498.0485	1501.462	3022.9714	3035.2917	3056.412	3088.7388	3097.4097	3113.7078	3116.8943	3118.5331	3120.3679	3203.3387	3806.0785
CC12C3C(CN13)C2(C)O	C[C@]12[C@H]3[C@H](CN13)[C@]2(C)O	
InChI=1S/C7H11NO/c1-6-5-4(3-8(5)6)7(6,2)9/h4-5,9H,3H2,1-2H3	InChI=1S/C7H11NO/c1-6-5-4(3-8(5)6)7(6,2)9/h4-5,9H,3H2,1-2H3/t4-,5+,6+,7-,8?/m0/s1
