21
gdb 68356	2.69588	1.74253	1.30077	1.0645	83.25	-0.2336	0.0157	0.2493	1051.2756	0.18371	-387.080542	-387.072605	-387.071661	-387.112294	32.627	
C	-0.0465503887	 1.5801865841	-0.0619070797	-0.438246
C	 0.0747354303	 0.0677647965	-0.054370815	 0.413845
C	 1.2440630421	-0.5894839451	-0.8455432402	-0.283507
C	 1.3667434026	-1.6464399721	 0.2938281998	-0.066352
C	 0.6359747397	-0.6239233058	 1.2250617838	-0.242368
C	 0.5452029537	-2.8788713223	 0.0274544551	-0.066133
C	-0.655318489	-2.8710405003	-0.5519320379	-0.072589
C	-1.3917287948	-1.6544074683	-1.0663457798	-0.126077
O	-1.2257086411	-0.4286731433	-0.3744956495	-0.311892
H	 0.8887130916	 2.0500316806	 0.2560924634	 0.105666
H	-0.2965955893	 1.9400433856	-1.065211097	 0.116756
H	-0.8437374772	 1.896925069	 0.6179506194	 0.124126
H	 1.0554577328	-0.9482557035	-1.8594670435	 0.103705
H	 2.1076909781	 0.0805659112	-0.866682012	 0.098219
H	 2.3824260291	-1.9189182129	 0.5875745453	 0.062351
H	 1.3419843911	 0.0190801717	 1.7596307989	 0.090337
H	-0.1071494238	-1.0195468223	 1.9196092081	 0.101497
H	 0.9639568413	-3.8292783182	 0.3486078368	 0.085867
H	-1.1736414318	-3.8134157687	-0.7153097271	 0.089519
H	-1.1609446981	-1.5233136812	-2.1381839156	 0.102404
H	-2.4691396985	-1.8459846048	-1.0147625634	 0.112873
153.381	187.3029	234.8816	283.7033	321.3749	359.7686	396.364	433.0113	471.0935	535.2162	641.9267	698.275	759.3433	799.8722	808.1234	845.9108	889.4277	899.8098	918.9136	969.9055	976.8879	994.7663	1011.2258	1045.6973	1082.4411	1120.2806	1143.2492	1155.2288	1194.8842	1210.1419	1244.6132	1250.84	1262.4884	1283.5442	1312.3726	1364.9867	1403.6903	1408.7572	1414.3217	1461.2286	1482.0814	1483.5416	1492.3625	1502.7535	1718.8446	2946.9788	3035.248	3051.8029	3058.4752	3063.6855	3081.8334	3107.1072	3112.7719	3119.959	3125.0087	3141.728	3166.1465
CC12CC(C1)C=CCO2	C[C@@]12C[C@@H](C1)C=CCO2	
InChI=1S/C8H12O/c1-8-5-7(6-8)3-2-4-9-8/h2-3,7H,4-6H2,1H3	InChI=1S/C8H12O/c1-8-5-7(6-8)3-2-4-9-8/h2-3,7H,4-6H2,1H3/t7-,8+
