21
gdb 68185	2.9451	1.33185	1.30539	2.4958	77.74	-0.2474	0.0722	0.3196	1099.5911	0.182284	-424.220541	-424.211964	-424.21102	-424.25272	35.333	
C	-0.1288360345	 1.5295057586	 0.0000993427	-0.461447
C	 0.0534910837	 0.0128048485	 0.0067766957	 0.434534
O	-1.2261822467	-0.618475172	-0.0258275557	-0.48402
C	 1.0167290028	-0.536806677	-1.1057626013	-0.343726
C	 2.0224596687	-1.2925938325	-0.2094581686	 0.422297
O	 3.0310074074	-2.0344432103	-0.8215428604	-0.485364
C	 1.0958531865	-2.0062643695	 0.8038538176	-0.266234
C	 0.7987632154	-0.5421601504	 1.2422252216	-0.045294
C	 2.2903036714	-0.2439950949	 0.9176689083	-0.302528
H	 0.8212921857	 2.0626013079	 0.0899186681	 0.118055
H	-0.5985094061	 1.8559086708	-0.9364872088	 0.103983
H	-0.7778038002	 1.8316898736	 0.8278538124	 0.123408
H	-1.7038605277	-0.280604125	-0.7906176802	 0.27267
H	 0.4888151432	-1.2076536832	-1.7888622132	 0.099648
H	 1.4969076335	 0.2581051493	-1.6887909435	 0.079911
H	 3.4618117406	-1.4782160587	-1.4794340242	 0.276022
H	 0.2673567557	-2.6027093748	 0.4214633553	 0.109881
H	 1.667403772	-2.5580865244	 1.5528178248	 0.098292
H	 0.3596834377	-0.3097909797	 2.2113744371	 0.065561
H	 2.9650136617	-0.6341994832	 1.6821750625	 0.102914
H	 2.5834252992	 0.7716551268	 0.6362003797	 0.081437
159.8143	232.0044	243.275	245.977	278.1681	321.9883	367.3124	381.7291	441.1949	468.1529	494.19	527.4526	556.3235	664.8425	754.6989	815.2371	844.4345	905.2896	913.2394	930.3054	948.7911	964.8603	996.0398	1008.8185	1033.7324	1066.3531	1097.2509	1128.1712	1139.7018	1178.9536	1195.6832	1221.307	1225.087	1240.0989	1254.9227	1289.3539	1312.3737	1379.8558	1386.5856	1407.8449	1480.9987	1483.4465	1492.7909	1496.2484	1529.8201	3024.0211	3031.3244	3055.7569	3080.0377	3090.8857	3096.1861	3118.6017	3123.508	3128.3783	3146.8578	3804.8711	3808.2775
CC1(O)CC2(O)CC1C2	C[C@@]1(O)C[C@]2(O)C[C@H]1C2	
InChI=1S/C7H12O2/c1-6(8)4-7(9)2-5(6)3-7/h5,8-9H,2-4H2,1H3	InChI=1S/C7H12O2/c1-6(8)4-7(9)2-5(6)3-7/h5,8-9H,2-4H2,1H3/t5-,6-,7-/m1/s1
