18
gdb 75309	2.35825	1.66961	1.16869	4.191	82.67	-0.2421	0.0042	0.2463	1092.6954	0.148489	-364.839126	-364.830977	-364.830032	-364.871591	31.374	
C	-0.0347786869	 1.4950547544	 0.0615649388	-0.503223
C	-0.0176639673	 0.0019876786	-0.0086957947	 0.255039
C	 0.0397032869	-0.7777118418	-1.0925863598	-0.179608
C	 0.0049377501	-2.2554566681	-0.7738427308	-0.27921
C	 0.0546652407	-2.2987390804	 0.7515805952	-0.083856
C	 1.2303721883	-1.6893109228	 1.4498607669	-0.309725
C	-0.0272959381	-0.8449345684	 1.2389294329	 0.134334
C	-0.8077810091	-0.4480544865	 2.3744409947	 0.197934
N	-1.4366892838	-0.110619222	 3.2858158276	-0.357527
H	 0.8370710005	 1.8774256031	 0.6066613418	 0.134147
H	-0.0389742609	 1.9381851608	-0.937087723	 0.127884
H	-0.9197270149	 1.8517289104	 0.6016059696	 0.150209
H	 0.1207386858	-0.4055502433	-2.1078576306	 0.098229
H	-0.9107521035	-2.7261504714	-1.154622195	 0.119547
H	 0.8437115763	-2.8011927345	-1.2245183189	 0.11772
H	-0.4981649308	-3.0657969245	 1.279323179	 0.114409
H	 1.432355988	-2.0248408267	 2.4609880994	 0.136467
H	 2.1025725987	-1.3983045671	 0.8739992869	 0.12723
121.4657	140.9526	187.3279	212.1823	283.4553	316.369	377.3074	484.7332	531.6456	576.1084	614.1357	621.0167	723.6252	817.4386	827.333	839.3836	907.349	950.1119	966.4795	1007.6755	1034.5893	1065.0388	1071.3522	1083.1673	1091.5215	1152.0998	1191.5244	1238.4639	1266.446	1320.912	1334.1041	1385.3927	1418.2305	1471.4858	1477.3399	1483.8911	1488.6013	1712.0092	2346.	3020.4529	3026.1154	3048.1956	3076.0393	3122.0204	3132.2029	3193.239	3195.6369	3227.1583
CC1=CCC2CC12C#N	CC1=CC[C@H]2C[C@@]12C#N	
InChI=1S/C8H9N/c1-6-2-3-7-4-8(6,7)5-9/h2,7H,3-4H2,1H3	InChI=1S/C8H9N/c1-6-2-3-7-4-8(6,7)5-9/h2,7H,3-4H2,1H3/t7-,8+/m0/s1
