16
gdb 26882	3.08667	1.37992	0.95926	3.8335	77.56	-0.1989	-0.0252	0.1737	1168.2699	0.124595	-437.964759	-437.956205	-437.95526	-437.99853	31.344	
C	-0.0370043098	 1.5640931126	 0.0143076818	-0.491386
C	-0.0077257394	 0.057871507	 0.0037314189	 0.118969
C	-1.1659881643	-0.6761459043	-0.0034902592	 0.439815
O	-2.3663725785	-0.0550485546	-0.0000476484	-0.408667
N	-1.1337580235	-2.0361445042	-0.0112052889	-0.457866
C	 0.0371065494	-2.8490345405	-0.0110348659	 0.419889
O	-0.0897229539	-4.0624448532	-0.017273875	-0.404985
C	 1.2425789559	-2.0622602635	-0.0030197243	-0.281048
C	 1.1957305058	-0.6961760268	 0.0042740044	-0.093219
H	 0.9732030602	 1.9624380006	-0.1102805901	 0.123279
H	-0.6586581296	 1.9656236378	-0.7927523148	 0.13354
H	-0.4383010904	 1.9635514162	 0.9531179407	 0.132443
H	-3.0877849522	-0.6915116691	-0.0446308458	 0.305057
H	-1.9893069912	-2.5765204826	-0.0100930186	 0.247838
H	 2.1785241808	-2.6050595597	-0.0041998594	 0.110812
H	 2.1301036908	-0.1403247256	 0.0085485645	 0.105528
39.4951	123.2283	177.6008	207.5092	276.8111	291.5156	353.1904	439.7515	471.4245	528.8563	586.4837	590.5999	697.8218	752.1105	752.7461	773.4007	832.9092	944.929	985.8145	997.3073	1066.561	1129.7346	1156.8266	1214.5716	1250.1553	1287.6844	1338.1564	1419.6137	1453.0896	1480.491	1482.7526	1501.2254	1592.816	1686.8044	1786.267	3029.4865	3080.5116	3115.5465	3161.5546	3223.6099	3585.0418	3824.9819
CC1=C(O)NC(=O)C=C1	Cc1c(O)[nH]c(=O)cc1	
InChI=1S/C6H7NO2/c1-4-2-3-5(8)7-6(4)9/h2-3H,1H3,(H2,7,8,9)	InChI=1S/C6H7NO2/c1-4-2-3-5(8)7-6(4)9/h2-3H,1H3,(H2,7,8,9)
