19
gdb 107214	3.65559	1.28733	1.13357	2.4045	74.04	-0.238	0.0721	0.3101	1119.857	0.159836	-422.985602	-422.97774	-422.976796	-423.017985	31.335	
O	-0.0156614406	 1.4377890328	 0.304639545	-0.417132
C	-0.0107315347	 0.0732847125	-0.0794536606	-0.133773
C	-1.3824944653	-0.5385717578	-0.009497541	 0.4098
C	-1.9622778906	-1.1339556629	 1.24476872	-0.352009
C	-1.7226768059	-2.008014968	 0.0239917724	-0.133988
C	-2.8178237126	-2.2020065308	-1.0040822904	-0.070715
C	-4.1693990739	-1.5387496181	-0.8090939472	-0.327435
C	-3.0814647378	-0.8299819988	-1.5706541906	 0.092488
O	-2.2834219568	 0.1133174408	-0.8921006261	-0.312843
H	-0.6865872915	 1.868375702	-0.2372325007	 0.292078
H	 0.3870406892	-0.0498024551	-1.0998137384	 0.087926
H	 0.6631840805	-0.4459253042	 0.6094607225	 0.104743
H	-1.2813379054	-1.2701193907	 2.0789654467	 0.116971
H	-2.9722925361	-0.8737247379	 1.5359824861	 0.11994
H	-0.9509771371	-2.7673699244	 0.0738879641	 0.093707
H	-2.7527753302	-3.0795380224	-1.6355740105	 0.09433
H	-4.9928158525	-1.935868348	-1.3940981092	 0.114067
H	-4.4560468325	-1.1710817231	 0.1685329301	 0.122842
H	-3.1955728564	-0.6065003758	-2.6260087322	 0.099001
79.1106	131.0364	221.8866	283.7883	361.6019	370.8385	411.9433	473.4209	515.1692	676.0236	705.6118	715.9366	786.0439	804.2119	838.7585	887.0268	924.9963	954.5021	974.492	983.046	1009.3369	1020.7013	1041.3482	1060.8962	1075.3616	1090.0213	1096.219	1112.0517	1150.5827	1179.0327	1199.0351	1259.1339	1278.1914	1344.1496	1370.42	1377.5815	1387.4321	1439.1208	1471.5856	1490.0063	1497.3659	2974.6606	3078.732	3134.3718	3139.713	3164.5518	3173.7477	3188.5899	3222.4378	3229.245	3805.0183
OCC12CC1C1CC1O2	OC[C@]12C[C@H]1[C@H]1C[C@H]1O2	
InChI=1S/C7H10O2/c8-3-7-2-5(7)4-1-6(4)9-7/h4-6,8H,1-3H2	InChI=1S/C7H10O2/c8-3-7-2-5(7)4-1-6(4)9-7/h4-6,8H,1-3H2/t4-,5+,6-,7-/m1/s1
