21
gdb 52794	2.81049	0.98281	0.84103	1.5017	89.95	-0.2246	0.0437	0.2684	1494.7767	0.178343	-387.060487	-387.049394	-387.04845	-387.097269	39.964	
C	 0.0966416019	 1.496063863	 0.0205667116	-0.501324
C	 0.0387256252	 0.0415516194	 0.0273005243	 0.048979
C	-0.0161919031	-1.1630002459	 0.0255863495	 0.071196
C	-0.0160569076	-2.6041750288	 0.0202520025	 0.163067
O	 1.0501348177	-3.1800918602	-0.6971479852	-0.454412
C	-0.5136443499	-3.3590486397	 1.2492971971	-0.383669
C	-1.3183531478	-3.3916656331	-0.0322250127	 0.287915
C	-2.6257501318	-2.6245569416	-0.0696192354	-0.450846
C	-1.3295227196	-4.6767720255	-0.8390575688	-0.444462
H	 0.9803546809	 1.850451833	-0.5217280136	 0.150207
H	-0.7836655009	 1.9292691068	-0.4674104257	 0.149324
H	 0.1479996316	 1.9023615136	 1.036997848	 0.146629
H	 1.8671516877	-2.8705484012	-0.2906815676	 0.283052
H	 0.054338471	-4.2453794118	 1.5125408064	 0.111899
H	-0.8871009386	-2.7807067405	 2.0875420294	 0.112239
H	-2.5656467038	-1.6916255312	 0.4953924145	 0.122795
H	-2.9032955847	-2.374214923	-1.09977528	 0.117505
H	-3.4330674726	-3.2315659403	 0.3562481757	 0.111888
H	-2.0793814236	-5.3668117692	-0.4350880076	 0.109203
H	-1.5900953032	-4.4765548121	-1.8844073072	 0.116657
H	-0.3577623587	-5.1709749616	-0.8260157651	 0.132161
25.3046	85.0348	92.8266	180.7358	196.9206	211.1548	245.5333	278.77	295.5357	334.6023	359.0677	380.7228	394.0475	460.2185	555.6698	567.5295	611.7698	728.5262	848.6079	897.8087	921.4281	975.6069	980.9514	1028.4745	1044.3487	1050.7189	1053.2048	1054.2622	1149.6174	1155.5842	1250.2952	1302.0442	1316.0584	1394.7043	1409.4811	1414.6012	1422.4747	1472.8545	1476.2107	1479.8566	1481.4619	1489.4606	1501.9722	1511.5031	2358.5527	3024.9256	3026.7925	3031.9927	3084.1574	3084.4218	3086.8693	3088.0846	3121.0521	3126.3387	3143.3578	3219.8137	3799.6466
CC#CC1(O)CC1(C)C	CC#C[C@@]1(O)CC1(C)C	
InChI=1S/C8H12O/c1-4-5-8(9)6-7(8,2)3/h9H,6H2,1-3H3	InChI=1S/C8H12O/c1-4-5-8(9)6-7(8,2)3/h9H,6H2,1-3H3/t8-/m1/s1
