14
gdb 46659	2.49188	1.61275	1.43782	6.262	65.5	-0.2834	-0.0181	0.2653	947.1154	0.10257	-436.725703	-436.718563	-436.717619	-436.757682	26.439	
O	 0.0169713899	 0.011174541	 0.1904478071	-0.328944
C	 0.0140799425	 1.1873399032	-0.0116129097	 0.460836
O	-1.1251033011	 1.8960429382	-0.2625213931	-0.219627
C	-0.8449922785	 3.2352884683	-0.6945950681	-0.104331
C	 0.647579627	 3.4545236909	-0.493386282	-0.092933
C	 1.1606498901	 3.2956743486	 0.9208719733	-0.191506
C	 0.2698195139	 3.3379147237	 2.0491004604	 0.315942
N	-0.4474921467	 3.4051468338	 2.9535446047	-0.334371
C	 1.1905229172	 2.1241871839	-0.0614544278	-0.207768
H	-1.1122834209	 3.3237405111	-1.7523620823	 0.133716
H	-1.4669650456	 3.917425342	-0.108373452	 0.149908
H	 1.1781187901	 4.1191254535	-1.1628846469	 0.127244
H	 2.1341204856	 3.7324685534	 1.1182435599	 0.152483
H	 2.1507580066	 1.7155898883	-0.3433665435	 0.139352
98.2188	127.7633	181.778	270.0726	358.3006	467.8298	532.9909	575.3976	673.133	716.9987	771.4733	785.8512	816.0824	864.2428	952.0691	979.6275	993.7255	1005.8613	1073.3194	1094.7444	1110.3059	1169.8047	1186.1709	1238.9761	1317.8875	1344.9203	1374.5437	1421.1909	1515.1101	1892.8037	2358.6389	3053.9813	3102.9109	3170.5585	3201.6557	3224.2732
O=C1OCC2C(C#N)C12	O=C1OC[C@H]2[C@@H](C#N)[C@@H]12	
InChI=1S/C6H5NO2/c7-1-3-4-2-9-6(8)5(3)4/h3-5H,2H2	InChI=1S/C6H5NO2/c7-1-3-4-2-9-6(8)5(3)4/h3-5H,2H2/t3-,4+,5-/m1/s1
