20
gdb 93088	2.22843	1.48383	0.9354	1.4017	76.99	-0.239	0.018	0.257	1255.971	0.17116	-440.29264	-440.283596	-440.282651	-440.326526	33.972	
C	-0.0851333693	 1.5357815648	-0.0182969124	-0.398341
C	-0.0369580649	 0.0134923486	-0.057449689	 0.12716
C	 0.823898914	-0.5143492498	-1.1989109184	-0.189007
C	 0.6841972693	-2.014776776	-1.4135795471	 0.080892
O	 1.2948288112	-2.3047563036	-2.6658299696	-0.434171
C	 1.3546100697	-2.8382725902	-0.3054463771	-0.172891
N	 0.8548046847	-2.7392294877	 1.0501261077	-0.254518
C	 0.5139899261	-1.6807029619	 1.6428435758	 0.121382
O	 0.4126118451	-0.3810346857	 1.2548151234	-0.242623
H	 0.9229860921	 1.9492811658	 0.0827838473	 0.128504
H	-0.5296789484	 1.9249212871	-0.9384849348	 0.120286
H	-0.6828062219	 1.8756832306	 0.8308211186	 0.127339
H	-1.0574952323	-0.3803663488	-0.1767762634	 0.08529
H	 0.5137930042	-0.0123241515	-2.1217416551	 0.113141
H	 1.8755874123	-0.2550009636	-1.0257599884	 0.108458
H	-0.3898860488	-2.2676742866	-1.4434129202	 0.067775
H	 1.2390374227	-3.2546612248	-2.8130394826	 0.284173
H	 1.303227461	-3.897835623	-0.5910483371	 0.090915
H	 2.4232037883	-2.5770341942	-0.3031251094	 0.121501
H	 0.2823923048	-1.7371739295	 2.7081958716	 0.114737
72.1598	94.9047	182.9773	225.669	266.2449	289.795	324.4657	371.461	392.213	443.2817	484.402	498.9391	535.1143	787.0602	801.2021	887.2243	899.7661	948.1512	970.3254	985.9567	1010.3757	1050.2401	1090.7795	1121.5439	1144.069	1155.7989	1163.7967	1225.4172	1258.6173	1286.1105	1318.9741	1347.9657	1373.548	1389.4172	1400.0045	1412.2568	1439.5942	1449.633	1471.7194	1486.0295	1492.2708	1500.3995	1760.0026	2949.4771	2993.2826	2997.7477	3029.3714	3036.9741	3047.1632	3085.1487	3118.8042	3120.839	3129.348	3812.3377
CC1CC(O)CN=CO1	C[C@H]1C[C@@H](O)CN=CO1	
InChI=1S/C6H11NO2/c1-5-2-6(8)3-7-4-9-5/h4-6,8H,2-3H2,1H3	InChI=1S/C6H11NO2/c1-5-2-6(8)3-7-4-9-5/h4-6,8H,2-3H2,1H3/t5-,6+/m0/s1
