20
gdb 102759	2.65878	0.89862	0.74875	4.5409	75.66	-0.2402	-0.0244	0.2158	1544.1773	0.169079	-440.254545	-440.244392	-440.243448	-440.290963	35.436	
O	 0.0877229427	 1.118911136	-0.5859213919	-0.420837
C	 0.0387327008	-0.1184699089	 0.106009934	-0.100438
C	-1.4225015435	-0.6000504327	 0.1157410301	-0.074194
C	-1.5576941455	-2.0287503077	 0.6633071257	-0.243962
C	-2.9009194553	-2.6661632382	 0.3740728903	 0.022556
C	-3.1188521862	-3.3992529571	-0.8984513994	-0.238443
N	-3.0416039293	-4.1305363682	 0.380998698	-0.324388
C	-2.27659719	 0.4070838629	 0.8705618264	 0.152633
O	-3.0087541578	 0.1315230122	 1.7890347394	-0.248243
H	 0.9715961013	 1.486460525	-0.4947409032	 0.29371
H	 0.6599692923	-0.8796944175	-0.3904066283	 0.097533
H	 0.4052983914	-0.0182190779	 1.1399726081	 0.101236
H	-1.756802668	-0.5643584306	-0.9321834672	 0.111345
H	-0.7691857026	-2.6531183865	 0.2214238871	 0.083151
H	-1.3891702366	-2.0136904284	 1.7468090915	 0.118573
H	-3.7456521902	-2.1546289701	 0.8252613721	 0.117956
H	-4.0964029189	-3.4065156763	-1.3721884244	 0.119402
H	-2.2831068689	-3.474534952	-1.5910983355	 0.10277
H	-2.1239929263	-4.5628955323	 0.4688802772	 0.224174
H	-2.1650027394	 1.4526816381	 0.51838068	 0.105466
57.6126	60.8624	89.5392	112.6316	145.0701	212.233	255.2106	291.8616	331.3326	362.9795	423.5665	494.2944	646.721	801.7509	826.9099	853.5241	886.8882	916.425	954.5989	969.6722	996.0432	1037.43	1071.7652	1099.3466	1125.6352	1146.6498	1171.5199	1192.9439	1208.3984	1245.3351	1255.1502	1271.1051	1297.0815	1306.3245	1349.7207	1372.2816	1416.9064	1424.1272	1450.5476	1473.181	1511.8911	1526.7244	1819.2742	2932.7011	2970.1302	2997.3588	3011.9016	3013.7652	3063.2017	3101.1967	3161.2351	3187.2342	3481.9351	3833.5028
OCC(CC1CN1)C=O	OC[C@@H](C[C@H]1CN1)C=O	
InChI=1S/C6H11NO2/c8-3-5(4-9)1-6-2-7-6/h3,5-7,9H,1-2,4H2	InChI=1S/C6H11NO2/c8-3-5(4-9)1-6-2-7-6/h3,5-7,9H,1-2,4H2/t5-,6-/m0/s1
