17
gdb 24298	3.99824	1.59466	1.24056	2.7858	79.53	-0.1938	0.0367	0.2305	987.6429	0.14049	-380.883286	-380.876846	-380.875902	-380.913958	26.601	
C	-0.0409614655	 1.4686733892	 0.0028803656	-0.187177
C	 1.4308993968	 1.881284709	-0.0343653508	-0.032023
N	 2.1865630891	 1.4804969505	 1.1657514939	-0.331171
C	 2.270625076	 0.6485333449	-0.0741665662	-0.238474
C	 1.3255832968	-0.4840834283	-0.0619807744	 0.426671
C	 1.2539389149	-1.8582571013	-0.0569840532	-0.329297
C	-0.1294617972	-2.192422669	 0.0274470134	-0.139078
C	-0.8526043324	-1.0164496567	 0.0772374838	-0.130732
N	 0.0449912241	 0.0126235535	 0.0116556337	-0.00871
H	-0.5468411695	 1.8430003187	 0.8988313656	 0.130884
H	-0.5782015618	 1.8288263877	-0.8826315799	 0.116348
H	 1.7036773211	 2.7874135772	-0.5633561782	 0.097625
H	 3.0224289485	 2.0596723375	 1.2310183811	 0.22982
H	 3.2080565796	 0.6011919683	-0.6152672209	 0.100289
H	 2.0846586046	-2.54567144	-0.0938686895	 0.092481
H	-0.5491127811	-3.1869682505	 0.0471775731	 0.090845
H	-1.9143802138	-0.8391872604	 0.1390153429	 0.1117
143.4871	186.9191	344.5113	426.378	445.6724	610.5553	618.078	695.8735	704.1165	731.5122	766.3126	784.1182	812.1748	826.4524	860.2658	883.2593	922.8195	948.9486	1015.9655	1036.0637	1076.381	1088.2175	1118.19	1150.2634	1185.3636	1217.3018	1224.8582	1251.4129	1304.0211	1335.1137	1348.4051	1399.0111	1427.6549	1446.8214	1493.5767	1523.6054	1606.7587	3030.9476	3077.0354	3174.3758	3187.9015	3238.6043	3254.3995	3267.7295	3476.3974
C1C2NC2C2=CC=CN12	C1[C@H]2N[C@H]2c2cccn12	
InChI=1S/C7H8N2/c1-2-6-7-5(8-7)4-9(6)3-1/h1-3,5,7-8H,4H2	InChI=1S/C7H8N2/c1-2-6-7-5(8-7)4-9(6)3-1/h1-3,5,7-8H,4H2/t5-,7-/m1/s1
