19
gdb 67955	2.25345	1.75987	1.28377	3.564	74.53	-0.2274	-0.0324	0.1949	1051.9443	0.159091	-423.040507	-423.032347	-423.031403	-423.073401	31.55	
C	-0.2995666441	 1.501262837	 0.1484245793	-0.480969
C	 0.0362142436	 0.0287467124	-0.040241636	 0.309664
C	-1.151961345	-0.9681139453	 0.1689539514	-0.416747
C	-0.3056123	-1.725751908	 1.205057196	 0.384592
O	-0.4530504722	-2.7438763995	 1.8139760282	-0.289265
C	 0.8554821614	-0.687515122	 1.100336063	-0.039467
O	 2.0668842117	-1.1663431172	 0.5695956719	-0.244575
C	 1.8374688558	-1.4049230843	-0.8197753785	-0.102373
C	 0.9083771746	-0.2672765264	-1.2796284656	-0.278226
H	 0.6108430538	 2.1084924831	 0.1944284547	 0.123441
H	-0.9108972314	 1.8786146284	-0.6790393146	 0.122297
H	-0.8610970978	 1.6671917731	 1.074480683	 0.116065
H	-2.0474743199	-0.5134445623	 0.6058700366	 0.131223
H	-1.4605754889	-1.5658412663	-0.6947813698	 0.127441
H	 1.0625662049	-0.1353851526	 2.0218069348	 0.099211
H	 2.808609339	-1.4136977453	-1.3193615244	 0.117339
H	 1.3663067455	-2.3890672926	-0.9671218434	 0.10542
H	 0.3208760393	-0.536286473	-2.1618510562	 0.105838
H	 1.5033399097	 0.6173823108	-1.5277743502	 0.109092
50.8756	164.811	227.9748	249.6411	282.1834	331.5588	366.7206	423.6605	553.9147	581.3844	588.5259	647.593	752.3711	809.119	838.148	895.1396	909.9169	942.2334	979.7709	983.1909	1031.3084	1039.257	1089.1393	1121.7834	1150.1164	1159.8851	1192.7056	1234.2393	1245.5074	1252.5483	1269.1242	1316.8098	1353.867	1384.2941	1413.4624	1434.7177	1485.1141	1494.8608	1497.8469	1522.6897	1892.5271	2986.0728	3024.0494	3046.1815	3051.6356	3074.1375	3089.3473	3094.4915	3098.4528	3099.5471	3108.5027
CC12CC(=O)C1OCC2	C[C@]12CC(=O)[C@H]1OCC2	
InChI=1S/C7H10O2/c1-7-2-3-9-6(7)5(8)4-7/h6H,2-4H2,1H3	InChI=1S/C7H10O2/c1-7-2-3-9-6(7)5(8)4-7/h6H,2-4H2,1H3/t6-,7+/m1/s1
