16
gdb 52749	2.84738	0.82214	0.65934	5.9992	80.29	-0.2594	-0.0446	0.2148	1646.8329	0.120743	-400.745752	-400.735336	-400.734391	-400.784381	33.963	
C	 0.0016681027	 1.4436934266	-0.0324379498	-0.499665
C	-0.0023898127	-0.010915655	 0.0064133438	 0.117888
C	 0.0029194245	-1.2143212665	 0.0607210012	 0.021163
C	 0.0176250828	-2.6722209565	 0.0566309095	-0.25262
C	-1.4330285014	-3.227445961	-0.0374429321	-0.352094
C	-1.4907775598	-4.6853190071	 0.0431828976	 0.258901
N	-1.5291450626	-5.8380788179	 0.1083291575	-0.292198
C	 0.8531216012	-3.1366625824	-1.1484431399	 0.178743
O	 1.8830096293	-3.7416222192	-1.0584530494	-0.225548
H	 0.8838892082	 1.8203484455	-0.5608279254	 0.160201
H	-0.8856234535	 1.8295738813	-0.5453485837	 0.155579
H	 0.013475224	 1.8643939846	 0.9786170989	 0.158948
H	 0.5036194585	-3.0659977486	 0.9549665321	 0.143186
H	-2.0308544461	-2.7982566439	 0.7718640986	 0.171931
H	-1.8910392735	-2.9004271434	-0.9775251266	 0.164264
H	 0.4210877984	-2.8379918867	-2.1299174123	 0.091319
11.8899	55.3728	59.9938	78.6618	128.8976	177.7978	286.6381	288.6358	315.5777	389.3543	438.5421	464.4731	493.2223	570.6997	788.0757	842.0178	955.756	983.6087	1048.3279	1049.6051	1056.1985	1063.6778	1173.4804	1200.8981	1273.9394	1300.9011	1348.9958	1413.5697	1414.8202	1464.5024	1475.3019	1475.6228	1848.0149	2364.6149	2367.092	2883.8517	3032.4336	3053.7058	3068.0319	3096.4562	3096.661	3100.0713
CC#CC(CC#N)C=O	CC#C[C@@H](CC#N)C=O	
InChI=1S/C7H7NO/c1-2-3-7(6-9)4-5-8/h6-7H,4H2,1H3	InChI=1S/C7H7NO/c1-2-3-7(6-9)4-5-8/h6-7H,4H2,1H3/t7-/m0/s1
