14
gdb 5548	3.37305	1.97345	1.3133	2.8232	60.78	-0.1917	0.0139	0.2055	897.3822	0.107735	-415.86885	-415.861167	-415.860223	-415.901185	27.161	
C	-0.3195724503	 1.2517005779	-0.0966099385	-0.252679
O	 0.5801784908	 0.1586858342	 0.1327366956	-0.27013
C	 0.8692719631	-0.5777899004	-0.9470726364	 0.317328
C	 0.7200196655	-1.8972177871	-1.2370086564	 0.167631
N	 0.1944956952	-2.9320570786	-0.466428973	-0.599666
N	 1.2872529812	-2.1456389231	-2.479425196	-0.299702
C	 1.7397244061	-0.9972071182	-2.8678506369	 0.074914
O	 1.545150013	 0.0145111966	-1.9992784297	-0.182586
H	 0.1290260769	 1.9901835499	-0.7686375836	 0.138739
H	-1.2627896211	 0.8940699461	-0.5262968329	 0.120938
H	-0.503573775	 1.7073112236	 0.8775019841	 0.137767
H	-0.4538720073	-2.6087373997	 0.2388665213	 0.247406
H	-0.2257940881	-3.6496558211	-1.0427234623	 0.253148
H	 2.2377435199	-0.7577741802	-3.7940071153	 0.146893
72.359	154.6212	167.1156	197.4266	290.9822	299.301	415.3293	521.0329	625.4757	652.0319	696.9367	742.928	772.437	804.0933	951.3184	1010.2128	1050.62	1122.7804	1171.4218	1181.2899	1216.307	1314.0519	1324.9564	1410.3663	1481.2097	1487.7034	1504.4508	1557.1831	1631.477	1738.8051	3022.535	3096.5041	3143.2719	3273.951	3543.8079	3643.6877
COC1=C(N)N=CO1	COc1c(N)nco1	
InChI=1S/C4H6N2O2/c1-7-4-3(5)6-2-8-4/h2H,5H2,1H3	InChI=1S/C4H6N2O2/c1-7-4-3(5)6-2-8-4/h2H,5H2,1H3
