19
gdb 58149	3.59322	0.71776	0.66711	5.4801	90.87	-0.2284	-0.0406	0.1878	1717.1606	0.15714	-382.043085	-382.032679	-382.031735	-382.078805	36.744	
C	-0.1090040126	 1.6117183848	-0.1170907632	-0.400416
C	 0.061721877	 0.0769746012	 0.0104071947	-0.183942
C	 0.715806168	-0.4575649167	-1.1881725923	 0.08823
C	 1.2450025982	-0.8749394482	-2.1911956339	 0.101559
C	 1.8434664719	-1.3506919146	-3.3224786152	 0.198077
N	 2.3531922783	-1.7530582928	-4.2858397294	-0.337301
N	 0.747188279	-0.4091319506	 1.2122912688	-0.042547
C	 2.1012337492	 0.0925970344	 1.3929638604	-0.331692
C	-0.0560667087	-0.2989863855	 2.4181379445	-0.32571
H	 0.8576629189	 2.1120394905	-0.2095467277	 0.136447
H	-0.7030488612	 1.8535883441	-1.0023031199	 0.135638
H	-0.6263719673	 2.0059242104	 0.761627544	 0.128944
H	-0.9439836581	-0.3650855788	 0.038816214	 0.123403
H	 2.1502893472	 1.1586654167	 1.6772053506	 0.099793
H	 2.5908611093	-0.4839669461	 2.1840006182	 0.126791
H	 2.6752141275	-0.0452295255	 0.4725904118	 0.134206
H	-1.0367161232	-0.7583970663	 2.2576076994	 0.121554
H	 0.4408833202	-0.8424526461	 3.2278761023	 0.127325
H	-0.2148467837	 0.7384785292	 2.7650430227	 0.099641
65.6439	71.7722	118.2558	203.2221	219.9968	233.782	239.4677	248.3341	253.4659	365.1046	385.3513	405.2525	519.8266	539.3443	580.235	593.1999	733.0098	790.6768	937.0566	1014.3634	1065.4782	1073.462	1085.4722	1122.1708	1171.9406	1190.3088	1223.8966	1305.8913	1323.6797	1379.8121	1395.4006	1444.6197	1472.7748	1479.166	1486.161	1489.7918	1500.3262	1509.6203	1519.1557	2262.9743	2400.7519	2937.7723	2950.0712	3012.8173	3051.2022	3058.7479	3067.8419	3103.2735	3114.727	3125.7117	3134.2199
CC(C#CC#N)N(C)C	C[C@@H](C#CC#N)N(C)C	
InChI=1S/C7H10N2/c1-7(9(2)3)5-4-6-8/h7H,1-3H3	InChI=1S/C7H10N2/c1-7(9(2)3)5-4-6-8/h7H,1-3H3/t7-/m0/s1
