19
gdb 91982	2.23643	1.82837	1.21608	3.5946	78.61	-0.2266	0.0303	0.2569	1066.6354	0.160724	-382.065021	-382.056729	-382.055785	-382.097913	31.512	
C	-0.0002850603	 1.4826475975	-0.0919336028	-0.335391
N	 0.1666784865	 0.0444249382	-0.0152659412	-0.044371
C	 0.7010162809	-0.6112496209	-1.2142368982	-0.183708
C	 1.1020315367	-2.0022742732	-0.7400496479	-0.032751
C	 2.4423959378	-2.1467048016	-0.0721442932	-0.292737
C	 1.2101152466	-1.9323585286	 0.7674129076	-0.044525
C	 0.8446102853	-0.4966857283	 1.1648228253	-0.152447
C	 2.0351428062	 0.2920072058	 1.5754987053	 0.279301
N	 2.9448296119	 0.9467837206	 1.8609537714	-0.347128
H	 0.948009513	 2.0344984651	-0.207910923	 0.120595
H	-0.6428971763	 1.7209894736	-0.9452234362	 0.123582
H	-0.4962456884	 1.8478818899	 0.8131701396	 0.125457
H	-0.0768200305	-0.6478429673	-1.985246531	 0.110059
H	 1.5614392985	-0.0681521632	-1.6446714541	 0.095728
H	 0.6537274925	-2.8631264122	-1.2206934887	 0.097174
H	 2.8896381723	-3.1341467818	-0.0420039865	 0.118522
H	 3.1587093077	-1.3350094749	-0.1565619319	 0.137829
H	 0.8530933542	-2.7288578012	 1.4073195959	 0.102567
H	 0.1567999156	-0.4923656175	 2.0195839996	 0.122245
76.8941	140.6436	164.899	231.2704	287.1744	314.06	339.2376	414.4293	496.5209	590.4051	624.1548	689.4131	778.9474	818.3824	858.6117	883.8986	924.5034	953.5404	993.3066	1024.1999	1054.375	1081.6039	1090.8607	1107.7439	1127.1629	1160.8266	1190.3501	1217.6137	1231.655	1244.7238	1311.4631	1327.8708	1350.6817	1378.704	1386.286	1459.081	1487.3934	1489.0206	1507.6286	1528.0228	2337.9402	2940.3081	2965.7116	3027.0047	3050.4744	3064.0197	3104.5505	3129.2834	3182.1124	3193.1036	3217.5579
CN1CC2CC2C1C#N	CN1C[C@H]2C[C@H]2[C@H]1C#N	
InChI=1S/C7H10N2/c1-9-4-5-2-6(5)7(9)3-8/h5-7H,2,4H2,1H3	InChI=1S/C7H10N2/c1-9-4-5-2-6(5)7(9)3-8/h5-7H,2,4H2,1H3/t5-,6-,7-/m1/s1
