15
gdb 47268	2.31589	1.81664	1.0496	4.5622	68.46	-0.248	-0.11	0.1381	1069.9351	0.113959	-453.978751	-453.970907	-453.969963	-454.011834	28.93	
N	-0.0965114231	 1.2360266688	-0.435772367	-0.503139
C	-0.0467631586	 0.0221757823	-0.0463784924	 0.25997
N	-1.1851991606	-0.738469482	 0.1050723041	-0.324036
C	-1.2328275766	-1.9213507501	 0.9492523819	-0.190253
C	-0.0823803072	-2.8692848892	 0.5892310978	-0.310901
C	 1.2555712421	-2.1684292484	 0.7041459154	 0.310633
O	 2.2588712655	-2.6751331368	 1.1312817367	-0.260159
C	 1.2784552189	-0.6857219547	 0.2273591155	 0.251059
O	 2.3246742716	-0.1083624225	 0.0838065079	-0.267216
H	 0.8587834403	 1.5830466657	-0.5394366133	 0.241584
H	-2.0361839288	-0.2001899529	 0.0172204642	 0.255467
H	-1.1878248799	-1.6729712539	 2.02153722	 0.120978
H	-2.1888076463	-2.4218793563	 0.7764327858	 0.130243
H	-0.0731509251	-3.7635569735	 1.216295599	 0.138846
H	-0.2027481622	-3.1828861764	-0.4568584956	 0.146924
47.3991	99.4972	217.5394	330.0886	344.6083	358.2981	412.3751	427.2909	548.6112	565.9668	595.2635	654.7792	697.7568	799.1722	881.2747	918.6109	927.4188	997.5572	1059.7424	1092.9256	1147.5379	1202.1708	1224.3463	1260.5354	1338.0578	1372.9636	1431.8278	1446.0419	1467.5419	1523.2373	1701.7435	1810.4823	1835.7942	2977.4956	3029.02	3092.5599	3117.2107	3473.1581	3594.2361
N=C1NCCC(=O)C1=O	[NH][C]1NCCC(=O)C1=O	
InChI=1S/C5H6N2O2/c6-5-4(9)3(8)1-2-7-5/h1-2H2,(H2,6,7)	InChI=1S/C5H6N2O2/c6-5-4(9)3(8)1-2-7-5/h1-2H2,(H2,6,7)
