22
gdb 77255	2.91764	0.95606	0.89915	2.5883	83.99	-0.2213	-0.0227	0.1986	1430.7514	0.190043	-404.33194	-404.321015	-404.320071	-404.368596	38.841	
C	 0.5335580075	 0.8033825412	-1.9670385084	-0.325021
N	 0.4451305165	-0.2527879094	-0.9689581091	-0.124461
C	 1.5612286175	-0.5304806032	-0.0606850215	-0.056907
C	 2.8810631169	 0.2256021122	-0.0911989779	-0.321017
C	 3.7839667913	-0.2813729847	-1.1990304919	 0.172672
O	 4.3295798015	 0.416839117	-2.0134096799	-0.239803
C	 0.276840616	 0.0471043932	 0.4598377812	 0.296944
C	 0.2084901654	 1.4772208201	 0.9669335981	-0.456622
C	-0.6941742951	-0.8829505331	 1.1661003	-0.434322
H	 1.0838751576	 1.7062454545	-1.6689252069	 0.105994
H	 1.018167465	 0.4008631174	-2.8621247291	 0.132826
H	-0.4811938824	 1.1059501615	-2.2445981393	 0.124016
H	 1.7122873135	-1.6007072598	 0.0972797549	 0.083885
H	 2.777629086	 1.3051828133	-0.2019112536	 0.123111
H	 3.399928701	 0.0357539829	 0.8605563562	 0.125814
H	 3.9154034635	-1.3889077692	-1.2121175852	 0.075321
H	 0.9109782387	 2.1528500966	 0.4781464868	 0.120946
H	-0.799567146	 1.8812459957	 0.8188782343	 0.122933
H	 0.4148765494	 1.5049779544	 2.042328822	 0.12229
H	-0.4769404383	-0.9383982169	 2.2390362543	 0.11053
H	-1.7241899304	-0.5257037498	 1.0515830732	 0.116044
H	-0.6386792351	-1.888927464	 0.7438623217	 0.124828
41.8131	57.1434	123.1677	140.6743	172.9342	194.3769	226.245	260.9567	281.1502	303.8622	370.9941	440.3883	478.9924	504.9048	578.8218	694.6091	733.36	742.6605	866.6876	951.658	984.1201	1001.4589	1031.5852	1050.6256	1110.0231	1113.9633	1139.2217	1148.5603	1177.3984	1186.3027	1224.3416	1273.4841	1284.3196	1366.249	1405.9941	1419.4161	1428.2082	1432.1434	1451.1321	1464.37	1477.7215	1486.3318	1492.5299	1499.1145	1508.216	1513.9192	1835.1877	2858.0386	3001.6535	3009.0202	3026.3263	3037.0487	3070.9968	3071.3177	3085.9313	3091.4869	3101.9436	3123.2817	3128.9799	3141.8708
CN1C(CC=O)C1(C)C	CN1[C@@H](CC=O)C1(C)C	
InChI=1S/C7H13NO/c1-7(2)6(4-5-9)8(7)3/h5-6H,4H2,1-3H3	InChI=1S/C7H13NO/c1-7(2)6(4-5-9)8(7)3/h5-6H,4H2,1-3H3/t6-,8?/m0/s1
