20
gdb 121424	3.89616	0.75274	0.67233	1.9225	79.88	-0.2327	-0.0191	0.2136	1709.6505	0.170189	-436.519946	-436.509339	-436.508395	-436.556249	38.12	
C	-0.2771211858	 1.3846529158	 0.2773539523	-0.3764
C	-0.3184449383	-0.1238450964	 0.0224415177	-0.161479
C	 0.7523245314	-0.5859858392	-0.9808409129	-0.162288
N	 0.7616608853	-2.029719771	-1.1445230762	-0.309
C	 0.0418374894	-2.5611881386	-2.0593987864	 0.279157
N	-0.7611548922	-1.9792895675	-2.9955804616	-0.551282
C	 0.0606389514	-4.0806917378	-2.2138118769	 0.392065
N	 0.9154656754	-4.6917891767	-1.3726166382	-0.525788
O	-0.652801193	-4.6368275811	-3.0349057718	-0.386432
H	 0.6943380284	 1.6909248904	 0.6807346103	 0.118171
H	-0.4429010652	 1.9514526721	-0.6459093623	 0.111556
H	-1.0455532703	 1.6873696864	 0.9950653489	 0.115572
H	-0.170244467	-0.6717087241	 0.9597957105	 0.109477
H	-1.310909876	-0.4150267894	-0.345325024	 0.091333
H	 0.6151433689	-0.0549192144	-1.9384078329	 0.081311
H	 1.737101572	-0.2850175032	-0.603102653	 0.101595
H	-1.104366822	-1.0444445565	-2.8701590149	 0.260326
H	-1.3167311663	-2.6309140622	-3.5315209848	 0.274611
H	 1.4250786784	-4.1121172941	-0.7228681231	 0.274178
H	 0.9845343256	-5.6942100224	-1.3677436705	 0.263316
50.6702	80.5097	86.9354	100.7459	225.8325	241.2345	283.227	302.3683	310.4142	327.9623	372.2741	448.0707	529.1146	566.0169	615.0549	630.3323	685.1983	753.4748	804.2356	823.0494	889.5436	903.8148	1000.2787	1044.3674	1103.2562	1111.5945	1141.3564	1197.4797	1272.5592	1296.9242	1317.9582	1322.5766	1380.442	1410.6794	1412.3252	1490.5097	1499.4274	1504.7123	1522.9612	1578.9181	1594.9533	1733.6683	1797.029	2954.9342	3023.0291	3029.7176	3040.3377	3066.5758	3097.28	3104.5455	3577.1595	3579.9315	3729.6997	3736.9798
CCCN=C(N)C(N)=O	CCCN=C(N)C(=O)N	
InChI=1S/C5H11N3O/c1-2-3-8-4(6)5(7)9/h2-3H2,1H3,(H2,6,8)(H2,7,9)	InChI=1S/C5H11N3O/c1-2-3-8-4(6)5(7)9/h2-3H2,1H3,(H2,6,8)(H2,7,9)
