20
gdb 73595	2.32932	1.59907	1.30439	1.3202	85.24	-0.2225	0.0331	0.2556	1091.2659	0.170859	-365.971738	-365.963009	-365.962064	-366.00462	34.049	
C	 0.1036790146	 1.5259223672	-0.0048772141	-0.473176
C	-0.0123637641	 0.020398615	 0.018597035	 0.324375
C	-1.3873271791	-0.5972936379	-0.2184184389	-0.278668
C	-1.3750495115	-1.9402815499	 0.5475572014	-0.234965
C	-0.1769853521	-1.8195514894	 1.5256628431	-0.155588
N	 0.6886187108	-0.7092438215	 1.0861930847	-0.150572
C	 1.1935925984	-0.8160510729	-0.3120524889	-0.262884
C	 1.1509751474	-2.0225309219	-1.0867931855	 0.361201
C	 1.1845359598	-3.0248686927	-1.7530720591	-0.465091
H	 1.1157466691	 1.8451439578	 0.2561105171	 0.127927
H	-0.137858917	 1.9202124974	-0.9981196732	 0.120779
H	-0.5899705126	 1.9761790687	 0.7141041985	 0.120008
H	-2.1448736816	 0.0841022613	 0.1842099008	 0.101997
H	-1.604585839	-0.7284310781	-1.2826731881	 0.11274
H	-2.3133387506	-2.1133798676	 1.0810767797	 0.097393
H	-1.2295297985	-2.7732500236	-0.1399630507	 0.123743
H	-0.5146019459	-1.5656462077	 2.5356448434	 0.107471
H	 0.4039846836	-2.7438269776	 1.5934412897	 0.114965
H	 2.1293058348	-0.2727442773	-0.4338305212	 0.110704
H	 1.2059706735	-3.9086301393	-2.3414201437	 0.197642
117.7724	134.7821	185.7094	194.8634	223.3963	322.0058	352.3569	369.1175	539.6807	549.1903	587.3567	593.8191	655.2526	679.9464	724.2298	779.2996	791.3641	869.4137	895.0602	919.3313	948.7401	1019.8555	1042.7348	1052.2281	1079.924	1089.3426	1143.3353	1201.0795	1222.5908	1251.6776	1268.9601	1311.6574	1328.5275	1339.5039	1354.5999	1409.3569	1417.9345	1482.3442	1488.9763	1492.6938	1494.3796	1513.4594	2224.4554	3030.3165	3043.2658	3048.0242	3074.4759	3084.7202	3091.6401	3093.3961	3113.4388	3119.5581	3135.5792	3501.5599
CC12CCCN1C2C#C	C[C@]12CCCN1[C@H]2C#C	
InChI=1S/C8H11N/c1-3-7-8(2)5-4-6-9(7)8/h1,7H,4-6H2,2H3	InChI=1S/C8H11N/c1-3-7-8(2)5-4-6-9(7)8/h1,7H,4-6H2,2H3/t7-,8+,9?/m0/s1
