19
gdb 86960	4.46593	0.793	0.73318	1.458	78.31	-0.2493	-0.026	0.2233	1530.7004	0.158237	-423.042088	-423.033006	-423.032062	-423.077306	32.997	
O	 0.033297007	 1.4953913485	 0.0334253245	-0.431401
C	 0.1213963334	 0.0793086573	-0.03386352	 0.11038
C	-1.2453302334	-0.649155182	 0.0725125388	-0.268215
C	-1.1640908765	-1.8617535799	-0.8899977251	-0.046078
C	-2.4846361172	-2.1639601515	-1.6317625357	-0.282038
C	-2.3977157109	-3.44471371	-2.4283861403	 0.159545
O	-2.5186642754	-3.5289693022	-3.6235063757	-0.240255
C	-0.0121040761	-1.4856390028	-1.7996303479	-0.063119
C	 0.6839432239	-0.4512817498	-1.3331321507	-0.130662
H	-0.4501159433	 1.7907948843	-0.7465770667	 0.274276
H	 0.7757936315	-0.1839792434	 0.8070173717	 0.097049
H	-1.5013278587	-0.9311908752	 1.0965648032	 0.106249
H	-2.0197733116	 0.045015669	-0.2756577831	 0.099685
H	-0.8907920628	-2.7633315219	-0.320260887	 0.089276
H	-3.2846441933	-2.2871528659	-0.8880853208	 0.118276
H	-2.7553922531	-1.3436868734	-2.3031246655	 0.118363
H	-2.1884335035	-4.3510534854	-1.8107484168	 0.071291
H	 0.2114275938	-2.0395209212	-2.7056493082	 0.113414
H	 1.5714244164	-0.0210177645	-1.7839926348	 0.103965
45.6174	47.6849	95.4813	200.1148	223.8601	297.0816	344.8488	392.7371	433.0618	505.2552	580.6436	595.6295	736.964	783.8789	806.6605	865.6158	891.3824	947.1837	982.8227	986.6999	1021.0313	1051.6709	1067.8729	1104.9104	1121.0804	1150.1491	1173.9962	1199.3962	1249.5833	1268.8225	1291.3471	1317.532	1325.2466	1352.3179	1382.8147	1428.8872	1430.0576	1464.4782	1486.7363	1682.1102	1833.752	2845.0795	2981.5879	3016.7133	3026.4684	3039.3499	3097.3649	3104.0328	3180.8398	3207.1876	3792.5303
OC1CC(CC=O)C=C1	O[C@H]1C[C@@H](CC=O)C=C1	
InChI=1S/C7H10O2/c8-4-3-6-1-2-7(9)5-6/h1-2,4,6-7,9H,3,5H2	InChI=1S/C7H10O2/c8-4-3-6-1-2-7(9)5-6/h1-2,4,6-7,9H,3,5H2/t6-,7-/m1/s1
