14
gdb 28992	3.10127	1.5184	1.01933	2.2511	81.02	-0.2429	-0.0405	0.2024	1079.8362	0.102286	-399.584333	-399.577004	-399.57606	-399.616013	28.386	
O	 0.0751409918	 1.3323633273	-0.0224363301	-0.42387
C	 0.0509231802	-0.0111024041	-0.0073640994	 0.327598
C	 0.0350541243	-0.7102162732	-1.2117269092	-0.203529
C	 0.0101347934	-2.0966910876	-1.1685227736	 0.014348
N	 0.0000978093	-2.8209070583	-0.0405244443	-0.283778
C	 0.0153795097	-2.145359359	 1.1036617228	-0.056044
C	 0.0408948503	-0.7462030321	 1.1967498739	-0.005684
C	 0.05679926	-0.0502956075	 2.4346415958	 0.181053
C	 0.0713036192	 0.6028025356	 3.4488053483	-0.407064
H	 0.0833123025	 1.6481001116	 0.8939921054	 0.30154
H	 0.0422864622	-0.1696514732	-2.1502722061	 0.115337
H	-0.0025787161	-2.6621808679	-2.0970009313	 0.115752
H	 0.0072935231	-2.7299722727	 2.0200146563	 0.119263
H	 0.0835490599	 1.1486191811	 4.3601248114	 0.205078
133.0658	136.5444	234.6499	367.59	386.7267	461.5032	497.4314	520.8535	561.5578	582.6287	586.3611	607.5161	681.5449	765.8582	783.4661	861.4369	873.5033	960.1477	996.6882	1061.1594	1168.5895	1214.8966	1257.8781	1306.6304	1332.9296	1384.3019	1444.3104	1519.0557	1599.7125	1648.2247	2212.9391	3160.5702	3165.1522	3211.6619	3496.3094	3714.8545
OC1=CC=NC=C1C#C	Oc1ccncc1C#C	
InChI=1S/C7H5NO/c1-2-6-5-8-4-3-7(6)9/h1,3-5H,(H,8,9)	InChI=1S/C7H5NO/c1-2-6-5-8-4-3-7(6)9/h1,3-5H,(H,8,9)
