21
gdb 58207	2.69577	1.08018	0.81709	2.3968	81.15	-0.2498	0.0201	0.2699	1424.8177	0.179092	-424.191454	-424.180749	-424.179805	-424.22693	39.99	
C	 0.0737530793	 1.5822574794	-0.0617885405	-0.400001
C	-0.0029940522	 0.0655204805	 0.0940261569	 0.151544
O	 0.6182026816	-0.227588016	 1.334170079	-0.453755
C	-1.4505937446	-0.4878940379	 0.0239192932	-0.020645
C	-2.1992917479	 0.0073155793	-1.2226071037	-0.417573
C	-1.4524250374	-2.0423940287	 0.0445770878	-0.054262
O	-0.7204130503	-2.6003675917	 1.151994957	-0.429813
C	-2.8051503242	-2.6035258092	 0.0264636852	 0.290927
C	-3.9145077028	-3.0640410846	 0.0807858442	-0.433982
H	 1.0998710235	 1.9013228982	 0.1382885277	 0.126522
H	-0.1995340696	 1.9091439815	-1.0674201925	 0.111915
H	-0.5802857233	 2.0790576693	 0.6628591595	 0.116118
H	 0.5646012981	-0.3969866737	-0.7364917187	 0.055006
H	 0.4957015816	-1.1753011389	 1.4827747789	 0.282701
H	-1.976758484	-0.1430724545	 0.9246890648	 0.079523
H	-1.6407633934	-0.2285333405	-2.1366171024	 0.116556
H	-3.1834260193	-0.4602694421	-1.3021334302	 0.131613
H	-2.3441380725	 1.0887925794	-1.1897687245	 0.12659
H	-0.906654979	-2.3920516694	-0.8414754387	 0.123319
H	-1.2905669166	-2.5467746897	 1.928246563	 0.293272
H	-4.8915192468	-3.4802976308	 0.1092547741	 0.204424
57.2927	83.6361	144.442	197.7361	217.4165	228.2952	267.3581	295.6961	338.1248	349.7559	371.014	373.8381	491.8885	511.9746	556.5131	596.3749	635.0438	637.9865	676.4276	830.7688	857.6031	942.3041	967.063	988.049	1028.7027	1058.6609	1090.5384	1126.5541	1157.6778	1164.0513	1246.868	1264.7632	1310.8389	1326.6216	1363.5337	1377.8296	1399.5536	1413.4164	1417.8171	1462.4703	1486.3397	1496.6763	1502.2918	1511.4098	2231.2835	2909.9921	3016.2902	3032.1361	3039.1063	3042.857	3110.3578	3114.431	3128.8888	3136.5098	3500.9671	3727.0649	3799.2383
CC(O)C(C)C(O)C#C	C[C@@H](O)[C@@H](C)[C@@H](O)C#C	
InChI=1S/C7H12O2/c1-4-7(9)5(2)6(3)8/h1,5-9H,2-3H3	InChI=1S/C7H12O2/c1-4-7(9)5(2)6(3)8/h1,5-9H,2-3H3/t5-,6-,7+/m1/s1
