20
gdb 108057	2.66262	1.59239	1.17483	2.2311	78.57	-0.2437	0.084	0.3277	1102.0905	0.171455	-403.096746	-403.088358	-403.087413	-403.129541	32.716	
C	-0.1488627804	 1.4598666193	 0.0831943435	-0.502949
C	 0.1224959882	-0.0121463845	 0.0022235527	 0.289929
C	-0.1348320615	-0.8955740841	-1.2131181151	-0.285395
C	-0.1655213487	-2.0417357443	-0.1890874264	-0.005143
C	 1.2683161695	-2.1614828776	 0.3491571544	-0.281715
C	 0.9954262422	-0.7887528754	 0.9498382728	 0.249199
C	 1.6470506166	-0.2500062792	 2.1903412579	-0.166808
O	 1.4818858711	-1.1432784953	 3.2804651228	-0.417373
N	-0.5068160022	-1.0150059704	 0.93976458	-0.250116
H	 0.6119147798	 2.0272826999	-0.4650494341	 0.123844
H	-1.1248986714	 1.690599892	-0.35640183	 0.125948
H	-0.1583145755	 1.8152104161	 1.1165606171	 0.132313
H	-1.1274868809	-0.6913498907	-1.6246967856	 0.107936
H	 0.6021722695	-0.9355542768	-2.0224721774	 0.094322
H	-0.8031075244	-2.9128605041	-0.3260321136	 0.082541
H	 1.3492888545	-2.903545099	 1.146762409	 0.118125
H	 2.0873509996	-2.2876372824	-0.367030074	 0.092317
H	 2.727418703	-0.1475200142	 2.0358125366	 0.112139
H	 1.2536888531	 0.7479754616	 2.4321629781	 0.089993
H	 0.5369662381	-1.337098641	 3.3184327813	 0.290891
85.6764	143.1856	180.8013	226.2619	291.1229	331.9292	382.9272	421.2369	450.259	532.8256	588.129	705.3438	732.7644	763.3794	815.1067	859.7677	899.735	937.3961	955.5852	969.6044	997.8104	1033.6827	1040.5097	1075.4724	1093.2003	1143.6229	1155.5932	1188.0604	1209.4082	1230.1572	1265.2032	1285.2618	1287.0933	1357.6558	1363.1393	1404.5901	1425.777	1438.1446	1483.9881	1489.1945	1490.8587	1501.031	1510.0395	2998.877	3033.1341	3037.9329	3043.5516	3063.0297	3093.9671	3097.8379	3112.7915	3119.417	3136.5587	3780.4239
CC12CC3CC1(CO)N23	C[C@@]12C[C@H]3C[C@]1(CO)N23	
InChI=1S/C7H11NO/c1-6-2-5-3-7(6,4-9)8(5)6/h5,9H,2-4H2,1H3	InChI=1S/C7H11NO/c1-6-2-5-3-7(6,4-9)8(5)6/h5,9H,2-4H2,1H3/t5-,6+,7+,8?/m0/s1
