19
gdb 120975	4.86115	0.83805	0.78799	2.0851	71.48	-0.2485	0.0781	0.3266	1469.2249	0.158714	-460.132084	-460.123444	-460.1225	-460.166088	32.125	
O	 0.0494153762	 1.4041225642	-0.0682971381	-0.4181
C	 0.0286426779	-0.0119411229	 0.0162395961	-0.064373
C	-1.3945075572	-0.5759600552	-0.0185477797	-0.234597
C	-1.4221873509	-2.0891576318	-0.0327089381	 0.215669
O	-0.8457949047	-2.6126879378	 1.1616129118	-0.274441
C	-1.4820290564	-3.8498724002	 1.384445298	 0.060888
C	-2.8190845314	-3.780670369	 2.0882431372	-0.32275
C	-2.7398492722	-3.8192877884	 0.5782135172	 0.05853
O	-2.7624706598	-2.5662087858	-0.0653412687	-0.271555
H	-0.3613034154	 1.7513660018	 0.7298224957	 0.281903
H	 0.5940513351	-0.3670823326	-0.8527439924	 0.111025
H	 0.5503289437	-0.3736352138	 0.9132130778	 0.110254
H	-1.9614469148	-0.2375821408	 0.8569582845	 0.100517
H	-1.9090588047	-0.2092752791	-0.9125239247	 0.120391
H	-0.8730645317	-2.49400589	-0.9027373292	 0.070255
H	-0.8208722803	-4.7045611344	 1.4749485772	 0.106313
H	-3.1665572697	-4.6741945737	 2.5975148352	 0.115934
H	-3.09033632	-2.8365239768	 2.545768333	 0.127923
H	-3.1264731636	-4.6489998439	-0.0030579529	 0.106212
69.2389	92.6769	111.7507	176.606	301.8437	306.4766	342.0539	375.0086	475.0033	550.612	709.5833	735.7789	779.4884	792.6899	807.1629	889.3104	941.6135	985.2845	1005.3717	1008.6349	1053.3745	1066.1593	1075.7313	1092.3411	1104.7245	1115.8999	1127.4692	1150.2188	1199.8487	1201.4445	1280.2776	1305.7908	1311.7285	1369.2431	1377.4454	1393.7168	1425.1303	1436.4997	1457.609	1477.6493	1514.6912	2934.2131	3010.6084	3040.7963	3065.9653	3100.2151	3131.751	3165.5249	3174.8131	3232.8843	3817.4292
OCCC1OC2CC2O1	OCC[C@H]1O[C@H]2C[C@H]2O1	
InChI=1S/C6H10O3/c7-2-1-6-8-4-3-5(4)9-6/h4-7H,1-3H2	InChI=1S/C6H10O3/c7-2-1-6-8-4-3-5(4)9-6/h4-7H,1-3H2/t4-,5+,6-
