18
gdb 87697	3.21155	1.14689	0.96099	4.1927	75.79	-0.2449	0.0148	0.2597	1277.5723	0.145916	-439.087206	-439.077919	-439.076975	-439.121513	32.894	
C	-0.0639921942	 1.5322330341	-0.1001438537	-0.418972
C	-0.0198087588	 0.0344846237	 0.0438626139	-0.015407
O	 1.2702366839	-0.5962005319	-0.075309718	-0.2784
C	 0.6265320701	-0.6342340264	 1.1748498276	 0.267565
C	 1.2036756223	-0.0979841737	 2.5021742035	-0.261692
N	 0.7342394102	-1.3537054636	 3.0994123391	-0.098077
C	 0.7333155758	-1.8295843501	 4.4560276451	-0.342569
C	 0.2290918753	-1.9046441867	 1.9412631234	 0.355712
O	-0.3128733995	-2.9520814807	 1.706732951	-0.379811
H	 0.7626876545	 2.0033830723	 0.4378205707	 0.128176
H	 0.0066212979	 1.8167771751	-1.154882683	 0.137579
H	-1.0087289681	 1.925029546	 0.2907265883	 0.12859
H	-0.8145394715	-0.5189233704	-0.4579416804	 0.115393
H	 2.2922983728	 0.0245826093	 2.5051044938	 0.123634
H	 0.7250127778	 0.8002988544	 2.9098127197	 0.113087
H	 0.173654649	-1.1579046487	 5.1191032419	 0.128976
H	 0.253252157	-2.8112752938	 4.4610359828	 0.163881
H	 1.7525319456	-1.9323783491	 4.8478231643	 0.132333
79.4873	125.3358	147.0008	172.82	186.8726	194.6577	243.5952	286.7588	390.2657	455.0144	526.1188	582.5964	714.5736	797.2928	815.296	848.6707	904.3241	975.6975	1016.7051	1051.2665	1072.5886	1114.9361	1129.794	1132.1728	1170.1367	1188.8679	1228.7548	1284.7447	1358.0334	1407.3377	1415.2428	1448.2615	1475.2174	1482.1507	1490.4038	1509.0012	1525.4821	1535.3588	1882.7701	3013.4132	3026.3336	3038.784	3064.4815	3074.8894	3104.3724	3105.6786	3127.8618	3128.1843
CC1OC11CN(C)C1=O	C[C@H]1O[C@]21CN(C)C2=O	
InChI=1S/C6H9NO2/c1-4-6(9-4)3-7(2)5(6)8/h4H,3H2,1-2H3	InChI=1S/C6H9NO2/c1-4-6(9-4)3-7(2)5(6)8/h4H,3H2,1-2H3/t4-,6+/m1/s1
