21
gdb 90382	2.09437	1.49738	1.28512	0.9684	89.35	-0.2381	0.0499	0.288	1155.4543	0.180828	-349.902741	-349.893335	-349.89239	-349.936153	36.483	
C	-0.3448464694	 1.5056755817	-0.0160608807	-0.424788
C	 0.0291914271	 0.0283438698	-0.015776409	-0.016168
C	 1.1928718545	-0.5121413895	-0.9174817151	-0.268942
C	 1.7724219678	-1.2298512952	 0.3062062898	-0.111986
C	 2.1656939712	-0.2174560044	 1.365981804	-0.259626
C	 2.7586501463	 1.0582437884	 1.0739476336	 0.332848
C	 3.3068620818	 2.1062236325	 0.8481003847	-0.452029
C	 0.7028931612	-0.6198502987	 1.211436197	 0.3126
C	-0.0558740646	-1.2142495957	 2.3649428938	-0.497001
H	 0.517442822	 2.1411297927	 0.193889072	 0.138683
H	-0.7547850169	 1.7974498586	-0.989718953	 0.108688
H	-1.112623976	 1.7134343591	 0.7381175016	 0.108887
H	-0.8676887711	-0.5629375004	-0.2365577693	 0.071918
H	 0.8475646859	-1.1859932936	-1.7039214227	 0.099304
H	 1.8481917323	 0.2435598289	-1.3606733647	 0.110227
H	 2.1954523971	-2.2281384971	 0.3200057802	 0.086698
H	 2.603584416	-0.6925028665	 2.2422868933	 0.107949
H	 3.7760446798	 3.0374091343	 0.6484087417	 0.191597
H	-0.4980863851	-0.4338172574	 2.9957734751	 0.125531
H	-0.871445205	-1.8544773005	 2.0088113013	 0.117372
H	 0.593721755	-1.8235721371	 3.0020786266	 0.118238
125.8053	144.0412	175.4529	191.2393	207.388	235.2186	298.5422	351.9825	381.7571	437.1762	552.0868	567.7493	582.4698	627.1639	645.0139	714.4312	782.1224	823.5525	859.9538	890.6276	940.9098	962.0886	991.0764	1012.15	1069.551	1097.2218	1104.7794	1127.2647	1140.3474	1186.2422	1230.772	1241.6246	1258.9106	1298.4228	1332.5393	1374.481	1409.8596	1414.1885	1447.5753	1484.8997	1493.5165	1494.3885	1497.5361	1505.2355	2225.3731	3019.3568	3024.2063	3032.3447	3058.1863	3079.2931	3085.9437	3093.3917	3113.692	3121.6326	3136.1109	3171.9775	3503.4176
CC1CC2C(C#C)C12C	C[C@H]1C[C@H]2[C@@H](C#C)[C@@]12C	
InChI=1S/C9H12/c1-4-7-8-5-6(2)9(7,8)3/h1,6-8H,5H2,2-3H3	InChI=1S/C9H12/c1-4-7-8-5-6(2)9(7,8)3/h1,6-8H,5H2,2-3H3/t6-,7+,8-,9+/m0/s1
