20
gdb 68863	2.44235	1.81676	1.35734	2.6281	77.78	-0.2307	0.0818	0.3125	1032.5193	0.170409	-403.124483	-403.116091	-403.115147	-403.156829	33.073	
C	-0.2488611046	 1.513295206	 0.0300798206	-0.488462
C	 0.114162415	 0.0548532386	-0.0071967275	 0.327223
C	 0.3755044008	-0.6357807416	-1.3447425557	-0.230254
N	 1.2330900785	-1.814760813	-1.079422251	-0.093186
C	 2.5783636827	-1.4605421805	-0.6071114755	-0.250108
C	 1.5247395091	-1.8418330925	 0.3677045398	-0.101077
C	 0.8174953746	-0.7025210474	 1.0478035538	 0.351546
C	 1.3158521659	-0.1754888235	 2.3646451678	-0.489134
O	-0.6111102793	-0.8153908268	 0.8862810036	-0.339459
H	 0.5311241025	 2.1226445598	-0.4387168749	 0.121152
H	-1.1820010965	 1.6868925893	-0.517579113	 0.132548
H	-0.3963885376	 1.8587409661	 1.0557263865	 0.130582
H	-0.5673786537	-0.9795395038	-1.7838390216	 0.116983
H	 0.860449438	 0.0353092023	-2.0627952048	 0.10228
H	 3.3582232825	-2.167981826	-0.8728847496	 0.119118
H	 2.8809122789	-0.4145321319	-0.643357782	 0.104832
H	 1.5283973988	-2.8168687907	 0.8484082907	 0.098387
H	 2.3651266803	 0.1277314854	 2.288947855	 0.124832
H	 0.7231650636	 0.6790098933	 2.6984874716	 0.130067
H	 1.2467773103	-0.9519851932	 3.1343618762	 0.132128
159.3887	169.3236	174.5312	211.4717	241.1343	333.0108	378.2828	420.1072	467.7046	501.7379	565.7238	641.197	694.04	744.7678	790.6532	855.8078	882.3276	894.0226	944.8275	989.0805	1007.2231	1030.1233	1073.7241	1091.9722	1109.6298	1124.8763	1149.9564	1160.1185	1219.3192	1234.5592	1253.2577	1274.1994	1342.3986	1379.6107	1410.2287	1415.694	1451.9488	1475.0777	1483.6528	1488.1171	1495.2051	1505.0116	1512.936	3032.6298	3037.0521	3038.9495	3077.6824	3092.0036	3095.0395	3099.2042	3124.5666	3129.5402	3140.6454	3185.4708
CC12CN3CC3C1(C)O2	C[C@@]12CN3C[C@H]3[C@]1(C)O2	
InChI=1S/C7H11NO/c1-6-4-8-3-5(8)7(6,2)9-6/h5H,3-4H2,1-2H3	InChI=1S/C7H11NO/c1-6-4-8-3-5(8)7(6,2)9-6/h5H,3-4H2,1-2H3/t5-,6+,7-,8?/m0/s1
