15
gdb 29832	3.83116	1.11048	0.86566	6.1995	73.01	-0.2258	-0.0337	0.192	1259.4772	0.112796	-453.999389	-453.9909	-453.989956	-454.033562	29.884	
C	-0.0147822305	 1.4793363188	-0.0091881189	-0.348327
N	 0.0038343011	 0.0273112063	-0.0182493905	-0.058378
C	-0.0300609063	-0.809414272	-1.1110899172	-0.17056
C	 0.0370815065	-2.0908871897	-0.6144610751	 0.161252
C	 0.024433949	-3.3061601912	-1.4215346689	 0.081801
O	 0.0815606848	-4.4396743812	-1.0044663324	-0.27691
N	 0.1163792157	-2.0645902717	 0.7729692897	-0.404845
C	 0.09585055	-0.7998768544	 1.070413346	 0.449429
O	 0.1515476556	-0.2566999412	 2.2956255986	-0.42583
H	 0.9524857504	 1.8887612531	-0.3172882164	 0.150391
H	-0.7901230151	 1.8469787002	-0.6856715973	 0.149375
H	-0.2355752156	 1.8190141237	 1.0025905616	 0.170746
H	-0.1011805752	-0.4270919136	-2.1165177011	 0.145504
H	-0.0456673491	-3.0954355708	-2.5148739916	 0.054223
H	 0.1935824885	-0.9944194664	 2.9178583835	 0.322129
34.3083	100.7835	168.4309	202.724	232.3174	282.6756	378.892	427.3908	432.5276	522.8932	657.9556	662.9836	724.2921	737.8011	753.1531	860.3074	1007.644	1026.0596	1076.1702	1151.0387	1167.2775	1193.8339	1290.518	1353.226	1391.5651	1422.7348	1453.4425	1491.659	1508.3959	1544.4988	1583.8354	1630.8375	1801.3997	2848.7271	3046.7977	3113.3123	3160.7904	3268.265	3800.3898
CN1C=C(C=O)N=C1O	Cn1cc(C=O)nc1O	
InChI=1S/C5H6N2O2/c1-7-2-4(3-8)6-5(7)9/h2-3H,1H3,(H,6,9)	InChI=1S/C5H6N2O2/c1-7-2-4(3-8)6-5(7)9/h2-3H,1H3,(H,6,9)
