18
gdb 9897	4.66898	0.88105	0.83319	1.2225	79.18	-0.2354	0.035	0.2704	1433.5306	0.151708	-347.75754	-347.748175	-347.747231	-347.792719	33.095	
C	-0.2267369721	 1.4325790762	 0.2700088549	-0.456814
C	 0.0131416021	-0.0439883298	-0.0093659811	 0.184413
C	 1.4196102276	-0.4837153947	-0.3964075356	-0.287063
C	 0.8851462469	-0.8270340444	 0.9635556751	-0.284523
C	-1.0888509593	-0.7436881367	-0.614878931	 0.013432
C	-2.028477925	-1.3087148216	-1.1156429388	 0.102348
C	-3.1505883267	-1.9900948866	-1.7445569528	-0.21964
O	-3.9528840487	-2.6245705924	-0.7528480663	-0.40985
H	 0.6563207943	 1.8861417187	 0.7309566724	 0.111048
H	-0.4449529535	 1.9754093674	-0.6551050363	 0.12444
H	-1.0742795911	 1.568321856	 0.9489623281	 0.128642
H	 1.5133823968	-1.2790330238	-1.1259296843	 0.122786
H	 2.1708602644	 0.294964613	-0.4749871578	 0.114802
H	 1.2680526767	-0.2843270274	 1.8212370555	 0.115447
H	 0.6121002799	-1.856060728	 1.163032067	 0.127459
H	-3.7395975878	-1.256650552	-2.3197726332	 0.113522
H	-2.7658834673	-2.7251869483	-2.4708809608	 0.112737
H	-4.6807508574	-3.0583837155	-1.210014685	 0.286818
24.8729	93.3952	102.6261	205.4019	231.2159	236.8021	294.6293	307.6987	337.7378	480.0643	530.956	558.1971	633.2062	785.757	836.0845	838.0753	941.7759	952.797	1025.2528	1026.5053	1045.8702	1074.8142	1077.5038	1089.1235	1117.0823	1193.912	1247.2857	1251.6875	1293.0265	1350.029	1414.0586	1459.0637	1464.7259	1486.8319	1495.8059	1501.7372	1503.1231	2360.22	2958.1867	2975.1749	3033.0837	3104.021	3106.6001	3135.1648	3139.8932	3221.2694	3235.7673	3814.1327
CC1(CC1)C#CCO	CC1(CC1)C#CCO	
InChI=1S/C7H10O/c1-7(4-5-7)3-2-6-8/h8H,4-6H2,1H3	InChI=1S/C7H10O/c1-7(4-5-7)3-2-6-8/h8H,4-6H2,1H3
