13
gdb 35597	3.57106	1.09169	0.94647	3.9128	69.85	-0.2764	-0.0701	0.2064	1180.8353	0.091089	-411.813159	-411.805457	-411.804513	-411.846021	27.389	
N	 0.3269045299	-1.1331119116	 0.0795961143	-0.301198
C	 0.1559112218	 0.009415169	 0.0507244414	 0.271166
C	-0.0526575449	 1.4640031734	 0.0022745453	-0.148284
C	-0.6278343019	 2.0487847998	 1.3431853226	-0.186379
N	 0.505035556	 2.6756137845	 2.0301513986	-0.272392
C	 1.4619388944	 2.7018880718	 1.1857697063	 0.294669
N	 1.2149008023	 2.2031675749	-0.0934306835	-0.345645
C	 2.7531224594	 3.2663749894	 1.4658536343	 0.26859
N	 3.8066928382	 3.7017151844	 1.6527935957	-0.302752
H	-0.7002365247	 1.6901443088	-0.848489163	 0.148426
H	-1.3832657031	 2.8123771378	 1.128016985	 0.144729
H	-1.0879680656	 1.2835609953	 1.9707273491	 0.154714
H	 1.9786718583	 1.7888242825	-0.610194516	 0.274355
67.0951	140.4149	173.2396	202.524	259.353	421.0908	457.7958	522.5538	551.1227	584.4416	621.0992	713.4814	799.8374	811.8963	941.4554	993.7387	1024.5079	1034.8671	1078.1994	1214.1093	1236.6585	1253.3125	1330.5498	1361.8257	1438.587	1484.5881	1685.4402	2355.9752	2370.2637	3052.4734	3081.9206	3118.9209	3600.2076
N#CC1CN=C(N1)C#N	N#C[C@H]1C[N][C](N1)C#N	
InChI=1S/C5H4N4/c6-1-4-3-8-5(2-7)9-4/h4H,3H2,(H,8,9)	InChI=1S/C5H4N4/c6-1-4-3-8-5(2-7)9-4/h4H,3H2,(H,8,9)/t4-/m0/s1
