18
gdb 11904	4.44083	1.61557	1.39053	1.2562	75.69	-0.2093	0.0167	0.226	954.1765	0.15331	-347.79867	-347.791137	-347.790193	-347.830458	29.311	
C	 0.2389447145	 1.5260853494	-0.158806608	-0.387373
C	-0.0365035213	 0.0418882207	 0.0828335507	 0.075524
O	 0.4010998374	-0.7258792862	-1.0497961583	-0.318649
C	 1.2903683687	-1.7395705156	-0.6283583649	 0.435948
C	 1.2121505887	-3.080523519	-1.315678307	-0.327365
C	 2.3838123373	-2.1535060542	-1.5771672275	-0.325185
C	 1.4667818914	-1.5660427455	 0.8289378911	-0.15859
C	 0.7093004244	-0.5576905646	 1.2490176312	-0.11386
H	 1.3135400588	 1.7043991276	-0.2574462507	 0.120953
H	-0.2563659044	 1.855911237	-1.0764207583	 0.124615
H	-0.1426693512	 2.1278997905	 0.6730446147	 0.109478
H	-1.1245768919	-0.0991838375	 0.1993776081	 0.081217
H	 1.373871434	-3.9789870597	-0.7292484624	 0.111231
H	 0.4666351482	-3.1719873727	-2.0975907531	 0.124773
H	 2.4071556185	-1.638165018	-2.5309076664	 0.124718
H	 3.357234097	-2.409406508	-1.1718427332	 0.111684
H	 2.1190763637	-2.193009502	 1.423063626	 0.107654
H	 0.6126389062	-0.1895105724	 2.2622591379	 0.103226
62.1871	189.3983	225.8619	271.1861	317.3967	361.167	459.042	530.4623	583.1654	731.1659	763.4428	766.596	825.671	869.8468	887.3421	889.5825	920.1509	940.3364	946.9455	999.9608	1046.968	1062.1416	1065.079	1093.3736	1123.1924	1137.2647	1191.9392	1247.4329	1299.9362	1350.676	1370.2053	1394.9597	1406.0066	1450.3051	1485.0504	1490.8691	1494.8725	1680.2568	2951.1223	3036.4445	3109.7153	3121.9249	3129.1026	3131.7401	3207.3223	3214.9107	3229.5613	3231.8545
CC1OC2(CC2)C=C1	C[C@H]1OC2(CC2)C=C1	
InChI=1S/C7H10O/c1-6-2-3-7(8-6)4-5-7/h2-3,6H,4-5H2,1H3	InChI=1S/C7H10O/c1-6-2-3-7(8-6)4-5-7/h2-3,6H,4-5H2,1H3/t6-/m1/s1
