19
gdb 83896	2.46223	1.48109	1.18576	0.8066	82.38	-0.2348	0.0472	0.282	1123.8628	0.158417	-385.847523	-385.838744	-385.8378	-385.880752	33.46	
C	-0.0642055688	 1.550502784	 0.0119831235	-0.419303
C	 0.0466493796	 0.0452603621	 0.0560759812	-0.081705
C	 1.3415282601	-0.6726468978	-0.1963459625	 0.039319
O	 2.5070510089	 0.1019984086	-0.1688925792	-0.265367
C	 2.976561578	 0.1727433557	 1.1834000802	-0.062784
C	 1.7284031666	 0.074194881	 2.080693645	-0.328208
C	 0.7409703101	-0.7149625474	 1.2038466584	 0.11423
C	 0.1189274021	-1.8883149824	 1.7344609836	 0.194198
C	-0.4087769026	-2.8714152009	 2.1863877442	-0.403405
H	 0.9018855404	 2.0301717881	 0.1806182104	 0.131191
H	-0.4164645739	 1.8681859993	-0.9749638322	 0.124104
H	-0.7763408767	 1.9229077564	 0.7557227374	 0.121061
H	-0.8289351146	-0.4857030486	-0.3082358117	 0.096723
H	 1.3893607892	-1.5547290655	-0.8277760592	 0.106589
H	 3.664056602	-0.6624630309	 1.3824066827	 0.103216
H	 3.5283894551	 1.1103992155	 1.2935487843	 0.111015
H	 1.9335998261	-0.4632641208	 3.0082672554	 0.120592
H	 1.3396197265	 1.0618013913	 2.3447720307	 0.113232
H	-0.873552038	-3.739362718	 2.583125348	 0.185303
116.0875	137.046	147.5715	156.1044	211.2466	268.9926	387.2358	465.2691	515.2235	552.71	568.7472	591.818	640.1022	645.5462	740.9235	795.1492	858.7228	879.5339	950.0252	957.9058	1012.357	1034.4651	1041.7589	1074.3036	1108.5275	1123.4056	1150.785	1202.5797	1238.0809	1251.0687	1270.8312	1305.7242	1339.1412	1387.1327	1413.6229	1430.8778	1484.2667	1495.623	1500.7081	1518.8554	2231.8504	2997.6511	3038.551	3059.3126	3090.3565	3095.9539	3118.5387	3126.6269	3146.2659	3158.036	3503.9538
CC1C2OCCC12C#C	C[C@H]1[C@H]2OCC[C@@]12C#C	
InChI=1S/C8H10O/c1-3-8-4-5-9-7(8)6(8)2/h1,6-7H,4-5H2,2H3	InChI=1S/C8H10O/c1-3-8-4-5-9-7(8)6(8)2/h1,6-7H,4-5H2,2H3/t6-,7+,8-/m0/s1
