16
gdb 46856	2.51218	1.82181	1.26168	5.2733	71.45	-0.252	-0.0564	0.1956	991.171	0.125854	-437.897921	-437.890584	-437.88964	-437.929922	28.304	
N	-0.1605970328	 1.3015250697	-0.2206407268	-0.469664
C	-0.0391758109	 0.101037962	 0.1525887731	 0.275327
O	 1.0843715378	-0.3534400448	 0.7893136802	-0.25386
C	 1.3248101579	-1.7648386604	 0.8574686936	-0.112405
C	 0.1341912316	-2.5272448979	 1.3875977453	-0.04827
C	-0.781657559	-1.8701129367	 2.3613959349	-0.301709
C	-1.2230286515	-2.0371779963	 0.9072613655	-0.132797
C	-1.2088264828	-0.8723743911	-0.0125392951	 0.348862
O	-2.050147532	-0.6921633635	-0.8584483953	-0.297991
H	 0.6985930055	 1.8196782296	-0.0195121656	 0.229288
H	 1.6087440706	-2.1377535062	-0.135990534	 0.123074
H	 2.1903172191	-1.868051543	 1.5178957909	 0.131196
H	 0.2756397659	-3.6017837802	 1.4491845073	 0.110924
H	-1.2993691626	-2.4914408755	 3.082173573	 0.133655
H	-0.5407817128	-0.8725192777	 2.709671355	 0.147391
H	-2.0078226641	-2.7533340781	 0.696254898	 0.116981
73.8243	154.2052	261.8141	316.9891	349.684	428.6373	459.7418	487.6821	579.052	641.9494	711.5158	770.4483	810.1277	860.3991	915.8611	930.4035	949.0485	964.2179	1013.547	1073.6693	1078.476	1095.9009	1125.6964	1146.7101	1195.5649	1220.595	1279.4771	1319.8663	1353.678	1399.5436	1422.6359	1491.8062	1510.3409	1731.8281	1808.9866	3017.132	3090.9313	3149.5867	3162.979	3193.5125	3239.3144	3456.1796
N=C1OCC2CC2C1=O	[NH][C]1OC[C@H]2C[C@H]2C1=O	
InChI=1S/C6H7NO2/c7-6-5(8)4-1-3(4)2-9-6/h3-4,7H,1-2H2	InChI=1S/C6H7NO2/c7-6-5(8)4-1-3(4)2-9-6/h3-4,7H,1-2H2/t3-,4-/m1/s1
