24
gdb 7577	3.04028	1.49462	1.38352	0.0444	84.42	-0.2761	0.076	0.3521	1091.9082	0.222774	-314.27356	-314.264131	-314.263187	-314.306803	36.554	
C	 0.0305317678	 1.6118420845	-0.0062047866	-0.402078
C	 0.0811770299	 0.0872269267	 0.1724645534	-0.015284
C	 0.7203737731	-0.2886516087	 1.5174868051	-0.402088
C	-1.2891503099	-0.5859268269	-0.0467183723	 0.390274
C	-2.3526090097	-0.1572799006	 0.970607633	-0.456921
C	-1.8424034851	-0.5111008061	-1.5099728729	-0.260468
C	-2.1620560602	-2.027748975	-1.4510182342	-0.219201
C	-1.2494737334	-2.1438217697	-0.2021797765	-0.260462
H	 1.0395722364	 2.0370590094	 0.0115842072	 0.108288
H	-0.4308491786	 1.8900298589	-0.9594637079	 0.113237
H	-0.5396276503	 2.0940812755	 0.7950506964	 0.113944
H	 0.7363683172	-0.3084069318	-0.6176826075	 0.061395
H	 0.1693113564	 0.1407688927	 2.3610403731	 0.113954
H	 0.7540464121	-1.3741126118	 1.6574781689	 0.113233
H	 1.7476672914	 0.0862716571	 1.5756911358	 0.108285
H	-2.542050022	 0.9203614835	 0.929141992	 0.112577
H	-3.3046414613	-0.6614033299	 0.7729749837	 0.110186
H	-2.0588598874	-0.4098811813	 1.9947323713	 0.112584
H	-2.67722257	 0.1722472914	-1.689997242	 0.089697
H	-1.0514049334	-0.2856314448	-2.232291441	 0.092035
H	-3.2124073937	-2.2252297229	-1.2213487597	 0.10106
H	-1.8891073369	-2.6268893983	-2.322766328	 0.094027
H	-0.246828918	-2.5011374075	-0.457695461	 0.09203
H	-1.6212035443	-2.7356239246	 0.6391803698	 0.089693
88.6902	135.3527	191.1815	231.9623	247.3817	266.4302	289.4892	311.9326	335.8789	386.4233	460.1003	462.8195	621.1828	698.9679	797.5721	852.885	869.4848	908.3919	924.0673	930.2083	939.6741	947.4438	968.5259	994.3661	1045.1727	1085.1529	1125.5288	1165.9405	1177.8516	1204.2145	1215.1601	1223.4074	1258.154	1280.1926	1287.5731	1314.0024	1357.058	1372.5483	1399.8615	1410.9062	1422.8623	1475.6735	1482.793	1486.6517	1489.5234	1498.3991	1506.8015	1508.5355	1509.1144	1514.1171	2987.8157	3028.7063	3029.1602	3034.2694	3041.0388	3045.7838	3061.9266	3087.2191	3091.4801	3091.9952	3093.2273	3098.1988	3098.432	3102.1453	3102.6872	3114.9652
CC(C)C1(C)CCC1	CC(C)C1(C)CCC1	
InChI=1S/C8H16/c1-7(2)8(3)5-4-6-8/h7H,4-6H2,1-3H3	InChI=1S/C8H16/c1-7(2)8(3)5-4-6-8/h7H,4-6H2,1-3H3
