16
gdb 50549	2.66646	1.13814	0.84688	2.7957	68.95	-0.2627	-0.0525	0.2102	1290.4845	0.122653	-437.880783	-437.871859	-437.870915	-437.916145	30.396	
O	-0.9759488061	 1.3865432637	 0.3128694927	-0.239672
C	 0.1302974665	 0.9394442794	 0.1453340692	 0.119221
C	 1.3613211366	 1.7998933736	-0.0544528909	 0.026266
O	 2.4316274145	 1.0739641111	-0.6797467686	-0.286363
C	 2.5486381859	 2.0581163626	-1.7344864442	-0.076511
C	 1.3617062595	 2.8761405544	-1.1758511447	-0.060138
C	 0.1099383309	 2.9818642725	-2.0570253856	-0.369483
C	 0.3267337882	 3.9019349117	-3.1718965305	 0.260274
N	 0.5269805517	 4.6298849623	-4.0466295326	-0.297616
H	 0.339886918	-0.1529658544	 0.1273164355	 0.107283
H	 1.6522729481	 2.1969057513	 0.9305512965	 0.118972
H	 3.5184569624	 2.5655251995	-1.7112908394	 0.123355
H	 2.3973821163	 1.6146898615	-2.7255881514	 0.121445
H	 1.6388451585	 3.8679028282	-0.8170850749	 0.114999
H	-0.165424674	 2.0017922233	-2.4626538425	 0.1571
H	-0.744006657	 3.3202837594	-1.4620667485	 0.180869
42.9944	67.1246	94.4973	120.264	176.223	289.0679	347.1096	397.9976	403.9798	525.2943	591.6975	754.5106	837.7892	888.4067	900.2396	940.418	969.8103	1005.2709	1054.0962	1075.973	1102.3756	1140.5758	1163.6661	1226.8707	1235.8467	1268.3778	1317.4824	1334.4507	1352.6117	1385.9069	1398.8402	1459.4342	1525.3935	1822.6258	2363.218	2899.2311	2987.7089	3032.048	3051.8797	3080.107	3094.7784	3112.1277
O=CC1OCC1CC#N	O=C[C@H]1OC[C@H]1CC#N	
InChI=1S/C6H7NO2/c7-2-1-5-4-9-6(5)3-8/h3,5-6H,1,4H2	InChI=1S/C6H7NO2/c7-2-1-5-4-9-6(5)3-8/h3,5-6H,1,4H2/t5-,6-/m1/s1
