21
gdb 109737	2.07948	1.47111	1.0198	3.2315	80.16	-0.2377	0.0438	0.2815	1260.7911	0.18186	-420.431777	-420.421695	-420.420751	-420.46659	37.303	
C	 0.4870198955	 1.5527499238	 0.0108713893	-0.384806
C	 0.1532327761	 0.0560358549	 0.0332479453	-0.192679
C	 0.5726911786	-0.6084381769	 1.3300615765	 0.004004
C	 0.7332787291	-2.0971425598	 1.4936711069	-0.039542
C	 0.5237903927	-3.0723805947	 0.357946291	-0.403429
N	 1.8864145827	-1.1971540591	 1.5389635312	-0.131962
C	 2.9432171906	-1.1630730351	 0.6295289638	 0.400188
N	 3.6679507241	-2.3412506409	 0.6096129878	-0.531905
O	 3.2378236356	-0.198056847	-0.0491438124	-0.377559
H	 1.5682074228	 1.6923037986	 0.0691500528	 0.157291
H	 0.1250047516	 2.0167722847	-0.9117224068	 0.106416
H	 0.0180312044	 2.0758930101	 0.8520308044	 0.104271
H	-0.9301696772	-0.0864311671	-0.0781044866	 0.093825
H	 0.6308872553	-0.4316790324	-0.8194279718	 0.11458
H	 0.2201187992	-0.0722892771	 2.2127357247	 0.090721
H	 0.4794367422	-2.5085802209	 2.4712604375	 0.090708
H	 0.7467171769	-2.6320705569	-0.6155081233	 0.135875
H	 1.1627144607	-3.9533259122	 0.4753315116	 0.1236
H	-0.5173627095	-3.4121111562	 0.3522069584	 0.124059
H	 3.6282128053	-2.924776235	 1.430486168	 0.256242
H	 4.5783644032	-2.2515448809	 0.1854150914	 0.2601
72.3411	124.8614	147.4342	160.6569	173.2072	205.6315	242.6393	285.7684	373.8545	457.4157	458.8635	485.647	507.8645	551.3696	632.4684	710.3047	773.6629	786.858	828.6876	848.5641	977.6234	1002.2148	1035.769	1061.9454	1082.8008	1113.7756	1140.0918	1162.1526	1177.443	1206.432	1285.8599	1299.1297	1341.1869	1397.8344	1405.4819	1410.2993	1422.0566	1453.4259	1472.0891	1489.6971	1496.3942	1498.2577	1517.0589	1615.9661	1786.0121	3020.853	3035.2582	3042.6155	3083.1273	3092.0473	3096.3351	3101.338	3110.4511	3139.2482	3142.3811	3582.0825	3702.4524
CCC1C(C)N1C(N)=O	CC[C@H]1[C@@H](C)N1C(=O)N	
InChI=1S/C6H12N2O/c1-3-5-4(2)8(5)6(7)9/h4-5H,3H2,1-2H3,(H2,7,9)	InChI=1S/C6H12N2O/c1-3-5-4(2)8(5)6(7)9/h4-5H,3H2,1-2H3,(H2,7,9)/t4-,5+,8?/m1/s1
