21
gdb 52666	3.19021	0.78749	0.66948	2.9785	89.25	-0.2425	-0.0217	0.2208	1715.4605	0.178162	-387.086025	-387.074529	-387.073585	-387.124539	39.196	
C	-0.0093980004	 1.4976820429	 0.06531736	-0.500029
C	 0.0101239249	 0.041757977	 0.0285123253	 0.091154
C	 0.0282245949	-1.1627945813	 0.0098651335	 0.049203
C	 0.0107339332	-2.6242829889	-0.0302305662	-0.170109
C	-1.4350430713	-3.15323174	 0.0752652302	-0.397289
C	 0.7262333585	-3.167209349	-1.3023106211	-0.045338
C	 2.1725330031	-2.6554407703	-1.4228045597	-0.419075
C	 0.7694518692	-4.6821110299	-1.259867874	 0.156758
O	 0.3871040184	-5.4190269902	-2.1308057572	-0.252483
H	 0.8423149137	 1.894248993	 0.6289442482	 0.148443
H	 0.0344336382	 1.9224694365	-0.9436031354	 0.148978
H	-0.9233525137	 1.8704349332	 0.5407874565	 0.14966
H	 0.5730341343	-2.9966629089	 0.8400518596	 0.101739
H	-1.4538158637	-4.2473539938	 0.1011779108	 0.124882
H	-1.9148438754	-2.7794292025	 0.9829765903	 0.126267
H	-2.0274944177	-2.8233969461	-0.7831730906	 0.132007
H	 0.1533228967	-2.8765335124	-2.1887470051	 0.099792
H	 2.6336176002	-3.0048104732	-2.3509086263	 0.128887
H	 2.185102137	-1.5631628333	-1.4135601138	 0.141186
H	 2.7867842275	-3.0066130337	-0.5852739746	 0.118403
H	 1.2336350624	-5.0893446391	-0.3272531105	 0.066963
24.3826	48.632	65.5299	92.9619	146.4225	212.7564	226.2308	236.0704	287.3214	291.6783	322.7439	347.4607	393.132	466.016	532.8587	581.7366	738.9561	848.6454	907.7174	956.1079	979.2373	1005.9627	1052.7437	1053.5307	1078.9473	1114.3395	1147.7779	1154.3931	1201.1698	1252.0332	1313.0198	1335.3175	1361.5996	1401.4874	1412.7248	1415.309	1426.3083	1478.6772	1478.8696	1488.2557	1496.5078	1498.1656	1501.2275	1835.5906	2366.5245	2823.9924	2984.6666	3027.3086	3034.6162	3041.3069	3066.6733	3088.0526	3088.3414	3105.2022	3112.748	3125.3205	3128.5535
CC#CC(C)C(C)C=O	CC#C[C@@H](C)[C@@H](C)C=O	
InChI=1S/C8H12O/c1-4-5-7(2)8(3)6-9/h6-8H,1-3H3	InChI=1S/C8H12O/c1-4-5-7(2)8(3)6-9/h6-8H,1-3H3/t7-,8+/m1/s1
