20
gdb 83740	2.60066	1.60712	1.33633	1.3926	78.21	-0.2371	0.0696	0.3067	1051.5828	0.171955	-403.103235	-403.095052	-403.094108	-403.135959	31.8	
C	-0.3844648539	 1.4226938505	 0.2739826795	-0.401551
C	-0.0086961194	-0.0326649327	 0.1145481894	-0.040503
C	 1.3236789786	-0.467395162	-0.4382370501	 0.068684
O	 2.3283753423	 0.5216281447	-0.501971825	-0.260538
C	 2.9846545014	 0.5882919197	 0.7619777379	-0.142419
C	 1.978398873	 0.0785872943	 1.797814397	 0.303082
C	 2.3838103838	-0.210224822	 3.1916929637	-0.306541
N	 1.4856509838	 0.9226719264	 2.9006821239	-0.346291
C	 1.0008423876	-0.7515050159	 1.0043884226	-0.161309
H	 0.5017593957	 2.0580307665	 0.3301902037	 0.121506
H	-0.9716456082	 1.7559507421	-0.5883720016	 0.111423
H	-0.977719987	 1.5838181694	 1.1781292413	 0.129122
H	-0.8342860091	-0.6779901863	-0.1789820849	 0.08363
H	 1.4077373068	-1.2315087443	-1.2051951115	 0.092528
H	 3.8857025282	-0.0449892645	 0.7503842435	 0.100255
H	 3.2949786738	 1.6252463851	 0.9362947843	 0.103255
H	 1.925191172	-1.0315404864	 3.7366281261	 0.12015
H	 3.4135495355	-0.0035289814	 3.476820398	 0.109637
H	 2.0075614479	 1.7957530628	 2.9356829115	 0.225977
H	 0.7675635371	-1.7498171461	 1.3558125507	 0.089902
87.1454	128.2123	165.4068	234.6119	282.7422	322.595	370.1779	498.0728	517.9173	605.3723	700.8254	755.6565	776.8768	816.8652	862.6576	886.3467	936.0216	948.757	959.568	978.3332	1019.9866	1040.4346	1076.7479	1088.9686	1091.4947	1101.9754	1134.2521	1141.5239	1150.4945	1216.8102	1226.7982	1261.1375	1288.4609	1310.6961	1332.8496	1368.8375	1417.1873	1423.5299	1424.1565	1489.2791	1499.1283	1508.6611	1515.3321	2976.5118	3042.7389	3053.9643	3095.53	3104.9543	3121.0128	3134.6242	3148.9567	3174.077	3179.0444	3485.2057
CC1C2OCC3(CN3)C12	C[C@H]1[C@H]2OC[C@]3(CN3)[C@@H]12	
InChI=1S/C7H11NO/c1-4-5-6(4)9-3-7(5)2-8-7/h4-6,8H,2-3H2,1H3	InChI=1S/C7H11NO/c1-4-5-6(4)9-3-7(5)2-8-7/h4-6,8H,2-3H2,1H3/t4-,5+,6-,7-/m1/s1
