18
gdb 40386	3.65377	1.28258	1.16913	2.4757	75.28	-0.2248	0.062	0.2868	1104.9828	0.147848	-401.835952	-401.828493	-401.827549	-401.868179	29.67	
C	 0.2519384854	 1.5353314744	-0.0718410198	-0.248515
N	 1.2474097015	 0.4656829141	-0.2175054846	-0.307923
C	-0.1582293409	 0.1115004511	 0.054623936	-0.166583
C	-0.441397983	-0.5247786452	 1.3569818948	 0.49877
O	-0.8036383752	-1.9206449632	 1.3706868795	-0.297051
C	-1.676951896	-0.9678199603	 1.9993045453	-0.075495
C	-1.1188979606	-0.5993848167	 3.4099434568	-0.092316
C	 0.174807188	-1.3179997489	 3.6874550774	-0.28503
C	 0.1756806737	-0.1462640132	 2.7442315097	-0.133765
H	 0.3706327721	 2.1516631843	 0.8148660281	 0.122018
H	-0.082526197	 2.076022293	-0.9535057599	 0.115382
H	 1.464610532	 0.3090704022	-1.1976835665	 0.237419
H	-0.7475259354	-0.3049290488	-0.7594764289	 0.092681
H	-2.7107976562	-0.9463284345	 1.6746048135	 0.10358
H	-1.6997734798	-0.0935285815	 4.1692160464	 0.091808
H	 0.6063862627	-1.1100986029	 4.6614032358	 0.110482
H	 0.3336182353	-2.3212674836	 3.3138416348	 0.137542
H	 0.7473820933	 0.7546067797	 2.9182802016	 0.096996
69.261	145.1262	165.5874	351.7234	382.6427	426.1034	500.1369	571.9043	624.9515	736.0424	753.1412	801.602	841.9681	849.6648	889.3065	901.7773	918.3781	929.6093	942.9439	975.7161	1007.987	1012.3021	1043.9285	1046.783	1077.4633	1102.4347	1121.3572	1143.9736	1170.8931	1216.9079	1244.9928	1261.779	1279.3062	1294.0695	1304.1554	1381.275	1461.0921	1498.6538	1527.2019	3108.4136	3134.0416	3141.3687	3182.9099	3192.2141	3203.4299	3213.709	3235.4572	3512.0232
C1NC1C12OC1C1CC21	C1N[C@H]1[C@]12O[C@H]1[C@H]1C[C@@H]21	
InChI=1S/C7H9NO/c1-3-4(1)7(5-2-8-5)6(3)9-7/h3-6,8H,1-2H2	InChI=1S/C7H9NO/c1-3-4(1)7(5-2-8-5)6(3)9-7/h3-6,8H,1-2H2/t3-,4+,5+,6-,7-/m0/s1
