20
gdb 102369	1.91894	1.38399	1.17443	1.8778	76.01	-0.2321	-0.0427	0.1894	1214.4202	0.166966	-440.288168	-440.277394	-440.27645	-440.324023	37.677	
C	-0.3024655153	 1.5322462282	 0.2329877089	-0.408409
C	-0.0864059573	 0.0263591837	 0.061616481	-0.220142
C	 0.6486718833	-0.4249080904	-1.2440591708	 0.065089
N	 0.8185628864	-1.8691499931	-1.1739785102	-0.315485
C	 1.5374708381	-2.4749914514	-2.2987581409	-0.341144
C	-0.2821028582	-0.0870951265	-2.403190966	 0.14386
O	-0.3196561223	 0.9804978514	-2.9606741459	-0.259059
C	 1.9656413906	 0.3616358953	-1.3411259873	 0.140395
O	 2.9891255039	-0.0465097145	-0.8522733404	-0.272508
H	 0.6446685208	 2.0699632264	 0.339453667	 0.130178
H	-0.8388144007	 1.9662478757	-0.6146421398	 0.14506
H	-0.8887077076	 1.7190942954	 1.1371731502	 0.124417
H	 0.5145068881	-0.3592645805	 0.8945617945	 0.117591
H	-1.0414066739	-0.5101132171	 0.0906813153	 0.120921
H	 1.3094230363	-2.0909830793	-0.3142356384	 0.231355
H	 0.9868057055	-2.2996548691	-3.229629479	 0.124791
H	 2.5641669322	-2.1068759719	-2.432327185	 0.126813
H	 1.5765278498	-3.5569130236	-2.1461051883	 0.128109
H	-0.9756723519	-0.9165131458	-2.6639601909	 0.104357
H	 1.9152939523	 1.3290080673	-1.879046184	 0.113812
88.0963	91.9696	104.6131	127.0924	169.678	196.7896	230.3304	244.9398	284.1083	289.2705	319.0691	396.905	472.6392	513.299	658.782	736.5702	781.2295	789.6056	863.7541	987.1091	1012.9585	1017.6611	1022.4679	1102.2899	1111.2701	1151.0859	1174.5911	1197.4944	1248.8952	1304.2848	1346.3183	1394.6904	1400.558	1423.096	1458.6505	1481.0695	1486.9944	1496.4075	1501.7617	1507.9435	1528.1796	1809.2693	1826.4401	2896.6627	2940.1885	3005.8506	3027.9837	3046.5159	3070.7006	3071.4983	3109.0896	3112.2323	3127.5856	3531.1737
CCC(NC)(C=O)C=O	CCC(NC)(C=O)C=O	
InChI=1S/C6H11NO2/c1-3-6(4-8,5-9)7-2/h4-5,7H,3H2,1-2H3	InChI=1S/C6H11NO2/c1-3-6(4-8,5-9)7-2/h4-5,7H,3H2,1-2H3
