19
gdb 98537	3.43008	1.13896	0.94574	2.1136	77.44	-0.2387	-0.0201	0.2186	1289.8355	0.157351	-423.007748	-422.998733	-422.997789	-423.04221	32.991	
C	 0.3732441652	 1.4748811283	-0.1475671567	-0.382756
C	 0.6719015863	-0.0135447722	 0.0038499441	-0.283134
C	 0.3334924965	-0.5544242514	 1.3801232327	 0.273936
O	-0.1234909443	 0.1287569739	 2.2741317238	-0.333694
C	 0.6013063105	-1.9976822841	 1.6020051916	 0.371294
C	-0.0757355411	-2.843723716	 2.6455148849	-0.320909
C	 1.4148717161	-2.6817065426	 2.7038913443	-0.154684
C	 2.0608474978	-3.4410287711	 1.5499340533	-0.097008
O	 1.1798474319	-2.8128024861	 0.576838589	-0.325029
H	 0.9484977428	 2.0644065001	 0.571053603	 0.129389
H	 0.6225178271	 1.8174897209	-1.1555841239	 0.109351
H	-0.683862434	 1.6821664515	 0.0377919208	 0.130876
H	 0.1243361957	-0.6173580958	-0.7331007814	 0.13451
H	 1.7271201404	-0.2434165014	-0.1940436652	 0.129519
H	-0.6260717419	-2.2739563191	 3.385630172	 0.147572
H	-0.5187856727	-3.7836847134	 2.3286050727	 0.121271
H	 1.9286253348	-2.2198445166	 3.5355038875	 0.120331
H	 3.1018968702	-3.1571717238	 1.3629950905	 0.1163
H	 1.9656400288	-4.5328326412	 1.5480858871	 0.112865
55.5438	69.6517	147.3915	168.3801	202.7887	276.4959	332.4061	373.9715	445.7352	505.696	565.5809	706.8144	762.1975	779.3877	836.4106	847.8564	921.4768	954.644	975.0083	994.0597	998.4956	1014.666	1052.0457	1075.823	1092.2981	1112.8982	1131.6027	1161.7175	1194.7748	1268.7219	1288.0402	1340.031	1351.5368	1402.7905	1413.5849	1439.6061	1464.4561	1492.879	1497.8289	1516.3305	1780.4552	3026.6728	3030.6875	3050.8586	3051.2351	3082.0008	3122.3531	3123.0649	3125.1875	3213.7794	3231.2789
CCC(=O)C12CC1CO2	CCC(=O)[C@]12C[C@H]1CO2	
InChI=1S/C7H10O2/c1-2-6(8)7-3-5(7)4-9-7/h5H,2-4H2,1H3	InChI=1S/C7H10O2/c1-2-6(8)7-3-5(7)4-9-7/h5H,2-4H2,1H3/t5-,7-/m0/s1
