18
gdb 93565	3.41418	1.11521	0.89268	3.0402	75.1	-0.2565	-0.0597	0.1968	1318.7217	0.146323	-439.125509	-439.116203	-439.115259	-439.16091	32.557	
C	 0.0326119496	 1.5386924323	 0.0404289211	-0.388906
C	 0.0524285819	 0.0106678941	 0.031339401	 0.01885
C	 0.7883983203	-0.6106525879	-1.1905429322	-0.12292
O	 1.8162744482	-1.4428561187	-0.6071559007	-0.240109
C	 1.7040721912	-1.2766642771	 0.7290214624	 0.313423
N	 0.7899822768	-0.5218440522	 1.1931186496	-0.308339
C	 2.7007904514	-2.0256697708	 1.5802279429	 0.316858
C	 2.5623242111	-1.8347661295	 3.0721604454	-0.474565
O	 3.5398836337	-2.7230928741	 1.063641331	-0.278644
H	 1.0510724895	 1.9376074497	-0.0070999024	 0.123609
H	-0.5282686383	 1.9222650903	-0.8182013222	 0.118452
H	-0.43753774	 1.9091940691	 0.9547765948	 0.134127
H	-0.9796099958	-0.3552270655	 0.093808508	 0.096869
H	 0.1522344609	-1.2419214419	-1.8156381532	 0.124425
H	 1.2749110834	 0.1407299599	-1.8210725237	 0.119732
H	 1.5655198174	-2.143164023	 3.4011999881	 0.154367
H	 3.3295778351	-2.4188061705	 3.5809697626	 0.138831
H	 2.6554950335	-0.7750501442	 3.3277807275	 0.15394
37.7068	67.1288	112.7161	132.9234	177.4794	246.6378	333.8513	357.4344	396.804	488.9573	551.2108	623.4188	691.0146	721.9462	852.3317	907.7645	935.978	949.0264	956.8202	1014.5047	1043.3255	1088.3482	1117.9533	1146.7856	1160.3538	1227.4744	1283.2611	1330.9302	1366.1583	1381.5605	1397.9766	1411.8277	1455.8232	1463.1933	1489.0222	1496.8892	1520.1371	1697.5252	1811.2767	3027.1443	3037.2633	3049.7081	3053.0537	3102.5966	3108.7628	3117.2925	3125.6232	3161.3849
CC1COC(=N1)C(C)=O	C[C@H]1COC(=N1)C(=O)C	
InChI=1S/C6H9NO2/c1-4-3-9-6(7-4)5(2)8/h4H,3H2,1-2H3	InChI=1S/C6H9NO2/c1-4-3-9-6(7-4)5(2)8/h4H,3H2,1-2H3/t4-/m0/s1
