27
gdb 60268	3.44856	0.76697	0.73689	0.089	95.95	-0.294	0.0771	0.371	1755.834	0.253107	-353.588002	-353.577483	-353.576539	-353.624575	39.436	
C	 0.8840840331	-0.3762791935	-1.1089407033	-0.380898
C	 0.0100021847	 0.0614916963	 0.0748441707	 0.039643
C	-0.0467101029	 1.5928451758	 0.1630487324	-0.38725
C	-1.4142259774	-0.5232351592	 0.0053397386	-0.192806
C	-1.5259417613	-2.0496722771	 0.0674115175	 0.041402
C	-1.0015346325	-2.6943131004	 1.368942509	-0.198716
C	-1.6982348328	-4.0789818341	 1.4637405472	-0.207758
C	-2.8590907035	-4.0450866297	 0.428268057	-0.206057
C	-2.9721618936	-2.5722036256	-0.0012828094	-0.208724
H	 1.8834479011	 0.0666916884	-1.0418617272	 0.107381
H	 1.0081101494	-1.4624510322	-1.1509808939	 0.112749
H	 0.4428881193	-0.0541136634	-2.0603224977	 0.108885
H	 0.4820670439	-0.3065440007	 0.9965448336	 0.073806
H	-0.5097330117	 2.0204466237	-0.7347852995	 0.109482
H	-0.6338343084	 1.9221180379	 1.0269803747	 0.107338
H	 0.9559526997	 2.0238182375	 0.2547263889	 0.106245
H	-2.0038550372	-0.1030638093	 0.8329610009	 0.08313
H	-1.8937115696	-0.1658343598	-0.9179435714	 0.0835
H	-0.9779044222	-2.4862761822	-0.7796180639	 0.067209
H	 0.08892829	-2.7729388184	 1.3964795736	 0.092925
H	-1.2936891097	-2.0650428708	 2.2195276921	 0.091232
H	-1.0013625138	-4.8921363267	 1.2404677916	 0.095797
H	-2.0689870127	-4.2604143865	 2.4767278615	 0.096461
H	-2.6064509529	-4.6638393049	-0.4399006472	 0.095525
H	-3.7953711798	-4.4395052186	 0.8329399198	 0.091943
H	-3.592484966	-2.0129333821	 0.7127377185	 0.089417
H	-3.4269126132	-2.4471106144	-0.9891873241	 0.08814
33.7731	62.8807	90.1714	123.0329	195.8646	235.6498	256.8328	299.7288	324.7506	408.8085	419.3615	448.0776	584.0827	627.8567	765.8212	816.7935	827.4901	840.7708	889.0291	899.4747	928.9452	949.2006	958.8443	967.8177	975.4272	993.3138	1040.1608	1059.7628	1089.506	1117.5233	1161.5829	1191.9316	1203.4672	1209.8732	1225.5872	1267.9766	1272.2398	1297.2246	1307.3048	1324.71	1339.8151	1341.1501	1352.579	1367.8624	1381.2199	1398.5619	1402.4861	1422.9579	1478.1378	1485.8391	1489.625	1493.7401	1496.738	1497.4573	1506.262	1511.5523	1519.0316	2991.0461	2998.9846	3005.1984	3015.36	3021.1865	3023.8275	3027.0165	3035.0351	3038.4791	3054.3207	3071.4342	3078.1867	3085.0666	3085.2245	3091.6963	3096.2822	3101.0776	3104.0331
CC(C)CC1CCCC1	CC(C)CC1CCCC1	
InChI=1S/C9H18/c1-8(2)7-9-5-3-4-6-9/h8-9H,3-7H2,1-2H3	InChI=1S/C9H18/c1-8(2)7-9-5-3-4-6-9/h8-9H,3-7H2,1-2H3
