15
gdb 44273	3.54151	1.95442	1.5354	4.5084	68.97	-0.2468	0.0279	0.2747	844.4087	0.11488	-416.733892	-416.727939	-416.726995	-416.7642	24.859	
N	-0.0473341506	 1.3081050707	-0.2136168761	-0.520391
C	 0.0217178496	 0.0695147202	 0.018617484	 0.432542
O	 1.2079363289	-0.5769404329	 0.2186665048	-0.248001
C	 1.1289069947	-1.9592103004	 0.4671854307	 0.100834
C	 0.0427100241	-2.5715243461	 1.2902200679	-0.137825
C	 0.1463338603	-2.84926514	-0.2216471416	-0.137825
C	-1.1936354674	-2.0866024712	-0.4246410088	-0.06797
C	-1.2934399624	-1.819108697	 1.0314627969	-0.067971
N	-1.1543442396	-0.7108351011	 0.0813563307	-0.143559
H	 0.8937534914	 1.7057981875	-0.2221586528	 0.221735
H	 2.128910644	-2.3526111866	 0.6079977604	 0.123631
H	 0.2211508413	-3.2273809262	 2.1315178343	 0.105188
H	 0.4183133248	-3.7558265494	-0.7450440768	 0.105188
H	-1.9476996352	-2.3342936967	-1.1604419698	 0.117211
H	-2.143819154	-1.808654801	 1.7008745263	 0.117211
101.7792	334.5951	431.8937	505.3237	553.2988	567.3572	702.5481	718.7685	727.0504	757.5932	799.455	827.7364	869.2711	901.2163	904.9365	927.2978	955.5651	959.4663	1011.1853	1026.2429	1038.3815	1053.1979	1076.8513	1089.3172	1176.0857	1229.3597	1241.4594	1262.1263	1289.0002	1332.2495	1364.1145	1455.889	1760.9574	3185.4048	3191.828	3202.8097	3204.2277	3214.6087	3476.1758
N=C1OC2C3C2C2C3N12	[NH][C]1O[C@H]2[C@@H]3[C@H]2[C@H]2[C@@H]3N12	
InChI=1S/C6H6N2O/c7-6-8-3-1-2(4(3)8)5(1)9-6/h1-5,7H	InChI=1S/C6H6N2O/c7-6-8-3-1-2(4(3)8)5(1)9-6/h1-5,7H/t1-,2+,3-,4+,5+,8?
