18
gdb 121718	2.5654	0.99282	0.80213	4.094	72.57	-0.231	-0.0206	0.2104	1435.9568	0.147845	-472.433084	-472.423333	-472.422389	-472.468803	34.632	
O	 0.6590265716	 0.3007321519	-0.6382204644	-0.423909
C	-0.2220466845	-0.4568658948	 0.1728868487	-0.054261
C	-1.5944943694	 0.2085353658	 0.3032205559	-0.163141
N	-2.2392980703	 0.3834879945	-0.992709235	-0.333102
C	-2.9905152039	-0.6089247259	-1.5422029084	 0.460854
N	-3.0426260628	-1.7893169781	-1.051516672	-0.561077
N	-3.6991251701	-0.2250864783	-2.7199017633	-0.36646
C	-3.814531011	 1.0078923654	-3.3010478643	 0.177789
O	-3.3033573401	 2.038699738	-2.9128938205	-0.320201
H	 0.2248192159	 0.3975051615	-1.493293896	 0.279628
H	-0.3530904421	-1.4777481618	-0.2110099657	 0.11355
H	 0.2432504094	-0.5230110586	 1.1619849055	 0.105261
H	-2.2384408343	-0.3914535817	 0.9550727051	 0.127276
H	-1.4721119085	 1.2035236574	 0.7411013205	 0.110668
H	-2.3769002365	 1.3101987634	-1.3726149236	 0.279697
H	-3.6509911759	-2.4043677412	-1.58472217	 0.205639
H	-4.2020974246	-0.9769053336	-3.1660804703	 0.258338
H	-4.451437113	 0.9675982664	-4.2035572924	 0.10345
43.2526	73.9657	109.1214	130.1961	218.6675	240.1462	271.6058	345.4726	370.8892	426.4567	498.5723	527.5366	601.1397	618.1769	725.5369	756.8986	826.6937	839.2169	895.5019	940.6204	1028.1206	1062.0236	1085.6189	1131.4991	1159.6224	1196.2239	1218.1849	1300.6433	1317.5812	1385.1493	1391.2422	1421.1293	1441.1465	1460.8269	1484.2234	1506.3689	1579.7237	1738.377	1799.1042	2970.1125	3016.7236	3045.2475	3081.3092	3104.2829	3525.0257	3562.8615	3628.5353	3795.876
OCCNC(=N)NC=O	OCCNC(=N)NC=O	
InChI=1S/C4H9N3O2/c5-4(7-3-9)6-1-2-8/h3,8H,1-2H2,(H3,5,6,7,9)	InChI=1S/C4H9N3O2/c5-4(7-3-9)6-1-2-8/h3,8H,1-2H2,(H3,5,6,7,9)
