21
gdb 78241	2.37163	1.54081	1.33255	2.2709	77.11	-0.2425	0.0627	0.3051	1087.1054	0.183863	-424.222246	-424.2137	-424.212756	-424.254817	34.317	
C	 0.0256894501	 1.5878688869	-0.0447004004	-0.401039
C	 0.0144147324	 0.0572373847	 0.0173726918	 0.031275
C	 0.6472900828	-0.625584598	-1.2204338977	-0.270844
C	 1.3136632876	-1.9358192569	-0.7244618922	 0.093222
O	 2.6060688891	-2.1697714199	-1.3119021035	-0.440412
C	 1.4947832716	-1.7848506804	 0.775139529	-0.119107
C	 2.2699069374	-0.5680859106	 1.2065306705	 0.11082
O	 3.025681307	 0.172574537	 0.2904283441	-0.433097
C	 0.7622305784	-0.5266981494	 1.2149777581	-0.098006
H	 1.0532871829	 1.9555510069	-0.108861543	 0.142116
H	-0.5298730575	 1.952572846	-0.9158026232	 0.104097
H	-0.4378247273	 2.0211855842	 0.8481372156	 0.106743
H	-1.0279678233	-0.2781438475	 0.1024370953	 0.069902
H	-0.0925018229	-0.8151907012	-2.0046521195	 0.088825
H	 1.4234899892	 0.0171980615	-1.6421307877	 0.110758
H	 0.6676829814	-2.8006866821	-0.930218111	 0.074045
H	 2.4966645715	-2.2162754702	-2.2675188123	 0.285737
H	 1.5417339587	-2.6856570775	 1.3764453426	 0.083946
H	 2.7348459762	-0.6332140203	 2.1896165951	 0.087798
H	 3.3723504296	-0.4610943013	-0.3530819347	 0.293629
H	 0.2750464052	-0.4764910718	 2.1838604531	 0.079592
113.8687	161.4398	202.4827	254.659	293.5019	316.3164	375.0511	396.9055	455.062	505.0121	532.4886	575.1884	669.8657	716.3952	769.6381	786.0643	834.3256	893.4763	934.2686	941.4727	1009.1793	1032.4359	1038.558	1055.8649	1061.2413	1083.0218	1118.1408	1141.4109	1164.5736	1214.6375	1228.1976	1239.8132	1286.9831	1334.646	1337.9936	1345.5378	1357.3532	1380.9099	1397.2101	1404.3248	1414.9343	1444.8224	1490.4295	1498.6338	1508.0707	2997.8331	3005.3592	3030.9367	3053.2073	3091.6456	3104.4384	3109.4176	3122.8287	3153.5133	3172.512	3736.1028	3812.1289
CC1CC(O)C2C(O)C12	C[C@H]1C[C@@H](O)[C@H]2[C@@H](O)[C@@H]12	
InChI=1S/C7H12O2/c1-3-2-4(8)6-5(3)7(6)9/h3-9H,2H2,1H3	InChI=1S/C7H12O2/c1-3-2-4(8)6-5(3)7(6)9/h3-9H,2H2,1H3/t3-,4+,5-,6+,7-/m0/s1
