14
gdb 51464	3.42337	1.32415	1.23383	4.0592	61.48	-0.263	-0.0104	0.2526	1008.6428	0.101296	-473.821418	-473.81424	-473.813296	-473.85376	26.01	
O	 0.3402655241	 0.1197863416	-0.1391119499	-0.265166
C	 0.5220160722	 1.2807791891	-0.3327049661	 0.180776
O	 0.8531283832	 2.1333768848	 0.676776565	-0.190421
C	 0.9592757	 3.4902040735	 0.3460492611	 0.0479
C	 2.1554315968	 4.2403458971	 0.8445879221	 0.013355
O	 3.2704474643	 3.4473430551	 1.2045965079	-0.193669
C	 3.6502342121	 2.812301795	 0.0674872878	 0.124796
N	 3.0339141621	 3.0733795606	-1.0156521497	-0.258435
C	 1.985237051	 3.9955536225	-0.6596010306	-0.095703
H	 0.4467943103	 1.788054501	-1.3096874757	 0.101621
H	 0.0187322085	 4.0333547416	 0.3767771018	 0.126782
H	 2.0880408154	 5.1667840619	 1.3987607946	 0.129078
H	 4.4756868176	 2.1222923693	 0.1844635845	 0.161945
H	 1.6978700923	 4.7321506371	-1.3997579929	 0.11714
74.9908	144.7276	153.5952	230.4722	311.2372	459.3771	582.6986	621.9901	712.3494	762.4619	782.1968	819.7749	886.4174	948.1268	965.183	1023.3622	1039.2907	1044.8511	1076.0576	1096.6581	1107.9226	1128.6325	1149.6133	1228.5609	1283.6324	1324.6257	1353.0243	1396.4825	1426.2888	1662.2181	1875.2176	2999.9395	3147.9895	3188.9858	3209.5374	3245.4947
O=COC1C2OC=NC12	O=CO[C@H]1[C@H]2OC=N[C@@H]12	
InChI=1S/C5H5NO3/c7-2-9-5-3-4(5)8-1-6-3/h1-5H	InChI=1S/C5H5NO3/c7-2-9-5-3-4(5)8-1-6-3/h1-5H/t3-,4+,5-/m1/s1
