23
gdb 77465	1.91571	1.44259	1.34444	1.149	86.39	-0.2298	0.0772	0.307	1202.792	0.203546	-388.271076	-388.260731	-388.259787	-388.305351	39.225	
C	-0.2275859211	 1.6439196188	-0.3411352566	-0.424835
C	 0.0216444399	 0.147886428	-0.3154050703	-0.120925
C	 0.6210183861	-0.6941719452	-1.42678755	 0.275332
C	-0.1089882601	-1.8395546678	-2.0680569601	-0.495479
C	 1.8125872075	 0.0442401782	-2.0628170309	-0.32272
C	 2.5647167093	 0.0111057226	-0.68648921	-0.006381
C	 3.2213277185	 1.2585787383	-0.1031250302	-0.427399
C	 1.3071774098	-0.6004387635	-0.0579060027	 0.312685
O	 1.3768448664	-1.5959434061	 0.9108781948	-0.467644
H	 0.506460946	 2.1867315136	-0.9395818502	 0.123385
H	-1.2140149894	 1.8555355326	-0.7694514278	 0.114097
H	-0.210873604	 2.0703007273	 0.6685837468	 0.111179
H	-0.7953499548	-0.3995029889	 0.156621715	 0.081
H	-0.797200272	-1.4947763232	-2.8496472755	 0.114412
H	 0.5893925196	-2.5457607699	-2.5321093989	 0.114646
H	-0.6959369246	-2.3914559537	-1.3268407793	 0.122721
H	 2.3156984402	-0.5415921708	-2.836225821	 0.098541
H	 1.6015782454	 1.0374188368	-2.4720326718	 0.092094
H	 3.3120349123	-0.7889313341	-0.7314838022	 0.08165
H	 2.5334987044	 2.1059683936	-0.0420613592	 0.115533
H	 3.5943722592	 1.0600174901	 0.9083461496	 0.111963
H	 4.0784132607	 1.5692034345	-0.711221165	 0.112854
H	 1.1708986808	-1.2055121114	 1.7663878155	 0.283292
135.585	157.5823	172.3284	180.5433	200.1863	205.2672	225.3509	255.0935	279.7365	336.9035	354.8368	433.7763	520.0527	570.8758	609.114	674.7319	732.6031	759.5329	834.4228	884.0664	923.8896	959.5855	1002.9376	1034.8595	1072.105	1102.0294	1107.6119	1114.6713	1131.4865	1162.1476	1203.9887	1207.8744	1233.6432	1249.9069	1313.0928	1332.1863	1334.9092	1384.448	1405.973	1412.886	1415.3963	1471.0047	1484.773	1490.7458	1496.117	1497.6037	1504.4107	1508.8945	1517.4495	3017.6139	3028.4492	3029.7034	3041.0828	3048.2825	3073.6823	3080.6536	3086.4007	3095.3085	3097.894	3100.2708	3114.4508	3129.2314	3803.9491
CC1C2(C)CC(C)C12O	C[C@H]1[C@@]2(C)C[C@@H](C)[C@@]12O	
InChI=1S/C8H14O/c1-5-4-7(3)6(2)8(5,7)9/h5-6,9H,4H2,1-3H3	InChI=1S/C8H14O/c1-5-4-7(3)6(2)8(5,7)9/h5-6,9H,4H2,1-3H3/t5-,6+,7-,8-/m1/s1
