15
gdb 14431	4.44389	2.20421	1.799	3.9003	66.31	-0.2144	-0.0514	0.163	751.6928	0.117404	-362.52919	-362.52259	-362.521646	-362.559429	26.026	
C	-0.0056900444	 1.4706872895	-0.132718622	-0.496153
C	-0.0809669422	-0.016196894	-0.0344040539	 0.433614
O	 0.6098720853	-0.7636559467	-1.1565152881	-0.298729
C	-0.0112089163	-1.8424189498	-0.5213457871	 0.266894
N	 0.6415744956	-2.7000373216	 0.1442203793	-0.233429
C	 0.2924906141	-2.278759439	 1.5492947178	-0.173564
C	-0.3111026394	-0.8641605876	 1.3428132556	-0.132718
C	-1.1542247369	-0.9921000898	 0.1179599669	-0.24386
H	 1.0260181091	 1.8170492507	-0.0240277152	 0.147534
H	-0.3845924734	 1.8057681433	-1.1029575546	 0.143564
H	-0.6078784336	 1.9270791965	 0.6577347026	 0.135322
H	-0.4095338252	-2.9372756767	 2.0833881587	 0.110578
H	 1.2433131904	-2.2794433591	 2.0905797613	 0.133092
H	-0.6230744613	-0.2593559956	 2.191920102	 0.093672
H	-2.2196762617	-0.98690379	-0.0716411231	 0.114181
191.3843	207.2712	261.3436	290.011	421.1759	471.4543	576.271	618.613	651.6964	701.03	763.497	827.2877	866.6009	914.9753	921.4715	949.4295	997.9697	1012.8506	1052.8462	1070.7541	1096.3867	1159.71	1168.1932	1201.2554	1253.4615	1298.3323	1397.1468	1433.357	1470.2488	1483.3256	1495.2318	1623.5989	2986.5696	3043.5047	3080.6108	3115.649	3123.4442	3141.5073	3195.0986
CC12OC3=NCC1C23	C[C@@]12O[C]3[N]C[C@@H]1[C@@H]23	
InChI=1S/C6H7NO/c1-6-3-2-7-5(8-6)4(3)6/h3-4H,2H2,1H3	InChI=1S/C6H7NO/c1-6-3-2-7-5(8-6)4(3)6/h3-4H,2H2,1H3/t3-,4-,6-/m1/s1
