19
gdb 9877	4.78783	0.98177	0.91368	4.2576	76.18	-0.2823	0.0388	0.3211	1294.202	0.164965	-327.939461	-327.930701	-327.929757	-327.97306	32.135	
C	 0.0401632706	 1.5823444092	 0.2598378509	-0.46788
C	-0.0202755574	 0.0787627973	 0.0596051021	 0.384204
C	-1.3491511674	-0.4695781881	-0.4353999229	-0.263632
C	-1.7003713399	 0.0005129571	-1.8656029752	-0.341553
C	-2.9433809614	-0.5887528597	-2.3563689738	 0.258037
N	-3.9283876969	-1.0661712221	-2.7272883005	-0.306874
C	 1.2370621394	-0.6274119086	-0.3967978594	-0.298296
C	 0.7553302856	-0.7836969946	 1.026551685	-0.317286
H	 1.0120007199	 1.8837067228	 0.662015159	 0.119702
H	-0.1045878485	 2.130934528	-0.6779355477	 0.117065
H	-0.7296208336	 1.918364703	 0.9646632014	 0.120276
H	-1.3223513656	-1.5640669888	-0.4277687526	 0.11717
H	-2.1562346433	-0.1719016313	 0.2447352804	 0.118359
H	-1.8002667127	 1.0904232483	-1.9017186715	 0.152956
H	-0.8906390155	-0.2646294526	-2.554961461	 0.153292
H	 1.1391288868	-1.4804089482	-1.0609132354	 0.112011
H	 2.1244568069	-0.0295236495	-0.5748893394	 0.113749
H	 1.314787539	-0.2883027207	 1.8129115954	 0.113941
H	 0.3312884339	-1.7385523113	 1.3188274251	 0.11476
65.973	98.4828	128.6464	221.3107	231.0096	332.3569	346.6679	362.7081	405.7399	462.987	529.9518	727.0747	766.4169	790.7711	869.5636	913.9989	943.8381	954.5409	965.9374	1007.2568	1033.8116	1051.7916	1083.2469	1083.9913	1123.1086	1188.4059	1193.5366	1280.6142	1300.8274	1323.3467	1364.7707	1390.71	1422.782	1467.3726	1471.2737	1487.9034	1497.8339	1501.0553	1512.5836	2361.2091	3023.9182	3035.0767	3049.7637	3073.1983	3082.5341	3095.1246	3102.9748	3126.7909	3131.968	3204.933	3219.4381
CC1(CCC#N)CC1	CC1(CCC#N)CC1	
InChI=1S/C7H11N/c1-7(4-5-7)3-2-6-8/h2-5H2,1H3	InChI=1S/C7H11N/c1-7(4-5-7)3-2-6-8/h2-5H2,1H3
