16
gdb 126732	4.09875	0.99434	0.84704	6.7284	79.65	-0.2618	-0.0259	0.2359	1340.1013	0.126011	-396.972973	-396.964733	-396.963789	-397.006935	29.57	
C	-0.2723653574	 1.485024633	 0.0567192357	-0.376091
C	 0.1158410062	 0.0112590483	-0.0527177264	-0.146484
N	 0.7293702318	-0.4937809023	 1.1708673639	 0.055935
C	 0.1769638423	-1.3129042516	 2.1037705052	-0.015758
C	 1.111286975	-1.4754578804	 3.1012119705	-0.314989
C	 2.2111377668	-0.6991271809	 2.6695726534	 0.256441
N	 1.9663413019	-0.1044745066	 1.4930075058	-0.314435
C	 3.4564076509	-0.5230783049	 3.3345341444	 0.233787
N	 4.4554637848	-0.4031689846	 3.9060720939	-0.341534
H	 0.6088403543	 2.0921178442	 0.2756966644	 0.156681
H	-0.7059468583	 1.8259916654	-0.8877630217	 0.128014
H	-1.0082409535	 1.6398632374	 0.8510844583	 0.129618
H	-0.75705384	-0.6154806249	-0.2535120906	 0.125918
H	 0.8335438347	-0.1400031952	-0.8632420306	 0.14465
H	-0.8176877487	-1.7114259448	 1.9830910458	 0.145653
H	 1.0292637291	-2.0632245822	 3.9996597381	 0.132595
34.6975	106.5757	150.7759	195.5998	226.5122	355.5357	402.386	515.4595	551.5809	578.1379	655.6025	696.7226	724.8567	779.9925	796.3589	852.6756	964.0128	1017.0975	1032.3405	1080.9064	1104.8592	1122.9851	1218.0017	1268.7556	1357.8835	1377.2261	1390.9445	1409.1564	1431.4889	1480.248	1488.6401	1495.3925	1507.8846	1538.3992	2356.1378	3049.0128	3067.8837	3110.0189	3124.9512	3141.3375	3263.8295	3289.3854
CCN1C=CC(=N1)C#N	CCn1ccc(n1)C#N	
InChI=1S/C6H7N3/c1-2-9-4-3-6(5-7)8-9/h3-4H,2H2,1H3	InChI=1S/C6H7N3/c1-2-9-4-3-6(5-7)8-9/h3-4H,2H2,1H3
