18
gdb 13431	3.77125	1.38957	1.23441	1.1813	73.38	-0.2523	0.051	0.3033	1042.5418	0.151796	-347.752981	-347.744078	-347.743134	-347.786392	32.977	
C	 0.1388667161	 1.6280914975	-0.2667153198	-0.408701
C	 0.0340576422	 0.1272995811	-0.1011811854	-0.054658
C	 1.2698086939	-0.7290679617	 0.0173939871	 0.091393
O	 2.4999674285	-0.0663856959	 0.0528457399	-0.42386
C	 0.3442322829	-0.590186836	 1.2044447163	-0.06606
C	 0.8360173357	 0.1514348706	 2.4436194747	-0.375395
C	 1.9439501121	-0.5478045108	 3.0948885528	 0.297308
C	 2.8677697468	-1.1417472394	 3.586631805	-0.457932
H	 1.0891149823	 2.0076887261	 0.1132397993	 0.138313
H	 0.0893460694	 1.8929373322	-1.3280124978	 0.11959
H	-0.6790363411	 2.1485645091	 0.2435367829	 0.111734
H	-0.776510917	-0.3235784275	-0.6678474754	 0.086468
H	 1.2857531042	-1.6824527079	-0.5103500985	 0.082052
H	 3.0025459086	-0.426936318	 0.7940913397	 0.293868
H	-0.2670127918	-1.4580561405	 1.4344327438	 0.091231
H	 1.1623355404	 1.1626219433	 2.1841367043	 0.142652
H	 0.0097662552	 0.2717071965	 3.1546939504	 0.132805
H	 3.6722771215	-1.6590711787	 4.0480563309	 0.199191
58.8926	106.9582	165.9615	215.29	221.4956	278.3341	336.1264	409.2129	428.9506	488.3959	572.1525	620.1433	629.0821	641.5143	758.5338	798.9988	877.6714	918.4173	938.3135	992.2858	1012.1771	1073.8697	1111.947	1134.0594	1150.8827	1182.0835	1240.2804	1257.2132	1316.302	1330.5395	1370.3098	1389.8507	1415.4551	1449.735	1469.3837	1496.0298	1508.426	2228.5459	3035.5295	3037.7875	3086.1445	3092.0076	3095.8733	3126.5353	3139.1872	3150.9665	3504.3966	3768.4241
CC1C(O)C1CC#C	C[C@H]1[C@@H](O)[C@H]1CC#C	
InChI=1S/C7H10O/c1-3-4-6-5(2)7(6)8/h1,5-8H,4H2,2H3	InChI=1S/C7H10O/c1-3-4-6-5(2)7(6)8/h1,5-8H,4H2,2H3/t5-,6+,7-/m1/s1
