16
gdb 111388	2.23815	1.69697	1.15747	4.5399	68.02	-0.2672	0.0107	0.2779	1051.955	0.123943	-437.847749	-437.839552	-437.838608	-437.880789	30.187	
O	 0.1261257762	 1.3538956957	 0.0877806025	-0.425532
C	 0.033517665	-0.0271271483	-0.2139649176	-0.095928
C	-1.3892576053	-0.5497200046	-0.0362267124	-0.045873
C	-1.6027996133	-2.0712940806	-0.1030133205	 0.003953
O	-0.8518891827	-2.6526780617	 0.972646517	-0.226006
C	-2.1393879142	-2.1276158249	 1.264649247	 0.021179
C	-1.9983996485	-0.5976616004	 1.4338307071	-0.212164
C	-1.1610718603	-0.1161467436	 2.5203005753	 0.297791
N	-0.4667155216	 0.2914975261	 3.3509732395	-0.342878
H	 0.2331349793	 1.4410876964	 1.0412967248	 0.301532
H	 0.324510537	-0.144435148	-1.2645335794	 0.112319
H	 0.7247578124	-0.6269242028	 0.3899751522	 0.124587
H	-2.0753941297	-0.0042918476	-0.6886541846	 0.101999
H	-1.803664032	-2.6984037603	-0.9627956978	 0.122723
H	-2.8650876298	-2.7808089799	 1.7331442553	 0.126188
H	-2.9694122326	-0.0985407154	 1.4703035714	 0.136111
100.6168	112.0462	147.6057	191.7694	250.1806	366.8413	374.8008	420.3733	497.4164	588.9417	646.3044	732.1828	794.4205	846.2261	873.3531	893.2643	949.541	975.5456	1027.3262	1047.4773	1064.1669	1083.271	1101.2995	1149.8052	1220.274	1228.9472	1243.1107	1259.7313	1324.1691	1336.8456	1386.33	1408.712	1415.6522	1503.1891	2348.3977	3028.5272	3069.9835	3087.5766	3098.6297	3193.2547	3207.79	3808.7707
OCC1C2OC2C1C#N	OC[C@H]1[C@H]2O[C@H]2[C@H]1C#N	
InChI=1S/C6H7NO2/c7-1-3-4(2-8)6-5(3)9-6/h3-6,8H,2H2	InChI=1S/C6H7NO2/c7-1-3-4(2-8)6-5(3)9-6/h3-6,8H,2H2/t3-,4+,5-,6+/m0/s1
