21
gdb 107967	2.66065	1.36417	1.2934	1.7371	82.55	-0.2246	0.0847	0.3092	1145.9464	0.180913	-387.016038	-387.007208	-387.006264	-387.049325	34.11	
C	-0.069284332	 1.5471730088	 0.0428888639	-0.378915
C	 0.0166536786	 0.0194984735	-0.0665143573	-0.322445
C	 0.6623781901	-0.4535937198	-1.3401127439	 0.285505
C	 0.257107519	-0.2407647326	-2.8200394837	-0.334784
C	 1.5369749463	-1.0949558762	-2.9361285001	-0.137413
C	 2.1867424239	-0.4164284604	-1.6983080802	 0.04728
O	 2.5027794214	-1.6629543215	-1.0136806224	-0.364249
C	 1.1987219187	-1.9052930621	-1.6410725469	 0.420048
C	 0.5468435355	-3.2388404967	-1.4651941666	-0.528435
H	 0.9262215262	 2.0018115092	 0.0046679216	 0.117844
H	-0.6604403733	 1.97171627	-0.7752785443	 0.118282
H	-0.5378988116	 1.8483624651	 0.9845703671	 0.114141
H	 0.5954356983	-0.3843618838	 0.7739030402	 0.112582
H	-0.9901666714	-0.4120847347	 0.0113041356	 0.097352
H	-0.6774382896	-0.709032919	-3.144578052	 0.094389
H	 0.318731059	 0.7815874352	-3.2043469026	 0.096739
H	 2.0540346173	-1.4679617966	-3.8204939247	 0.077503
H	 2.9021384586	 0.4044118647	-1.6463850004	 0.087517
H	 0.3624334119	-3.4416789783	-0.4055182938	 0.134108
H	-0.4105425125	-3.2674800193	-1.9953205138	 0.127438
H	 1.1856072855	-4.0340955854	-1.8617688657	 0.135513
83.8196	133.3968	180.3413	197.7227	243.9473	249.1194	290.3538	399.2814	460.1332	554.3971	652.7094	665.4304	722.3309	764.1426	781.6284	804.555	857.209	893.7823	916.8411	943.0376	966.8002	991.5601	1010.321	1050.4002	1080.7934	1120.3716	1127.3355	1131.1592	1156.7538	1166.9684	1211.1158	1228.4496	1272.6383	1306.1527	1319.0365	1353.9279	1385.3362	1410.5046	1416.7751	1473.2809	1479.4169	1491.4469	1499.1827	1506.0675	1515.4466	3015.7972	3034.4764	3036.5224	3044.0194	3051.7564	3097.3773	3102.9727	3106.7017	3109.2181	3111.1674	3112.0337	3124.2022
CCC12CC3C1OC23C	CC[C@@]12C[C@H]3[C@@H]1O[C@@]23C	
InChI=1S/C8H12O/c1-3-8-4-5-6(8)9-7(5,8)2/h5-6H,3-4H2,1-2H3	InChI=1S/C8H12O/c1-3-8-4-5-6(8)9-7(5,8)2/h5-6H,3-4H2,1-2H3/t5-,6-,7+,8+/m0/s1
