22
gdb 70604	2.04922	1.85119	1.41334	0.4273	81.11	-0.2285	0.0721	0.3006	1068.2883	0.193943	-404.350715	-404.341485	-404.340541	-404.383644	36.714	
C	-0.4973289822	 1.3159627528	 0.015692825	-0.505701
C	 0.0215080254	-0.0975164408	 0.0393618428	 0.341769
N	-0.5228755401	-1.0782354514	 1.0069212771	-0.39457
C	 0.8956925254	-0.6469029287	 1.1038290254	-0.078861
C	 1.8559492034	-1.6584454692	 0.5101235528	-0.215748
C	 1.181987759	-2.0449446296	-0.8249226097	-0.257848
C	 0.400663563	-0.7842160468	-1.2789428444	 0.3563
C	-0.7923586934	-1.1051448241	-2.1768867631	-0.455971
O	 1.2854920576	 0.1468491789	-1.9201433116	-0.484572
H	 0.1698618712	 1.9585338091	-0.5635021974	 0.145497
H	-1.4936821597	 1.3671103243	-0.4393145926	 0.117963
H	-0.5736502523	 1.7193666434	 1.0310111207	 0.105951
H	-1.0682462412	-0.5736478991	 1.7024368384	 0.223513
H	 1.1944489212	-0.0388471629	 1.9524920556	 0.078158
H	 2.8225916203	-1.1735562303	 0.336200847	 0.104841
H	 2.0230672985	-2.5240481362	 1.1587591648	 0.096961
H	 1.8999663442	-2.3523146265	-1.59155766	 0.078821
H	 0.4852965969	-2.8706948125	-0.6672229475	 0.115983
H	-1.5250222077	-1.7095792606	-1.6350270238	 0.134848
H	-1.2763258222	-0.186144807	-2.5211173037	 0.116783
H	-0.4743871655	-1.6711957119	-3.061085074	 0.101035
H	 1.5309686381	-0.2268927508	-2.7726203118	 0.274847
116.9852	195.8817	222.5963	232.7584	244.4516	267.925	279.7618	344.2769	376.2599	420.0585	463.1899	491.2287	589.5267	633.578	669.489	796.4447	827.7899	842.575	906.4779	925.2174	936.3053	962.6752	986.7412	1010.3411	1040.9768	1068.8513	1089.6986	1123.968	1134.5971	1157.7321	1192.4494	1220.125	1236.8484	1293.1959	1309.0878	1337.7167	1348.2755	1396.678	1405.436	1409.1522	1446.2457	1469.9222	1481.4133	1486.6508	1491.6166	1499.8939	1506.6697	3025.506	3028.4839	3043.9784	3059.9482	3084.8168	3085.8228	3092.8988	3114.0715	3121.8455	3125.0725	3155.1117	3490.2567	3813.721
CC12NC1CCC2(C)O	C[C@]12N[C@H]1CC[C@]2(C)O	
InChI=1S/C7H13NO/c1-6(9)4-3-5-7(6,2)8-5/h5,8-9H,3-4H2,1-2H3	InChI=1S/C7H13NO/c1-6(9)4-3-5-7(6,2)8-5/h5,8-9H,3-4H2,1-2H3/t5-,6-,7-/m0/s1
