18
gdb 56299	7.03719	0.52787	0.4956	2.5393	75.9	-0.251	0.0292	0.2802	2104.6681	0.143717	-439.070707	-439.059706	-439.058762	-439.109916	36.71	
N	-0.1182971097	 1.3271204398	-0.0273562531	-0.52643
C	 0.0562297504	-0.0257876138	 0.0140305854	 0.416198
O	 1.1584535389	-0.5401009313	 0.0426721545	-0.358266
C	-1.2368301784	-0.8341734988	 0.0147039652	-0.335772
C	-0.9660645328	-2.3305845188	-0.0061350135	-0.036402
O	-2.2189706632	-2.9888775746	 0.0077446679	-0.253235
C	-2.083325403	-4.3956582607	-0.0075597595	-0.206955
C	-3.3977692946	-5.0245968343	 0.0084395465	 0.279091
C	-4.4679856158	-5.5689157761	 0.0211690124	-0.415358
H	 0.697685364	 1.915288317	 0.0093676664	 0.261235
H	-1.0270551154	 1.7547997378	-0.0055228527	 0.259514
H	-1.8275746152	-0.5808483256	 0.9033728519	 0.132003
H	-1.8493772514	-0.5566460342	-0.8511731818	 0.130569
H	-0.3886452433	-2.6022089823	-0.9025942404	 0.106211
H	-0.3583111354	-2.6199456296	 0.8638303046	 0.108325
H	-1.5276709014	-4.7209308977	-0.9040402259	 0.119843
H	-1.4982044026	-4.7372662256	 0.8637145914	 0.120011
H	-5.416957561	-6.0452787712	 0.0325265707	 0.199416
12.4414	42.3765	80.6751	89.1485	100.218	128.5913	167.884	305.6037	315.6617	334.9317	486.8702	506.208	538.0365	606.4652	627.6161	639.9143	675.1437	818.3563	859.9988	970.9405	1024.4851	1029.7798	1071.446	1084.3871	1120.2293	1145.9681	1213.4885	1255.642	1257.5024	1302.5863	1369.5197	1400.5196	1447.639	1472.8487	1498.9344	1522.3201	1617.8245	1793.5428	2248.0188	2951.5513	2969.5785	2990.2265	3020.1663	3038.1412	3077.7493	3506.8205	3604.7823	3741.7165
NC(=O)CCOCC#C	NC(=O)CCOCC#C	
InChI=1S/C6H9NO2/c1-2-4-9-5-3-6(7)8/h1H,3-5H2,(H2,7,8)	InChI=1S/C6H9NO2/c1-2-4-9-5-3-6(7)8/h1H,3-5H2,(H2,7,8)
