18
gdb 29371	5.45409	0.87507	0.77664	1.1832	85.76	-0.195	0.044	0.239	1467.0356	0.147106	-364.823208	-364.814041	-364.813097	-364.85783	33.837	
C	-0.5267367059	 1.5210645447	-0.3164548971	-0.498825
C	-0.1226217786	 0.1064454393	-0.0280818023	 0.290383
C	 0.4959203239	-0.7635951577	-0.8974754714	-0.182266
N	 0.6856991883	-1.9592220913	-0.2480134099	-0.296238
C	 0.212183775	-1.8713495783	 1.0344936031	 0.343852
C	 0.2420822191	-3.0489372669	 1.9729733143	-0.464587
C	 1.3423750047	-3.9736786779	 1.7082871872	 0.288911
C	 2.2362815139	-4.7339513086	 1.446571476	-0.445743
C	-0.2981049671	-0.6034088051	 1.1990524511	-0.344579
H	-0.0490210189	 2.2290414747	 0.3711672937	 0.121831
H	-0.2472304627	 1.8114458488	-1.3336901675	 0.115997
H	-1.6095985508	 1.6645172465	-0.2194500316	 0.121361
H	 0.8222121418	-0.6246055948	-1.9161646649	 0.110452
H	 1.1761930135	-2.7603150926	-0.6084786317	 0.26058
H	 0.3106511497	-2.6786428627	 3.0025699254	 0.149119
H	-0.7029203379	-3.61039034	 1.9212541016	 0.145878
H	 3.0323468721	-5.4077129855	 1.2464322297	 0.200004
H	-0.7555727203	-0.2219760027	 2.1006649145	 0.083868
32.3014	104.0714	109.5616	186.2125	249.6414	301.8696	330.9281	372.7344	454.9736	506.0934	619.8173	630.8984	640.1325	653.6478	666.6628	717.63	751.6538	800.8923	942.1946	945.8701	988.8556	1000.9267	1008.2275	1064.5974	1136.595	1164.0106	1213.0066	1269.2113	1307.8967	1327.2552	1417.7194	1421.0602	1463.0908	1478.3915	1483.7756	1505.0777	1538.2947	1632.1291	2236.1803	2991.375	3021.8245	3053.6133	3068.6254	3101.1404	3232.7379	3256.7689	3504.7263	3667.1477
CC1=CNC(CC#C)=C1	Cc1c[nH]c(CC#C)c1	
InChI=1S/C8H9N/c1-3-4-8-5-7(2)6-9-8/h1,5-6,9H,4H2,2H3	InChI=1S/C8H9N/c1-3-4-8-5-7(2)6-9-8/h1,5-6,9H,4H2,2H3
