17
gdb 11332	6.28967	1.25134	1.06437	3.2768	78.05	-0.2263	-0.0189	0.2074	1123.7612	0.141605	-363.892758	-363.884393	-363.883449	-363.926679	29.313	
C	-0.0663028316	 1.4546243478	 0.0643073669	-0.333277
N	-0.0100211236	 0.0071401959	 0.1654192953	-0.338912
C	-1.0739450017	-0.6678661706	 0.0776100443	 0.45723
O	-2.3418578064	-0.1457069397	-0.1127323244	-0.262118
C	-3.2850261104	-1.2125449701	-0.1681364517	-0.167032
C	-2.4812656482	-2.4755434691	 0.0133761798	 0.300066
C	-3.1097803076	-3.8277060285	 0.0165965061	-0.495992
C	-1.1996679418	-2.1248661852	 0.1544938952	-0.299475
H	 0.6666992757	 1.789082683	-0.6789104064	 0.120845
H	-1.050128756	 1.8545971238	-0.2056543074	 0.121111
H	 0.2366121614	 1.895949617	 1.0221711497	 0.122149
H	-4.0367143702	-1.0749914073	 0.6224495611	 0.121376
H	-3.8116949123	-1.1848553435	-1.133036385	 0.121246
H	-3.6349603039	-4.0217032679	-0.927011646	 0.136965
H	-2.3655815198	-4.6142244628	 0.1606430622	 0.13904
H	-3.858170379	-3.913904797	 0.8142858077	 0.136929
H	-0.3446101145	-2.7681757059	 0.302814803	 0.119848
23.5543	104.9362	153.7502	205.649	215.3296	296.7546	313.6182	444.0148	483.3521	619.1479	698.2935	706.5673	878.6049	882.2484	905.7334	991.4143	1004.7585	1033.5743	1074.9334	1088.129	1129.3068	1137.9696	1191.8905	1200.774	1215.5053	1336.004	1377.6556	1414.7248	1437.6114	1478.6733	1484.5431	1493.0879	1496.6379	1503.7952	1707.1908	1780.7706	2997.4706	3012.0082	3022.9323	3024.1384	3066.0183	3069.2702	3084.9663	3123.0497	3247.2584
CN=C1OCC(C)=C1	CN=C1OCC(=C1)C	
InChI=1S/C6H9NO/c1-5-3-6(7-2)8-4-5/h3H,4H2,1-2H3	InChI=1S/C6H9NO/c1-5-3-6(7-2)8-4-5/h3H,4H2,1-2H3
