23
gdb 101728	3.12479	0.8113	0.70699	1.8012	83.13	-0.2458	0.0827	0.3285	1682.4822	0.203107	-425.400223	-425.389402	-425.388458	-425.436887	39.188	
C	 0.1106744162	 1.5390497323	-0.2768519069	-0.232762
O	-0.0851572694	 0.1511927005	-0.1596279238	-0.245524
C	 0.6342130701	-0.6397080752	-1.1025767634	 0.143925
C	 2.1148344697	-0.7573133103	-0.7301851782	-0.401381
C	-0.0521437809	-2.0064539851	-1.1432453486	-0.215343
C	-1.5021152807	-1.9308444202	-1.5693895022	-0.009417
C	-1.8708984486	-1.8749369536	-3.0425362404	-0.330422
C	-2.1733437057	-3.1035493969	-2.2197125319	 0.083241
O	-1.4005328284	-4.2578630729	-2.4001546006	-0.418615
H	 1.1389384352	 1.8475346474	-0.0364306571	 0.103502
H	-0.1264437219	 1.9000144001	-1.2904553028	 0.101016
H	-0.5660371316	 2.0217177137	 0.4335323063	 0.123331
H	 0.5478319169	-0.1688210412	-2.0972772095	 0.060503
H	 2.6451801264	-1.3756005895	-1.4614761305	 0.11372
H	 2.6058488958	 0.2197686343	-0.7055104811	 0.112282
H	 2.2219073292	-1.2195234996	 0.2563162682	 0.122232
H	 0.4987870989	-2.6679326333	-1.8178441244	 0.104602
H	 0.0141008931	-2.4527305454	-0.1425090039	 0.103451
H	-2.1249026224	-1.3419123921	-0.9045099005	 0.098806
H	-2.687682662	-1.2376847065	-3.3642106549	 0.106889
H	-1.0570446082	-1.965526793	-3.7558018488	 0.106825
H	-3.214086649	-3.2956468708	-1.9579738025	 0.082616
H	-1.6388130726	-4.6419453528	-3.2499950422	 0.286521
40.3617	76.9667	93.6115	131.7841	187.156	207.8706	235.3842	289.1148	304.303	314.1732	375.7294	450.0257	479.7151	493.6084	591.3719	767.0332	809.0756	835.186	879.9714	887.8265	931.4417	979.4349	1005.8286	1035.569	1065.0285	1116.7916	1119.4537	1138.0368	1154.4087	1172.1568	1183.0681	1184.9299	1220.7262	1237.3889	1271.2907	1302.5576	1308.5687	1371.4607	1387.2801	1402.2113	1407.5034	1426.2929	1473.2373	1478.0479	1484.2696	1490.5902	1494.8453	1503.5788	1513.1992	2951.8753	2973.3101	3019.9282	3031.0927	3039.115	3093.6347	3093.8338	3104.6183	3109.5365	3113.652	3123.8753	3169.0239	3212.2307	3808.5427
COC(C)CC1CC1O	CO[C@@H](C)C[C@H]1C[C@H]1O	
InChI=1S/C7H14O2/c1-5(9-2)3-6-4-7(6)8/h5-8H,3-4H2,1-2H3	InChI=1S/C7H14O2/c1-5(9-2)3-6-4-7(6)8/h5-8H,3-4H2,1-2H3/t5-,6-,7+/m0/s1
