17
gdb 64583	3.93809	1.19482	1.18353	2.4183	76.95	-0.2277	-0.0344	0.1933	1090.0413	0.135773	-421.83258	-421.824832	-421.823888	-421.864733	30.169	
O	-0.1003703033	 1.3887914248	 0.0745239124	-0.46699
C	-0.0811081512	 0.0093026736	 0.0330367916	 0.362108
C	 1.0406585162	-0.5862993961	 0.781053018	 0.093005
O	 1.8808271448	 0.0998223106	 1.3236940504	-0.298589
C	-1.3861476732	-0.7587743571	-0.0289052501	-0.140158
C	-2.6228708779	 0.0705926241	-0.38426079	-0.274788
C	-2.3559756844	 0.5252536035	-1.8019091204	-0.06478
C	-1.1993373693	 0.0530557304	-2.2713363565	-0.060427
C	-0.4917650647	-0.7656592702	-1.251228276	-0.173672
H	 0.7231483598	 1.6308520911	 0.5285069434	 0.297098
H	 1.0844721773	-1.6943054406	 0.8023430075	 0.089065
H	-1.4978913518	-1.6318692156	 0.6043530159	 0.094555
H	-3.535451686	-0.5332251651	-0.3077491062	 0.112072
H	-2.7453425337	 0.9241729411	 0.2937347915	 0.133383
H	-3.0222383015	 1.1962681853	-2.3308633351	 0.100999
H	-0.7782996758	 0.2575807146	-3.2477898777	 0.101812
H	 0.1088857246	-1.6216898245	-1.5395626387	 0.095305
89.5729	171.9397	202.6777	294.2343	310.6478	373.8806	392.628	449.5825	587.2562	599.0812	711.2676	752.2813	776.0328	798.1145	831.7812	886.4809	931.3463	955.5563	974.3392	997.8303	1009.1287	1037.0344	1052.18	1091.5555	1131.4155	1141.6853	1190.118	1290.276	1293.5804	1328.7234	1346.3584	1376.5562	1391.6967	1455.5902	1469.9217	1666.8766	1780.6624	2927.6163	3028.3644	3060.7859	3162.2956	3170.3492	3198.3726	3222.9094	3686.9136
OC1(C=O)C2CC=CC12	O[C@@]1(C=O)[C@H]2CC=C[C@@H]12	
InChI=1S/C7H8O2/c8-4-7(9)5-2-1-3-6(5)7/h1-2,4-6,9H,3H2	InChI=1S/C7H8O2/c8-4-7(9)5-2-1-3-6(5)7/h1-2,4-6,9H,3H2/t5-,6+,7-/m1/s1
