20
gdb 102085	2.02158	1.30764	1.01106	2.0426	74.95	-0.2442	-0.0233	0.2209	1270.1326	0.168678	-440.260334	-440.250243	-440.249299	-440.29564	36.354	
C	 0.1296154347	 1.3146369878	-0.6598697711	-0.489675
C	-0.0412767722	-0.088463849	-0.110857618	 0.337851
C	 1.0831694402	-1.0450202994	-0.2549118578	-0.275042
N	 0.7538069366	-0.4854111233	 1.071949535	-0.364821
C	-1.4573518798	-0.6453467191	-0.0598716427	-0.15652
C	-2.3901136189	 0.1660990911	 0.8708771261	-0.098345
O	-3.619686167	-0.4946568858	 1.1198042909	-0.415562
C	-2.1007030092	-0.8330985003	-1.4206512226	 0.1544
O	-1.5529136589	-0.6481644774	-2.4799316018	-0.256144
H	 1.1876308399	 1.5956381416	-0.6683223786	 0.111622
H	-0.2452460864	 1.3741893095	-1.6845183773	 0.154596
H	-0.4052069418	 2.0540882775	-0.0527707386	 0.119845
H	 0.8888426594	-2.1083851572	-0.3655148434	 0.115182
H	 1.9814157035	-0.6994893106	-0.7593425173	 0.11469
H	 1.4160987145	 0.250721929	 1.305376704	 0.227536
H	-1.3990528872	-1.6504484817	 0.3865378653	 0.096007
H	-1.8442182855	 0.3805048731	 1.7994997769	 0.116488
H	-2.6577807499	 1.1233113477	 0.4121484186	 0.120768
H	-3.4377569341	-1.2575729724	 1.6782172112	 0.287515
H	-3.1591725281	-1.166174381	-1.3709694688	 0.099611
60.4287	99.1068	113.863	165.4922	188.3394	215.8801	255.3531	315.6097	341.6673	353.3137	390.5447	466.2726	482.9599	645.105	754.3452	839.3828	850.8567	900.9474	934.3886	949.7016	981.2192	1034.2709	1049.8031	1059.8346	1069.2567	1114.1294	1122.8812	1157.3478	1185.7538	1259.9969	1273.2297	1321.5367	1345.6948	1381.8553	1402.8631	1410.2405	1414.2725	1427.0404	1488.4586	1506.0487	1510.5681	1519.0917	1818.8328	2913.057	2993.4176	3014.2083	3031.9948	3082.1192	3094.1752	3108.9549	3125.2526	3192.4107	3493.7397	3814.1517
CC1(CN1)C(CO)C=O	C[C@]1(CN1)[C@@H](CO)C=O	
InChI=1S/C6H11NO2/c1-6(4-7-6)5(2-8)3-9/h2,5,7,9H,3-4H2,1H3	InChI=1S/C6H11NO2/c1-6(4-7-6)5(2-8)3-9/h2,5,7,9H,3-4H2,1H3/t5-,6+/m1/s1
