24
gdb 10389	2.36551	1.76018	1.28592	0.0576	84.45	-0.2766	0.0769	0.3534	1116.8132	0.223152	-314.272267	-314.262819	-314.261874	-314.305956	35.96	
C	 0.5664939317	 1.4609561578	 0.2182087146	-0.394309
C	 0.1743560142	-0.0018088063	-0.0182201176	-0.228046
C	 0.5992450535	-0.5850041419	-1.3784860022	 0.386634
C	 0.044479805	 0.1943847909	-2.5772111079	-0.246797
C	-1.4854799831	 0.2613607061	-2.6503434585	-0.390012
C	 2.1379540597	-0.8724498956	-1.4364284835	-0.266477
C	 1.8626343061	-2.3620336828	-1.101546982	-0.210351
C	 0.3613912437	-2.1325441735	-1.4194511555	-0.25896
H	 1.6425063426	 1.6159606014	 0.0839990712	 0.116435
H	 0.0478127617	 2.1387945985	-0.466880581	 0.117982
H	 0.3141604945	 1.7698714085	 1.2375008589	 0.110539
H	 0.6146926545	-0.6207200442	 0.7743596289	 0.089719
H	-0.9119770676	-0.1100173339	 0.0940720274	 0.093624
H	 0.4575886711	 1.2114404182	-2.5781322858	 0.093296
H	 0.4227500825	-0.2796303183	-3.4922387705	 0.085687
H	-1.8106133938	 0.747948554	-3.575260175	 0.110364
H	-1.9279121173	-0.7408211078	-2.6306455658	 0.116733
H	-1.9116527992	 0.8266799494	-1.8155791415	 0.117446
H	 2.5412704109	-0.7387500666	-2.4448399485	 0.091321
H	 2.7721443954	-0.3155380456	-0.740822555	 0.090965
H	 2.3860528266	-3.1082890069	-1.7037193952	 0.093774
H	 2.0384580853	-2.5958775599	-0.0483027855	 0.100584
H	-0.3660520596	-2.5364542681	-0.70911366	 0.089012
H	 0.0909309416	-2.4801170334	-2.42138383	 0.090835
95.6607	107.7897	138.6973	197.8681	211.101	228.2606	291.4783	339.575	370.2052	398.3142	480.7779	621.834	700.0263	769.593	789.3467	800.1354	850.769	875.8257	942.8026	947.9596	952.6609	990.1151	1020.3805	1036.568	1045.4442	1058.661	1098.8535	1164.9569	1194.6263	1211.0107	1217.1246	1257.1758	1267.5314	1277.3801	1285.7609	1321.1663	1336.9395	1363.2227	1382.8543	1409.9615	1411.1469	1473.9632	1480.1861	1483.1637	1490.9972	1501.2254	1502.7567	1504.0219	1506.2633	1514.9133	3013.371	3016.9567	3032.5671	3034.0026	3041.6302	3043.5731	3046.0025	3047.5103	3061.1925	3085.6799	3092.57	3097.9615	3099.4857	3102.1423	3104.3834	3114.204
CCC1(CC)CCC1	CCC1(CC)CCC1	
InChI=1S/C8H16/c1-3-8(4-2)6-5-7-8/h3-7H2,1-2H3	InChI=1S/C8H16/c1-3-8(4-2)6-5-7-8/h3-7H2,1-2H3
