16
gdb 47989	3.9919	0.87004	0.79885	2.8705	83.11	-0.2465	-0.0665	0.18	1419.5193	0.123684	-400.67389	-400.665566	-400.664622	-400.708106	29.584	
O	-0.8037808756	 1.054241884	-0.3445439413	-0.234493
C	 0.2734224039	 0.8604545647	 0.173565148	 0.018611
C	 1.3714703466	 1.7873776288	 0.1401599151	 0.017741
C	 2.3132778114	 2.5479990964	 0.1256109281	 0.153509
C	 3.4149941378	 3.4544765867	 0.1140473929	-0.220522
C	 3.8805462727	 4.1498110157	-1.124914198	-0.018568
C	 2.741425907	 4.4368929179	-2.0967692242	-0.258397
C	 2.0659722447	 5.180389493	-0.9141029218	-0.157419
N	 3.2527203223	 4.9375724074	-0.0088485743	-0.140838
H	 0.4904072274	-0.0762607899	 0.7262106864	 0.100726
H	 4.2020515775	 3.2241283365	 0.8273609062	 0.129427
H	 4.9432090345	 4.2036144022	-1.3424536122	 0.107833
H	 3.0375284714	 5.1061947522	-2.9057480496	 0.119969
H	 2.2272405912	 3.5698190904	-2.5170758546	 0.126581
H	 1.9601672054	 6.2547176647	-1.0694475102	 0.122038
H	 1.1283908718	 4.7710650593	-0.5325414405	 0.133804
57.8385	66.3841	110.9298	196.7311	227.7029	337.5401	374.2865	457.6498	550.7902	674.6822	748.2229	752.8759	781.5337	798.453	843.533	944.0878	949.7265	1006.5491	1018.3914	1028.3577	1061.028	1100.8087	1146.6875	1174.3254	1220.4324	1242.3905	1267.7652	1289.038	1349.7206	1394.2643	1421.5616	1481.3847	1501.8415	1759.4686	2307.5301	2919.2128	3074.7791	3080.7536	3124.9642	3142.1135	3145.2265	3159.3714
O=CC#CC1C2CCN12	O=CC#C[C@H]1[C@H]2CCN12	
InChI=1S/C7H7NO/c9-5-1-2-6-7-3-4-8(6)7/h5-7H,3-4H2	InChI=1S/C7H7NO/c9-5-1-2-6-7-3-4-8(6)7/h5-7H,3-4H2/t6-,7+,8?/m0/s1
