18
gdb 85113	1.88174	1.66978	1.31878	2.4511	79.37	-0.2315	-0.0302	0.2013	1096.2937	0.143728	-401.905316	-401.895605	-401.894661	-401.939507	35.525	
C	-0.1103320507	 1.4988458095	-0.0901667655	-0.331836
N	-0.0165880764	 0.0614209925	 0.0660341198	-0.104057
C	-1.2463138632	-0.6968195856	 0.3700249984	-0.286844
C	-0.4099683443	-1.5696220714	 1.3062434468	 0.37491
O	-0.5402982741	-2.6189832568	 1.8520579761	-0.28472
C	 0.7574166217	-0.5306255854	 1.2071855301	-0.005768
C	 2.1275058465	-1.0872014883	 0.8230224463	-0.430822
C	 0.8075881005	 0.2936222366	 2.4110000933	 0.339596
C	 0.8267074456	 0.987326064	 3.3939731528	-0.490571
H	 0.8880065951	 1.9211645879	-0.2382118584	 0.128542
H	-0.7030489159	 1.7212143147	-0.983139175	 0.125164
H	-0.5735244362	 2.0059800921	 0.7726975189	 0.109879
H	-2.0095859856	-0.1335584084	 0.9344218767	 0.122777
H	-1.7249756757	-1.1849671267	-0.4854253086	 0.132455
H	 2.0379451307	-1.700934714	-0.076322905	 0.126514
H	 2.8298902364	-0.2722436806	 0.6252161471	 0.129225
H	 2.5261766218	-1.6966101677	 1.638596997	 0.141123
H	 0.8523305739	 1.5903596675	 4.2681328191	 0.204431
89.8871	114.9805	147.2208	182.2143	210.	211.0304	262.1324	289.0375	365.0751	426.1233	504.1058	565.4952	582.6741	624.0651	625.1054	657.3134	670.3082	781.1134	926.7598	951.3567	955.873	1047.8088	1103.5626	1117.304	1160.8901	1166.9773	1182.3893	1213.1553	1255.7542	1299.6709	1396.9436	1451.1233	1474.3314	1479.1036	1486.7236	1493.6229	1499.5587	1925.5213	2218.1707	2963.0408	2968.6425	3045.1051	3067.2896	3069.1763	3108.1477	3121.449	3133.855	3498.2701
CN1CC(=O)C1(C)C#C	CN1CC(=O)[C@]1(C)C#C	
InChI=1S/C7H9NO/c1-4-7(2)6(9)5-8(7)3/h1H,5H2,2-3H3	InChI=1S/C7H9NO/c1-4-7(2)6(9)5-8(7)3/h1H,5H2,2-3H3/t7-/m0/s1
