16
gdb 48179	4.94624	0.59671	0.5377	3.4753	70.83	-0.2653	-0.1077	0.1576	1889.1584	0.121273	-437.921637	-437.911844	-437.910899	-437.958567	32.505	
O	-0.9084769055	 1.479730509	 0.242932295	-0.216356
C	 0.1094365136	 1.0004395565	-0.1810866222	 0.094668
C	 1.4154035464	 1.7939687313	-0.3356273647	 0.280467
O	 2.3851045997	 1.2197185933	-0.7720908131	-0.267313
C	 1.3843718832	 3.2483576214	 0.0755121071	-0.315564
C	 2.7266153911	 3.9509346054	-0.1149933252	-0.184314
C	 2.6583872414	 5.4293047021	 0.3130254845	-0.348636
C	 3.9338238359	 6.1213584013	 0.1388159815	 0.259885
N	 4.9482223065	 6.6555641899	-0.0042337117	-0.298217
H	 0.2073798475	-0.0577228084	-0.5017009423	 0.115116
H	 0.5807985509	 3.737102212	-0.4926906871	 0.145671
H	 1.0429848087	 3.2912283102	 1.1191079655	 0.145678
H	 3.5005113716	 3.4363641452	 0.4617711433	 0.13978
H	 3.0351205448	 3.8850646246	-1.1622956641	 0.139778
H	 1.8946302436	 5.961363698	-0.2667688906	 0.154678
H	 2.3623826106	 5.5102775382	 1.3658291541	 0.154677
26.7902	72.3062	83.3491	107.7738	135.994	163.9362	264.1586	326.6545	399.046	460.6043	502.1144	539.5554	656.2502	722.7658	812.827	815.7016	952.66	968.5372	1035.3366	1065.8812	1088.6902	1156.0961	1167.4392	1279.8038	1284.8789	1320.7078	1362.4868	1365.2205	1402.5304	1438.8023	1468.6027	1494.2371	1806.6761	1824.8714	2365.2624	2931.6878	3024.838	3036.7974	3049.1845	3068.5688	3070.8856	3112.364
O=CC(=O)CCCC#N	O=CC(=O)CCCC#N	
InChI=1S/C6H7NO2/c7-4-2-1-3-6(9)5-8/h5H,1-3H2	InChI=1S/C6H7NO2/c7-4-2-1-3-6(9)5-8/h5H,1-3H2
