16
gdb 27636	3.24573	1.20242	0.8822	1.869	83.67	-0.1812	0.0311	0.2122	1273.1402	0.123222	-400.76561	-400.756603	-400.755659	-400.798966	33.743	
C	-0.0585112703	 1.5180451348	 0.0893571993	-0.504877
C	-0.0083861463	 0.0340070826	-0.0438298271	 0.326801
C	-0.0371638713	-0.7801725085	-1.1413400509	-0.358212
C	 0.0409609603	-2.1499579009	-0.6968710506	 0.057622
C	 0.0476172669	-3.3542015455	-1.4277793749	 0.18193
C	 0.0570861792	-4.4142734705	-2.0063117924	-0.45958
C	 0.1148594881	-2.092012283	 0.6843249571	 0.295388
O	 0.2039215047	-3.0645643331	 1.6119736225	-0.431394
N	 0.0856898729	-0.7927800172	 1.0762116393	-0.358302
H	 0.839835536	 1.9240377197	 0.5722461205	 0.126159
H	-0.1339543092	 1.9724083821	-0.9010350915	 0.140635
H	-0.9236648246	 1.8551022625	 0.6749391123	 0.126064
H	-0.1064823529	-0.4565885305	-2.1679960055	 0.100049
H	 0.0639097316	-5.3347424264	-2.5342412879	 0.17954
H	 0.2106572083	-3.9069103513	 1.1384011989	 0.311741
H	 0.1267693466	-0.4916421448	 2.0348821012	 0.266435
117.8307	117.9335	140.6611	210.9036	268.9137	306.2138	381.3881	399.647	419.6126	444.9723	495.1212	508.5693	582.2933	635.5682	652.2549	670.4644	699.3941	797.3538	800.0679	988.5905	1016.2831	1064.2042	1153.3157	1166.9559	1214.1118	1259.5607	1364.0005	1397.5234	1420.5168	1477.5602	1495.5602	1567.6758	1590.8483	1643.6993	2213.4838	3011.7647	3053.6141	3123.8606	3257.5627	3503.7157	3676.385	3778.3636
CC1=CC(C#C)=C(O)N1	Cc1cc(C#C)c(O)[nH]1	
InChI=1S/C7H7NO/c1-3-6-4-5(2)8-7(6)9/h1,4,8-9H,2H3	InChI=1S/C7H7NO/c1-3-6-4-5(2)8-7(6)9/h1,4,8-9H,2H3
