18
gdb 128680	3.22091	1.24278	0.91068	1.0627	76.27	-0.2009	0.0364	0.2373	1278.2567	0.147842	-435.280023	-435.270141	-435.269197	-435.315131	34.529	
C	 0.0170669196	 1.3603342125	 0.0446899693	-0.232887
O	-0.0050458393	-0.0626892022	 0.0303833361	-0.274953
C	 0.6537012584	-0.6647463309	 1.0397557208	 0.415935
N	 1.3079930664	-0.0110041733	 1.9858645875	-0.333012
N	 1.7938648463	-1.0065990898	 2.7775292497	-0.309263
C	 1.4430749446	-2.2511941101	 2.363063137	 0.391261
C	 1.8312363746	-3.506456477	 3.0660664365	-0.506926
C	 0.6961747295	-2.0737002696	 1.2123977472	-0.068458
N	 0.0919812668	-3.0948727694	 0.4323903146	-0.625467
H	 1.0428056414	 1.7377386725	-0.0265310256	 0.130704
H	-0.5626215636	 1.6809782518	-0.8224068301	 0.122257
H	-0.4309176632	 1.7508991969	 0.9647242558	 0.130605
H	 2.3441649008	-0.7579826079	 3.5799988723	 0.264441
H	 1.2230535033	-4.3269956996	 2.6778251913	 0.156765
H	 2.8856474149	-3.7641426429	 2.9084999706	 0.131688
H	 1.6665747324	-3.4336553946	 4.1467510754	 0.127284
H	 0.6950698248	-3.3844957834	-0.3326820724	 0.237792
H	-0.7587538377	-2.7433212531	 0.0046543539	 0.242233
58.8822	90.2132	140.7381	159.9496	191.8932	198.8033	239.289	295.8424	316.1456	346.3734	429.0941	533.6773	630.6672	657.4555	739.0982	751.3441	776.691	867.5961	995.6878	1006.8952	1063.7519	1103.9801	1174.9135	1182.0811	1223.8264	1233.1572	1268.8629	1313.0746	1407.4986	1442.409	1456.6329	1477.3371	1483.1979	1489.8567	1503.8692	1534.9282	1568.6599	1639.9774	1675.6719	3025.4802	3028.6646	3077.6383	3092.9926	3126.2176	3138.7094	3486.026	3560.2928	3688.9057
COC1=NNC(C)=C1N	COc1n[nH]c(C)c1N	
InChI=1S/C5H9N3O/c1-3-4(6)5(9-2)8-7-3/h6H2,1-2H3,(H,7,8)	InChI=1S/C5H9N3O/c1-3-4(6)5(9-2)8-7-3/h6H2,1-2H3,(H,7,8)
