19
gdb 89574	4.7727	1.04136	0.9934	2.0055	77.5	-0.2133	0.0204	0.2336	1246.8562	0.160196	-419.192065	-419.18392	-419.182976	-419.225122	30.543	
C	-0.1099255753	 1.5437171009	 0.0142065629	-0.320677
N	-0.0419168824	 0.1044506269	 0.0933374689	-0.055184
C	-1.2288600323	-0.6401641459	 0.5411210725	-0.208648
C	-0.306609128	-1.5953489016	 1.3470355746	 0.292126
C	 0.787026642	-0.5119489732	 1.1405717382	-0.208649
C	-0.7052590602	-2.0176381333	 2.7779794753	-0.182727
O	-0.6110320416	-3.4617065343	 2.7699299941	-0.221137
C	-0.2173445582	-3.7772935638	 1.5134894782	 0.106992
N	-0.021918521	-2.8609638954	 0.6603500601	-0.289942
H	 0.8703396372	 1.9480713306	-0.259739336	 0.122553
H	-0.8221837496	 1.8404253547	-0.7630456967	 0.122553
H	-0.4228931791	 2.0204996985	 0.9646843553	 0.083308
H	-1.8914364136	-0.0594555308	 1.2076562507	 0.074832
H	-1.8236696619	-1.0939490664	-0.2580216284	 0.112883
H	 1.7690237026	-0.8654452786	 0.8103134969	 0.112884
H	 0.9069684979	 0.1185294712	 2.0397991946	 0.074832
H	-0.0270717773	-1.6345204339	 3.546471779	 0.120949
H	-1.7315977533	-1.7429174082	 3.0396175595	 0.120949
H	-0.0971031159	-4.8403210772	 1.3365047803	 0.142102
76.9074	84.2483	219.3573	270.8733	273.955	297.997	391.5536	394.7078	423.7865	589.089	719.2214	807.8607	840.6373	881.6197	916.0546	955.4786	964.0128	971.6598	981.8444	1008.3259	1104.1673	1113.252	1131.8773	1142.5146	1162.2509	1183.5401	1216.8055	1228.8741	1240.5534	1282.3536	1302.3637	1320.8387	1356.6525	1374.8056	1451.9115	1485.2393	1489.3738	1498.5962	1511.2737	1516.4978	1698.9101	2907.4339	2935.9556	2946.8125	3046.1195	3055.1548	3067.8068	3069.1856	3092.8962	3098.2578	3216.4041
CN1CC2(C1)COC=N2	CN1CC2(C1)COC=N2	
InChI=1S/C6H10N2O/c1-8-2-6(3-8)4-9-5-7-6/h5H,2-4H2,1H3	InChI=1S/C6H10N2O/c1-8-2-6(3-8)4-9-5-7-6/h5H,2-4H2,1H3
