21
gdb 102327	1.78019	1.38094	1.15442	0.5467	90.06	-0.2608	0.0321	0.2929	1276.9619	0.178135	-349.893507	-349.882525	-349.881581	-349.928838	40.689	
C	 0.1119851333	 1.5605165436	 0.0093509997	-0.400097
C	-0.0250720096	 0.0388031594	 0.0024645741	-0.191864
C	-1.4959828302	-0.4906210972	 0.0136564492	-0.143948
C	-1.4623362758	-2.0535812364	 0.0049429712	-0.191874
C	-2.833488324	-2.7275909452	 0.0144161853	-0.400096
C	-2.1808685084	-0.0187049685	 1.2271359864	 0.378668
C	-2.7107293238	 0.3466196305	 2.2421899195	-0.494233
C	-2.2038529549	-0.005770636	-1.1813945705	 0.37867
C	-2.7529517378	 0.3703573334	-2.1821777439	-0.494234
H	 1.1680984873	 1.8462926352	 0.000810138	 0.111692
H	-0.3666434085	 2.0026113177	-0.8690303165	 0.130061
H	-0.3497458159	 1.9930780695	 0.9014173189	 0.130061
H	 0.4606724371	-0.3786277026	-0.8865361164	 0.104958
H	 0.4775125382	-0.3881256893	 0.8774838686	 0.104957
H	-0.8993735321	-2.3586097971	-0.8841852553	 0.104957
H	-0.8825306483	-2.3680819474	 0.8798332779	 0.104958
H	-2.721225609	-3.8159232982	 0.0075082769	 0.111696
H	-3.4019577484	-2.4504121188	 0.9066582311	 0.130061
H	-3.4188567523	-2.4409171714	-0.8637881938	 0.13006
H	-3.1918518762	 0.6784115619	 3.1289173195	 0.197772
H	-3.2508767208	 0.7114647269	-3.0560004298	 0.197772
108.3443	111.0175	119.3722	152.5157	167.9301	198.8183	201.5235	256.7531	270.9314	360.5544	386.8354	464.1113	487.2342	563.4524	620.7449	632.5127	634.3217	639.891	641.8384	645.4726	786.4832	792.4429	941.582	948.638	964.9143	1035.667	1068.5353	1094.5144	1100.7955	1172.9701	1219.3243	1290.2683	1340.6266	1348.6597	1376.382	1409.4157	1414.5946	1472.0863	1483.657	1495.2107	1496.5686	1508.4716	1509.762	2229.0975	2235.2123	3032.6188	3039.2754	3044.2427	3044.8332	3074.9748	3082.4146	3113.1006	3113.4155	3122.5195	3123.5757	3500.2856	3501.0538
CCC(CC)(C#C)C#C	CCC(CC)(C#C)C#C	
InChI=1S/C9H12/c1-5-9(6-2,7-3)8-4/h1-2H,7-8H2,3-4H3	InChI=1S/C9H12/c1-5-9(6-2,7-3)8-4/h1-2H,7-8H2,3-4H3
