16
gdb 124005	3.80421	1.66728	1.17904	3.3401	79.01	-0.1935	-0.0068	0.1867	992.2814	0.128891	-396.954418	-396.94771	-396.946766	-396.985466	26.686	
C	 0.1099446611	 1.4239011057	 0.353176826	-0.22705
N	 1.0868412987	 2.1089579679	-0.5045780236	-0.413865
C	 2.2033847131	 1.4040993517	-0.9111550947	 0.473773
C	 3.4652495105	 1.746518017	-1.3538590931	-0.375383
C	 4.0416079537	 0.5067203706	-1.7351780341	 0.022624
N	 3.230928055	-0.5232813546	-1.5526871248	-0.292455
N	 2.0997361297	 0.0488963873	-1.0386805788	-0.035506
C	 0.939808633	-0.6455269175	-0.7173816555	 0.047494
C	-0.0484111589	-0.0135568163	-0.0824653159	-0.123886
H	 0.3975414562	 1.4608220503	 1.4214444362	 0.107153
H	-0.8440969985	 1.9556280968	 0.2685139635	 0.119641
H	 1.2750798153	 3.0653449647	-0.2457232334	 0.247054
H	 3.9011241636	 2.7305459223	-1.4033794125	 0.096124
H	 5.031636643	 0.3379917072	-2.1344093006	 0.111468
H	 0.9288362943	-1.6802996837	-1.0317056281	 0.134472
H	-0.9613050699	-0.5360022295	 0.1707888493	 0.10834
132.0386	149.0369	304.3676	406.7627	430.4487	497.0505	580.8339	617.4478	648.2297	687.6111	732.1915	748.6155	763.2194	881.9558	886.1306	918.499	943.2666	958.2629	1034.356	1048.8889	1072.4702	1163.0489	1207.937	1239.716	1256.0935	1279.4716	1326.2571	1365.5713	1395.0453	1462.3452	1487.3174	1512.1848	1544.693	1628.5845	1724.8668	2906.8215	3050.2556	3217.5718	3238.7008	3241.7882	3269.8856	3616.5974
C1NC2=CC=NN2C=C1	C1Nc2ccnn2C=C1	
InChI=1S/C6H7N3/c1-3-7-6-2-4-8-9(6)5-1/h1-2,4-5,7H,3H2	InChI=1S/C6H7N3/c1-3-7-6-2-4-8-9(6)5-1/h1-2,4-5,7H,3H2
