25
gdb 117723	3.18399	0.77156	0.73083	0.0641	87.13	-0.2457	0.0823	0.328	1746.1487	0.224403	-426.619371	-426.607258	-426.606314	-426.658167	42.656	
C	 0.1103136171	 1.553024661	-0.2258315044	-0.377551
C	 0.0145869455	 0.0484787256	-0.02186329	-0.045489
O	 0.6425740482	-0.5722594733	-1.1269356737	-0.297446
C	 0.6828573868	-2.0035807145	-1.1665285138	 0.343737
C	 1.4865981502	-2.5854976312	 0.004598333	-0.423391
C	-0.7240821387	-2.6133949652	-1.2359205649	-0.423393
C	 1.4278411672	-2.2550216692	-2.4884751261	-0.078042
O	 1.5628452864	-3.6434068555	-2.6978519699	-0.236546
C	 2.2369660913	-3.9550930664	-3.8924255059	-0.222856
H	 1.1567590192	 1.8652834417	-0.2873834428	 0.123157
H	-0.3879281976	 1.8460264935	-1.154404398	 0.123158
H	-0.3633870787	 2.0827506243	 0.6063457626	 0.110697
H	 0.5039630015	-0.2344341862	 0.9221233982	 0.087391
H	-1.0405885239	-0.2536941535	 0.0552059928	 0.087391
H	 0.9462707997	-2.5025976176	 0.9517044213	 0.109548
H	 1.6888165318	-3.6428134763	-0.1810163579	 0.134655
H	 2.4428306663	-2.0619383008	 0.1029137777	 0.11363
H	-1.3160884375	-2.1093871291	-2.0064176107	 0.11363
H	-0.6507145642	-3.6723448913	-1.4938061014	 0.134653
H	-1.2525288379	-2.5303110253	-0.2821502738	 0.109548
H	 0.8646399377	-1.7865611453	-3.3113165284	 0.089381
H	 2.4144364089	-1.7670089432	-2.441645691	 0.089383
H	 3.2596559899	-3.5459996108	-3.9027425377	 0.104759
H	 2.2911966565	-5.0442114784	-3.9644783764	 0.125238
H	 1.7050256142	-3.5657059931	-4.774908209	 0.104759
15.4163	71.1269	95.3288	113.4303	113.6006	219.4503	239.4572	240.799	250.5566	253.85	322.1215	337.7679	338.5951	357.5995	454.7606	454.8102	596.4601	760.8151	821.5439	859.6139	911.3852	958.5052	959.1864	996.5286	1014.2324	1035.4695	1100.489	1144.2028	1160.7606	1176.2707	1186.8888	1200.9708	1210.2434	1235.6331	1287.0724	1288.0736	1302.0462	1387.256	1387.9211	1398.0256	1415.4575	1425.3864	1480.0233	1482.1976	1484.0681	1484.4981	1488.6506	1497.7694	1499.1046	1504.7094	1509.0681	1526.3554	1532.5111	2963.7097	2975.6834	2979.7598	3004.5991	3008.767	3014.8936	3041.1379	3042.6511	3045.5989	3110.4173	3111.9917	3113.8134	3117.19	3119.8485	3129.4392	3133.8173
CCOC(C)(C)COC	CCOC(C)(C)COC	
InChI=1S/C7H16O2/c1-5-9-7(2,3)6-8-4/h5-6H2,1-4H3	InChI=1S/C7H16O2/c1-5-9-7(2,3)6-8-4/h5-6H2,1-4H3
