21
gdb 110293	3.01076	1.14222	1.01945	2.0465	78.71	-0.2382	0.0617	0.2999	1268.6635	0.182554	-424.187697	-424.178645	-424.177701	-424.221028	35.196	
C	-0.0218637273	 1.5353788944	 0.0091409608	-0.418031
C	 0.1199772564	 0.0269580659	 0.039775697	-0.019958
C	 1.3900334921	-0.7464244826	-0.193507284	-0.0779
C	 0.6927989742	-0.7818060839	 1.1741876171	-0.091708
C	 1.8997782616	-0.0885436178	 1.8269339302	-0.032027
C	 2.6306369981	-0.9638068405	 2.8271683129	-0.11529
O	 3.9012841327	-0.351528481	 3.082452497	-0.431233
C	 2.6072288072	-0.0489975901	 0.4194361764	 0.127076
O	 3.7499807839	-0.8683955811	 0.314155852	-0.449669
H	 0.8184471473	 2.0482134574	 0.4833556668	 0.123696
H	-0.0867372043	 1.8973144481	-1.022791855	 0.117842
H	-0.9338799268	 1.8484885488	 0.5292733295	 0.114612
H	-0.7325100673	-0.4813221564	-0.408885577	 0.085487
H	 1.4735011429	-1.521783558	-0.9456211419	 0.088216
H	 0.1331116913	-1.5903098534	 1.6333731657	 0.075786
H	 1.7077130643	 0.8889264249	 2.2835712616	 0.067818
H	 2.044856493	-1.0453991322	 3.7545365781	 0.092457
H	 2.7638376042	-1.9716201714	 2.4130762899	 0.106767
H	 4.3827300937	-0.9037684522	 3.7061813331	 0.291767
H	 2.8200180468	 0.9609449586	 0.0390895971	 0.059236
H	 4.3248526461	-0.6257401377	 1.0536207725	 0.285056
107.8415	159.7618	174.0817	191.7522	238.3122	288.6416	328.4715	352.1273	386.4875	425.3865	535.3765	579.8365	597.4473	724.413	758.9239	813.3336	871.8878	895.0894	931.9377	988.848	1003.3372	1022.1119	1030.5653	1050.8868	1071.1901	1092.7904	1115.0628	1130.8392	1161.8164	1201.0766	1212.2016	1225.1406	1256.0443	1272.3833	1297.2603	1326.2154	1363.2923	1374.8333	1414.709	1428.8082	1444.0858	1457.4543	1494.5618	1504.5332	1512.0821	2980.7066	2992.3334	3031.2954	3034.1705	3050.4037	3089.8786	3108.8642	3126.1121	3155.4239	3186.4371	3738.14	3825.1506
CC1C2C1C(CO)C2O	C[C@H]1[C@@H]2[C@H]1[C@@H](CO)[C@H]2O	
InChI=1S/C7H12O2/c1-3-5-4(2-8)7(9)6(3)5/h3-9H,2H2,1H3	InChI=1S/C7H12O2/c1-3-5-4(2-8)7(9)6(3)5/h3-9H,2H2,1H3/t3-,4-,5-,6-,7-/m1/s1
