14
gdb 75708	2.32793	1.71863	1.40572	4.67	62.38	-0.2384	-0.0615	0.1768	944.3844	0.101107	-473.816195	-473.808761	-473.807817	-473.848234	28.031	
O	 0.0818846575	 1.4167958437	-0.0601844493	-0.42408
C	 0.0539228323	-0.0016265391	-0.0391348093	-0.115834
C	 0.6629813429	-0.5686618592	 1.2677167426	 0.432954
O	 1.8031876409	-0.8995352601	 1.4518495691	-0.306657
C	-0.4723427457	-0.7245718037	 2.2513645883	-0.160733
N	-1.3399608782	 0.4749486262	 2.2449764435	-0.342493
C	-1.7579337058	-0.7112166189	 1.46401633	-0.16082
C	-1.3956300178	-0.5466319766	 0.0071310077	 0.432976
O	-2.0820257711	-0.860183624	-0.9277453243	-0.306667
H	-0.3982917026	 1.7096773276	 0.7290211876	 0.304393
H	 0.5892837526	-0.3593259136	-0.9195796131	 0.129878
H	-0.3459645093	-1.3045384498	 3.158007481	 0.127665
H	-1.8708224634	 0.5108749843	 3.1123205535	 0.261774
H	-2.6315878822	-1.2809072169	 1.7581512327	 0.127644
90.6388	170.2078	227.9331	234.0638	361.0389	381.9614	483.815	532.4236	548.0525	584.6121	707.6329	724.3485	818.9283	836.6622	879.1625	880.9512	927.609	999.4132	1057.9083	1107.657	1111.5454	1159.4704	1195.3374	1219.763	1257.3963	1265.5997	1345.2364	1370.7708	1447.5561	1841.5945	1877.1016	3120.9935	3191.6311	3199.9682	3505.6373	3716.0385
OC1C(=O)C2NC2C1=O	O[C@H]1C(=O)[C@H]2N[C@H]2C1=O	
InChI=1S/C5H5NO3/c7-3-1-2(6-1)4(8)5(3)9/h1-2,5-6,9H	InChI=1S/C5H5NO3/c7-3-1-2(6-1)4(8)5(3)9/h1-2,5-6,9H/t1-,2+,5-
