18
gdb 105594	1.76595	1.68756	1.22906	3.0586	73.27	-0.2493	-0.0364	0.2129	1125.0914	0.14611	-439.118197	-439.1087	-439.107756	-439.153079	33.507	
C	-0.4249374202	 1.6501992555	-0.0714928749	-0.400791
C	-0.0445391238	 0.1684710272	 0.0582224306	-0.252833
C	 0.7524355462	-0.3979342233	-1.1326170794	 0.04589
C	 0.8205640802	-1.9474185408	-1.2523514001	-0.216773
N	 0.0466252236	-1.8254330566	-2.494789616	-0.321497
C	-0.0878952247	-0.4685076467	-2.4665055224	 0.400059
O	-0.6457377414	 0.3308053275	-3.1691641637	-0.358382
C	 2.0785319171	 0.2931682513	-1.3565934781	 0.119889
O	 3.1362663587	-0.2746395974	-1.4739081628	-0.252574
H	 0.4456383689	 2.3087151818	-0.0010467225	 0.121555
H	-0.9188536186	 1.8418591174	-1.0274718812	 0.157936
H	-1.109877856	 1.9315031735	 0.7336169783	 0.119156
H	 0.527397963	 0.0010589581	 0.9795134313	 0.11146
H	-0.9596445586	-0.4283437096	 0.1524404392	 0.112877
H	 1.8294093305	-2.3407155906	-1.3873478533	 0.14357
H	 0.2976086274	-2.4853374052	-0.4560599965	 0.113151
H	-0.3173036305	-2.5122114649	-3.1383534151	 0.257517
H	 2.0153954882	 1.3980377729	-1.4293234334	 0.09979
62.0951	92.3245	98.294	159.4099	206.2591	249.3873	265.0232	282.6408	376.6937	430.0431	479.0904	626.352	680.4887	722.3843	783.2302	802.752	895.6473	912.7994	990.7523	1006.2828	1031.9035	1053.2146	1134.691	1157.1501	1165.0401	1209.6936	1239.8834	1286.6252	1314.9795	1370.6827	1387.6265	1413.5559	1431.4574	1491.7391	1502.8604	1513.1052	1521.8647	1809.4137	1885.9808	2925.6082	3022.6426	3046.7951	3055.5751	3058.7244	3111.3729	3125.5788	3130.4584	3614.8499
CCC1(CNC1=O)C=O	CC[C@]1(CNC1=O)C=O	
InChI=1S/C6H9NO2/c1-2-6(4-8)3-7-5(6)9/h4H,2-3H2,1H3,(H,7,9)	InChI=1S/C6H9NO2/c1-2-6(4-8)3-7-5(6)9/h4H,2-3H2,1H3,(H,7,9)/t6-/m0/s1
