17
gdb 127237	2.46161	1.36254	0.8868	3.0537	80.06	-0.2419	-0.0374	0.2045	1279.5822	0.135865	-418.054345	-418.04532	-418.044376	-418.088747	31.46	
C	-0.024838435	 1.3980357587	 0.1031601567	-0.31949
N	-0.0079503269	-0.0451772837	-0.0108410266	 0.056517
C	-0.0563392558	-0.79170613	-1.1233453341	-0.090151
C	-0.0131841011	-2.1220723553	-0.7207630043	 0.019772
C	-0.0418780514	-3.2855420067	-1.5922537438	 0.060913
O	-0.1082215018	-3.2421979024	-2.8041205731	-0.292461
C	 0.0629614072	-2.0588075418	 0.7015705966	 0.294394
C	 0.1345060557	-3.1817757154	 1.6876789197	-0.498639
N	 0.0654460619	-0.7984474673	 1.1192791396	-0.332281
H	 0.8865508658	 1.7450704026	 0.59644728	 0.156149
H	-0.0861160122	 1.8312219433	-0.8960510291	 0.145814
H	-0.8879672969	 1.7166601934	 0.6929658257	 0.156153
H	-0.1167991842	-0.3620025777	-2.1105156816	 0.163359
H	 0.0023685499	-4.2630778649	-1.0622583915	 0.060654
H	 1.0189163618	-3.805884188	 1.5216857741	 0.136926
H	 0.182763791	-2.7767942924	 2.7003292221	 0.145451
H	-0.7420493582	-3.8343830725	 1.6169983595	 0.13692
66.7011	111.216	138.6275	156.2384	178.0803	236.4509	262.9886	341.2633	396.6134	533.0305	631.0529	639.1382	681.6179	697.4685	848.3655	864.051	1011.105	1022.6808	1037.9676	1068.5144	1083.3263	1153.1501	1176.3792	1199.3655	1312.8327	1394.307	1412.4343	1436.8836	1457.1862	1473.0767	1483.1115	1483.9676	1490.0967	1507.6546	1540.009	1581.772	1777.5081	2878.8916	3040.111	3055.2661	3093.4903	3124.2128	3136.8046	3153.4869	3269.3444
CN1C=C(C=O)C(C)=N1	Cn1cc(C=O)c(C)n1	
InChI=1S/C6H8N2O/c1-5-6(4-9)3-8(2)7-5/h3-4H,1-2H3	InChI=1S/C6H8N2O/c1-5-6(4-9)3-8(2)7-5/h3-4H,1-2H3
