20
gdb 119855	4.13063	0.86318	0.78679	0.941	81.33	-0.2155	0.0156	0.2312	1487.4547	0.171621	-403.12139	-403.112648	-403.111704	-403.155535	32.691	
O	-0.1292002717	 1.4433781486	-0.1142706436	-0.417463
C	 0.0084386745	 0.0317100236	-0.10352644	-0.067182
C	-1.3859331888	-0.5618466562	 0.1185084179	-0.303384
C	-1.3948001375	-2.0604747983	 0.103219418	 0.334962
C	-1.6003486044	-2.8938154697	 1.1275020718	-0.211781
C	-1.4864066054	-4.3365600717	 0.6918505869	-0.200497
N	-1.2409248923	-4.3005281935	-0.7695516206	-0.100284
C	-2.3362535095	-3.7178025342	-1.5504217157	-0.23505
C	-1.1810389073	-2.8676760239	-1.1409961703	-0.126431
H	 0.7421493807	 1.8300091477	-0.2401429855	 0.28702
H	 0.4286393614	-0.3346610304	-1.0536785898	 0.089602
H	 0.6798005627	-0.3039265722	 0.7020644948	 0.09291
H	-1.7677376622	-0.1905012508	 1.0747654955	 0.112632
H	-2.0438496006	-0.1667297928	-0.6661969298	 0.1152
H	-1.8420574165	-2.5960861787	 2.1418877519	 0.093439
H	-0.6469382129	-4.8487938695	 1.181967713	 0.111807
H	-2.3855638996	-4.9268256402	 0.9114107901	 0.111487
H	-2.4101881442	-4.0946836165	-2.5673187356	 0.1132
H	-3.2872725096	-3.5258465295	-1.0570100143	 0.109193
H	-0.4326094366	-2.5683326719	-1.8707406646	 0.090622
59.5846	84.398	116.2103	247.8276	256.1008	295.6622	341.2852	348.1341	413.5651	614.6903	671.8365	726.2721	768.1495	801.5568	830.0815	843.2899	879.2387	942.6116	992.4852	1004.3242	1032.3674	1047.5617	1068.0611	1081.35	1093.0947	1109.208	1153.4966	1192.61	1213.5109	1217.2643	1238.0604	1262.3114	1290.1831	1312.0986	1331.1259	1343.6621	1381.8508	1457.338	1486.401	1488.0232	1500.3089	1527.5742	1705.8047	2971.0309	2999.2642	3005.5859	3028.8822	3038.8563	3085.0893	3092.7063	3133.6663	3182.4381	3193.3717	3831.2716
OCCC1=CCN2CC12	OCCC1=CCN2C[C@@H]12	
InChI=1S/C7H11NO/c9-4-2-6-1-3-8-5-7(6)8/h1,7,9H,2-5H2	InChI=1S/C7H11NO/c9-4-2-6-1-3-8-5-7(6)8/h1,7,9H,2-5H2/t7-,8?/m0/s1
