19
gdb 113011	2.23436	1.24332	1.19517	1.9762	71.44	-0.2545	-0.0394	0.2151	1172.374	0.158101	-460.150413	-460.141091	-460.140147	-460.184915	33.966	
O	 0.2027477945	 0.8424113286	-0.8104942689	-0.427989
C	-0.0239596059	-0.505905481	-0.4159110968	-0.100086
C	-1.4320569704	-0.5779662614	 0.1503731229	-0.024762
C	-2.5594989519	-0.3881246662	-0.9019242788	-0.250494
C	-2.8585956465	-1.9366999468	-0.8543954728	-0.155263
C	-2.3591899763	-2.6319011523	-2.0827498543	 0.15687
O	-1.2842286926	-3.1833707119	-2.1971658781	-0.270299
C	-1.9661274202	-2.0234145391	 0.4251958728	 0.120903
O	-1.0763935121	-3.0914185523	 0.5774567573	-0.433741
H	 1.0796165051	 0.8945547681	-1.201691326	 0.287028
H	 0.0862030413	-1.1894807228	-1.2700441142	 0.096575
H	 0.6908244861	-0.8284350528	 0.3553614262	 0.100839
H	-1.4921874066	 0.0993543438	 1.0064985917	 0.080946
H	-3.4073105269	 0.1981691222	-0.5447973732	 0.114812
H	-2.2371789664	 0.017635032	-1.8632863903	 0.122222
H	-3.9167436574	-2.1890827204	-0.7296373672	 0.092067
H	-3.0514376629	-2.5903808411	-2.9525746329	 0.098511
H	-2.6029923225	-2.0172183445	 1.3154161901	 0.092108
H	-0.7520195682	-3.3173712018	-0.3066161475	 0.299753
72.7327	94.4601	112.9363	165.3392	242.5931	261.5412	283.9665	295.5552	394.675	441.4052	552.7275	584.7146	686.1402	759.3208	784.6778	823.8289	889.2653	894.9426	943.4469	982.8849	1024.9668	1069.8542	1080.1441	1127.6799	1146.4011	1168.3748	1179.0439	1222.6086	1241.9563	1256.0621	1272.0157	1283.5881	1335.4536	1357.5655	1368.9201	1426.3085	1461.1911	1466.6912	1490.8153	1527.9402	1785.6242	2891.316	2990.8873	3023.4557	3049.238	3059.7164	3071.9628	3079.3043	3130.5844	3712.2767	3829.2572
OCC1CC(C=O)C1O	OC[C@H]1C[C@@H](C=O)[C@H]1O	
InChI=1S/C6H10O3/c7-2-4-1-5(3-8)6(4)9/h2,4-6,8-9H,1,3H2	InChI=1S/C6H10O3/c7-2-4-1-5(3-8)6(4)9/h2,4-6,8-9H,1,3H2/t4-,5+,6+/m0/s1
