18
gdb 37910	3.07895	1.90433	1.4324	1.4841	82.37	-0.22	-0.0254	0.1946	927.8053	0.150038	-364.736441	-364.729774	-364.72883	-364.766955	28.154	
C	-0.0696849441	 1.4085184406	 0.165595835	-0.213353
N	 1.414751128	 1.6042044802	-0.1122526506	-0.171643
C	 2.2806484669	 0.4338345418	 0.3214259161	 0.016223
C	 2.0917874398	-0.5587074884	 1.4837976126	-0.297736
C	 1.7339260031	-1.9666402205	 1.009632619	-0.046181
C	 0.5769988149	-2.2760152707	 0.3998996443	-0.09306
C	-0.387940778	-1.1776634648	 0.2218038796	-0.209282
C	 0.0434176157	-0.0264616163	-0.2969784965	 0.205793
C	 1.4179195175	 0.2853658264	-0.852853542	-0.124292
H	-0.3961846068	 1.5824123931	 1.1973114706	 0.10756
H	-0.5964722315	 2.098206985	-0.5012237699	 0.120611
H	 3.3111314073	 0.7295997826	 0.1401619441	 0.101202
H	 3.0137439019	-0.5913583314	 2.0709269026	 0.102477
H	 1.3114099107	-0.1976146515	 2.1621219101	 0.126775
H	 2.4628096606	-2.7501091711	 1.2043430253	 0.09348
H	 0.3409687546	-3.3046356479	 0.1380078879	 0.091658
H	-1.3364910184	-1.2195839924	 0.7575205983	 0.095054
H	 1.737703828	 0.1913215454	-1.8858245865	 0.094715
207.8673	237.8044	328.9282	345.0837	420.1636	439.4554	519.669	628.0343	674.2705	725.5716	757.0147	780.2085	784.3921	847.5086	872.4428	909.6892	936.0948	956.7779	984.8895	997.1972	1026.4462	1059.1215	1061.1808	1078.6577	1106.6035	1152.5403	1202.6127	1224.5629	1236.7452	1274.9015	1292.5656	1325.0615	1349.5648	1389.8834	1411.8462	1479.1243	1494.7109	1650.3418	1720.6649	3031.5809	3047.469	3082.2442	3087.0317	3118.4495	3137.5766	3142.2864	3157.5027	3164.6028
C1N2C3CC=CC=C1C23	C1N2[C@H]3CC=C[CH][C]1[C@@H]23	
InChI=1S/C8H9N/c1-2-4-7-8-6(3-1)5-9(7)8/h1-3,7-8H,4-5H2	InChI=1S/C8H9N/c1-2-4-7-8-6(3-1)5-9(7)8/h1-3,7-8H,4-5H2/t7-,8+,9?/m0/s1
