21
gdb 68483	2.72347	1.67105	1.2925	1.9908	77.52	-0.2492	0.0805	0.3297	1052.6399	0.184432	-424.216221	-424.208457	-424.207512	-424.247782	32.01	
C	-0.085509737	 1.5581612214	-0.0288534403	-0.471504
C	 0.0409397481	 0.0403275778	-0.0055127099	 0.295724
C	 1.1310250814	-0.629182846	-0.9009703347	-0.265339
C	 1.4169791635	-1.6200675983	 0.2648433608	 0.126193
C	 0.7691665019	-0.5878558056	 1.2245605906	-0.300046
O	 0.744567445	-2.864241428	 0.1444890262	-0.259836
C	-0.657374347	-2.8444137949	 0.237517377	 0.016244
O	-1.2854042756	-1.9710187483	-0.6609747117	-0.240933
C	-1.3333729451	-0.6085469185	-0.2544580002	-0.125674
H	 0.8767012949	 2.0332447345	 0.1878289052	 0.113609
H	-0.4231926644	 1.9156003101	-1.0084409454	 0.117912
H	-0.8051234701	 1.911993133	 0.7195988814	 0.115567
H	 0.8135531522	-1.0732731273	-1.8454049792	 0.113603
H	 1.9790629546	 0.0413051814	-1.0701927286	 0.091665
H	 2.4613362096	-1.8814455717	 0.4456098317	 0.080373
H	 1.5338931637	 0.0923704416	 1.6105310047	 0.099391
H	 0.1753084153	-0.9494715207	 2.0683320218	 0.099509
H	-0.9751123092	-3.8553626795	-0.0283946253	 0.115464
H	-0.981038995	-2.615267476	 1.2671373765	 0.078959
H	-1.9591367719	-0.5051723401	 0.6478256512	 0.091096
H	-1.842290115	-0.0920580551	-1.0745770718	 0.108026
203.832	212.6775	243.8363	272.4099	344.9064	362.7375	398.2313	415.418	442.4342	520.3994	601.7971	673.4756	802.544	812.127	866.1387	872.9125	921.3469	944.9684	951.9059	988.5871	1003.2109	1020.686	1059.8067	1088.2012	1102.5548	1157.2734	1199.0202	1202.9788	1222.3153	1225.1001	1262.5004	1285.0414	1296.0752	1301.392	1334.4419	1388.3347	1404.5274	1414.9715	1446.2271	1457.2432	1484.6794	1491.2193	1496.3712	1498.1764	1519.2698	2953.9624	2968.3605	3020.651	3054.2917	3058.8068	3073.9613	3083.7594	3091.1527	3096.8683	3101.2635	3106.8796	3131.9342
CC12CC(C1)OCOC2	C[C@@]12C[C@@H](C1)OCOC2	
InChI=1S/C7H12O2/c1-7-2-6(3-7)9-5-8-4-7/h6H,2-5H2,1H3	InChI=1S/C7H12O2/c1-7-2-6(3-7)9-5-8-4-7/h6H,2-5H2,1H3/t6-,7+
