17
gdb 37080	2.80111	2.60263	2.34788	0.0665	79.14	-0.1936	-0.1095	0.0841	733.3117	0.138261	-347.369382	-347.363676	-347.362731	-347.39877	25.657	
C	 0.0897086859	 1.3851029808	-0.2323943419	-0.29655
C	 1.601891968	 1.2761815668	 0.2922286305	 0.040709
C	 2.3150239109	 0.3535597469	-0.4109497207	-0.100103
C	 2.0006720232	-1.0399108605	 0.2565866214	-0.123983
C	 0.5681204336	-1.021209094	-0.4019209168	-0.100094
C	-0.1565235918	-0.1076498974	 0.3013197796	 0.040699
C	 0.3084543167	-0.100941843	 1.7357539954	-0.073534
C	 1.714220094	-0.6662950537	 1.7215175336	-0.070192
C	 1.4952293116	 0.8330313523	 1.7296189316	-0.073534
H	-0.5107243099	 2.1513224332	 0.2632885744	 0.112042
H	 0.0093893375	 1.4800486401	-1.3156013464	 0.116845
H	 2.3495079998	 0.3820107866	-1.4993237186	 0.09772
H	 2.6645196261	-1.88468605	 0.0690895092	 0.074955
H	 0.5254127507	-1.053502477	-1.4898959594	 0.09772
H	-0.3722212698	-0.1653883265	 2.5766711421	 0.085485
H	 2.150575075	-1.2153448736	 2.5455326357	 0.086329
H	 1.7232269686	 1.4837010489	 2.5658367404	 0.085485
239.0477	399.6783	511.0007	520.9202	577.1633	606.2959	661.9768	711.4919	741.0855	751.9148	790.1755	810.3772	811.9271	871.5187	894.1794	900.2685	908.9961	925.0252	954.6359	994.0492	1025.2244	1039.3876	1066.9854	1073.2407	1074.6937	1091.5234	1170.1034	1199.8386	1239.1354	1251.5459	1262.8027	1308.612	1329.6197	1339.2294	1477.0522	1512.6205	1530.8428	3068.4375	3099.0927	3119.6545	3132.9574	3145.1781	3170.191	3177.9123	3201.7737
C1C2=CC3C=C1C1C3C21	C1[C]2[CH][C@@H]3[CH][C]1[C@H]1[C@@H]3[C@@H]21	
InChI=1S/C9H8/c1-4-2-6-3-5(1)8-7(4)9(6)8/h1-2,4,7-9H,3H2	InChI=1S/C9H8/c1-4-2-6-3-5(1)8-7(4)9(6)8/h1-2,4,7-9H,3H2/t4-,7+,8-,9+
