22
gdb 62684	2.37262	1.75094	1.2867	1.361	86.32	-0.2091	0.0703	0.2793	1101.9921	0.19267	-367.125797	-367.116728	-367.115784	-367.15857	36.375	
C	-0.0803981283	 1.5915963942	 0.0407420852	-0.498658
C	 0.0171520559	 0.0646846864	 0.0765388588	 0.288476
C	-1.2328663443	-0.5611396839	-0.5339648673	-0.441409
N	 1.1876108428	-0.7878473655	-0.3387739188	-0.23668
C	 2.5387630186	-0.3268607313	 0.1452404194	 0.007319
C	 2.6727529462	 0.9566110577	 0.9026132502	-0.315237
C	 2.0983034762	-0.2583982668	 1.592052283	-0.129803
C	 0.7143214686	-0.7553269152	 1.1034396788	 0.283835
C	 0.1600801128	-1.9589210241	 1.8170500123	-0.483217
H	 0.5187999149	 2.0168272522	-0.7702190471	 0.134757
H	-1.1203860868	 1.8737106588	-0.1480612044	 0.114655
H	 0.2124323767	 2.0621389348	 0.9797534352	 0.134273
H	-1.4147420478	-0.1177959405	-1.5188965746	 0.118833
H	-1.122072625	-1.6366732483	-0.6723256316	 0.129627
H	-2.1115013292	-0.3654098287	 0.0914046432	 0.110237
H	 3.3866652127	-0.8275284682	-0.3057567463	 0.099454
H	 3.70209876	 1.1356160991	 1.2061628607	 0.112382
H	 2.1365032151	 1.8644050452	 0.681663493	 0.114767
H	 2.5661061183	-0.6904244029	 2.4677553997	 0.090304
H	-0.1158220634	-1.6862408776	 2.8434880731	 0.11744
H	-0.7230676822	-2.3720564714	 1.3280036129	 0.124406
H	 0.9171068181	-2.7492487341	 1.8770794245	 0.12424
120.7054	176.4632	204.1986	221.8057	264.4424	316.5137	325.6114	339.2383	369.0729	423.8705	506.7525	584.8918	607.3118	639.7775	694.8709	743.1551	829.756	849.5576	894.1634	933.5458	968.5908	980.081	993.3033	1007.4812	1023.6485	1060.7874	1077.166	1081.4829	1092.0206	1136.9394	1166.3807	1168.8781	1210.5684	1235.2971	1286.8968	1342.426	1398.7617	1404.7141	1416.9988	1427.5648	1480.041	1485.9932	1489.4086	1494.184	1501.818	1510.6044	1526.0551	3025.4408	3031.8287	3043.9891	3079.8077	3092.6253	3101.5533	3131.534	3133.8236	3134.8294	3147.8951	3178.8136	3191.2237	3265.0322
CC1(C)N2C3CC3C12C	CC1(C)N2[C@H]3C[C@H]3[C@@]12C	
InChI=1S/C8H13N/c1-7(2)8(3)5-4-6(5)9(7)8/h5-6H,4H2,1-3H3	InChI=1S/C8H13N/c1-7(2)8(3)5-4-6(5)9(7)8/h5-6H,4H2,1-3H3/t5-,6+,8+,9?/m1/s1
