18
gdb 91188	4.29884	1.27087	1.04872	2.7684	79.53	-0.2145	-0.0042	0.2102	1149.3615	0.150396	-398.159332	-398.151649	-398.150705	-398.191841	28.982	
C	-0.0986090775	 1.5513271276	 0.0173436736	-0.386102
C	 0.1095601924	 0.0410966053	 0.0217409598	 0.046934
C	 0.8960925813	-0.4879818533	-1.2395482042	-0.227239
N	 1.8062959872	-1.4247368314	-0.5972650513	-0.078828
C	 2.9789905233	-2.1019984222	-0.8800240001	 0.052652
N	 3.6588759486	-2.4819041814	 0.1385700454	-0.266439
C	 2.9308442007	-1.9918823103	 1.3322906771	-0.279782
C	 1.7691210855	-1.1984954772	 0.7795313194	 0.378211
N	 0.8822676726	-0.3974156427	 1.2131934274	-0.361368
H	 0.8641399758	 2.0723732802	-0.0047338032	 0.119295
H	-0.6817560399	 1.8641923998	-0.8555859074	 0.111251
H	-0.631665766	 1.8626401044	 0.9191894754	 0.133467
H	-0.8717523029	-0.4503678919	 0.0641497446	 0.091189
H	 0.246631814	-0.9762144689	-1.970289349	 0.12215
H	 1.4423105298	 0.3216457729	-1.7421873949	 0.113747
H	 3.2601235799	-2.3123129375	-1.9064764102	 0.136112
H	 2.5924335186	-2.8405246715	 1.9383590137	 0.146115
H	 3.5863834567	-1.3862650919	 1.9651465938	 0.148635
76.364	114.8286	193.4353	236.1367	298.6459	424.8245	454.4191	485.5219	578.9202	654.0425	719.486	793.7808	820.9064	888.2223	915.2435	929.6236	936.6327	946.5116	995.2599	1081.2955	1092.8464	1143.8676	1149.8249	1183.2974	1212.873	1233.2609	1275.6539	1287.1737	1318.4236	1348.9883	1365.5134	1396.866	1408.2948	1453.6334	1487.1046	1497.0124	1519.4996	1650.3815	1743.6258	3006.7754	3011.8393	3035.1966	3046.798	3088.2794	3088.4598	3103.9177	3124.024	3198.8692
CC1CN2C=NCC2=N1	C[C@H]1CN2C=NC[C]2[N]1	
InChI=1S/C6H9N3/c1-5-3-9-4-7-2-6(9)8-5/h4-5H,2-3H2,1H3	InChI=1S/C6H9N3/c1-5-3-9-4-7-2-6(9)8-5/h4-5H,2-3H2,1H3/t5-/m0/s1
