15
gdb 104946	3.0652	0.85102	0.71715	1.8149	85.17	-0.2482	-0.0308	0.2174	1533.2253	0.109417	-420.537272	-420.527985	-420.527041	-420.572059	33.344	
O	 0.187226727	 1.2868958755	 0.3468771149	-0.404299
C	 0.0366403861	 0.0073126814	-0.2248216027	-0.126884
C	-1.3954275849	-0.4933672836	-0.1145758815	 0.036631
C	-1.6537167812	-1.9020201551	 0.2543472726	-0.201825
O	-1.7484263341	-0.8796285253	 1.2380790065	-0.260255
C	-2.3985756103	 0.2528004472	-0.8264876781	 0.465295
C	-3.2129445659	 0.8889503929	-1.4566523422	-0.194486
C	-4.1375749305	 1.5992313433	-2.1558896755	 0.291633
C	-4.95870441	 2.2292533563	-2.7779095821	-0.571995
H	-0.0974068084	 1.2228360131	 1.2659072623	 0.296833
H	 0.3227706428	 0.098461806	-1.2770363135	 0.124449
H	 0.6945042305	-0.7362011071	 0.2499490321	 0.096032
H	-2.5958963166	-2.3584973082	-0.0415228751	 0.130888
H	-0.8096807476	-2.5831020275	 0.3579692222	 0.122034
H	-5.6810184669	 2.7851634809	-3.3226390499	 0.19595
59.2005	84.0649	101.3032	198.5688	245.114	270.3844	321.7781	411.983	430.4631	491.5399	518.8117	533.8727	563.9833	596.44	610.8203	649.5983	778.2585	897.6486	949.8579	985.5127	1056.754	1088.0906	1130.6419	1174.2483	1211.232	1291.4139	1345.965	1406.4537	1423.3823	1487.4343	1517.9734	2183.1236	2358.9862	2993.2947	3086.5299	3089.7064	3181.6859	3503.6377	3798.8677
OCC1(CO1)C#CC#C	OC[C@]1(CO1)C#CC#C	
InChI=1S/C7H6O2/c1-2-3-4-7(5-8)6-9-7/h1,8H,5-6H2	InChI=1S/C7H6O2/c1-2-3-4-7(5-8)6-9-7/h1,8H,5-6H2/t7-/m0/s1
