20
gdb 10209	2.60946	1.20207	0.87352	1.9947	73.15	-0.2428	-0.0295	0.2133	1359.1737	0.173567	-386.144191	-386.134062	-386.133118	-386.180096	34.496	
C	-0.1005912916	 1.5421189771	-0.2211948826	-0.38374
C	-0.0146898347	 0.0184942696	-0.1020404117	-0.172128
C	-1.3909777496	-0.6381318566	 0.0533907227	-0.192155
C	-1.3139981025	-2.1635046671	 0.2070170289	 0.031582
O	-0.5968755749	-2.4564175525	 1.3889379868	-0.240873
C	-0.1558078928	-3.7967725652	 1.4679511997	-0.242227
C	-2.7301508298	-2.7286396024	 0.2877092065	 0.133504
O	-3.4216139084	-2.975575692	-0.6650552371	-0.24584
H	 0.892987454	 1.9864487428	-0.3351496439	 0.114159
H	-0.7010795276	 1.8414679609	-1.0874115185	 0.115384
H	-0.5619374834	 1.9837007791	 0.6690686356	 0.116545
H	 0.480715147	-0.394231481	-0.9907910341	 0.094452
H	 0.606462424	-0.2575391049	 0.7557577567	 0.116999
H	-1.9028671952	-0.2249678505	 0.9324852148	 0.105851
H	-2.0207215446	-0.4202504017	-0.8169113095	 0.116646
H	-0.81857689	-2.5976707202	-0.6763625486	 0.086567
H	 0.377313502	-3.9053893133	 2.4150218611	 0.133712
H	-0.9909274062	-4.5133669264	 1.4496589367	 0.113086
H	 0.5265389427	-4.045354037	 0.6412646317	 0.113899
H	-3.0905079982	-2.8588328287	 1.3355735547	 0.084577
57.0266	84.6567	96.9032	101.7604	170.1451	198.7817	247.8085	263.9286	286.1379	330.0886	420.6131	513.5606	565.7746	746.6568	841.4816	874.1979	949.3778	970.6637	1027.1019	1055.9094	1074.1956	1134.0396	1142.0691	1162.4927	1183.9557	1228.8171	1259.1491	1280.1931	1325.9327	1331.889	1352.9825	1390.5869	1400.1584	1414.2655	1475.6447	1482.3559	1488.9785	1494.4137	1500.182	1507.4542	1510.6834	1836.3127	2859.6875	2976.9557	2984.7797	3019.4798	3028.1808	3028.5874	3032.0034	3067.2499	3082.5818	3102.0299	3104.6271	3121.6806
CCCC(OC)C=O	CCC[C@@H](OC)C=O	
InChI=1S/C6H12O2/c1-3-4-6(5-7)8-2/h5-6H,3-4H2,1-2H3	InChI=1S/C6H12O2/c1-3-4-6(5-7)8-2/h5-6H,3-4H2,1-2H3/t6-/m1/s1
