19
gdb 64221	2.92569	1.29002	1.14347	1.4903	71.41	-0.2513	0.0626	0.3138	1142.6476	0.157096	-460.115991	-460.106864	-460.10592	-460.15074	33.67	
C	-0.0784479457	 1.5864290941	 0.0203294426	-0.471619
C	 0.0191353925	 0.069239478	 0.0143925999	 0.31646
O	-1.1853073432	-0.5293185146	-0.4266615866	-0.473195
C	 1.3096433391	-0.5329223386	-0.6036383231	-0.103689
O	 1.687514885	-1.1303974682	 0.6537904827	-0.291839
C	 0.4968718826	-0.6547295802	 1.3082717872	 0.092665
C	 0.7920132564	 0.1378733731	 2.5536547488	 0.03451
C	 2.0828351731	 0.0066783201	 3.2421641426	-0.171878
O	 1.780604877	 1.1642262835	 2.458382187	-0.235633
H	 0.8266752883	 2.0421720676	 0.4246256937	 0.160567
H	-0.2203207573	 1.954649479	-1.0041866004	 0.105117
H	-0.9338649091	 1.9137735766	 0.6195037011	 0.124106
H	-1.4995487886	-0.0422664575	-1.1960181967	 0.279056
H	 1.1146348767	-1.2857303735	-1.3760943307	 0.099149
H	 2.062437028	 0.1830267696	-0.9538152566	 0.101533
H	-0.1847356955	-1.4787016714	 1.5617025228	 0.087406
H	-0.0877776491	 0.4095329753	 3.1397646238	 0.097867
H	 2.1380139434	 0.1718527327	 4.3168777979	 0.11252
H	 2.8343062164	-0.6509522156	 2.8137691839	 0.136897
21.9072	111.3348	173.6969	232.5274	256.315	263.1064	278.4257	342.7123	367.1908	418.0405	523.4519	625.279	686.3569	785.9977	852.9996	894.8966	901.1285	939.8684	954.8911	983.9748	997.6667	1029.1576	1090.7402	1109.8371	1126.4401	1156.9109	1165.8153	1172.1694	1202.0425	1212.3357	1278.7134	1286.6742	1330.0839	1373.4064	1393.2203	1411.4793	1425.9018	1491.4287	1498.595	1506.7244	1517.1745	3012.0958	3019.8104	3024.5999	3074.092	3091.9661	3094.2414	3101.8397	3144.7446	3197.5757	3805.5354
CC1(O)COC1C1CO1	C[C@@]1(O)CO[C@H]1[C@H]1CO1	
InChI=1S/C6H10O3/c1-6(7)3-9-5(6)4-2-8-4/h4-5,7H,2-3H2,1H3	InChI=1S/C6H10O3/c1-6(7)3-9-5(6)4-2-8-4/h4-5,7H,2-3H2,1H3/t4-,5+,6-/m1/s1
