21
gdb 119351	4.5672	0.82902	0.80363	1.8587	79.84	-0.2316	0.079	0.3105	1510.9559	0.180617	-424.167688	-424.1582	-424.157256	-424.202158	35.733	
C	-0.2130724064	 1.3628081672	 0.0017642323	-0.508849
C	 0.0585806718	-0.1086382797	-0.0022233145	 0.407838
C	 0.6210854687	-1.0139151646	-1.1301846901	-0.304028
C	 0.0990899829	-1.9143157615	 0.0171038813	 0.427534
C	-0.1213006634	-3.3974503891	 0.0458242019	-0.356693
C	-0.8161266188	-3.8737855306	 1.3265448762	-0.063692
O	-1.0263888363	-5.2770088892	 1.3385829625	-0.41838
C	 0.7989055245	-0.9815371056	 1.043505928	-0.296489
O	-1.1033025291	-1.0347487131	 0.1037851522	-0.38033
H	 0.7248564572	 1.9216297048	-0.0764692173	 0.125614
H	-0.8520290282	 1.638593933	-0.8426369501	 0.132206
H	-0.7154431239	 1.6577631087	 0.9280682261	 0.132567
H	 0.0240675713	-1.0382570577	-2.0437155246	 0.099478
H	 1.6976087086	-0.9926609794	-1.3217851266	 0.0894
H	-0.7301789577	-3.6736993088	-0.8258916542	 0.09974
H	 0.8418175196	-3.9104040969	-0.0594294721	 0.11348
H	-0.1836617644	-3.6619290901	 2.1949294239	 0.113676
H	-1.7540472363	-3.3179542116	 1.4639305797	 0.112539
H	-1.6706470581	-5.4826315757	 0.6537766289	 0.281519
H	 1.892212104	-0.9577448424	 1.0552396744	 0.090274
H	 0.3617148442	-0.9715399878	 2.0433166621	 0.102595
76.1643	88.0149	111.6747	194.3652	235.5966	272.1046	300.4595	351.5057	375.5521	404.3556	521.7962	599.4317	624.7179	688.5744	709.6069	773.7916	795.6276	889.8599	942.9799	955.0707	985.5058	1010.141	1030.1538	1072.8215	1082.7937	1091.2814	1111.7419	1129.2602	1154.2666	1170.3791	1194.2621	1223.9123	1271.3006	1308.7546	1327.5334	1373.5313	1403.5173	1416.0845	1423.8628	1465.3443	1469.9184	1477.5146	1489.7192	1513.2162	1524.9829	3012.1642	3019.1224	3038.9833	3050.1734	3060.5796	3064.4812	3086.0934	3113.0246	3114.415	3133.7692	3139.2276	3816.7471
CC12CC(CCO)(C1)O2	C[C@@]12C[C@@](CCO)(C1)O2	
InChI=1S/C7H12O2/c1-6-4-7(5-6,9-6)2-3-8/h8H,2-5H2,1H3	InChI=1S/C7H12O2/c1-6-4-7(5-6,9-6)2-3-8/h8H,2-5H2,1H3/t6-,7+
