22
gdb 15675	2.78887	1.67213	1.10837	0.256	84.53	-0.2235	0.0362	0.2596	1148.2846	0.200694	-313.099791	-313.090942	-313.089998	-313.133002	33.359	
C	-1.5933832225	-0.3382837228	 0.2395586446	-0.382253
C	-0.1243082444	 0.0750699826	 0.1058774939	-0.185776
C	 0.7409877604	-0.3464115026	 1.3039931388	-0.048605
C	 0.841438897	-1.883151901	 1.5002044752	-0.213947
C	 2.2714587274	-2.149026269	 2.0293361401	-0.258775
C	 3.0151422321	-0.9041024705	 1.6161214002	-0.172781
C	 2.2025255984	 0.0795281455	 1.2245196699	 0.336118
C	 2.6078575436	 1.4637687285	 0.8213087553	-0.497941
H	-2.0441556408	 0.0972944648	 1.1387381517	 0.111787
H	-2.1794415379	-0.0032346175	-0.6219770863	 0.109331
H	-1.7004687651	-1.4255111314	 0.3107343387	 0.118455
H	 0.3008053535	-0.3583403602	-0.8097351448	 0.092443
H	-0.0704926922	 1.1639936246	-0.0161536774	 0.092175
H	 0.2979112051	 0.1167204012	 2.2025247295	 0.066935
H	 0.0635476125	-2.2819620873	 2.1562953234	 0.093368
H	 0.7211477123	-2.37011887	 0.5249343761	 0.097657
H	 2.2860586713	-2.2653434152	 3.123048597	 0.100245
H	 2.7055040126	-3.0693253024	 1.6212856391	 0.097222
H	 4.0951084592	-0.8166789243	 1.6856437819	 0.078661
H	 3.6902722138	 1.6001872727	 0.8958007761	 0.119262
H	 2.309510462	 1.6921048305	-0.2091425539	 0.125888
H	 2.1268561617	 2.2192656238	 1.4569292309	 0.120529
93.9966	109.1382	176.8943	190.6556	237.0355	248.9938	287.1913	360.8527	434.8834	525.4921	570.749	663.8476	768.2292	804.1078	838.0091	863.891	929.7083	937.3562	953.4881	988.8248	1020.9493	1037.8976	1048.5669	1076.6525	1112.1626	1136.1136	1176.4331	1206.1526	1242.3155	1275.8118	1280.6134	1314.1661	1323.6933	1348.174	1357.6858	1379.1966	1410.9921	1414.275	1478.2985	1482.6805	1488.7056	1491.9408	1499.0871	1502.6232	1508.0899	1720.9083	2949.8987	2998.1751	3012.941	3015.4872	3029.9388	3031.5936	3049.3841	3050.3779	3061.9647	3093.387	3096.2114	3103.8811	3107.0348	3176.5685
CCC1CCC=C1C	CC[C@H]1CCC=C1C	
InChI=1S/C8H14/c1-3-8-6-4-5-7(8)2/h5,8H,3-4,6H2,1-2H3	InChI=1S/C8H14/c1-3-8-6-4-5-7(8)2/h5,8H,3-4,6H2,1-2H3/t8-/m0/s1
