21
gdb 109898	2.70664	1.42477	1.1956	1.5707	77.92	-0.245	0.0605	0.3055	1140.4037	0.182994	-424.184779	-424.176	-424.175055	-424.218641	33.49	
C	-0.500602237	 1.6570361997	-0.0734569217	-0.251012
O	-0.2182625445	 0.3185958087	 0.3027970588	-0.248735
C	-1.3043472296	-0.5606481619	 0.1131424468	 0.088366
C	-1.3665383686	-1.2241020649	-1.3114466913	 0.096965
O	-0.3406025685	-0.8253845104	-2.1858660126	-0.434366
C	-1.2682437599	-2.6353818686	-0.6463178815	-0.049439
C	 0.1703845219	-3.1884505	-0.5195411161	-0.231098
C	 0.3344230747	-2.4631145224	 0.8515158625	-0.233714
C	-1.1297510307	-1.9482155085	 0.7665224859	-0.069741
H	 0.4004103325	 2.2429651886	 0.1235803244	 0.129141
H	-0.7551365142	 1.735092062	-1.1383597197	 0.126645
H	-1.3304743436	 2.0667083354	 0.5204418834	 0.113516
H	-2.2438562998	-0.0683548576	 0.3988420098	 0.062961
H	-2.3173965017	-1.0688532211	-1.8301767044	 0.077692
H	 0.3620135787	-0.4666325007	-1.6270328207	 0.289397
H	-2.0634019803	-3.3368661671	-0.9012350989	 0.058147
H	 0.2064358837	-4.2770434109	-0.4379506111	 0.097072
H	 0.8466449003	-2.8809782191	-1.3206599564	 0.105753
H	 0.5010620918	-3.1423234394	 1.6903285392	 0.098915
H	 1.0895247403	-1.6760695261	 0.89471444	 0.112581
H	-1.7773863854	-2.1637547458	 1.6168939735	 0.060956
44.3004	109.6779	177.2663	201.5851	243.6714	262.9271	334.783	457.2483	476.1218	536.8001	582.9125	662.9459	728.0877	788.9327	796.7276	850.2027	878.6799	898.0291	959.7798	997.1995	1022.39	1051.1332	1078.0536	1088.6062	1132.7286	1137.4841	1155.8955	1183.3576	1204.4832	1214.5117	1224.887	1242.8465	1260.2051	1266.5693	1291.9724	1303.7335	1321.3407	1337.3474	1379.9547	1434.1456	1477.1391	1481.4484	1490.4234	1496.8223	1510.843	2992.5394	3003.962	3054.8951	3056.6411	3064.1666	3071.9192	3092.7894	3104.683	3109.8529	3118.3781	3129.2582	3749.6709
COC1C(O)C2CCC12	CO[C@H]1[C@@H](O)[C@H]2CC[C@@H]12	
InChI=1S/C7H12O2/c1-9-7-5-3-2-4(5)6(7)8/h4-8H,2-3H2,1H3	InChI=1S/C7H12O2/c1-9-7-5-3-2-4(5)6(7)8/h4-8H,2-3H2,1H3/t4-,5+,6-,7+/m0/s1
