16
gdb 10675	2.49156	2.29252	1.32444	2.022	66.67	-0.2512	-0.0286	0.2226	920.7208	0.127993	-383.763845	-383.755531	-383.754587	-383.797308	29.779	
C	-0.2314660333	 1.4641765039	 0.1256025709	-0.47219
C	 0.3009853156	 0.060213711	-0.0255536726	 0.30498
O	 0.8818651545	-0.5001195204	 0.8815838332	-0.315871
C	 0.1097405937	-0.6723161339	-1.3359875118	 0.134179
C	 1.236797629	-1.6672717466	-1.692559356	-0.279504
C	-0.042878299	-2.2043339386	-1.2055084112	-0.279487
C	-0.5828445205	-0.0869434685	-2.5100946115	 0.093914
O	-1.0752620091	 1.0115966081	-2.5918203207	-0.27718
H	 0.2044823432	 2.1248857692	-0.629023712	 0.153331
H	-1.3101768661	 1.4884602163	-0.0528165136	 0.153316
H	 0.0019726023	 1.8184016162	 1.1303752697	 0.131344
H	 1.4856426773	-1.7609422605	-2.7440157905	 0.131196
H	 2.0721285282	-1.6425346764	-1.00377044	 0.157822
H	-0.091002108	-2.5502882786	-0.1804082442	 0.157815
H	-0.7171707588	-2.6854898515	-1.9055555517	 0.131207
H	-0.618800199	-0.7878715897	-3.3781117179	 0.075128
30.4678	119.2029	174.7848	232.1224	276.0071	292.2411	353.2334	363.3821	484.0522	604.3583	608.2226	696.3885	780.5474	792.8593	930.7182	935.9645	966.1274	1014.2243	1051.2878	1058.7674	1070.8272	1107.873	1177.6041	1211.4981	1285.6446	1339.9499	1391.238	1439.9892	1448.0194	1452.5597	1467.358	1480.3578	1779.4152	1815.4198	2846.5252	3053.8582	3119.6715	3142.7549	3143.3727	3157.9754	3236.5572	3249.2039
CC(=O)C1(CC1)C=O	CC(=O)C1(CC1)C=O	
InChI=1S/C6H8O2/c1-5(8)6(4-7)2-3-6/h4H,2-3H2,1H3	InChI=1S/C6H8O2/c1-5(8)6(4-7)2-3-6/h4H,2-3H2,1H3
