12
gdb 21686	3.7811	1.90991	1.27027	2.825	64.94	-0.2347	-0.022	0.2127	870.4951	0.084009	-377.48585	-377.478892	-377.477948	-377.516809	26.304	
N	 0.0774840438	 1.3455731371	 0.148206053	-0.599011
C	 0.0360744263	-0.0222597637	 0.0439758901	 0.334965
N	-1.0912654142	-0.6966185719	 0.0249403991	-0.219416
O	-0.7103331385	-2.0516855265	-0.0141678787	-0.168082
C	 0.6166123125	-2.1329469945	-0.0284204133	-0.011853
C	 1.1857401461	-0.8935887574	 0.0046580727	-0.003349
C	 2.5403021587	-0.5075919747	-0.0034200681	 0.198904
C	 3.6825534381	-0.1247410144	-0.0181887215	-0.417299
H	 0.9077315587	 1.7741340681	-0.2327948329	 0.26422
H	-0.7785367151	 1.81628993	-0.1057950456	 0.266055
H	 1.0404741672	-3.1246858349	-0.0629685256	 0.160106
H	 4.6953695665	 0.1944925528	-0.0206079591	 0.194761
129.7328	167.2426	292.2419	332.2407	379.2005	489.9223	533.0529	551.0524	565.1324	584.607	598.2889	676.5837	744.0314	757.3947	849.9644	907.4552	922.1362	1130.9178	1182.2912	1224.5509	1307.6822	1449.7157	1550.9805	1631.868	1662.2733	2233.6559	3266.2597	3500.956	3573.5814	3680.8841
NC1=NOC=C1C#C	Nc1nocc1C#C	
InChI=1S/C5H4N2O/c1-2-4-3-8-7-5(4)6/h1,3H,(H2,6,7)	InChI=1S/C5H4N2O/c1-2-4-3-8-7-5(4)6/h1,3H,(H2,6,7)
