19
gdb 97886	7.11887	0.52995	0.49989	1.4163	82.25	-0.2466	0.0157	0.2622	2218.2478	0.156099	-423.038318	-423.027328	-423.026384	-423.077413	36.386	
C	-0.0964151452	 1.6732799709	-0.0653718582	-0.365031
C	 0.0522848402	 0.1447743779	 0.0461063122	-0.313579
C	 0.7200095154	-0.450443117	-1.1064720418	 0.12072
C	 1.2695388957	-0.9296125433	-2.0634699209	 0.055392
C	 1.938666731	-1.4963798452	-3.2223733077	-0.514454
C	 1.886594798	-3.021713492	-3.2926906423	 0.464881
O	 1.3583475416	-3.7604951202	-2.5076492448	-0.338959
O	 2.5403038474	-3.4341552059	-4.3994001534	-0.232586
C	 2.5727248101	-4.8535431656	-4.5954885723	-0.239044
H	 0.8820271076	 2.1538388071	-0.1506601557	 0.126642
H	-0.6824978445	 1.9434819078	-0.9480175046	 0.127062
H	-0.6009867273	 2.0729136009	 0.819305763	 0.114233
H	 0.6103108038	-0.1037247647	 0.9578823114	 0.129663
H	-0.9381505864	-0.3123373902	 0.166147461	 0.131675
H	 1.5091057353	-1.1132820413	-4.157025447	 0.158083
H	 2.996496099	-1.2054197727	-3.2541981509	 0.157874
H	 3.1264891535	-5.0128025559	-5.520767716	 0.133481
H	 3.0745319709	-5.3466531575	-3.7590744671	 0.141907
H	 1.5594868539	-5.2540887629	-4.6814570148	 0.14204
17.7272	25.9309	64.8818	105.6435	150.2938	159.4007	174.2633	254.5574	258.8954	360.3634	386.9973	422.0226	518.074	580.2063	698.8784	767.7371	786.373	895.6844	956.4908	965.1904	1028.1862	1080.7419	1105.1348	1168.1953	1179.8149	1199.5919	1216.4437	1218.5371	1285.9246	1348.046	1361.7051	1408.927	1443.133	1472.4717	1476.6938	1480.7368	1495.22	1498.0878	1506.0503	1840.5458	2380.6302	3022.1489	3027.5681	3044.1452	3049.4759	3051.747	3054.449	3117.4486	3122.9619	3126.3499	3158.9363
CCC#CCC(=O)OC	CCC#CCC(=O)OC	
InChI=1S/C7H10O2/c1-3-4-5-6-7(8)9-2/h3,6H2,1-2H3	InChI=1S/C7H10O2/c1-3-4-5-6-7(8)9-2/h3,6H2,1-2H3
