18
gdb 113615	3.78276	0.67922	0.60479	3.6675	89.16	-0.2463	-0.0636	0.1827	1815.2007	0.145151	-401.895984	-401.886149	-401.885205	-401.932172	33.879	
C	-0.2522512667	 1.6341554366	-0.4684605026	-0.377486
C	-0.07761807	 0.2847631171	 0.2218805155	-0.119301
N	-1.3231629285	-0.4805641692	 0.1412169924	-0.070544
C	-1.5013524384	-1.3342559178	-1.0107915	-0.237644
C	-1.2704658727	-1.9409440638	 0.3501515394	-0.194468
C	-0.0421499187	-2.6249056842	 0.6146662678	 0.151691
C	 0.9724908001	-3.2257656601	 0.8891204684	-0.002973
C	 2.2003045919	-3.9116907914	 1.1826963859	 0.018009
O	 2.2723535163	-5.0091573209	 1.6891183744	-0.233048
H	 0.6611308995	 2.2293600739	-0.3778401566	 0.118969
H	-0.4672152291	 1.5056765008	-1.5343326231	 0.119893
H	-1.0787181709	 2.1931427759	-0.0212717714	 0.131851
H	 0.771180999	-0.2617149831	-0.2187384165	 0.096382
H	 0.1497681171	 0.4279725278	 1.2838893734	 0.114873
H	-2.4994727612	-1.3781868926	-1.4377055086	 0.131443
H	-0.683463086	-1.4193221798	-1.7247784567	 0.125906
H	-2.1321035897	-2.3320472864	 0.8854762148	 0.129906
H	 3.1111587081	-3.3437910128	 0.9018789033	 0.096541
48.6632	65.7985	90.9247	124.9265	162.4879	225.1699	246.5774	268.0002	381.3324	411.4293	503.2622	581.0799	649.1818	731.8211	786.7852	811.9353	882.0281	939.2496	982.5771	1018.2635	1041.4938	1066.7539	1110.9823	1115.3862	1129.5275	1199.8254	1202.453	1308.4272	1319.2555	1369.9586	1385.1241	1410.5077	1422.0427	1488.4773	1489.1199	1501.4175	1517.7952	1760.3822	2307.2379	2913.2868	2980.7862	3041.0148	3064.6377	3096.106	3111.0818	3122.9383	3137.4969	3189.0485
CCN1CC1C#CC=O	CCN1C[C@H]1C#CC=O	
InChI=1S/C7H9NO/c1-2-8-6-7(8)4-3-5-9/h5,7H,2,6H2,1H3	InChI=1S/C7H9NO/c1-2-8-6-7(8)4-3-5-9/h5,7H,2,6H2,1H3/t7-,8?/m1/s1
