13
gdb 132108	3.10871	1.41843	0.97451	4.0597	68.71	-0.2051	-0.0475	0.1575	1082.6715	0.088514	-497.906047	-497.898498	-497.897554	-497.937975	28.818	
N	 0.0642616092	 1.3584741089	 0.1513323201	-0.561689
C	-0.0303953379	 0.0035733705	 0.0571129774	 0.355508
C	-1.2072007627	-0.6966019779	 0.0286843528	 0.103833
F	-2.3684105491	-0.009435021	 0.0364714159	-0.096348
C	-1.1778766498	-2.0955317706	-0.0117075788	-0.136185
C	 0.0115217522	-2.7718363022	-0.0250611098	-0.297206
C	 1.2649313541	-2.078104679	-0.0056957467	 0.421681
O	 2.3878443691	-2.4967338027	-0.0215634542	-0.340618
O	 1.1360693253	-0.6349274064	 0.0350835017	-0.261417
H	 0.9433154437	 1.7666969	-0.1258516195	 0.277706
H	-0.7670126004	 1.8825489187	-0.0708586785	 0.27794
H	-2.1227530361	-2.6292945147	-0.0333867891	 0.130936
H	 0.0608050624	-3.8512320837	-0.0561960413	 0.125859
115.9133	186.746	269.8866	322.1448	352.3575	395.9472	426.9444	442.4471	468.9003	498.984	599.1973	682.4299	723.1789	732.6894	774.0832	808.7611	839.2118	975.7194	1032.7468	1085.781	1167.1018	1266.7327	1292.1848	1437.7213	1471.5359	1571.0146	1633.1881	1690.2191	1862.1466	3189.1714	3233.7996	3591.5983	3712.8101
NC1=C(F)C=CC(=O)O1	Nc1c(F)ccc(=O)o1	
InChI=1S/C5H4FNO2/c6-3-1-2-4(8)9-5(3)7/h1-2H,7H2	InChI=1S/C5H4FNO2/c6-3-1-2-4(8)9-5(3)7/h1-2H,7H2
