14
gdb 7224	5.20334	1.19956	0.98132	2.6371	65.98	-0.2524	-0.0585	0.194	1117.9123	0.104756	-378.710928	-378.702222	-378.701278	-378.744806	30.987	
N	-0.0046451461	 1.3390386908	 0.1589121048	-0.537324
C	 0.0810779676	-0.0159898929	 0.0481597035	 0.274792
N	 1.111534057	-0.7706375151	-0.0460590646	-0.511681
C	-1.2923802192	-0.6793355776	 0.0683563307	 0.380384
O	-2.2904428976	 0.0011815051	 0.0715646149	-0.301693
C	-1.2965069471	-2.2043702339	 0.0780320785	-0.489469
C	-2.624103203	-2.7917749133	 0.0434473436	 0.319681
C	-3.7167677436	-3.288319135	 0.01452371	-0.418981
H	 0.7927081377	 1.9169841482	-0.0429803231	 0.255829
H	-0.926542036	 1.7390976052	 0.0706958	 0.274106
H	 1.9801898986	-0.2320952793	-0.0581869613	 0.209424
H	-0.6775194868	-2.543143482	-0.7609375155	 0.176661
H	-0.7363337173	-2.5271813359	 0.9648602073	 0.171803
H	-4.6839385841	-3.7254468243	-0.011595439	 0.196467
38.6866	79.4729	125.5083	258.2449	283.6003	320.1426	380.4746	397.6197	407.6966	516.9165	543.4624	620.4877	623.6219	646.9767	677.3246	824.2926	872.829	952.8391	966.827	1063.1837	1105.0825	1145.1275	1195.6773	1333.6186	1416.1045	1431.2681	1600.513	1719.9518	1807.4346	2250.7523	3043.7091	3070.3071	3449.1292	3507.7059	3585.4085	3720.3714
NC(=N)C(=O)CC#C	NC(=N)C(=O)CC#C	
InChI=1S/C5H6N2O/c1-2-3-4(8)5(6)7/h1H,3H2,(H3,6,7)	InChI=1S/C5H6N2O/c1-2-3-4(8)5(6)7/h1H,3H2,(H3,6,7)
