20
gdb 81646	3.65814	1.27651	1.21779	1.6028	79.37	-0.2363	0.0244	0.2608	1136.588	0.172079	-403.159061	-403.150914	-403.149969	-403.191332	32.026	
C	-0.133430832	 1.4830730084	-0.0016096488	-0.429224
C	 0.0171180553	-0.0322668963	 0.0375618909	 0.014401
C	 1.1648411711	-0.6225586972	-0.8289424967	 0.109042
C	 2.1154239953	-0.4105407881	 0.3728837348	-0.259493
C	 0.8344489626	-0.632316863	 1.2323529933	-0.003655
N	 0.5670596109	-2.0720204035	 1.3044659785	-0.30128
C	 0.638095103	-2.663407488	 0.1801076861	 0.384477
C	 0.4099846169	-4.1307277542	-0.0027277655	-0.466856
O	 0.9348692897	-2.0361711168	-0.998509201	-0.276749
H	 0.813847814	 2.0094177507	 0.1493067754	 0.1186
H	-0.5411649457	 1.8083675569	-0.9652036122	 0.119245
H	-0.8228014294	 1.8181173252	 0.7804817378	 0.124376
H	-0.9542578821	-0.5105824728	-0.1207001824	 0.079568
H	 1.3921038561	-0.225503938	-1.8190097514	 0.080387
H	 2.9346501648	-1.1203353666	 0.5013611791	 0.107455
H	 2.4916788478	 0.6115957229	 0.4166532881	 0.108658
H	 0.7557580155	-0.1783109557	 2.220986102	 0.068969
H	-0.4106730549	-4.3035376333	-0.7064073373	 0.137789
H	 1.3023042995	-4.6049260867	-0.424129337	 0.137998
H	 0.1723070916	-4.583628164	 0.9590704863	 0.146294
133.7292	157.609	187.6642	235.1597	291.4243	344.6603	353.1421	444.6066	465.7686	516.9833	647.4095	665.6967	801.8214	840.4973	858.4571	868.3239	879.2245	931.5856	971.4597	1022.0464	1045.8683	1059.1602	1070.2383	1079.3967	1095.6372	1132.5258	1154.7725	1179.9128	1233.649	1245.5135	1266.6926	1278.9918	1323.6526	1344.1635	1387.1114	1409.1279	1415.2809	1475.7175	1476.0514	1482.4663	1498.0994	1503.1058	1721.4707	3032.5465	3046.7912	3058.6791	3079.8022	3094.2088	3098.2893	3103.2201	3107.161	3108.0156	3144.2199	3165.3111
CC1C2CC1N=C(C)O2	C[C@H]1[C@H]2C[C@@H]1[N][C](C)O2	
InChI=1S/C7H11NO/c1-4-6-3-7(4)9-5(2)8-6/h4,6-7H,3H2,1-2H3	InChI=1S/C7H11NO/c1-4-6-3-7(4)9-5(2)8-6/h4,6-7H,3H2,1-2H3/t4-,6+,7-/m1/s1
