21
gdb 91425	2.44416	1.71055	1.32482	2.7108	76.72	-0.2472	0.059	0.3062	1042.4461	0.185238	-424.219601	-424.211755	-424.210811	-424.251495	32.458	
O	-0.3965780294	 1.2294437907	 1.0932222999	-0.444869
C	-0.030427422	 0.2032657731	 0.1533952705	 0.088273
C	 1.0919465882	-0.6999320324	 0.7142494036	-0.255416
C	 0.5464398722	-1.9980053401	 1.3304577575	-0.004174
C	-0.1894633616	-2.806620867	 0.2267375503	-0.226643
C	-1.4250098456	-1.9192544577	 0.5357643784	-0.025923
C	-0.8564342557	-1.780698821	 1.9754656202	-0.246472
C	-1.3079876679	-0.6062239954	-0.2583041116	 0.126492
O	-2.4593719089	 0.1975239886	-0.1263669624	-0.448269
H	-0.3335073258	 0.8667006391	 1.981906504	 0.288617
H	 0.3284576127	 0.764136395	-0.7137028656	 0.092028
H	 1.8007226458	-0.9538262911	-0.0827804707	 0.107344
H	 1.6568959614	-0.1120536224	 1.4478303829	 0.101789
H	 1.3119852717	-2.5096046458	 1.9187190839	 0.062709
H	 0.2246065692	-2.7735672835	-0.7870953826	 0.086893
H	-0.350039453	-3.848590582	 0.5151813958	 0.0972
H	-2.4241158941	-2.3393808957	 0.405752014	 0.071405
H	-1.1367105431	-2.6353786997	 2.5968848264	 0.103016
H	-1.0681234939	-0.8699439592	 2.5447847687	 0.070297
H	-1.2143945509	-0.8733551524	-1.3211518847	 0.072722
H	-2.2036511593	 0.9109335588	 0.4769849415	 0.282981
108.4096	189.9259	261.0307	318.5463	347.3593	373.9778	433.6429	450.7551	459.8435	555.5696	594.0251	710.8722	762.0583	811.8646	830.7649	857.7599	907.1807	916.9192	919.0827	944.803	994.3035	1025.0337	1059.8169	1071.2312	1085.8303	1102.8023	1124.5706	1129.4426	1163.1024	1202.1328	1244.8612	1251.5544	1259.1703	1275.6181	1288.4689	1317.9214	1335.2417	1358.6807	1372.0028	1391.1485	1427.422	1449.8347	1481.4613	1488.7968	1515.6372	2992.3997	3026.8139	3037.3239	3044.9977	3061.1839	3073.3767	3075.3679	3090.1652	3095.2085	3101.9224	3709.6133	3831.1003
OC1CC2CC(C2)C1O	O[C@H]1C[C@@H]2C[C@@H](C2)[C@H]1O	
InChI=1S/C7H12O2/c8-6-3-4-1-5(2-4)7(6)9/h4-9H,1-3H2	InChI=1S/C7H12O2/c8-6-3-4-1-5(2-4)7(6)9/h4-9H,1-3H2/t4-,5+,6-,7+/m0/s1
