21
gdb 79926	2.47532	1.41505	1.18746	1.6933	84.52	-0.2179	0.016	0.2339	1176.1277	0.181698	-387.097583	-387.088477	-387.087532	-387.130644	35.559	
C	 0.0761343112	 1.4668766135	-0.0010690068	-0.4889
C	 0.0325368529	-0.0284104841	-0.0385826376	 0.290903
C	 0.0090196643	-0.818705675	-1.1225561994	-0.196307
C	 0.0207434951	-2.2657773697	-0.7764083462	-0.178645
C	 1.2425354636	-2.7358780822	 0.000050056	 0.08407
O	 2.4364317176	-2.0181552451	 0.0361451306	-0.430401
C	 0.0109228402	-2.3185919751	 0.7627182411	 0.28553
C	-0.7857179516	-3.3369200242	 1.5412315295	-0.487264
C	 0.0057190653	-0.8594252725	 1.2330467396	-0.371736
H	 0.971986197	 1.8316625335	 0.5171473103	 0.127469
H	 0.0686354432	 1.8964274595	-1.0066232833	 0.124377
H	-0.7835650616	 1.8708658324	 0.5491582899	 0.126945
H	 0.0128803441	-0.459422696	-2.146608446	 0.090786
H	-0.5192232887	-2.9796084667	-1.3906930402	 0.080177
H	 1.4464878487	-3.8028964522	-0.0313709426	 0.096326
H	 2.2588238581	-1.1481422888	-0.3451777381	 0.280513
H	-0.7186391629	-4.3289840531	 1.0826453179	 0.114298
H	-0.4192147326	-3.4252065243	 2.5711168749	 0.119451
H	-1.8471590904	-3.0649475143	 1.5879743421	 0.114106
H	 0.8745524181	-0.6424043728	 1.8699961674	 0.116076
H	-0.8854211418	-0.6322216927	 1.8347366111	 0.102227
125.9971	177.3196	196.3397	205.8567	242.0012	261.175	305.2053	332.3023	365.7421	431.3104	527.9137	539.2519	593.1843	664.6568	762.4641	805.6202	859.4604	870.3505	881.7737	946.7837	955.752	999.377	1005.3377	1044.8544	1057.5382	1078.4719	1112.9331	1147.2577	1180.7861	1200.2343	1215.3251	1264.3953	1311.5208	1316.3949	1342.3561	1379.5777	1415.722	1416.9386	1447.6915	1471.3169	1478.7335	1489.5009	1490.9021	1500.5531	1695.8389	3004.6088	3016.5439	3018.0356	3034.035	3061.3807	3075.5687	3092.3429	3109.6077	3143.7778	3156.226	3183.4184	3746.6636
CC1=CC2C(O)C2(C)C1	CC1=C[C@H]2[C@@H](O)[C@@]2(C)C1	
InChI=1S/C8H12O/c1-5-3-6-7(9)8(6,2)4-5/h3,6-7,9H,4H2,1-2H3	InChI=1S/C8H12O/c1-5-3-6-7(9)8(6,2)4-5/h3,6-7,9H,4H2,1-2H3/t6-,7+,8-/m0/s1
