15
gdb 16439	3.4816	2.26132	1.72498	3.2737	60.73	-0.2223	0.0671	0.2894	766.2181	0.118867	-399.689827	-399.683059	-399.682115	-399.720344	26.663	
O	-0.0505250193	 1.4812601477	-0.0933249709	-0.447823
C	 0.0385277233	 0.0737022878	-0.0401626325	 0.023334
C	 0.0367171246	-0.617059754	 1.3387085861	-0.122862
C	-1.485491922	-0.3369569498	 1.5715787543	-0.090586
N	-1.8658905009	-1.7661526312	 1.8232604897	-0.34366
C	-0.7833379043	-1.8381375887	 0.7867682269	-0.074209
C	-1.333562616	-0.6051515897	 0.0195010221	 0.417715
O	-2.3054097855	-0.6579907192	-0.946040131	-0.468478
H	 0.8342041297	 1.8497785958	-0.0118948868	 0.28732
H	 0.7438517883	-0.3231762223	-0.7836152039	 0.069346
H	 0.811314274	-0.6557627274	 2.102587419	 0.077638
H	-1.9500791297	 0.5090596752	 2.0752808641	 0.08829
H	-1.4965613979	-2.0670781388	 2.7298088292	 0.203908
H	-0.4066085912	-2.770853421	 0.3665597935	 0.085087
H	-2.5219293533	 0.2471980354	-1.1978274798	 0.29498
199.9774	204.6817	273.2433	286.4033	342.7845	382.7108	557.1229	569.6203	670.622	745.6788	809.1744	846.6435	872.9937	900.7283	915.232	956.7873	991.1812	1031.0536	1068.3878	1092.3725	1107.7724	1118.4905	1157.4583	1168.9031	1198.2525	1241.4911	1272.3013	1290.824	1309.2365	1315.8931	1398.4706	1462.6027	3009.6513	3115.2994	3129.2195	3141.9281	3393.3377	3801.4265	3826.4086
OC1C2C3NC2C13O	O[C@H]1[C@H]2[C@@H]3N[C@H]2[C@]13O	
InChI=1S/C5H7NO2/c7-4-1-2-5(4,8)3(1)6-2/h1-4,6-8H	InChI=1S/C5H7NO2/c7-4-1-2-5(4,8)3(1)6-2/h1-4,6-8H/t1-,2-,3+,4-,5-/m0/s1
