18
gdb 103800	2.79729	1.12782	0.9996	4.9486	68.25	-0.2618	0.0071	0.2689	1238.9719	0.145492	-476.213329	-476.20368	-476.202736	-476.248054	35.291	
C	-0.5485735694	 1.7725677705	 0.819597834	-0.44625
C	-0.1520998311	 0.5732427954	-0.0339875628	 0.350148
C	-1.3975696374	-0.2143321086	-0.5047267054	-0.2035
N	-1.005977287	-1.1620109959	-1.5580096755	-0.534609
H	-0.7573135429	-2.0641517917	-1.1665295724	 0.244209
H	-1.7714893091	-1.324999668	-2.2007894087	 0.246413
H	 0.4225610167	 0.3441536368	-1.8367924874	 0.287061
O	 0.5606409851	 1.0360002669	-1.1665264638	-0.456
C	 0.798500161	-0.3701043567	 0.7059294826	-0.168938
C	 1.3279954528	-0.1438779331	 2.0356342444	 0.498528
O	 0.2827462148	-0.976585149	 2.0245193141	-0.247971
O	 2.0667367864	 0.3358485041	 2.830705336	-0.339507
H	 0.3373844636	 2.348031323	 1.0994511559	 0.146997
H	-1.2166658267	 2.425469972	 0.2525996891	 0.123799
H	-1.058709973	 1.4508945754	 1.7322470441	 0.131571
H	-1.8916520508	-0.6822336017	 0.3565758893	 0.118026
H	-2.0937674246	 0.5088148832	-0.93975201	 0.116701
H	 1.2756696115	-1.1213062024	 0.0790275966	 0.133323
50.9511	104.08	145.8434	207.5566	225.9148	243.9085	257.5082	309.6055	365.3751	413.713	472.0623	546.7505	563.4566	641.6594	689.2282	711.6757	770.8059	846.9804	923.5446	926.5636	978.3914	987.614	1069.7487	1096.6789	1120.1417	1135.991	1170.0787	1220.73	1271.1977	1327.8291	1341.0365	1390.4839	1413.6612	1446.9674	1484.8146	1493.5391	1499.0554	1661.3459	2017.9434	3022.8895	3049.9333	3089.4767	3126.9488	3130.8386	3137.8806	3519.6683	3598.8513	3642.8835
CC1(C[NH3+])OC1C([O-])=O	C[C@@](CN)(O)[C@H]1C(=O)O1	
InChI=1S/C5H9NO3/c1-5(2-6)3(9-5)4(7)8/h3H,2,6H2,1H3,(H,7,8)	InChI=1S/C5H9NO3/c1-5(8,2-6)3-4(7)9-3/h3,8H,2,6H2,1H3/t3-,5+/m1/s1
