21
gdb 57557	3.87071	0.68096	0.66323	4.9616	80.7	-0.2424	0.0271	0.2696	1758.4199	0.180076	-420.414827	-420.403994	-420.40305	-420.450979	39.027	
C	 0.0065454745	 1.572339766	 0.143520684	-0.413399
C	 0.0267378586	 0.0443397469	 0.0189702793	 0.317523
C	 0.6594327285	-0.605688161	 1.2550029935	-0.413751
O	-1.3079493765	-0.4567924726	-0.1627677727	-0.465433
C	 0.7685400411	-0.4081834268	-1.2490381826	-0.123941
N	 0.1149243793	 0.1186955112	-2.4405057545	-0.304481
C	 0.6966824899	-0.3875245208	-3.6730152592	-0.257305
C	-0.0068037561	 0.1398244588	-4.8466202327	 0.255991
N	-0.5697120369	 0.5372385051	-5.7734580194	-0.30004
H	 1.0168177696	 1.9670938645	 0.2910314219	 0.11666
H	-0.4114143296	 2.0240384958	-0.7576343207	 0.142334
H	-0.5941375807	 1.875485352	 1.0093839161	 0.1013
H	 0.1230429345	-0.3044397241	 2.1614322702	 0.108351
H	 0.6133561789	-1.6956128549	 1.1794195329	 0.123806
H	 1.7058788489	-0.3053222809	 1.3723846988	 0.115909
H	-1.8722019438	-0.0576553864	 0.5070423666	 0.281895
H	 1.8014599812	-0.0398466413	-1.2157424647	 0.103132
H	 0.8157101404	-1.5127233516	-1.2452463524	 0.086075
H	-0.8702259216	-0.1220002395	-2.3897166019	 0.243304
H	 1.7451777224	-0.0675904808	-3.7319338904	 0.152169
H	 0.7061553675	-1.4912733593	-3.7514213819	 0.129902
51.3781	92.3643	101.2817	163.2791	216.34	223.897	247.8912	259.7924	295.0468	344.5152	351.6827	395.5301	416.0158	463.2827	516.1618	597.5018	773.6047	823.6193	907.3051	916.8868	935.2091	962.5778	982.0038	996.458	1039.1508	1094.355	1157.5204	1164.0665	1191.1202	1214.8097	1256.1712	1300.2103	1351.046	1372.862	1397.9735	1407.8517	1425.3293	1479.0354	1481.4554	1488.6901	1489.2081	1499.8972	1507.0067	1512.5251	2368.6635	2926.6101	2933.0688	3029.1589	3034.4778	3040.2412	3046.4247	3093.7129	3102.056	3117.4677	3141.2828	3527.9011	3819.4293
CC(C)(O)CNCC#N	CC(C)(O)CNCC#N	
InChI=1S/C6H12N2O/c1-6(2,9)5-8-4-3-7/h8-9H,4-5H2,1-2H3	InChI=1S/C6H12N2O/c1-6(2,9)5-8-4-3-7/h8-9H,4-5H2,1-2H3
