18
gdb 70057	3.12613	1.62126	1.28656	3.6611	75.71	-0.2339	0.0094	0.2432	1011.756	0.14883	-401.908681	-401.901379	-401.900435	-401.940038	29.392	
C	-0.0134507438	 1.6011865017	 0.1422261277	-0.484899
C	 0.0250627476	 0.0966372219	 0.0157306779	 0.300871
C	-0.8185549495	-0.7415971907	 0.9515729208	-0.336228
C	 0.6804852934	-0.8237776833	 1.0999330374	-0.032653
N	 1.2302693409	-2.0312863219	 0.4862649458	-0.296523
C	 1.1010778122	-1.8045409781	-0.7525619627	 0.398809
O	 0.8514576775	-2.584091292	-1.8527957735	-0.265912
C	-0.0708822936	-1.5184709096	-2.3183818703	-0.129634
C	 0.5343709272	-0.5241685023	-1.2691819824	-0.210806
H	 0.9052493595	 2.0568959733	-0.2447056146	 0.118624
H	-0.8569305251	 2.0280395529	-0.4135203872	 0.120695
H	-0.1215635714	 1.9096917397	 1.1866999782	 0.120427
H	-1.3722356678	-0.1848236694	 1.7011664516	 0.115568
H	-1.324704774	-1.6335199226	 0.5951518086	 0.120086
H	 1.1743174189	-0.4337552439	 1.9824010248	 0.095188
H	 0.1011218279	-1.2892379044	-3.3706955251	 0.129563
H	-1.1039408136	-1.8235834019	-2.135814824	 0.131864
H	 1.2658548938	 0.1247565706	-1.7599984231	 0.104959
172.1157	204.0426	219.8607	257.4289	319.0563	447.549	480.9864	509.6422	589.1697	662.6664	697.2925	755.5007	793.7948	847.0789	876.2299	924.8316	948.2835	958.2604	1010.2461	1026.5013	1048.7954	1060.578	1083.4343	1105.7264	1123.0694	1148.6387	1159.9617	1205.7557	1238.2155	1283.1617	1311.7608	1350.8504	1394.3285	1422.1263	1475.3076	1491.6255	1499.2677	1500.5446	1737.121	3021.8277	3064.4868	3068.807	3080.2618	3098.7776	3121.0097	3144.0371	3180.8074	3207.8479
CC12CC1N=C1OCC21	C[C@]12C[C@H]1[N][C]1OC[C@@H]21	
InChI=1S/C7H9NO/c1-7-2-5(7)8-6-4(7)3-9-6/h4-5H,2-3H2,1H3	InChI=1S/C7H9NO/c1-7-2-5(7)8-6-4(7)3-9-6/h4-5H,2-3H2,1H3/t4-,5-,7-/m1/s1
