16
gdb 60710	3.75889	0.62533	0.5763	1.8114	79.12	-0.2599	-0.0395	0.2204	1858.606	0.12119	-400.741679	-400.731521	-400.730577	-400.779958	33.742	
C	-0.1668078782	 1.338380815	 0.9021980957	-0.399135
C	-0.0816178538	 0.2114286625	-0.1560265044	-0.219056
C	 1.0597891184	-0.7383635526	 0.2274937826	 0.170649
O	 2.1167396903	-0.7800638693	-0.339152903	-0.236216
C	-1.3294108113	-0.5377181514	-0.2531041689	 0.10587
C	-2.3407010684	-1.1870343058	-0.3056249835	 0.052313
C	-3.5770699248	-1.961161163	-0.3873448798	-0.472471
C	-4.4688886001	-1.7422943149	 0.7595840165	 0.279666
N	-5.1763910926	-1.5775272656	 1.6568080808	-0.297181
H	 0.7679684904	 1.9047999688	 0.9215588682	 0.138225
H	-0.9878801058	 2.0173255276	 0.6617813253	 0.143652
H	-0.3498137189	 0.9237720631	 1.8976903488	 0.139188
H	 0.1798819897	 0.6426245733	-1.1284715541	 0.130203
H	 0.8337982437	-1.3808018104	 1.107477226	 0.092606
H	-4.1269236502	-1.7091186448	-1.3032507927	 0.185978
H	-3.3556350482	-3.0343861125	-0.4501339875	 0.185711
9.0485	49.248	70.3618	114.858	173.3669	223.2299	273.9452	304.2366	336.4199	373.6582	447.4004	458.1481	510.1319	607.9853	787.0012	885.0785	920.0256	934.6433	939.1576	1048.6213	1084.3858	1124.4551	1177.4806	1234.2163	1267.1606	1325.1608	1338.6486	1400.1666	1417.2938	1446.6924	1492.3119	1497.1703	1841.4108	2369.6711	2376.8764	2889.2229	3026.7941	3047.3995	3056.6515	3057.2766	3125.5854	3133.814	9.0502	49.2508	70.3622	114.8585	173.367	223.2298	273.9462	304.237	336.4201	373.6583	447.4005	458.1484	510.1321	607.9854	787.0012	885.0785	920.0256	934.6435	939.1576	1048.6212	1084.3857	1124.4551	1177.4807	1234.2165	1267.1605	1325.1607	1338.6486	1400.1664	1417.2933	1446.6926	1492.3117	1497.1701	1841.4114	2369.6708	2376.8763	2889.2229	3026.7941	3047.3995	3056.6515	3057.2766	3125.5854	3133.814
CC(C=O)C#CCC#N	C[C@@H](C=O)C#CCC#N	
InChI=1S/C7H7NO/c1-7(6-9)4-2-3-5-8/h6-7H,3H2,1H3	InChI=1S/C7H7NO/c1-7(6-9)4-2-3-5-8/h6-7H,3H2,1H3/t7-/m1/s1
