14
gdb 29249	3.2882	1.4152	0.99063	4.0603	68.59	-0.2063	-0.0321	0.1741	1094.7048	0.104031	-470.104416	-470.096826	-470.095882	-470.136367	29.078	
N	-0.0010573929	 1.4409667405	 0.1551277355	-0.589629
C	-0.0611828457	 0.0526839178	 0.0528403856	 0.131883
C	-1.179916163	-0.7033794607	 0.0346816183	-0.053615
N	-1.1206351998	-2.0897331658	-0.0142623197	-0.380776
C	 0.0451777806	-2.8221806811	-0.0280802622	 0.485332
O	 0.0881987322	-4.0336179902	-0.0578467435	-0.397364
N	 1.1778330383	-2.0136590027	-0.0057229036	-0.433903
C	 1.2440559826	-0.6247484001	 0.0161147073	 0.43174
O	 2.3085902979	-0.0320881163	-0.0020382237	-0.38459
H	 0.9322549571	 1.7684540219	-0.0656160252	 0.265602
H	-0.7129978363	 1.9446062896	-0.3536927501	 0.247986
H	-2.1771782814	-0.2823390567	 0.0552531954	 0.129247
H	-1.9665660777	-2.6356280192	-0.0267083424	 0.273706
H	 2.0614512682	-2.5044966069	-0.0309071416	 0.27438
116.216	164.2452	262.5353	311.2567	349.4916	391.708	395.9185	464.9518	538.1741	542.5679	623.429	683.4451	701.0939	746.0372	759.5132	794.9226	830.7242	859.0245	972.1668	1100.4945	1199.4629	1220.6361	1286.1983	1387.9218	1409.7878	1432.0315	1501.9965	1625.8418	1717.8998	1775.6147	1831.8355	3210.8013	3535.2462	3614.343	3645.0118	3661.8102
NC1=CNC(=O)NC1=O	Nc1c[nH]c(=O)[nH]c1=O	
InChI=1S/C4H5N3O2/c5-2-1-6-4(9)7-3(2)8/h1H,5H2,(H2,6,7,8,9)	InChI=1S/C4H5N3O2/c5-2-1-6-4(9)7-3(2)8/h1H,5H2,(H2,6,7,8,9)
