19
gdb 114570	2.66327	1.19851	0.96255	3.5697	81.65	-0.2367	0.016	0.2528	1281.3749	0.159843	-382.046171	-382.037415	-382.036471	-382.079773	32.927	
C	 0.0784338484	 1.5312315956	 0.0713084175	-0.387091
C	-0.180149347	 0.0309974173	-0.0971805266	-0.180233
C	 0.6454345859	-0.5696367511	-1.2232094699	-0.018643
N	 2.1408242866	-0.5699169261	-1.0166255308	-0.33462
C	 2.2002417333	-1.9937017583	-1.3722492977	-0.050564
C	 1.4820542429	-2.7878253056	-0.3430239575	-0.309419
C	 0.6615951693	-2.1016539194	-1.4290058612	 0.158146
C	-0.1946985374	-2.8122390746	-2.3128567728	 0.186885
N	-0.8956575691	-3.3749449746	-3.044031173	-0.357662
H	 1.1353770632	 1.7159842303	 0.2871133348	 0.131377
H	-0.184821601	 2.085393916	-0.8367840302	 0.113677
H	-0.5117599023	 1.9433934754	 0.8946116682	 0.118717
H	 0.0498196612	-0.49071756	 0.8382025004	 0.102251
H	-1.2405686462	-0.1517502087	-0.3127299337	 0.109825
H	 0.3881954753	-0.0918238594	-2.1756019001	 0.092425
H	 2.5980775015	 0.0056488131	-1.7150145265	 0.231811
H	 2.9388114544	-2.4017812839	-2.0510336604	 0.121479
H	 1.5309196881	-3.8655725839	-0.4531131766	 0.140538
H	 1.4357870229	-2.4223508419	 0.6780238863	 0.131101
82.3467	122.263	160.5995	167.2131	222.8794	269.2632	370.4769	451.4467	466.127	501.0309	572.4093	619.2701	720.9438	771.9886	813.0241	832.9754	891.5516	895.4686	965.2189	977.3165	998.8653	1042.8315	1059.316	1087.6384	1102.708	1130.4619	1147.208	1211.0618	1218.8714	1270.6417	1305.4155	1335.0331	1365.2365	1398.2801	1407.844	1416.3463	1475.7289	1483.3969	1499.0831	1509.9367	2337.6307	3031.5791	3034.0002	3038.2157	3074.1246	3104.086	3114.4417	3128.7674	3195.8959	3226.4546	3537.9106
CCC1NC2CC12C#N	CC[C@H]1N[C@H]2C[C@@]12C#N	
InChI=1S/C7H10N2/c1-2-5-7(4-8)3-6(7)9-5/h5-6,9H,2-3H2,1H3	InChI=1S/C7H10N2/c1-2-5-7(4-8)3-6(7)9-5/h5-6,9H,2-3H2,1H3/t5-,6+,7-/m1/s1
