19
gdb 35551	2.52746	1.55676	1.42263	3.0823	77.92	-0.2222	0.0277	0.2499	1019.8935	0.162302	-382.073563	-382.065857	-382.064913	-382.106134	29.694	
N	-0.0185656782	-1.1414718927	 0.481395244	-0.341137
C	-0.0212381782	-0.0043951989	 0.2674012933	 0.278754
C	-0.0270464211	 1.431460952	-0.0087993465	-0.16206
C	-0.7278756908	 2.2536336604	 1.1096167913	-0.25193
C	 0.4069401906	 2.6720181233	 2.0691509396	 0.038596
C	 0.8512270989	 1.6680909207	 3.1637566092	-0.250594
C	 2.1148299382	 1.4072811558	 2.3070045135	-0.177764
N	 1.7041907933	 2.4728315957	 1.3435825787	-0.082713
C	 1.411528212	 2.0543064646	-0.0168741266	-0.197036
H	-0.5218936203	 1.5728843382	-0.9742328568	 0.12492
H	-1.1824064814	 3.1381177196	 0.6536275985	 0.114034
H	-1.5207592764	 1.6939689004	 1.6103202939	 0.127844
H	 0.2565593879	 3.698127412	 2.4185153907	 0.079319
H	 1.0409163111	 2.1205007598	 4.1385657216	 0.109449
H	 0.1950689961	 0.8056155412	 3.2962233943	 0.120673
H	 3.0726807373	 1.6291018466	 2.7876409806	 0.105906
H	 2.1673228557	 0.4038367019	 1.8719095521	 0.124653
H	 2.1720820649	 1.3650382686	-0.3913659094	 0.127587
H	 1.3923353601	 2.9277964108	-0.6801441921	 0.1115
64.4002	122.8124	185.2807	240.0955	345.088	374.8473	456.7213	546.8953	654.0706	684.0634	751.9441	761.8443	791.5842	832.7174	870.2928	906.5206	948.8623	952.8255	970.9852	992.4506	1072.1688	1081.7906	1094.3685	1140.8501	1165.2753	1196.1375	1218.9354	1225.3023	1258.9302	1262.408	1280.1615	1312.2606	1324.4841	1341.1594	1361.842	1370.2213	1478.1221	1486.7412	1493.3991	1517.1397	2344.4089	3026.7677	3038.4924	3045.6461	3061.7635	3073.8846	3077.2561	3081.7474	3107.6253	3116.9122	3131.6563
N#CC1CC2CCN2C1	N#C[C@H]1C[C@H]2CCN2C1	
InChI=1S/C7H10N2/c8-4-6-3-7-1-2-9(7)5-6/h6-7H,1-3,5H2	InChI=1S/C7H10N2/c8-4-6-3-7-1-2-9(7)5-6/h6-7H,1-3,5H2/t6-,7-/m1/s1
