15
gdb 131882	2.66319	1.67115	1.0333	4.4213	75.65	-0.2427	-0.0725	0.1702	1080.9746	0.113253	-453.915585	-453.907723	-453.906779	-453.948331	28.8	
C	-0.030800387	 1.5664929334	 0.0923317653	-0.492797
C	-0.0130338394	 0.0728760411	 0.0301194268	 0.219641
C	 0.0291003238	-0.7311930972	-1.1038076447	 0.34442
N	 0.0326231996	-2.0510724689	-0.7353878503	-0.297604
C	-0.0067041476	-2.123309087	 0.6174926262	-0.062789
C	-0.0353463951	-0.831104576	 1.118538055	-0.226223
N	 0.0655970005	-0.4051323697	-2.4781598006	 0.351343
O	 0.0986014825	-1.347272617	-3.2797364286	-0.409762
O	 0.0624273527	 0.7845258796	-2.7909063309	-0.389575
H	 0.8541932359	 1.9948228454	-0.3873115797	 0.149414
H	-0.8951489451	 1.9761262579	-0.4385570464	 0.149397
H	-0.0648539783	 1.9040670812	 1.131092071	 0.119813
H	 0.0587830196	-2.7966415574	-1.4122230176	 0.288422
H	-0.0111812002	-3.0742430681	 1.1258701964	 0.143277
H	-0.0687882219	-0.5603001573	 2.1628533381	 0.113024
93.8208	112.9019	185.6863	203.3274	270.3732	334.1537	453.1367	551.6684	552.8675	636.0454	664.9059	675.2204	754.9642	791.1097	835.1725	853.1617	914.8654	995.7322	1061.7744	1085.0268	1098.3298	1188.8563	1250.0154	1312.3066	1396.296	1412.5171	1423.5995	1471.1853	1476.8698	1485.176	1521.6223	1578.7177	1607.9805	3046.4792	3105.1588	3125.4334	3249.4482	3271.7161	3664.8182
CC1=C(NC=C1)N(=O)=O	Cc1c([nH]cc1)N(=O)=O	
InChI=1S/C5H6N2O2/c1-4-2-3-6-5(4)7(8)9/h2-3,6H,1H3	InChI=1S/C5H6N2O2/c1-4-2-3-6-5(4)7(8)9/h2-3,6H,1H3
