16
gdb 105776	2.2528	1.504	1.18776	3.8492	64.79	-0.2819	0.0065	0.2885	1076.8204	0.124268	-475.018851	-475.010356	-475.009412	-475.052606	30.446	
O	 0.0764823769	 1.3260909938	 0.1689307027	-0.409846
C	-0.0117237059	-0.0667425425	 0.0343996041	-0.086759
C	-1.4705651869	-0.5346108535	-0.1160388485	 0.174692
C	-1.6257711023	-2.0793679259	 0.0319639052	-0.171059
O	-2.0002313373	-2.2326708334	 1.3885118486	-0.225087
C	-2.8114584278	-1.1222828398	 1.6549060286	 0.011661
O	-2.1964953524	-0.0159857116	 1.0070299065	-0.289986
C	-2.0687425292	-0.0424562352	-1.3682108688	 0.277102
N	-2.5314778645	 0.3050454909	-2.3678878804	-0.328792
H	-0.4996015491	 1.5719995337	 0.9031241912	 0.298413
H	 0.5636165148	-0.3458427639	-0.8537568032	 0.128443
H	 0.4019947514	-0.6013851365	 0.903905665	 0.106468
H	-2.3976219243	-2.4626227906	-0.6475996791	 0.129203
H	-0.6894769156	-2.6149233575	-0.1369412654	 0.14038
H	-3.8307508432	-1.2666390718	 1.2595170543	 0.108634
H	-2.8355122245	-0.9397367562	 2.7314796693	 0.136532
55.9321	110.0692	168.7657	178.1045	229.4456	299.6467	366.3766	420.482	457.3174	516.7262	566.5598	676.2333	735.7682	782.6828	895.36	944.0433	977.9477	1034.8452	1064.6354	1091.2686	1112.938	1144.8591	1169.3653	1195.9163	1225.0474	1251.6201	1280.6101	1361.3113	1387.5624	1413.91	1436.1744	1492.8112	1508.6977	1540.7275	2360.1528	2969.8242	2986.4255	3027.2467	3088.9147	3111.8287	3118.1301	3791.0713
OCC1(COCO1)C#N	OC[C@]1(COCO1)C#N	
InChI=1S/C5H7NO3/c6-1-5(2-7)3-8-4-9-5/h7H,2-4H2	InChI=1S/C5H7NO3/c6-1-5(2-7)3-8-4-9-5/h7H,2-4H2/t5-/m0/s1
