23
gdb 57535	3.23969	0.98584	0.94353	3.1715	82.02	-0.2453	0.064	0.3093	1402.5345	0.204281	-425.419105	-425.409084	-425.40814	-425.45414	37.921	
C	-0.229220694	 1.464312223	 0.1592950467	-0.412664
C	 0.0141607278	-0.0448861009	-0.0211053365	 0.36167
C	 0.719423249	-0.6183718746	 1.2106443736	-0.392642
O	-1.2350653668	-0.7294789218	-0.1011584226	-0.477188
C	 0.8514977094	-0.3515346053	-1.2891329346	-0.246816
C	 0.3190955519	 0.2736565474	-2.5709833257	 0.143997
C	 0.6895395447	-0.3968057378	-3.9144635113	-0.303351
C	-0.8257129142	-0.6370150969	-4.0660979581	-0.061677
O	-1.0983923081	-0.0085797662	-2.7928825926	-0.30074
H	 0.7109471359	 2.0263929993	 0.1984819156	 0.100224
H	-0.8367386717	 1.8649007741	-0.6576250327	 0.120336
H	-0.7732031951	 1.6375281389	 1.0919905012	 0.117592
H	 0.0749408893	-0.5068190309	 2.0873682956	 0.12015
H	 0.9225941116	-1.6846853448	 1.0744305352	 0.112744
H	 1.6650053384	-0.1025898761	 1.4050586747	 0.102582
H	-1.5858588696	-0.5651664964	-0.9883219296	 0.285196
H	 1.8846771072	-0.0064734831	-1.151528207	 0.095096
H	 0.8827048597	-1.4420266887	-1.4008348994	 0.098118
H	 0.4751587126	 1.3590143911	-2.5645311583	 0.085559
H	 1.1387629971	 0.2598483472	-4.6605217495	 0.114358
H	 1.2948563407	-1.3000067619	-3.8185617701	 0.114803
H	-1.3129190689	-0.1011345055	-4.8887109109	 0.109536
H	-1.1494451268	-1.6835851903	-4.0819134234	 0.113118
55.435	80.0184	137.0681	181.9062	218.0854	260.209	290.0122	318.1309	352.472	396.5441	442.9073	470.5478	524.1562	557.7389	756.8346	767.0957	802.0509	854.0759	898.7782	919.2441	929.0976	949.2913	978.7721	1000.4818	1010.3894	1025.8789	1077.9288	1109.9734	1159.8256	1171.0721	1195.701	1221.6202	1242.1337	1260.6735	1276.6472	1300.2797	1320.7243	1367.4255	1393.3278	1398.3712	1414.537	1446.3726	1462.5792	1478.6255	1489.4776	1492.6081	1502.3765	1510.106	1532.3273	3019.3316	3024.6427	3029.0207	3032.534	3039.8586	3069.2436	3070.3204	3081.4792	3101.4073	3113.035	3113.1983	3117.3613	3137.0407	3718.6331
CC(C)(O)CC1CCO1	CC(C)(O)C[C@H]1CCO1	
InChI=1S/C7H14O2/c1-7(2,8)5-6-3-4-9-6/h6,8H,3-5H2,1-2H3	InChI=1S/C7H14O2/c1-7(2,8)5-6-3-4-9-6/h6,8H,3-5H2,1-2H3/t6-/m1/s1
