22
gdb 8405	3.44416	1.57992	1.36733	0.0893	82.64	-0.2458	0.0862	0.332	1040.7934	0.199493	-313.056286	-313.047451	-313.046507	-313.08921	33.936	
C	-0.0613959204	 1.5180602419	 0.0438714097	-0.452715
C	-0.0204870286	 0.0016866384	 0.0263747122	 0.281352
C	-1.264570214	-0.6517903493	-0.5451107763	-0.452714
C	 1.315083992	-0.6692453886	-0.2301465565	-0.392105
C	 0.7011827258	-0.7022432445	 1.1454225676	 0.355963
C	 1.3313009773	-0.1074803876	 2.4156324756	-0.293199
C	 1.2231730924	-1.514850488	 3.0726718399	-0.20977
C	 0.2963299034	-1.9739886751	 1.9089551681	-0.293198
H	 0.850858734	 1.942288867	 0.4735202593	 0.113778
H	-0.1693609041	 1.9197646169	-0.9708420892	 0.111609
H	-0.9094268558	 1.8852653502	 0.6349106883	 0.109979
H	-1.4259190723	-0.3461506882	-1.5858877427	 0.111608
H	-1.192709263	-1.7432497845	-0.5269904255	 0.113778
H	-2.1586817288	-0.3678092864	 0.0234347281	 0.10998
H	 1.3238998047	-1.5890071508	-0.8087987746	 0.101198
H	 2.1846180721	-0.0367468242	-0.3874194994	 0.101198
H	 2.3357928435	 0.3149259596	 2.3221512231	 0.095162
H	 0.6896865307	 0.6349218156	 2.9022458413	 0.097226
H	 2.1786725651	-2.0449995684	 3.0738847453	 0.103157
H	 0.8038261799	-1.5558725513	 4.0803764259	 0.095326
H	-0.7617923137	-1.9827297477	 2.1916621244	 0.097225
H	 0.5347972199	-2.933060735	 1.4404636854	 0.095162
73.0438	163.1847	173.9228	205.9968	208.9302	267.3778	352.3598	411.1746	416.1784	423.0538	553.967	687.5052	718.3327	795.5115	862.5155	885.5018	899.6407	925.5629	941.2893	946.9905	970.6582	999.5763	1026.722	1053.6388	1065.5014	1126.7915	1155.0787	1176.2782	1197.2493	1213.4715	1247.051	1254.6047	1274.3685	1283.1604	1303.682	1407.895	1408.6795	1424.1589	1477.8757	1478.9551	1481.781	1487.084	1492.3075	1500.4373	1506.5838	1516.4299	3016.7088	3020.8641	3037.392	3041.4511	3063.8267	3073.1869	3075.9376	3084.0793	3088.2148	3101.2437	3102.518	3109.0361	3118.6197	3191.9499
CC1(C)CC11CCC1	CC1(C)CC21CCC2	
InChI=1S/C8H14/c1-7(2)6-8(7)4-3-5-8/h3-6H2,1-2H3	InChI=1S/C8H14/c1-7(2)6-8(7)4-3-5-8/h3-6H2,1-2H3
