18
gdb 33827	4.39057	1.07758	0.99716	1.9623	85.11	-0.2397	0.0322	0.2719	1227.3755	0.147028	-364.719342	-364.711251	-364.710307	-364.751748	32.141	
C	 0.0314569696	-1.1969757192	 0.0777773072	-0.400343
C	 0.0455462573	 0.0050142842	 0.0336949593	 0.242205
C	 0.0324755658	 1.4262267266	-0.0686961366	 0.141353
C	-0.7111815695	 2.2363559667	-1.1591510053	-0.382473
C	 0.4486102421	 3.2554079083	-1.1275119201	 0.373365
C	 1.0856735592	 3.9102989477	-2.3130548557	-0.327978
C	 0.4020871631	 4.7520352896	-1.2556595523	-0.328006
C	 1.1579909311	 2.4461543625	-0.0601281629	-0.183087
N	 0.3129661288	 2.255318755	 1.1094887418	-0.350487
H	 0.0265576048	-2.2573201141	 0.1311070427	 0.187827
H	-0.7745032389	 1.6989871866	-2.1082170226	 0.121732
H	-1.709145481	 2.5884358649	-0.8762523446	 0.10092
H	 2.1698856501	 3.9359636917	-2.3593931171	 0.118194
H	 0.6017817963	 3.8054882981	-3.2787652209	 0.116466
H	-0.5479710199	 5.2110116403	-1.5099485414	 0.116292
H	 1.0236783917	 5.3478449872	-0.5948995306	 0.118035
H	 2.2259908878	 2.2897383963	 0.0440588122	 0.10529
H	-0.3699879984	 3.0041261075	 1.2192888869	 0.230696
87.9106	142.7328	211.4276	260.8124	293.6484	397.6371	442.3348	498.4151	522.3175	569.6431	597.8924	642.7918	653.8718	775.2718	788.6925	837.4161	861.8939	906.761	927.4727	968.8086	980.5344	1014.7007	1046.2725	1052.9412	1079.7992	1093.9343	1127.2251	1146.3761	1187.0244	1212.023	1231.501	1243.4467	1282.5941	1392.0011	1407.2859	1464.629	1484.3785	1505.3794	2239.3562	3042.7496	3109.3556	3123.56	3127.2061	3179.5048	3201.8886	3216.4035	3454.3421	3503.8192
C#CC12CC3(CC3)C1N2	C#C[C@]12CC3(CC3)[C@H]1N2	
InChI=1S/C8H9N/c1-2-8-5-7(3-4-7)6(8)9-8/h1,6,9H,3-5H2	InChI=1S/C8H9N/c1-2-8-5-7(3-4-7)6(8)9-8/h1,6,9H,3-5H2/t6-,8+/m1/s1
