21
gdb 78375	2.84434	1.41455	1.207	1.6388	81.86	-0.2392	0.0716	0.3108	1144.0708	0.182592	-387.034903	-387.026619	-387.025674	-387.067296	32.946	
C	 0.1605896802	 1.5943635816	 0.4170653509	-0.42727
C	 0.1826516262	 0.0877602152	 0.2612931052	-0.006602
C	 1.519815312	-0.568961483	 0.1185836777	-0.076735
C	 0.717819485	-0.70176001	 1.4334529018	-0.090002
C	 0.674228562	-2.2419382739	 1.2751641759	-0.108501
C	-0.4584067378	-2.9365228416	 0.4853956103	 0.140858
C	-1.9199963505	-2.56359316	 0.6279957621	-0.415959
O	 0.1620861179	-2.5352300081	-0.778079132	-0.323731
C	 1.3627209503	-2.0900735935	-0.0894773898	 0.100493
H	 1.0105216324	 1.9475813552	 1.0110931219	 0.113729
H	 0.2075809484	 2.0901555449	-0.5583655545	 0.120806
H	-0.7556650472	 1.9259022658	 0.9174586138	 0.118022
H	-0.6267154239	-0.3160263968	-0.3352956733	 0.102237
H	 2.4230485828	-0.0051101835	-0.0852716333	 0.079164
H	 0.8988789144	-0.2053758727	 2.3800777194	 0.083464
H	 1.1348702182	-2.7875210188	 2.0980615846	 0.073799
H	-0.3599778187	-4.0283636342	 0.5864242318	 0.071703
H	-2.4902815326	-2.9548310211	-0.2209267918	 0.127949
H	-2.3243787704	-3.0161249554	 1.5401991152	 0.115485
H	-2.0772199355	-1.485386062	 0.6850720495	 0.126417
H	 2.2533844571	-2.6464408781	-0.3909836558	 0.074675
142.8627	182.1492	189.2949	220.4534	243.0602	271.69	370.3632	396.1586	517.7413	587.161	662.3534	752.4564	773.7946	800.3115	842.0464	859.4319	892.6933	925.7126	938.3923	966.8193	991.3177	1007.2134	1029.0506	1056.271	1091.7782	1100.2635	1113.1546	1147.4846	1161.2616	1186.1514	1202.7547	1219.3494	1260.4546	1276.2573	1295.2947	1325.0446	1337.3583	1393.9049	1407.7483	1416.3606	1426.1884	1485.8804	1494.5637	1496.8772	1502.0176	2976.256	3027.6877	3040.8952	3077.9125	3092.8009	3094.7743	3101.9774	3115.5204	3138.4851	3167.6783	3176.3947	3179.1101
CC1C2C1C1C(C)OC21	C[C@H]1[C@H]2[C@@H]1[C@H]1[C@@H](C)O[C@@H]21	
InChI=1S/C8H12O/c1-3-5-6(3)8-7(5)4(2)9-8/h3-8H,1-2H3	InChI=1S/C8H12O/c1-3-5-6(3)8-7(5)4(2)9-8/h3-8H,1-2H3/t3-,4-,5-,6+,7-,8+/m1/s1
