13
gdb 132290	2.00154	1.92259	0.98667	5.8717	62.59	-0.2767	-0.0632	0.2135	1087.6872	0.089791	-494.118829	-494.111316	-494.110372	-494.151691	26.796	
C	-0.0193747853	 1.5041679198	-0.0019264032	-0.492115
C	 0.0001608437	 0.0075887292	-0.0549054767	 0.416466
N	-0.0241491675	-0.612822578	-1.2074783617	-0.352091
C	-0.0015943022	-1.9650084606	-1.0992207582	 0.342854
F	-0.0264269342	-2.5679039601	-2.2662004809	-0.039704
N	 0.0393304664	-2.7243961536	-0.0569179099	-0.368338
C	 0.0657777479	-2.1048286552	 1.1743015517	 0.444931
O	 0.1047646082	-2.6436588137	 2.2505098669	-0.361301
N	 0.0433061565	-0.6750145763	 1.1049306648	-0.359503
H	 0.8761947281	 1.8821928209	 0.5022300781	 0.159058
H	-0.0577833481	 1.8985374745	-1.0161884474	 0.174688
H	-0.890360056	 1.857459954	 0.5598777463	 0.158823
H	 0.0621107125	-0.1976329908	 1.9960364303	 0.27623
61.299	134.095	196.2338	199.7702	299.8198	398.155	531.3632	563.8736	605.804	617.8059	646.0552	699.1076	783.6252	818.4568	928.6364	994.0776	1033.6246	1065.9213	1067.5122	1192.5287	1278.7279	1403.6815	1416.3732	1456.4078	1481.8829	1494.5147	1597.9065	1664.5015	1850.8222	3047.4886	3107.0255	3172.2828	3604.2507
CC1=NC(F)=NC(=O)N1	Cc1nc(F)nc(=O)[nH]1	
InChI=1S/C4H4FN3O/c1-2-6-3(5)8-4(9)7-2/h1H3,(H,6,7,8,9)	InChI=1S/C4H4FN3O/c1-2-6-3(5)8-4(9)7-2/h1H3,(H,6,7,8,9)
