20
gdb 76688	3.16425	1.03916	0.95206	3.6043	74.9	-0.2251	0.0464	0.2716	1309.7346	0.171065	-440.224606	-440.215531	-440.214587	-440.258576	34.484	
O	-0.4727167481	 1.4542076293	-0.2327361064	-0.422396
C	-0.253004231	 0.0715094832	-0.2027535327	 0.080594
C	-0.3564250943	-0.602154772	 1.1468728079	 0.004759
O	-0.7271867439	 0.2425399439	 2.2124189404	-0.424002
C	-1.4145854004	-0.8585476066	 0.1008754605	-0.071205
C	-2.8258898174	-0.3131502446	 0.2329890786	-0.253276
C	-3.5058027648	-0.1596056173	-1.1136221983	 0.034383
C	-4.361602212	 1.0208473567	-1.3900244254	-0.247693
N	-3.0533334556	 0.8807643414	-2.0485344168	-0.318079
H	-0.6480365641	 1.7139787266	 0.6833730566	 0.285789
H	 0.5063999083	-0.2330318287	-0.9157770033	 0.103642
H	 0.3213884039	-1.4079965311	 1.4197658857	 0.095665
H	 0.078929289	 0.5118386151	 2.6663938311	 0.298659
H	-1.3520203917	-1.8387383529	-0.3660823469	 0.091978
H	-3.4174000835	-0.9800039343	 0.8731295106	 0.103346
H	-2.8020279565	 0.6556648823	 0.7391409091	 0.099537
H	-3.7558068432	-1.098991615	-1.6064933385	 0.081889
H	-5.2213268796	 0.9369766523	-2.0497941608	 0.110194
H	-4.4756187476	 1.7570146004	-0.596999955	 0.102919
H	-2.3551076374	 1.4614448014	-1.5860275063	 0.243296
84.3356	96.6033	130.2079	213.8238	227.1152	283.4456	312.5644	377.7911	423.5279	514.2168	541.2467	611.122	652.1809	763.222	796.2801	801.1448	835.0628	907.026	930.0665	958.0891	985.6167	1028.7989	1053.8415	1068.2217	1103.1173	1117.9901	1134.6401	1148.2235	1158.7614	1198.8185	1231.6164	1252.8403	1273.8594	1282.3024	1309.5409	1322.8886	1338.1371	1381.4279	1409.8505	1429.5673	1471.2435	1479.4155	1513.3283	3030.7077	3089.0066	3097.5814	3108.3237	3120.7304	3136.8439	3162.1668	3179.661	3481.0372	3724.5052	3805.1245
OC1C(O)C1CC1CN1	O[C@H]1[C@@H](O)[C@H]1C[C@H]1CN1	
InChI=1S/C6H11NO2/c8-5-4(6(5)9)1-3-2-7-3/h3-9H,1-2H2	InChI=1S/C6H11NO2/c8-5-4(6(5)9)1-3-2-7-3/h3-9H,1-2H2/t3-,4-,5+,6-/m0/s1
