20
gdb 31024	2.48387	1.22955	0.87486	1.3256	84.83	-0.1735	0.0442	0.2178	1375.9211	0.170294	-403.19315	-403.183275	-403.182331	-403.228153	36.056	
C	 0.2766750273	 1.6247138266	-0.2043874883	-0.361886
C	-0.098103777	 0.1558661096	 0.0580892023	-0.304852
C	 0.6385258939	-0.4473035196	 1.2178372641	 0.211387
C	 0.1336000489	-0.812455675	 2.4262429354	 0.238309
C	-1.2149700335	-0.7899072204	 3.0482517068	-0.494844
O	 1.1524411466	-1.3123063382	 3.2215636823	-0.213243
C	 2.2943562912	-1.2497448357	 2.4980849342	 0.366884
N	 3.4156529951	-1.7909690515	 3.1164358539	-0.595642
C	 2.0561581863	-0.7288019356	 1.2648259317	-0.372431
H	 1.3483354487	 1.728961292	-0.4012927151	 0.117217
H	-0.265311928	 2.0202004668	-1.0696138662	 0.107089
H	 0.0387236953	 2.2483392571	 0.6630341498	 0.116514
H	-1.1779850919	 0.0828380748	 0.22788881	 0.097469
H	 0.1060688462	-0.4303750898	-0.8475622517	 0.103884
H	-1.5399685138	-1.7923521466	 3.3530421654	 0.130923
H	-1.2437115814	-0.1542545944	 3.9421927655	 0.127997
H	-1.9482658078	-0.4004928662	 2.3383942732	 0.131364
H	 3.4095620275	-1.6470275138	 4.1187708705	 0.252267
H	 4.278959367	-1.4500433185	 2.7163027424	 0.252498
H	 2.7799357492	-0.5670332717	 0.4813781438	 0.089097
48.6997	126.7854	137.7295	181.11	196.0292	202.8371	262.5968	276.4928	309.9333	418.3332	489.8636	582.1607	635.4035	650.6244	683.8228	724.3904	741.4083	783.0769	801.6676	954.0758	969.3491	1036.1525	1041.5708	1061.9824	1082.5624	1106.1272	1151.5255	1200.3632	1233.525	1299.2603	1339.3945	1365.2724	1407.157	1416.1084	1453.1411	1470.8513	1482.0765	1495.5167	1495.7713	1507.2429	1617.2615	1662.8518	1687.3138	3017.0064	3019.3085	3033.9068	3060.4266	3061.1346	3104.1854	3108.9436	3124.1715	3249.8598	3540.2923	3641.632
CCC1=C(C)OC(N)=C1	CCc1c(C)oc(N)c1	
InChI=1S/C7H11NO/c1-3-6-4-7(8)9-5(6)2/h4H,3,8H2,1-2H3	InChI=1S/C7H11NO/c1-3-6-4-7(8)9-5(6)2/h4H,3,8H2,1-2H3
