19
gdb 95392	2.20009	1.72553	1.154	1.0772	78.25	-0.2264	-0.0558	0.1706	1111.8811	0.160726	-419.253564	-419.244843	-419.243899	-419.286669	33.525	
C	-0.1507186356	 1.5470083495	 0.0603342981	-0.406642
C	 0.0331913699	 0.0153874344	 0.0046525093	-0.087165
C	 0.802348618	-0.4647149301	-1.2358344433	-0.242967
C	 2.2715164971	-0.0295999939	-1.1865348675	-0.151898
N	 2.965552095	-0.3159677781	 0.0576499914	-0.289425
C	 2.294280031	-0.4879651517	 1.1349754226	 0.26232
N	 2.9016733838	-0.711940318	 2.3394871784	-0.539834
C	 0.7768157461	-0.4351804353	 1.2455195812	 0.356794
O	 0.2295540686	-0.7223280888	 2.2888492681	-0.334789
H	 0.8075358247	 2.0740783928	 0.1024992879	 0.134302
H	-0.6877464767	 1.8928029067	-0.8282895381	 0.122901
H	-0.7289425101	 1.829304401	 0.9442064822	 0.136333
H	-0.9582618052	-0.4474293754	 0.045242238	 0.096138
H	 0.7605383613	-1.5605577913	-1.2774036014	 0.106148
H	 0.3238762231	-0.0930611437	-2.1495117016	 0.098811
H	 2.82623353	-0.5171531947	-1.996824344	 0.10726
H	 2.3564145456	 1.0489330342	-1.3884754572	 0.109177
H	 3.8687438165	-0.9902212007	 2.3228862513	 0.255697
H	 2.3099689471	-1.069902567	 3.0721800447	 0.266838
68.7664	163.5564	203.8516	232.7378	280.836	329.039	344.7657	392.4141	447.1205	468.2538	529.3802	534.4353	554.1876	667.8318	690.2071	810.8708	851.0476	888.4096	933.1291	971.0092	999.0218	1015.0579	1091.337	1127.1697	1185.9378	1206.5577	1237.1419	1252.9207	1326.4644	1339.3482	1373.5439	1382.4272	1391.8403	1411.0033	1480.0373	1493.4601	1496.3375	1510.1514	1591.773	1714.9247	1791.6524	2994.5937	3021.2131	3040.4091	3044.9865	3056.7381	3065.9931	3111.4376	3120.1565	3592.7427	3722.1608
CC1CCN=C(N)C1=O	C[C@H]1CCN=C(N)C1=O	
InChI=1S/C6H10N2O/c1-4-2-3-8-6(7)5(4)9/h4H,2-3H2,1H3,(H2,7,8)	InChI=1S/C6H10N2O/c1-4-2-3-8-6(7)5(4)9/h4H,2-3H2,1H3,(H2,7,8)/t4-/m0/s1
