22
gdb 66151	3.87156	0.77737	0.71954	0.6808	83.12	-0.232	0.0902	0.3222	1653.004	0.192651	-404.298123	-404.288401	-404.287457	-404.333642	35.844	
C	 0.3113480444	 1.4593835287	-0.6163179472	-0.462123
C	-0.0272294371	 0.0643803496	-0.1335551483	 0.425806
C	-1.4786776757	-0.3714153769	-0.2275290264	-0.259127
C	-2.4138937196	 0.4362583351	 0.6781387085	-0.145285
N	-3.7790639267	-0.0701569875	 0.5794123726	-0.061735
C	-4.1359399634	-1.1383997053	 1.5095070976	-0.221826
C	-4.6611149093	 0.241791948	 1.6977021522	-0.222432
C	 1.0263564148	-0.9621977198	-0.119593879	-0.231097
O	 0.625122282	-0.318238377	 1.0919611448	-0.278541
H	 1.3811806365	 1.6528025511	-0.5074427431	 0.125835
H	 0.0390435157	 1.5808998292	-1.6702648353	 0.121795
H	-0.2274857923	 2.2191629644	-0.0415129655	 0.129528
H	-1.8250961939	-0.291064294	-1.2646823093	 0.10776
H	-1.546916362	-1.4279708705	 0.0529238179	 0.102918
H	-2.0310306393	 0.4043047496	 1.713771884	 0.096821
H	-2.4313136897	 1.488238602	 0.3707614724	 0.102012
H	-4.7722069937	-1.9231480774	 1.1105089575	 0.11531
H	-3.3758991722	-1.4787819982	 2.2117194521	 0.113526
H	-4.250924489	 0.8184925544	 2.5255901571	 0.109434
H	-5.6877019822	 0.4847111527	 1.4382938436	 0.115367
H	 0.7585521362	-2.0152168318	-0.2017896127	 0.108368
H	 2.0276079965	-0.7137973166	-0.4709324533	 0.107687
48.772	62.4975	119.2247	136.6352	201.831	250.8267	332.1752	357.0912	378.9839	389.3999	468.5289	500.3104	725.3427	775.3432	783.0501	839.6681	851.4768	900.7764	915.2671	936.3323	991.3032	1017.7166	1034.2408	1066.2369	1089.4986	1109.4175	1114.7421	1118.4706	1135.5263	1163.7342	1174.9075	1185.8372	1238.5899	1284.3545	1308.1751	1320.038	1329.7107	1391.6739	1411.277	1425.1105	1470.6711	1488.2152	1490.9323	1498.9309	1501.2294	1523.7178	1531.5238	2946.2773	3035.9824	3040.3986	3051.2908	3075.2211	3085.4937	3091.9519	3096.4426	3103.114	3124.2777	3159.6275	3175.1266	3189.5268
CC1(CCN2CC2)CO1	C[C@@]1(CCN2CC2)CO1	
InChI=1S/C7H13NO/c1-7(6-9-7)2-3-8-4-5-8/h2-6H2,1H3	InChI=1S/C7H13NO/c1-7(6-9-7)2-3-8-4-5-8/h2-6H2,1H3/t7-/m1/s1
