20
gdb 94866	2.88442	1.7009	1.34764	1.2471	79.31	-0.2233	0.0644	0.2877	1015.9817	0.173064	-403.038551	-403.031163	-403.030219	-403.070027	30.211	
C	-0.123768342	 1.6025581717	-0.1756084034	-0.404607
C	-0.0156754458	 0.1006153038	 0.0456736497	 0.093693
O	 0.5815958356	-0.5204373702	-1.1299766202	-0.292443
C	 1.3814925972	-1.6698437302	-0.7802452135	-0.214567
C	 1.9162898523	-1.2225758873	 0.559438617	 0.274959
C	 2.3960842103	-1.5148057877	 2.0088185507	-0.258212
N	 1.9956004089	-0.0155272363	 2.0835098186	-0.176976
C	 2.7179049814	 0.0873352721	 0.7322016161	-0.189385
C	 0.7596118426	-0.4978876939	 1.2369224558	 0.000306
H	 0.8483369403	 2.0854593692	-0.2888283012	 0.130005
H	-0.7059886756	 1.7992876474	-1.0803976483	 0.128987
H	-0.6389002464	 2.064649365	 0.672144158	 0.124944
H	-1.0388592623	-0.2940142703	 0.1401462045	 0.07689
H	 0.7686121033	-2.5812695115	-0.7069298708	 0.09399
H	 2.1198743027	-1.7943079841	-1.5762549829	 0.112475
H	 1.7841440376	-2.1670180654	 2.6364104716	 0.107959
H	 3.4641395236	-1.672133916	 2.1781294593	 0.105953
H	 3.8050634561	 0.0033453013	 0.8184500308	 0.095429
H	 2.443367855	 0.956473117	 0.1401914592	 0.114757
H	 0.097584725	-1.0867034646	 1.8769893692	 0.075843
139.9722	203.5582	208.0029	296.6268	335.8767	424.2736	470.0281	526.6756	588.9052	657.9454	738.3875	764.9215	804.2726	832.9036	878.5726	904.2393	919.0897	952.3447	982.2546	994.0426	1025.6436	1046.7702	1067.3105	1104.7779	1114.3164	1152.3611	1163.6392	1174.5135	1190.527	1200.4455	1234.6683	1246.3803	1300.3143	1340.8327	1357.5144	1385.286	1400.0937	1421.1177	1483.3874	1496.9059	1503.1359	1516.5294	1558.5598	2974.3348	2988.2166	3050.0559	3056.4264	3063.2659	3070.17	3095.7965	3116.7026	3129.1159	3137.5927	3176.6014
CC1OCC23CN(C2)C13	C[C@H]1OC[C@@]23CN(C2)[C@@H]13	
InChI=1S/C7H11NO/c1-5-6-7(4-9-5)2-8(6)3-7/h5-6H,2-4H2,1H3	InChI=1S/C7H11NO/c1-5-6-7(4-9-5)2-8(6)3-7/h5-6H,2-4H2,1H3/t5-,6+/m1/s1
