15
gdb 12038	3.8866	1.80708	1.57129	4.1306	64.85	-0.264	0.0088	0.2729	842.3993	0.117944	-362.630264	-362.623008	-362.622064	-362.661459	27.46	
C	-0.0649666295	 1.5716085059	 0.0146099471	-0.440975
C	 0.0633426637	 0.0575406097	 0.0833347729	 0.240891
O	 1.0852842218	-0.4778884349	-0.810905027	-0.313328
C	 1.6680320595	-1.2257306544	 0.2683148107	 0.111272
C	 2.220446172	-0.2996488193	 1.2977315152	-0.317491
C	 0.7387175291	-0.6207296641	 1.2909541999	-0.148677
C	-1.2273169817	-0.5873221144	-0.2201499608	 0.277847
N	-2.2485453819	-1.0820613894	-0.4376579531	-0.334363
H	 0.8805665707	 2.0428350225	 0.2886232959	 0.132581
H	-0.3297046026	 1.8789246166	-1.000727646	 0.150337
H	-0.8476033611	 1.9164997843	 0.6963723771	 0.142178
H	 1.9821344313	-2.2417811716	 0.0667865511	 0.121187
H	 2.7587120154	-0.7721123822	 2.1137422022	 0.128441
H	 2.5974437086	 0.6740947428	 1.0015826683	 0.125913
H	 0.2130370148	-1.0624968615	 2.1250409965	 0.124186
144.4254	169.3483	212.2369	237.9879	304.33	431.8605	476.2068	512.5788	572.0421	648.5242	764.1307	802.2761	861.7418	882.9674	944.6569	964.3601	978.7264	1029.9295	1047.0503	1063.3556	1085.0342	1114.6137	1164.3323	1206.093	1229.4959	1285.0075	1348.2699	1409.3254	1469.9235	1480.102	1489.1626	2356.2877	3052.3173	3125.3593	3127.0858	3142.1694	3200.0931	3213.5244	3224.3073
CC1(OC2CC12)C#N	C[C@]1(O[C@H]2C[C@@H]12)C#N	
InChI=1S/C6H7NO/c1-6(3-7)4-2-5(4)8-6/h4-5H,2H2,1H3	InChI=1S/C6H7NO/c1-6(3-7)4-2-5(4)8-6/h4-5H,2H2,1H3/t4-,5+,6+/m1/s1
