18
gdb 107816	3.43885	1.47791	1.27874	2.4382	75.5	-0.2243	0.0065	0.2308	1016.6772	0.148759	-401.890155	-401.88272	-401.881776	-401.921919	29.768	
O	-0.0535164185	 1.4097743016	 0.1093281516	-0.423151
C	 0.0273926928	-0.0008853141	-0.0454375718	-0.202738
C	-1.3826539465	-0.5351569098	-0.0576138942	 0.286934
C	-2.2258605261	-0.4804589119	 1.2702309221	-0.163921
N	-2.7127078451	-1.8764465971	 1.0917200005	-0.165805
C	-3.0781695472	-2.0918641	-0.3929868857	-0.062302
C	-3.3273796189	-0.9195231729	-1.2680395633	-0.095851
C	-2.3234439176	-0.0435614311	-1.1323943916	-0.141115
C	-1.667168722	-2.067287711	 0.0413854301	-0.117657
H	 0.8385918985	 1.7683180485	 0.0934335836	 0.291368
H	 0.5369556929	-0.2719919414	-0.9843478137	 0.091317
H	 0.5916470148	-0.4621589674	 0.7817361431	 0.086566
H	-1.5806626752	-0.4731258372	 2.1527277028	 0.112259
H	-2.9934609068	 0.2939385589	 1.3554728666	 0.104448
H	-3.6124567347	-3.0262601302	-0.5117246488	 0.096989
H	-4.2246112414	-0.7941280515	-1.8604271205	 0.100816
H	-2.2582091208	 0.9528388087	-1.5501955132	 0.113128
H	-0.9600532683	-2.8921997523	 0.0386633922	 0.088716
91.0033	171.6365	247.9877	299.7969	372.3855	394.7707	415.6659	556.8094	642.4008	675.3067	716.5566	755.2057	792.139	817.0481	854.0992	897.1518	925.9443	952.4127	972.5219	1001.7256	1028.9003	1035.0192	1071.8732	1079.3369	1104.4795	1148.3807	1179.5082	1194.2828	1232.0227	1250.0207	1266.5796	1282.5309	1293.3543	1362.5155	1385.3518	1465.3801	1488.5263	1521.2094	1635.6801	2960.0197	2989.1807	3050.5263	3111.7601	3144.0912	3194.4137	3207.5611	3230.5469	3831.8944
OCC12CN3C(C=C1)C23	OC[C@@]12CN3[C@@H](C=C1)[C@@H]23	
InChI=1S/C7H9NO/c9-4-7-2-1-5-6(7)8(5)3-7/h1-2,5-6,9H,3-4H2	InChI=1S/C7H9NO/c9-4-7-2-1-5-6(7)8(5)3-7/h1-2,5-6,9H,3-4H2/t5-,6-,7-,8?/m0/s1
