20
gdb 101560	3.31186	0.78562	0.70666	5.2053	73.34	-0.2498	0.0271	0.2769	1634.3685	0.168931	-477.450678	-477.439958	-477.439014	-477.487839	37.6	
C	-0.1168086233	 1.6547004868	 0.0725457188	-0.38952
C	 0.0211504236	 0.128671629	-0.0073048948	 0.046945
C	-1.3319604255	-0.5808676998	-0.012399005	-0.095377
O	-1.9848965366	-0.2376990871	-1.230951975	-0.4267
N	 0.7555192506	-0.2852916564	-1.1991390895	-0.319898
C	 2.0875704831	-0.5003603783	-1.216354045	 0.396266
O	 2.8103775274	-0.4010751762	-0.2321162535	-0.402216
C	 2.7014022876	-0.9005166891	-2.5641319642	-0.145897
O	 4.0728700805	-1.1135887123	-2.4128330575	-0.42061
H	 0.8710131644	 2.121232394	 0.0539710809	 0.135284
H	-0.7054431171	 2.0349816964	-0.7664755335	 0.130578
H	-0.6160771883	 1.9462788262	 1.0024654734	 0.114819
H	 0.5984816545	-0.2259421486	 0.8508552501	 0.117633
H	-1.176571023	-1.6669685323	 0.0580395589	 0.100106
H	-1.9178929251	-0.2585796672	 0.8606755573	 0.098562
H	-2.8029439064	-0.7380996696	-1.2946794474	 0.296664
H	 0.219483419	-0.3536227137	-2.051369832	 0.256889
H	 2.1953307832	-1.8075682409	-2.9322522385	 0.106082
H	 2.4993500694	-0.1022155782	-3.2969987957	 0.107215
H	 4.2380448219	-0.9283020527	-1.4716272378	 0.293175
29.0161	72.2211	85.1885	107.85	160.0616	234.496	260.9948	263.5689	296.2774	358.3739	411.8685	461.496	476.9126	525.6788	607.1149	630.5088	726.9932	836.1343	927.7199	945.742	972.9297	1007.8741	1037.5964	1116.4879	1136.2869	1138.6964	1172.7394	1216.0763	1245.2655	1260.4477	1272.9543	1313.6939	1358.6503	1380.8846	1403.241	1451.1024	1464.669	1492.6024	1498.0758	1509.6399	1515.1036	1549.5867	1759.2741	2970.7898	2989.4206	2989.6737	3028.2078	3043.6655	3086.8535	3115.7068	3133.8696	3620.8114	3639.2095	3841.7821
CC(CO)NC(=O)CO	C[C@@H](CO)NC(=O)CO	
InChI=1S/C5H11NO3/c1-4(2-7)6-5(9)3-8/h4,7-8H,2-3H2,1H3,(H,6,9)	InChI=1S/C5H11NO3/c1-4(2-7)6-5(9)3-8/h4,7-8H,2-3H2,1H3,(H,6,9)/t4-/m0/s1
