16
gdb 125159	2.79316	1.51785	1.03971	3.4095	72.63	-0.2487	-0.0006	0.2481	1118.6276	0.125026	-434.026681	-434.018602	-434.017658	-434.060083	29.204	
C	-0.1266598209	 1.5476479199	 0.0149397167	-0.504705
C	-0.0507254125	 0.0595647823	-0.0676167613	 0.129817
C	 0.1271574334	-0.8155003632	-1.1254186127	 0.218666
C	 0.2383635489	-1.4104399385	-2.5370072779	-0.024721
O	 1.3395766464	-1.0876420138	-3.3303749601	-0.408473
C	 0.2315718505	-2.8244859481	-1.80134594	-0.206312
N	 0.1170979487	-2.0330237344	-0.5578165162	 0.09274
N	-0.0706535771	-2.011415314	 0.7611508229	-0.182802
N	-0.1559449146	-0.7267635342	 1.0526385789	-0.234173
H	 0.8113442909	 2.0209357012	-0.2942908299	 0.132092
H	-0.9205911889	 1.9478478031	-0.624159554	 0.132306
H	-0.3332993132	 1.8397981152	 1.0464395459	 0.151492
H	-0.6449234112	-1.2607048142	-3.1615879207	 0.126267
H	 2.1201026386	-1.0396261935	-2.7665773962	 0.291625
H	-0.6268047078	-3.471857203	-1.991001486	 0.146812
H	 1.165723949	-3.3838041346	-1.8846753995	 0.139369
52.8645	117.4795	130.7438	214.0057	298.6509	340.2739	395.2385	462.6271	507.2259	638.5139	671.5873	698.4629	766.7521	786.9152	874.0417	990.2814	1002.6024	1065.362	1073.4015	1120.5113	1136.6766	1174.3988	1194.95	1198.7021	1259.1415	1291.4215	1302.9538	1339.5868	1415.1531	1434.4563	1465.8637	1486.0191	1492.5146	1511.6596	1588.6891	3039.3105	3074.476	3091.4157	3097.6613	3136.1431	3140.9686	3800.401
CC1=C2C(O)CN2N=N1	Cc1c2[C@@H](O)Cn2nn1	
InChI=1S/C5H7N3O/c1-3-5-4(9)2-8(5)7-6-3/h4,9H,2H2,1H3	InChI=1S/C5H7N3O/c1-3-5-4(9)2-8(5)7-6-3/h4,9H,2H2,1H3/t4-/m0/s1
