18
gdb 113622	1.96576	1.54975	1.01011	3.1919	80.1	-0.2612	-0.0548	0.2064	1215.2626	0.147195	-398.118322	-398.10906	-398.108116	-398.152812	33.32	
C	-0.4418626646	 1.3148859013	-0.2171058503	-0.397235
C	-0.0899283171	-0.1775962188	-0.1929823311	-0.207967
C	 0.864954007	-0.5956894905	-1.2911028968	 0.006584
C	 1.0065233474	-2.0344544536	-1.6792385317	-0.257251
N	 0.3974143771	-1.0922692994	-2.5973455674	-0.084078
C	-0.9250321239	-1.2269144769	-2.9787661223	 0.225957
N	-1.5188845497	-2.3553398072	-3.0489777396	-0.482133
C	-1.5477458795	 0.0212635675	-3.3958924056	 0.281335
N	-2.0924549306	 0.9856445928	-3.7294224047	-0.33652
H	 0.4612411121	 1.9299591973	-0.1409732404	 0.120089
H	-0.9597513965	 1.5945792108	-1.1382551082	 0.151126
H	-1.0907174969	 1.5716503288	 0.6251348094	 0.121231
H	 0.3874089243	-0.4232710439	 0.7643741055	 0.114513
H	-0.9980748061	-0.789850505	-0.2472260369	 0.115129
H	 1.7478572745	 0.0342905852	-1.3873993852	 0.108508
H	 1.9710910113	-2.4272624338	-1.9870218001	 0.130975
H	 0.3393967794	-2.7534379705	-1.21118144	 0.145542
H	-2.4470784983	-2.2579977142	-3.4581243946	 0.244195
60.7129	106.6985	129.378	148.1928	227.0724	238.1927	284.3211	338.8328	405.6722	474.3864	535.5519	566.1846	693.269	738.9222	781.9248	816.949	875.1716	929.526	955.7238	965.2163	1040.7772	1067.3515	1096.3312	1128.7709	1140.2323	1168.9386	1195.9383	1280.6384	1292.5499	1339.7227	1408.5908	1419.2889	1434.1677	1479.8835	1501.9514	1507.6045	1509.2289	1663.5481	2343.8807	3026.1601	3041.847	3062.7584	3108.1014	3116.9202	3125.4937	3127.5986	3206.5466	3504.5558
CCC1CN1C(=N)C#N	CC[C@H]1CN1[C]([NH])C#N	
InChI=1S/C6H9N3/c1-2-5-4-9(5)6(8)3-7/h5,8H,2,4H2,1H3	InChI=1S/C6H9N3/c1-2-5-4-9(5)6(8)3-7/h5,8H,2,4H2,1H3/t5-,9?/m0/s1
