23
gdb 57547	3.53543	0.81438	0.79129	2.0348	82.95	-0.2546	0.0816	0.3362	1603.9832	0.20257	-425.410398	-425.399793	-425.398849	-425.446467	39.599	
C	 0.373206342	 1.5743771527	 0.2602437107	-0.41235
C	-0.0451955807	 0.1296488099	-0.0562852297	 0.345896
C	 0.2042516898	-0.7928502468	 1.1355986366	-0.40617
O	-1.4469483824	 0.0739791236	-0.3212395673	-0.471704
C	 0.699758754	-0.3942623336	-1.2925111366	-0.083546
O	 0.2780950583	 0.3875880586	-2.4037508856	-0.272124
C	 0.7837907039	-0.0483250213	-3.6273274159	 0.15069
C	 0.0999015689	-1.182916784	-4.3457648747	-0.288133
C	-0.0428616978	 0.2458289219	-4.8353045784	-0.288607
H	 1.4290443793	 1.6308837493	 0.5468335243	 0.104143
H	 0.2237851147	 2.2145989756	-0.6132103061	 0.122773
H	-0.2320242412	 1.9601220822	 1.0849218283	 0.117695
H	-0.3529315766	-0.4332178232	 2.0051487477	 0.124489
H	-0.1348137944	-1.8083848401	 0.9122627596	 0.118985
H	 1.2667289076	-0.8238484731	 1.3959639254	 0.109542
H	-1.5631002851	 0.4621078912	-1.1971808537	 0.280493
H	 1.7899228716	-0.3154040634	-1.1596372441	 0.086813
H	 0.4459194631	-1.4502506941	-1.4608947438	 0.094848
H	 1.8684467323	 0.0281154457	-3.7099014715	 0.086703
H	 0.7023566431	-1.8780924748	-4.9198852407	 0.115305
H	-0.762730492	-1.6224853031	-3.8572355327	 0.123955
H	-0.9952785458	 0.7338136229	-4.6622954624	 0.123454
H	 0.4613863073	 0.5436375739	-5.7474806696	 0.116851
43.6904	58.6929	129.0359	159.914	196.5084	245.6726	262.9075	303.2982	341.0053	386.6125	416.4332	432.5111	442.9946	494.2658	549.58	753.9251	781.6132	819.3061	841.8014	907.509	922.5237	947.4958	965.161	985.6634	1003.7315	1032.4191	1049.9775	1072.3382	1093.3924	1127.9188	1159.2116	1192.8887	1200.383	1208.569	1244.2915	1257.8055	1293.2018	1349.1832	1389.852	1399.6597	1421.1178	1429.8153	1454.2873	1476.8367	1485.4917	1496.0284	1498.724	1508.8792	1511.6111	2981.4344	3029.4595	3036.1734	3043.1274	3096.0726	3107.4408	3116.8086	3118.8406	3126.195	3135.6419	3142.4641	3219.6484	3234.2925	3784.4255
CC(C)(O)COC1CC1	CC(C)(O)COC1CC1	
InChI=1S/C7H14O2/c1-7(2,8)5-9-6-3-4-6/h6,8H,3-5H2,1-2H3	InChI=1S/C7H14O2/c1-7(2,8)5-9-6-3-4-6/h6,8H,3-5H2,1-2H3
