15
gdb 24189	2.98556	2.52275	1.54454	3.5694	77.05	-0.1965	-0.045	0.1515	817.1364	0.116471	-379.617683	-379.611931	-379.610987	-379.647492	23.919	
C	-0.1831605009	 1.509041059	-0.1146895401	-0.321397
C	 1.3718919913	 1.8147710688	 0.0988524314	-0.049394
C	 2.1580842334	 1.9322212744	 1.4021488075	-0.122733
C	 2.705190672	 0.7384218665	 1.7443320978	-0.111813
C	 2.1299978154	-0.3033277241	 0.8755664929	 0.141065
N	 1.3856266045	-1.3712407978	 1.1707215303	-0.271364
C	 0.1887483171	-1.1697998204	 0.4945520388	-0.093575
C	 0.2352918736	 0.0057936451	-0.2483921865	 0.015658
N	 1.56623915	 0.3902346476	-0.1520736662	 0.075177
H	-0.7964246648	 1.683761182	 0.7678479129	 0.146279
H	-0.6264582924	 2.0011753128	-0.9830889569	 0.126192
H	 1.7820430165	 2.481799713	-0.668046083	 0.11223
H	 2.3789249285	 2.8778919824	 1.8832033556	 0.113256
H	 3.3454285691	 0.5577881927	 2.5968842385	 0.128729
H	-0.6291784734	-1.8616166721	 0.6339329968	 0.11169
223.6363	307.9558	319.5782	515.1489	560.457	612.2495	675.5038	711.7068	738.6742	761.0252	792.4331	847.8541	865.2704	891.1155	951.4131	979.5212	995.8867	1022.0201	1084.6695	1090.604	1128.7307	1170.001	1197.0053	1235.7297	1256.9074	1299.3598	1311.5069	1340.0212	1364.0324	1412.0861	1463.1223	1476.9317	1563.237	3044.0742	3075.4346	3154.8821	3202.7353	3238.006	3244.3626
C1C2C=CC3=NC=C1N23	C1[C@H]2C=C[C]3[N][CH][C]1N23	
InChI=1S/C7H6N2/c1-2-7-8-4-6-3-5(1)9(6)7/h1-2,4-5H,3H2	InChI=1S/C7H6N2/c1-2-7-8-4-6-3-5(1)9(6)7/h1-2,4-5H,3H2/t5-/m1/s1
