23
gdb 76751	2.23204	1.60099	1.30651	1.6278	84.72	-0.2356	0.0718	0.3074	1142.8325	0.204913	-388.27238	-388.262902	-388.261957	-388.306236	36.546	
C	-0.6607822766	 1.3167998393	-0.0635215154	-0.415678
C	-0.0136597357	-0.0595148078	 0.0350055971	 0.011157
C	 1.2381599147	-0.4004109232	-0.8635463093	-0.046683
C	 1.8276101532	 0.6630887379	-1.7801263174	-0.4059
C	 2.0418418379	-0.7525578515	 0.4230487563	 0.450057
C	 2.8838630409	-2.0015643173	 0.4619048991	-0.47704
O	 2.7482174432	 0.4011932984	 0.9571805858	-0.326785
C	 1.6868448991	 0.6737526582	 1.9011020266	-0.090191
C	 0.7996750014	-0.4295984872	 1.3126562852	-0.156073
H	 0.0625734755	 2.130857803	 0.0379119299	 0.123517
H	-1.158528724	 1.4433965218	-1.0308917559	 0.115547
H	-1.419449267	 1.4467078171	 0.7166757881	 0.111945
H	-0.7916115163	-0.8133517955	-0.1225922108	 0.071101
H	 1.0431484507	-1.3093287547	-1.4437530804	 0.062762
H	 2.1394300444	 1.5449232418	-1.2161371608	 0.129856
H	 2.7123116549	 0.2779548291	-2.2989782135	 0.111937
H	 1.1056538643	 0.9717662027	-2.543550761	 0.107247
H	 3.7470624386	-1.8961415219	-0.2056734955	 0.127042
H	 3.2607195544	-2.1895167791	 1.4718811183	 0.120101
H	 2.3066071294	-2.8726087876	 0.1349996182	 0.113891
H	 2.0152182375	 0.4807507475	 2.9312327516	 0.096239
H	 1.3267193142	 1.7071359173	 1.8385219281	 0.098024
H	 0.3443792551	-1.1332728081	 2.0100854358	 0.067926
53.9609	200.6506	212.932	213.6008	220.0364	236.7014	249.6187	278.9591	325.2934	465.0832	474.4079	523.0313	640.3862	642.1211	736.1078	804.665	853.9271	871.2332	914.6164	959.4008	992.6728	1002.0321	1014.6168	1025.666	1045.3206	1095.878	1111.3786	1148.5808	1162.2324	1177.3406	1187.0799	1201.4677	1222.356	1271.2391	1312.4951	1330.0928	1348.3466	1364.0865	1376.0486	1405.375	1408.614	1415.6689	1480.168	1485.8277	1489.346	1493.0125	1501.8161	1507.6487	1531.7014	3005.99	3026.687	3029.5931	3031.1995	3036.0608	3049.6482	3055.4369	3090.4196	3094.0619	3096.4555	3102.1462	3107.5754	3108.963	3127.1531
CC1C(C)C2(C)OCC12	C[C@H]1[C@@H](C)[C@@]2(C)OC[C@@H]12	
InChI=1S/C8H14O/c1-5-6(2)8(3)7(5)4-9-8/h5-7H,4H2,1-3H3	InChI=1S/C8H14O/c1-5-6(2)8(3)7(5)4-9-8/h5-7H,4H2,1-3H3/t5-,6+,7-,8+/m0/s1
