13
gdb 55627	2.32246	1.15665	0.9053	4.1658	65.84	-0.2911	-0.0195	0.2716	1264.3241	0.086612	-452.749741	-452.740394	-452.73945	-452.785225	32.187	
N	-0.1511388317	 1.2851306548	 0.0661933771	-0.563592
C	 0.0274018783	-0.0514668806	 0.1742096163	 0.531639
O	 1.0045045108	-0.6128032457	 0.6058257041	-0.385779
O	-1.1072668486	-0.6931610265	-0.2700406352	-0.258326
C	-1.0610557309	-2.1234951268	-0.1867402274	-0.19204
C	-2.1362696789	-2.620964858	 0.6653036181	 0.329897
C	-3.0037714405	-3.0428202671	 1.3781438053	-0.416849
C	-1.153230481	-2.6732557271	-1.5526376058	 0.297779
N	-1.2082811895	-3.1133213103	-2.6183282578	-0.316035
H	 0.6408655698	 1.8776828861	 0.2409821271	 0.281425
H	-0.9487027477	 1.6518791174	-0.4229588478	 0.278696
H	-0.0837903767	-2.3979333628	 0.2327676223	 0.194619
H	-3.7744195933	-3.4167367932	 2.0071463536	 0.218565
29.9206	74.573	123.0582	151.0394	217.0009	254.6219	294.8112	354.2129	417.224	510.9942	533.63	579.8188	604.3267	645.1783	654.6563	696.2113	773.0311	927.2301	930.8215	1039.8838	1070.9798	1113.0876	1305.0746	1339.9348	1373.82	1610.3426	1848.7955	2253.42	2370.8717	3032.846	3500.3853	3625.9929	3760.3987
NC(=O)OC(C#C)C#N	NC(=O)O[C@@H](C#C)C#N	
InChI=1S/C5H4N2O2/c1-2-4(3-6)9-5(7)8/h1,4H,(H2,7,8)	InChI=1S/C5H4N2O2/c1-2-4(3-6)9-5(7)8/h1,4H,(H2,7,8)/t4-/m0/s1
