20
gdb 33212	5.30777	0.65554	0.6233	2.2967	82.93	-0.1943	0.0478	0.2422	1798.1698	0.171902	-403.182112	-403.172727	-403.171783	-403.217627	34.103	
O	-0.0163122292	 1.4224758903	-0.31520879	-0.421614
C	 0.0372292616	 0.0354491092	-0.019120141	-0.072342
C	-1.3836530396	-0.5101735309	-0.0629027035	-0.156604
C	-1.4459735201	-2.0258467646	 0.2038313157	-0.332658
C	-2.8315899203	-2.5900414908	 0.1837024137	 0.313251
C	-3.6093725266	-3.1206149855	 1.1901515665	-0.227742
C	-4.8614559054	-3.4983004397	 0.6273537362	-0.135947
C	-4.8166372644	-3.1887613035	-0.7103603807	-0.098775
N	-3.5837671656	-2.6401387992	-0.9685916792	-0.283417
H	 0.8768117526	 1.7754421816	-0.2672601922	 0.285275
H	 0.66573651	-0.504025227	-0.7478268284	 0.080923
H	 0.4728248239	-0.1444491372	 0.9777583896	 0.085642
H	-1.9950496684	 0.0205240195	 0.6747658669	 0.115955
H	-1.8116363846	-0.2772945993	-1.045662739	 0.096608
H	-0.811598894	-2.5454951774	-0.5297176178	 0.099306
H	-1.0106770935	-2.2417125755	 1.1857489598	 0.113128
H	-3.3053506045	-3.2257021705	 2.2210088368	 0.084187
H	-5.6949489343	-3.9478516415	 1.1448442652	 0.08889
H	-5.5454130433	-3.3111484987	-1.4954087647	 0.110656
H	-3.2748856942	-2.3165464695	-1.8686533939	 0.255277
39.755	76.1297	90.116	121.5347	241.0582	263.3947	309.8756	330.7975	451.225	487.1573	629.184	662.7569	705.2713	734.0981	753.6907	792.9457	846.492	862.4861	896.141	973.29	1020.3378	1030.8596	1051.3349	1079.2102	1083.9429	1121.6066	1145.7969	1204.9275	1230.5439	1257.6195	1275.4913	1307.1873	1309.4132	1321.693	1376.7068	1438.0644	1457.4681	1464.2433	1482.5857	1498.1201	1505.4808	1527.9641	1617.9706	2953.8883	2979.0404	2994.3984	3035.4649	3064.1923	3088.1554	3237.1899	3250.3104	3269.7816	3678.1917	3829.5928
OCCCC1=CC=CN1	OCCCc1ccc[nH]1	
InChI=1S/C7H11NO/c9-6-2-4-7-3-1-5-8-7/h1,3,5,8-9H,2,4,6H2	InChI=1S/C7H11NO/c9-6-2-4-7-3-1-5-8-7/h1,3,5,8-9H,2,4,6H2
