17
gdb 8103	3.00394	1.97438	1.51289	2.6937	69.84	-0.2275	-0.0178	0.2098	896.2927	0.140584	-363.837514	-363.829586	-363.828642	-363.869486	29.748	
C	-0.1060796347	 1.5358477695	 0.021947225	-0.325731
N	 0.0864132505	 0.0930747658	 0.1357460774	-0.112088
C	 1.350257524	-0.5597063111	-0.1989606694	-0.225223
C	 2.5283807614	 0.2294798089	 0.32930562	 0.419895
O	 3.5957951449	 0.5270827228	-0.1257138566	-0.311375
C	 1.9332440481	 0.2958018633	 1.7608409717	-0.424563
C	 0.7617873963	-0.5571865249	 1.2244706747	 0.328234
C	 0.0912681632	-1.6728208238	 1.9693330886	-0.482175
H	 0.7346887287	 2.1547823665	 0.3606779423	 0.11939
H	-0.2990608021	 1.7715532255	-1.0282526422	 0.135599
H	-0.9932952283	 1.8122918235	 0.5998013202	 0.12852
H	 1.3604833649	-1.3158032211	-0.9773134908	 0.107332
H	 2.5866761165	-0.244958369	 2.4524937809	 0.132118
H	 1.6969070525	 1.2733577449	 2.1886920284	 0.12069
H	-0.5110183595	-1.2786117869	 2.7962101028	 0.127879
H	-0.5735061707	-2.2273722076	 1.3026675152	 0.136997
H	 0.8287007942	-2.3617945363	 2.3936684618	 0.124502
104.8772	156.5175	203.2106	220.8948	284.3436	307.4316	414.0606	466.2893	487.433	592.3325	619.8494	671.4082	710.735	851.7386	902.3459	945.0974	953.6911	1002.5636	1051.7882	1068.5047	1132.5666	1149.6165	1159.9341	1172.2048	1195.7389	1223.6781	1259.651	1394.9787	1426.7602	1448.0712	1469.139	1482.3268	1493.6026	1496.9048	1501.5154	1880.1487	3013.2184	3032.3023	3060.4449	3084.8508	3093.227	3111.3638	3114.8665	3126.1127	3170.9141
CN1C2C(=O)CC12C	CN1[C@H]2C(=O)C[C@@]12C	
InChI=1S/C6H9NO/c1-6-3-4(8)5(6)7(6)2/h5H,3H2,1-2H3	InChI=1S/C6H9NO/c1-6-3-4(8)5(6)7(6)2/h5H,3H2,1-2H3/t5-,6+,7?/m0/s1
