27
gdb 58185	2.20085	1.0767	1.05535	1.4383	91.47	-0.2562	0.0624	0.3187	1433.5898	0.248812	-390.703225	-390.691303	-390.690359	-390.739399	45.486	
C	-0.6970129191	 0.8162768351	-1.7325484064	-0.417584
C	-1.0253468404	 0.5818900237	-0.2477330898	 0.026243
C	-1.594899407	 1.8747700473	 0.3582335135	-0.395271
C	-2.0204265252	-0.5910999553	-0.0012793067	 0.118695
O	-3.0639816795	-0.5852126302	-0.9757335021	-0.443771
C	-1.4152506586	-2.017676583	 0.2028444146	 0.229112
C	-0.515689573	-2.0266210764	 1.4537851383	-0.410596
C	-2.5854275181	-2.9937281655	 0.4416757895	-0.395669
C	-0.6004121639	-2.5038264306	-1.0101154558	-0.417128
H	 0.0510310516	 1.6093575915	-1.8294238357	 0.114426
H	-0.2955919995	-0.0704680723	-2.2300084581	 0.111326
H	-1.5871554404	 1.1432967442	-2.2803158513	 0.121311
H	-0.0891035741	 0.3507220071	 0.272593154	 0.072826
H	-1.7202722016	 1.7864441805	 1.442398626	 0.108743
H	-0.9377156291	 2.7291608676	 0.1649944827	 0.104084
H	-2.5757415055	 2.0971189828	-0.076159595	 0.128305
H	-2.5485172066	-0.3685850977	 0.9345889638	 0.077303
H	-2.6679198031	-0.7559455135	-1.8361929425	 0.280383
H	-1.0540370944	-1.6525395827	 2.3319438939	 0.110315
H	-0.1901385673	-3.0481625401	 1.6778998321	 0.110466
H	 0.3857143555	-1.4196767612	 1.3276442095	 0.113224
H	-3.2663532599	-3.0111178165	-0.4114914975	 0.119573
H	-2.2101076819	-4.0084872236	 0.6119981977	 0.099937
H	-3.1671655786	-2.699479274	 1.3223077921	 0.106422
H	 0.306637651	-1.9113762588	-1.1612350388	 0.115999
H	-0.2897297851	-3.5438492478	-0.8631664436	 0.112215
H	-1.1862859962	-2.4765609802	-1.9363658044	 0.099111
51.641	84.1971	195.8136	206.1453	217.7594	233.3672	254.5672	269.092	291.0065	298.1911	317.3894	324.8862	339.7242	356.7146	396.4081	413.9038	472.6615	540.3913	623.2707	752.615	817.6208	888.5395	925.8855	934.1314	938.2529	958.7317	961.9303	989.1954	1014.8659	1035.4399	1057.6875	1105.6998	1136.8175	1201.3225	1212.1088	1236.2408	1262.6988	1281.6038	1328.5821	1353.2125	1377.7426	1396.9476	1398.8666	1400.2835	1419.3996	1427.6786	1438.0338	1480.3514	1483.224	1486.5816	1492.6889	1497.4188	1505.8032	1508.8859	1510.3324	1519.3694	1521.5849	3023.2775	3024.7018	3027.0381	3028.7353	3035.0256	3041.0448	3041.8533	3084.904	3089.7861	3095.7125	3096.997	3099.625	3101.6141	3105.2688	3107.0741	3119.6209	3129.8226	3818.1819
CC(C)C(O)C(C)(C)C	CC(C)[C@@H](O)C(C)(C)C	
InChI=1S/C8H18O/c1-6(2)7(9)8(3,4)5/h6-7,9H,1-5H3	InChI=1S/C8H18O/c1-6(2)7(9)8(3,4)5/h6-7,9H,1-5H3/t7-/m1/s1
