17
gdb 52081	2.38304	1.37854	1.01738	1.9579	69.73	-0.2496	-0.0338	0.2159	1170.7303	0.135523	-455.154048	-455.145057	-455.144113	-455.188353	32.046	
O	 0.8346911195	 0.5798698166	-1.3451226964	-0.337223
C	 0.3846546042	 1.2538600061	-0.4351027106	 0.163918
N	 1.0680498114	 1.5900935736	 0.6842952209	-0.25932
C	 2.4533550261	 1.1835303897	 0.8808603733	-0.272866
C	 3.4454078785	 2.0939517605	 0.1847847462	 0.219361
C	 4.6455948803	 1.4938914981	-0.4849150283	-0.27659
N	 3.5814262302	 2.0612967977	-1.2925895194	-0.340423
C	 3.5505482065	 3.4720241363	 0.7405157119	 0.139626
O	 2.9523421382	 3.8457294469	 1.7219405566	-0.278928
H	-0.6502899901	 1.6435113235	-0.4339298571	 0.092856
H	 0.6764476496	 2.2655182255	 1.3211597394	 0.266972
H	 2.6528941599	 1.178375454	 1.9551927635	 0.132223
H	 2.5556271083	 0.1640664798	 0.5011210882	 0.133507
H	 5.5858344519	 2.0392750733	-0.5019005756	 0.12698
H	 4.7483489867	 0.4140211891	-0.4063338752	 0.128774
H	 2.9496075135	 1.3444067569	-1.6500015759	 0.268842
H	 4.2180930354	 4.1467093924	 0.1632275284	 0.092293
61.0731	95.9477	133.7608	173.4149	226.0536	272.568	333.7138	342.7655	368.0725	514.1421	527.7504	552.5529	738.8485	796.6473	841.0188	902.7084	948.2206	974.4839	997.025	1032.5062	1048.237	1057.1674	1113.3398	1153.0041	1208.0845	1267.504	1282.9356	1334.1931	1380.8467	1398.3324	1423.0689	1432.4234	1453.1462	1510.3439	1522.7925	1778.4041	1807.9805	2914.7953	2964.7436	3070.1448	3102.8792	3123.6877	3187.8209	3473.7994	3644.6782
O=CNCC1(CN1)C=O	O=CNC[C@]1(CN1)C=O	
InChI=1S/C5H8N2O2/c8-3-5(2-7-5)1-6-4-9/h3-4,7H,1-2H2,(H,6,9)	InChI=1S/C5H8N2O2/c8-3-5(2-7-5)1-6-4-9/h3-4,7H,1-2H2,(H,6,9)/t5-/m0/s1
