21
gdb 77591	2.59532	1.41678	1.19713	1.1771	82.88	-0.2378	0.0781	0.316	1148.498	0.181307	-387.04519	-387.036252	-387.035308	-387.078142	35.381	
C	-0.1684796192	 1.5658541622	-0.0267054287	-0.419539
C	 0.0205158629	 0.0552255626	 0.0145412817	-0.132069
C	 1.0526365752	-0.609712384	-0.9178269492	 0.400293
O	 0.7228255982	-1.1696614313	-2.141538779	-0.466169
C	 2.4706191771	-0.2680747064	-0.5500243039	-0.352501
C	 1.7206602924	-1.3096989429	 0.2568007603	-0.215701
C	 0.7667283964	-0.6095985168	 1.2033467569	 0.401229
C	 1.0860708016	-0.0133323585	 2.5443919009	-0.325089
C	 0.1379912123	-1.1901494931	 2.4304658808	-0.342962
H	 0.7817947938	 2.0957968447	 0.0929254024	 0.114995
H	-0.6119720738	 1.8776027345	-0.9791026611	 0.111027
H	-0.8392284555	 1.9046742768	 0.771035426	 0.114004
H	-0.9416533796	-0.4484199601	-0.1327403749	 0.081934
H	 0.9034237825	-0.520426062	-2.8298306197	 0.28445
H	 3.2058479507	-0.6762563196	-1.2369817714	 0.109379
H	 2.7434384309	 0.6846847991	-0.1027401269	 0.105658
H	 2.0637552369	-2.3340767474	 0.338285045	 0.092765
H	 2.072011911	-0.1876030028	 2.9635437175	 0.110189
H	 0.6621865559	 0.9550926423	 2.7914455552	 0.108459
H	-0.9200354131	-1.012902992	 2.5989197825	 0.108836
H	 0.4846690533	-2.1597952353	 2.7743065754	 0.110813
103.4461	200.8863	211.33	222.4435	228.8132	259.4723	266.6536	388.2723	437.9786	472.41	504.0185	567.9225	682.2277	718.7123	775.7376	827.4981	864.6934	898.1039	917.9493	925.3314	957.3368	980.3775	998.174	1030.7382	1050.6968	1070.3938	1075.1451	1082.7162	1118.9325	1125.0258	1184.985	1186.5781	1207.915	1238.646	1283.1062	1299.5043	1356.1229	1394.1703	1407.8572	1411.0029	1464.2383	1487.6121	1495.1319	1498.4865	1509.3875	3026.9295	3043.3375	3087.3852	3101.764	3107.1211	3118.2727	3123.3594	3184.5115	3195.7052	3200.4358	3211.1682	3796.4273
CC1C2(O)CC2C11CC1	C[C@H]1[C@@]2(O)C[C@H]2C21CC2	
InChI=1S/C8H12O/c1-5-7(2-3-7)6-4-8(5,6)9/h5-6,9H,2-4H2,1H3	InChI=1S/C8H12O/c1-5-7(2-3-7)6-4-8(5,6)9/h5-6,9H,2-4H2,1H3/t5-,6+,8+/m1/s1
