17
gdb 77442	2.35564	1.53687	1.23579	4.4914	69.24	-0.2559	0.0064	0.2623	1072.3104	0.133185	-458.967101	-458.957892	-458.956948	-459.000677	33.563	
C	 0.0485678634	 1.5158784853	-0.0426169702	-0.501704
C	 0.0437256261	 0.0328242674	 0.0794722566	 0.373912
O	 0.5057724151	-0.7658422535	-1.0522989518	-0.298508
C	 1.169054954	-1.6311960548	-0.1867894687	 0.429043
O	 1.8872933437	-2.5313274018	-0.4784410744	-0.330771
C	 0.6685985993	-0.951228592	 1.0588322713	 0.015729
C	 1.3691785584	-0.8406953027	 2.3789838763	-0.504819
C	-0.8623810819	-0.8481840843	 0.8802656619	-0.023702
O	-1.4786773835	-0.2964554838	 2.0007841172	-0.413866
H	 1.0542333049	 1.8942714574	-0.2471801165	 0.141867
H	-0.6101841324	 1.838810844	-0.8562357911	 0.139177
H	-0.3101799732	 1.9583490416	 0.8903813394	 0.139835
H	 2.3355966331	-0.337829415	 2.2773265631	 0.131237
H	 0.7555783577	-0.2856174907	 3.0910860544	 0.147377
H	 1.5525195418	-1.8378662807	 2.7920042759	 0.143422
H	-1.4056117449	-1.6518753792	 0.3806946483	 0.110743
H	-2.3141613715	 0.0946309628	 1.7234309483	 0.301028
134.4937	140.5741	155.355	183.2822	208.2205	238.5804	255.1693	298.0831	346.9262	440.4168	517.391	593.2766	649.2219	663.8911	708.4119	792.6946	852.04	884.1954	952.3512	1007.0074	1074.6568	1087.4952	1114.1129	1142.6837	1181.1755	1207.9846	1255.7501	1343.413	1362.9334	1410.5424	1420.3641	1473.1745	1479.4986	1491.6006	1492.6195	1506.1509	1938.5443	3038.5789	3044.1262	3091.7462	3103.8605	3104.6213	3126.8335	3136.9211	3810.3552
CC12OC(=O)C1(C)C2O	C[C@@]12OC(=O)[C@]1(C)[C@H]2O	
InChI=1S/C6H8O3/c1-5-3(7)6(5,2)9-4(5)8/h3,7H,1-2H3	InChI=1S/C6H8O3/c1-5-3(7)6(5,2)9-4(5)8/h3,7H,1-2H3/t3-,5+,6+/m1/s1
