16
gdb 23345	4.1366	0.9564	0.8885	2.3975	70.7	-0.2477	0.0008	0.2484	1318.0881	0.121503	-474.867576	-474.858998	-474.858054	-474.90125	31.152	
C	 0.0045416003	 1.2967060064	-0.2147009283	-0.245593
O	-0.0859478372	 0.0234573218	 0.3953379773	-0.244863
C	-1.3266439479	-0.5666098311	 0.2533126301	 0.181922
C	-1.6418808076	-1.3841853597	-1.0593198792	-0.099516
O	-0.6237593758	-2.3805834677	-0.6199438706	-0.30503
C	-1.3804357953	-2.0710798636	 0.6281881303	-0.093563
C	-2.6318973661	-2.1757195418	-0.2192166428	 0.519005
N	-3.7488939014	-2.7514489486	-0.1788112267	-0.311535
O	-4.4808802245	-2.5368889272	-1.3642831526	-0.394436
H	 0.9973813662	 1.6892479017	 0.0127500422	 0.137966
H	-0.1132126431	 1.2347864887	-1.3057339879	 0.114994
H	-0.7543399992	 1.9886826199	 0.180633974	 0.11139
H	-2.1451392045	 0.066634534	 0.6278162766	 0.085087
H	-1.6628217422	-1.0948508868	-2.1065103191	 0.116867
H	-1.0910848414	-2.574693929	 1.5472119844	 0.116984
H	-5.2831587903	-3.043316027	-1.1969195676	 0.310321
80.9823	98.1388	147.0224	192.2609	245.8524	310.3196	332.4599	390.6874	429.52	523.6537	623.8041	700.1197	745.4601	770.5801	807.2451	867.4127	949.5982	965.1617	1031.331	1063.5526	1090.0738	1134.1826	1148.8594	1156.6703	1180.5776	1191.8625	1213.6336	1242.4607	1269.123	1397.5013	1416.224	1485.1045	1489.6517	1506.6789	1834.6439	2984.5951	2997.9359	3039.2597	3129.4071	3164.3737	3168.2748	3817.2914
COC1C2OC1C2=NO	CO[C@H]1[C@H]2O[C@@H]1C2=NO	
InChI=1S/C5H7NO3/c1-8-5-3-2(6-7)4(5)9-3/h3-5,7H,1H3	InChI=1S/C5H7NO3/c1-8-5-3-2(6-7)4(5)9-3/h3-5,7H,1H3/t3-,4+,5-
