23
gdb 121387	4.05764	0.77749	0.68887	1.2317	88.44	-0.2366	0.0278	0.2644	1682.5022	0.207125	-388.306063	-388.296596	-388.295652	-388.34085	35.679	
O	-0.1146107675	 1.5170125099	 0.118458334	-0.420565
C	 0.0411237625	 0.1057970457	 0.0642925073	-0.085106
C	-1.3489901544	-0.5076872673	-0.0547344877	-0.178148
C	-1.3673510612	-2.0489527856	-0.0777744514	-0.022632
C	-2.7899765197	-2.5821839163	 0.1696557586	-0.207239
C	-2.8862631486	-4.0880465687	-0.0982758139	-0.215367
C	-2.5440231883	-4.40580803	-1.5607869299	-0.235743
C	-1.336611664	-3.6376095869	-2.0303348445	-0.067426
C	-0.8063253315	-2.6106220931	-1.3661988234	-0.039082
H	 0.7600281908	 1.9140642676	 0.1611982745	 0.28428
H	 0.6700036998	-0.1860786557	-0.7911720583	 0.086795
H	 0.534818848	-0.2750771175	 0.974140049	 0.082378
H	-1.9406516382	-0.1529236579	 0.798004393	 0.10125
H	-1.8329875121	-0.1154636096	-0.9573839928	 0.104711
H	-0.7280759739	-2.3938593125	 0.7525924301	 0.074628
H	-3.0964886821	-2.3508199324	 1.1961147541	 0.08964
H	-3.4874089729	-2.0511449549	-0.492937164	 0.096059
H	-2.183952386	-4.6161159131	 0.559827809	 0.096968
H	-3.8868185811	-4.4597758819	 0.1476222861	 0.089943
H	-2.3717089982	-5.4822917883	-1.6875355167	 0.099405
H	-3.4009522413	-4.1708456658	-2.2102428354	 0.105974
H	-0.8847778356	-3.9580279232	-2.9668585335	 0.080459
H	 0.0808653753	-2.1262637926	-1.7680694243	 0.078817
70.4321	73.4889	114.5378	176.4531	265.7348	273.5809	284.9942	321.0171	375.0784	461.5754	522.8709	543.0492	690.6957	732.0182	782.7879	821.3613	870.6736	899.735	923.0904	971.6397	1004.9341	1014.8558	1018.804	1068.7544	1074.9749	1081.8293	1109.5159	1122.5232	1160.883	1202.3379	1225.2443	1245.7809	1259.9367	1277.9025	1309.0752	1312.163	1346.6185	1355.3967	1372.4353	1379.1154	1380.4496	1425.7838	1463.2219	1474.9652	1486.1677	1493.1559	1497.9577	1526.6164	1720.4687	2952.8767	2960.9519	2991.0637	2994.476	3013.0058	3020.1007	3029.4739	3038.5101	3061.598	3069.6011	3073.5782	3135.5228	3160.0372	3829.7325
OCCC1CCCC=C1	OCC[C@H]1CCCC=C1	
InChI=1S/C8H14O/c9-7-6-8-4-2-1-3-5-8/h2,4,8-9H,1,3,5-7H2	InChI=1S/C8H14O/c9-7-6-8-4-2-1-3-5-8/h2,4,8-9H,1,3,5-7H2/t8-/m1/s1
