12
gdb 23634	3.92282	1.83561	1.25047	4.0736	60.02	-0.2253	-0.0397	0.1857	856.0527	0.08545	-422.696977	-422.690931	-422.689987	-422.727227	23.273	
F	 0.0302776891	 0.0276461052	 0.003037304	-0.070082
C	-0.014066712	 1.3582180249	 0.0105928381	 0.366781
C	-1.2146822832	 1.9947280293	 0.0301324314	-0.415647
C	-1.285844719	 3.4401617141	 0.038651923	 0.451644
O	-2.2881257267	 4.1318148083	 0.0558237087	-0.397513
N	-0.0085064773	 4.0552290526	 0.0246460679	-0.359739
C	 1.1804438138	 3.402247605	 0.0051764882	 0.063203
C	 1.2304768293	 2.0432430254	-0.0026229442	-0.305191
H	-2.1449521076	 1.443221843	 0.0398084399	 0.130221
H	-0.0400056176	 5.0652245206	 0.0303741478	 0.265663
H	 2.0685110745	 4.0221078611	-0.0035603426	 0.14586
H	 2.1646493868	 1.5018934706	-0.0180677022	 0.1248
174.7511	221.8032	358.9948	430.0711	483.5925	513.3537	553.6338	642.8835	704.4093	744.2325	762.9687	772.2666	871.6609	921.8396	934.2751	1008.9151	1107.7918	1192.0933	1221.7216	1235.0196	1330.9566	1440.8351	1513.1927	1592.7996	1677.8442	1791.8353	3211.9625	3232.9112	3248.6284	3610.9436
FC1=CC(=O)NC=C1	Fc1cc(=O)[nH]cc1	
InChI=1S/C5H4FNO/c6-4-1-2-7-5(8)3-4/h1-3H,(H,7,8)	InChI=1S/C5H4FNO/c6-4-1-2-7-5(8)3-4/h1-3H,(H,7,8)
