18
gdb 54322	2.34907	1.61341	1.13667	6.1441	72.21	-0.2534	0.0265	0.2799	1099.1756	0.148466	-439.087198	-439.079088	-439.078143	-439.120147	31.074	
O	-0.0698688457	-0.083580874	 0.0089194442	-0.353269
C	-0.0482217777	 1.1041130048	-0.2008073927	 0.367325
O	 1.0611052756	 1.7223486411	-0.6161546161	-0.391744
C	-1.2922421206	 1.9617620234	-0.0456608052	 0.182012
C	-2.5156048609	 1.3836577619	-0.7572350274	-0.292444
C	-2.423035117	 1.3144125763	 0.7313922798	-0.283347
C	-1.1935459152	 3.4594479085	 0.0457611792	-0.09673
C	-0.2146646309	 4.178436632	 0.901974899	-0.245427
N	-0.020934144	 4.1227698406	-0.5596743546	-0.355464
H	 0.8675750781	 2.6808708424	-0.7943631219	 0.326501
H	-0.2555426242	 4.9934306173	-1.0233263815	 0.249508
H	-3.203838065	 2.0908415972	-1.208681078	 0.112707
H	-2.3589466288	 0.4691164688	-1.3157774751	 0.145162
H	-2.1920084834	 0.3546427818	 1.1759571106	 0.151408
H	-3.0533360513	 1.9714139573	 1.321256072	 0.110857
H	-2.1487211852	 3.9622904221	-0.091961999	 0.097705
H	-0.5118424171	 5.1252506327	 1.3420383373	 0.12899
H	 0.5222032234	 3.6187679657	 1.4698319393	 0.14625
67.8468	118.4752	205.0219	272.2497	284.2017	301.1377	382.839	470.0963	507.9155	565.0821	735.6142	756.7332	786.7378	853.8597	858.3816	877.6522	925.9835	940.0846	957.1008	981.0136	992.4131	993.603	1068.1977	1095.1134	1108.4505	1128.3441	1162.2433	1202.7757	1219.803	1256.4241	1270.2113	1289.6489	1350.7411	1441.5905	1452.2303	1484.373	1500.8501	1510.785	1835.4912	3122.7262	3126.4524	3136.1058	3140.3317	3204.5727	3214.6587	3229.4982	3243.8369	3539.6571
[O-]C(=O)C1(CC1)C1C[NH2+]1	O=C(O)C1(CC1)[C@H]1CN1	
InChI=1S/C6H9NO2/c8-5(9)6(1-2-6)4-3-7-4/h4,7H,1-3H2,(H,8,9)	InChI=1S/C6H9NO2/c8-5(9)6(1-2-6)4-3-7-4/h4,7H,1-3H2,(H,8,9)/t4-/m1/s1
