20
gdb 16621	3.06925	2.09177	1.44044	0.2879	80.36	-0.2154	0.0285	0.2439	940.8277	0.17776	-311.878537	-311.870719	-311.869775	-311.910092	30.866	
C	-0.1815795582	 1.5551813374	 0.0122457485	-0.393665
C	 0.0245081851	 0.0327607962	-0.0046656716	-0.079753
C	 0.8169873063	-0.4858865058	-1.2087751306	-0.043202
C	 2.2658946152	-0.0918225593	-1.360293094	-0.281009
C	 1.9068109432	-1.4043414122	-0.689213595	-0.072756
C	 1.7852624346	-1.335748609	 0.7949947786	-0.187044
C	 0.7970814269	-0.5249205027	 1.1907217831	 0.316325
C	 0.4320950203	-0.1738324286	 2.5990748277	-0.493691
H	 0.7762506895	 2.0850898117	 0.0220659847	 0.115665
H	-0.7346317034	 1.8794071207	-0.8750526887	 0.113207
H	-0.7513486784	 1.871986252	 0.8918835331	 0.111085
H	-0.9757122482	-0.4291708387	-0.0145583868	 0.074027
H	 0.27232903	-0.7282429801	-2.1141699798	 0.078729
H	 2.6761241873	-0.1326126555	-2.3644927831	 0.104547
H	 2.6777036145	 0.6941197224	-0.7356908762	 0.107721
H	 2.1684684618	-2.3370023081	-1.1771811645	 0.080803
H	 2.4570026329	-1.8625912255	 1.465150697	 0.082644
H	 1.0479521522	-0.7201776207	 3.3188122271	 0.120774
H	 0.5569461788	 0.8982108239	 2.7973726471	 0.125695
H	-0.6210085305	-0.4059316181	 2.8070293834	 0.119897
134.3089	185.8099	218.8374	232.4974	256.9907	338.0925	432.0088	442.9067	547.5331	627.2066	687.9655	757.7612	799.1987	811.9277	853.1687	896.2732	936.8456	980.1744	1003.4998	1022.0534	1038.9667	1067.3197	1070.5129	1076.1838	1100.8466	1108.8876	1129.5954	1186.1617	1216.4791	1284.6689	1316.2491	1335.7308	1355.8595	1377.5872	1406.8519	1413.9444	1474.0457	1478.0567	1487.5187	1499.1105	1501.4486	1704.2416	2970.3871	3012.7304	3032.9777	3057.1122	3100.1656	3104.8068	3107.0719	3121.9071	3161.4527	3171.289	3182.2777	3210.0988
CC1C2CC2C=C1C	C[C@H]1[C@H]2C[C@H]2C=C1C	
InChI=1S/C8H12/c1-5-3-7-4-8(7)6(5)2/h3,6-8H,4H2,1-2H3	InChI=1S/C8H12/c1-5-3-7-4-8(7)6(5)2/h3,6-8H,4H2,1-2H3/t6-,7-,8-/m1/s1
