25
gdb 118063	3.31549	0.69583	0.60354	2.4367	85.76	-0.2548	0.0633	0.3181	1923.7497	0.226902	-426.631315	-426.619795	-426.618851	-426.668446	42.043	
C	-0.07839578	 1.6152594535	 0.172588405	-0.378598
C	-0.0763104606	 0.0855504134	 0.094620482	-0.177249
C	 0.82952974	-0.5576824238	 1.1513679746	-0.164275
C	 0.8515711243	-2.0996392656	 1.1355789498	-0.007761
C	 1.6149664018	-2.6489705591	-0.080337281	-0.409243
C	 1.4248404085	-2.6426050822	 2.4565178724	 0.094358
O	 0.6760904445	-2.1786071767	 3.5922555495	-0.440978
C	 1.5093436353	-4.1715544848	 2.5448738275	-0.071003
O	 1.9308809642	-4.5753036331	 3.8290644675	-0.425676
H	 0.9260462382	 2.0207592581	 0.0076928374	 0.114928
H	-0.7415964509	 2.0534503441	-0.5797814818	 0.110702
H	-0.4145548315	 1.960471261	 1.1565903724	 0.115084
H	-1.1013400705	-0.287952079	 0.2239448067	 0.090553
H	 0.232492211	-0.2220374449	-0.9118893336	 0.097267
H	 1.8577317922	-0.1885192649	 1.025368185	 0.089513
H	 0.5075126404	-0.2258697618	 2.1443469299	 0.107175
H	-0.191161138	-2.454385663	 1.0705513064	 0.057792
H	 1.5086680659	-3.7323687	-0.1811008461	 0.122044
H	 1.2492707587	-2.2004457877	-1.007781719	 0.120076
H	 2.6846125668	-2.4211841614	-0.0023010867	 0.119548
H	 2.4303951098	-2.2329449769	 2.6159787633	 0.095401
H	-0.2500740742	-2.4023899543	 3.4379144645	 0.280289
H	 0.5209370752	-4.6004202129	 2.2896283649	 0.068241
H	 2.2320505803	-4.567799036	 1.8257673456	 0.108646
H	 1.4981999784	-3.9628087819	 4.4390169838	 0.283163
59.3659	65.1776	94.4497	124.9723	149.3139	215.8732	245.9465	255.655	291.0243	324.5199	335.4475	359.7793	391.5314	457.7102	524.0798	537.879	582.5481	744.2076	843.0386	858.081	880.0382	920.9753	949.0402	1008.4097	1035.0484	1055.2502	1064.5418	1084.4387	1103.5454	1129.7246	1155.4854	1188.883	1214.2405	1238.1868	1271.5871	1300.1373	1318.8077	1329.4023	1361.2326	1377.1189	1379.8222	1396.2377	1409.8036	1414.0146	1421.5798	1449.0577	1485.2969	1494.3337	1499.8491	1500.3919	1505.103	1510.6335	1515.4893	2918.1669	2961.9065	3005.9822	3017.579	3029.7844	3034.8544	3042.4339	3046.222	3074.8285	3082.9393	3097.4008	3101.7688	3103.9675	3116.8095	3755.8457	3779.4537
CCCC(C)C(O)CO	CCC[C@@H](C)[C@@H](O)CO	
InChI=1S/C7H16O2/c1-3-4-6(2)7(9)5-8/h6-9H,3-5H2,1-2H3	InChI=1S/C7H16O2/c1-3-4-6(2)7(9)5-8/h6-9H,3-5H2,1-2H3/t6-,7+/m1/s1
