13
gdb 127766	3.66264	1.72438	1.18118	3.1528	65.69	-0.2501	-0.0401	0.21	950.2949	0.092082	-448.914036	-448.907403	-448.906458	-448.94546	24.212	
C	-0.0110871597	 1.4410302074	-0.0362110498	-0.34334
N	-0.005783115	-0.0022863224	 0.0737214567	-0.103625
N	-0.0444489992	-0.7761632457	-1.0598192251	-0.15022
N	-0.0313828105	-2.0540185414	-0.7346629367	-0.296838
C	 0.0160218286	-2.074788218	 0.6036464053	 0.362269
C	 0.0333868987	-0.8215891299	 1.1455227736	 0.360545
N	 0.0820248116	-0.8767988115	 2.5227891114	-0.356302
C	 0.090939909	-2.1634099281	 2.7276146077	 0.068938
O	 0.0531631034	-2.9795576159	 1.6225887195	-0.193022
H	 0.8983740016	 1.8611547388	 0.4013200199	 0.156272
H	-0.0545595035	 1.6813925363	-1.0983672968	 0.173235
H	-0.8824659552	 1.8597272638	 0.4740478636	 0.156333
H	 0.1251461602	-2.6705203735	 3.6792691406	 0.165755
92.2393	167.8993	257.8071	262.1322	386.7628	547.1085	627.8778	630.1796	663.526	717.3492	783.7347	843.4409	844.777	933.4162	978.6812	1079.9886	1147.3391	1154.0614	1208.5499	1260.1285	1273.3191	1346.3376	1441.4368	1474.5994	1482.0852	1503.2335	1508.8862	1579.0757	1601.258	3054.0114	3121.6813	3166.137	3280.081
CN1N=NC2=C1N=CO2	Cn1nnc2c1nco2	
InChI=1S/C4H4N4O/c1-8-3-4(6-7-8)9-2-5-3/h2H,1H3	InChI=1S/C4H4N4O/c1-8-3-4(6-7-8)9-2-5-3/h2H,1H3
