16
gdb 17886	2.83386	2.45605	2.26373	1.5795	63.66	-0.2422	-0.0081	0.2341	727.7763	0.132563	-383.721571	-383.715354	-383.71441	-383.751482	25.528	
O	 0.1806527373	 1.4259663878	 0.166569778	-0.430165
C	 0.0290018614	 0.0509765221	 0.0144526819	 0.125175
C	-1.3692542159	-0.6181807414	-0.1167589066	 0.04132
C	-2.3215770062	 0.2226198268	-0.9795891333	-0.271082
C	-1.6067278402	 0.6290781601	-2.2534382698	-0.082778
C	-0.3528531102	 0.2107189014	-2.4509223604	-0.073812
C	 0.2424529836	-0.6539619475	-1.3598409018	 0.001435
O	-0.7477137689	-1.63990513	-0.9449834173	-0.292851
H	-0.160772922	 1.8434797237	-0.6354422149	 0.281651
H	 0.6130894408	-0.43693725	 0.7960961436	 0.105978
H	-1.8502507553	-1.0376319754	 0.770643665	 0.077504
H	-3.2269425016	-0.3504466826	-1.2159285917	 0.122394
H	-2.651736486	 1.1072407935	-0.4181542061	 0.116701
H	-2.1384363444	 1.2334336094	-2.9830546839	 0.101547
H	 0.2244977352	 0.4689838055	-3.3322567427	 0.099338
H	 1.2047746124	-1.1050384435	-1.60790484	 0.077645
211.0275	237.24	343.9291	413.3424	459.7698	501.4014	572.3173	610.6385	666.1211	738.8064	816.0796	840.7659	884.3402	919.1738	922.0335	973.2202	994.669	1008.0135	1027.5226	1083.4779	1120.6127	1160.914	1170.2545	1208.8931	1233.3339	1283.3134	1311.1012	1315.8837	1346.1958	1367.2117	1398.4833	1436.116	1464.6735	1683.5631	3019.7334	3051.872	3078.2772	3097.1109	3112.7629	3162.972	3191.6825	3749.3831
OC1C2CC=CC1O2	O[C@H]1[C@H]2CC=C[C@@H]1O2	
InChI=1S/C6H8O2/c7-6-4-2-1-3-5(6)8-4/h1-2,4-7H,3H2	InChI=1S/C6H8O2/c7-6-4-2-1-3-5(6)8-4/h1-2,4-7H,3H2/t4-,5+,6+/m0/s1
