17
gdb 90690	2.7475	1.47185	1.15826	5.4589	68.69	-0.2396	0.0202	0.2598	1066.3321	0.136785	-455.116806	-455.108604	-455.10766	-455.150058	31.507	
N	 0.4142233969	 0.8886126972	-0.5111146872	-0.529457
C	-0.0747062358	-0.0001720175	 0.3885712454	 0.345949
O	 0.3809603192	-0.1357762552	 1.5098909524	-0.365361
C	-1.2697245313	-0.8542577328	-0.0145475624	-0.064274
C	-2.053997705	-0.9722547851	-1.2701196023	-0.096504
C	-1.2725919243	-0.9133190208	-2.5657377264	 0.093186
O	-0.8855736753	 0.384310666	-2.9964743765	-0.421667
C	-0.2623797795	-1.90628875	-1.9302417917	-0.221333
N	-1.1857245546	-2.1308033336	-0.7559762833	-0.139186
H	 1.193659902	 1.4538491397	-0.215276761	 0.254375
H	 0.0181120796	 1.0036007377	-1.4352229875	 0.275069
H	-1.8805766277	-1.0070886355	 0.871818746	 0.128818
H	-3.1380606462	-1.0154811659	-1.2279620065	 0.103705
H	-1.8411514945	-1.4078729135	-3.3613147643	 0.101588
H	-0.4269815815	 0.3061791575	-3.8398397539	 0.293711
H	-0.1335433411	-2.8356076578	-2.4870112495	 0.116307
H	 0.7142513791	-1.4968137203	-1.6633220012	 0.125073
33.5249	184.2702	213.6628	242.5468	310.3946	362.7694	412.2809	444.4988	451.5731	514.8644	603.077	659.8761	716.647	759.1885	774.3271	790.8286	867.9955	904.6692	974.5877	1005.2766	1034.2829	1063.5011	1104.2577	1141.733	1153.4548	1188.9361	1204.657	1230.4519	1280.5711	1320.1762	1359.8649	1380.5971	1421.8588	1430.5278	1498.9084	1648.0585	1784.3177	3040.8991	3075.6946	3134.5668	3147.3659	3161.7085	3508.4286	3686.83	3813.3354
NC(=O)C1C2C(O)CN12	NC(=O)[C@H]1[C@H]2[C@@H](O)CN12	
InChI=1S/C5H8N2O2/c6-5(9)4-3-2(8)1-7(3)4/h2-4,8H,1H2,(H2,6,9)	InChI=1S/C5H8N2O2/c6-5(9)4-3-2(8)1-7(3)4/h2-4,8H,1H2,(H2,6,9)/t2-,3+,4+,7?/m0/s1
