16
gdb 14427	4.02538	1.87614	1.68085	1.8581	63.92	-0.2322	0.0703	0.3026	808.0019	0.130954	-383.676521	-383.669711	-383.668767	-383.706998	27.377	
O	-0.113683972	 1.4691504175	-0.0700820844	-0.438541
C	-0.0120179641	 0.0634879371	-0.0929901538	 0.157564
C	-1.320866037	-0.6979248545	-0.1195147987	-0.135392
C	-1.753100119	-0.8340739282	-1.6065641699	-0.14982
C	-0.696896649	-0.1111951967	-2.4402253705	-0.217918
C	 0.344772402	-0.6597735068	-1.4308514724	-0.20468
C	-0.7293863591	-1.7610236487	-0.9985996749	 0.364992
O	-0.6657899811	-3.1080912513	-0.762571694	-0.451415
H	 0.7757316827	 1.8363898976	-0.0385155295	 0.279787
H	 0.6254537711	-0.307805812	 0.7213901237	 0.071283
H	-2.0417045584	-0.8269899985	 0.6767988523	 0.090481
H	-2.7899342103	-1.0371004921	-1.8418446016	 0.086899
H	-0.5839143271	-0.5622711461	-3.4300561795	 0.087794
H	-0.7608637709	 0.9774543306	-2.5218550617	 0.103894
H	 1.3820262197	-0.828628309	-1.7150092237	 0.064147
H	-0.6232091375	-3.5654370088	-1.6101339814	 0.290925
177.0653	272.1878	282.9509	299.4473	338.5761	383.0996	513.4214	574.7032	641.7424	701.0122	732.0138	805.467	890.6466	909.1865	946.0964	961.8824	974.159	1005.3677	1010.4904	1033.0998	1092.2166	1109.4287	1123.9075	1150.1614	1173.4935	1215.1714	1246.6344	1259.6399	1293.7295	1312.3966	1335.7787	1428.0843	1480.6005	1498.7662	3008.4214	3052.7562	3108.9747	3130.6999	3199.0761	3211.1382	3785.7603	3812.8402
OC1C2C3CC1C23O	O[C@H]1[C@H]2[C@H]3C[C@@H]1[C@@]23O	
InChI=1S/C6H8O2/c7-5-3-1-2-4(5)6(2,3)8/h2-5,7-8H,1H2	InChI=1S/C6H8O2/c7-5-3-1-2-4(5)6(2,3)8/h2-5,7-8H,1H2/t2-,3+,4-,5-,6-/m1/s1
