15
gdb 19889	4.13446	1.95527	1.63042	2.5608	70.9	-0.2049	0.0458	0.2507	806.651	0.118446	-325.388522	-325.381908	-325.380964	-325.418931	26.686	
C	-0.2079479383	-1.3077415302	-0.1579372495	-0.456576
C	 0.028167875	-0.1409829044	 0.016698598	 0.351676
C	 0.1294173576	 1.2906236202	 0.1051616648	-0.200007
C	 0.500926576	 2.1758719363	 1.2831402528	-0.087176
C	 1.7503100935	 1.7151353234	 2.084445998	-0.060827
N	 2.2488569848	 0.444987266	 1.511305302	-0.313606
C	 2.5714649788	 1.732882106	 0.8574210257	-0.060825
C	 1.3480988679	 2.194173254	 0.0172344132	-0.087189
H	-0.3568840241	-2.3522894227	-0.2722659939	 0.181987
H	-0.6895506461	 1.7662401765	-0.4360305399	 0.118308
H	-0.1822913611	 2.9324635762	 1.6479886506	 0.095034
H	 1.9855732003	 2.0150256005	 3.0967960356	 0.096698
H	 3.0658843239	 0.1657751471	 2.0540400155	 0.230773
H	 3.5929070913	 2.0497633707	 0.6950086291	 0.096697
H	 1.4146093705	 2.9669591205	-0.738219312	 0.095033
143.0913	172.5974	318.4019	351.2408	456.0112	591.1794	612.5751	626.9499	666.224	710.7475	714.0214	744.35	820.1747	856.5086	878.8756	909.2779	931.4348	950.8052	990.7832	1005.2804	1033.637	1071.2327	1108.6227	1125.7062	1180.7038	1244.9825	1247.0107	1314.0952	1335.3096	1362.9003	1422.0137	2230.4355	3100.7037	3183.2098	3193.6344	3198.793	3211.4475	3471.2067	3505.7673
C#CC1C2C3NC3C12	C#C[C@H]1[C@H]2[C@H]3N[C@H]3[C@@H]12	
InChI=1S/C7H7N/c1-2-3-4-5(3)7-6(4)8-7/h1,3-8H	InChI=1S/C7H7N/c1-2-3-4-5(3)7-6(4)8-7/h1,3-8H/t3-,4+,5-,6+,7-
