19
gdb 93214	2.80818	1.34722	0.95186	4.5658	79.41	-0.261	-0.0392	0.2218	1249.4798	0.159189	-423.085742	-423.076885	-423.075941	-423.119191	33.029	
C	-0.2795694803	 1.4906688779	 0.0111203201	-0.404459
C	 0.008343043	-0.0161460217	-0.0185136447	-0.061633
C	 0.8581277695	-0.3871323415	-1.2295670641	-0.080213
O	 1.2610689275	-1.7617769915	-1.2213402339	-0.237493
C	 1.7983910552	-2.2726768256	-0.083138828	 0.383878
O	 2.3547893577	-3.3406502272	-0.1214613027	-0.334016
C	 1.6062990969	-1.5030926459	 1.1816327651	 0.131984
C	 2.3565782168	-2.0187217333	 2.3758273784	-0.472872
C	 0.7317031576	-0.4905306372	 1.2134931005	-0.138725
H	 0.6481089308	 2.0684777921	 0.0831799985	 0.126038
H	-0.8078433464	 1.8079839112	-0.8934174165	 0.123382
H	-0.9036140449	 1.749419673	 0.871686818	 0.125269
H	-0.9526260368	-0.5489653856	-0.0881476763	 0.10533
H	 0.3129457983	-0.251202666	-2.1666216969	 0.121816
H	 1.755262431	 0.2474053693	-1.2575053715	 0.109128
H	 2.1228472712	-3.0728149556	 2.5521300204	 0.149794
H	 3.4379319757	-1.9679174419	 2.2098061887	 0.139772
H	 2.1125080821	-1.4416743525	 3.2712291841	 0.114797
H	 0.515889315	 0.0111564221	 2.1553754409	 0.098225
83.6063	143.143	175.9639	217.3203	233.8786	263.7194	316.6302	350.8349	435.7128	440.6725	512.0599	587.9465	627.1689	772.3801	780.9484	869.8852	895.43	946.1871	968.3273	1015.151	1071.298	1077.0985	1080.9397	1117.4272	1153.7085	1176.2727	1222.8883	1282.5957	1316.638	1358.5168	1374.9262	1409.5981	1415.2923	1429.8286	1469.9155	1486.5479	1496.636	1500.495	1504.9224	1714.1958	1816.907	2986.7052	3012.7369	3035.2789	3041.5816	3100.2817	3100.52	3106.5938	3110.4341	3125.642	3142.5272
CC1COC(=O)C(C)=C1	C[C@H]1COC(=O)C(=C1)C	
InChI=1S/C7H10O2/c1-5-3-6(2)7(8)9-4-5/h3,5H,4H2,1-2H3	InChI=1S/C7H10O2/c1-5-3-6(2)7(8)9-4-5/h3,5H,4H2,1-2H3/t5-/m1/s1
