20
gdb 91547	2.88509	1.32389	1.0893	2.122	79.24	-0.2338	0.0717	0.3055	1174.1951	0.171751	-403.084641	-403.076121	-403.075176	-403.118386	32.775	
O	 0.6398882984	 1.1170458261	-0.0016722787	-0.434557
C	 0.3222774559	-0.2330508207	 0.2628558831	 0.047651
C	 0.015803832	-0.6668693204	 1.7402017563	-0.270597
C	-1.3945535853	-1.0533550438	 1.2906295827	-0.110081
C	-2.0792024412	 0.1504021476	 0.7076529867	-0.335519
C	-1.1015836332	-0.6083076141	-0.1543302703	 0.380663
C	-1.4062191999	-1.2305881816	-1.4688522847	-0.137944
C	-2.7037456796	-1.0482273584	-2.16711767	-0.243996
N	-1.4973999971	-0.3797940944	-2.6789514977	-0.317299
H	 1.5560436464	 1.2702501324	 0.2505108476	 0.284324
H	 1.0549618373	-0.9079698964	-0.1999234733	 0.072657
H	 0.6318486643	-1.5070846073	 2.0692109425	 0.099359
H	 0.0712860676	 0.134382061	 2.4840770085	 0.096348
H	-1.9500627373	-1.924251774	 1.6160129337	 0.090129
H	-3.1245091083	 0.0090337501	 0.4560378282	 0.112098
H	-1.8309780543	 1.1468868442	 1.0621327453	 0.120071
H	-0.8655164898	-2.156729315	-1.6621166453	 0.084115
H	-3.0870199487	-1.8448294435	-2.7991358252	 0.115744
H	-3.4702851138	-0.4456694966	-1.6894596482	 0.109374
H	-1.5023204633	 0.5946086048	-2.3835578314	 0.237459
35.7959	117.06	186.4099	219.3373	274.2432	330.7904	346.8039	425.1744	472.3144	542.4128	668.1018	704.1	827.2027	830.6961	838.8783	867.0857	904.5062	938.1432	960.557	973.5104	988.8601	1025.0694	1039.6234	1074.8393	1091.4892	1112.4611	1119.4735	1147.6273	1168.4867	1196.2336	1200.1257	1209.2598	1248.4855	1260.255	1280.9231	1303.2124	1320.4584	1381.3083	1416.5786	1448.0438	1476.545	1500.7479	1512.4549	3007.0686	3047.1634	3103.3341	3106.4987	3113.1343	3122.8293	3187.8956	3196.221	3213.8576	3490.2195	3816.029
OC1CC2CC12C1CN1	O[C@H]1C[C@H]2C[C@@]12[C@H]1CN1	
InChI=1S/C7H11NO/c9-6-1-4-2-7(4,6)5-3-8-5/h4-6,8-9H,1-3H2	InChI=1S/C7H11NO/c9-6-1-4-2-7(4,6)5-3-8-5/h4-6,8-9H,1-3H2/t4-,5+,6-,7+/m0/s1
