16
gdb 128249	3.83425	1.20242	0.92126	3.8166	79.56	-0.2176	-0.0411	0.1765	1226.0384	0.126235	-430.255385	-430.247024	-430.24608	-430.288496	30.633	
C	-0.0374351878	 1.4614319875	-0.0084593808	-0.313323
N	 0.1043308721	 0.0124106519	-0.0058530457	-0.367624
C	 0.6482844306	-0.6359609611	-1.0719865265	 0.573926
N	 0.6227321845	-2.0002787918	-1.0445470944	-0.396521
H	 0.237134752	-2.5114535558	-0.2614984441	 0.258725
C	 1.1801982357	-2.7723714021	-2.0640739505	 0.350297
N	 1.1188893612	-4.0466864167	-1.9732833567	-0.559002
C	 1.7708691765	-1.9234787242	-3.0935018703	-0.058658
N	 1.7766846851	-0.6305885704	-3.0715173179	-0.166803
N	 1.1877631161	 0.0612952739	-2.0453967025	-0.338709
H	 0.9248259251	 1.917146811	-0.2436139688	 0.169548
H	-0.7658455983	 1.8098119796	-0.7501598832	 0.137881
H	-0.3540453791	 1.7766579	 0.9878074671	 0.125072
H	-0.5536525744	-0.506217061	 0.5533931157	 0.248009
H	 1.5667532538	-4.4784742368	-2.7798128506	 0.220936
H	 2.2484534169	-2.4067948039	-3.941873251	 0.116244
96.2354	117.1088	162.8527	211.3568	222.1808	319.9863	382.3724	415.7961	492.4907	556.1429	609.4917	640.1071	717.5467	761.0627	764.5907	808.5554	901.1188	962.0766	1008.8016	1066.2671	1097.3019	1152.9923	1170.7883	1190.9204	1293.6354	1336.0066	1394.8285	1450.13	1454.3251	1481.1236	1512.3891	1550.2313	1596.4522	1611.7083	1714.6391	3034.3064	3111.7009	3154.4845	3165.9891	3502.0578	3583.9675	3634.593
CNC1=[NH+]C(=N)C=N[N-]1	CNc1[nH]c([NH])cnn1	
InChI=1S/C4H6N5/c1-6-4-8-3(5)2-7-9-4/h2H,1H3,(H2-,5,6,8,9)/q-1/p+1	InChI=1S/C4H12N5/c1-6-4-8-3(5)2-7-9-4/h3-9H,2H2,1H3
