21
gdb 120205	3.58639	0.84654	0.77098	2.3315	79.5	-0.2595	0.0783	0.3378	1525.5733	0.182563	-424.160716	-424.151612	-424.150668	-424.195082	34.5	
O	-0.0199158829	 1.4613560273	-0.244552573	-0.421276
C	 0.0187287564	 0.0568617653	-0.036385092	-0.065465
C	-1.4004619517	-0.4804535222	-0.1897920764	-0.240172
C	-1.4577051556	-1.994605208	-0.0428360013	 0.054071
C	-1.3896306396	-2.7045810334	 1.3556955126	-0.115328
C	-2.8614298427	-2.2717309797	 1.6011882716	-0.239644
C	-2.8197373764	-2.7531723951	 0.1214461597	-0.098251
C	-2.005361743	-3.9590611789	 0.6490954692	 0.152582
O	-1.2689399824	-4.6729369467	-0.3110054535	-0.439766
H	 0.873668308	 1.8036434678	-0.1507661564	 0.283649
H	 0.6835544764	-0.4358793712	-0.7648235103	 0.083721
H	 0.4022532924	-0.1856017472	 0.968309844	 0.083842
H	-2.0410892685	 0.0410452365	 0.5272928873	 0.104157
H	-1.7622870233	-0.2020324135	-1.1877256621	 0.105564
H	-0.8055091508	-2.4636869742	-0.7830808673	 0.083276
H	-0.5688415338	-2.6895224331	 2.076274714	 0.060993
H	-3.4429343896	-2.8842576957	 2.2970652253	 0.087909
H	-3.0471389453	-1.2131556163	 1.7727708744	 0.103771
H	-3.6479463416	-2.7874339958	-0.5883035349	 0.070252
H	-2.5561987007	-4.6377741657	 1.3141742386	 0.061961
H	-0.6705903153	-5.2669236204	 0.1523042005	 0.284154
66.2073	84.3841	118.9638	251.4631	265.3826	266.8453	314.2641	358.5486	370.7033	455.864	549.2993	651.9369	753.2989	772.4309	832.1117	865.5442	886.7496	897.7563	902.8438	1014.7415	1020.8261	1028.0151	1055.7897	1068.8692	1080.2972	1109.5504	1129.8534	1146.5873	1159.8002	1188.7469	1206.0898	1215.8153	1225.9519	1250.9408	1255.7925	1266.5158	1310.4603	1320.8601	1335.4611	1426.4457	1442.0428	1460.7202	1490.1652	1523.7903	1529.1318	2958.6787	2984.0195	3010.5499	3034.8124	3058.0973	3076.3358	3085.8248	3094.9022	3101.9712	3148.9434	3823.502	3830.2018
OCCC1C2CC1C2O	OCC[C@H]1[C@H]2C[C@@H]1[C@H]2O	
InChI=1S/C7H12O2/c8-2-1-4-5-3-6(4)7(5)9/h4-9H,1-3H2	InChI=1S/C7H12O2/c8-2-1-4-5-3-6(4)7(5)9/h4-9H,1-3H2/t4-,5+,6-,7-
