19
gdb 82101	2.95272	1.2796	1.04177	1.7836	74.89	-0.2474	0.0607	0.3081	1181.7314	0.159155	-422.962403	-422.954081	-422.953137	-422.995805	31.677	
O	-0.2802427796	 1.4607933551	 0.2553494194	-0.42644
C	-0.096492952	 0.0723167754	 0.0641760227	 0.079455
C	-1.3985174387	-0.7151496459	 0.0391823445	-0.053275
C	-2.2455409025	-0.281241847	-1.1230333123	-0.283672
C	-1.0917872244	-1.2073538452	-1.3819439797	-0.063772
C	 0.2407136866	-0.4447081038	-1.3927651051	-0.075015
C	 0.4928614187	 0.5725651677	-2.4709651339	 0.087374
C	 1.8541994983	 1.0079229455	-2.8194247464	-0.192406
O	 1.1465599844	 0.095406676	-3.655480426	-0.239203
H	 0.5845130108	 1.8834199164	 0.2383682153	 0.283767
H	 0.6162382938	-0.3328910776	 0.7936428551	 0.071134
H	-1.8095072356	-1.258491575	 0.8804867414	 0.086686
H	-3.2241363174	-0.7474497865	-1.1703643223	 0.11288
H	-2.2316671938	 0.7528270237	-1.4514539256	 0.124554
H	-1.2352148491	-2.1989306927	-1.7922005835	 0.09223
H	 1.0920762089	-1.1311986596	-1.363347403	 0.07588
H	-0.3183894464	 1.2698989342	-2.674346537	 0.099975
H	 2.0168007706	 2.0007829924	-3.2375371868	 0.113501
H	 2.7071757574	 0.5865620868	-2.2867703069	 0.106346
56.6046	127.235	143.4518	227.4839	279.8855	316.2804	333.2875	491.8405	512.36	582.3748	719.8357	784.4415	805.0586	824.8668	860.532	903.5867	927.8798	948.7447	979.5109	1013.569	1025.961	1053.9413	1065.2633	1086.4129	1094.2529	1119.1642	1154.2247	1165.4442	1168.5416	1183.0894	1221.0203	1233.2437	1277.4909	1292.1067	1304.2346	1329.6383	1366.2695	1423.1117	1455.2959	1495.0975	1528.5143	3014.7976	3065.0612	3074.0718	3122.0621	3132.3809	3159.4028	3186.4191	3195.0968	3214.519	3815.9301
OC1C2CC2C1C1CO1	O[C@H]1[C@H]2C[C@H]2[C@H]1[C@H]1CO1	
InChI=1S/C7H10O2/c8-7-4-1-3(4)6(7)5-2-9-5/h3-8H,1-2H2	InChI=1S/C7H10O2/c8-7-4-1-3(4)6(7)5-2-9-5/h3-8H,1-2H2/t3-,4+,5-,6+,7+/m1/s1
