19
gdb 126559	4.55673	0.81719	0.72652	3.2702	78.78	-0.2198	0.0344	0.2543	1592.2455	0.161107	-415.430782	-415.421493	-415.420549	-415.465523	33.811	
C	-0.0924122513	 1.514024948	-0.0086122784	-0.380515
C	-0.0755065823	-0.0149513171	-0.0633261342	-0.158316
C	 0.8438312431	-0.5575466104	-1.1718354965	-0.285096
C	 0.8248144642	-2.0486609246	-1.263160066	 0.345904
N	 1.8909792977	-2.7891900939	-1.0238181004	-0.280679
N	 1.4060832579	-4.0591507439	-1.2133426011	-0.250871
C	 0.0994946797	-4.0071418114	-1.5506485824	 0.404246
N	-0.69194111	-5.1236568764	-1.7433467711	-0.600437
N	-0.3057697036	-2.7530569513	-1.597896602	-0.360217
H	 0.9093778951	 1.9170675106	 0.178506699	 0.112737
H	-0.4476764367	 1.940327307	-0.9536825198	 0.112768
H	-0.7505367386	 1.8760066827	 0.7875289675	 0.109838
H	 0.2539330466	-0.4190923445	 0.9017246668	 0.09953
H	-1.0884448183	-0.3978773495	-0.2290436136	 0.115772
H	 0.5261186107	-0.137771734	-2.1349858826	 0.108503
H	 1.8762473569	-0.2368589711	-1.0012386296	 0.113121
H	 1.9969032512	-4.8544097651	-1.0422252732	 0.27094
H	-0.2515675601	-5.8787824552	-2.2509695578	 0.254074
H	-1.5802920922	-4.8711028901	-2.1545314845	 0.268697
50.8577	86.0227	103.3904	242.39	248.822	266.7453	293.914	321.5686	381.4176	445.1996	459.2456	645.3248	683.2343	730.2897	752.3279	777.9931	817.395	879.4159	903.813	1015.7242	1047.3144	1064.3078	1081.9565	1113.097	1129.6068	1141.6958	1252.8533	1304.5966	1314.8981	1334.3396	1379.4479	1401.7168	1411.0215	1472.2649	1491.7681	1497.3849	1498.6401	1510.5178	1573.0803	1603.4859	1659.3064	3023.7413	3027.1971	3036.8987	3065.1405	3087.2242	3100.2392	3101.753	3556.3081	3654.5131	3676.3273
CCCC1=NNC(N)=N1	CCCc1n[nH]c(N)n1	
InChI=1S/C5H10N4/c1-2-3-4-7-5(6)9-8-4/h2-3H2,1H3,(H3,6,7,8,9)	InChI=1S/C5H10N4/c1-2-3-4-7-5(6)9-8-4/h2-3H2,1H3,(H3,6,7,8,9)
