19
gdb 115169	2.21382	1.56727	1.15761	2.4238	71.54	-0.2456	-0.026	0.2196	1129.642	0.158278	-460.18164	-460.17261	-460.171665	-460.215495	33.421	
C	 0.5607417939	 0.6627344863	 0.4592763891	-0.241683
O	-0.0821602088	-0.5331772113	 0.0483202186	-0.257955
C	-1.4852002734	-0.4363663938	-0.0875274275	 0.066578
C	-1.947774314	-1.6487930531	-0.9264990849	-0.244033
C	-1.9305245795	-2.8445540915	 0.055240847	-0.318891
C	-1.9980884939	-2.195828821	 1.4313540851	 0.380951
O	-1.8348397097	-2.7049996026	 2.5126458203	-0.334481
C	-2.2082171443	-0.6934776336	 1.2516498463	 0.058157
O	-1.7879618105	 0.034365976	 2.3671693871	-0.442031
H	 1.6336438324	 0.4550045773	 0.4653646036	 0.123535
H	 0.3646729499	 1.4789742283	-0.2531587534	 0.10129
H	 0.2395083612	 0.9759738637	 1.4565611703	 0.138437
H	-1.7656038553	 0.5230473724	-0.5427665454	 0.070123
H	-2.957486115	-1.468240532	-1.3072518814	 0.109363
H	-1.2848700794	-1.7894754538	-1.7811503199	 0.122026
H	-2.7528939159	-3.5519365718	-0.085932035	 0.132768
H	-1.0009081918	-3.4180388391	-0.0025295686	 0.152274
H	-3.2903483007	-0.5435384493	 1.067180789	 0.089883
H	-1.6440834653	-0.6268253114	 3.0631608797	 0.293688
82.3525	110.3975	131.8071	189.7278	231.7851	277.2835	310.6448	385.8899	415.5401	471.6841	511.162	605.9407	634.8948	716.2881	756.0492	813.3915	906.9286	928.1731	960.2967	1015.7439	1034.5758	1110.4361	1144.1755	1164.8217	1179.9505	1188.5887	1204.1063	1219.3229	1231.4145	1291.573	1304.2014	1327.5509	1373.6841	1385.7854	1424.3059	1443.5581	1479.0265	1482.1693	1482.9639	1520.1125	1841.2275	2916.4209	2988.093	3015.2746	3063.6454	3068.2843	3083.9946	3105.9345	3126.6439	3129.7517	3688.2556
COC1CCC(=O)C1O	CO[C@H]1CCC(=O)[C@H]1O	
InChI=1S/C6H10O3/c1-9-5-3-2-4(7)6(5)8/h5-6,8H,2-3H2,1H3	InChI=1S/C6H10O3/c1-9-5-3-2-4(7)6(5)8/h5-6,8H,2-3H2,1H3/t5-,6+/m0/s1
