18
gdb 62853	2.75185	1.564	1.36495	3.3139	71.35	-0.2294	-0.0134	0.216	1001.9132	0.147912	-439.069355	-439.061445	-439.060501	-439.101255	31.735	
C	-0.1637642087	 1.6180718449	 0.0596941229	-0.485173
C	 0.0087922328	 0.1083817639	 0.0073319509	 0.424889
O	-1.2535215325	-0.5370428338	 0.0479619355	-0.478846
C	 0.858482129	-0.614430162	-1.0833887611	-0.054557
C	 2.231803171	 0.0685591123	-1.0302488622	-0.330737
C	 2.358677647	 0.0909051908	 0.5103957752	 0.4644
O	 3.2126867926	 0.5779219405	 1.1978362192	-0.335017
C	 1.0734316173	-0.627555144	 0.9139502248	-0.196989
N	 1.1104565579	-1.7498471776	-0.1099106678	-0.344886
H	 0.7882451521	 2.1535960424	 0.0414874478	 0.13929
H	-0.7752949611	 1.957118292	-0.7820299706	 0.133534
H	-0.6763271374	 1.9067820365	 0.9857806644	 0.117088
H	-1.7224874045	-0.2299776454	 0.8314750941	 0.283828
H	 0.4294683235	-0.8613961397	-2.0541811671	 0.083334
H	 3.0071248773	-0.5557410746	-1.4804395266	 0.141917
H	 2.2838782809	 1.0709487039	-1.4609891827	 0.123214
H	 0.9204355524	-0.8603668497	 1.9667991547	 0.079443
H	 0.2203591303	-2.2368725102	-0.0086112313	 0.235269
123.4788	208.4872	219.176	282.1651	325.9032	380.2481	411.7992	440.6638	471.1798	549.1337	600.2227	620.7255	659.8321	765.4087	823.4835	842.4029	908.9364	941.0402	953.7625	969.1568	976.5309	1068.4947	1089.485	1106.2923	1137.4691	1149.766	1151.4861	1195.139	1217.9616	1259.3317	1272.8717	1319.0206	1364.8991	1381.0339	1415.9984	1452.0304	1491.8865	1494.7747	1878.4564	3030.5696	3077.4934	3095.8292	3125.2542	3126.6221	3131.8606	3137.5465	3475.4139	3805.3006
CC1(O)C2CC(=O)C1N2	C[C@@]1(O)[C@H]2CC(=O)[C@@H]1N2	
InChI=1S/C6H9NO2/c1-6(9)4-2-3(8)5(6)7-4/h4-5,7,9H,2H2,1H3	InChI=1S/C6H9NO2/c1-6(9)4-2-3(8)5(6)7-4/h4-5,7,9H,2H2,1H3/t4-,5+,6-/m1/s1
