17
gdb 39522	3.15984	1.94238	1.55865	1.9981	71.28	-0.244	-0.0144	0.2296	876.5609	0.140075	-417.967384	-417.961055	-417.960111	-417.997824	25.925	
C	-0.048654507	 1.4526024012	 0.1400709334	-0.197568
N	 1.3658075549	 1.8669248609	 0.2152531557	-0.2189
C	 2.0578271152	 0.8692354779	-0.1732912505	 0.184585
C	 3.4245586677	 0.550157958	 0.3373084094	-0.101
O	 3.2218935875	-0.5111202182	 1.3017034007	-0.272456
C	 1.8710667281	-0.6575228965	 1.7523985419	-0.101668
C	 0.9545567756	-0.9833543767	 0.5631010781	-0.056941
C	 0.0155686654	-0.0443081208	-0.1587574647	-0.059623
N	 1.3691233314	-0.2862066857	-0.6851498795	-0.11543
H	-0.5363199719	 1.7109758197	 1.0865249698	 0.122085
H	-0.5878321706	 1.98261133	-0.6558896038	 0.123224
H	 4.100073223	 0.1576656012	-0.4277447944	 0.124189
H	 3.865217021	 1.4287174566	 0.819440523	 0.120795
H	 1.8929619734	-1.5016275741	 2.4449213925	 0.119725
H	 1.5380796526	 0.2274081955	 2.3072928989	 0.1172
H	 0.7646673625	-2.043502291	 0.4112124797	 0.108548
H	-0.7972033886	-0.5014199679	-0.7144157802	 0.103233
170.024	281.1038	286.9282	367.8595	438.2875	488.9625	572.4887	678.8525	752.1805	780.8466	801.5824	853.67	878.9898	887.7848	946.7508	967.5908	986.6294	1002.076	1051.5213	1059.5662	1090.1438	1099.8242	1152.8097	1192.0932	1212.3383	1233.9717	1264.0435	1281.4959	1323.1891	1352.9808	1371.3501	1381.5765	1403.7309	1489.1933	1500.9012	1506.5077	1697.1548	3025.8563	3032.7194	3047.7724	3064.9059	3102.2201	3106.8764	3133.457	3165.1728
C1N=C2COCC3C1N23	C1[N][C]2COC[C@H]3[C@@H]1N23	
InChI=1S/C6H8N2O/c1-4-5-2-9-3-6(7-1)8(4)5/h4-5H,1-3H2	InChI=1S/C6H8N2O/c1-4-5-2-9-3-6(7-1)8(4)5/h4-5H,1-3H2/t4-,5+,8?/m1/s1
