14
gdb 19415	3.28184	2.1791	1.65474	1.1626	56.79	-0.2475	0.0611	0.3086	781.6379	0.106086	-419.597503	-419.590784	-419.589839	-419.628365	25.623	
O	 0.2145382808	 1.3974318504	-0.053812834	-0.428382
C	 0.0140827625	 0.0152945815	-0.0393251276	 0.030872
C	 0.2928328599	-0.7315051252	 1.2839431274	-0.018144
O	-0.6526436096	-0.1952448263	 2.2243805693	-0.255369
C	-1.0860153664	-1.2511203598	 1.3430657654	-0.089614
C	-1.4392173255	-0.5483565188	 0.0445973642	 0.403568
C	-2.7022134943	-0.0242009986	-0.4613808972	-0.266722
O	-2.0671819521	-1.1769855154	-1.0507821522	-0.275435
H	-0.1731824234	 1.7346639735	 0.7640557903	 0.291508
H	 0.5375867805	-0.4130390224	-0.8985788508	 0.113828
H	 1.2183233687	-1.1331358861	 1.6788719508	 0.115745
H	-1.4832272455	-2.156673783	 1.7840390924	 0.123227
H	-3.629634663	-0.2256604805	 0.0718737166	 0.123356
H	-2.6938162226	 0.8723334308	-1.0785007247	 0.131563
117.6684	197.6038	233.4545	309.006	414.7455	474.1234	496.7965	612.1157	660.4193	774.3143	844.2051	852.7369	883.3596	890.4039	920.4189	989.342	1012.4712	1053.7113	1116.0762	1122.677	1144.8153	1162.4914	1199.1598	1215.3595	1261.5164	1289.6383	1361.3892	1429.485	1451.4645	1535.886	3090.0275	3090.8858	3182.1285	3191.0479	3209.4546	3775.7837
OC1C2OC2C11CO1	O[C@H]1[C@H]2O[C@H]2[C@]21CO2	
InChI=1S/C5H6O3/c6-3-2-4(8-2)5(3)1-7-5/h2-4,6H,1H2	InChI=1S/C5H6O3/c6-3-2-4(8-2)5(3)1-7-5/h2-4,6H,1H2/t2-,3+,4-,5-/m1/s1
