17
gdb 67723	3.69133	1.80159	1.57944	1.0115	77.22	-0.1993	-0.0207	0.1786	870.3473	0.136786	-384.58027	-384.573882	-384.572938	-384.610393	27.83	
O	-0.1215419251	 1.3204917412	 0.0852265868	-0.477437
C	 0.0249214141	-0.0552232384	-0.0263381453	 0.376902
C	-0.4506734047	-0.853276634	-1.1708079893	-0.192831
C	-0.0675337765	-2.1341679968	-0.9563129509	 0.015903
C	-1.1201060623	-2.9991464217	-0.2489029202	-0.273162
C	-0.4064216362	-2.3830202607	 1.0313931462	-0.030466
C	-0.3297277267	-0.8428973242	 1.2909981645	-0.126396
C	 1.0960345656	-0.779780171	 0.7535176197	-0.159532
C	 0.92099376	-2.2063424074	 0.2365550278	-0.075726
H	 0.5974151963	 1.7351278207	-0.4047517264	 0.284814
H	-1.3846519468	-0.5886597171	-1.6585750539	 0.098036
H	-2.1682941555	-2.772317382	-0.4515946794	 0.107721
H	-0.9568271433	-4.0830001242	-0.2550565592	 0.10205
H	-0.419806478	-2.9742780979	 1.9501962881	 0.086329
H	-0.7742832249	-0.289736676	 2.1069774035	 0.101496
H	 1.9727142271	-0.2903023252	 1.1561049089	 0.089999
H	 1.7079549969	-2.9575127752	 0.2382467691	 0.072299
239.169	272.2611	351.2655	406.3919	467.0388	522.6364	569.1254	642.8208	666.9223	711.9008	763.9921	808.4241	812.3922	844.5944	868.8651	881.067	904.6491	916.6556	938.8491	968.0454	998.6773	1019.0275	1044.9546	1055.5454	1101.0125	1154.6886	1162.9035	1195.1789	1200.9172	1229.1929	1242.6251	1264.0437	1310.2046	1322.8397	1380.2429	1492.35	1566.3284	3035.3059	3085.4718	3118.5006	3130.3336	3165.5493	3200.9231	3216.1354	3792.221
OC12C=C3CC4C1C2C34	O[C@]12[CH][C]3C[C@@H]4[C@H]1[C@H]2[C@H]34	
InChI=1S/C8H8O/c9-8-2-3-1-4-5(3)7(8)6(4)8/h2,4-7,9H,1H2	InChI=1S/C8H8O/c9-8-2-3-1-4-5(3)7(8)6(4)8/h2,4-7,9H,1H2/t4-,5+,6-,7+,8+/m0/s1
