19
gdb 100214	2.60261	1.11536	0.95986	5.9096	79.56	-0.3262	0.0116	0.3379	1305.8528	0.157464	-382.11012	-382.099889	-382.098945	-382.14532	36.476	
C	-0.1178820429	 1.5426550701	 0.1256630858	-0.413471
C	 0.0290539922	 0.0266046148	-0.0190864014	-0.191482
C	 0.7621807224	-0.4518722458	-1.3048066435	 0.061293
C	 2.2183702548	 0.0555281792	-1.3603755268	-0.420141
C	 0.7289545475	-2.0121619463	-1.308981484	-0.363213
C	 1.4189010067	-2.6212677069	-2.4432412783	 0.276929
N	 1.9778221867	-3.0999462219	-3.3337380932	-0.302177
C	 0.0271661186	 0.0375534558	-2.4832500476	 0.299264
N	-0.5655705413	 0.4356640634	-3.3919647761	-0.337289
H	 0.8503787627	 2.0421142282	 0.2194732243	 0.127222
H	-0.6427212279	 1.9739109935	-0.7317592502	 0.150422
H	-0.695634193	 1.7758951915	 1.0243550596	 0.127665
H	 0.5825701145	-0.3793287437	 0.8365126663	 0.108149
H	-0.964245505	-0.4365695573	 0.0001037938	 0.117687
H	 2.7555303558	-0.2722991203	-0.464543649	 0.125912
H	 2.7347844748	-0.3374357464	-2.2389111967	 0.163127
H	 2.2523101482	 1.145256415	-1.4056856434	 0.145066
H	 1.198749114	-2.3679492108	-0.3852162086	 0.157655
H	-0.3088554487	-2.3602010122	-1.2994975014	 0.167382
70.0337	94.0875	123.393	157.9844	191.0184	224.1829	267.1656	267.3799	340.3643	366.9989	392.1417	397.2221	492.0398	577.8789	634.0241	706.8326	791.2026	864.5404	903.3898	944.8495	969.7578	1019.4624	1037.709	1082.1273	1157.828	1182.1891	1198.3914	1266.1379	1330.4682	1343.2896	1372.8953	1415.8664	1419.4269	1458.9298	1480.7832	1491.8087	1497.8889	1506.1176	1510.8191	2355.0461	2365.8082	3027.6047	3046.8583	3049.2748	3051.2617	3067.697	3095.3914	3117.1759	3122.1792	3126.7419	3145.22
CCC(C)(CC#N)C#N	CC[C@@](C)(CC#N)C#N	
InChI=1S/C7H10N2/c1-3-7(2,6-9)4-5-8/h3-4H2,1-2H3	InChI=1S/C7H10N2/c1-3-7(2,6-9)4-5-8/h3-4H2,1-2H3/t7-/m0/s1
