17
gdb 93075	2.31638	1.65963	1.02549	4.0699	70.79	-0.2532	-0.002	0.2512	1136.069	0.137074	-455.191221	-455.182883	-455.181939	-455.224611	30.711	
C	-0.3052418481	 1.4283579204	 0.0442023399	-0.423154
C	 0.1472765456	-0.0301736392	-0.0156658205	 0.019715
C	 0.7429823496	-0.3744920183	-1.3845988573	-0.133494
N	 1.0885945306	-1.7615950332	-1.6019018834	-0.249225
C	 1.3076336472	-2.6101780568	-0.704679576	 0.134223
O	 1.3464942101	-2.5543041636	 0.6740808811	-0.234542
C	 1.6025834873	-1.4529938019	 1.4809723649	 0.45964
O	 2.197168824	-1.6209404037	 2.5108781463	-0.358469
N	 1.1269140574	-0.2589621785	 1.0430359143	-0.356469
H	 0.5393293982	 2.1057443196	-0.1241376368	 0.132039
H	-1.0569776442	 1.6255586589	-0.7237410518	 0.137072
H	-0.748157366	 1.6633379094	 1.0169658339	 0.130431
H	-0.7246055121	-0.6783499631	 0.1501705752	 0.105493
H	 0.0239394196	-0.0981531816	-2.1656086038	 0.114802
H	 1.6354960452	 0.2425540795	-1.5528745462	 0.122959
H	 1.5069901846	-3.6443687563	-0.979645856	 0.137769
H	 1.288503341	 0.4847844586	 1.7046705964	 0.261209
76.7627	89.117	156.3535	232.9261	274.3727	343.0834	407.2905	432.5663	469.883	534.5447	542.9849	624.3697	747.4395	799.0374	842.8047	889.8537	936.2786	959.2433	973.0513	1014.0844	1089.0883	1115.8164	1141.1323	1214.4079	1273.3285	1309.8316	1332.1751	1383.5512	1390.6443	1413.0796	1441.9012	1465.0741	1477.6348	1495.6633	1504.5695	1772.9354	1860.2389	3005.9569	3020.8598	3038.287	3054.9955	3106.5604	3126.6141	3157.9896	3630.3407
CC1CN=COC(=O)N1	C[C@H]1CN=COC(=O)N1	
InChI=1S/C5H8N2O2/c1-4-2-6-3-9-5(8)7-4/h3-4H,2H2,1H3,(H,7,8)	InChI=1S/C5H8N2O2/c1-4-2-6-3-9-5(8)7-4/h3-4H,2H2,1H3,(H,7,8)/t4-/m0/s1
