23
gdb 99867	1.99307	1.39009	1.01933	1.6749	87.37	-0.2567	0.0384	0.2951	1322.144	0.201101	-388.262761	-388.251256	-388.250312	-388.29864	42.799	
C	-0.019469984	 1.6041232924	 0.0680080876	-0.389195
C	-0.0211766913	 0.0770439434	-0.0309511152	-0.222454
C	 0.6934489809	-0.4771175964	-1.2914495154	 0.128527
O	 0.063259411	 0.0312510043	-2.476552855	-0.460306
C	 2.0763265791	 0.021548985	-1.3137252755	 0.396886
C	 3.212576875	 0.4110971506	-1.2788725344	-0.472935
C	 0.7186819363	-2.0448101307	-1.3098111715	 0.024151
C	-0.68675533	-2.6616403447	-1.2377490674	-0.42396
C	 1.4601749955	-2.5726503194	-2.5455996693	-0.398346
H	 0.9964738348	 1.9913643582	 0.1793268859	 0.132268
H	-0.4495129775	 2.0500052003	-0.8329173059	 0.124272
H	-0.6076090135	 1.9330875392	 0.9299001409	 0.106888
H	 0.4464996224	-0.3640437754	 0.8568731394	 0.105408
H	-1.0568634987	-0.2827276566	-0.0476937938	 0.091351
H	-0.8762446332	-0.1710607686	-2.4069631796	 0.280949
H	 4.2152948108	 0.7611067095	-1.2655632183	 0.195574
H	 1.2721622733	-2.3501248158	-0.4124816908	 0.081028
H	-1.3075412241	-2.343558585	-2.0841718716	 0.106817
H	-0.6146274139	-3.7519892014	-1.2934079239	 0.119434
H	-1.2151702509	-2.4171936181	-0.3129861392	 0.118557
H	 2.4897837056	-2.2098867774	-2.5792187193	 0.128062
H	 1.4821194484	-3.6668371568	-2.5385629588	 0.102745
H	 0.958116794	-2.2440530867	-3.4602585388	 0.124279
63.5331	102.7178	155.2101	164.0709	199.0319	214.9568	230.2587	239.275	253.8849	293.7342	331.881	358.9262	420.6265	428.5366	497.1137	554.9904	608.6758	622.3233	664.6427	691.5282	793.1291	874.9785	925.9993	950.6702	969.1384	976.1591	991.5191	1054.744	1096.7222	1107.856	1155.2216	1181.3371	1198.1488	1284.1968	1328.6749	1342.9321	1360.0037	1385.8673	1401.4297	1409.879	1418.9314	1478.2931	1489.1189	1491.0672	1494.7633	1507.5662	1510.1981	1515.8931	2235.0017	3022.9036	3029.4532	3030.746	3044.5292	3047.2132	3069.9296	3093.5016	3112.5429	3115.5906	3118.4042	3127.7493	3129.9868	3500.4972	3804.7843
CCC(O)(C#C)C(C)C	CC[C@@](O)(C#C)C(C)C	
InChI=1S/C8H14O/c1-5-8(9,6-2)7(3)4/h1,7,9H,6H2,2-4H3	InChI=1S/C8H14O/c1-5-8(9,6-2)7(3)4/h1,7,9H,6H2,2-4H3/t8-/m0/s1
