19
gdb 108998	4.19553	1.00152	0.95788	0.7666	76.63	-0.2306	0.0042	0.2348	1301.009	0.158878	-422.973469	-422.96506	-422.964116	-423.006494	32.331	
C	-0.0594406715	 1.5270733194	 0.0218996054	-0.427416
C	-0.0074593445	 0.0082580957	 0.0108393641	 0.038611
C	 1.2325089673	-0.6509098568	-0.6912508486	 0.012092
O	 2.0175325451	-0.3122798198	 0.5044288567	-0.287747
C	 0.7743073405	-0.6717479568	 1.1894545689	-0.062347
C	 0.6372768216	-2.1660433241	 0.8292034677	 0.327745
C	 0.26243675	-3.2830995039	 1.7420647574	-0.199996
O	 0.362026292	-4.56009454	 1.1400480452	-0.404847
C	 0.9545957359	-2.1445462969	-0.4700930567	-0.214049
H	 0.9176527351	 1.9462943557	 0.2723384502	 0.13645
H	-0.363012368	 1.9118421574	-0.9579427291	 0.115705
H	-0.7911152105	 1.8859150814	 0.7542465573	 0.114651
H	-0.9768269353	-0.4350836591	-0.2333918544	 0.07292
H	 1.6597346413	-0.2974275913	-1.6293179795	 0.077301
H	 0.7155348454	-0.3454749186	 2.2286276877	 0.074492
H	 0.863555344	-3.2218842806	 2.6664950976	 0.101897
H	-0.7847803624	-3.1827612484	 2.0586524296	 0.125952
H	 1.2727798597	-4.6640917463	 0.8438650301	 0.286031
H	 0.9885023744	-2.9406990069	-1.1982657695	 0.112555
78.0918	153.2548	176.0565	230.4122	275.0971	289.9567	341.2509	386.8705	511.0932	560.8729	653.4566	687.9553	762.1482	808.0463	820.7995	841.774	878.649	907.996	923.2566	993.635	1023.8468	1052.7588	1061.8091	1082.0894	1113.6352	1147.5154	1168.9941	1208.1318	1210.6069	1234.2854	1241.9471	1265.817	1298.2215	1373.9507	1382.5274	1403.8784	1420.7338	1488.9677	1491.868	1504.261	1679.369	2949.1215	3027.7606	3033.3264	3070.8239	3090.9258	3116.4645	3129.0174	3130.7385	3248.2355	3807.0204
CC1C2OC1C(CO)=C2	C[C@H]1[C@H]2O[C@@H]1C(=C2)CO	
InChI=1S/C7H10O2/c1-4-6-2-5(3-8)7(4)9-6/h2,4,6-8H,3H2,1H3	InChI=1S/C7H10O2/c1-4-6-2-5(3-8)7(4)9-6/h2,4,6-8H,3H2,1H3/t4-,6-,7-/m0/s1
