17
gdb 100438	6.39859	0.47752	0.45439	3.3456	94.18	-0.2389	-0.0231	0.2159	2354.1665	0.133113	-421.775607	-421.764973	-421.764029	-421.81448	36.165	
C	-0.0849657998	 1.4641792242	 0.0266978823	-0.518769
C	-0.0248855672	 0.0142754802	 0.0116085184	 0.25859
C	 0.0267302725	-1.1949807748	 0.0013099179	-0.215268
C	 0.0839311095	-2.5528696265	-0.0111304884	-0.148249
C	 0.1356643883	-3.763543264	-0.0112779441	 0.243401
C	 0.1822953213	-5.2174886986	-0.0767746531	-0.115605
O	-1.1193213451	-5.8147041486	 0.018913253	-0.427366
C	 0.8669280018	-5.719059547	-1.3647813835	-0.054577
O	 0.8395627347	-7.124696898	-1.4086092347	-0.414994
H	 0.8886509407	 1.8952853347	 0.2855283634	 0.16069
H	-0.3753501207	 1.8597823272	-0.9530224539	 0.159006
H	-0.8140486743	 1.8221808868	 0.7622093487	 0.159908
H	 0.7361437333	-5.6205744954	 0.7795412949	 0.128886
H	-1.7180704175	-5.2892756919	-0.5248675937	 0.290395
H	 0.3590323666	-5.2646235804	-2.2323339735	 0.085833
H	 1.9134251727	-5.4001807585	-1.3833593618	 0.120274
H	-0.0600944368	-7.3727380192	-1.157170372	 0.287845
6.0003	55.8041	62.4059	136.4542	150.7082	202.6278	283.7184	312.4141	335.1078	345.3513	391.1008	491.9864	514.3405	517.1172	562.2018	597.8978	691.1573	853.1434	969.4291	1046.9545	1048.3948	1057.4991	1063.4491	1095.2381	1198.9085	1257.2093	1285.2871	1303.935	1374.3073	1408.7173	1418.9723	1434.7157	1470.3572	1471.2727	1502.629	2273.7297	2381.3266	2963.3675	3025.2257	3045.1915	3087.4692	3088.3407	3088.56	3762.8438	3796.9138
CC#CC#CC(O)CO	CC#CC#C[C@@H](O)CO	
InChI=1S/C7H8O2/c1-2-3-4-5-7(9)6-8/h7-9H,6H2,1H3	InChI=1S/C7H8O2/c1-2-3-4-5-7(9)6-8/h7-9H,6H2,1H3/t7-/m1/s1
