20
gdb 119528	4.17367	0.99931	0.8962	1.4918	80.69	-0.2277	0.0083	0.236	1357.4596	0.171449	-403.119686	-403.11105	-403.110106	-403.1534	32.431	
C	-0.2228008641	 1.3574523852	-0.104086596	-0.219752
O	-0.1573913139	-0.0475403891	-0.1005581188	-0.238474
C	 0.7462578382	-0.5569349915	-1.0622550318	-0.138625
C	 0.7427434974	-2.0559505713	-0.9674212771	 0.322803
C	 1.0982228204	-2.710710886	 0.3718624825	-0.325964
C	 1.7380412837	-4.0233493773	-0.0281788318	-0.091843
C	 1.8576249921	-4.1342495961	-1.3545362485	-0.07929
C	 1.2493250982	-2.9601272188	-2.0497079206	-0.123861
N	-0.2053334816	-2.755982339	-1.8432207923	-0.361973
H	 0.7559867807	 1.8143299522	 0.1159030063	 0.099911
H	-0.5708390916	 1.7482103575	-1.0734377937	 0.105492
H	-0.9328796598	 1.6552183984	 0.6713993147	 0.125689
H	 0.4515032013	-0.2512619389	-2.0778231608	 0.095859
H	 1.7615349448	-0.1658545145	-0.870063141	 0.080082
H	 1.7939365234	-2.0804292151	 0.9413678243	 0.114548
H	 0.2172985907	-2.8416093698	 1.0117573125	 0.122881
H	 2.0299213952	-4.7758907077	 0.6957147571	 0.098883
H	 2.2948856154	-4.9707463261	-1.8869202696	 0.100528
H	 1.6309555569	-2.6109877627	-3.0042874092	 0.089405
H	-0.5982082173	-3.5707947793	-1.374739236	 0.2237
67.3604	100.4212	123.349	225.5574	256.2345	326.2299	349.7014	387.9717	417.	520.0385	692.872	733.5639	751.1298	796.215	862.4189	903.5428	938.6074	951.8649	961.5036	982.1145	1000.2973	1050.9841	1068.1107	1111.7137	1134.5159	1154.1379	1167.6318	1175.0563	1191.1201	1225.3176	1250.14	1275.7287	1298.2848	1325.0863	1371.4607	1391.5629	1449.2912	1472.2017	1480.1227	1485.4089	1498.3457	1519.8299	1660.5615	2943.4196	2966.9801	3004.1457	3010.0802	3025.1642	3058.2514	3112.2142	3156.4247	3188.272	3213.8092	3473.9649
COCC12CC=CC1N2	COC[C@]12CC=C[C@H]1N2	
InChI=1S/C7H11NO/c1-9-5-7-4-2-3-6(7)8-7/h2-3,6,8H,4-5H2,1H3	InChI=1S/C7H11NO/c1-9-5-7-4-2-3-6(7)8-7/h2-3,6,8H,4-5H2,1H3/t6-,7-/m1/s1
