21
gdb 112478	2.4099	1.1305	0.88665	2.5842	82.42	-0.2295	0.0279	0.2575	1413.4855	0.180851	-420.397869	-420.387349	-420.386404	-420.433902	37.354	
C	 0.0423290029	 1.5372607866	 0.0072909142	-0.392261
C	-0.2121405953	 0.0442053515	-0.2207940002	-0.163203
C	 0.6665453016	-0.5524687344	-1.3127904244	 0.010814
N	 2.1130300315	-0.6691435463	-0.9949458852	-0.357196
C	 2.0501695454	-2.0391615942	-0.7819679221	 0.368505
N	 2.7369594681	-2.9291791987	-0.2062109763	-0.335223
C	 3.9717806631	-2.528875326	 0.4506433579	-0.332431
C	 0.6600667294	-2.1242874086	-1.3988210179	 0.014212
O	-0.2949278427	-2.8155263122	-0.6405939866	-0.429383
H	 1.0721821691	 1.7279961196	 0.3311950809	 0.105604
H	-0.1286099638	 2.1162088929	-0.9070314205	 0.118643
H	-0.6196485782	 1.9343265914	 0.7824355333	 0.121142
H	-0.0604353975	-0.5163654025	 0.7078732529	 0.102131
H	-1.258353784	-0.1178461091	-0.5053346462	 0.114118
H	 0.4958528778	-0.0408808337	-2.267160039	 0.076882
H	 2.6762485734	 0.000245447	-0.4893951483	 0.242168
H	 4.8055243129	-2.5002101871	-0.2636491648	 0.124751
H	 3.9140029088	-1.539206008	 0.9322413475	 0.091473
H	 4.2284062531	-3.260792877	 1.2216487605	 0.124732
H	 0.6604360988	-2.4774739281	-2.4373802947	 0.096523
H	 0.2016643257	-3.3783489332	-0.0333145713	 0.297997
64.9485	73.5565	97.9095	147.4422	172.9317	210.2212	224.0526	248.6513	296.751	319.362	421.7941	458.0097	519.3132	587.9461	690.7458	761.3596	786.0755	828.8388	918.551	937.4767	973.254	1039.3814	1061.5833	1105.9862	1113.3603	1122.3455	1165.3672	1169.7846	1207.4574	1215.4926	1276.7412	1286.1418	1331.313	1359.3355	1368.5568	1387.6665	1409.5121	1414.2882	1439.6352	1474.0522	1487.3702	1501.7091	1504.1604	1505.5902	1813.9042	2968.9175	3025.7449	3028.2334	3038.6679	3039.9074	3042.8663	3074.1555	3092.7784	3096.9873	3106.9694	3592.0721	3777.0647
CCC1NC(=NC)C1O	CC[C@H]1NC(=NC)[C@H]1O	
InChI=1S/C6H12N2O/c1-3-4-5(9)6(7-2)8-4/h4-5,9H,3H2,1-2H3,(H,7,8)	InChI=1S/C6H12N2O/c1-3-4-5(9)6(7-2)8-4/h4-5,9H,3H2,1-2H3,(H,7,8)/t4-,5+/m1/s1
