14
gdb 5913	4.12214	1.29158	1.2275	0.8795	62.16	-0.321	-0.0099	0.311	990.051	0.105074	-378.745558	-378.736936	-378.735992	-378.778609	30.403	
C	 0.0765212051	 1.5759656532	-0.0059991664	-0.403248
C	 0.0069025728	 0.0458431222	 0.0065929911	 0.187767
O	 0.6855790813	-0.3763181408	 1.1714767163	-0.425027
C	-1.465498234	-0.4699696581	-0.0063736993	-0.367308
C	-2.2158535228	-0.0152951238	 1.1602832744	 0.27641
N	-2.8171714246	 0.3480381672	 2.0769281139	-0.297497
C	 0.6711621175	-0.5053874727	-1.200436076	 0.254073
N	 1.1824066321	-0.9677140607	-2.127689227	-0.321009
H	 1.1205275171	 1.8931431778	 0.0048143442	 0.155212
H	-0.4109202985	 1.9807467309	-0.8957314132	 0.139058
H	-0.420641758	 1.9605886611	 0.8872637069	 0.164992
H	 0.7428583943	-1.33910168	 1.1806253281	 0.300047
H	-1.9690114312	-0.1330588793	-0.9185124758	 0.173907
H	-1.4667951613	-1.5653630672	-0.0290497671	 0.162622
74.9587	122.3139	185.3622	190.441	242.3076	331.847	340.4419	373.492	397.6548	405.8503	509.9539	582.6793	592.5445	763.0175	879.9047	922.3676	970.7882	976.6248	1080.487	1164.3308	1172.5763	1248.8494	1331.573	1379.9084	1415.7677	1458.7723	1481.8233	1496.1272	2354.6871	2369.2656	3051.6258	3062.0837	3094.7028	3145.6479	3151.8868	3799.3393
CC(O)(CC#N)C#N	C[C@@](O)(CC#N)C#N	
InChI=1S/C5H6N2O/c1-5(8,4-7)2-3-6/h8H,2H2,1H3	InChI=1S/C5H6N2O/c1-5(8,4-7)2-3-6/h8H,2H2,1H3/t5-/m1/s1
