18
gdb 75712	2.26393	1.75502	1.36433	2.4917	71.58	-0.241	-0.0143	0.2267	1018.5281	0.146934	-439.074301	-439.065727	-439.064783	-439.107259	32.222	
C	-0.1198124262	 1.5563052656	 0.0107457404	-0.482197
C	-0.0053912567	 0.0528064154	-0.0593920466	 0.343047
C	-1.2651763688	-0.7954802689	 0.2748982443	-0.300611
C	-0.519989403	-1.3177729111	 1.5374847823	-0.181951
N	 0.747871399	-0.6559453273	 1.0679057831	-0.177948
C	 1.4629568829	-1.4121641644	 0.1178675154	 0.344854
O	 2.0146641279	-2.4764194652	 0.1929624519	-0.341319
C	 1.000155593	-0.5605142215	-1.0837421992	-0.050492
O	 0.4946410368	-1.3177406694	-2.1506624914	-0.431442
H	 0.868320649	 2.0267894969	-0.0049604568	 0.127301
H	-0.6924357855	 1.9318481878	-0.8447079204	 0.131249
H	-0.630868888	 1.8721874637	 0.9258586471	 0.124803
H	-2.1763430173	-0.2230723139	 0.4570989692	 0.111458
H	-1.46500528	-1.5626627888	-0.4762000102	 0.128613
H	-0.8619366519	-0.8847241069	 2.4796936682	 0.120716
H	-0.4147559159	-2.3987223008	 1.6524484186	 0.135036
H	 1.7242485155	 0.1891064672	-1.4328770176	 0.096552
H	 0.9304183489	-2.1787845981	-2.1149844381	 0.302332
88.4311	173.6271	206.2007	216.5997	222.9753	264.9467	297.1635	321.0148	481.3941	538.1415	606.1066	668.3397	717.7946	758.7344	822.7285	876.5977	893.2445	940.2587	947.6188	970.0809	993.3349	1098.0015	1122.6978	1158.8859	1180.4339	1196.739	1210.9736	1244.7483	1276.0781	1280.4451	1305.1375	1364.2666	1379.7285	1411.9755	1481.0166	1484.8435	1491.0979	1508.1135	1868.6488	3004.2071	3031.6353	3070.7366	3076.5424	3101.8088	3107.6746	3121.2243	3138.9877	3774.7702
CC12CCN1C(=O)C2O	C[C@]12CCN1C(=O)[C@H]2O	
InChI=1S/C6H9NO2/c1-6-2-3-7(6)5(9)4(6)8/h4,8H,2-3H2,1H3	InChI=1S/C6H9NO2/c1-6-2-3-7(6)5(9)4(6)8/h4,8H,2-3H2,1H3/t4-,6-/m1/s1
