17
gdb 17454	3.51299	2.16417	1.70996	1.7717	67.82	-0.2308	0.0689	0.2996	809.9354	0.141899	-363.786132	-363.77881	-363.777866	-363.817177	28.599	
C	-0.1559503479	 1.48199658	-0.0523914336	-0.31392
N	 0.1058685848	 0.0506503645	 0.0432347797	-0.089339
C	 1.4265811924	-0.5065702186	-0.1542426184	-0.04486
C	 2.5541635338	 0.337127349	 0.4106642843	-0.143451
C	 3.2066887476	-0.3966575536	 1.5655987555	-0.341638
C	 1.8808461019	 0.2911163244	 1.7794110948	 0.386605
O	 1.7339111359	 1.3640208376	 2.644856739	-0.466078
C	 0.7446152852	-0.540984587	 1.2031817012	-0.140254
H	 0.6263355046	 2.1212074714	 0.374730156	 0.126153
H	-0.2854471568	 1.7405784927	-1.1083789866	 0.115564
H	-1.0943266631	 1.6984148334	 0.4672889466	 0.120989
H	 1.5423769128	-1.3281507013	-0.8531743102	 0.095502
H	 3.0284142832	 1.1889248234	-0.0608255957	 0.099673
H	 3.2841040394	-1.4809120231	 1.5548393944	 0.107697
H	 4.0547128242	 0.1152236981	 2.0128729376	 0.112162
H	 1.8291136867	 1.0424791845	 3.5476710417	 0.287279
H	 0.2511437153	-1.3748774455	 1.6923827439	 0.087916
165.0395	185.407	201.7401	240.737	353.3204	397.8898	405.2935	508.6557	624.4033	666.5176	740.8508	806.9932	841.0448	873.4878	918.2675	932.7997	972.5895	991.9291	1025.7843	1041.75	1062.4461	1088.8252	1090.9572	1161.0017	1181.2869	1203.2606	1245.9594	1269.9484	1272.2426	1306.9832	1349.0291	1390.3155	1452.3999	1491.1692	1491.6108	1502.2176	3019.4403	3085.1121	3104.0762	3106.595	3157.8004	3171.276	3188.7508	3197.5036	3801.8245
CN1C2C3CC3(O)C12	CN1[C@H]2[C@@H]3C[C@]3(O)[C@@H]12	
InChI=1S/C6H9NO/c1-7-4-3-2-6(3,8)5(4)7/h3-5,8H,2H2,1H3	InChI=1S/C6H9NO/c1-7-4-3-2-6(3,8)5(4)7/h3-5,8H,2H2,1H3/t3-,4-,5-,6+,7?/m0/s1
