14
gdb 13587	3.71168	1.39495	1.26175	1.8241	60.09	-0.2563	-0.106	0.1503	985.5841	0.104027	-419.66948	-419.661358	-419.660413	-419.702686	27.936	
C	 0.3904375724	 1.7061138344	-0.2371063388	-0.436119
C	-0.0755435202	 0.3212879491	 0.1201809403	 0.089226
O	 0.8663057	-0.7343501329	 0.0456630324	-0.23139
C	 0.3534695483	-0.4263436532	 1.3397640685	-0.065585
C	 1.3053126479	 0.1716075098	 2.3215596125	 0.280422
O	 2.3449299838	 0.726639489	 2.0461548071	-0.283477
C	 0.9012033191	 0.0772136581	 3.7991737568	 0.087203
O	-0.1067994517	-0.4535741558	 4.1854134141	-0.216707
H	 1.3701191896	 1.9151161297	 0.1941091442	 0.16284
H	 0.4627466924	 1.7958839587	-1.3259654283	 0.137777
H	-0.3311182171	 2.4518222724	 0.1125092655	 0.126316
H	-1.0686503664	 0.0507651794	-0.2452806218	 0.107962
H	-0.3385822655	-1.1519428734	 1.7607833235	 0.126427
H	 1.6422067174	 0.5567247446	 4.4726735841	 0.115105
52.7823	127.6283	173.8594	178.1743	213.5015	271.6906	363.3869	437.853	523.179	611.0959	641.512	772.9496	834.2721	863.3986	988.3472	1006.3966	1043.3832	1081.3738	1153.6262	1168.3614	1180.1799	1277.56	1362.8923	1393.1299	1415.0299	1447.6112	1489.9974	1501.8244	1795.5954	1821.4189	2929.781	3043.4427	3088.6978	3104.8674	3149.6949	3153.994
CC1OC1C(=O)C=O	C[C@H]1O[C@H]1C(=O)C=O	
InChI=1S/C5H6O3/c1-3-5(8-3)4(7)2-6/h2-3,5H,1H3	InChI=1S/C5H6O3/c1-3-5(8-3)4(7)2-6/h2-3,5H,1H3/t3-,5-/m1/s1
