12
gdb 123503	4.30814	1.79139	1.26527	2.1504	68.59	-0.2585	-0.0848	0.1737	872.4078	0.081975	-427.869132	-427.863576	-427.862632	-427.899103	21.544	
C	-0.0152692237	 1.3277938641	 0.0098987234	-0.160941
C	 1.2717836149	 1.8354019002	-0.0001357436	 0.415225
N	 1.8476140655	 3.0572797743	 0.0005946336	-0.303222
C	 3.1553615635	 3.0574541618	-0.012390508	 0.051297
N	 3.9863022379	 1.9623122834	-0.0264309524	-0.262411
C	 3.4144265405	 0.7976360137	-0.0269217814	 0.126183
N	 2.0605799363	 0.6879990288	-0.0140360426	-0.012446
N	 1.2973471261	-0.4358224504	-0.0122814906	-0.159284
N	 0.0556334665	-0.02500698	 0.0020889007	-0.160876
H	-0.9543857088	 1.8539495121	 0.0219352945	 0.147383
H	 3.6579383872	 4.0195530804	-0.012297587	 0.14275
H	 3.981185464	-0.1282586584	-0.0374018365	 0.176341
204.957	236.4646	430.7046	433.0107	583.0672	606.2788	660.614	702.9118	789.5318	792.9459	850.1322	913.1741	950.9793	959.7	1001.2115	1094.5134	1132.428	1165.2307	1242.4562	1281.696	1337.8263	1358.2641	1409.5353	1420.7364	1525.9287	1565.0039	1651.865	3192.6633	3198.925	3289.9906
C1=C2N=CN=CN2N=N1	c1c2ncncn2nn1	
InChI=1S/C4H3N5/c1-4-6-2-5-3-9(4)8-7-1/h1-3H	InChI=1S/C4H3N5/c1-4-6-2-5-3-9(4)8-7-1/h1-3H
