19
gdb 95415	3.18272	1.12218	0.85771	0.7004	87.67	-0.2292	-0.0171	0.2121	1344.9815	0.158378	-385.875268	-385.86642	-385.865476	-385.908575	33.855	
C	-0.0145777028	 1.5204490571	 0.0387673645	-0.404657
C	 0.0273358887	 0.001589493	-0.0165525235	 0.125835
C	 0.7728922047	-0.53539761	-1.2435278142	-0.305336
C	 1.0384943506	-2.0237664904	-1.1030575247	 0.137748
C	 0.9394620051	-2.6138735354	 0.0969074289	-0.158698
C	 0.6128845894	-1.8441094988	 1.3425495213	-0.122348
O	 0.6681130033	-0.444199825	 1.1753012548	-0.258688
C	 1.382090439	-2.746435848	-2.2786854499	 0.218823
C	 1.6697320458	-3.3100030742	-3.3044530068	-0.413568
H	 1.0005500286	 1.925471333	 0.0952363887	 0.125844
H	-0.5018304611	 1.925027922	-0.8534606138	 0.115547
H	-0.5665251618	 1.8548861691	 0.9210272719	 0.123383
H	-1.0032941099	-0.3938067732	-0.037132939	 0.067356
H	 0.1845462771	-0.351279025	-2.1495049966	 0.114241
H	 1.7215280894	 0.0024656037	-1.3709564539	 0.119287
H	 1.0937941016	-3.6833587605	 0.202073529	 0.100239
H	-0.3820936562	-2.1542999267	 1.7161230332	 0.100336
H	 1.3311066304	-2.0875818737	 2.1355083928	 0.122222
H	 1.9263696282	-3.8225356172	-4.1981108026	 0.192435
95.4937	139.0691	167.471	214.4264	234.6449	308.1112	354.943	401.3777	467.0891	476.926	542.4106	556.1775	592.4402	638.2137	680.9872	825.83	845.0405	871.2317	915.8494	931.0374	990.3769	1032.2301	1063.2083	1117.419	1158.1652	1161.9247	1174.4655	1236.4261	1269.0003	1300.6161	1344.0173	1377.0125	1391.7415	1405.9281	1412.2435	1468.9581	1483.1839	1484.0936	1500.4622	1698.6561	2219.2521	2920.3569	2949.9134	3024.1248	3042.2512	3043.001	3069.1707	3116.4116	3122.834	3180.012	3503.5608
CC1CC(=CCO1)C#C	C[C@H]1CC(=CCO1)C#C	
InChI=1S/C8H10O/c1-3-8-4-5-9-7(2)6-8/h1,4,7H,5-6H2,2H3	InChI=1S/C8H10O/c1-3-8-4-5-9-7(2)6-8/h1,4,7H,5-6H2,2H3/t7-/m0/s1
