19
gdb 13184	3.77923	1.37505	1.07365	2.829	72.96	-0.2265	-0.0227	0.2039	1115.0659	0.164148	-365.04552	-365.036861	-365.035917	-365.079293	30.899	
C	 0.6362235302	-0.3945453505	 1.3178886107	-0.410673
C	-0.0689229216	 0.000149546	 0.010409076	-0.034369
C	-0.0823575539	 1.5218157499	-0.0699812364	 0.162967
O	-1.0236383255	 2.2172199799	 0.2080718326	-0.248887
N	 0.6482083064	-0.5196224624	-1.135684109	-0.076341
C	 0.0165656629	-0.4244586583	-2.4720579669	-0.165843
C	 0.630532399	-1.7995307115	-2.821530929	-0.229044
C	 0.8114398499	-1.9824309007	-1.2953366561	-0.159955
H	 0.6893227347	-1.4832524841	 1.4088507549	 0.128527
H	 1.6574959514	-0.0012564165	 1.3398395247	 0.129134
H	 0.0867584327	-0.0060583729	 2.1791859702	 0.134736
H	-1.1209012783	-0.3397240011	 0.0463110508	 0.069032
H	 0.8944598063	 1.9506959419	-0.3928392988	 0.081079
H	-1.0843398641	-0.4605326763	-2.4286503726	 0.094215
H	 0.3163422032	 0.4458007931	-3.0647637342	 0.106824
H	-0.0093326589	-2.5157536321	-3.3367366888	 0.108082
H	 1.5818727319	-1.7137331116	-3.3491230753	 0.116326
H	 1.7607156714	-2.38652754	-0.9301852121	 0.105249
H	-0.0152777175	-2.5612456328	-0.8517935707	 0.088942
59.6555	81.7422	142.5436	187.1719	230.4117	270.1497	297.3023	410.6114	432.6537	473.5386	697.1484	776.6763	848.5502	892.1921	921.1828	935.3632	942.2564	987.1967	1049.9936	1066.3912	1123.4526	1132.7223	1150.7782	1161.3726	1215.2923	1223.2524	1235.6808	1270.4745	1289.7791	1310.4957	1329.1597	1363.1654	1395.0501	1409.0471	1488.4938	1491.2732	1499.8015	1505.0928	1532.5713	1838.1757	2871.1768	2929.308	2965.3482	2974.6857	3041.8051	3063.208	3065.4947	3089.1551	3113.7096	3126.2134	3144.8427
CC(C=O)N1CCC1	C[C@@H](C=O)N1CCC1	
InChI=1S/C6H11NO/c1-6(5-8)7-3-2-4-7/h5-6H,2-4H2,1H3	InChI=1S/C6H11NO/c1-6(5-8)7-3-2-4-7/h5-6H,2-4H2,1H3/t6-/m0/s1
