21
gdb 102621	1.8611	1.15223	0.86748	2.9921	76.2	-0.2401	0.0608	0.3009	1444.3957	0.181708	-457.587275	-457.576388	-457.575444	-457.624384	38.908	
C	 0.0500162742	 1.5698042321	-0.0373370492	-0.38321
C	 0.0523948081	 0.0411152005	 0.0049711107	-0.169518
C	 0.6828023889	-0.6040515859	-1.2411488771	 0.039691
C	 0.7554249592	-2.1281308794	-1.1215988572	-0.102841
O	-0.5834286896	-2.6199552852	-1.1147674383	-0.427761
N	-0.0458967508	-0.2462097259	-2.4540135243	-0.335832
C	 0.620675646	 0.2139053521	-3.5690567528	 0.448579
N	-0.1746259071	 0.2654547495	-4.7111063033	-0.566604
O	 1.7955663395	 0.5351427862	-3.5782996464	-0.394493
H	 1.0685345746	 1.9667166478	-0.1087218854	 0.119911
H	-0.5079426418	 1.9352244474	-0.9041066998	 0.119421
H	-0.410840171	 1.9869180539	 0.8633332208	 0.107315
H	 0.6116086974	-0.3048966198	 0.8835965185	 0.091325
H	-0.9688547385	-0.3387074598	 0.1235625438	 0.105529
H	 1.6989610432	-0.223595939	-1.3793207454	 0.117383
H	 1.3180664394	-2.5313690474	-1.9755464335	 0.101556
H	 1.2852036032	-2.4066765321	-0.1980777252	 0.090204
H	-0.5573836393	-3.5784720058	-1.1775849296	 0.29307
H	-0.885995864	-0.7867485589	-2.6027672855	 0.243025
H	-1.1591554527	 0.4450368464	-4.5791713009	 0.245692
H	 0.245043941	 0.8220712133	-5.4405514499	 0.257558
26.4094	75.8375	97.412	121.158	163.708	220.8239	248.3768	268.8136	287.4312	368.2704	402.4647	442.3778	468.9675	544.0902	585.1699	642.2048	654.9119	777.4425	788.5185	859.1341	928.3632	964.9563	1010.576	1033.9374	1077.5463	1099.2981	1115.3391	1148.2699	1179.6485	1226.6061	1265.5583	1281.2499	1319.9419	1332.15	1382.1123	1392.6079	1410.1817	1444.7251	1484.5667	1496.1947	1508.2587	1514.9946	1531.8047	1626.0255	1798.0114	2983.325	3023.2121	3029.142	3036.7839	3063.5714	3089.7042	3103.7745	3114.4775	3569.9667	3604.0753	3683.9964	3842.2235
CCC(CO)NC(N)=O	CC[C@@H](CO)NC(=O)N	
InChI=1S/C5H12N2O2/c1-2-4(3-8)7-5(6)9/h4,8H,2-3H2,1H3,(H3,6,7,9)	InChI=1S/C5H12N2O2/c1-2-4(3-8)7-5(6)9/h4,8H,2-3H2,1H3,(H3,6,7,9)/t4-/m0/s1
