15
gdb 130639	3.09367	1.81027	1.15828	4.8741	73.5	-0.2551	-0.0366	0.2184	988.8007	0.116163	-416.870451	-416.863769	-416.862825	-416.901971	25.433	
O	 0.0604934487	-0.030448225	 0.0017651426	-0.312148
C	 0.0042772566	 1.1647113479	 0.0090372975	 0.422093
C	-1.2350967221	 2.0699094216	 0.0318499313	-0.338869
C	-0.7287887627	 3.5391000295	 0.0324261297	-0.366146
C	 0.7622333388	 3.3811624646	 0.0098351811	 0.426122
C	 1.9431838038	 4.0735965879	-0.0036758809	-0.393704
C	 2.9402494607	 3.0520360445	-0.0238063966	 0.03731
N	 2.4325785314	 1.8273012126	-0.022821613	-0.263696
N	 1.098747508	 2.0533269245	-0.0021681184	-0.03476
H	-1.8528201102	 1.8332508753	-0.8381018686	 0.15208
H	-1.8274265865	 1.8238008835	 0.9167104038	 0.152073
H	-1.089150542	 4.0956820434	-0.8378451274	 0.138768
H	-1.0635427163	 4.0861578616	 0.9188155708	 0.138769
H	 2.0925490229	 5.1408897819	-0.0001210024	 0.116498
H	 4.0138026589	 3.1807490663	-0.0388326196	 0.125613
84.7102	144.02	249.528	315.6457	536.3768	552.7877	624.2535	641.0161	664.8577	673.8389	730.9575	804.9013	833.775	916.1784	944.1516	983.0654	1026.3114	1042.8782	1060.1453	1111.1828	1163.9345	1225.5431	1237.1295	1261.2666	1305.6729	1326.5308	1348.2047	1417.7092	1456.1357	1472.4877	1496.6266	1609.9767	1875.9142	3056.3445	3078.7245	3086.7584	3120.6375	3237.1547	3272.3195
O=C1CCC2=CC=NN12	O=C1CCc2ccnn12	
InChI=1S/C6H6N2O/c9-6-2-1-5-3-4-7-8(5)6/h3-4H,1-2H2	InChI=1S/C6H6N2O/c9-6-2-1-5-3-4-7-8(5)6/h3-4H,1-2H2
