19
gdb 116831	12.13968	0.37995	0.37183	1.0305	103.51	-0.2286	-0.0132	0.2155	2941.0819	0.156363	-385.834406	-385.823449	-385.822505	-385.872539	36.667	
C	-0.0371440718	 1.5693983615	 0.0498817674	-0.367029
C	 0.0044230671	 0.0296651768	-0.0000442428	-0.343899
C	 0.6785595171	-0.4838852393	-1.1831730847	 0.298385
C	 1.2420873131	-0.89653104	-2.1724634736	-0.248199
C	 1.8748014302	-1.3598516017	-3.2831822875	-0.063312
C	 2.4365965224	-1.7791393786	-4.2694677459	 0.158683
C	 3.1189040471	-2.2401518344	-5.4680591792	-0.228582
O	 3.1507755544	-3.6537591931	-5.5015487412	-0.228774
C	 3.8048142874	-4.1395406343	-6.6513835331	-0.217361
H	 0.9737587521	 1.9851179083	 0.0534967428	 0.132771
H	-0.5659072968	 1.9718106791	-0.8180089931	 0.13277
H	-0.5524293931	 1.9031072483	 0.9551258491	 0.118579
H	 0.5070635872	-0.353775036	 0.8975815927	 0.137127
H	-1.0187768316	-0.3669652002	 0.0338940988	 0.137126
H	 2.605268743	-1.844960876	-6.3629534412	 0.118756
H	 4.1449478214	-1.8308840664	-5.4919115051	 0.118768
H	 3.7840937957	-5.2299981387	-6.5966395596	 0.133001
H	 3.299882765	-3.8188710019	-7.5766437521	 0.105599
H	 4.8532733902	-3.8043655135	-6.6992114117	 0.10559
25.7012	52.1199	62.8986	107.1147	115.2564	208.1542	226.2831	237.7374	280.9302	343.6679	386.6925	389.4264	520.1123	563.1854	567.309	669.3085	786.6482	904.3706	974.7643	1013.5138	1022.7588	1080.8329	1102.1403	1145.2147	1182.1644	1218.6017	1251.5868	1275.9924	1283.5601	1351.7276	1409.3913	1414.3175	1471.2184	1476.4038	1483.8779	1492.7304	1495.0821	1505.3678	1515.1328	2278.5494	2385.6431	2938.2668	2954.483	2969.0646	3012.3251	3017.6182	3045.6913	3047.4243	3122.0271	3122.8725	3128.2218
CCC#CC#CCOC	CCC#CC#CCOC	
InChI=1S/C8H10O/c1-3-4-5-6-7-8-9-2/h3,8H2,1-2H3	InChI=1S/C8H10O/c1-3-4-5-6-7-8-9-2/h3,8H2,1-2H3
