19
gdb 96536	2.43408	1.49094	1.01005	2.3375	71.69	-0.2601	-0.0302	0.2299	1170.448	0.159864	-460.184389	-460.176062	-460.175118	-460.217626	31.982	
O	 0.0965034826	 1.4413362425	 0.062633976	-0.442343
C	 0.0510143799	 0.0424170401	 0.0307454056	 0.039625
C	-1.401234633	-0.4488932276	 0.2095844926	-0.226733
C	-1.5435169114	-1.9055154591	 0.6477830726	-0.090424
O	-1.1217092687	-2.8585997033	-0.3112471484	-0.240924
C	 0.2753945246	-2.9269160437	-0.5110007417	-0.091305
C	 0.785814997	-1.9441577306	-1.5685683277	-0.301252
C	 0.6732748482	-0.456512725	-1.2757758556	 0.363791
O	 1.0790356214	 0.3633280344	-2.0736797733	-0.332782
H	 0.5194845519	 1.699306634	-0.7740423677	 0.292242
H	 0.6567987827	-0.3727909395	 0.8578146082	 0.086066
H	-1.8433747362	 0.1879810225	 0.9835467263	 0.123728
H	-1.9691654579	-0.2741263828	-0.7113508128	 0.113189
H	-0.9993742145	-2.0620345999	 1.5949332767	 0.092363
H	-2.5985815002	-2.1267215464	 0.834549504	 0.11578
H	 0.8103454428	-2.7933677742	 0.4424022293	 0.096117
H	 0.4862890733	-3.9436088805	-0.8588345161	 0.11612
H	 1.8440651403	-2.1426231577	-1.7804484478	 0.136956
H	 0.2530600473	-2.1214916832	-2.5103423302	 0.149786
51.3145	132.58	228.7088	266.7331	310.8491	366.2457	373.1975	405.2263	472.5734	516.4591	533.8027	585.8545	601.3278	774.7924	822.389	890.8636	902.5266	924.5473	1000.9968	1049.9948	1068.1486	1103.365	1121.3219	1166.7534	1185.4607	1201.486	1234.1549	1282.2963	1301.6939	1312.3388	1341.3275	1369.7456	1378.3652	1401.4146	1425.031	1427.915	1447.9224	1476.3672	1489.6355	1502.3498	1784.3319	2931.3695	2963.7114	2987.4911	3037.4582	3041.8901	3070.2083	3079.4243	3084.3643	3089.6668	3654.1428
OC1CCOCCC1=O	O[C@H]1CCOCCC1=O	
InChI=1S/C6H10O3/c7-5-1-3-9-4-2-6(5)8/h5,7H,1-4H2	InChI=1S/C6H10O3/c7-5-1-3-9-4-2-6(5)8/h5,7H,1-4H2/t5-/m0/s1
