23
gdb 86425	2.23549	1.68425	1.15858	1.219	85.06	-0.2454	0.0781	0.3235	1176.0374	0.206739	-388.300775	-388.291861	-388.290917	-388.334719	34.626	
C	-0.0140650053	 1.600599459	 0.0585106507	-0.41573
C	 0.2250240036	 0.1024770605	-0.0120337326	 0.142273
O	 1.2354981132	-0.1674659791	-0.9838309831	-0.277578
C	 1.6238043263	-1.5268053122	-0.7914466965	 0.134828
C	 2.8781454976	-1.8156307806	-1.5973688665	-0.415405
C	 1.7005048949	-1.6878438323	 0.7351169905	-0.031268
C	 2.8587414382	-0.9519815921	 1.4712864713	-0.225237
C	 1.8388575684	 0.0352055617	 2.0996538571	-0.225505
C	 0.6926600972	-0.6144710032	 1.2736909479	-0.04582
H	 0.899153194	 2.1356638276	 0.3310426508	 0.124802
H	-0.347195935	 1.975505188	-0.9132634626	 0.1242
H	-0.7870935203	 1.8297966827	 0.7986960542	 0.113285
H	-0.7107556741	-0.3891955739	-0.3346694924	 0.058045
H	 0.8111224627	-2.1826250953	-1.155276456	 0.056691
H	 3.7135915381	-1.1884213945	-1.2759752569	 0.124093
H	 3.1680267882	-2.8650996501	-1.4852922473	 0.113211
H	 2.6977967071	-1.6210483359	-2.6582652794	 0.124903
H	 1.5418185361	-2.721041255	 1.0501872599	 0.062226
H	 3.4140622535	-1.56660812	 2.1833652018	 0.095149
H	 3.5772283237	-0.4737258738	 0.8019156427	 0.103945
H	 1.7086649881	-0.0971511723	 3.1765130242	 0.097084
H	 2.0287022629	 1.0945856224	 1.9127685313	 0.098778
H	-0.158980919	-0.9646260119	 1.8607677007	 0.06303
34.3921	142.7118	201.494	210.804	234.9257	256.056	305.1298	383.1951	509.3175	513.2085	566.9928	666.8493	730.2835	743.0781	795.0386	837.2709	865.5064	905.8084	935.8213	966.0673	972.4769	996.2363	1009.4289	1061.2113	1083.9273	1106.1592	1129.4876	1150.1456	1156.5759	1185.6427	1211.8149	1227.861	1248.9609	1268.4855	1276.4946	1323.5065	1329.5279	1345.761	1376.5199	1376.9556	1402.2355	1407.6362	1423.9537	1471.0891	1481.5609	1484.2049	1490.4054	1501.1226	1507.771	2921.9308	2931.0804	3044.2715	3044.6552	3060.1807	3066.3727	3076.8414	3090.1392	3102.1199	3114.7762	3115.0324	3119.6766	3123.6094	3126.1668
CC1OC(C)C2CCC12	C[C@H]1O[C@@H](C)[C@H]2CC[C@@H]12	
InChI=1S/C8H14O/c1-5-7-3-4-8(7)6(2)9-5/h5-8H,3-4H2,1-2H3	InChI=1S/C8H14O/c1-5-7-3-4-8(7)6(2)9-5/h5-8H,3-4H2,1-2H3/t5-,6+,7+,8-
