18
gdb 113254	4.15377	0.87331	0.84176	5.4309	73.15	-0.2468	0.0319	0.2787	1402.6229	0.145085	-439.065608	-439.055932	-439.054988	-439.10058	34.767	
C	-0.2348388044	 1.0757041512	-0.1677415401	-0.249437
O	 0.5169389498	-0.1041362872	 0.0916238105	-0.248748
C	 0.9455393166	-0.7327231519	-1.0785493133	 0.019258
C	 1.3677828586	-2.171850899	-0.9287625809	-0.381223
C	 0.0487429237	-1.8381422604	-1.5924124249	 0.420678
O	-1.1371390984	-2.0665326354	-0.894172129	-0.471889
C	-0.1467305336	-2.0556027871	-3.0789262273	-0.395694
C	-0.338184318	-3.4650143002	-3.4308876018	 0.278192
N	-0.4750473553	-4.5760770106	-3.7154102304	-0.307711
H	 0.3694366606	 1.8164060615	-0.709704514	 0.119642
H	-1.1377920086	 0.8575221577	-0.7525382143	 0.124371
H	-0.5201170992	 1.4898550654	 0.8013851158	 0.138043
H	 1.4814350139	-0.0864615656	-1.7752419041	 0.09087
H	 2.1964840921	-2.5295485285	-1.5301718118	 0.127644
H	 1.3123649455	-2.5927148643	 0.0693882946	 0.134858
H	-1.0414557055	-1.6251444142	-0.0392189578	 0.293037
H	-1.0214637779	-1.4870879124	-3.4136998049	 0.159076
H	 0.7220274103	-1.678221059	-3.6287627061	 0.149033
55.196	94.4122	107.1675	172.9507	188.3649	255.0116	325.3324	354.8798	385.6408	395.6777	444.1519	463.2347	488.5912	674.1864	744.0979	829.2915	869.3265	901.3378	944.6518	967.358	1016.5815	1057.8309	1076.0517	1116.4796	1158.262	1179.9821	1193.8907	1207.4456	1244.9156	1319.3279	1339.782	1366.3296	1433.0536	1450.3542	1472.7963	1487.7881	1491.95	1507.4518	2366.1603	2999.5946	3047.2169	3059.6232	3089.3154	3092.4938	3130.0875	3135.4274	3227.3759	3756.541
COC1CC1(O)CC#N	CO[C@H]1C[C@]1(O)CC#N	
InChI=1S/C6H9NO2/c1-9-5-4-6(5,8)2-3-7/h5,8H,2,4H2,1H3	InChI=1S/C6H9NO2/c1-9-5-4-6(5,8)2-3-7/h5,8H,2,4H2,1H3/t5-,6+/m0/s1
