13
gdb 128016	2.72108	1.60542	1.01882	0.7747	68.82	-0.2803	-0.0689	0.2113	1081.5411	0.085915	-485.957745	-485.949385	-485.94844	-485.992333	28.594	
C	 0.1340219063	 1.4588949105	 0.0765363199	-0.341445
N	 0.2653630017	 0.0139005291	 0.0898154835	-0.230733
C	 0.5024482333	-0.6349236595	-0.954665042	 0.364456
O	 0.6828348769	 0.0005906751	-2.1826615576	-0.271412
N	 0.6584537036	-0.71195543	-3.3881761016	 0.075057
N	 0.7176921737	-1.9353146206	-3.4086802061	 0.078321
O	 0.8163332604	-2.683983132	-2.2242922041	-0.263304
C	 0.6492230537	-2.1077002793	-0.9711734707	 0.352109
N	 0.6399327028	-2.8244467093	 0.0598906726	-0.450775
H	 1.0642940752	 1.895843038	 0.4585031418	 0.151855
H	-0.0725410487	 1.8862517129	-0.9093823159	 0.140338
H	-0.6598499976	 1.7363101151	 0.7750330718	 0.146077
H	 0.7580555888	-3.8110330799	-0.1803854917	 0.249456
48.3477	62.7868	70.9158	197.6304	213.105	350.0169	486.7204	503.5285	524.8522	539.63	574.0408	692.2874	744.9946	848.1829	899.5487	902.3698	964.9911	1004.4738	1046.1899	1120.0218	1136.4653	1180.1655	1322.6294	1434.2607	1481.4345	1499.7366	1596.2779	1761.3953	1788.9026	3029.5331	3092.9871	3116.5445	3477.2155
CN=C1ON=NOC1=N	C[N]C1=C(ON=NO1)[NH]	
InChI=1S/C3H4N4O2/c1-5-3-2(4)8-6-7-9-3/h4H,1H3	InChI=1S/C3H4N4O2/c1-5-3-2(4)8-6-7-9-3/h4H,1H3
