19
gdb 96864	2.93335	1.38283	1.04939	3.742	79.1	-0.2418	0.0331	0.2749	1192.1808	0.159314	-419.198922	-419.190223	-419.189278	-419.232549	32.151	
C	 0.1782032229	 1.4140539335	 0.078764466	-0.328387
N	 0.2165333492	-0.0376341629	 0.0593670164	-0.323798
C	 0.4747603435	-0.6323538868	-1.0136185769	 0.453
O	 0.759546143	-0.0280767571	-2.2214007426	-0.267511
C	 0.7397562845	-0.996575587	-3.2828396183	 0.100281
C	 1.8629972124	-0.7107923747	-4.2663970394	-0.40321
C	 0.7913521156	-2.3270704463	-2.5463774372	-0.045279
C	 1.8590197329	-2.5238952112	-1.5428875707	-0.25593
N	 0.5096821814	-2.0565805107	-1.1254477152	-0.155016
H	 1.0874633249	 1.7998491782	 0.5566014626	 0.123454
H	 0.0918364876	 1.8738792591	-0.9128836789	 0.118306
H	-0.6658864845	 1.73677834	 0.6966947159	 0.123409
H	-0.2281575097	-0.9168720627	-3.7971458579	 0.095383
H	 2.8393222009	-0.7855696185	-3.7805462564	 0.127451
H	 1.8285823807	-1.4291147827	-5.091503888	 0.125232
H	 1.7580630549	 0.2942059794	-4.6835489493	 0.135696
H	 0.2827872789	-3.1774632394	-2.9883930499	 0.108885
H	 2.1035655836	-3.5242593248	-1.202383924	 0.132985
H	 2.6730186674	-1.8061632455	-1.4962052861	 0.135049
79.8824	97.7696	159.5639	195.3918	225.7739	250.9085	329.767	387.9341	495.7605	506.1131	662.4164	686.3264	755.4481	767.0487	817.546	864.7047	927.5361	952.1992	1004.3357	1056.5433	1064.5684	1092.0645	1107.4501	1114.2409	1132.2307	1134.3921	1161.356	1162.7195	1190.9356	1287.1249	1357.979	1385.7373	1390.2675	1414.123	1440.465	1485.4528	1492.7409	1494.5754	1500.0854	1504.5007	1814.8888	3007.8553	3012.7039	3046.4361	3070.1849	3089.5317	3119.0754	3122.8488	3129.2475	3166.4853	3215.5702
CN=C1OC(C)C2CN12	CN=C1O[C@@H](C)[C@H]2CN12	
InChI=1S/C6H10N2O/c1-4-5-3-8(5)6(7-2)9-4/h4-5H,3H2,1-2H3	InChI=1S/C6H10N2O/c1-4-5-3-8(5)6(7-2)9-4/h4-5H,3H2,1-2H3/t4-,5+,8?/m0/s1
