17
gdb 79908	2.5432	1.57159	1.34011	0.7528	75.13	-0.2267	-0.0546	0.1722	1026.7048	0.136903	-418.034816	-418.026635	-418.025691	-418.067223	31.537	
C	-0.103887633	 1.5604043098	-0.0408325857	-0.418374
C	 0.0648351787	 0.0598355046	 0.0276760098	-0.011049
C	 1.3568973123	-0.6719381696	-0.1799429969	-0.032173
N	 2.5809204611	 0.1076866219	-0.1669123088	-0.283906
C	 2.7867350147	 0.5016862384	 1.0396899463	 0.265561
N	 3.7789483679	 1.3073904152	 1.4866205836	-0.568928
C	 1.7251383682	 0.0523808068	 2.0336461679	 0.365742
O	 1.7703405791	 0.2492294239	 3.2258231499	-0.341168
C	 0.7365868626	-0.6891825523	 1.2070695085	-0.218485
H	 0.8080282578	 2.0961853492	 0.2281991933	 0.139626
H	-0.3741526489	 1.8585338935	-1.0593547332	 0.125904
H	-0.9043312175	 1.8906818015	 0.6287899293	 0.126224
H	-0.8090592094	-0.4883731081	-0.319978035	 0.100296
H	 1.3780433214	-1.557004839	-0.8060019649	 0.100649
H	 4.5798838312	 1.4723812549	 0.9001452808	 0.265632
H	 3.9030291014	 1.345111292	 2.4861872047	 0.27152
H	 0.2101131424	-1.5250036526	 1.6484666803	 0.112929
119.0908	137.2466	188.4755	268.5532	279.8289	339.3155	382.8021	445.3696	509.8461	543.2065	567.3219	638.6545	676.3923	750.6692	762.9886	841.7395	841.9909	898.1183	946.4044	1004.8355	1017.4659	1065.4449	1080.5166	1129.0483	1168.8977	1177.7164	1213.7292	1305.1787	1323.7176	1405.5597	1413.8957	1426.4604	1491.0856	1501.5909	1603.2328	1718.4611	1819.1034	3041.7668	3099.7086	3121.3483	3139.2315	3173.2061	3203.8151	3592.3199	3718.3312
CC1C2N=C(N)C(=O)C12	C[C@H]1[C@H]2N=C(N)C(=O)[C@@H]12	
InChI=1S/C6H8N2O/c1-2-3-4(2)8-6(7)5(3)9/h2-4H,1H3,(H2,7,8)	InChI=1S/C6H8N2O/c1-2-3-4(2)8-6(7)5(3)9/h2-4H,1H3,(H2,7,8)/t2-,3+,4-/m1/s1
