19
gdb 85373	1.91001	1.68182	0.92833	1.6267	79.27	-0.2555	-0.0112	0.2443	1250.7967	0.16123	-419.279721	-419.271266	-419.270322	-419.312903	32.33	
C	-0.0370355967	 1.5586114414	 0.0144103772	-0.403659
C	 0.0146558038	 0.0292549153	 0.0171389198	-0.00858
C	 0.644873425	-0.5213121279	-1.2694618513	-0.245203
C	 0.7086738831	-2.0295606	-1.2882504461	 0.369317
N	 0.5795140294	-2.6688248555	-2.3815989833	-0.510045
N	 0.9319328	-2.6233529462	-0.0416279079	-0.360541
C	 0.9742027372	-2.0192517095	 1.2092492777	 0.388523
O	 1.1486296428	-2.6849595289	 2.2061330962	-0.348959
C	 0.8005743476	-0.5109406461	 1.2192771165	-0.309557
H	 0.9703053759	 1.9846256896	-0.0609635319	 0.11778
H	-0.6218910389	 1.9314565108	-0.8323133846	 0.121872
H	-0.4934668361	 1.9405345835	 0.9331433661	 0.120425
H	-1.0140017719	-0.3513198154	 0.0826035091	 0.091013
H	 0.1047659213	-0.2050524767	-2.1635690835	 0.134748
H	 1.6698199843	-0.1329769619	-1.3590772062	 0.121699
H	 0.668315632	-3.6785122776	-2.244932883	 0.205965
H	 1.0263329463	-3.6311191949	-0.0079637583	 0.249507
H	 1.8071597791	-0.0687873855	 1.2305652642	 0.130773
H	 0.3355951558	-0.2505023344	 2.1732342591	 0.134923
97.1576	121.5156	148.6607	238.4247	270.4162	347.5104	418.4861	432.047	440.8289	549.6064	560.3703	604.9001	622.6276	701.2496	855.9564	875.1464	885.3635	892.9194	923.6069	963.0105	983.5104	1081.8759	1111.2694	1141.9406	1162.7344	1167.3666	1273.8388	1291.7105	1306.9945	1314.5219	1370.7233	1384.5624	1404.1004	1413.5252	1421.5502	1459.6541	1475.0009	1497.2932	1498.9581	1733.3707	1807.6107	3004.7868	3015.9863	3025.9239	3031.0933	3096.2939	3105.1617	3106.7229	3119.0374	3439.2354	3575.7567
CC1CC(=N)NC(=O)C1	C[C@H]1C[C]([NH])NC(=O)C1	
InChI=1S/C6H10N2O/c1-4-2-5(7)8-6(9)3-4/h4H,2-3H2,1H3,(H2,7,8,9)	InChI=1S/C6H10N2O/c1-4-2-5(7)8-6(9)3-4/h4H,2-3H2,1H3,(H2,7,8,9)/t4-/m0/s1
