20
gdb 78895	2.95205	1.94827	1.56235	1.8067	80.41	-0.2186	0.0771	0.2957	931.7485	0.173933	-365.961894	-365.955162	-365.954218	-365.99257	28.652	
C	-0.1381636028	 1.5390082616	 0.020192638	-0.409383
C	 0.0222782101	 0.0145717201	 0.0172534965	 0.009212
C	 0.9026961817	-0.4288350295	-1.139385767	-0.024222
C	 2.3271353533	-0.3773105662	-0.7688873692	-0.051476
C	 2.2976971444	-0.6900304524	 0.7364928811	-0.070841
C	 0.7917869563	-0.5237725107	 1.2340465447	-0.056053
C	 0.6601173556	-2.0721688394	 1.2795549846	-0.248425
C	 1.8855858172	-2.1309367248	 0.3619656411	 0.042368
N	 1.6744813942	-1.7096034216	-1.0874504589	-0.190611
H	 0.8335393423	 2.0360470563	 0.1152811457	 0.119168
H	-0.6049956309	 1.8934247232	-0.9050334439	 0.114077
H	-0.7655417317	 1.8617254036	 0.8575461089	 0.112802
H	-0.9708591799	-0.4490962499	-0.0313660111	 0.074488
H	 0.5950435564	-0.1985885806	-2.1554440384	 0.089907
H	 3.1415318795	 0.0280858244	-1.3588981019	 0.089211
H	 3.1167189878	-0.4346096047	 1.4042061394	 0.067596
H	 0.6028632719	 0.031567177	 2.1543325277	 0.063254
H	 0.9023020363	-2.4828829729	 2.2649351228	 0.098135
H	-0.279729087	-2.5092442482	 0.9279127515	 0.09673
H	 2.5643470354	-2.9846339154	 0.3842297483	 0.074064
163.5122	225.8431	278.4545	332.6827	411.0713	521.0233	628.4513	676.2173	701.82	738.485	768.2712	800.6353	833.013	874.8182	898.7682	918.6456	923.9627	948.9054	972.8539	999.5607	1026.5402	1035.3032	1049.6715	1064.6979	1104.6606	1117.5438	1130.8368	1150.2409	1195.9215	1214.59	1219.7965	1251.5511	1261.3131	1285.4399	1301.366	1312.07	1328.3233	1359.8285	1394.7487	1411.3954	1479.7668	1495.4373	1497.4105	3026.8255	3027.7386	3041.2214	3089.1122	3093.7855	3097.2967	3098.4907	3099.8433	3142.5613	3152.3821	3173.2541
CC1C2C3C4C1CC4N23	C[C@H]1[C@H]2[C@H]3[C@H]4[C@@H]1C[C@H]4N23	
InChI=1S/C8H11N/c1-3-4-2-5-6(4)8-7(3)9(5)8/h3-8H,2H2,1H3	InChI=1S/C8H11N/c1-3-4-2-5-6(4)8-7(3)9(5)8/h3-8H,2H2,1H3/t3-,4-,5-,6+,7+,8-,9?/m1/s1
