18
gdb 55790	3.91075	0.91396	0.90005	5.0224	75.13	-0.2252	-0.004	0.2212	1347.7258	0.148498	-439.119944	-439.111359	-439.110415	-439.154368	31.288	
O	-0.0347545716	-0.2304014974	 0.0613416691	-0.363389
C	-0.0299533237	 1.0876136577	-0.2328548428	 0.414979
O	 0.9347597576	 1.6153231645	-0.7089727123	-0.315288
C	-1.318167218	 1.846587001	 0.1314239939	-0.444193
C	-2.5611709157	 1.01426667	 0.0723739545	 0.290737
C	-3.2680484543	 0.520628039	 1.0925596103	-0.177782
C	-4.4452379568	-0.2778453267	 0.6043108261	-0.195024
N	-4.1550480446	-0.4363038619	-0.8291388753	-0.30792
H	-0.9073562384	-0.474280561	 0.4080276714	 0.299944
H	-4.9914569009	-0.4329728035	-1.3965273542	 0.224079
C	-3.1935752702	 0.5951614574	-1.2373048501	-0.246069
H	-1.171580172	 2.2370968177	 1.1456147048	 0.141695
H	-1.3678757777	 2.709052694	-0.5391298237	 0.143498
H	-3.0657794604	 0.690523794	 2.1439993181	 0.106062
H	-4.5311803063	-1.2546458791	 1.1008537222	 0.112703
H	-5.386395049	 0.2628077572	 0.8155943734	 0.09829
H	-3.6518093944	 1.4755997471	-1.7256415912	 0.097922
H	-2.4587052036	 0.1938595699	-1.9498934843	 0.119756
56.5519	65.5118	95.5889	173.3666	277.0055	311.5593	386.728	486.2759	542.5735	597.0362	630.7218	642.0655	733.9657	816.3004	829.7057	877.1027	891.6649	933.0158	965.9786	996.5099	1038.225	1045.4059	1119.4327	1156.4638	1184.8005	1198.1165	1213.0256	1220.536	1292.2439	1310.1646	1328.2551	1350.2218	1391.6127	1448.9128	1460.804	1512.5028	1525.7263	1711.3221	1875.8394	2924.6714	2928.8201	3004.9199	3008.5873	3045.7251	3100.1238	3200.886	3578.0602	3698.6286
[O-]C(=O)CC1=CC[NH2+]C1	OC(=O)CC1=CCNC1	
InChI=1S/C6H9NO2/c8-6(9)3-5-1-2-7-4-5/h1,7H,2-4H2,(H,8,9)	InChI=1S/C6H9NO2/c8-6(9)3-5-1-2-7-4-5/h1,7H,2-4H2,(H,8,9)
