23
gdb 60227	2.96895	0.96856	0.77048	2.6348	86.94	-0.2389	-0.0185	0.2204	1552.6535	0.203823	-388.311975	-388.301763	-388.300819	-388.348215	37.608	
C	 0.302573461	 1.5601795143	 0.1160334348	-0.386386
C	 0.1206900681	 0.0409460496	 0.000073688	 0.038425
C	 0.9929209255	-0.6851582153	 1.0345067888	-0.389094
C	-1.3493583071	-0.4016162049	 0.1394483667	-0.20219
C	-2.2736820507	-0.0592594357	-1.033282521	-0.088043
C	-3.685614541	-0.7317404721	-1.0980207512	-0.255745
C	-4.3348735846	 0.6242189245	-1.4976157597	-0.330943
C	-3.0072183588	 1.2987077771	-1.1201357227	 0.391122
O	-2.6980958028	 2.4329658034	-0.8895192995	-0.295938
H	 1.3481009197	 1.8377197443	-0.0557625384	 0.101034
H	-0.3251583394	 2.1093052177	-0.5884363902	 0.143245
H	 0.0307164108	 1.9025286876	 1.1220875178	 0.107958
H	 0.4606888376	-0.2699396026	-0.9993403824	 0.066898
H	 0.6778501561	-0.4355324339	 2.0549873259	 0.112238
H	 0.9317994999	-1.7731567712	 0.9234799363	 0.105369
H	 2.0441518449	-0.3955279896	 0.9352051865	 0.110355
H	-1.3721341531	-1.4940123103	 0.2513385836	 0.095993
H	-1.7691312834	 0.0063909288	 1.0694426215	 0.095906
H	-1.7434565891	-0.2186400758	-1.9829668659	 0.099113
H	-3.7944101374	-1.552235575	-1.8083258563	 0.107361
H	-4.0151250123	-1.0717026758	-0.1127903782	 0.112547
H	-4.5380854046	 0.7144454231	-2.5697676931	 0.131785
H	-5.2173445293	 0.9617026218	-0.9488796412	 0.128989
24.4616	72.9225	114.6611	175.5206	188.4899	232.1527	260.0859	295.8239	340.3137	419.7862	424.4299	468.6111	538.3706	682.1753	734.3399	753.381	829.0784	864.8748	924.0665	931.4185	935.7233	964.3764	969.9081	1003.7016	1039.1914	1059.673	1106.1693	1140.8953	1165.1048	1196.2302	1200.9755	1226.1388	1233.3684	1253.4504	1269.379	1318.5012	1344.6719	1369.4098	1381.9291	1403.697	1427.8852	1442.3229	1476.58	1487.0623	1494.3115	1496.9248	1507.8985	1508.7025	1880.1708	2987.8725	3006.3322	3013.867	3022.342	3029.6016	3045.4277	3058.5316	3070.9816	3085.0929	3091.0536	3097.8215	3113.0832	3131.7995	3134.8928
CC(C)CC1CCC1=O	CC(C)C[C@H]1CCC1=O	
InChI=1S/C8H14O/c1-6(2)5-7-3-4-8(7)9/h6-7H,3-5H2,1-2H3	InChI=1S/C8H14O/c1-6(2)5-7-3-4-8(7)9/h6-7H,3-5H2,1-2H3/t7-/m1/s1
