17
gdb 55334	2.32492	1.50132	1.03226	3.9854	75.5	-0.24	0.0331	0.2731	1163.458	0.135472	-417.992033	-417.98289	-417.981946	-418.026436	33.263	
N	-0.0469249869	 1.3094281463	-0.0308093624	-0.562092
C	 0.0123589846	-0.0552836706	 0.2251260246	 0.428102
O	 1.0456593819	-0.6458955998	 0.4731979538	-0.394599
N	-1.2045180876	-0.6880266528	 0.1516244918	-0.090754
C	-2.4844168727	-0.3017293659	-0.4482680952	-0.178603
C	-2.9082370769	-1.7931934239	-0.391193326	-0.252473
C	-1.4366030185	-2.1372359402	 0.0368759958	-0.159965
C	-0.6549694856	-2.8359255122	-0.9749324131	 0.361901
C	-0.0603798131	-3.435866911	-1.8295909628	-0.463088
H	 0.7867610952	 1.7943883578	 0.2648511691	 0.260671
H	-0.9058535397	 1.7958223735	 0.1772842635	 0.249573
H	-3.0816408494	 0.3888887684	 0.1588080356	 0.107586
H	-2.3914655493	 0.10575656	-1.4625865225	 0.123249
H	-3.6393056464	-2.0139173308	 0.3867065238	 0.120932
H	-3.223108258	-2.23593169	-1.3340985185	 0.129344
H	-1.3477730827	-2.6573041771	 0.9965673832	 0.119391
H	 0.4958561551	-3.9560117716	-2.5697149507	 0.200825
66.2291	78.0468	124.264	159.3548	207.0937	243.8582	393.3928	409.6748	470.6668	519.8118	539.936	616.2769	627.9893	664.2299	692.6382	764.4868	778.083	833.6273	920.9519	952.5752	1020.7425	1080.1484	1090.5933	1154.4833	1172.1498	1194.8724	1216.6288	1261.3258	1268.6522	1326.98	1357.6116	1434.032	1486.1648	1526.3977	1622.8329	1796.7521	2236.7932	3015.6614	3046.9015	3055.1827	3101.0659	3166.5524	3503.8394	3574.9634	3690.8087
NC(=O)N1CCC1C#C	NC(=O)N1CC[C@H]1C#C	
InChI=1S/C6H8N2O/c1-2-5-3-4-8(5)6(7)9/h1,5H,3-4H2,(H2,7,9)	InChI=1S/C6H8N2O/c1-2-5-3-4-8(5)6(7)9/h1,5H,3-4H2,(H2,7,9)/t5-/m1/s1
