16
gdb 85029	2.35639	1.74593	1.07393	1.4841	66.47	-0.274	-0.0175	0.2565	1092.8605	0.12413	-475.122006	-475.113281	-475.112337	-475.155992	30.556	
C	-0.078070795	 1.5299013162	 0.0107566917	-0.400065
C	 0.0510355601	 0.0150073559	-0.0252834662	-0.017122
O	 0.9046414408	-0.411560392	-1.1046537829	-0.249576
C	 1.9390423678	-1.1478245743	-0.626285408	 0.499722
O	 2.8031017205	-1.6311943206	-1.2963200375	-0.37504
N	 1.8184300414	-1.2364718449	 0.7621850967	-0.193263
C	 2.77066591	-1.9472451002	 1.5951187313	-0.345918
C	 0.7094475417	-0.5616756074	 1.2259629457	 0.403319
O	 0.3498426836	-0.4473514305	 2.3713807665	-0.365484
H	 0.9046990367	 1.998664333	 0.1120674937	 0.136505
H	-0.5480144629	 1.8934730381	-0.9056772406	 0.141377
H	-0.6931520108	 1.8157884854	 0.8677763138	 0.152444
H	-0.9288667036	-0.4552053953	-0.1649320664	 0.135337
H	 2.7919168429	-3.0071742955	 1.3306762208	 0.15538
H	 3.7729793257	-1.5329307199	 1.4641185755	 0.155627
H	 2.4471903713	-1.8267904678	 2.6297706359	 0.166756
66.5452	93.7404	145.4263	191.7279	216.6806	256.7554	269.1413	384.5306	415.8384	598.9942	613.9529	668.2613	707.1803	761.7091	780.0169	934.138	944.9433	1048.2689	1098.2951	1110.3108	1135.9183	1157.5337	1162.1383	1292.6718	1334.1003	1352.6533	1403.4568	1421.2328	1467.4406	1485.1269	1487.4381	1495.3315	1513.7616	1835.9341	1908.4706	3052.3676	3055.6973	3058.3391	3128.0453	3132.009	3140.4167	3160.3353
CC1OC(=O)N(C)C1=O	C[C@H]1OC(=O)N(C)C1=O	
InChI=1S/C5H7NO3/c1-3-4(7)6(2)5(8)9-3/h3H,1-2H3	InChI=1S/C5H7NO3/c1-3-4(7)6(2)5(8)9-3/h3H,1-2H3/t3-/m1/s1
