18
gdb 95463	2.92038	1.10426	0.84074	3.4688	77.9	-0.2584	0.0034	0.2619	1339.0777	0.148077	-401.978982	-401.970169	-401.969225	-402.013397	32.205	
O	 0.0820677828	 1.0765655018	 0.8571123145	-0.430444
C	 0.1052607127	-0.1939191691	 0.2156026706	 0.052837
C	-1.2675226036	-0.9101758779	 0.1504402178	-0.246077
C	-1.3332079455	-1.5788005333	-1.2450041005	-0.263134
C	-0.2505027544	-0.871139169	-2.0222870861	-0.16195
C	 0.5345605612	-0.1329595453	-1.2395068741	 0.270476
C	 1.7457181134	 0.6818771446	-1.6100578285	-0.442907
C	 1.9837562395	 0.7672063556	-3.0484380591	 0.27211
N	 2.1600934546	 0.8244675927	-4.1888078175	-0.315667
H	-0.6005208441	 1.6051416221	 0.4271761233	 0.27725
H	 0.8327741243	-0.7678839312	 0.8052581782	 0.096106
H	-1.4145830775	-1.611251374	 0.9746540779	 0.11116
H	-2.0501474342	-0.1474028116	 0.2375164755	 0.101498
H	-1.1218871315	-2.6548747926	-1.1870383966	 0.118208
H	-2.3187621523	-1.4887203786	-1.7150515298	 0.112556
H	-0.1197783334	-0.9929956379	-3.0921122396	 0.121948
H	 1.6465010952	 1.6936837098	-1.1982237021	 0.164343
H	 2.642276613	 0.2631892939	-1.131067204	 0.161686
48.099	78.0746	118.8595	215.1321	243.2791	335.0633	370.1681	387.1591	411.6466	487.7326	571.0828	628.3845	710.8533	814.1436	848.9678	867.9549	919.7968	940.1141	967.4767	980.6118	1023.0474	1045.6848	1090.6262	1139.8959	1168.2411	1212.9945	1233.1479	1256.4418	1275.698	1312.1571	1324.7187	1330.3856	1372.6915	1424.5609	1457.1552	1481.763	1499.6277	1727.4625	2365.785	3017.4024	3019.5262	3022.109	3040.4712	3056.5265	3061.9011	3108.9893	3196.6988	3787.7808
OC1CCC=C1CC#N	O[C@H]1CCC=C1CC#N	
InChI=1S/C7H9NO/c8-5-4-6-2-1-3-7(6)9/h2,7,9H,1,3-4H2	InChI=1S/C7H9NO/c8-5-4-6-2-1-3-7(6)9/h2,7,9H,1,3-4H2/t7-/m0/s1
