15
gdb 124093	3.72378	1.59049	1.14934	1.924	66.16	-0.2173	0.0311	0.2484	989.4501	0.116924	-453.955252	-453.948679	-453.947735	-453.986252	25.62	
C	 0.0197852292	 1.3933127589	 0.0088090734	 0.001723
O	 1.2957240391	 1.930761346	-0.0387191645	-0.231058
C	 2.0657782879	 1.6763180946	 1.1516368653	-0.209359
C	 1.8957213695	 0.2356309401	 1.5202744969	 0.055797
C	 0.911561075	-0.4936744801	 0.8913591993	 0.453224
N	 0.9819544472	-1.7637670462	 1.3390416917	-0.319553
N	 1.9837199655	-1.9214054548	 2.2488111664	-0.23453
C	 2.5276229295	-0.7133630452	 2.3564179057	-0.113489
O	 0.0186853401	-0.0527658163	-0.0119822368	-0.271325
H	-0.520430739	 1.7081437182	 0.9156169666	 0.103266
H	-0.5075093207	 1.7002788542	-0.8940916639	 0.133502
H	 3.0961523406	 1.9290752994	 0.8856349169	 0.133166
H	 1.7469794737	 2.3643357382	 1.9502788682	 0.110044
H	 0.4136928694	-2.5492746051	 1.0730606802	 0.276474
H	 3.3604896631	-0.568223522	 3.0294936146	 0.112117
123.4834	226.4253	316.7866	367.6094	403.2589	461.509	476.7631	591.2788	673.2675	702.0158	728.8325	787.7126	878.3223	944.7858	956.9528	962.273	1034.5999	1087.8781	1108.5195	1145.3083	1232.2369	1235.7186	1253.6002	1317.3	1320.0558	1348.3885	1406.4502	1437.4196	1455.5062	1497.9061	1510.9575	1577.626	1646.8702	2976.8813	2983.9977	3081.3135	3142.1905	3238.9456	3682.8311
C1OCC2=C(NN=C2)O1	C1OCc2c([nH]nc2)O1	
InChI=1S/C5H6N2O2/c1-4-2-8-3-9-5(4)7-6-1/h1H,2-3H2,(H,6,7)	InChI=1S/C5H6N2O2/c1-4-2-8-3-9-5(4)7-6-1/h1H,2-3H2,(H,6,7)
