16
gdb 85109	2.02704	1.59118	1.24998	3.0086	71.24	-0.2481	-0.0107	0.2374	1083.2361	0.121936	-437.868602	-437.859221	-437.858277	-437.902751	33.828	
C	-0.2938340183	 1.4903175312	-0.0052223362	-0.400617
C	 0.0789324896	 0.0282569961	-0.0312146245	 0.133346
O	 1.298313584	-0.2248342013	-0.8169008864	-0.259282
C	 1.9890731958	-0.7066801973	 0.2561928885	 0.416289
O	 3.1304379483	-1.0285210838	 0.3174739725	-0.325206
C	 0.7768793198	-0.5774970324	 1.2385800361	-0.091329
N	 0.9171385432	 0.3044179472	 2.3852849748	-0.554587
C	 0.2475687135	-1.8692439134	 1.6378757546	 0.317952
C	-0.1811409236	-2.9438682014	 1.961462534	-0.459035
H	 0.5381832752	 2.1117817479	 0.3357126426	 0.122625
H	-0.5824512619	 1.8222095259	-1.0064769246	 0.136296
H	-1.1367042001	 1.6441997678	 0.6740583423	 0.143883
H	-0.7289608682	-0.5952159439	-0.4188540727	 0.111057
H	 1.1986937586	-0.2326236121	 3.1979090106	 0.251958
H	 1.6391350045	 0.9990147042	 2.2216737517	 0.245769
H	-0.5565551002	-3.8956071046	 2.2478025666	 0.21088
84.1981	112.8881	146.0978	155.7396	201.2356	235.5742	260.0503	336.9119	393.3714	485.688	522.4791	618.7103	632.4479	666.6024	669.7635	722.0159	775.7248	815.8155	872.6464	945.3207	1021.5404	1040.5239	1059.3018	1135.343	1146.1811	1225.6725	1284.7425	1349.184	1386.2934	1411.9517	1476.1091	1491.3512	1660.6938	1933.1195	2241.1369	3049.9392	3095.1286	3126.0714	3131.0798	3499.2997	3510.793	3595.1485
CC1OC(=O)C1(N)C#C	C[C@H]1OC(=O)[C@]1(N)C#C	
InChI=1S/C6H7NO2/c1-3-6(7)4(2)9-5(6)8/h1,4H,7H2,2H3	InChI=1S/C6H7NO2/c1-3-6(7)4(2)9-5(6)8/h1,4H,7H2,2H3/t4-,6+/m1/s1
