22
gdb 116906	4.35264	0.5722	0.54419	1.9181	94.25	-0.2256	0.0457	0.2712	2153.0559	0.19263	-367.173076	-367.162354	-367.16141	-367.210436	38.286	
C	-0.1578797005	 1.5942300111	 0.285641605	-0.381606
C	-0.2534740008	 0.0837787665	 0.5076829066	-0.152568
C	-1.0889634233	-0.6189558182	-0.5822977979	-0.340049
C	-1.191648798	-2.0618093465	-0.3948713314	 0.027382
C	-1.2562441008	-3.2517986507	-0.2076892632	 0.074713
C	-1.3470145433	-4.6809090689	-0.032948409	 0.176147
C	-0.8644365167	-5.5229503217	-1.1991024984	-0.451396
C	-1.2493342004	-5.212526411	 1.3619323719	-0.265
N	-2.5433133808	-5.2203475954	 0.667483784	-0.347234
H	 0.4368772292	 2.0718904477	 1.0699164909	 0.115249
H	 0.3127443546	 1.8258083979	-0.6764738161	 0.116409
H	-1.1494051486	 2.0607978476	 0.2891305299	 0.115994
H	 0.7481560925	-0.3600033984	 0.5255133434	 0.109291
H	-0.700601119	-0.1263369831	 1.4858666365	 0.106457
H	-2.0950041075	-0.1778914442	-0.6080671607	 0.125113
H	-0.6479612812	-0.4110567024	-1.5667645167	 0.127002
H	 0.1961722859	-5.3394297862	-1.3966565241	 0.12139
H	-1.0071851988	-6.5832944786	-0.9768107819	 0.125635
H	-1.4278243067	-5.2822762575	-2.1056052779	 0.127207
H	-0.8091036387	-6.1936996795	 1.5205265081	 0.118015
H	-1.0856851454	-4.5005334146	 2.1652670772	 0.116555
H	-3.1118222317	-4.4448145337	 0.9988573841	 0.235293
23.391	68.1928	73.818	130.186	180.0078	215.1724	245.8161	278.9877	318.3569	345.6596	376.0716	448.0099	544.3374	554.1814	633.9005	743.4573	795.3689	839.6383	872.9037	893.2745	927.0408	980.6285	1027.3335	1040.7262	1060.1472	1093.0831	1108.3512	1109.5132	1122.489	1148.6479	1260.3916	1271.4151	1304.2428	1323.0739	1337.1527	1353.9287	1382.4587	1413.5393	1414.1821	1471.4664	1481.5075	1491.6103	1496.6623	1500.0612	1506.3537	1509.2118	2355.3783	3007.9559	3029.8329	3034.536	3040.7057	3041.5393	3072.7182	3100.0314	3105.9037	3108.4023	3111.1401	3126.7133	3198.8433	3505.2008
CCCC#CC1(C)CN1	CCCC#C[C@@]1(C)CN1	
InChI=1S/C8H13N/c1-3-4-5-6-8(2)7-9-8/h9H,3-4,7H2,1-2H3	InChI=1S/C8H13N/c1-3-4-5-6-8(2)7-9-8/h9H,3-4,7H2,1-2H3/t8-/m0/s1
