22
gdb 87169	3.44663	1.02209	0.99267	1.8485	82.25	-0.2259	0.0789	0.3048	1327.8365	0.193171	-404.292214	-404.282553	-404.281609	-404.327335	35.485	
C	-0.1973059321	 1.4866140634	 0.0167810076	-0.313882
N	 0.0233458011	 0.0510147699	 0.1038151818	-0.113689
C	 1.3495988711	-0.4603495486	-0.2232558896	-0.294068
C	 0.8418794662	-0.5192877609	 1.1846718016	 0.315272
C	 1.4759449407	 0.3848550597	 2.2292919269	-0.480589
C	 0.3134075317	-1.8555499555	 1.6772748248	-0.071024
C	 1.3161992831	-2.7801461637	 2.4087559117	-0.089262
O	 0.6210332449	-2.6228729177	 3.6621951614	-0.274862
C	-0.4484371856	-1.8931126384	 3.0252814916	-0.092765
H	 0.6862450889	 2.1060711807	 0.2337921467	 0.099526
H	-0.5292721349	 1.7246766085	-0.9990306411	 0.125417
H	-0.9967632053	 1.7757256155	 0.706800471	 0.121875
H	 1.3799632865	-1.350487259	-0.8482450138	 0.107598
H	 2.1375859588	 0.2631420842	-0.4322345841	 0.101769
H	 2.0354869775	 1.2047369517	 1.7761288581	 0.119526
H	 0.7202051055	 0.8207106242	 2.8915595815	 0.125424
H	 2.1705804547	-0.1787421077	 2.8586180136	 0.13639
H	-0.2222181986	-2.3293711142	 0.853775165	 0.084336
H	 1.312672492	-3.8233197646	 2.0661939261	 0.096328
H	 2.3552910742	-2.4328036237	 2.4640686017	 0.098842
H	-0.6422196912	-0.9338947411	 3.5185668539	 0.099423
H	-1.3812297995	-2.4713573327	 3.0027560335	 0.098415
52.0539	59.3758	147.8374	164.7318	186.1057	260.1425	302.2573	312.1743	335.903	444.4971	465.4476	516.8524	678.725	770.331	825.0577	859.8145	881.949	926.2583	956.7737	971.05	1027.6103	1041.8399	1058.0852	1067.4377	1079.4949	1110.0272	1122.9053	1154.2657	1160.8399	1165.6698	1174.1947	1207.7902	1250.4672	1308.2475	1310.7366	1320.5981	1377.7326	1405.8945	1423.09	1450.7165	1484.6831	1487.6255	1498.7783	1507.147	1514.626	1520.4641	1539.3538	2984.7054	3004.3249	3016.1283	3044.2888	3048.6539	3059.1548	3066.043	3079.4921	3098.5116	3102.2608	3106.5886	3131.8573	3162.5738
CN1CC1(C)C1COC1	CN1C[C@]1(C)C1COC1	
InChI=1S/C7H13NO/c1-7(5-8(7)2)6-3-9-4-6/h6H,3-5H2,1-2H3	InChI=1S/C7H13NO/c1-7(5-8(7)2)6-3-9-4-6/h6H,3-5H2,1-2H3/t7-,8?/m1/s1
