15
gdb 129472	4.40781	1.0012	0.87573	3.5706	66.92	-0.24	-0.0208	0.2192	1257.5922	0.115139	-450.167365	-450.159301	-450.158357	-450.201536	28.938	
N	 0.5453723626	 0.1497293461	-0.7089357788	-0.509925
C	-0.1967290055	 0.2053271407	 0.4280373194	 0.38569
O	-0.0554479821	 1.0542674113	 1.2849641542	-0.356456
C	-1.3086950904	-0.858874114	 0.5338524284	-0.413832
C	-0.940444595	-2.2514269097	 0.128004794	 0.304996
N	-0.5680064096	-2.5674636943	-1.1184755495	-0.291666
N	-0.3258897568	-3.8710564323	-1.0503009959	-0.061155
N	-0.5148193426	-4.4457023034	 0.1253195493	-0.189959
C	-0.9045258857	-3.4298124044	 0.8965176863	-0.12122
H	 1.2966108384	 0.8111807414	-0.8142470339	 0.258997
H	 0.4600254751	-0.621493974	-1.3524684374	 0.274232
H	-1.6425054641	-0.846141608	 1.571772574	 0.141688
H	-2.145167522	-0.5046140485	-0.0812793517	 0.147825
H	-0.0308761305	-4.3980916134	-1.8564965322	 0.297194
H	-1.1376434015	-3.5791107775	 1.9386231337	 0.133592
39.9112	45.567	145.1652	304.3533	330.9206	341.442	391.4377	510.5247	523.2572	573.9746	667.7102	711.3965	722.5063	806.8697	863.3903	887.197	946.514	997.8883	1034.7351	1110.3422	1159.1636	1187.8605	1205.1856	1261.8915	1303.064	1349.4726	1361.3545	1408.2475	1460.0665	1491.211	1560.34	1622.534	1806.8046	3042.3849	3134.5134	3272.4114	3574.0242	3667.6047	3716.7516
NC(=O)CC1=NNN=C1	NC(=O)Cc1n[nH]nc1	
InChI=1S/C4H6N4O/c5-4(9)1-3-2-6-8-7-3/h2H,1H2,(H2,5,9)(H,6,7,8)	InChI=1S/C4H6N4O/c5-4(9)1-3-2-6-8-7-3/h2H,1H2,(H2,5,9)(H,6,7,8)
