19
gdb 90637	3.58937	1.09968	1.00604	5.3384	80.98	-0.2517	0.0241	0.2757	1252.0925	0.158797	-382.041032	-382.032209	-382.031265	-382.074148	33.433	
C	-0.0089812808	 1.5078408151	-0.0761361845	-0.417558
C	 0.0754322085	-0.0143473029	-0.0541105504	-0.014775
C	 1.2303441815	-0.6175431805	-0.9014259943	-0.184238
N	 1.9745672055	-1.0894276969	 0.3233589875	-0.159677
C	 0.8175345418	-0.5848205185	 1.1576068852	-0.054382
C	 1.0810925533	-2.0490065139	 1.0397768169	 0.147947
C	 0.1735495553	-3.057491791	 0.3558373069	-0.481641
C	 1.7790936203	-2.6214391837	 2.1782304052	 0.265712
N	 2.2930449477	-3.1018224031	 3.0953725009	-0.339939
H	 0.9695340358	 1.9603450761	 0.1162466609	 0.130085
H	-0.3595862781	 1.8615157073	-1.0511478023	 0.123458
H	-0.7057644711	 1.8749287112	 0.6845737647	 0.124506
H	-0.9181100769	-0.441222851	-0.2269418562	 0.082723
H	 0.9926911754	-1.4063650799	-1.6197002989	 0.11211
H	 1.8352460415	 0.1419647795	-1.4015410875	 0.123334
H	 0.9775609212	-0.061286138	 2.095981908	 0.112805
H	-0.4596876376	-2.6006606487	-0.4044449655	 0.134112
H	 0.7694479467	-3.8455827702	-0.1142212955	 0.147508
H	-0.4776115102	-3.5257815909	 1.0990455589	 0.14791
121.8289	147.7744	160.6072	198.5811	251.1197	270.9423	309.0231	354.1883	433.3175	461.9372	553.2557	571.996	654.2717	725.4884	824.5357	841.326	881.7045	925.4349	935.6276	973.162	997.8208	1041.9909	1090.1601	1101.6621	1123.8491	1133.3415	1183.4974	1228.4448	1268.8553	1283.6259	1292.1874	1347.284	1391.4093	1412.9063	1417.7566	1484.2893	1494.6502	1496.9404	1500.4754	1510.6738	2358.6427	3032.2763	3043.0326	3054.5856	3064.2847	3102.8821	3105.6942	3117.2519	3117.7927	3154.2653	3155.2228
CC1CN2C1C2(C)C#N	C[C@H]1CN2[C@@H]1[C@]2(C)C#N	
InChI=1S/C7H10N2/c1-5-3-9-6(5)7(9,2)4-8/h5-6H,3H2,1-2H3	InChI=1S/C7H10N2/c1-5-3-9-6(5)7(9,2)4-8/h5-6H,3H2,1-2H3/t5-,6-,7-,9?/m0/s1
