21
gdb 99022	2.9794	0.93693	0.86781	4.1649	75.67	-0.2606	-0.0251	0.2355	1442.2147	0.178179	-461.384967	-461.37411	-461.373165	-461.421368	39.636	
C	-0.0741904308	 1.451028674	 0.0103003435	-0.425222
C	-0.0289152849	-0.0809093951	-0.0504830825	 0.332927
C	 0.1198088786	-0.6750948024	 1.3510786681	-0.382538
O	-1.272072259	-0.5843205702	-0.5529952967	-0.45237
C	 1.1368219956	-0.519293328	-0.9904258786	-0.317403
C	 1.2518205206	-2.0220873455	-1.1428479624	 0.369247
O	 1.8930695127	-2.708980215	-0.372387444	-0.333276
C	 0.5168446299	-2.6904953137	-2.2919203894	-0.137892
O	 0.7099091066	-4.0723486951	-2.291508749	-0.422121
H	 0.8459587537	 1.860946373	 0.4371204489	 0.124708
H	-0.1965265589	 1.881176342	-0.991380731	 0.106224
H	-0.916717498	 1.7740620317	 0.6284030894	 0.129127
H	-0.7050838945	-0.3334662202	 1.9818571828	 0.120597
H	 0.1015383816	-1.7658258297	 1.3184479657	 0.141173
H	 1.0643469728	-0.3655201773	 1.806160035	 0.118887
H	-1.5243502366	-0.0549129011	-1.3174536688	 0.279008
H	 0.9783026088	-0.0572067898	-1.9725094755	 0.096747
H	 2.0828243965	-0.1483255238	-0.5852669294	 0.127508
H	-0.5471014112	-2.4216847951	-2.1896786596	 0.127228
H	 0.8683627581	-2.2368382841	-3.2348153402	 0.105848
H	 1.2757900087	-4.2426723045	-1.5208666164	 0.291593
27.0565	92.04	104.7002	183.1894	201.3052	242.9521	273.5658	295.066	322.0759	336.0121	387.7233	403.0245	428.5584	445.0586	470.8227	546.973	693.3567	753.1157	813.5208	895.9986	924.0511	937.1058	974.4874	1000.5634	1026.6995	1086.8957	1127.0922	1142.5373	1202.7093	1223.1587	1248.1539	1259.1946	1306.8835	1320.1626	1383.0692	1404.6201	1426.3131	1447.3527	1467.205	1477.9931	1486.1533	1495.5239	1496.9954	1504.9412	1785.3468	2964.203	2998.8137	3025.3118	3034.3495	3054.4422	3093.8702	3101.413	3118.1018	3127.9162	3141.7735	3676.6925	3803.3391
CC(C)(O)CC(=O)CO	CC(C)(O)CC(=O)CO	
InChI=1S/C6H12O3/c1-6(2,9)3-5(8)4-7/h7,9H,3-4H2,1-2H3	InChI=1S/C6H12O3/c1-6(2,9)3-5(8)4-7/h7,9H,3-4H2,1-2H3
