18
gdb 97437	3.91022	0.81579	0.702	5.2019	76.28	-0.2488	0.0023	0.2511	1571.5771	0.146793	-435.263475	-435.253441	-435.252497	-435.299527	34.904	
C	 0.6655625129	 0.4308435093	-0.4824237097	-0.323154
N	 0.7977433657	-0.6303947482	 0.499812615	-0.230922
C	-0.1692055531	-0.8251687752	 1.2864984555	 0.137276
O	-0.1987959583	-1.7417893517	 2.2659975608	-0.222098
C	 0.9983924283	-2.4564759214	 2.5999869097	-0.092406
C	 1.2662351745	-3.662785221	 1.6481507048	-0.116987
N	 2.1170448534	-3.4148123865	 0.4835214988	-0.519038
C	 1.8345113095	-4.768551451	 2.4335950741	 0.28201
N	 2.2913359178	-5.6114098968	 3.0781786205	-0.315315
H	 0.7810608124	 0.0172801759	-1.490055769	 0.136286
H	-0.2979539285	 0.9596627052	-0.4315982675	 0.10903
H	 1.4677917549	 1.1631753728	-0.3413912075	 0.135707
H	-1.1150295665	-0.2724743556	 1.2753226646	 0.115208
H	 1.8562173079	-1.7777140611	 2.5862928358	 0.132844
H	 0.8198848265	-2.8080976715	 3.6179597296	 0.140336
H	 0.2800709571	-3.9936538038	 1.2943216089	 0.144034
H	 1.8400128676	-2.5131900974	 0.0972373487	 0.252527
H	 3.079910158	-3.3074734919	 0.791024587	 0.234662
23.9189	100.4528	138.9016	160.8972	206.574	213.969	241.3947	275.557	312.2354	367.4114	400.4091	459.1361	542.4271	587.9632	679.0858	876.3348	903.7872	946.3782	971.8035	996.6015	1040.766	1068.765	1142.6721	1147.0545	1169.4621	1221.4702	1254.3799	1283.9222	1331.1835	1391.4948	1396.7813	1431.8506	1452.6248	1473.5983	1482.9453	1505.9656	1676.9745	1747.3528	2363.1449	2990.3993	3023.7336	3061.8802	3070.7297	3075.4878	3087.8468	3128.7763	3461.0405	3547.0914
CN=COCC(N)C#N	CN=COC[C@@H](N)C#N	
InChI=1S/C5H9N3O/c1-8-4-9-3-5(7)2-6/h4-5H,3,7H2,1H3	InChI=1S/C5H9N3O/c1-8-4-9-3-5(7)2-6/h4-5H,3,7H2,1H3/t5-/m0/s1
