23
gdb 120502	3.14194	0.89724	0.7789	1.2676	88.81	-0.2297	0.018	0.2476	1596.5786	0.204802	-388.310052	-388.300158	-388.299214	-388.345451	36.667	
C	-0.009472967	 1.4922868454	 0.2915349281	-0.382767
C	-0.039034281	-0.0242402721	 0.0872746707	-0.160971
C	-1.4603116206	-0.5920754761	 0.0151294189	-0.172369
C	-1.4894399359	-2.113824065	-0.1654273326	 0.076388
O	-0.8349315491	-2.7578633653	 0.9341402514	-0.288272
C	-1.6683386295	-3.7704772621	 1.5089098752	 0.095275
C	-1.7751291731	-3.5636258722	 3.0197645913	-0.388191
C	-2.9696923769	-3.6494891036	 0.7593204827	-0.102944
C	-2.8680795751	-2.7199744013	-0.1822332445	-0.103589
H	 1.0175674236	 1.8677658273	 0.3408397062	 0.110465
H	-0.5158111674	 2.015594063	-0.5277178102	 0.109433
H	-0.5117489328	 1.7764117513	 1.223094456	 0.112961
H	 0.498806681	-0.28214478	-0.8350933701	 0.089861
H	 0.4943990314	-0.5239280897	 0.9028846618	 0.116276
H	-2.0129884445	-0.3406218825	 0.9292657143	 0.093809
H	-2.0038263432	-0.1331310397	-0.8226370402	 0.085653
H	-0.9446190954	-2.3609665795	-1.0950174383	 0.073404
H	-1.2064152233	-4.756251312	 1.3235210383	 0.077325
H	-2.2591632459	-2.6081491115	 3.2421386267	 0.118232
H	-2.35843914	-4.3688881609	 3.4790869521	 0.109253
H	-0.7784206772	-3.5626629858	 3.4699841027	 0.124935
H	-3.8362029056	-4.258864228	 0.984505004	 0.10287
H	-3.6347360625	-2.4134240897	-0.8830594842	 0.102961
50.7916	93.1915	106.2511	135.2113	228.322	241.489	257.4522	315.9871	326.1873	402.9358	469.1926	569.0696	689.8809	743.2682	771.9274	792.6782	827.0306	867.6971	902.5817	910.4444	949.2207	961.6192	1001.544	1043.0363	1053.8492	1083.4619	1106.5865	1128.8938	1132.3154	1145.3545	1152.3776	1259.047	1274.129	1309.0927	1326.5216	1352.6936	1355.231	1376.0309	1379.245	1398.0921	1401.1342	1413.6505	1473.3044	1486.0229	1494.4038	1495.274	1499.4766	1510.5269	1691.1807	2928.9716	2941.9903	3010.3031	3019.2476	3027.3468	3036.2638	3052.993	3072.7185	3097.0039	3099.5908	3109.6638	3120.3816	3200.6366	3225.6105
CCCC1OC(C)C=C1	CCC[C@H]1O[C@@H](C)C=C1	
InChI=1S/C8H14O/c1-3-4-8-6-5-7(2)9-8/h5-8H,3-4H2,1-2H3	InChI=1S/C8H14O/c1-3-4-8-6-5-7(2)9-8/h5-8H,3-4H2,1-2H3/t7-,8+/m0/s1
