21
gdb 40951	3.44789	1.22525	1.0804	2.0785	84.02	-0.2423	0.0175	0.2598	1193.5876	0.184916	-387.087498	-387.079541	-387.078596	-387.120173	31.288	
C	 0.0480885937	 1.5497399932	-0.0326822605	-0.132252
O	 1.3148812303	 1.5692541199	 0.6516298671	-0.273751
C	 1.480051746	 0.1526110657	 0.461597122	-0.115221
C	 0.0229806174	-0.0029737707	-0.0718755192	 0.289701
C	-0.9519019392	-0.6162190317	 0.9402654608	-0.27456
C	-0.9508993814	-2.1467169253	 0.8559598707	-0.219158
C	-1.3917506995	-2.6130064125	-0.5392878304	-0.247406
C	-0.7495354402	-1.7996279977	-1.6323864494	-0.064958
C	-0.1153733593	-0.6460409557	-1.4193280066	-0.126565
H	-0.7459166465	 2.0296658923	 0.5527557504	 0.099133
H	 0.1068555477	 2.0301957855	-1.0194667476	 0.092436
H	 2.2603382659	-0.0741899159	-0.2772996303	 0.094126
H	 1.7104682941	-0.3709283062	 1.398182142	 0.099324
H	-0.6996429983	-0.2766975277	 1.9511361756	 0.100704
H	-1.9622888216	-0.2424548184	 0.7248639623	 0.096748
H	 0.0618716423	-2.5189865843	 1.0586989026	 0.101271
H	-1.6021440914	-2.5754416147	 1.624597382	 0.094408
H	-1.1544467879	-3.6748327495	-0.6808198202	 0.10425
H	-2.4863721715	-2.545447685	-0.6323350648	 0.109464
H	-0.8160534391	-2.1935171374	-2.6441735807	 0.087279
H	 0.3482573285	-0.1231463139	-2.2540410559	 0.085027
82.5091	101.2502	213.3225	259.3308	327.0974	372.2361	408.5578	463.4085	516.151	627.0009	712.9896	751.253	831.364	858.318	875.7599	897.142	965.6549	970.759	980.0178	983.5868	1009.5508	1010.6256	1040.866	1071.6346	1111.6596	1139.1004	1157.3296	1160.5967	1171.5455	1205.0851	1261.0187	1283.6795	1306.7231	1311.5586	1361.3211	1370.4091	1376.0002	1378.5138	1427.6587	1473.0673	1487.0515	1495.2161	1511.2136	1535.6914	1717.4031	2992.4708	2995.5761	3004.8702	3012.7604	3022.4022	3042.7697	3047.0274	3049.1752	3065.1217	3073.6618	3132.2383	3158.4378
C1OCC11CCCC=C1	C1OCC21CCCC=C2	
InChI=1S/C8H12O/c1-2-4-8(5-3-1)6-9-7-8/h2,4H,1,3,5-7H2	InChI=1S/C8H12O/c1-2-4-8(5-3-1)6-9-7-8/h2,4H,1,3,5-7H2
