19
gdb 31761	5.0224	1.01928	0.90793	3.4376	84.74	-0.2073	0.046	0.2533	1338.9987	0.161083	-382.084059	-382.075639	-382.074695	-382.118366	30.769	
C	 0.1547587152	 1.6640732534	-0.0917765243	-0.364284
C	 0.021788774	 0.1375327393	 0.0280937873	-0.284904
C	 0.653405505	-0.5954661702	-1.1164885785	 0.274858
C	 1.7420170475	-1.4526000566	-1.0728374853	-0.26924
N	 1.9141210961	-1.821658978	-2.3885193172	 0.022744
C	 2.5003529468	-2.5486520056	-3.5313629244	-0.170303
C	 1.407229194	-1.8350908191	-4.4258521802	-0.371351
C	 0.9637460836	-1.2049109236	-3.1156388612	 0.3747
N	 0.1622601914	-0.4444302084	-2.4134557491	-0.420234
H	 1.206777584	 1.9673469392	-0.0797362036	 0.109192
H	-0.2831555621	 2.0093463294	-1.0320129758	 0.1371
H	-0.3557851791	 2.169053646	 0.7346540381	 0.102429
H	 0.4725201687	-0.2058567135	 0.9662609127	 0.092739
H	-1.0424652653	-0.1249946601	 0.0758740288	 0.109982
H	 2.3587461775	-1.7909691169	-0.2580094348	 0.128062
H	 3.537362754	-2.2761746565	-3.7441640886	 0.13091
H	 2.4077822217	-3.6354019525	-3.4578112002	 0.131634
H	 1.8092184608	-1.1527741366	-5.1786479716	 0.132718
H	 0.6944620062	-2.5144652599	-4.8993536721	 0.133246
35.0995	59.0568	142.0434	208.5993	246.1323	308.3776	366.2855	500.813	576.6707	667.9279	698.964	726.405	791.0443	800.7115	812.3087	832.6165	904.5909	976.2426	997.6929	1055.9362	1064.9753	1086.9771	1105.3511	1134.9547	1171.3028	1174.1219	1225.0458	1258.2061	1266.8224	1313.3457	1348.6295	1402.6801	1406.1588	1445.7328	1477.774	1483.4585	1494.8394	1504.3649	1511.9884	1543.2878	1586.9617	3025.3669	3035.5414	3058.8767	3064.4011	3070.6865	3102.7332	3108.7004	3122.6354	3123.7514	3280.2581
CCC1=CN2CCC2=N1	CCc1cn2CCc2n1	
InChI=1S/C7H10N2/c1-2-6-5-9-4-3-7(9)8-6/h5H,2-4H2,1H3	InChI=1S/C7H10N2/c1-2-6-5-9-4-3-7(9)8-6/h5H,2-4H2,1H3
