22
gdb 82917	2.85511	1.36145	1.15481	1.3661	85.78	-0.2152	0.084	0.2992	1194.7695	0.194874	-367.188101	-367.179532	-367.178588	-367.220611	34.275	
C	-0.0510578976	 1.5116379759	-0.0138530237	-0.417166
C	-0.0334785667	 0.0034952271	-0.0952310571	 0.014192
C	 0.7513181176	-0.7230944775	-1.128746618	-0.115297
N	 1.2326166888	-0.6471521285	 0.272235592	-0.117585
C	 1.1262500675	-2.0116771891	 0.8448095747	-0.188863
C	 0.6799248656	-2.9770669334	-0.2535487127	-0.078401
C	-0.7078679345	-2.8580290318	-0.8358995448	-0.348483
C	 0.4498048787	-2.1613681919	-1.5137766119	 0.367141
C	 0.9046614749	-2.6094358961	-2.8837154318	-0.489789
H	 0.8993603792	 1.9258196214	-0.3612524207	 0.124589
H	-0.8575375183	 1.9274294272	-0.6279733925	 0.112346
H	-0.2045809704	 1.843864456	 1.0188043116	 0.118043
H	-0.9509079351	-0.4690619756	 0.2501322267	 0.075281
H	 1.3162580451	-0.1490402811	-1.861204887	 0.077958
H	 2.1207408088	-2.3000430792	 1.2018541747	 0.10729
H	 0.459761332	-2.0054641119	 1.7158486718	 0.10191
H	 1.1689372229	-3.9452143471	-0.3036112209	 0.083447
H	-1.1020845766	-3.7374987606	-1.3369841207	 0.105839
H	-1.4673487866	-2.2871859155	-0.3148040884	 0.113081
H	 0.3243823421	-2.123171963	-3.6767012825	 0.119674
H	 1.961265438	-2.3696179121	-3.0500430511	 0.12014
H	 0.7844424344	-3.6904231034	-3.0034953277	 0.114653
153.3578	181.846	207.4219	222.5321	226.3945	294.2267	330.7235	381.3883	427.2753	475.3798	582.2887	700.9659	738.6389	782.7004	793.9112	823.44	868.9858	893.5008	950.5404	964.1787	996.8186	1031.4457	1035.8138	1050.3982	1057.8496	1071.2321	1099.9587	1122.8036	1127.3779	1142.6501	1176.4239	1222.5705	1242.654	1271.6573	1295.8155	1331.5526	1344.366	1389.5035	1409.7566	1419.7739	1457.1005	1488.9252	1489.2182	1493.3603	1494.703	1501.8461	1508.2134	3022.9035	3029.4643	3030.7445	3065.7061	3081.566	3093.7521	3101.1636	3108.2065	3116.9038	3123.6628	3131.1363	3151.991	3208.9917
CC1C2N1CC1CC21C	C[C@H]1[C@H]2N1C[C@H]1C[C@@]21C	
InChI=1S/C8H13N/c1-5-7-8(2)3-6(8)4-9(5)7/h5-7H,3-4H2,1-2H3	InChI=1S/C8H13N/c1-5-7-8(2)3-6(8)4-9(5)7/h5-7H,3-4H2,1-2H3/t5-,6+,7+,8+,9?/m0/s1
