23
gdb 116155	3.39084	1.00825	0.82343	1.693	82.75	-0.2565	0.0917	0.3482	1479.3279	0.206061	-425.448282	-425.438832	-425.437888	-425.482345	35.953	
C	-0.0670853371	 1.5885458865	-0.013678104	-0.386298
C	 0.0046896361	 0.0594082918	-0.0084358839	-0.188779
C	 0.7174100483	-0.5143545422	-1.227703725	 0.126235
C	 0.8547778642	-2.0418071289	-1.1998710625	-0.208961
C	 1.4050975737	-2.5463329198	-2.5408460326	 0.123048
C	 1.3948299358	-4.0597903574	-2.6752118448	-0.402198
O	 0.6162104253	-2.0159236906	-3.6075565738	-0.248343
C	 0.5601136237	-0.6167772562	-3.5629199949	 0.015531
O	-0.0249565968	-0.1296515051	-2.3865417244	-0.249768
H	 0.9351232078	 2.0315930608	 0.0032755916	 0.109258
H	-0.5761650742	 1.9455847971	-0.9121700526	 0.135784
H	-0.6104430913	 1.9597865994	 0.8603156912	 0.109741
H	 0.526917241	-0.2938654907	 0.8893185334	 0.09361
H	-1.0065831552	-0.3638035772	 0.0263925252	 0.105641
H	 1.7283315184	-0.0704469959	-1.3000070659	 0.057804
H	 1.5156788361	-2.348060958	-0.3807694211	 0.093926
H	-0.1317908663	-2.4881645005	-1.0270000351	 0.104702
H	 2.4396954766	-2.1744981695	-2.6564172463	 0.061327
H	 0.3752289037	-4.4441690176	-2.5749467336	 0.125963
H	 1.7792492709	-4.3584930566	-3.6542318913	 0.124154
H	 2.0174875671	-4.5176614142	-1.900488681	 0.113536
H	 1.5800648325	-0.1977913517	-3.6735527742	 0.070143
H	-0.0710366305	-0.2939835034	-4.3937073444	 0.113943
89.4532	124.8629	164.5857	186.4091	222.1839	246.5916	289.06	336.6938	371.0542	453.0809	472.5204	496.7788	527.9433	689.9055	767.5297	827.0714	861.2493	916.1156	925.298	962.3384	1008.9361	1037.6387	1058.0303	1081.2574	1095.5713	1126.527	1139.6812	1155.4478	1193.7901	1226.6698	1240.5538	1279.001	1295.5925	1321.0299	1347.8609	1379.2663	1387.2346	1396.0263	1406.835	1410.6198	1414.5341	1449.0106	1465.4256	1477.5117	1483.4659	1496.631	1499.4399	1506.4927	1509.4312	2905.7674	2924.4479	2939.1434	3026.8391	3033.3013	3036.8909	3042.1726	3065.4296	3082.7793	3101.8314	3107.765	3116.0988	3120.627	3126.8951
CCC1CC(C)OCO1	CC[C@H]1C[C@@H](C)OCO1	
InChI=1S/C7H14O2/c1-3-7-4-6(2)8-5-9-7/h6-7H,3-5H2,1-2H3	InChI=1S/C7H14O2/c1-3-7-4-6(2)8-5-9-7/h6-7H,3-5H2,1-2H3/t6-,7+/m1/s1
