21
gdb 116443	2.57003	1.31247	1.00561	1.7126	74.42	-0.2404	0.0799	0.3203	1237.3725	0.183269	-461.356667	-461.347704	-461.34676	-461.390065	34.383	
C	-0.1368980233	 1.6140916602	-0.0879808962	-0.415742
C	 0.0059958692	 0.0902925574	-0.0270865714	 0.104412
O	 0.7115452859	-0.4275512896	-1.1623033023	-0.270091
C	 2.1007248086	-0.136277641	-1.151770829	-0.082563
C	 2.7456211619	-0.6235930573	 0.140264464	-0.083093
O	 2.0640707889	-0.0742279137	 1.2595076133	-0.281735
C	 0.6795631773	-0.4353205836	 1.2496804118	 0.0875
C	 0.1075244808	 0.0717281717	 2.5677972378	-0.081989
O	 0.7711852226	-0.5219127381	 3.6656843498	-0.424694
H	 0.7973465577	 2.1218709571	 0.1646587841	 0.12927
H	-0.4391971215	 1.9111568709	-1.0957792605	 0.124508
H	-0.9043507918	 1.9564537068	 0.6124674729	 0.122178
H	-0.9878662412	-0.3651893866	-0.1032123823	 0.087177
H	 2.5297751009	-0.6504370099	-2.0175311305	 0.11002
H	 2.280802438	 0.9424715403	-1.2710413377	 0.097121
H	 2.7117735561	-1.7238729463	 0.1834940382	 0.098774
H	 3.7886819016	-0.2996408051	 0.2086261724	 0.107887
H	 0.606439405	-1.5351189271	 1.240057057	 0.079361
H	 0.1798806827	 1.1690992566	 2.6041022846	 0.094499
H	-0.9509379764	-0.1999600613	 2.6429233503	 0.108014
H	 1.7131841268	-0.4175428914	 3.4848782235	 0.289187
114.7891	124.3436	169.6627	223.3809	245.0162	283.7501	338.2373	363.4618	427.66	444.6931	485.9298	507.0312	583.1057	702.997	797.6725	841.9512	883.0327	928.1685	946.7327	999.7141	1044.5762	1079.4655	1102.433	1116.7078	1126.5834	1140.505	1148.5766	1168.3553	1237.7235	1281.1907	1300.2785	1310.381	1348.779	1366.5202	1380.9538	1393.0995	1403.2404	1413.4911	1423.0279	1443.6434	1484.9805	1490.2697	1492.2558	1501.8778	1508.9944	2973.9073	2983.0643	2996.8539	2999.3494	3045.1132	3048.1491	3075.291	3082.9126	3086.1103	3117.3192	3127.6532	3791.0254
CC1OCCOC1CO	C[C@H]1OCCO[C@H]1CO	
InChI=1S/C6H12O3/c1-5-6(4-7)9-3-2-8-5/h5-7H,2-4H2,1H3	InChI=1S/C6H12O3/c1-5-6(4-7)9-3-2-8-5/h5-7H,2-4H2,1H3/t5-,6+/m1/s1
