16
gdb 48180	5.05918	0.68101	0.63703	0.3151	72.45	-0.2341	-0.104	0.1301	1680.7624	0.120277	-437.846163	-437.836209	-437.835264	-437.882754	33.871	
O	-0.9227113201	 1.5427386481	-0.0781493874	-0.213613
C	 0.1070757808	 1.2971168083	 0.4929157253	 0.090531
C	 1.399318975	 2.0957023041	 0.2728480199	 0.279844
O	 2.3782265646	 1.8003713131	 0.9187412452	-0.277472
C	 1.37526514	 3.1976618118	-0.7796591028	-0.270389
N	 2.563393361	 4.0214404932	-0.8428802096	-0.281643
C	 2.6657644226	 4.9828304581	 0.2650939362	-0.286855
C	 3.9150053321	 5.7318339163	 0.1970397531	 0.280622
C	 4.9545493337	 6.3318691936	 0.1528423973	-0.421259
H	 0.2203692721	 0.4790583451	 1.2355418955	 0.112599
H	 1.2057413959	 2.7033034109	-1.7478359465	 0.14566
H	 0.484488051	 3.8179877863	-0.6243983982	 0.145693
H	 3.387720303	 3.4283123452	-0.8292700076	 0.234341
H	 1.8189106647	 5.6777654331	 0.1838693427	 0.135427
H	 2.5912056347	 4.5092878562	 1.2586318235	 0.126901
H	 5.8689974291	 6.8699981567	 0.1109964735	 0.199613
36.75	47.6655	90.1227	125.8345	155.4755	195.1158	255.5026	341.7768	371.8166	446.3801	496.4612	529.0243	613.1394	665.6414	666.2654	738.779	816.6482	846.1415	969.7632	994.3743	1022.8985	1103.8444	1149.2387	1174.7631	1227.6422	1287.329	1356.2511	1363.4926	1388.3996	1431.8961	1493.8358	1505.5436	1803.2486	1821.4759	2245.968	2922.6858	2960.0239	3011.8475	3025.3775	3069.0032	3506.3601	3521.6737
O=CC(=O)CNCC#C	O=CC(=O)CNCC#C	
InChI=1S/C6H7NO2/c1-2-3-7-4-6(9)5-8/h1,5,7H,3-4H2	InChI=1S/C6H7NO2/c1-2-3-7-4-6(9)5-8/h1,5,7H,3-4H2
