19
gdb 41920	2.20005	2.19888	1.89027	2.2407	73.26	-0.2137	0.0708	0.2845	880.1709	0.163186	-423.00809	-423.001355	-423.000411	-423.039128	27.596	
C	-0.0236773654	 1.5377264924	 0.0231739635	-0.052728
O	 1.2511110882	 2.1526719179	-0.117084751	-0.258966
C	 2.2488432053	 1.4481435913	-0.7990102739	 0.069933
C	 1.9886803549	 0.0956129138	-1.4363432254	-0.140391
C	 0.5822189667	-0.4542858264	-1.3433051492	-0.229398
C	 0.0160009615	 0.0040974685	 0.0073649467	-0.094122
C	 0.8821340021	-0.5910902245	 1.1251178139	-0.052839
O	 2.2414299974	-0.1741975037	 1.0895252542	-0.258859
C	 2.7839319766	 0.1907939448	-0.1471621761	 0.069664
H	-0.4318817097	 1.9103213764	 0.9692213551	 0.105692
H	-0.6911399999	 1.8769175399	-0.7856506315	 0.088988
H	 2.9355459753	 2.1362423269	-1.2818587659	 0.096281
H	 2.5459962586	-0.1356636278	-2.3397951953	 0.087388
H	-0.0355578934	-0.079954598	-2.168244633	 0.099687
H	 0.5889536742	-1.5488505166	-1.4078715445	 0.099683
H	-1.0085362413	-0.3622728324	 0.1415838123	 0.079065
H	 0.5063495975	-0.2979935383	 2.111682967	 0.105703
H	 0.8281089107	-1.6899873611	 1.0596166805	 0.088949
H	 3.8499542905	-0.0125586632	-0.1680705475	 0.096268
101.6336	190.5789	343.0617	350.7343	429.7835	500.1434	552.3594	625.2312	669.6785	731.5392	778.3485	786.7505	869.8445	894.668	912.6391	935.5472	959.3875	998.0602	1002.6812	1068.5391	1084.0636	1104.4459	1112.1502	1123.9142	1124.8039	1172.0531	1237.4913	1249.9695	1254.9954	1267.314	1322.8766	1342.3844	1344.9288	1365.4895	1376.5043	1414.7069	1423.0839	1444.1937	1496.6947	1507.7963	1522.1209	2968.8944	2969.9192	3022.0214	3044.9572	3055.9485	3061.0524	3062.4741	3139.0281	3150.8207	3161.9803
C1OC2C3CC1COC23	C1O[C@@H]2[C@@H]3C[C@H]1CO[C@H]23	
InChI=1S/C7H10O2/c1-4-2-8-6-5(1)7(6)9-3-4/h4-7H,1-3H2	InChI=1S/C7H10O2/c1-4-2-8-6-5(1)7(6)9-3-4/h4-7H,1-3H2/t4-,5+,6-,7+
