16
gdb 8567	4.07237	2.02459	1.7279	4.4408	63.82	-0.2595	0.0109	0.2704	785.3545	0.133042	-383.771973	-383.765887	-383.764942	-383.802105	24.542	
O	 0.0328606673	 0.0974475628	 0.5779928023	-0.330776
C	-0.0233726657	 1.1865205783	 0.0800426958	 0.412713
C	-1.3329186227	 1.9414083224	-0.1713672559	-0.345906
C	-1.0968606813	 3.307159841	-0.8183880738	-0.030708
C	-0.0886512002	 3.1200511192	-1.990505034	-0.243725
C	 0.9963812196	 3.1279298173	-0.890157009	 0.127848
C	 0.0547529192	 4.0163475696	-0.0462531574	-0.243725
O	 1.1204004374	 1.8204743178	-0.2965717143	-0.235124
H	-1.9602738009	 1.2963869973	-0.796352926	 0.138349
H	-1.8429592908	 2.0296248252	 0.7941948228	 0.13835
H	-2.0270923594	 3.8486543553	-0.999403435	 0.075191
H	-0.1655060189	 2.2248558041	-2.6130642837	 0.110879
H	-0.0195820993	 4.0083971332	-2.6224114537	 0.11145
H	 2.0150301957	 3.4444880961	-1.1112225043	 0.092853
H	 0.150139269	 5.0691792311	-0.321356532	 0.11145
H	 0.103970801	 3.9091237292	 1.0404583681	 0.11088
113.0339	304.7843	397.6447	442.6083	447.3685	507.8774	579.2914	615.2592	763.7857	815.9533	855.591	868.3871	915.5104	926.6349	934.1891	992.3819	1030.9765	1076.1861	1086.7682	1097.245	1137.5112	1156.8535	1202.7328	1216.9501	1248.2397	1268.0951	1297.7769	1323.9503	1362.5984	1389.7898	1459.7839	1472.6972	1504.5523	1857.8793	3048.6617	3062.0832	3065.8351	3087.0132	3091.8425	3120.9363	3123.7951	3127.5534
O=C1CC2CC(C2)O1	O=C1C[C@@H]2C[C@@H](C2)O1	
InChI=1S/C6H8O2/c7-6-3-4-1-5(2-4)8-6/h4-5H,1-3H2	InChI=1S/C6H8O2/c7-6-3-4-1-5(2-4)8-6/h4-5H,1-3H2/t4-,5+
