18
gdb 8887	3.72209	1.24472	1.00073	2.6819	65.36	-0.2658	0.0037	0.2694	1199.0025	0.151515	-422.114698	-422.10512	-422.104176	-422.149509	33.056	
C	-0.053368681	 1.5254546262	 0.0998963145	-0.386322
C	-0.0274280153	-0.0008490216	 0.0071600693	-0.179639
C	 0.7326313175	-0.4862079627	-1.2428976218	 0.030519
O	 2.0605665131	-0.0211341171	-1.2532483755	-0.437395
C	 0.7405474221	-2.0075714968	-1.316332579	 0.423767
O	 1.7523765525	-2.663269095	-1.21483842	-0.380641
O	-0.4800818518	-2.523806301	-1.4898730023	-0.225672
C	-0.5472076136	-3.9578139059	-1.5442033475	-0.243746
H	 0.9637158909	 1.9249207101	 0.1013871557	 0.140761
H	-0.58705757	 1.9633179994	-0.7511470223	 0.113137
H	-0.555722688	 1.8530942985	 1.0148449614	 0.110958
H	 0.4664090139	-0.4219883607	 0.8918408262	 0.101839
H	-1.044827304	-0.4054394636	-0.0218718062	 0.107223
H	 0.2101582386	-0.1114070058	-2.1363526395	 0.098336
H	 2.6151210539	-0.8088021003	-1.148777105	 0.294139
H	 0.0548323944	-4.3369645432	-2.3732487855	 0.14708
H	-0.1807575682	-4.3936410838	-0.6117739502	 0.145916
H	-1.5994158449	-4.1985269568	-1.6925036222	 0.139739
57.0011	101.6666	115.6587	125.4355	199.5814	240.6519	245.4914	323.8997	367.9315	382.5572	407.9285	516.0367	667.3647	769.1819	790.3901	886.6089	938.7846	998.1285	1022.6891	1076.6936	1126.1037	1160.8231	1178.8365	1210.3564	1242.8629	1287.3664	1299.6135	1341.8769	1378.6243	1408.104	1448.1148	1477.2637	1481.9707	1483.3987	1495.8458	1496.362	1510.2566	1800.6902	2993.4374	3031.5798	3037.5724	3056.1814	3079.1985	3103.5507	3128.4128	3133.3866	3165.8405	3716.2557
CCC(O)C(=O)OC	CC[C@@H](O)C(=O)OC	
InChI=1S/C5H10O3/c1-3-4(6)5(7)8-2/h4,6H,3H2,1-2H3	InChI=1S/C5H10O3/c1-3-4(6)5(7)8-2/h4,6H,3H2,1-2H3/t4-/m1/s1
