18
gdb 69349	2.77824	1.35037	1.09858	3.4179	76.69	-0.2716	0.0153	0.2869	1148.011	0.146443	-401.935607	-401.926847	-401.925903	-401.968654	33.527	
C	-0.0265590642	 1.5561982429	 0.0667551779	-0.500527
C	 0.0299156132	 0.0581163238	 0.0013105177	 0.376948
C	-0.8732003137	-0.8543920509	 0.7773807428	-0.343123
C	 0.6133362296	-0.9476301094	 1.0058928527	-0.113899
C	 1.2538110179	-1.7512211329	-0.1258009501	 0.267388
O	 0.8255447691	-3.093979524	-0.1683414426	-0.4609
C	 0.6354747471	-0.735443066	-1.1662218492	-0.365073
C	 2.7235514456	-1.6796396104	-0.1059904302	 0.228838
N	 3.8791565833	-1.6461527736	-0.1160528134	-0.339731
H	 0.9437379744	 2.0035205166	-0.1758785159	 0.126315
H	-0.7633770621	 1.9547302092	-0.6408123258	 0.125617
H	-0.3131024347	 1.895949019	 1.0671200275	 0.123667
H	-1.415641128	-0.3880427121	 1.5938221627	 0.117561
H	-1.401297337	-1.6716635741	 0.2954027385	 0.125369
H	 1.0700896802	-0.7869024119	 1.9740644555	 0.104685
H	 1.2464844834	-3.5300496545	-0.9183207634	 0.292499
H	-0.0722826102	-1.1903131303	-1.8661238394	 0.107271
H	 1.4014340062	-0.1904419416	-1.7211793254	 0.127095
88.7108	157.0052	205.6257	214.9217	251.9193	305.6538	333.7679	379.4859	424.8822	465.151	504.022	567.1106	630.8831	683.276	788.0167	810.8247	893.4586	918.7909	956.8861	977.6112	988.4715	1034.247	1066.9361	1071.8945	1084.407	1104.0291	1155.8737	1216.8574	1238.37	1256.0133	1293.1577	1360.791	1398.4635	1428.4233	1473.4503	1486.3327	1497.2238	1505.3107	2349.0508	3024.5427	3053.1641	3084.4289	3101.0674	3122.0128	3122.597	3196.0697	3209.9071	3799.7703
CC12CC1C(O)(C2)C#N	C[C@]12C[C@H]1[C@@](O)(C2)C#N	
InChI=1S/C7H9NO/c1-6-2-5(6)7(9,3-6)4-8/h5,9H,2-3H2,1H3	InChI=1S/C7H9NO/c1-6-2-5(6)7(9,3-6)4-8/h5,9H,2-3H2,1H3/t5-,6-,7-/m1/s1
