17
gdb 88923	2.55919	1.21582	0.8907	3.7899	74.21	-0.2437	-0.0914	0.1524	1276.5779	0.133995	-417.986997	-417.977649	-417.976705	-418.023175	32.72	
C	 0.4300068971	 1.9459785265	 0.5116147986	-0.334291
N	 0.0378568763	 0.556300272	 0.3276421778	-0.063319
C	 1.0209677286	-0.35942498	-0.2285459375	-0.253792
C	 0.5604124516	-0.5057185003	 1.1841151313	-0.000734
C	 1.5509200922	-0.2994617485	 2.3292624595	-0.332402
C	 0.8565245606	-0.1926762977	 3.6706544373	 0.295816
O	 0.8914432623	-1.0363926313	 4.5296055241	-0.254783
C	 0.0792866715	 1.0478967939	 3.8994875386	 0.243666
N	-0.5123319505	 2.0243000954	 4.0843542941	-0.309052
H	 1.4955600088	 2.0949025608	 0.7519471311	 0.097665
H	 0.2275842226	 2.4815359204	-0.4207761873	 0.132616
H	-0.1725332013	 2.3957944185	 1.3046347305	 0.154881
H	 0.6729851696	-1.0416397267	-0.9997790747	 0.124221
H	 2.0363663298	 0.0115274478	-0.3737181819	 0.109135
H	-0.1773498737	-1.2780195984	 1.3978270119	 0.110627
H	 2.2194443073	-1.1627745202	 2.3976463112	 0.145443
H	 2.1561492373	 0.5975806079	 2.1635557754	 0.134302
10.7627	84.1681	128.1197	166.9879	227.1571	265.6073	277.896	325.0026	402.4062	427.5669	489.1461	614.3186	667.5282	736.0526	773.8047	814.3471	905.5071	967.775	1037.1166	1069.4988	1093.197	1116.3744	1129.6173	1162.6353	1175.2458	1204.1745	1252.8405	1290.4249	1344.2139	1404.107	1446.3248	1460.7028	1492.6425	1505.2183	1513.6385	1797.0766	2334.9773	2967.2848	3055.997	3077.6133	3080.6867	3105.3965	3117.9	3125.4486	3172.6263
CN1CC1CC(=O)C#N	CN1C[C@H]1CC(=O)C#N	
InChI=1S/C6H8N2O/c1-8-4-5(8)2-6(9)3-7/h5H,2,4H2,1H3	InChI=1S/C6H8N2O/c1-8-4-5(8)2-6(9)3-7/h5H,2,4H2,1H3/t5-,8?/m1/s1
