21
gdb 82316	2.46415	1.73978	1.27122	1.7203	80.97	-0.2517	0.0859	0.3377	1070.5682	0.183442	-387.075412	-387.067374	-387.06643	-387.107656	32.526	
C	 0.0559737524	 1.5879352932	-0.0776165322	-0.414801
C	 0.0970163226	 0.0623432486	 0.0236220512	-0.082657
C	 0.8455727543	-0.5980412007	-1.1241050128	 0.045544
O	 2.2733331444	-0.5135537284	-1.0039808996	-0.26096
C	 1.6231223242	-1.7361368981	-0.6263223538	 0.041467
C	 1.4002084019	-1.8755191655	 0.8658649516	-0.325229
C	 0.7934969301	-0.5258415732	 1.2711272791	 0.368382
C	 1.5330615435	 0.3445426472	 2.2548078206	-0.293534
C	 0.2405661166	-0.3230478691	 2.6553971396	-0.331738
H	 1.0672178958	 1.9972701501	-0.1532622946	 0.136081
H	-0.5028051142	 1.8983181731	-0.9666523158	 0.110874
H	-0.4353101147	 2.0397701762	 0.7905363028	 0.114872
H	-0.9350935215	-0.3194089074	-0.0107776864	 0.07346
H	 0.4590947614	-0.5399336244	-2.1396011123	 0.087433
H	 1.864741664	-2.6011383803	-1.2391870303	 0.090309
H	 0.6972059623	-2.7019035605	 1.0396715717	 0.100377
H	 2.3190215371	-2.1055855669	 1.4151613711	 0.107164
H	 2.4602477127	-0.0406674553	 2.6663296744	 0.107832
H	 1.5288568831	 1.4187664659	 2.1134684051	 0.112118
H	-0.6400405528	 0.3026917842	 2.7670716306	 0.106574
H	 0.2789475568	-1.1561598086	 3.35022713	 0.106432
83.015	193.4161	239.4124	281.5501	283.9249	355.5596	380.8804	423.5196	495.7181	588.5439	650.3691	750.2831	774.6455	815.1078	855.8815	870.3744	890.5877	915.099	951.6578	962.7991	981.1254	1018.3829	1032.1107	1051.8587	1062.813	1084.6088	1107.8376	1129.3702	1130.6963	1188.8364	1197.2724	1250.5109	1263.8112	1293.2144	1307.9501	1328.2588	1363.4188	1373.458	1408.1954	1443.2601	1466.1846	1484.5165	1495.9012	1505.5562	1510.1995	2986.466	3016.6971	3034.6919	3073.7104	3096.132	3116.4919	3118.2102	3132.0322	3137.3905	3147.6198	3197.3519	3223.3492
CC1C2OC2CC11CC1	C[C@H]1[C@H]2O[C@H]2CC21CC2	
InChI=1S/C8H12O/c1-5-7-6(9-7)4-8(5)2-3-8/h5-7H,2-4H2,1H3	InChI=1S/C8H12O/c1-5-7-6(9-7)4-8(5)2-3-8/h5-7H,2-4H2,1H3/t5-,6-,7+/m0/s1
