16
gdb 91732	2.68352	1.70326	1.53046	1.0585	63.93	-0.2692	0.0104	0.2796	920.7802	0.126742	-475.036177	-475.029321	-475.028377	-475.067394	27.557	
O	 0.1227493312	 1.4032328107	 0.1314073278	-0.435785
C	 0.011177228	 0.0079959217	 0.0223587445	 0.123867
C	-1.4415598454	-0.5622795612	-0.1214819695	-0.275105
C	-1.3330285524	-1.2886773473	-1.4832462741	-0.034346
O	 0.019288773	-1.807078604	-1.4405104503	-0.243105
C	 0.637107601	-0.564561797	-1.2744222675	 0.140211
O	 0.1157094757	 0.2475851385	-2.3669356973	-0.279899
C	-1.1706675744	-0.2232673539	-2.5497246932	 0.440589
N	-2.0120873774	 0.1776754783	-3.3927424127	-0.549985
H	-0.0538608934	 1.77278573	-0.7428192145	 0.291861
H	 0.514050928	-0.4133349376	 0.8956286464	 0.106047
H	-1.6780491867	-1.2771012169	 0.6685293009	 0.121104
H	-2.1861271429	 0.2356063855	-0.114221688	 0.132031
H	-2.050732748	-2.071788179	-1.7068407594	 0.119591
H	 1.72028557	-0.6202103469	-1.3542798624	 0.112673
H	-1.6310547362	 0.9295747691	-3.9697619108	 0.230252
111.8268	203.6331	286.7078	399.0453	418.2021	432.5003	521.5228	540.2694	616.0186	711.5542	758.2028	805.9614	840.2125	864.0568	883.6155	900.4361	935.8046	963.2636	985.5029	1042.1277	1053.8257	1088.0071	1122.0918	1160.6952	1212.28	1246.7745	1259.7325	1286.9796	1310.085	1322.4356	1342.8161	1359.5561	1440.5811	1481.909	1811.7629	3080.8161	3092.5779	3138.8913	3163.0416	3182.699	3473.7638	3781.4043
OC1CC2OC1OC2=N	O[C@H]1C[C@@H]2O[C@H]1O[C]2[NH]	
InChI=1S/C5H7NO3/c6-4-3-1-2(7)5(8-3)9-4/h2-3,5-7H,1H2	InChI=1S/C5H7NO3/c6-4-3-1-2(7)5(8-3)9-4/h2-3,5-7H,1H2/t2-,3-,5-/m0/s1
