16
gdb 133684	2.47766	1.11642	0.9129	2.1481	63.19	-0.2682	0.0471	0.3153	1272.8481	0.118367	-532.234766	-532.225345	-532.224401	-532.269856	33.909	
C	-0.0431697503	 1.5760293782	 0.1967828998	-0.398401
C	 0.0347631691	 0.0353284354	 0.1806939228	-0.15409
C	-1.3844827425	-0.5717842868	 0.1166075875	-0.332984
C	-1.444049543	-2.0571096771	 0.4182811262	 0.279868
F	-0.8777745159	-2.3387427109	 1.6065249924	-0.087398
F	-2.7205304253	-2.4732384775	 0.4774408892	-0.07858
F	-0.8237975499	-2.8007575047	-0.5047231836	-0.06593
C	 0.887659499	-0.4219009336	-0.9157262739	 0.343505
C	 1.59691159	-0.7503909024	-1.828265759	-0.483551
H	 0.9584314441	 2.0077509987	 0.2560874899	 0.134307
H	-0.5191328658	 1.9495050905	-0.7147901133	 0.130643
H	-0.6230809558	 1.9212321419	 1.0583243716	 0.118303
H	 0.4848650201	-0.2925017788	 1.1261255623	 0.125423
H	-2.0203696338	-0.0795942504	 0.8584808454	 0.130006
H	-1.8310142807	-0.4108875401	-0.8684288787	 0.138156
H	 2.2222719308	-1.0653899521	-2.6266655285	 0.200723
36.7396	95.7736	138.186	185.3802	216.254	262.1879	305.9838	351.7924	368.628	516.8102	536.7654	537.9513	576.0304	636.5319	645.1765	664.1529	805.9605	845.6116	911.9104	959.002	1041.9655	1071.5631	1141.5452	1152.4203	1189.3786	1266.2377	1299.5853	1317.2034	1369.1099	1388.1422	1411.8849	1470.75	1492.5983	1500.7067	2238.9493	3033.4483	3042.0601	3066.1151	3113.7219	3119.5591	3129.5075	3503.8652
CC(CC(F)(F)F)C#C	C[C@@H](CC(F)(F)F)C#C	
InChI=1S/C6H7F3/c1-3-5(2)4-6(7,8)9/h1,5H,4H2,2H3	InChI=1S/C6H7F3/c1-3-5(2)4-6(7,8)9/h1,5H,4H2,2H3/t5-/m1/s1
