17
gdb 32934	4.74025	0.88486	0.77404	2.2236	73.02	-0.1954	0.0352	0.2306	1471.1522	0.136028	-455.172531	-455.16361	-455.162666	-455.207274	32.049	
C	 0.0740158132	 1.4460317805	 0.0962873951	-0.387529
C	-0.2304735678	 0.0030703874	-0.2529773981	-0.061395
O	 0.9605210307	-0.5694012442	-0.8366879253	-0.27569
C	 0.8517397587	-1.8315298502	-1.2465712719	 0.366831
C	 0.9676566174	-2.4555524428	-2.4356071142	-0.219372
N	 0.8721128639	-3.8396883181	-2.2494007529	-0.335701
C	 0.6837396645	-3.9677537605	-0.9754841467	 0.454881
N	 0.4259868519	-5.1196883694	-0.267016871	-0.58521
O	 0.6613063992	-2.8100553173	-0.2717973761	-0.222996
H	 0.8993671269	 1.5032010348	 0.8112772841	 0.133477
H	 0.3525383103	 2.0099093148	-0.7981416186	 0.132758
H	-0.806523506	 1.91598443	 0.5440219336	 0.122417
H	-0.5066349393	-0.5739241742	 0.6371880336	 0.118521
H	-1.0490660453	-0.0746790569	-0.9800605755	 0.108878
H	 1.1278752601	-2.0157506229	-3.4058719312	 0.120388
H	 0.6680458051	-5.9457442642	-0.7957190579	 0.268464
H	 0.8105264065	-5.1282706168	 0.6674662231	 0.261276
43.4222	61.9286	113.7254	237.0593	249.3798	287.017	324.9528	364.1605	411.1352	506.8334	637.5787	645.0515	700.5014	758.9204	775.8942	815.7372	829.565	895.5215	972.5892	998.1366	1050.6173	1086.3019	1128.9787	1179.2844	1190.6413	1237.4619	1285.7777	1290.7491	1396.0096	1419.7181	1434.8427	1482.8821	1499.3645	1520.8311	1606.0823	1675.9025	1705.0595	3019.7245	3048.0098	3065.9776	3123.2843	3127.5318	3273.7798	3562.6265	3668.6934
CCOC1=CN=C(N)O1	CCOc1cnc(N)o1	
InChI=1S/C5H8N2O2/c1-2-8-4-3-7-5(6)9-4/h3H,2H2,1H3,(H2,6,7)	InChI=1S/C5H8N2O2/c1-2-8-4-3-7-5(6)9-4/h3H,2H2,1H3,(H2,6,7)
