18
gdb 14546	4.5855	1.48434	1.36668	3.2668	73.23	-0.2464	-0.0143	0.2321	956.7786	0.153364	-347.790692	-347.78291	-347.781966	-347.8227	29.305	
C	-0.0578190026	 1.5543289799	 0.0845230949	-0.475309
C	 0.0403228217	 0.0449729137	 0.0906015639	 0.232627
C	-1.1700026593	-0.6514287324	-0.4247366076	 0.12357
O	-2.1657626719	-0.0985171739	-0.8232607353	-0.277065
C	 1.3019839368	-0.7543632594	-0.2283817447	-0.091472
C	 2.5586891799	-0.0370744372	 0.2822399664	-0.245563
C	 1.9628372578	-0.0700656519	 1.7266407494	-0.245524
C	 0.7230678045	-0.7862815457	 1.1746841048	-0.091526
H	 0.844967399	 2.0342650959	 0.4656001377	 0.115953
H	-0.2358686166	 1.9177006163	-0.9317148638	 0.132406
H	-0.9035878711	 1.8809959864	 0.6964718473	 0.132317
H	-1.0957837558	-1.7651613003	-0.4193480818	 0.063342
H	 1.290122483	-1.5234749337	-0.9923620745	 0.094031
H	 3.4502107147	-0.6613870986	 0.1940254726	 0.111958
H	 2.7771909199	 0.9412890156	-0.1542553584	 0.107136
H	 2.543027344	-0.7115963602	 2.3931089088	 0.111974
H	 1.7944592958	 0.8869040387	 2.2279458186	 0.107119
H	 0.18853084	-1.5842456932	 1.6775457718	 0.094027
95.7252	119.5418	219.1387	241.8423	291.02	321.3199	413.7844	414.1987	560.0546	710.0808	750.4169	788.9722	830.8127	860.141	936.3594	951.8571	961.6038	1003.1823	1021.5762	1040.7202	1070.4861	1097.5286	1105.6792	1110.7696	1192.8005	1220.828	1248.3639	1259.7213	1290.2919	1317.9253	1387.0928	1418.9229	1445.4928	1473.0103	1492.6162	1493.7253	1505.6841	1817.2029	2846.8009	3050.4277	3059.6124	3065.8685	3104.2687	3112.3524	3121.2532	3132.3515	3167.6551	3177.9718
CC1(C=O)C2CCC12	C[C@@]1(C=O)[C@H]2CC[C@@H]12	
InChI=1S/C7H10O/c1-7(4-8)5-2-3-6(5)7/h4-6H,2-3H2,1H3	InChI=1S/C7H10O/c1-7(4-8)5-2-3-6(5)7/h4-6H,2-3H2,1H3/t5-,6+,7+
