17
gdb 65008	1.90419	1.72363	1.05188	1.0322	79.23	-0.2539	0.0251	0.279	1155.915	0.132085	-384.596536	-384.587125	-384.586181	-384.630441	35.872	
O	-0.1922415672	 1.3212685974	-0.3725340896	-0.463067
C	-0.0195664634	-0.0151858393	-0.0056291005	 0.423253
C	-0.3754453191	-0.4265881119	 1.3958863497	-0.315846
C	-1.2818340448	-0.7761649253	 0.2256035991	-0.319189
C	 1.1773011072	-0.658076013	-0.7450533053	-0.409455
C	 2.4000397153	 0.0954087045	-0.4311696207	 0.314251
C	 3.3623234908	 0.7616362762	-0.1586573116	-0.449789
C	 1.3454597505	-2.0873281283	-0.4771945774	 0.321546
C	 1.4717506005	-3.26257576	-0.2639962472	-0.437544
H	 0.5956121856	 1.8011834074	-0.0859599299	 0.286202
H	 0.183589779	-1.2296101873	 1.862354427	 0.127011
H	-0.7012486025	 0.364642295	 2.0610126963	 0.115985
H	-2.2012489632	-0.213288088	 0.1152161085	 0.125691
H	-1.3272546306	-1.8120009963	-0.0890392469	 0.127212
H	 0.9704085991	-0.5298894307	-1.8176567426	 0.146934
H	 4.232047639	 1.3258955551	 0.0730102573	 0.20423
H	 1.5903755539	-4.3016926854	-0.0784864061	 0.202575
68.326	127.0749	144.7057	157.3918	310.3351	320.567	344.1928	366.3593	401.3196	444.3098	502.6413	538.5366	562.8061	631.9872	640.5436	658.0646	665.7636	740.9585	778.321	886.5719	930.4992	953.009	966.428	1006.0177	1050.2183	1052.8992	1084.7028	1189.3801	1226.9909	1267.1863	1300.8704	1312.3388	1394.6091	1446.6401	1501.4954	2234.5242	2242.884	3002.8891	3140.9344	3145.5911	3229.071	3241.7081	3500.0719	3501.4244	3765.2794
OC1(CC1)C(C#C)C#C	OC1(CC1)C(C#C)C#C	
InChI=1S/C8H8O/c1-3-7(4-2)8(9)5-6-8/h1-2,7,9H,5-6H2	InChI=1S/C8H8O/c1-3-7(4-2)8(9)5-6-8/h1-2,7,9H,5-6H2
