14
gdb 25436	2.76686	1.56304	0.9988	6.0867	74.55	-0.228	-0.0698	0.1582	1088.91	0.103477	-432.915085	-432.907678	-432.906733	-432.947398	27.297	
N	 0.2434739614	 1.3521607208	-0.448661198	-0.527918
C	 0.1548574398	 0.0962514733	-0.2290004675	 0.270817
N	 1.2951426178	-0.7527705971	-0.2263675972	-0.307767
C	 1.1495364412	-2.0022169107	-0.0009483967	 0.099023
N	-0.0552319489	-2.6246490995	 0.2489163713	-0.320441
C	-1.1982581654	-1.8743812293	 0.2630881378	-0.023425
C	-1.1442253397	-0.5420230934	 0.0350161262	 0.081573
C	-2.4067634501	 0.2318657243	 0.0598257231	 0.093697
O	-3.491286536	-0.2689985521	 0.2744875348	-0.28928
H	 1.2227718847	 1.5942321196	-0.6079241187	 0.218903
H	 2.0142623869	-2.6634871871	 0.003935496	 0.138937
H	-0.0860963682	-3.6170109344	 0.4176375517	 0.277141
H	-2.1374100074	-2.3774097895	 0.4608622148	 0.165782
H	-2.2843190662	 1.3113946651	-0.1348833378	 0.122958
79.0948	137.4758	209.6893	262.2347	371.6434	418.4621	464.1038	501.7041	564.7653	579.0658	637.2869	790.3412	822.8882	896.1712	906.5293	947.4257	964.9826	999.57	1059.1814	1071.9227	1180.4616	1236.5888	1296.8875	1375.1389	1421.1045	1430.3454	1499.8098	1621.8078	1690.225	1717.536	1784.0227	2995.7517	3151.6035	3216.518	3471.285	3647.6634
N=C1N=CNC=C1C=O	[NH]C1=C(CNC=N1)C=O	
InChI=1S/C5H5N3O/c6-5-4(2-9)1-7-3-8-5/h1-3H,(H2,6,7,8)	InChI=1S/C5H6N3O/c6-5-4(2-9)1-7-3-8-5/h2-3,6H,1H2,(H,7,8)
