22
gdb 36734	5.18494	0.66393	0.61567	4.3767	86.8	-0.311	0.0388	0.3497	1808.9672	0.195931	-367.254318	-367.244843	-367.243898	-367.290623	34.207	
N	-0.1314641719	-1.1780216298	-0.2076125679	-0.306776
C	-0.0979922426	-0.0254712558	-0.1291946086	 0.258554
C	-0.0309530645	 1.4307579437	-0.0294193779	-0.34737
C	 1.4193129243	 1.9561529078	 0.0222282906	-0.207086
C	 1.4960477813	 3.4824424297	 0.0916827978	 0.047193
C	 0.89430661	 4.1117717176	 1.3712666979	-0.207715
C	 1.63250223	 5.4672094254	 1.5707058162	-0.208033
C	 2.7590839463	 5.499640856	 0.5043709598	-0.205421
C	 2.9320543821	 4.0352492567	 0.0737174584	-0.218583
H	-0.5583178708	 1.8612256997	-0.8892220258	 0.149305
H	-0.5831907479	 1.740729274	 0.8645162599	 0.154515
H	 1.9252064808	 1.5206980383	 0.8924831893	 0.116173
H	 1.9544781135	 1.5954396383	-0.8632771115	 0.116896
H	 0.9682159852	 3.8956068822	-0.7811873558	 0.070019
H	-0.1903728554	 4.2366063552	 1.3067717959	 0.096934
H	 1.0845038734	 3.4485864284	 2.2242670013	 0.098019
H	 0.9560322843	 6.3190304454	 1.4608231217	 0.100693
H	 2.0476970693	 5.5297166812	 2.5806855368	 0.103484
H	 2.4443922992	 6.0984349105	-0.3579957481	 0.099249
H	 3.6837233985	 5.9458291317	 0.8800726622	 0.097456
H	 3.5415884681	 3.4912513699	 0.8081825055	 0.0965
H	 3.4202382269	 3.9244120237	-0.8993890677	 0.095993
21.8042	65.6652	99.3222	100.6151	187.8698	231.5299	345.7773	392.2215	420.7059	506.2163	595.5002	628.1505	760.8561	774.8283	829.9374	864.4427	897.3516	931.2899	934.4288	963.2663	990.7848	1014.4879	1027.8524	1043.3195	1100.4347	1111.9156	1165.9581	1208.8233	1211.3964	1243.898	1272.4087	1286.6628	1293.9036	1314.0631	1324.6551	1336.581	1344.0103	1356.0606	1378.5977	1396.8279	1468.7435	1487.1659	1489.8334	1494.9248	1498.1552	1518.732	2361.785	2986.796	3018.1666	3027.334	3032.5569	3038.243	3043.2091	3057.3742	3066.3221	3074.3731	3082.5605	3088.696	3090.0221	3104.4318
N#CCCC1CCCC1	N#CCCC1CCCC1	
InChI=1S/C8H13N/c9-7-3-6-8-4-1-2-5-8/h8H,1-6H2	InChI=1S/C8H13N/c9-7-3-6-8-4-1-2-5-8/h8H,1-6H2
