19
gdb 92168	2.22418	2.0699	1.47188	1.7768	73.73	-0.2371	0.0628	0.2999	967.3026	0.159634	-422.993375	-422.985608	-422.984664	-423.02506	31.434	
C	-0.3023315024	 1.5462593842	-0.0044366758	-0.411787
C	 0.0215581644	 0.0559152806	-0.046360257	 0.070841
O	 0.7291151381	-0.3001902797	-1.2449975895	-0.283519
C	 2.0086981202	-0.80164841	-0.8732157254	 0.080309
C	 2.899070941	 0.3162577007	-0.2394244297	-0.257385
C	 2.3884549021	-0.1417757641	 1.1269423331	-0.149453
C	 1.8706445951	-1.4528968141	 0.5243986864	-0.143555
C	 0.8983831567	-0.4752784355	 1.0887832437	 0.381368
O	 0.2839369938	-0.7895794102	 2.2976797286	-0.478894
H	 0.6042285255	 2.155969132	 0.0341803657	 0.120341
H	-0.8762163763	 1.8366245968	-0.8887984593	 0.127956
H	-0.910659786	 1.7733481186	 0.8790068111	 0.106147
H	-0.9200052436	-0.5116016636	-0.0252194725	 0.083088
H	 2.4151428371	-1.3682074282	-1.709473764	 0.084549
H	 3.9634748607	 0.0875525566	-0.3516609171	 0.102476
H	 2.7089656765	 1.3389449483	-0.5787247185	 0.096118
H	 2.8738481467	-0.0066888274	 2.0870542596	 0.085211
H	 1.9789289933	-2.4822747482	 0.8360660677	 0.098184
H	 0.1931844271	 0.0221403533	 2.8080270327	 0.288005
148.2266	202.2799	222.3936	263.1195	313.9121	354.811	418.8846	439.676	542.0659	591.0287	653.2408	668.5771	799.0086	840.4957	844.8602	866.5047	894.6803	925.1291	967.4709	981.8472	997.573	1013.1543	1087.9	1099.7001	1106.9832	1116.1263	1126.1557	1173.002	1205.2471	1242.0488	1244.7997	1272.4056	1320.0505	1334.0251	1356.4049	1392.0993	1405.3369	1435.0108	1484.8181	1494.3397	1498.336	2998.9302	3035.0166	3043.6182	3094.9638	3103.55	3126.1748	3130.5591	3175.6234	3216.1146	3802.8136
CC1OC2CC3C2C13O	C[C@H]1O[C@H]2C[C@@H]3[C@H]2[C@]13O	
InChI=1S/C7H10O2/c1-3-7(8)4-2-5(9-3)6(4)7/h3-6,8H,2H2,1H3	InChI=1S/C7H10O2/c1-3-7(8)4-2-5(9-3)6(4)7/h3-6,8H,2H2,1H3/t3-,4-,5+,6-,7+/m1/s1
