20
gdb 22838	2.7468	1.27972	0.97119	0.5239	83.78	-0.2334	0.0134	0.2468	1245.4206	0.172468	-403.124386	-403.11578	-403.114835	-403.158039	33.124	
O	-0.0687837276	 1.3517244157	 0.2875439551	-0.402441
N	 0.0389463261	-0.0462307852	 0.1645361071	-0.176322
C	-1.0884739487	-0.6183933542	-0.0351099695	 0.357903
C	-2.4155402965	 0.0821652665	-0.148080509	-0.286617
C	-3.3066616357	-0.1039884526	 1.1041166012	-0.251641
C	-3.8256048758	-1.5038379593	 1.3333415306	-0.050282
C	-3.1312668988	-2.6437791571	 1.3324289371	-0.051123
C	-1.6471627182	-2.8246882089	 1.1145642507	-0.249136
C	-1.0436772623	-2.1204676838	-0.1235034426	-0.265157
H	 0.8532117189	 1.6111930409	 0.3827661508	 0.303965
H	-2.2460721784	 1.1470870895	-0.3105959974	 0.129602
H	-2.9503382419	-0.3155415543	-1.0188004613	 0.104854
H	-2.7429793204	 0.2379248357	 1.9832630423	 0.124367
H	-4.1589420036	 0.5769697121	 1.0125596768	 0.10284
H	-4.8920903565	-1.5736539014	 1.5375670212	 0.085383
H	-3.6829639101	-3.5590594087	 1.5370591192	 0.085338
H	-1.0968356393	-2.4791845582	 2.0013986583	 0.120626
H	-1.4329301592	-3.8948503847	 1.0274036674	 0.101803
H	-1.583601485	-2.4506275584	-1.0197572862	 0.102542
H	 0.001328213	-2.4250627637	-0.2259244417	 0.113494
44.1724	136.7648	141.176	276.4901	317.5177	328.3812	365.532	402.455	452.8886	475.1257	577.3486	651.9472	678.0027	730.3537	748.6262	839.5942	877.0096	912.1996	947.8983	966.7197	1000.3165	1022.2095	1027.4214	1061.09	1077.1158	1164.7579	1198.749	1241.4796	1244.3055	1287.3118	1288.4011	1335.1577	1343.2265	1371.3101	1382.0649	1416.7248	1429.0354	1472.461	1481.8366	1484.5275	1489.3144	1721.7655	1724.3541	3008.391	3014.3819	3029.6524	3040.4926	3067.5334	3069.3936	3098.2504	3127.4066	3131.842	3156.4589	3825.9685
ON=C1CCC=CCC1	ON=C1CCC=CCC1	
InChI=1S/C7H11NO/c9-8-7-5-3-1-2-4-6-7/h1-2,9H,3-6H2	InChI=1S/C7H11NO/c9-8-7-5-3-1-2-4-6-7/h1-2,9H,3-6H2
