15
gdb 9444	2.72758	1.7785	1.74567	2.2575	68.24	-0.2425	-0.0336	0.2089	871.0353	0.116444	-362.620541	-362.612335	-362.611391	-362.652995	30.009	
C	-0.2266069731	 1.6367900034	 0.0732251076	-0.42343
C	 0.0238383106	 0.1298305008	 0.0252061769	 0.017036
N	 1.2128847466	-0.2749780835	-0.8040995638	-0.34913
C	 1.8284269783	-1.0661198482	 0.2946507916	-0.280046
C	 0.7974434711	-0.463848512	 1.2530516071	 0.364744
O	 0.6514310359	-0.4037801091	 2.4322971224	-0.277451
C	-1.1815029671	-0.635045945	-0.2607552772	 0.319978
C	-2.1589918548	-1.2902569738	-0.5118139349	-0.480201
H	 0.7100208852	 2.1609776593	 0.2776021174	 0.127305
H	-0.6220259008	 1.986354315	-0.8843850465	 0.131489
H	-0.9501632109	 1.87165913	 0.8585166472	 0.14039
H	 0.9539182095	-0.8311425275	-1.6110162813	 0.230771
H	 1.720719561	-2.1567299215	 0.2177229119	 0.134719
H	 2.8774743703	-0.8283399477	 0.4988556659	 0.138214
H	-3.0279999318	-1.86171225	-0.7277288844	 0.205611
95.4403	121.5712	185.2547	197.3106	214.9107	339.2563	393.937	502.0643	526.1613	567.8396	623.5134	642.4983	652.6248	710.2635	744.3348	918.3385	941.9466	957.3291	1007.4412	1048.5508	1118.4359	1152.4067	1184.5709	1190.0637	1277.3145	1366.7581	1400.6663	1472.5751	1479.6732	1487.5164	1923.284	2222.0497	3016.4671	3047.0292	3077.1674	3126.0329	3133.2615	3499.0983	3548.1389
CC1(NCC1=O)C#C	C[C@]1(NCC1=O)C#C	
InChI=1S/C6H7NO/c1-3-6(2)5(8)4-7-6/h1,7H,4H2,2H3	InChI=1S/C6H7NO/c1-3-6(2)5(8)4-7-6/h1,7H,4H2,2H3/t6-/m0/s1
