21
gdb 38706	2.56172	2.07822	1.56132	0.1006	86.02	-0.2356	0.0244	0.2601	947.4684	0.18685	-349.951411	-349.944737	-349.943793	-349.981786	29.542	
C	-0.0243790766	 1.4915735059	 0.0513396481	-0.401402
C	 1.3301780064	 0.809139534	-0.023269428	-0.018901
C	 2.1930538415	 0.2659393208	 1.124051496	-0.24687
C	 1.5441486277	-1.1392605031	 1.3438024863	-0.036166
C	 0.0595171624	-0.7456035535	 1.3168036579	-0.268879
C	 0.0475232858	-0.0046539057	-0.0294180088	 0.348884
C	-0.0883644868	-0.9728789129	-1.1830970741	-0.349829
C	 0.9958132387	-2.0216762056	-0.9576621068	-0.045051
C	 1.7538807967	-2.064887519	 0.14642772	-0.06114
H	-0.3741092853	 1.9200665735	 0.9870819155	 0.106408
H	-0.3093574416	 2.0685651393	-0.8245123409	 0.107067
H	 1.8339429408	 0.9269460979	-0.9773626522	 0.082329
H	 3.2461777403	 0.2142896973	 0.8347581709	 0.09591
H	 2.1341263931	 0.8573380285	 2.0461661693	 0.092939
H	 1.8769692956	-1.6259833281	 2.2671933089	 0.052363
H	-0.6160537747	-1.6050692873	 1.3291769988	 0.094582
H	-0.202258238	-0.088768935	 2.1529009376	 0.086831
H	-1.0811566356	-1.4425068216	-1.2520464368	 0.098262
H	 0.0801136484	-0.4708687237	-2.1454590259	 0.100768
H	 1.1691462737	-2.7371113129	-1.7586471533	 0.081405
H	 2.5466393777	-2.8055202288	 0.2189151674	 0.080491
231.4638	288.8129	341.6981	358.529	452.3054	462.2115	486.1998	608.9785	629.1562	707.6645	760.4115	802.0953	824.4279	840.3633	881.2957	892.0386	913.8456	927.5924	955.7235	981.9679	986.8629	1000.0288	1022.6425	1047.9896	1066.123	1092.0182	1113.4615	1137.3438	1175.6152	1183.8677	1203.2457	1228.4925	1273.7774	1293.0844	1299.1222	1319.0521	1342.5605	1353.0988	1395.9686	1419.6854	1478.6463	1482.99	1486.4044	1507.4869	1679.9836	2992.0652	3027.6596	3030.6937	3039.7006	3052.8497	3090.3206	3097.7769	3105.8489	3139.6624	3152.0289	3164.2309	3188.5391
C1C2CC3CC12CC=C3	C1[C@H]2C[C@H]3C[C@@]12CC=C3	
InChI=1S/C9H12/c1-2-7-4-8-6-9(8,3-1)5-7/h1-2,7-8H,3-6H2	InChI=1S/C9H12/c1-2-7-4-8-6-9(8,3-1)5-7/h1-2,7-8H,3-6H2/t7-,8+,9-/m0/s1
