17
gdb 41115	3.47249	1.97246	1.57662	1.7554	75.36	-0.2231	0.0058	0.2289	859.7105	0.138185	-384.624478	-384.618431	-384.617487	-384.654419	26.271	
C	 0.0366693945	 1.4198941005	 0.19218875	-0.121095
O	 1.4248485272	 1.5512458337	-0.2395623406	-0.358718
C	 1.3921160354	 0.2307648276	-0.7431404878	 0.449239
C	 2.4133503183	-0.8434586863	-0.6031611121	-0.201921
C	 1.9339950586	-1.89256502	-1.2950588642	-0.085141
C	 0.7054089886	-1.5002540959	-2.0493624679	-0.098786
C	-0.4614565521	-0.6657914098	-1.3518830174	-0.089972
C	 0.6665603386	-0.0102611551	-2.1113417497	-0.152837
C	 0.017222157	-0.1160165373	-0.0406602611	-0.117971
H	-0.0758992146	 1.7310094973	 1.2346502983	 0.112981
H	-0.6381454973	 2.0047739925	-0.4436138778	 0.105043
H	 3.230224946	-0.8352451699	 0.1058041844	 0.108524
H	 2.3279106991	-2.9009204168	-1.2794970603	 0.101983
H	 0.3622029207	-2.0875275495	-2.892746453	 0.090866
H	-1.4786922856	-0.8618269186	-1.6720512679	 0.089761
H	 0.6852788717	 0.618039859	-2.9939383966	 0.093509
H	-0.0226830161	-0.7202344113	 0.8678949739	 0.074535
221.4241	330.8101	366.6904	390.698	523.143	585.6383	670.1769	716.8187	727.5633	740.9413	779.3019	799.3946	845.004	858.0001	906.6647	919.8574	953.7976	971.0055	983.5137	1013.5444	1053.7614	1058.4995	1082.4825	1090.7837	1096.3907	1133.1854	1166.7689	1179.1553	1227.6081	1238.6795	1304.3932	1330.9959	1344.47	1362.9514	1376.9702	1508.6532	1605.1953	3030.9543	3080.715	3096.7728	3170.1816	3179.8071	3191.674	3207.5688	3233.5572
C1OC23C=CC4C(C24)C13	C1O[C@]23C=C[C@H]4[C@H]([C@@H]24)[C@H]13	
InChI=1S/C8H8O/c1-2-8-5(3-9-8)6-4(1)7(6)8/h1-2,4-7H,3H2	InChI=1S/C8H8O/c1-2-8-5(3-9-8)6-4(1)7(6)8/h1-2,4-7H,3H2/t4-,5-,6-,7-,8-/m0/s1
