17
gdb 108658	2.31752	1.58067	0.96018	3.9545	75.97	-0.2045	0.0032	0.2077	1177.1719	0.137099	-455.169863	-455.161115	-455.160171	-455.203353	32.548	
N	 0.134794658	 1.355314596	 0.2091513279	-0.588814
C	 0.0120970242	-0.0011860383	 0.0773771502	 0.222759
C	-1.0877083661	-0.7811934475	 0.1421524998	 0.133876
C	-2.5167761314	-0.3863570136	 0.3139227579	-0.208825
O	-2.6816602799	 0.965513524	-0.1300210744	-0.430114
C	-0.67293314	-2.1705324313	 0.0195629117	 0.352778
N	-1.4219040395	-3.1947194179	 0.0337026686	-0.573169
O	 0.703483875	-2.2146204536	-0.1224338277	-0.25641
C	 1.2178938743	-0.8889742436	-0.0960370236	-0.166185
H	 0.9282329426	 1.7871942177	-0.2397509612	 0.249886
H	-0.7379483675	 1.8540833816	 0.0955073136	 0.271336
H	-3.1484783683	-1.0762561841	-0.2621250285	 0.129084
H	-2.8191020623	-0.4829934099	 1.369268969	 0.107219
H	-3.5674694997	 1.2497382836	 0.1112807957	 0.293299
H	-0.870911587	-4.0454211563	-0.0810912873	 0.215751
H	 1.7566950097	-0.6857998642	-1.0326138551	 0.118704
H	 1.9293933378	-0.7829810827	 0.7339463032	 0.128826
67.8684	141.2033	205.6204	214.4802	233.7204	278.7352	316.3794	381.8377	413.8818	530.7319	538.4988	615.0122	657.1219	691.3201	721.3808	765.3974	836.1201	963.474	992.5197	1027.6087	1044.5546	1049.0345	1088.599	1165.5505	1199.339	1213.1934	1241.1769	1273.2119	1299.45	1392.6581	1408.5916	1485.3814	1505.8004	1515.7765	1636.4359	1732.5276	1758.3208	2969.4364	3002.6306	3026.5533	3035.6671	3489.9989	3547.9493	3663.4184	3841.182
NC1=C(CO)C(=N)OC1	N[C]1C(=C([NH])OC1)CO	
InChI=1S/C5H8N2O2/c6-4-2-9-5(7)3(4)1-8/h7-8H,1-2,6H2	InChI=1S/C5H8N2O2/c6-4-2-9-5(7)3(4)1-8/h7-8H,1-2,6H2
