20
gdb 108787	2.87686	1.12895	0.99432	3.0763	76.44	-0.2546	0.0217	0.2763	1295.4509	0.169726	-440.311963	-440.302282	-440.301338	-440.346986	35.296	
C	 0.1162400829	 1.4650470607	 0.0939745104	-0.414989
C	-0.0110181836	-0.0615538595	 0.0315017852	 0.270993
C	-1.4841817192	-0.4857858534	 0.0085952809	-0.414963
C	 0.7926242604	-0.6685189205	-1.1642293849	-0.147661
O	 1.791141342	-1.5155020796	-0.5483883647	-0.254848
C	 1.5867794932	-1.4059116821	 0.7838017221	 0.380712
C	 2.4983080631	-2.1931812152	 1.6763339821	-0.129638
O	 2.1860703368	-1.9952659045	 3.0296738564	-0.421891
N	 0.6544711347	-0.6592850499	 1.2116700228	-0.36086
H	 1.1675452415	 1.7664545853	 0.1249932762	 0.119122
H	-0.3506416773	 1.9299618739	-0.7812788176	 0.113066
H	-0.3738946635	 1.8508991893	 0.9919346412	 0.129026
H	-1.993890278	-0.0725814603	-0.8686991961	 0.11306
H	-1.5742967227	-1.5757463986	-0.0216898215	 0.119122
H	-1.9967377435	-0.1278286007	 0.9055881492	 0.129032
H	 0.1802683623	-1.2897150694	-1.8241160812	 0.117878
H	 1.3100191173	 0.0863340873	-1.7632524741	 0.11786
H	 2.4183359804	-3.257033459	 1.403724416	 0.119973
H	 3.5366253992	-1.8954243507	 1.4624939657	 0.119966
H	 1.4374259539	-1.381056613	 3.042275412	 0.295041
41.9091	80.4774	155.8012	178.3768	224.8114	260.6247	312.6661	326.2353	329.0281	398.0012	438.7111	462.6527	604.7017	629.2784	700.0837	830.9366	913.3347	927.8473	957.9126	964.7662	1009.0444	1019.2358	1032.4896	1043.0163	1114.224	1195.1777	1201.311	1217.7094	1242.7024	1269.9416	1278.2736	1344.6769	1382.5971	1397.4041	1419.2321	1477.8665	1482.8536	1485.9952	1496.5034	1504.7599	1506.2856	1522.4808	1736.9117	2988.1259	3004.7233	3032.1373	3036.4741	3052.2605	3098.7704	3103.1666	3107.2992	3118.6236	3122.2606	3718.3065
CC1(C)COC(CO)=N1	CC1(C)COC(=N1)CO	
InChI=1S/C6H11NO2/c1-6(2)4-9-5(3-8)7-6/h8H,3-4H2,1-2H3	InChI=1S/C6H11NO2/c1-6(2)4-9-5(3-8)7-6/h8H,3-4H2,1-2H3
