22
gdb 122063	3.1933	0.66122	0.57399	4.6854	83.4	-0.2701	0.0348	0.3049	1961.8865	0.192459	-404.369871	-404.358712	-404.357768	-404.407205	38.738	
C	-0.0527201572	 1.5713848774	 0.07550404	-0.398576
C	 0.0203487695	 0.0453176374	-0.0010717922	-0.18287
C	 0.7193743905	-0.4868874137	-1.2737647128	-0.131716
C	 0.8629330978	-2.0256114169	-1.2606676043	-0.202264
C	 1.6731977547	-2.5839073382	-2.4327631276	-0.185843
C	 1.7965503575	-4.1019261216	-2.3868997927	-0.074158
O	 2.5909081322	-4.5040150617	-3.4904523116	-0.418533
C	 0.0032407292	-0.0442071332	-2.4763068354	 0.289798
N	-0.5791935002	 0.2980158745	-3.4147351729	-0.341085
H	 0.9476548998	 2.0176951563	 0.0603413531	 0.118385
H	-0.6168171323	 1.9846703264	-0.7658913135	 0.14553
H	-0.5450357817	 1.8885739226	 0.99923302	 0.120611
H	 0.5732988706	-0.3469468209	 0.8602067034	 0.104836
H	-0.9873042601	-0.3830628322	 0.051110352	 0.115901
H	 1.7249966524	-0.0467203641	-1.3239206284	 0.122972
H	 1.3412783284	-2.2992647963	-0.3122120013	 0.103137
H	-0.1390472007	-2.4721258384	-1.2467726373	 0.113994
H	 1.2109679455	-2.2997330289	-3.3844754573	 0.134367
H	 2.6828655985	-2.1548412891	-2.4317723662	 0.107662
H	 2.253775184	-4.4110056108	-1.4317064377	 0.082337
H	 0.7930749822	-4.556539983	-2.4279718129	 0.088402
H	 2.6451425894	-5.4639610654	-3.4904245643	 0.287113
55.7255	74.7097	87.1788	113.4209	136.9445	167.2171	226.4152	246.1937	259.5416	276.127	301.5607	404.2528	484.0319	559.0041	607.172	749.4694	765.9389	826.4537	888.5889	940.3126	1005.0199	1016.2777	1037.8883	1061.8623	1082.1084	1111.2182	1136.028	1146.9675	1212.1281	1237.2521	1272.5745	1290.7266	1302.6595	1320.7203	1328.7097	1365.4429	1375.9648	1393.4121	1417.5212	1465.1546	1481.1218	1490.4909	1498.736	1501.9885	1507.3969	1529.4193	2351.3427	2954.8577	2981.757	3016.5316	3023.8952	3034.5906	3037.1563	3038.6674	3061.3601	3073.5397	3090.2942	3107.0444	3117.4858	3832.2393
CCC(CCCO)C#N	CC[C@@H](CCCO)C#N	
InChI=1S/C7H13NO/c1-2-7(6-8)4-3-5-9/h7,9H,2-5H2,1H3	InChI=1S/C7H13NO/c1-2-7(6-8)4-3-5-9/h7,9H,2-5H2,1H3/t7-/m0/s1
