17
gdb 78003	3.14396	1.26347	1.06144	5.0734	74.87	-0.2577	0.0074	0.2651	1141.0148	0.135287	-417.965057	-417.956427	-417.955483	-417.998106	32.211	
C	-0.197630467	 1.5071218623	 0.0432926572	-0.324846
N	 0.1192564683	 0.0812011892	 0.0621955443	-0.114388
C	 1.3829232929	-0.4887399774	-0.315391017	-0.109396
C	 2.6170641676	 0.2950022881	 0.1554134795	 0.110867
O	 2.826426339	 1.5072553317	-0.5268956076	-0.424143
C	 2.0575137901	 0.3065379198	 1.620469832	-0.353287
C	 0.8693334504	-0.5458470961	 1.1247366713	 0.186429
C	 0.29963703	-1.6453208431	 1.8454293405	 0.227771
N	-0.1333148644	-2.526409026	 2.4573370281	-0.347378
H	 0.6227918591	 2.1679827275	 0.3374136484	 0.129786
H	-0.4915825251	 1.7679237702	-0.9768921996	 0.137127
H	-1.0564556321	 1.6719114886	 0.7000879427	 0.131313
H	 1.3894800914	-1.2720034529	-1.0656750388	 0.117369
H	 3.5028687034	-0.351186437	 0.1022332175	 0.094048
H	 3.6659978733	 1.8801758426	-0.2395394478	 0.292424
H	 2.6995679564	-0.2243612082	 2.3247532016	 0.128153
H	 1.7916026367	 1.2816211107	 2.0341792978	 0.118152
114.1452	146.6137	154.2144	209.2734	248.6225	275.1857	323.6442	397.226	444.8805	490.9943	557.7853	587.7108	677.0598	724.0561	752.5751	861.8915	920.8652	973.5308	981.3527	1018.769	1046.4771	1109.5934	1147.7212	1160.8862	1185.5094	1197.5444	1216.7184	1239.2696	1285.712	1309.8581	1405.4134	1427.8295	1455.5756	1478.1975	1490.7743	1510.3101	2353.4883	3019.0746	3039.6325	3077.6454	3112.2678	3120.9024	3137.3427	3177.6414	3818.2248
CN1C2C(O)CC12C#N	CN1[C@H]2[C@@H](O)C[C@@]12C#N	
InChI=1S/C6H8N2O/c1-8-5-4(9)2-6(5,8)3-7/h4-5,9H,2H2,1H3	InChI=1S/C6H8N2O/c1-8-5-4(9)2-6(5,8)3-7/h4-5,9H,2H2,1H3/t4-,5-,6-,8?/m0/s1
