19
gdb 107160	4.50525	0.98946	0.94279	1.8458	76.4	-0.2533	0.0703	0.3236	1301.1575	0.158247	-422.965076	-422.956548	-422.955604	-422.998452	32.706	
O	 0.0669092335	 1.3557058997	-0.3884118873	-0.413825
C	 0.0768540747	 0.0069558843	 0.0546516988	-0.178488
C	-1.3064101085	-0.5119264027	 0.2810561081	 0.402858
C	-2.3127299452	-0.1710550082	 1.400812258	-0.384584
C	-2.9157030894	-1.5838332982	 1.1888823765	 0.376687
C	-3.3088854766	-2.5583411741	 2.259078596	-0.332372
C	-4.3368142842	-2.0452662421	 1.2731968562	-0.317838
C	-1.9143727306	-1.8405157263	 0.0798236266	-0.146919
O	-2.0866196651	-0.8000070509	-0.897816418	-0.298024
H	-0.4532058524	 1.378190673	-1.1995434568	 0.293559
H	 0.5923295847	-0.6530181604	-0.6592405607	 0.097308
H	 0.642232952	-0.0001602856	 0.9923161256	 0.113371
H	-1.8425509422	-0.0489929332	 2.3805569285	 0.109455
H	-2.9604108037	 0.6829047697	 1.1902479313	 0.113083
H	-2.9774831711	-3.5877437824	 2.1631339143	 0.114291
H	-3.3544810247	-2.2006809362	 3.2827333744	 0.115393
H	-5.0768018943	-1.3380082396	 1.6333215048	 0.117855
H	-4.7046441062	-2.7247177368	 0.5114241609	 0.117709
H	-1.4889127907	-2.7785877801	-0.2617831573	 0.100479
67.1801	96.4559	172.9434	251.212	274.9509	332.3714	376.0013	407.6539	432.0374	503.7087	616.7938	712.9132	771.303	777.2968	848.8318	889.3357	905.5538	919.6817	941.1977	973.5756	978.737	1012.66	1053.9435	1056.827	1077.9155	1083.4086	1143.2621	1174.2869	1186.0611	1202.8038	1218.9206	1244.0255	1282.5174	1367.0292	1393.9829	1417.9427	1454.1634	1466.1937	1477.7872	1488.1651	1508.8523	2994.3376	3060.8833	3078.5438	3119.3047	3123.447	3129.8457	3172.6061	3201.8342	3217.2867	3803.9309
OCC12CC3(CC3)C1O2	OC[C@]12CC3(CC3)[C@H]1O2	
InChI=1S/C7H10O2/c8-4-7-3-6(1-2-6)5(7)9-7/h5,8H,1-4H2	InChI=1S/C7H10O2/c8-4-7-3-6(1-2-6)5(7)9-7/h5,8H,1-4H2/t5-,7-/m1/s1
