14
gdb 132658	3.1374	1.35512	0.94716	2.1434	69.9	-0.1988	-0.018	0.1808	1128.321	0.101539	-478.028852	-478.021218	-478.020273	-478.06066	29.651	
N	-0.0169800532	 1.4041100476	-0.0824767524	-0.573134
C	-0.0120035328	 0.0177598277	-0.0369020699	 0.251296
N	-1.1735208319	-0.6301290046	-0.0108684718	-0.326483
C	-1.1828763108	-1.9655647293	-0.0325661477	-0.069914
C	-0.026148476	-2.7378966267	-0.0727852432	 0.34405
O	-0.1489145642	-4.0973998627	-0.090130791	-0.444634
C	 1.2047144419	-2.0733218388	-0.0853902804	-0.357754
C	 1.1945538169	-0.6962284732	-0.0687845715	 0.233997
F	 2.348865062	-0.007775809	-0.0696663069	-0.089323
H	 0.809152483	 1.8478535388	 0.2894243186	 0.2536
H	-0.8819287795	 1.8055845633	 0.2495645928	 0.255421
H	-2.1515577017	-2.4562781402	-0.0129651988	 0.115528
H	 0.7256370013	-4.4976467815	-0.1214141517	 0.298829
H	 2.151668135	-2.6033576913	-0.106903786	 0.108522
144.0648	238.5536	278.2194	283.7493	327.6965	355.144	397.6295	470.3781	482.6651	506.6633	582.6855	599.4328	629.4829	731.978	771.9525	826.4918	876.3216	925.7679	1001.217	1074.1039	1180.0714	1188.8275	1266.9858	1321.8668	1336.2178	1385.555	1492.0194	1529.8947	1619.636	1629.0194	1676.8045	3173.7675	3183.5096	3569.5361	3682.772	3829.9365
NC1=NC=C(O)C=C1F	Nc1ncc(O)cc1F	
InChI=1S/C5H5FN2O/c6-4-1-3(9)2-8-5(4)7/h1-2,9H,(H2,7,8)	InChI=1S/C5H5FN2O/c6-4-1-3(9)2-8-5(4)7/h1-2,9H,(H2,7,8)
