14
gdb 129378	4.01654	1.30094	0.98321	4.7062	72.75	-0.2422	-0.0849	0.1573	1110.3736	0.103333	-429.065845	-429.058397	-429.057453	-429.09802	27.723	
N	-0.0867412843	 1.3384802931	 0.1197436636	-0.552604
C	 0.0606885337	-0.0147108262	 0.0257942632	 0.278163
N	 1.1365257953	-0.7092257367	-0.0358927498	-0.509977
C	-1.2374660879	-0.7585602	 0.0254319425	 0.335116
C	-1.2806274642	-2.160031569	 0.0242933383	-0.001841
N	-2.4308325006	-2.8213319479	 0.0178905866	-0.177906
N	-3.5700992514	-2.1228218417	 0.0119630421	-0.18201
C	-3.4874264471	-0.7970097085	 0.0130538405	 0.097969
N	-2.3684834626	-0.0628478012	 0.0198405983	-0.329976
H	 0.699576325	 1.9394603763	-0.056453606	 0.255853
H	-1.0157137557	 1.713998926	 0.0068437568	 0.272668
H	 1.9692534727	-0.1183802081	-0.0317089456	 0.210906
H	-0.367620123	-2.7421055047	 0.0280444869	 0.164153
H	-4.4330141299	-0.2626566412	 0.0077198527	 0.139486
79.1133	146.6857	227.4762	281.8801	367.4274	383.5349	432.8149	503.5595	530.3109	596.4406	685.8079	707.9497	824.5721	835.504	869.6193	968.4878	1008.7477	1022.1201	1066.9808	1092.0193	1137.4581	1175.6466	1213.5291	1289.191	1325.5182	1437.2397	1482.4265	1560.355	1595.9819	1611.1599	1712.648	3184.0879	3226.1007	3466.5329	3586.9973	3721.846
NC(=N)C1=CN=NC=N1	NC(=N)c1cnncn1	
InChI=1S/C4H5N5/c5-4(6)3-1-8-9-2-7-3/h1-2H,(H3,5,6)	InChI=1S/C4H5N5/c5-4(6)3-1-8-9-2-7-3/h1-2H,(H3,5,6)
