21
gdb 70521	2.42846	1.72478	1.25321	1.0526	83.3	-0.2344	0.0222	0.2566	1088.1949	0.183508	-387.080599	-387.072357	-387.071413	-387.112832	33.224	
C	-0.2082011058	 1.4662541103	-0.0852728839	-0.466148
C	-0.0306228258	-0.0344439614	-0.0101348895	 0.448525
C	-0.7899529877	-0.8237531334	 1.0185644945	-0.363666
C	 0.7169020608	-0.6711160829	 1.13326999	-0.065839
C	 1.6261816543	-1.8535944194	 0.8295741266	-0.27927
C	 2.7288481991	-1.5230724165	-0.1556520439	-0.076037
C	 2.5636737455	-0.9125355852	-1.328264394	-0.033833
C	 1.2845935094	-0.4271116421	-1.9589047378	-0.143342
O	 0.0840526916	-0.6907874604	-1.2493724371	-0.2878
H	 0.6767179915	 1.966662317	-0.4930838155	 0.119004
H	-1.0663327321	 1.7189484216	-0.7172644764	 0.123095
H	-0.3851295882	 1.8792233731	 0.9117627615	 0.116936
H	-1.4310386267	-0.285384248	 1.7081114186	 0.106753
H	-1.1646871447	-1.7932564667	 0.7088134522	 0.11884
H	 1.0854947554	 0.0059556343	 1.8997207935	 0.081557
H	 2.0638129396	-2.2230846882	 1.7629774442	 0.097814
H	 1.0270711638	-2.6811425731	 0.432698898	 0.119198
H	 3.7360255157	-1.8275429404	 0.1200033402	 0.085123
H	 3.4390673959	-0.7299293939	-1.9513529779	 0.083916
H	 1.3799494227	 0.6489612039	-2.1819578444	 0.098975
H	 1.1553489958	-0.9215057788	-2.9308512189	 0.1162
113.4912	185.1149	208.8904	271.8584	307.3792	349.3317	381.4809	416.5038	436.0402	471.4207	602.0364	682.7014	713.5071	775.6417	821.6655	848.3478	878.5116	914.9132	936.938	949.8138	994.5135	998.1968	1037.9104	1053.3918	1055.4369	1101.2857	1120.1785	1132.9961	1147.4705	1228.7647	1247.3611	1270.2898	1299.1492	1303.9794	1350.3742	1406.3934	1408.663	1414.8178	1422.1165	1476.7852	1478.2628	1487.3414	1496.4881	1507.1275	1734.5236	2966.2235	3032.1401	3033.1864	3034.766	3068.513	3094.7778	3112.9757	3124.0918	3131.0268	3137.3586	3154.9027	3221.3731
CC12CC1CC=CCO2	C[C@]12C[C@H]1CC=CCO2	
InChI=1S/C8H12O/c1-8-6-7(8)4-2-3-5-9-8/h2-3,7H,4-6H2,1H3	InChI=1S/C8H12O/c1-8-6-7(8)4-2-3-5-9-8/h2-3,7H,4-6H2,1H3/t7-,8+/m1/s1
