18
gdb 80374	2.34508	1.71141	1.21551	2.5549	76.39	-0.2471	0.0227	0.2697	1058.0996	0.147843	-398.081958	-398.073307	-398.072363	-398.114835	32.933	
C	-0.181228103	 1.4734333406	-0.1847744515	-0.327985
N	 0.0922256688	 0.0605302753	 0.0382086405	-0.072883
C	 1.3757043908	-0.5676986373	-0.1427748471	-0.03376
C	 2.550562112	 0.293807921	 0.3585862983	-0.293107
C	 1.9080741605	 0.2949404981	 1.7881933118	 0.135699
N	 2.66203099	-0.5794886883	 2.685983253	-0.536966
C	 1.621078826	 1.6011999132	 2.3991339861	 0.22668
N	 1.4197671377	 2.6122024893	 2.9254708662	-0.35519
C	 0.7008193598	-0.5026926315	 1.2058071031	-0.071204
H	 0.6391280047	 2.1569083033	 0.0666913156	 0.125386
H	-0.4298981164	 1.6088902886	-1.2415294088	 0.126147
H	-1.0517155946	 1.7603074991	 0.4112172794	 0.138257
H	 1.4613154406	-1.4013355107	-0.8303072103	 0.10369
H	 3.497839977	-0.2460750864	 0.3802153844	 0.127557
H	 2.6887027473	 1.263964407	-0.1234886528	 0.117907
H	 3.5362597302	-0.1320251344	 2.9499713366	 0.243097
H	 2.1401952439	-0.7179099634	 3.5481628651	 0.242294
H	 0.1793535746	-1.2609695333	 1.7810756905	 0.104383
113.5075	142.0526	183.7137	219.9689	259.4526	265.0107	313.7991	398.015	455.5539	494.3884	554.3752	599.7194	657.7488	728.1472	830.8186	842.7474	880.5454	907.1626	935.4015	971.4423	989.9665	1030.7965	1060.2482	1117.2637	1156.1354	1178.2254	1185.9695	1198.8278	1243.8515	1256.5867	1285.407	1299.1789	1397.8399	1453.8598	1469.7558	1494.7537	1503.9813	1657.3682	2332.6334	3022.6961	3076.8031	3088.869	3118.0973	3140.1545	3163.6849	3181.5588	3479.6991	3557.9598
CN1C2CC(N)(C#N)C12	CN1[C@H]2C[C@@](N)(C#N)[C@@H]12	
InChI=1S/C6H9N3/c1-9-4-2-6(8,3-7)5(4)9/h4-5H,2,8H2,1H3	InChI=1S/C6H9N3/c1-9-4-2-6(8,3-7)5(4)9/h4-5H,2,8H2,1H3/t4-,5-,6+,9?/m0/s1
