16
gdb 69761	3.15105	1.51053	1.29642	1.8366	69.11	-0.2562	0.0197	0.2759	988.8906	0.124476	-437.831547	-437.824302	-437.823358	-437.863018	28.962	
O	-0.1045180567	 1.4342458321	 0.0520373744	-0.456577
C	-0.0044502801	 0.0608693026	 0.0371830142	 0.399567
C	-0.247969776	-0.7739386679	-1.1787426709	-0.368303
C	-1.1448940387	-0.9600372247	 0.0298430787	-0.126906
C	-0.424072642	-1.7550046782	 1.1310949321	 0.106238
O	 0.5203226128	-2.7973060391	 0.6928799065	-0.277511
C	 1.5886898677	-1.9089660441	 0.768832908	 0.420419
N	 2.8122928406	-2.0977803458	 0.5705568747	-0.553835
C	 0.7212315804	-0.7335270287	 1.171811618	-0.24118
H	 0.5940895895	 1.7978432814	-0.5042141608	 0.294567
H	-0.7315756943	-0.2300875293	-1.9839854203	 0.122135
H	 0.4325968908	-1.5561226074	-1.4988393062	 0.138172
H	-2.2158291013	-0.8152635689	-0.0308504649	 0.102399
H	-0.9971297146	-2.0730291639	 1.9997481853	 0.102388
H	 3.0016350173	-3.0686646088	 0.3136391112	 0.227925
H	 0.9769485745	-0.1518839591	 2.0538305601	 0.110504
136.9473	164.2906	269.3588	292.2107	387.8692	422.6303	439.7209	530.0226	603.8888	656.7613	741.0923	775.2853	807.7131	866.4819	874.4672	896.7702	902.584	963.0819	979.7122	987.5579	1002.1353	1030.4358	1063.8724	1090.3191	1163.6883	1178.5087	1188.3811	1212.5479	1266.7427	1281.3446	1318.7276	1322.5721	1410.1008	1497.9085	1816.4313	3129.0347	3137.5543	3158.6079	3198.0327	3217.3497	3468.6014	3787.5093
OC12CC1C1OC(=N)C21	O[C@]12C[C@H]1[C@H]1O[C]([NH])[C@@H]21	
InChI=1S/C6H7NO2/c7-5-3-4(9-5)2-1-6(2,3)8/h2-4,7-8H,1H2	InChI=1S/C6H7NO2/c7-5-3-4(9-5)2-1-6(2,3)8/h2-4,7-8H,1H2/t2-,3-,4+,6+/m0/s1
