21
gdb 95791	2.2166	1.75004	1.02428	3.7901	81.38	-0.2196	0.0591	0.2786	1201.1294	0.184278	-420.459723	-420.450275	-420.44933	-420.494121	34.11	
C	-0.0680365003	 1.4305471021	 0.1606436816	-0.338817
N	 0.0119060532	 0.0053810351	-0.0980259886	-0.142124
C	-1.2380706587	-0.7322407764	-0.0449714321	-0.144544
C	-1.0912344809	-2.0837341259	-0.7297187887	-0.233449
C	 0.1084985852	-2.8145209205	-0.1436029721	-0.144553
N	 1.2917281106	-1.9736722431	-0.1911398689	-0.142083
C	 2.5676452679	-2.6453559828	-0.0321844158	-0.338897
C	 1.2607599544	-0.5940229891	-0.0675447871	 0.504501
O	 2.2878636838	 0.0657500044	 0.02795918	-0.437421
H	 0.9325287264	 1.8507454265	 0.0826229827	 0.169383
H	-0.728659118	 1.9108594168	-0.5713109229	 0.112584
H	-0.4652331412	 1.6381163973	 1.1653608375	 0.109661
H	-1.5731595976	-0.8683239253	 0.9979694874	 0.098117
H	-2.0096642408	-0.1335734614	-0.5437603502	 0.107017
H	-1.9998416686	-2.6777003898	-0.5948857934	 0.105977
H	-0.9403876822	-1.9352906663	-1.804310494	 0.117796
H	-0.1083041959	-3.1340897371	 0.8905197442	 0.098133
H	 0.3150466316	-3.7278824712	-0.7142846834	 0.107022
H	 2.7033054281	-3.3916054826	-0.8244205384	 0.112611
H	 3.358104038	-1.9000629011	-0.0914082158	 0.169427
H	 2.6352171049	-3.1616860797	 0.9368991179	 0.109661
87.0164	118.035	122.7923	142.9908	176.4175	205.002	302.3103	337.1034	405.9979	434.0721	468.0291	569.069	590.9881	710.547	752.3101	897.355	920.8253	934.6892	952.2194	1054.2361	1080.9507	1126.083	1129.929	1153.8911	1173.8743	1219.6444	1231.1313	1255.2059	1277.1797	1314.6911	1342.3735	1348.4531	1384.5847	1426.1207	1428.8861	1438.6663	1468.7779	1480.7959	1501.041	1501.2549	1505.2521	1511.3982	1533.7061	1555.5248	1742.7165	2948.6302	2954.8506	2993.2364	2995.0736	3036.743	3040.9961	3050.201	3050.6105	3056.6371	3099.4489	3173.8546	3174.252
CN1CCCN(C)C1=O	CN1CCCN(C)C1=O	
InChI=1S/C6H12N2O/c1-7-4-3-5-8(2)6(7)9/h3-5H2,1-2H3	InChI=1S/C6H12N2O/c1-7-4-3-5-8(2)6(7)9/h3-5H2,1-2H3
