20
gdb 65514	3.07579	1.37857	1.16938	3.1807	77.85	-0.2316	0.0748	0.3065	1120.9813	0.170504	-403.073406	-403.065047	-403.064103	-403.106174	32.46	
C	-0.0241974716	 1.6601506276	 0.1997255418	-0.456983
C	 0.0167666282	 0.1412872739	 0.0176501845	 0.259413
C	 1.0801765262	-0.4756810223	-0.9403432072	-0.224094
N	 1.6488092132	-1.358706086	 0.1396828205	-0.119696
C	 2.1598431674	-0.444252308	 1.1744710535	-0.255025
C	 0.7048686732	-0.6849183551	 1.1180407191	-0.05652
C	-1.3954564846	-0.3503815447	-0.2460347032	 0.043622
C	-1.9925171243	-0.4078038256	-1.5846711127	-0.190106
O	-1.585356107	-1.5994066754	-0.9057558983	-0.230374
H	 0.9549629847	 2.061434718	 0.4723071462	 0.119319
H	-0.344792153	 2.1541229159	-0.7240667576	 0.119032
H	-0.7302294022	 1.9423371022	 0.9896419898	 0.118259
H	 0.6502682836	-1.0968198352	-1.7263135859	 0.129625
H	 1.8095443773	 0.2199943135	-1.3692013744	 0.094207
H	 2.7188234466	-0.9572443629	 1.9515452062	 0.12181
H	 2.5791140198	 0.5146449144	 0.8771712976	 0.107745
H	 0.1792487649	-1.2545083088	 1.8796599758	 0.094505
H	-2.0755524355	-0.1935459725	 0.5954687678	 0.092126
H	-3.0669699222	-0.2828826642	-1.7078483349	 0.119214
H	-1.3920992749	-0.1410929446	-2.4537307585	 0.113919
91.7846	155.0752	191.756	203.26	265.281	295.3059	360.8928	437.9879	468.5486	559.3771	610.679	746.7804	784.4046	818.0343	867.2547	878.0025	889.9447	942.5156	967.255	989.186	1007.0616	1036.9628	1057.4427	1095.9638	1108.9261	1123.2745	1155.0422	1166.8491	1172.2279	1187.3083	1213.9293	1239.9023	1259.1647	1296.7765	1311.5442	1373.6451	1409.1783	1431.4593	1476.6019	1488.928	1494.2719	1506.4851	1528.2529	3028.2832	3042.6423	3073.1708	3085.1305	3090.7027	3101.7576	3115.8929	3131.0916	3146.3325	3170.5068	3192.7319
CC1(CN2CC12)C1CO1	C[C@]1(CN2C[C@@H]12)[C@H]1CO1	
InChI=1S/C7H11NO/c1-7(6-3-9-6)4-8-2-5(7)8/h5-6H,2-4H2,1H3	InChI=1S/C7H11NO/c1-7(6-3-9-6)4-8-2-5(7)8/h5-6H,2-4H2,1H3/t5-,6+,7+,8?/m0/s1
