21
gdb 114845	3.12338	1.22923	1.15732	2.4203	76.52	-0.2502	0.0745	0.3247	1163.0344	0.185597	-424.235549	-424.227571	-424.226627	-424.268205	31.539	
O	-0.1650843411	 1.5378046127	 0.2434110654	-0.422281
C	 0.041889585	 0.1400893166	 0.0833841503	-0.110714
C	-1.3268618038	-0.5075729258	-0.0535474725	 0.05824
C	-2.0909422474	-0.1680278192	-1.3712708315	-0.236893
C	-2.4703503888	-1.580943327	-1.86741928	 0.083195
C	-1.2286982587	-2.2803570943	-2.4677211733	-0.215728
C	-0.439261203	-2.64254712	-1.1727651419	-0.222581
C	-1.3696951405	-2.0571270396	-0.086648809	 0.038366
O	-2.6700490128	-2.302660727	-0.6394266262	-0.264789
H	 0.6950030329	 1.9650687432	 0.2938455697	 0.285482
H	 0.6563022371	-0.0622593401	-0.8078379887	 0.083032
H	 0.5739636702	-0.2827001766	 0.9522494511	 0.083607
H	-1.9203801931	-0.1785107034	 0.8047958228	 0.088596
H	-2.9801378927	 0.4334215667	-1.1728701776	 0.106456
H	-1.4706072721	 0.3804834792	-2.0857460865	 0.098167
H	-3.3746781823	-1.6386086013	-2.4734752086	 0.073237
H	-1.5169304065	-3.1768736329	-3.0213447816	 0.103206
H	-0.6699316115	-1.6298969371	-3.1458623237	 0.09526
H	-0.3608819451	-3.7249391609	-1.0473962318	 0.105059
H	 0.5734941411	-2.2336691477	-1.1518703461	 0.098231
H	-1.2930565871	-2.5337380854	 0.8915374797	 0.072851
91.215	108.3049	204.0535	267.6209	301.2354	354.0511	420.7397	458.2665	559.6765	582.4248	768.2659	790.9213	822.5219	827.9242	853.6636	886.8058	923.8214	952.8218	972.6322	993.8606	1022.7841	1029.76	1041.5455	1083.1208	1085.6978	1125.0927	1131.7773	1188.7018	1206.5904	1233.9329	1251.2236	1271.1438	1272.6236	1296.5916	1303.8157	1309.106	1334.9053	1338.557	1355.7711	1378.6949	1461.0693	1484.0973	1493.2064	1509.5186	1523.0695	2957.0802	2990.7201	3059.4999	3060.1094	3065.3135	3072.379	3099.7766	3110.0046	3111.3991	3117.8886	3123.301	3826.8533
OCC1CC2CCC1O2	OC[C@H]1C[C@H]2CC[C@@H]1O2	
InChI=1S/C7H12O2/c8-4-5-3-6-1-2-7(5)9-6/h5-8H,1-4H2	InChI=1S/C7H12O2/c8-4-5-3-6-1-2-7(5)9-6/h5-8H,1-4H2/t5-,6-,7+/m1/s1
