23
gdb 86197	2.33977	1.39303	1.07108	2.3531	80.51	-0.2491	0.0458	0.2949	1244.1382	0.205753	-425.444282	-425.434459	-425.433514	-425.478877	37.902	
C	-0.2834657352	 1.5331317719	 0.0637421052	-0.402888
C	 0.0456104841	 0.0418825493	 0.0884278901	-0.002359
C	 0.7867572964	-0.4952543478	-1.1543398991	-0.242956
C	 1.3763100872	-1.8666292122	-0.7330541677	-0.015777
C	 2.7527700295	-2.1513585704	-1.3352011081	-0.384938
C	 1.3618560697	-1.8553821426	 0.8446285467	 0.11197
O	 2.5672298959	-2.2443373507	 1.4614316389	-0.436762
C	 0.9511185068	-0.4156406293	 1.240082213	 0.08168
O	 2.1249052564	 0.3942083297	 1.3974317679	-0.449372
H	 0.6260429193	 2.1405747501	 0.0198297548	 0.111143
H	-0.8961419599	 1.7837378617	-0.8081910629	 0.114633
H	-0.8351917418	 1.8338230567	 0.9602289162	 0.118369
H	-0.89110249	-0.5234844868	 0.1933983429	 0.081538
H	 0.135286613	-0.5598225721	-2.0306588011	 0.100016
H	 1.5963624612	 0.1959862083	-1.4357402294	 0.079652
H	 0.6930669397	-2.6559075109	-1.0659793025	 0.072596
H	 3.481627486	-1.3852655361	-1.0469966807	 0.095988
H	 3.1442304937	-3.1119256744	-0.9927478556	 0.130262
H	 2.6999324589	-2.1651718777	-2.4290940674	 0.105356
H	 0.5886795582	-2.5501134591	 1.1935102483	 0.07815
H	 3.030493531	-1.4169641646	 1.6575442407	 0.282731
H	 0.4584899188	-0.3805439704	 2.215616611	 0.083193
H	 2.4473163209	 0.6395222775	 0.5228146289	 0.287774
36.2762	137.3271	205.9166	214.187	229.9257	269.4422	294.3181	303.9894	326.03	387.3091	460.9588	514.3752	535.7382	554.3232	595.1926	748.4716	773.7503	833.6818	878.0781	906.9209	943.6664	969.0016	987.6284	1026.2013	1049.1829	1078.9989	1110.0032	1152.0523	1161.2421	1166.2483	1182.083	1251.673	1263.4083	1280.8637	1288.9392	1322.3994	1344.9824	1358.3923	1368.8565	1379.3734	1413.2304	1414.4751	1426.0522	1449.1966	1491.0596	1492.6494	1494.2464	1499.2725	1508.279	2987.0955	3010.4892	3021.1018	3031.1701	3035.3681	3041.3642	3077.5605	3081.5436	3092.3357	3102.9554	3105.5992	3123.8224	3721.9302	3802.7269
CC1CC(C)C(O)C1O	C[C@H]1C[C@@H](C)[C@@H](O)[C@H]1O	
InChI=1S/C7H14O2/c1-4-3-5(2)7(9)6(4)8/h4-9H,3H2,1-2H3	InChI=1S/C7H14O2/c1-4-3-5(2)7(9)6(4)8/h4-9H,3H2,1-2H3/t4-,5+,6-,7+
