15
gdb 24986	4.75216	1.24651	1.00528	4.2647	67.4	-0.2092	0.0288	0.2379	1106.7536	0.116061	-453.979887	-453.972737	-453.971793	-454.01164	26.95	
O	 0.0385526022	 0.0187227189	 0.0101675965	-0.384911
C	-0.0275022746	 1.2139784225	 0.0033032462	 0.453416
N	-1.1444858358	 2.0396088601	 0.0022164142	-0.478724
C	-0.7268300294	 3.3657812227	 0.0875074777	 0.246052
C	 0.6038552425	 3.3453030476	 0.0734514009	 0.287928
C	 1.2037289251	 4.6965475256	-0.1322606354	-0.285739
N	 3.8276*^-6	 5.5741016594	-0.0200070977	-0.298288
C	-1.2470313263	 4.7557032537	-0.1080276358	-0.283763
O	 1.0855309747	 2.0631577435	 0.010062727	-0.250977
H	-2.0662707081	 1.6595443071	 0.1281385816	 0.275873
H	 1.9579225041	 4.9878762721	 0.6072343847	 0.12088
H	 1.6699553821	 4.7921722377	-1.1234625278	 0.127024
H	 0.0195107019	 6.0103545909	 0.8928243192	 0.231911
H	-1.7247498227	 4.8748644765	-1.0916606099	 0.124391
H	-1.9715105332	 5.0927200319	 0.6423010785	 0.114928
118.2212	143.3136	238.2624	257.2731	320.4614	429.3655	529.1588	571.7849	625.9079	731.384	754.2503	760.8164	764.8769	873.1451	887.3437	907.8316	1013.4473	1038.5142	1061.3045	1065.5024	1183.7878	1221.6372	1224.0232	1257.4859	1295.0237	1340.7372	1388.662	1452.8743	1471.6044	1513.086	1519.419	1742.2196	1902.3315	2993.5907	2999.2421	3046.5631	3053.1261	3558.9369	3688.5025
O=C1NC2=C(CNC2)O1	O=c1[nH]c2c(CNC2)o1	
InChI=1S/C5H6N2O2/c8-5-7-3-1-6-2-4(3)9-5/h6H,1-2H2,(H,7,8)	InChI=1S/C5H6N2O2/c8-5-7-3-1-6-2-4(3)9-5/h6H,1-2H2,(H,7,8)
