21
gdb 90086	2.68054	1.49665	1.30777	1.5262	84.43	-0.2271	0.0644	0.2915	1092.674	0.182571	-386.965214	-386.956984	-386.95604	-386.997369	33.389	
C	-0.1036791822	 1.5331687238	 0.0894661582	-0.44864
C	 0.0837912404	 0.0244535619	 0.0119036732	 0.042487
C	 1.2901820769	-0.6251744596	-0.7064080593	-0.109694
C	 2.204895436	-0.1771697277	 0.5253580218	-0.327797
C	 0.8840336766	-0.7607375405	 1.1195475199	 0.273942
C	 0.0852421212	-1.6277666228	 2.1154522107	-0.377249
C	-0.2075115332	-2.5975599175	 0.8733279706	 0.056013
O	-1.4750611884	-2.5018366499	 0.2661663516	-0.410783
C	 1.0156662653	-1.923628351	 0.1307490122	-0.010599
H	 0.8052078702	 2.0842524258	 0.3432290301	 0.11289
H	-0.4641149661	 1.918678446	-0.871280483	 0.114722
H	-0.861372228	 1.7841598074	 0.8407362956	 0.112748
H	-0.8647770376	-0.4453055134	-0.2447332055	 0.100443
H	 1.5630714875	-0.5367598452	-1.763264679	 0.063249
H	 3.1047265423	-0.7752870629	 0.6924260748	 0.093559
H	 2.4260637211	 0.8876988904	 0.6214563837	 0.093944
H	 0.6954095338	-2.1345430207	 2.8691013423	 0.103263
H	-0.7827599895	-1.1678999232	 2.5995450226	 0.094727
H	 0.023685573	-3.6472594229	 1.1010960195	 0.073679
H	-2.1253615231	-2.8604453714	 0.8793446452	 0.285114
H	 1.8961796437	-2.5593494165	 0.2625273447	 0.063982
157.6078	173.9207	203.8061	236.7803	258.7625	323.8882	397.9948	432.5715	468.2071	553.0895	627.0627	708.874	743.0858	766.5725	782.9658	834.4567	869.6085	880.5715	930.4878	991.5696	1008.6826	1020.8532	1036.6714	1049.3012	1082.9284	1102.9888	1121.9305	1143.3931	1163.0185	1181.4386	1196.8144	1209.0222	1218.5633	1229.0307	1251.6095	1262.0935	1304.2975	1371.4486	1409.1838	1417.6341	1445.2862	1464.0874	1495.0186	1499.6749	1528.4843	2993.0925	3030.133	3039.3614	3045.9049	3054.9718	3066.4947	3083.3576	3100.9705	3106.3561	3124.1911	3133.6988	3805.3413
CC1C2CC11CC(O)C21	C[C@H]1[C@H]2C[C@]31C[C@@H](O)[C@@H]23	
InChI=1S/C8H12O/c1-4-5-2-8(4)3-6(9)7(5)8/h4-7,9H,2-3H2,1H3	InChI=1S/C8H12O/c1-4-5-2-8(4)3-6(9)7(5)8/h4-7,9H,2-3H2,1H3/t4-,5+,6+,7+,8+/m0/s1
