19
gdb 41266	3.37157	1.88881	1.49518	1.627	77.94	-0.2264	0.0769	0.3034	918.9155	0.161721	-385.821134	-385.814773	-385.813828	-385.851398	27.541	
C	-0.0055805344	 1.4736183276	 0.1792499551	-0.257842
C	 1.512383664	 1.581075528	-0.2190417521	-0.33907
C	 1.3359619995	 0.2087321365	-0.8312960956	 0.498174
O	 2.2725546447	-0.8311155346	-1.1040064655	-0.347619
C	 1.3501397319	-1.3765324578	-2.0887716072	 0.077886
C	 0.1175293989	-2.1071274955	-1.4763856518	-0.246806
C	-0.5926860979	-0.7393982233	-1.2250743056	-0.077652
C	 0.0513099732	-0.083345622	 0.0045548187	-0.065686
C	 0.5191914101	-0.069286171	-2.1251852426	-0.154244
H	-0.2566770998	 1.8217827373	 1.1816174784	 0.107731
H	-0.6673130245	 1.966367834	-0.5374624717	 0.107222
H	 1.8341439181	 2.4040553501	-0.8633522138	 0.098866
H	 2.1502468271	 1.5487380489	 0.6702335614	 0.113951
H	 1.881805182	-1.8436999476	-2.9182216947	 0.079059
H	-0.3938330278	-2.6725866214	-2.2618158114	 0.103386
H	 0.2949820021	-2.7611200631	-0.6176538115	 0.101687
H	-1.6676564941	-0.6746195585	-1.4008268211	 0.063144
H	 0.0899871504	-0.6393406646	 0.9441025867	 0.06683
H	 0.4058815064	 0.607618027	-2.9687879956	 0.070982
222.8755	248.9837	346.0918	359.679	437.3827	533.2158	606.0054	711.9791	744.2911	792.4254	817.7274	844.7577	861.7182	877.4178	881.4547	904.316	925.1092	947.4247	979.0917	1008.1253	1024.2425	1065.8739	1082.4877	1105.6835	1130.1994	1136.0126	1158.4267	1184.94	1198.6328	1212.0431	1225.2753	1239.3929	1257.8774	1274.6606	1286.6871	1323.7611	1330.4772	1340.7947	1465.8722	1477.4727	1494.9766	3046.2921	3048.1126	3071.2369	3080.9895	3091.5256	3100.5991	3102.0527	3107.3083	3132.6856	3140.8565
C1CC23OC4CC(C12)C34	C1C[C@@]23O[C@H]4C[C@@H]([C@H]12)[C@@H]34	
InChI=1S/C8H10O/c1-2-8-5(1)4-3-6(9-8)7(4)8/h4-7H,1-3H2	InChI=1S/C8H10O/c1-2-8-5(1)4-3-6(9-8)7(4)8/h4-7H,1-3H2/t4-,5-,6-,7+,8+/m0/s1
