20
gdb 77421	1.81213	1.70336	1.59166	2.5396	79.39	-0.2143	0.069	0.2833	1065.8019	0.169	-403.053016	-403.043869	-403.042925	-403.086148	35.308	
C	-0.0360067206	 1.6195968636	 0.0045501173	-0.448098
C	 0.1445204287	 0.1018033577	 0.0388544688	-0.130263
C	 1.3297405476	-0.767250207	-0.2880151158	 0.305201
O	 1.3435291861	-1.7055844424	-1.3062229403	-0.455423
C	 2.6397412357	-0.3762576508	 0.4300644063	-0.109112
C	 2.5595980246	 0.7433556238	 1.3928404816	-0.259006
N	 2.012419257	-0.5701405847	 1.7847432915	-0.169974
C	 0.6972233305	-0.8811265574	 1.077768013	 0.259139
C	-0.1357032534	-1.9360418103	 1.7385064277	-0.471168
H	 0.8298839996	 2.1385779942	-0.4150406958	 0.127986
H	-0.8952911566	 1.8701502815	-0.625456159	 0.113779
H	-0.2355999383	 2.0381970525	 0.9964023315	 0.131519
H	-0.7278822638	-0.4054095543	-0.374651063	 0.098827
H	 1.3720524007	-1.2396583602	-2.1495094204	 0.285565
H	 3.5693556918	-0.8812820957	 0.1854917848	 0.102876
H	 3.4725970975	 0.9702320182	 1.9395086135	 0.119843
H	 1.9122784908	 1.5938259996	 1.2482946678	 0.123267
H	-0.6219579271	-1.5408450845	 2.6384254147	 0.121598
H	-0.9133584437	-2.3024076399	 1.0625242098	 0.120867
H	 0.4892338031	-2.781350154	 2.041761296	 0.132577
123.3243	158.4805	174.6703	213.1165	237.0058	276.8668	284.402	337.0924	354.6306	417.0087	552.3765	595.2322	600.9981	688.2858	706.1487	749.5269	810.6961	824.2709	924.6483	936.5665	1003.6153	1040.0872	1058.1228	1080.8413	1094.8569	1107.3032	1114.904	1132.9737	1170.1339	1186.815	1226.7531	1258.8923	1296.9706	1349.6311	1361.8254	1411.1772	1414.0328	1473.6857	1492.7816	1494.5094	1503.4569	1511.8835	1519.6783	3029.2717	3034.4316	3089.2647	3093.0341	3102.6304	3111.6975	3118.5168	3124.4892	3158.4461	3265.7955	3784.7276
CC1C2(O)C3CN3C12C	C[C@H]1[C@@]2(O)[C@H]3CN3[C@@]12C	
InChI=1S/C7H11NO/c1-4-6(2)7(4,9)5-3-8(5)6/h4-5,9H,3H2,1-2H3	InChI=1S/C7H11NO/c1-4-6(2)7(4,9)5-3-8(5)6/h4-5,9H,3H2,1-2H3/t4-,5-,6+,7-,8?/m1/s1
