18
gdb 36662	3.11787	0.7932	0.67128	4.2452	83.18	-0.2543	0.033	0.2873	1624.5483	0.14629	-364.785767	-364.77635	-364.775406	-364.820968	34.108	
C	-0.1303705048	-1.2201850494	 0.1832543685	-0.462042
C	-0.0749910078	-0.0195777811	 0.1277050871	 0.329692
C	-0.0168661068	 1.4110095724	 0.0517671477	-0.208578
C	 0.6300585862	 2.213936373	 1.1718488674	-0.291722
C	 1.3075248286	 2.1346051785	-0.1675938122	-0.007934
C	 2.5953197428	 1.3632164169	-0.3433157875	-0.215688
C	 3.8186007974	 2.2022041968	 0.0857082543	-0.33501
C	 5.0790268891	 1.4821998676	-0.0801792682	 0.257026
N	 6.0668028148	 0.898496817	-0.2178744637	-0.303828
H	-0.1815591003	-2.2795165998	 0.2348647709	 0.20088
H	-0.8792937034	 1.8715146216	-0.4211865485	 0.118566
H	 0.1495819723	 3.1394543754	 1.4677757213	 0.123704
H	 1.0569615298	 1.6426902722	 1.9890821632	 0.130386
H	 1.2266970666	 3.022440669	-0.7903951276	 0.096705
H	 2.5628805649	 0.4403608678	 0.2427718909	 0.135465
H	 2.7145667514	 1.0619565502	-1.3897598164	 0.127242
H	 3.8699230358	 3.1284790119	-0.4987304036	 0.150327
H	 3.7204252136	 2.4997793101	 1.1358114464	 0.15481
62.7585	73.0646	86.6081	159.3937	197.5673	250.5084	336.5118	382.5959	410.8722	523.8995	531.3298	589.7787	617.8074	656.9419	759.1228	776.2246	817.3329	871.2098	930.9771	951.2187	964.2881	1031.8835	1056.2368	1070.5681	1123.5621	1126.0852	1155.6501	1221.592	1239.4101	1284.0065	1313.6379	1363.1954	1382.6806	1421.822	1467.7956	1484.3773	1496.2221	2236.2265	2362.7515	3039.7883	3053.2585	3075.9159	3102.43	3134.7886	3137.96	3150.4281	3227.803	3503.7302
C#CC1CC1CCC#N	C#C[C@H]1C[C@H]1CCC#N	
InChI=1S/C8H9N/c1-2-7-6-8(7)4-3-5-9/h1,7-8H,3-4,6H2	InChI=1S/C8H9N/c1-2-7-6-8(7)4-3-5-9/h1,7-8H,3-4,6H2/t7-,8+/m0/s1
