15
gdb 18751	3.15742	2.25117	1.61047	1.8324	60.83	-0.2333	-0.0319	0.2014	800.3211	0.118375	-399.757895	-399.750834	-399.74989	-399.789562	26.402	
O	 0.0384755202	 1.3751353172	 0.6408795662	-0.418983
C	 0.0350487821	 0.0809459929	 0.0892997416	 0.106279
C	 0.4090739162	-0.9909151521	 1.1369447259	-0.18452
N	-0.9177322149	-1.6803540443	 1.0057260799	-0.130637
C	-1.9335293279	-1.1723671841	 1.9853172525	-0.306417
C	-2.4179416117	-0.1388926795	 0.9525272123	 0.418652
O	-3.2871352241	 0.6777548997	 0.8998939265	-0.29021
C	-1.3451651173	-0.6413813422	-0.0221932295	-0.177167
H	-0.3581006207	 1.984462648	 0.0083859035	 0.293664
H	 0.6181321274	 0.0333870202	-0.8393190986	 0.082009
H	 1.2345387335	-1.6468135862	 0.8496635269	 0.114899
H	 0.6099915492	-0.5726235374	 2.1280051432	 0.119252
H	-2.6849759265	-1.9279470886	 2.240362404	 0.138766
H	-1.5268720423	-0.7537884292	 2.9128046943	 0.135531
H	-1.6746809432	-0.9763242445	-1.0093581086	 0.098883
66.2031	107.1061	288.615	351.2332	392.7818	410.9382	433.0321	567.6029	638.5435	730.745	750.7981	861.1616	895.3194	930.6127	934.7071	980.56	1013.6329	1046.1159	1083.8389	1141.6182	1158.7092	1181.7005	1198.8128	1221.7741	1240.1362	1258.4578	1304.3457	1327.0971	1418.6645	1447.7664	1492.6546	1902.437	3014.328	3035.3096	3052.6423	3079.8004	3086.0902	3108.5185	3806.2534
OC1CN2CC(=O)C12	O[C@H]1CN2CC(=O)[C@@H]12	
InChI=1S/C5H7NO2/c7-3-1-6-2-4(8)5(3)6/h3,5,7H,1-2H2	InChI=1S/C5H7NO2/c7-3-1-6-2-4(8)5(3)6/h3,5,7H,1-2H2/t3-,5+/m0/s1
