13
gdb 21579	3.52988	2.33797	1.40695	3.0622	65.22	-0.2104	-0.0342	0.1762	806.0524	0.098785	-394.83135	-394.824821	-394.823877	-394.861766	25.141	
N	 0.0205516961	 1.3820014195	 0.1048562343	-0.573457
C	-0.0755186226	 0.0324065514	 0.038625926	 0.273489
C	-1.2152898326	-0.7296071057	 0.021819351	-0.242925
C	-1.1004172181	-2.143083932	-0.0090696813	 0.03086
N	 0.0274748532	-2.7990094585	-0.0282261672	-0.227089
N	 1.1350985514	-2.0186790623	-0.0201411617	-0.274647
C	 1.229323553	-0.6485826608	 0.005817787	 0.402071
O	 2.3013538855	-0.0514158356	-0.0049415664	-0.416305
H	 0.9492687719	 1.75222827	-0.0374043388	 0.277955
H	-0.7727170533	 1.9683513395	-0.0844218698	 0.261798
H	-2.1986641249	-0.2711257657	 0.0366391587	 0.095751
H	-1.990985626	-2.7626472852	-0.0173334224	 0.120091
H	 2.0102793065	-2.5242566244	-0.0447501695	 0.272409
159.553	258.3643	276.0003	323.5245	451.4568	476.274	543.9828	562.7422	602.598	610.2806	730.4977	763.2704	795.7897	856.1135	919.2489	943.4119	1033.6855	1094.3564	1166.7878	1282.776	1352.6937	1397.1142	1408.2952	1459.16	1577.7015	1620.757	1668.2217	1753.7891	3174.6716	3192.5473	3577.9143	3603.3859	3724.602
NC1=CC=NNC1=O	Nc1ccn[nH]c1=O	
InChI=1S/C4H5N3O/c5-3-1-2-6-7-4(3)8/h1-2H,(H2,5,6)(H,7,8)	InChI=1S/C4H5N3O/c5-3-1-2-6-7-4(3)8/h1-2H,(H2,5,6)(H,7,8)
