18
gdb 55165	2.90778	1.42964	1.27643	5.2186	69.87	-0.2414	0.0177	0.2592	1041.8213	0.150347	-439.111818	-439.104343	-439.103399	-439.144118	29.379	
O	-0.5850720236	-0.1365272206	 0.5585742249	-0.37097
C	-0.3764375447	 0.9615348668	-0.1781632697	 0.433303
O	 0.5005995398	 1.0560085788	-0.9948590276	-0.34105
C	-1.3502509943	 2.1125246996	 0.145839222	-0.165876
C	-1.9467622925	 2.7671388789	-1.1310971213	-0.232407
C	-3.3544468876	 2.2021502674	-1.2242051317	-0.042439
C	-3.5085215124	 0.6965393999	-1.1410383531	-0.304265
C	-3.6471927154	 1.5330792361	 0.0994017794	 0.00178
N	-2.4764936108	 1.6155892981	 0.9737290672	-0.332688
H	-1.3831043932	 0.0764022712	 1.0958668721	 0.304173
H	-2.6719528318	 2.2701113486	 1.7228606718	 0.235834
H	-0.7596658919	 2.8313783875	 0.7215576668	 0.119749
H	-1.9948535824	 3.8545424585	-1.0152694946	 0.102411
H	-1.3136856738	 2.5504961408	-1.9945907486	 0.141772
H	-4.1076893221	 2.7758842678	-1.7513568858	 0.092205
H	-4.4202800502	 0.2723216857	-1.547080223	 0.119999
H	-2.6391910212	 0.0583980879	-1.2590156042	 0.139957
H	-4.6006649919	 1.594575407	 0.6098655154	 0.098512
73.2976	118.4268	220.6529	313.4389	334.612	434.8272	500.2242	568.3969	656.4324	688.8157	761.0607	769.5038	792.0226	804.307	858.2312	897.7552	909.3843	954.208	972.806	996.8675	1021.9136	1057.0913	1073.1048	1095.2529	1097.9647	1146.3702	1186.2559	1206.1475	1222.1339	1245.9088	1291.6654	1320.4603	1350.7386	1395.8088	1422.2853	1453.197	1492.5786	1503.5804	1866.9157	3052.9278	3072.7219	3112.3481	3136.1474	3176.014	3186.7038	3220.6819	3429.4256	3533.2552
[O-]C(=O)C1CC2CC2[NH2+]1	OC(=O)[C@H]1C[C@H]2C[C@H]2N1	
InChI=1S/C6H9NO2/c8-6(9)5-2-3-1-4(3)7-5/h3-5,7H,1-2H2,(H,8,9)	InChI=1S/C6H9NO2/c8-6(9)5-2-3-1-4(3)7-5/h3-5,7H,1-2H2,(H,8,9)/t3-,4-,5-/m1/s1
