23
gdb 76339	1.79627	1.73436	1.18711	0.5736	81.36	-0.2444	0.0632	0.3076	1191.0955	0.202946	-425.424491	-425.413881	-425.412937	-425.458808	40.673	
C	-1.2733311804	 0.4661599146	-1.4019946318	-0.423865
C	-0.1200951135	-0.3877820493	-0.8981174509	-0.018515
C	 1.3250556675	-0.0748813815	-1.3642217781	 0.057809
O	 1.4557772046	 1.317714881	-1.6148671245	-0.425689
C	 1.8294606452	-0.51547874	 0.043916753	-0.007924
C	 3.0184988913	 0.1916696708	 0.6746696919	-0.445705
C	 0.3838201468	-0.3133762063	 0.5878791779	 0.371248
C	 0.1259875221	 1.0157509183	 1.2884797741	-0.462663
O	 0.0064573273	-1.400125052	 1.4202731056	-0.482144
H	-1.0655786133	 1.5318385878	-1.2865217223	 0.132351
H	-1.4593550289	 0.2802735431	-2.4652945009	 0.11412
H	-2.1985466233	 0.2333702704	-0.8625142334	 0.10354
H	-0.3171208005	-1.4460004171	-1.0988224838	 0.078262
H	 1.7002632678	-0.6520300724	-2.2195882475	 0.057949
H	 2.3911878858	 1.5106799813	-1.7321511511	 0.285774
H	 2.003931621	-1.5964414033	 0.0237160782	 0.083481
H	 2.9035029584	 1.2793988854	 0.6479483229	 0.116517
H	 3.1412317901	-0.106263444	 1.7209054232	 0.127442
H	 3.9490863293	-0.0624199097	 0.1532974096	 0.108112
H	 0.4513295951	 1.8582817531	 0.6751932685	 0.140722
H	-0.9458928421	 1.141966189	 1.4878621539	 0.10161
H	 0.6543804882	 1.0477206994	 2.2463870228	 0.11658
H	-0.8466254385	-1.1938477186	 1.8171275928	 0.27099
103.3134	198.1035	199.2868	218.8601	222.7822	240.9105	248.9403	259.9386	267.1479	294.7479	305.5556	390.9286	402.351	498.7874	508.8441	579.7803	678.1271	744.1504	805.3931	864.1931	870.1582	947.1866	990.3714	997.78	1001.2092	1061.8735	1066.2201	1135.7905	1157.5611	1163.5952	1179.4173	1190.4609	1213.716	1250.2369	1293.2165	1311.283	1344.9114	1376.5897	1390.7244	1401.5244	1404.6578	1414.0577	1425.8131	1483.2352	1492.7991	1495.0249	1501.5953	1507.5803	1512.5987	3004.665	3023.165	3029.0347	3033.1607	3053.1039	3061.6451	3087.8784	3089.5558	3092.4231	3109.3802	3128.9446	3135.709	3802.0324	3819.1692
CC1C(O)C(C)C1(C)O	C[C@H]1[C@@H](O)[C@@H](C)[C@]1(C)O	
InChI=1S/C7H14O2/c1-4-6(8)5(2)7(4,3)9/h4-6,8-9H,1-3H3	InChI=1S/C7H14O2/c1-4-6(8)5(2)7(4,3)9/h4-6,8-9H,1-3H3/t4-,5+,6+,7+
