16
gdb 72764	3.27571	1.42735	1.18699	3.9975	73.85	-0.2286	-0.0261	0.2026	1032.9378	0.12507	-437.878822	-437.871284	-437.87034	-437.910621	29.675	
O	 0.356831891	 1.3998351097	 0.0386190773	-0.473283
C	 0.1779776163	-0.0031819607	 0.0022160439	 0.354155
C	 0.1501711631	-0.4978286728	 1.487918407	-0.228021
N	-1.3486761638	-0.5218871709	 1.3571393961	-0.386862
C	-1.2594738656	-0.4709656204	-0.0088346589	 0.360327
C	-1.7226454341	-0.873702625	-1.2075656784	-0.388506
C	-0.5504419178	-0.9095745623	-2.1175958884	 0.374048
O	-0.5361726705	-1.2018325113	-3.2907042819	-0.340207
C	 0.7420962506	-0.6604584626	-1.2560261828	-0.428407
H	 0.0289883162	 1.7635554009	-0.79221237	 0.286318
H	 0.5785258311	-1.4919056084	 1.6460100526	 0.12123
H	 0.5243076833	 0.2176832524	 2.2213935069	 0.133475
H	-1.9599039384	-1.1510623858	 1.8605808221	 0.252018
H	-2.684784444	-1.2822122332	-1.4818596295	 0.110169
H	 1.4813937319	-0.0493002692	-1.7784293292	 0.122921
H	 1.1878730607	-1.6416087706	-1.0633583468	 0.130627
106.495	193.678	236.6747	315.3727	328.8262	391.7054	416.5911	548.3408	561.133	572.57	605.1331	695.9774	741.4559	796.6202	831.9068	841.3068	902.9108	917.7917	960.6797	999.699	1078.6437	1116.6842	1137.1588	1178.9525	1206.5	1213.3752	1235.3238	1256.5656	1333.3048	1350.8127	1378.4055	1458.5928	1492.4075	1704.0299	1811.2521	3057.384	3062.3035	3118.2	3136.1789	3234.1047	3579.4794	3794.7226
OC12CNC1=CC(=O)C2	O[C@@]12CN[C]1[CH]C(=O)C2	
InChI=1S/C6H7NO2/c8-4-1-5-6(9,2-4)3-7-5/h1,7,9H,2-3H2	InChI=1S/C6H7NO2/c8-4-1-5-6(9,2-4)3-7-5/h1,7,9H,2-3H2/t6-/m0/s1
