16
gdb 70165	2.62151	1.70273	1.17436	5.5044	69.44	-0.2312	-0.0822	0.149	1035.1206	0.123612	-437.900021	-437.891937	-437.890993	-437.932698	30.27	
C	-0.2413865926	 1.5444938477	 0.0901062178	-0.494383
C	 0.116331962	 0.0890819309	 0.0004767064	 0.190198
N	-0.673379856	-0.9581377205	 0.7260347868	-0.359554
C	 0.7266579459	-0.7328505379	 1.0949631288	-0.102785
C	 1.6225192534	-1.8254086895	 0.5391806141	-0.331304
C	 1.3400565782	-1.8193082655	-0.9649572007	 0.314415
O	 1.6793842219	-2.6315637357	-1.778335062	-0.275126
C	 0.5708564373	-0.4990032081	-1.3022946565	 0.312901
O	 0.45131257	-0.0333262053	-2.4032403621	-0.294268
H	 0.591864264	 2.171743064	-0.2408638615	 0.141671
H	-1.0973747833	 1.7701035665	-0.5532837408	 0.14928
H	-0.4933727053	 1.8244287983	 1.1180783503	 0.117546
H	-1.2965007527	-0.4819323867	 1.3754653531	 0.24302
H	 0.9581278112	-0.2661280809	 2.0472029985	 0.103507
H	 2.6844095158	-1.5946717572	 0.6912420724	 0.138129
H	 1.4238276003	-2.8091035801	 0.9723619252	 0.146754
76.6328	152.8444	189.8415	256.5311	265.2632	320.4877	410.1091	419.0161	524.9765	535.448	619.5209	659.6877	728.2584	776.2642	827.1312	914.318	934.975	977.8021	1022.5783	1030.5196	1055.9371	1092.2116	1128.8392	1163.9326	1179.5982	1282.838	1306.7482	1365.5651	1413.3582	1436.1372	1441.1381	1479.551	1496.5883	1846.1879	1865.1754	3037.3421	3043.437	3105.862	3109.8365	3110.6498	3163.2218	3492.846
CC12NC1CC(=O)C2=O	C[C@]12N[C@H]1CC(=O)C2=O	
InChI=1S/C6H7NO2/c1-6-4(7-6)2-3(8)5(6)9/h4,7H,2H2,1H3	InChI=1S/C6H7NO2/c1-6-4(7-6)2-3(8)5(6)9/h4,7H,2H2,1H3/t4-,6-/m0/s1
