16
gdb 32472	4.72307	0.92304	0.80861	2.2054	70.52	-0.2174	0.0088	0.2261	1400.9257	0.123005	-475.025723	-475.016668	-475.015724	-475.060815	31.341	
C	-0.0785889964	 1.3277017212	-0.0110047926	-0.332188
N	-0.0027197935	-0.1194962675	 0.0688057084	-0.359746
C	 0.585633818	-0.6577674972	 1.0290629277	 0.526412
O	 1.221488562	-0.059698379	 2.0990774781	-0.226269
C	 1.6964608	-1.0820289391	 2.8991329571	-0.154119
C	 1.3923742303	-2.2535452708	 2.3504481898	 0.30565
C	 1.6082923888	-3.6767399937	 2.7187870347	-0.182451
O	 0.3963585109	-4.3651380355	 2.9815553416	-0.406487
O	 0.6965759902	-2.0167268964	 1.1721335321	-0.261433
H	 0.4301651673	 1.6684108472	-0.9200772872	 0.12858
H	-1.1282050951	 1.6279569563	-0.1024450776	 0.128974
H	 0.3591020433	 1.8511677763	 0.8474325071	 0.121934
H	 2.2176775348	-0.8041527914	 3.7979994215	 0.164339
H	 2.1853068066	-4.1754406824	 1.9244647082	 0.115852
H	 2.2015127678	-3.7182625912	 3.6362825594	 0.131925
H	-0.141764545	-4.3197833866	 2.1835647318	 0.299024
40.2416	78.5682	90.7253	170.1362	210.1153	258.8123	289.6554	345.8497	428.1424	521.7215	606.4303	699.2111	719.7146	750.853	772.4075	869.4261	948.0968	989.0666	1052.5383	1069.9649	1108.2219	1132.4302	1138.1797	1197.5264	1200.9135	1266.2811	1336.9956	1378.5681	1421.2772	1448.7164	1486.5092	1494.992	1503.2852	1743.9911	1847.6689	2986.9635	3014.6936	3077.0213	3082.7231	3099.9613	3302.4066	3812.0928
CN=C1OC=C(CO)O1	CN=c1occ(CO)o1	
InChI=1S/C5H7NO3/c1-6-5-8-3-4(2-7)9-5/h3,7H,2H2,1H3	InChI=1S/C5H7NO3/c1-6-5-8-3-4(2-7)9-5/h3,7H,2H2,1H3
