17
gdb 70718	2.32495	1.91217	1.24738	1.934	69.22	-0.2475	-0.0295	0.218	1001.0361	0.135768	-458.966782	-458.958997	-458.958053	-458.998906	30.492	
O	 0.0392365553	 1.3590485869	-0.0939112404	-0.47237
C	 0.0152894121	-0.0249560573	-0.0393222129	 0.315666
C	-0.5189626778	-0.7533094828	-1.2703129029	-0.354089
C	-1.3309892829	-0.7397658304	-0.0108754025	 0.017785
O	-1.4688063658	-1.9566621265	 0.6667562928	-0.250197
C	-0.5600231662	-2.172585156	 1.7308119134	-0.081138
C	 0.8984747759	-2.0373781864	 1.2480759818	-0.327287
C	 1.0992013796	-0.6092918417	 0.7954555581	 0.323214
O	 2.0018695577	 0.1089277619	 1.1842121714	-0.351378
H	 0.8665196434	 1.6020961922	 0.3541488756	 0.29553
H	-0.8111164714	-0.0925782588	-2.0786551018	 0.138636
H	-0.0721967606	-1.6966576485	-1.5628786101	 0.127301
H	-2.2054898763	-0.0965436985	 0.0425903234	 0.122026
H	-0.7454609561	-1.4692432688	 2.5568759915	 0.110333
H	-0.7562559534	-3.1842871554	 2.0948364343	 0.122476
H	 1.6135308565	-2.2580404935	 2.0442745881	 0.131081
H	 1.0622455501	-2.7405669064	 0.4235223203	 0.132411
93.6872	160.982	225.5197	329.1679	356.2887	388.4658	415.1985	461.0254	484.0253	504.6984	569.1343	660.5964	762.335	796.0009	880.0419	891.8024	906.6682	930.9128	995.8918	1014.9885	1042.8706	1073.0101	1083.8631	1126.4891	1189.0617	1204.8891	1240.2626	1273.2358	1308.0919	1329.0816	1388.3146	1407.6567	1433.8676	1456.3711	1471.2624	1507.8991	1773.3318	2993.6858	3046.7283	3099.0708	3116.5107	3138.8964	3148.3611	3238.5399	3676.5259
OC12CC1OCCC2=O	O[C@]12C[C@H]1OCCC2=O	
InChI=1S/C6H8O3/c7-4-1-2-9-5-3-6(4,5)8/h5,8H,1-3H2	InChI=1S/C6H8O3/c7-4-1-2-9-5-3-6(4,5)8/h5,8H,1-3H2/t5-,6+/m1/s1
