15
gdb 10591	3.09064	1.77343	1.3639	1.0252	70.28	-0.2431	-0.0467	0.1964	928.0231	0.115595	-362.599828	-362.591497	-362.590553	-362.632218	30.313	
C	-0.379852493	 1.4015650134	-0.0374716804	-0.334432
N	 0.0219037125	-0.0025663336	 0.0219806457	-0.104727
C	 1.4139263282	-0.3332911279	-0.0612334918	-0.256447
C	 0.6790586809	-0.5453365753	 1.2488470769	 0.006782
C	 1.0532212437	 0.3750435236	 2.3794236511	 0.094655
O	 1.5732792971	 1.455643452	 2.2406178679	-0.260879
C	 0.2520753298	-1.8584173322	 1.6554759933	 0.25208
C	-0.0775743188	-2.946863414	 2.0447635754	-0.378418
H	 0.3318033055	 2.0976309569	 0.4193994446	 0.147893
H	-0.5006502974	 1.6547437618	-1.095142564	 0.132176
H	-1.3521585996	 1.510648332	 0.4513776138	 0.131146
H	 1.6665782746	-1.2161686061	-0.6418842704	 0.134018
H	 2.1459641825	 0.4729808568	-0.0563743869	 0.1395
H	 0.7987219478	-0.0240990379	 3.3827236732	 0.097518
H	-0.3793310937	-3.9119540296	 2.3697676816	 0.199134
133.4327	151.1491	157.3273	194.9596	233.9332	272.5498	354.9441	434.7964	514.9903	535.2577	541.4892	610.7411	665.5186	722.2407	745.2855	910.7123	917.9709	1035.9985	1059.2663	1112.8132	1146.9251	1150.9763	1210.1843	1229.	1339.1521	1424.0463	1445.3773	1483.1815	1492.2095	1508.495	1801.5407	2239.9482	2924.3485	3029.9892	3095.3903	3103.4118	3114.194	3195.3163	3501.2518
CN1CC1(C=O)C#C	CN1C[C@]1(C=O)C#C	
InChI=1S/C6H7NO/c1-3-6(5-8)4-7(6)2/h1,5H,4H2,2H3	InChI=1S/C6H7NO/c1-3-6(5-8)4-7(6)2/h1,5H,4H2,2H3/t6-,7?/m0/s1
