19
gdb 70205	3.52383	1.35607	1.16136	3.0467	77.22	-0.2369	0.0234	0.2602	1104.7577	0.160529	-419.198517	-419.190397	-419.189453	-419.230911	31.67	
C	-0.3491706247	 1.5420729617	 0.1865122283	-0.461311
C	-0.0757195456	 0.062177018	 0.035315714	 0.296804
C	-0.8000744708	-0.9480033239	 0.8560918889	-0.295573
N	 0.5967762607	-0.5977461896	 1.1564758043	-0.129868
C	 1.629275279	-1.5622599955	 0.7688387163	-0.23788
C	 1.3346273819	-2.3802088322	-0.4724460585	 0.371935
N	 1.675491393	-3.5950538769	-0.5622842266	-0.517362
O	 0.6533301051	-1.7467116761	-1.4734441478	-0.242966
C	 0.4103626723	-0.3450427283	-1.3438928196	-0.146459
H	 0.5305674413	 2.1358832462	-0.0870668984	 0.120995
H	-1.1824002783	 1.8572052011	-0.4514737207	 0.120209
H	-0.5993981434	 1.7724045198	 1.2243809571	 0.136391
H	-1.5201506364	-0.6181647552	 1.5995328461	 0.116928
H	-1.0139886591	-1.9181545379	 0.4156150322	 0.134796
H	 2.5582217203	-0.9985721372	 0.6124841902	 0.129151
H	 1.8115354189	-2.2602356593	 1.5878744317	 0.14659
H	 1.410513493	-3.9698285183	-1.4763206896	 0.218153
H	-0.3314448381	-0.1053669669	-2.1110780831	 0.127258
H	 1.3279956511	 0.2127969906	-1.5848598047	 0.112208
91.6442	185.0973	207.2065	224.1059	301.6538	355.885	392.7778	433.0123	479.627	505.7777	585.3614	684.3309	744.0605	777.1235	817.755	902.1906	911.1536	925.6322	976.0079	995.6121	1034.2362	1041.2811	1097.1318	1121.1389	1133.3757	1149.6109	1186.8545	1251.0302	1274.9525	1288.4877	1329.053	1345.9088	1384.5635	1415.7723	1434.1296	1472.8856	1487.4332	1494.4047	1508.9676	1519.5522	1753.7718	2993.7559	3029.5002	3031.347	3084.439	3091.9869	3112.4132	3118.955	3128.2564	3197.7583	3455.2243
CC12CN1CC(=N)OC2	C[C@]12CN1C[C]([NH])OC2	
InChI=1S/C6H10N2O/c1-6-3-8(6)2-5(7)9-4-6/h7H,2-4H2,1H3	InChI=1S/C6H10N2O/c1-6-3-8(6)2-5(7)9-4-6/h7H,2-4H2,1H3/t6-,8?/m1/s1
