20
gdb 53954	1.59193	1.00135	0.72634	1.4473	78.44	-0.2247	0.0235	0.2482	1635.459	0.166326	-440.344839	-440.332508	-440.331564	-440.38613	39.7	
C	 0.2790342735	 1.9062796796	 0.2631554535	-0.46429
C	-0.1063512336	 0.5258615713	 0.7355439644	 0.31616
C	 0.9138407054	-0.1246653061	 1.6358071536	-0.482723
C	-1.2633039544	-0.0336167706	 0.355812458	-0.145465
C	-1.8417789377	-1.3702187027	 0.741534	-0.208073
N	-3.130424296	-1.2975207972	 1.4551193496	-0.494841
H	-3.0264301976	-0.6785042361	 2.2555908198	 0.221627
H	-3.8194396826	-0.848276783	 0.8567027033	 0.222242
C	 0.7657636462	-1.1390849973	-2.1635284382	 0.588299
O	 1.749527575	-0.5849961663	-1.882740876	-0.296207
O	-0.2068680045	-1.7020244674	-2.4619508568	-0.292578
H	 1.2192473927	 1.8777636082	-0.3017888935	 0.130492
H	-0.4899771014	 2.3483357345	-0.3758865147	 0.116217
H	 0.4467102544	 2.5806204999	 1.1131343858	 0.119338
H	 1.1326990629	 0.5204851221	 2.4962493707	 0.121949
H	 0.6000163489	-1.0977404387	 2.0165000281	 0.124248
H	 1.8628727638	-0.2611961641	 1.1023792781	 0.133483
H	-1.9112690641	 0.5530745251	-0.2982671731	 0.066825
H	-2.0051471756	-1.972199416	-0.1612363458	 0.118127
H	-1.1474923652	-1.9404501748	 1.3656535533	 0.105169
23.2852	42.5039	43.894	64.8336	73.6307	80.4043	144.8368	163.1838	217.4211	251.6207	320.3019	364.8642	424.133	499.1113	516.8347	675.4132	687.7649	772.7928	865.5917	891.238	917.9931	962.5195	1018.8546	1032.6912	1084.9634	1105.5001	1124.4007	1149.8583	1246.4502	1343.7547	1377.2294	1385.9852	1392.7274	1408.1537	1419.7508	1472.209	1478.5299	1491.106	1492.2534	1501.0249	1665.5274	1730.6487	2429.2491	3014.5477	3022.6797	3032.5813	3063.294	3067.0302	3080.94	3105.2416	3112.4833	3132.6746	3473.2337	3548.9377
CC(C)(C1C[NH2+]1)C([O-])=O	CC(=CCN)C.C(=O)=O	
InChI=1S/C6H11NO2/c1-6(2,5(8)9)4-3-7-4/h4,7H,3H2,1-2H3,(H,8,9)	InChI=1S/C5H11N.CO2/c1-5(2)3-4-6;2-1-3/h3H,4,6H2,1-2H3;
