19
gdb 38547	3.01327	2.19271	1.84199	1.0088	82.65	-0.2052	0.0058	0.211	836.2439	0.163721	-348.721579	-348.715745	-348.7148	-348.751217	26.396	
C	-0.1653348103	 1.4078117768	 0.0471991312	-0.287786
C	 1.4105596695	 1.3301184366	 0.0503356532	-0.017069
C	 2.030169649	 0.5506780179	 1.2552346017	-0.240076
C	 2.3904264823	-0.8705543109	 0.7755233621	-0.05116
C	 1.2905208991	-1.8018551082	 0.2268704678	-0.082276
C	-0.0498878965	-1.1545103791	 0.2671042039	-0.150598
C	-0.0266515527	-0.0191732515	-0.4476007223	 0.11827
C	 1.343334169	 0.2260571829	-1.0741001237	-0.067986
C	 2.1809660374	-0.9775244856	-0.7073510131	-0.085532
H	-0.6789023332	 1.5757626622	 0.9963522646	 0.100533
H	-0.5125089763	 2.1277642153	-0.7010190908	 0.10076
H	 1.9298295094	 2.2665155902	-0.1768139439	 0.068224
H	 2.9470921294	 1.0488378674	 1.5856088974	 0.099339
H	 1.3516011178	 0.5380667946	 2.115054062	 0.102517
H	 3.2440221175	-1.3588093406	 1.2338194315	 0.081044
H	 1.4399376075	-2.8698724203	 0.3493512225	 0.077652
H	-0.778036812	-1.3843241296	 1.0382781211	 0.08809
H	 1.3680784105	 0.5884627571	-2.1025368737	 0.064612
H	 2.8918008725	-1.434771575	-1.3826692414	 0.081445
258.7262	371.0128	381.5044	485.8747	577.323	648.4357	692.5182	708.7324	729.1659	788.0709	811.5299	814.427	849.98	857.9711	892.71	913.9952	928.5903	960.3237	983.9653	1000.2081	1010.4584	1022.3378	1041.9439	1084.8193	1091.3872	1109.3268	1113.5036	1129.8599	1189.1067	1223.3584	1231.0721	1263.2071	1286.1382	1295.3042	1304.5503	1331.6073	1339.9993	1385.1073	1480.4023	1493.0501	1653.8749	3039.552	3044.8062	3053.8683	3081.1517	3100.4823	3111.558	3153.67	3164.6773	3179.8906	3199.8971
C1C2CC3C4C=C1C2C34	C1[C@H]2C[C@H]3[C@H]4[CH][C]1[C@@H]2[C@@H]34	
InChI=1S/C9H10/c1-4-2-6-7-3-5(1)8(4)9(6)7/h2,5-9H,1,3H2	InChI=1S/C9H10/c1-4-2-6-7-3-5(1)8(4)9(6)7/h2,5-9H,1,3H2/t5-,6+,7-,8-,9+/m0/s1
