16
gdb 67140	2.09596	1.88744	1.51193	4.8799	69.15	-0.221	0.0053	0.2263	958.1245	0.123495	-437.821545	-437.813516	-437.812571	-437.853905	30.548	
C	-0.1371830445	 1.4461837735	-0.0074735817	-0.513486
C	 0.0285294872	-0.0413348978	 0.0183063907	 0.154491
C	-0.0737900479	-0.9431046172	-1.2260498414	-0.178841
N	 0.7238290342	-2.1528183674	-0.9300766108	-0.307581
C	 0.0542751746	-2.1643788633	 0.4122310037	-0.267709
C	 0.6637983842	-0.9050932766	 1.0635266236	 0.447779
O	 1.1821056279	-0.6807336913	 2.120795034	-0.34177
C	-1.0679033898	-1.1411733229	-0.1180344724	 0.300673
O	-2.3949704413	-0.9235936229	 0.1072561458	-0.432717
H	 0.763571039	 1.9376581281	-0.388565966	 0.136376
H	-0.9787179532	 1.7385246218	-0.643396037	 0.128935
H	-0.3271536547	 1.8245347964	 1.001064387	 0.146202
H	-0.1576409552	-0.5004904933	-2.2112452623	 0.110946
H	 0.339712782	-2.919223115	-1.4821999278	 0.219704
H	-0.0549826107	-3.1059174116	 0.9429880193	 0.096721
H	-2.9049006119	-1.6134054603	-0.3339690347	 0.300275
122.515	138.7634	172.5644	217.4934	326.9159	346.4347	366.7083	441.7149	541.1437	609.4487	614.635	683.0864	690.979	782.5946	808.6699	853.1453	911.4922	969.4527	990.213	1018.2799	1046.4818	1089.6361	1103.6496	1113.9331	1149.9114	1197.2774	1264.1465	1302.0522	1355.242	1372.9914	1417.9259	1466.346	1483.0045	1498.272	1881.6948	3038.5881	3104.4375	3113.4261	3170.6174	3194.6589	3455.9955	3781.4939
CC12C3NC(C1=O)C23O	C[C@@]12[C@H]3N[C@@H](C1=O)[C@@]23O	
InChI=1S/C6H7NO2/c1-5-3(8)2-6(5,9)4(5)7-2/h2,4,7,9H,1H3	InChI=1S/C6H7NO2/c1-5-3(8)2-6(5,9)4(5)7-2/h2,4,7,9H,1H3/t2-,4+,5-,6-/m0/s1
