14
gdb 129383	4.40284	1.13041	0.90053	6.8467	73.84	-0.2016	-0.0467	0.1549	1194.1533	0.103233	-466.219405	-466.211366	-466.210422	-466.25187	30.145	
N	-0.0603120708	 1.3254136032	 0.0941780244	-0.536152
C	-0.0028691437	-0.0140634717	-0.0033994837	 0.332862
N	 1.1710336882	-0.6489285521	-0.1279163623	-0.534611
H	 1.1203884936	-1.6581394377	-0.092439584	 0.300463
H	 2.0457196897	-0.1946487244	 0.0713877693	 0.270346
C	-1.1887871404	-0.7726753197	 0.0337705177	 0.359107
N	-1.2111081078	-2.1381809676	 0.0612592332	-0.421727
C	-2.516977691	-2.331401513	 0.0862470461	 0.394478
O	-3.0827857242	-3.5476618008	 0.1172495197	-0.417344
N	-3.2774739743	-1.1944077132	 0.0773041079	-0.316076
N	-2.4084236495	-0.1910055851	 0.0403020569	-0.305466
H	 0.7006128766	 1.9011520563	-0.2246330469	 0.269163
H	-0.9951516447	 1.7113421003	 0.0740981535	 0.299185
H	-4.0367209116	-3.3983152244	 0.1319062385	 0.30577
116.1779	148.9189	162.326	287.3525	348.9533	367.9682	385.8389	412.6167	453.0334	558.6153	572.0055	632.4458	651.2457	669.5544	768.9804	770.6019	784.7083	991.6215	1064.1919	1081.6826	1098.6232	1169.0954	1234.6304	1338.2582	1368.9145	1446.193	1539.9784	1575.1585	1627.6236	1661.55	1683.0739	3561.1923	3568.9247	3703.8655	3712.2924	3795.7757
NC(=[NH2+])C1=NC(O)=N[N-]1	NC(=[NH2])c1nc(O)nn1	
InChI=1S/C3H4N5O/c4-1(5)2-6-3(9)8-7-2/h(H4-,4,5,6,7,8,9)/q-1/p+1	InChI=1S/C3H6N5O/c4-1(5)2-6-3(9)8-7-2/h4-5H2,(H2,6,7,8,9)
