20
gdb 83006	2.58712	1.77614	1.54298	2.2248	77.17	-0.2164	0.063	0.2794	970.2917	0.173158	-403.097585	-403.090065	-403.089121	-403.129323	30.025	
C	-0.1970484026	 1.5592472129	-0.1738815975	-0.307817
N	 0.0772314417	 0.1451366469	 0.0277596461	-0.080064
C	 1.3331144089	-0.5003907792	-0.2846709669	-0.03473
C	 2.6279077988	 0.3154661277	-0.3864458108	-0.276346
C	 2.9837769767	 0.7807828291	 1.0473192006	-0.068505
C	 2.6386090452	 2.2088907544	 1.5171520399	-0.092833
O	 1.4856246076	 1.742842759	 2.2507688818	-0.291828
C	 1.8104244039	 0.3559208269	 1.9643348103	 0.118658
C	 0.8134008066	-0.4383857252	 1.1342702629	-0.067428
H	 0.6833591035	 2.2063496126	-0.255421455	 0.103156
H	-0.7696188342	 1.6580521696	-1.1030331809	 0.112938
H	-0.8088676745	 1.9289505393	 0.6510045108	 0.137278
H	 1.2573982967	-1.3981013346	-0.8955197578	 0.08723
H	 3.4177257615	-0.3236036814	-0.7920348075	 0.106727
H	 2.5282124579	 1.159472257	-1.0793212145	 0.109251
H	 3.9768698321	 0.4413079083	 1.3453368308	 0.081614
H	 3.3832185531	 2.6569323629	 2.187024975	 0.10044
H	 2.3760960519	 2.9419537447	 0.7444544289	 0.1031
H	 2.0616961502	-0.1818729627	 2.8862549753	 0.074229
H	 0.3178199752	-1.2791079881	 1.6152835686	 0.084932
124.0399	167.625	217.3157	243.2867	317.4649	372.8037	452.2781	543.2748	666.8581	699.9527	737.0566	739.7219	827.0195	860.7647	883.6423	905.3807	922.3027	976.6001	1004.7089	1017.6539	1055.1179	1066.9768	1085.8763	1115.1371	1132.6632	1156.3894	1165.5101	1179.9745	1203.1727	1220.732	1261.8308	1301.2785	1323.2742	1332.6036	1345.1241	1351.8108	1363.463	1410.0959	1460.7132	1475.0518	1494.176	1508.5431	1533.1867	3013.2375	3025.5279	3032.6344	3038.3973	3053.0266	3073.5421	3077.0437	3098.8106	3116.28	3126.7573	3129.8423
CN1C2CC3COC3C12	CN1[C@H]2C[C@H]3CO[C@H]3[C@@H]12	
InChI=1S/C7H11NO/c1-8-5-2-4-3-9-7(4)6(5)8/h4-7H,2-3H2,1H3	InChI=1S/C7H11NO/c1-8-5-2-4-3-9-7(4)6(5)8/h4-7H,2-3H2,1H3/t4-,5-,6-,7+,8?/m0/s1
