17
gdb 65602	3.51968	1.30014	1.23001	3.0702	68.61	-0.2346	-0.0326	0.202	1063.5316	0.133284	-458.948687	-458.940299	-458.939355	-458.981973	31.201	
C	 0.1801257221	 1.4802479342	 0.0637316702	-0.429727
C	 0.0126125429	-0.0197547117	 0.0566415992	 0.339944
O	 0.6250895569	-0.5929094173	-1.1006761058	-0.294219
C	 1.2033108919	-1.8195774361	-0.7127772546	 0.055413
C	 2.5261324719	-1.7223880291	 0.0164871043	-0.328316
C	 1.2210232259	-1.828473954	 0.7758256424	 0.055441
O	 0.6521823348	-0.6067906367	 1.192105741	-0.294183
C	-1.4578840323	-0.4726377841	 0.0712797538	 0.158071
O	-2.4035741186	 0.2679987421	 0.0869148932	-0.2405
H	 1.243392447	 1.7262344381	 0.0527331626	 0.125892
H	-0.305795362	 1.912032854	-0.8131934071	 0.143746
H	-0.2849732063	 1.9013047817	 0.9570175168	 0.143744
H	 0.9450266582	-2.6639734559	-1.3408602658	 0.114739
H	 3.1724096157	-2.5944384985	 0.003640804	 0.121386
H	 3.0269899386	-0.7612696575	 0.0161894766	 0.134158
H	 0.9778078027	-2.6804968047	 1.3996121503	 0.114743
H	-1.5733351096	-1.5796683145	 0.065968639	 0.079665
70.7001	87.4148	178.9744	244.793	246.1355	328.7294	372.5596	379.2498	482.4185	519.5267	717.6684	728.319	778.3694	787.2358	812.2114	883.981	921.2852	972.7344	987.3768	1002.0789	1019.7762	1063.8553	1095.5925	1108.879	1143.1953	1143.7569	1175.0541	1212.5755	1277.728	1326.3017	1372.7892	1400.7394	1427.6537	1458.9939	1474.7261	1478.0414	1841.9326	2886.0982	3066.9325	3132.7196	3150.7422	3152.6183	3175.0686	3184.1269	3233.1569
CC1(OC2CC2O1)C=O	C[C@]1(O[C@H]2C[C@H]2O1)C=O	
InChI=1S/C6H8O3/c1-6(3-7)8-4-2-5(4)9-6/h3-5H,2H2,1H3	InChI=1S/C6H8O3/c1-6(3-7)8-4-2-5(4)9-6/h3-5H,2H2,1H3/t4-,5+,6+
