13
gdb 131659	1.72911	0.96018	0.62814	3.357	62.35	-0.2658	-0.0644	0.2014	1622.4534	0.08206	-489.943463	-489.932043	-489.931098	-489.986668	33.814	
O	 0.365734541	 1.0423531184	 0.7265823087	-0.420689
C	 0.2446200013	 0.0623323317	-0.2555582796	-0.125994
C	-1.209952347	-0.3830968584	-0.4011382768	 0.370277
C	-1.4728352124	-1.4118252001	-1.404185716	-0.524434
C	-2.7078774423	-1.8535275747	-1.6008175378	 0.554226
O	-3.7819918042	-2.233552094	-1.770623151	-0.175078
N	-4.6795479282	-1.1867898586	 1.4328945371	-0.002218
N	-4.960297788	-0.45953921	 2.2069647092	-0.002397
O	-2.0627710708	 0.1277044029	 0.3063840738	-0.364084
H	-0.5376305162	 1.1780681239	 1.057897245	 0.296734
H	 0.592684224	 0.4274600714	-1.2365534008	 0.11666
H	 0.8542032947	-0.8257927498	-0.0179364479	 0.116796
H	-0.682305682	-1.8367931727	-2.0099500938	 0.160202
7.6882	17.6788	33.4806	46.4368	73.3491	82.7772	119.1766	120.5049	287.4698	390.0532	409.6558	503.1657	531.9332	575.8388	622.8318	744.4717	931.5036	1014.52	1066.4954	1125.8321	1157.6143	1241.7537	1305.2235	1406.0144	1461.8453	1498.242	1739.2153	2245.3361	2432.4554	2966.2746	2983.4204	3210.4529	3667.6049	7.6874	17.678	33.4803	46.4367	73.349	82.7771	119.1766	120.505	287.4698	390.0532	409.6556	503.1658	531.9332	575.8387	622.8319	744.4718	931.5037	1014.5199	1066.4953	1125.8321	1157.6142	1241.7535	1305.2233	1406.0143	1461.8452	1498.2418	1739.215	2245.3365	2432.4553	2966.2746	2983.4204	3210.4529	3667.6048
OCC1=CC(=O)N=NO1	OCC(=O)[CH][C][O].N#N	
InChI=1S/C4H4N2O3/c7-2-3-1-4(8)5-6-9-3/h1,7H,2H2	InChI=1S/C4H4O3.N2/c5-2-1-4(7)3-6;1-2/h1,6H,3H2;
