23
gdb 68868	2.30359	1.8232	1.53377	0.158	88.64	-0.2343	0.0887	0.323	1040.451	0.207197	-351.128717	-351.120495	-351.119551	-351.160639	34.193	
C	-0.0589727036	 1.4687414309	 0.0122584472	-0.480729
C	 0.0093652029	-0.0383082469	-0.0064882208	 0.328607
C	 1.312437242	-0.7550124675	-0.2929855735	-0.427348
C	 0.6560984404	-0.9125114666	 1.0628001234	 0.328607
C	 1.3338583225	-0.4139848983	 2.3151311434	-0.480729
C	-0.4493139612	-1.9866714433	 1.2253700231	-0.078382
C	-1.7175355043	-1.0638830178	 1.2871056008	-0.218506
C	-1.3173635331	-0.8133104063	-0.2098288177	-0.078382
C	-0.9151552426	-2.3111934956	-0.2179488488	-0.243504
H	 0.8599399476	 1.9120365572	 0.4087690447	 0.112663
H	-0.2036943407	 1.8700715021	-0.998270286	 0.115262
H	-0.8927941162	 1.8257537413	 0.6285229341	 0.112807
H	 1.3851819568	-1.5700210934	-1.003298268	 0.105235
H	 2.1905755149	-0.114017022	-0.3000550923	 0.097819
H	 1.9020127414	 0.5034468721	 2.1316882624	 0.112663
H	 0.6070290506	-0.2015886659	 3.1082924317	 0.112808
H	 2.0372021214	-1.1590251866	 2.7067952734	 0.115261
H	-0.2673486329	-2.7739076202	 1.9592113428	 0.053227
H	-2.6548565237	-1.615602838	 1.402961597	 0.086656
H	-1.6920566421	-0.20992379	 1.9698583017	 0.088998
H	-2.0199525278	-0.4048752821	-0.9384745786	 0.053227
H	-0.2013018981	-2.6827183058	-0.9534517845	 0.090537
H	-1.7946790443	-2.9588596573	-0.2154937856	 0.093204
181.0627	184.256	203.115	207.1654	278.1843	321.5023	468.8564	470.742	514.445	528.9971	542.6139	690.1987	713.1061	774.1195	837.2901	841.8331	877.3928	904.8311	911.7001	947.0237	959.7938	979.9632	1012.4496	1037.4481	1046.2845	1051.93	1065.295	1081.0841	1098.589	1112.6531	1128.8293	1205.8071	1217.7433	1228.4513	1228.9366	1243.4685	1261.7891	1287.7285	1336.2834	1387.0503	1413.3298	1423.2634	1481.8579	1482.733	1491.601	1494.3375	1502.1315	1506.9004	1540.156	3017.1111	3020.0024	3049.9797	3072.2702	3072.4551	3073.4455	3091.4822	3094.9454	3096.6691	3099.0352	3110.2306	3118.4129	3127.1272	3199.4735
CC12CC1(C)C1CC2C1	C[C@@]12C[C@]1(C)[C@H]1C[C@@H]2C1	
InChI=1S/C9H14/c1-8-5-9(8,2)7-3-6(8)4-7/h6-7H,3-5H2,1-2H3	InChI=1S/C9H14/c1-8-5-9(8,2)7-3-6(8)4-7/h6-7H,3-5H2,1-2H3/t6-,7+,8-,9+
