18
gdb 57675	4.32371	0.79293	0.78969	3.0112	73.06	-0.2593	-0.0376	0.2217	1457.9273	0.14362	-439.109336	-439.099093	-439.098149	-439.145053	36.189	
C	 0.0767061474	 1.6558156978	-0.0112278562	-0.405423
C	 0.0125689788	 0.1273855398	-0.0234106049	 0.312033
O	 0.66839331	-0.296160801	 1.1659109046	-0.444327
C	-1.4503494631	-0.375750599	-0.0407046462	-0.31298
C	-2.2597488062	 0.1036177822	 1.1503077606	 0.153236
O	-3.3759218789	 0.5473277118	 1.0690976953	-0.238616
C	 0.7408154077	-0.4490190684	-1.2705751483	-0.384223
C	 2.1581343597	-0.0988470877	-1.3208164022	 0.280603
N	 3.2786511437	 0.1782369615	-1.3675822967	-0.305536
H	 1.1161524447	 1.9912142335	-0.0215656816	 0.156181
H	-0.4407177633	 2.0736357784	-0.8793598837	 0.125552
H	-0.3977135655	 2.0453631558	 0.8930604451	 0.140229
H	 0.7201404255	-1.2588293831	 1.1736768878	 0.284956
H	-1.9716204052	-0.0797437349	-0.955801954	 0.126426
H	-1.4421463512	-1.4762980577	-0.0044683623	 0.112739
H	-1.7440042724	 0.0014476039	 2.1280948853	 0.099421
H	 0.6523911257	-1.5428057798	-1.2738570889	 0.141294
H	 0.2545398027	-0.0934623131	-2.1856027735	 0.158436
54.0073	75.268	101.5359	131.2888	213.9955	230.5214	304.2461	316.5451	335.8593	391.4594	396.275	412.4898	435.0287	497.1386	637.1311	763.3066	827.2082	882.2338	919.0028	956.6265	966.8982	1010.8682	1055.5513	1115.9335	1158.8675	1172.1355	1208.3785	1254.7123	1314.4477	1332.1422	1388.0203	1419.0722	1424.8827	1449.6476	1466.1893	1484.3331	1502.1039	1831.6811	2365.4083	2917.3827	2998.5917	3034.6719	3052.3628	3080.1051	3096.8095	3126.7943	3137.2169	3795.347
CC(O)(CC=O)CC#N	C[C@@](O)(CC=O)CC#N	
InChI=1S/C6H9NO2/c1-6(9,2-4-7)3-5-8/h5,9H,2-3H2,1H3	InChI=1S/C6H9NO2/c1-6(9,2-4-7)3-5-8/h5,9H,2-3H2,1H3/t6-/m0/s1
