15
gdb 128728	2.64272	1.64077	1.01877	1.8423	73.83	-0.2322	-0.0418	0.1904	1107.1903	0.113054	-453.913283	-453.905499	-453.904555	-453.945781	28.845	
C	 0.0274129375	 1.3450628897	-0.0757099853	-0.234931
O	-0.0402738075	-0.0838758694	-0.0713230996	-0.219925
C	-1.2428290547	-0.6408979814	 0.0294043514	 0.434444
N	-2.2743909659	 0.1355998684	 0.1169798841	-0.193029
O	-3.5331711423	-0.4636973821	 0.2224574715	-0.244096
C	-3.6325678532	-1.8006366958	 0.2296296675	 0.098881
C	-2.5949520121	-2.6474435805	 0.1414875371	-0.237321
C	-1.2490690678	-2.1256877398	 0.0286115441	 0.209338
N	-0.1387786381	-2.7600325238	-0.0654538149	-0.514317
H	 1.0875007731	 1.581630645	-0.1647219122	 0.139455
H	-0.5323526786	 1.7576035334	-0.9198767373	 0.142731
H	-0.3833058397	 1.7559821682	 0.8508967317	 0.142731
H	-4.6713630603	-2.0991186333	 0.316845157	 0.146325
H	-2.7668730968	-3.7169158246	 0.1550086392	 0.115295
H	-0.3145214036	-3.7679389841	-0.0515520944	 0.214419
95.1776	140.3669	197.475	225.2559	313.097	354.7565	420.4368	493.9407	527.2237	553.662	603.5919	742.1216	759.5003	823.0851	888.265	910.7688	952.8474	971.7794	1025.3497	1056.1949	1140.9335	1177.1556	1216.8394	1263.8513	1321.0765	1396.9761	1447.807	1480.0625	1493.4086	1503.4861	1610.0751	1648.8273	1699.2653	3045.1303	3117.2355	3159.4336	3197.1378	3215.9231	3435.3659
COC1=NOC=CC1=N	COC1=NO[CH]C=C1[NH]	
InChI=1S/C5H6N2O2/c1-8-5-4(6)2-3-9-7-5/h2-3,6H,1H3	InChI=1S/C5H6N2O2/c1-8-5-4(6)2-3-9-7-5/h2-3,6H,1H3
