21
gdb 96576	2.42173	1.38379	1.00942	1.0391	79.9	-0.2402	0.0007	0.2409	1223.6068	0.183881	-424.213921	-424.205286	-424.204342	-424.246777	33.985	
O	-0.1894206833	 1.5503642122	-0.138649245	-0.442913
C	-0.012980096	 0.1400547778	-0.0234869593	 0.079701
C	-1.4246650804	-0.4604147276	 0.0692294906	-0.187614
C	-1.5121083911	-1.9957747585	 0.0205549908	-0.213555
C	-0.5649134414	-2.7973663601	 0.94170243	-0.069876
O	 0.6051274923	-3.3044260819	 0.3166242175	-0.243727
C	 1.6745789436	-2.3889304823	 0.1094696263	-0.124421
C	 1.5195555523	-1.5226494716	-1.123141899	-0.076004
C	 0.7790990973	-0.4157019518	-1.1768069288	-0.077146
H	 0.6836467442	 1.9554017432	-0.1494375321	 0.280166
H	 0.513340065	-0.0876062866	 0.9161668159	 0.06843
H	-1.8720199512	-0.0854747724	 0.99760472	 0.103927
H	-2.0203990192	-0.0406527367	-0.7499850699	 0.108218
H	-2.5432456984	-2.2670460437	 0.2762201849	 0.097197
H	-1.3456462127	-2.3578755861	-0.9985952418	 0.115841
H	-0.297699	-2.2134663783	 1.8382516892	 0.084593
H	-1.0860906253	-3.694752036	 1.2896995911	 0.107219
H	 1.8103144564	-1.7658234651	 1.0072374371	 0.094631
H	 2.5672848501	-3.0135261423	 0.0092295455	 0.105675
H	 2.0151517502	-1.8737855716	-2.0248501829	 0.094368
H	 0.6679735878	 0.1302722994	-2.1123278503	 0.095287
118.2724	164.0332	191.9233	242.5236	284.1554	310.8866	368.5629	370.5359	408.7631	464.6668	501.8707	568.1142	622.0557	732.7825	780.5993	848.1951	903.7925	926.5847	971.5471	986.0155	1008.8572	1018.0213	1042.141	1084.6152	1102.921	1117.9865	1147.2839	1194.5769	1242.7262	1246.1236	1281.6217	1300.347	1331.644	1349.0654	1359.6509	1377.5229	1398.696	1409.8649	1415.3923	1427.3994	1476.2925	1490.0955	1493.6706	1498.8192	1714.3412	2964.4905	2973.7614	2985.7855	3027.6018	3039.1238	3067.8858	3072.6615	3076.8071	3091.4379	3137.8841	3164.2868	3817.3065
OC1CCCOCC=C1	O[C@H]1CCCOCC=C1	
InChI=1S/C7H12O2/c8-7-3-1-5-9-6-2-4-7/h1,3,7-8H,2,4-6H2/b3-1-	InChI=1S/C7H12O2/c8-7-3-1-5-9-6-2-4-7/h1,3,7-8H,2,4-6H2/b3-1-/t7-/m1/s1
