16
gdb 33064	4.55622	0.82796	0.73404	2.7327	68.92	-0.2203	0.0148	0.2351	1486.098	0.123928	-475.03491	-475.026383	-475.025438	-475.069034	30.734	
O	 0.1600345796	 1.3718649817	-0.0886023758	-0.410539
C	 0.0997445431	-0.0406190169	-0.0580478557	-0.064219
C	-1.3437909625	-0.5497384595	 0.1342701768	-0.332623
C	-1.4368549218	-2.0276895082	 0.1787133114	 0.321123
C	-1.7597781307	-2.9158966778	 1.1150028295	-0.158303
O	-1.6518635533	-4.1951528925	 0.5940268919	-0.217293
C	-1.2418359523	-4.0565830859	-0.7100967755	 0.497488
N	-1.0141487633	-4.9538062011	-1.5581980396	-0.57922
O	-1.1065482148	-2.7252407205	-0.9781443099	-0.231568
H	-0.2131427919	 1.6700993845	-0.9241048209	 0.287208
H	 0.5344681152	-0.491678965	-0.9605730056	 0.117248
H	 0.7113774848	-0.3550738467	 0.7934085044	 0.122039
H	-1.7490412745	-0.1374304129	 1.0628442947	 0.130059
H	-1.9660490036	-0.1726312978	-0.6887495286	 0.119699
H	-2.0759847787	-2.8253921629	 2.1387549532	 0.161946
H	-1.1748133752	-5.8740627086	-1.1577212004	 0.236953
68.651	88.6941	96.4633	198.6907	292.4899	299.672	349.6267	373.3729	497.9508	610.799	699.8372	728.5054	751.1671	776.666	782.7803	786.6291	909.8301	994.9324	1002.5517	1012.4898	1048.0127	1079.6103	1102.023	1158.4404	1208.8235	1253.81	1293.5688	1327.1627	1361.4391	1402.5017	1412.3282	1468.6051	1511.2506	1740.4527	1814.2257	3014.8031	3020.6815	3081.4814	3103.115	3305.0344	3549.1386	3819.8363
OCCC1=COC(=N)O1	OCCC1=CO[C@@H]([NH])O1	
InChI=1S/C5H7NO3/c6-5-8-3-4(9-5)1-2-7/h3,6-7H,1-2H2	InChI=1S/C5H8NO3/c6-5-8-3-4(9-5)1-2-7/h3,5-7H,1-2H2/t5-/m1/s1
