15
gdb 49538	2.87262	1.22745	0.95078	4.6633	71.48	-0.251	-0.0404	0.2106	1181.7091	0.113008	-416.747141	-416.739514	-416.73857	-416.779937	27.969	
O	-0.0764050765	-0.0499896402	-0.397641152	-0.251254
C	-0.0572575626	 1.1166042649	-0.0915711344	 0.131258
C	 1.2229704184	 1.9103665044	-0.0471016959	-0.072513
C	 1.2239178787	 3.3660826877	-0.6141198325	-0.046196
N	 0.3405141175	 3.7505818155	 0.5529090443	-0.324449
C	 1.4498435526	 2.9033737008	 1.1375319505	-0.046218
C	 2.4929613374	 3.6708256858	 0.2541857763	-0.148324
C	 3.7807775756	 3.0765758847	-0.0689148652	 0.270879
N	 4.8070160246	 2.6094840061	-0.3246845573	-0.324177
H	-0.9774528436	 1.6695585324	 0.1736059432	 0.112019
H	 2.0702372543	 1.2822696076	-0.3222749181	 0.123356
H	 1.0257719213	 3.6913812898	-1.6351354979	 0.116075
H	 0.4857685097	 4.7354644219	 0.794394567	 0.220731
H	 1.5206145488	 2.6778867099	 2.2013397094	 0.116078
H	 2.6103327438	 4.7258303386	 0.5177590827	 0.122735
80.2016	112.9011	167.6668	248.9286	272.4028	407.0297	484.6267	527.5812	535.4392	618.8635	768.82	786.3792	886.2693	897.3836	899.7196	963.0621	1025.7221	1028.78	1061.519	1110.6536	1110.9525	1144.5662	1156.2454	1177.7027	1195.702	1236.3897	1274.7262	1293.0596	1339.7764	1376.6318	1422.9508	1818.4844	2352.7111	2966.2478	3076.3582	3124.8277	3125.5405	3133.1184	3394.8747
O=CC1C2NC1C2C#N	O=C[C@H]1[C@H]2N[C@@H]1[C@H]2C#N	
InChI=1S/C6H6N2O/c7-1-3-5-4(2-9)6(3)8-5/h2-6,8H	InChI=1S/C6H6N2O/c7-1-3-5-4(2-9)6(3)8-5/h2-6,8H/t3-,4-,5-,6+
