21
gdb 97823	5.45563	0.63355	0.60138	0.1029	94.18	-0.2377	0.0262	0.2639	1929.6234	0.182697	-349.948869	-349.939274	-349.93833	-349.985724	34.696	
C	-0.7035204419	 1.6035934594	-0.30798962	-0.362348
C	 0.0816469952	 0.3561829795	 0.1371260766	-0.314109
C	 0.8648948412	-0.2426732025	-0.9393983856	 0.09428
C	 1.5017974643	-0.7163338581	-1.8466736638	 0.032658
C	 2.2801337061	-1.3068460072	-2.926339168	-0.154726
C	 3.8236018261	-1.3217423709	-2.6871315667	-0.254806
C	 4.2635255257	-2.5685755532	-3.4151612236	-0.064497
C	 3.2373464533	-3.3599891523	-3.7220143624	-0.064488
C	 1.9194235948	-2.7902914637	-3.2565325461	-0.2548
H	-0.0253626552	 2.3772214997	-0.6784293213	 0.126268
H	-1.4020391489	 1.3559965271	-1.1119753397	 0.126273
H	-1.2737132554	 2.0166077867	 0.5297259588	 0.111507
H	 0.7468496024	 0.6219334713	 0.9691468898	 0.125215
H	-0.616471296	-0.3893956223	 0.539773	 0.125236
H	 2.1067884673	-0.7271015752	-3.8418821981	 0.102397
H	 4.2998358931	-0.4062815734	-3.0536207038	 0.106718
H	 4.0549737935	-1.3880178265	-1.6156775442	 0.114931
H	 5.3066710038	-2.789348139	-3.6134094644	 0.091307
H	 3.3143374528	-4.3258845838	-4.2091630821	 0.091311
H	 1.5562716642	-3.3150753725	-2.3628541829	 0.114945
H	 1.1218554637	-2.8572159329	-4.0039183523	 0.106725
10.5621	65.3077	93.9028	126.8774	214.7144	220.5049	320.3561	396.3055	445.0353	491.6713	515.119	555.9516	715.0936	774.7992	776.6723	785.3842	864.7364	920.2915	952.3536	973.4304	976.9907	981.9319	1037.2043	1062.3216	1079.6218	1104.7683	1129.8716	1145.6765	1178.0366	1197.0305	1286.0902	1288.1435	1299.1155	1308.6064	1347.8865	1363.485	1364.3465	1407.8128	1476.4026	1485.9634	1493.2355	1494.3941	1505.8271	1687.3173	2362.0916	3012.7917	3015.2479	3020.7243	3023.7143	3041.0941	3042.2377	3065.1383	3069.4098	3114.9114	3121.7176	3179.4533	3204.8567
CCC#CC1CC=CC1	CCC#C[C@H]1CC=CC1	
InChI=1S/C9H12/c1-2-3-6-9-7-4-5-8-9/h4-5,9H,2,7-8H2,1H3	InChI=1S/C9H12/c1-2-3-6-9-7-4-5-8-9/h4-5,9H,2,7-8H2,1H3
