21
gdb 103331	3.40732	1.1515	1.01441	1.5885	79.	-0.2378	0.0688	0.3067	1260.7865	0.180699	-424.15064	-424.14128	-424.140336	-424.184306	35.93	
C	-0.1453796609	 1.5435451138	 0.7001858494	-0.433614
C	-0.1046254669	 0.0445831313	 0.4649715153	 0.028885
C	 1.0544969886	-0.5502638847	-0.3873733851	-0.016658
O	 1.990106973	-0.2033261339	 0.7074757137	-0.31426
C	 0.8143319522	-0.8322472578	 1.3618009066	-0.023583
C	 0.8469535454	-1.9598887465	 0.273289816	 0.330207
C	-0.3832660094	-2.806329453	-0.0463570427	-0.493894
C	 2.0902612259	-2.8563001227	 0.3122056261	-0.140837
O	 2.3517787217	-3.4637968432	-0.9512728985	-0.421805
H	 0.8549223908	 1.9329429064	 0.8965720853	 0.13826
H	-0.5581133755	 2.060463276	-0.1731226187	 0.113978
H	-0.7885268317	 1.7829760255	 1.5541341223	 0.114582
H	-1.0994841314	-0.3569542084	 0.268522287	 0.072093
H	 1.3621673753	-0.293518673	-1.4041332819	 0.082428
H	 0.8407384328	-0.9212750263	 2.4500825393	 0.087616
H	-1.2791478523	-2.2325620197	-0.2857119802	 0.115765
H	-0.1519315576	-3.4489946646	-0.9001901759	 0.14176
H	-0.6212659035	-3.4602146623	 0.8006892441	 0.118812
H	 2.9544009059	-2.2907029407	 0.6691784877	 0.114781
H	 1.9110453371	-3.6876425801	 1.0037856211	 0.101492
H	 2.7170710806	-2.785046116	-1.5271325409	 0.28399
87.2684	148.2011	164.7178	218.097	237.0294	257.2204	295.6154	310.4324	382.1858	390.2739	450.5097	567.037	633.719	722.4008	764.7722	772.2315	807.3435	864.3166	881.5244	936.1932	954.2318	1024.5625	1044.8218	1056.8256	1091.9793	1111.8371	1114.5807	1122.1315	1147.0211	1169.1006	1206.9056	1217.8349	1247.6263	1275.1812	1323.34	1383.3243	1396.1766	1406.4747	1411.0846	1420.8951	1489.1718	1492.8844	1505.2408	1507.0367	1510.9902	3035.8685	3037.884	3043.4021	3083.2309	3091.014	3092.7526	3099.8898	3101.0787	3108.1077	3137.0682	3142.5723	3822.4478
CC1C2OC1C2(C)CO	C[C@H]1[C@H]2O[C@@H]1[C@]2(C)CO	
InChI=1S/C7H12O2/c1-4-5-7(2,3-8)6(4)9-5/h4-6,8H,3H2,1-2H3	InChI=1S/C7H12O2/c1-4-5-7(2,3-8)6(4)9-5/h4-6,8H,3H2,1-2H3/t4-,5+,6-,7+
