19
gdb 116752	5.61619	0.64295	0.58318	1.563	79.14	-0.2496	0.0135	0.2631	1922.475	0.157313	-456.389187	-456.378599	-456.377655	-456.426221	35.901	
C	 0.4987052556	 0.8972909391	 0.5374795541	-0.399263
C	-0.2846225408	 0.1655117269	-0.5560186118	-0.11325
N	 0.4242811244	-0.7587877424	-1.4289322275	-0.226574
C	 1.6540594641	-0.9453850697	-1.2773430574	 0.115285
O	 2.2794074605	-1.8278339272	-2.1257128855	-0.251762
C	 3.6342277436	-2.0189123738	-1.9427303568	 0.530856
O	 4.300844338	-1.470057589	-1.0968244976	-0.39909
N	 4.0669227689	-2.9115568925	-2.8618813872	-0.358336
C	 5.4490627506	-3.334834056	-2.9437952506	-0.332533
H	 0.954606741	 0.2004830401	 1.2486585066	 0.125546
H	 1.2931834291	 1.5245802121	 0.1197683496	 0.125545
H	-0.1785271401	 1.5484687067	 1.0982136732	 0.115659
H	-1.106078245	-0.4026474759	-0.1000243066	 0.11609
H	-0.7740040514	 0.899722024	-1.2094182638	 0.116074
H	 2.3352876761	-0.5032159256	-0.5523373872	 0.136598
H	 3.3820234455	-3.2796636069	-3.5010223331	 0.262468
H	 6.0014799584	-2.8115243525	-2.1628694688	 0.172748
H	 5.5448536774	-4.414379281	-2.7841185537	 0.13197
H	 5.8852940541	-3.0835424062	-3.9167539461	 0.131968
45.4541	65.9596	77.4482	102.3457	144.6295	185.489	219.5272	253.0096	333.8738	336.3254	389.9478	467.3627	496.1023	614.4819	732.8105	770.385	779.2801	885.3877	965.397	997.1692	1068.7648	1090.5494	1118.3393	1148.1888	1159.1402	1176.1131	1212.8897	1242.7353	1313.2235	1368.9334	1383.2969	1410.5173	1448.6537	1480.7836	1495.8293	1497.3206	1498.3916	1505.1549	1566.5599	1780.54	1836.5832	3019.9988	3030.9855	3034.7453	3040.2652	3083.3858	3104.3011	3108.797	3153.1073	3156.6009	3655.1387
CCN=COC(=O)NC	CCN=COC(=O)NC	
InChI=1S/C5H10N2O2/c1-3-7-4-9-5(8)6-2/h4H,3H2,1-2H3,(H,6,8)	InChI=1S/C5H10N2O2/c1-3-7-4-9-5(8)6-2/h4H,3H2,1-2H3,(H,6,8)
