21
gdb 103611	2.23709	1.29587	1.10839	1.1331	79.46	-0.2441	-0.0255	0.2186	1260.002	0.179096	-424.244441	-424.234092	-424.233148	-424.279865	37.373	
C	-1.1657899545	 2.2721213647	 1.610787647	-0.393153
C	-0.4264535655	 1.1336037972	 0.8996956047	-0.208153
C	 0.2227365005	 0.1314964144	 1.8603833006	 0.292124
C	 1.3519019414	 0.7122081408	 2.7058170265	-0.436782
O	-0.7758369288	-0.5425848167	 2.6918813004	-0.350543
C	-0.4797750874	-1.8642219183	 2.1780199479	 0.03622
C	-1.6729265263	-2.5801578856	 1.5690071378	-0.408257
C	 0.5474159227	-1.2337847068	 1.2283675503	 0.290253
O	 1.2635004877	-1.6229502312	 0.3553905859	-0.29635
H	-0.4834821726	 2.9152550435	 2.1744549202	 0.118845
H	-1.68739014	 2.9017319628	 0.88404235	 0.116099
H	-1.9062865707	 1.8683705132	 2.3068567463	 0.13824
H	-1.1310992893	 0.5915172485	 0.2587172896	 0.101743
H	 0.3549862445	 1.5281238874	 0.2394456465	 0.111415
H	 0.9735922192	 1.505939047	 3.3556847074	 0.134363
H	 1.7989273478	-0.0576985219	 3.3407551485	 0.123376
H	 2.1343172687	 1.1276756904	 2.0634491966	 0.131154
H	-0.0082904569	-2.4909033454	 2.9495366358	 0.103253
H	-2.1319377975	-1.9806364622	 0.7781871358	 0.127374
H	-1.3540668425	-3.5366668513	 1.1433116757	 0.134731
H	-2.4272121306	-2.7763601205	 2.3366282867	 0.134047
58.4451	84.252	133.7391	193.8155	194.595	202.967	222.1968	270.9117	299.8074	325.8945	370.1469	449.3345	554.7542	621.5929	713.0339	742.0589	784.8454	837.8162	876.2469	917.9606	974.8687	999.3921	1017.2512	1042.4635	1077.2518	1081.659	1122.7256	1177.1423	1208.5449	1235.3643	1273.0719	1311.45	1351.2131	1373.5743	1398.5666	1403.9988	1409.3775	1471.4055	1481.4527	1487.6732	1492.8587	1493.5898	1506.7684	1508.6552	1912.9205	2996.9178	3033.5117	3041.8859	3042.8908	3045.7775	3070.0531	3110.7755	3117.7827	3118.1075	3121.8889	3122.5363	3124.2552
CCC1(C)OC(C)C1=O	CC[C@@]1(C)O[C@@H](C)C1=O	
InChI=1S/C7H12O2/c1-4-7(3)6(8)5(2)9-7/h5H,4H2,1-3H3	InChI=1S/C7H12O2/c1-4-7(3)6(8)5(2)9-7/h5H,4H2,1-3H3/t5-,7+/m0/s1
