20
gdb 63683	3.97315	0.76123	0.74145	5.0874	77.56	-0.2576	0.0145	0.2721	1603.2696	0.16873	-440.288511	-440.278445	-440.277501	-440.324353	35.848	
C	 0.2534609828	 1.3963789516	-0.2835248651	-0.440495
C	 0.0608237261	-0.0339465261	 0.1830639568	 0.319304
C	-0.9849995049	-0.8022572932	-0.6031891476	-0.457691
N	 1.2961546718	-0.7441924418	 0.5682350544	-0.367899
C	 0.2846500332	-0.4472852073	 1.6002707436	-0.055217
C	 0.7287738165	 0.4714840095	 2.7087527178	-0.111272
O	 1.4631352113	-0.2656659375	 3.6991557721	-0.18235
C	 2.7977679994	-0.366300294	 3.5251067945	 0.175155
O	 3.4881517306	-1.0211427577	 4.2471899072	-0.27921
H	 1.0844485504	 1.8836081085	 0.2287177679	 0.12677
H	 0.4755598524	 1.412541003	-1.3563197961	 0.123943
H	-0.6547773866	 1.9875429483	-0.1226192134	 0.118784
H	-0.699334506	-0.8700255305	-1.6592977317	 0.12605
H	-1.1096469558	-1.8189775345	-0.2174545838	 0.117096
H	-1.9589717393	-0.3030100534	-0.5569798804	 0.12726
H	 1.2514369792	-1.7233304558	 0.2968403362	 0.233159
H	-0.323522559	-1.2779840644	 1.9555450504	 0.094884
H	 1.3433555073	 1.2886328642	 2.3196704696	 0.116006
H	-0.1271281666	 0.8988538105	 3.2378759991	 0.124776
H	 3.1651595374	 0.2221671708	 2.6647302887	 0.090946
45.4488	61.9599	132.7594	169.0573	187.2063	214.6092	243.4774	299.1337	362.9045	374.3558	421.546	455.442	510.3212	664.0525	707.1136	840.5751	872.2684	957.3256	975.8919	987.1388	999.8076	1027.4231	1045.6723	1067.323	1082.0352	1130.6881	1148.3341	1155.9438	1243.5109	1301.6229	1320.9773	1349.5479	1388.1681	1412.5985	1424.0856	1430.4597	1463.3719	1477.9851	1489.9394	1493.3775	1499.6844	1514.4088	1863.1361	2978.1979	3025.8997	3035.988	3058.3045	3090.0866	3095.1194	3102.6036	3106.4313	3124.3149	3135.7358	3498.7074
CC1(C)NC1COC=O	CC1(C)N[C@H]1COC=O	
InChI=1S/C6H11NO2/c1-6(2)5(7-6)3-9-4-8/h4-5,7H,3H2,1-2H3	InChI=1S/C6H11NO2/c1-6(2)5(7-6)3-9-4-8/h4-5,7H,3H2,1-2H3/t5-/m0/s1
