15
gdb 34470	3.73161	1.52881	1.28756	5.5289	69.44	-0.2396	0.0076	0.2472	955.4407	0.114658	-416.755787	-416.74916	-416.748216	-416.786757	26.343	
N	 0.0770445696	-1.0515998427	 0.0281095118	-0.337521
C	 0.0198999878	 0.1030268588	 0.0082817089	 0.221098
C	-0.0135559061	 1.5377312502	-0.0248505452	 0.36672
O	-1.0791242673	 2.127439406	 0.6750853984	-0.306713
C	-1.3628622608	 3.3801168546	 0.0269846148	-0.059219
C	-0.0878967174	 3.6810046136	-0.7461763977	-0.088461
N	 1.0376824177	 3.6935751159	 0.2736622939	-0.327614
C	 1.3198482231	 2.2967877168	-0.1050502677	-0.095961
C	 0.3650550964	 2.289995185	-1.2774831537	-0.178498
H	-2.2348949796	 3.2797004827	-0.6349664584	 0.105213
H	-1.5650359785	 4.1217343592	 0.8028719221	 0.131497
H	-0.123098585	 4.5305166505	-1.425891865	 0.096973
H	 1.7914305408	 4.2702449982	-0.0940787864	 0.23096
H	 2.2775529921	 1.8162411747	 0.0555880722	 0.121122
H	 0.3878609871	 1.8922487567	-2.283507778	 0.120402
142.6323	164.2749	273.414	404.7896	462.2121	498.0174	533.5564	584.3947	688.4152	728.0177	795.7608	822.4106	853.1435	879.8945	900.0175	955.0343	974.5163	1013.7571	1035.1426	1036.3801	1065.7264	1095.3922	1144.1978	1162.6921	1211.2186	1221.6705	1256.1155	1288.4263	1359.2644	1384.4053	1399.6535	1497.9428	2359.6183	3007.6412	3112.5491	3137.7402	3189.1621	3202.2414	3487.4488
N#CC12OCC3NC1C23	N#C[C@@]12OC[C@H]3N[C@@H]1[C@@H]23	
InChI=1S/C6H6N2O/c7-2-6-4-3(1-9-6)8-5(4)6/h3-5,8H,1H2	InChI=1S/C6H6N2O/c7-2-6-4-3(1-9-6)8-5(4)6/h3-5,8H,1H2/t3-,4+,5-,6+/m1/s1
