15
gdb 45967	2.86771	1.49631	1.18061	0.6877	65.69	-0.2625	-0.0528	0.2096	1023.2231	0.112494	-457.78569	-457.77822	-457.777276	-457.818371	27.846	
O	 0.022234878	 0.2457273907	-0.8621553209	-0.302563
C	-0.0054922037	 1.2419449297	-0.1800970534	 0.400377
C	-1.3180504832	 1.8327220681	 0.3346652573	-0.324136
C	-1.2114726973	 3.0921060902	 1.2221705511	-0.337238
C	-0.1368856107	 4.0356070917	 0.7112199213	 0.390263
O	-0.3156106608	 5.1912648031	 0.4105738614	-0.302598
C	 1.2191724003	 3.3941253298	 0.5809280401	-0.063774
O	 1.4741063023	 2.3332901745	 1.4996264141	-0.226144
C	 1.2753771846	 1.9732238912	 0.1347291787	-0.072678
H	-1.8978219318	 2.0637117187	-0.5676734953	 0.155142
H	-1.8672556688	 1.0354584786	 0.8441672901	 0.148807
H	-2.160790902	 3.6292751824	 1.2550040789	 0.131749
H	-0.9385474166	 2.8012786714	 2.2418920388	 0.147009
H	 2.0536010494	 4.054910034	 0.3575887868	 0.126931
H	 2.1555832102	 1.6050534059	-0.3882024689	 0.128853
46.2033	131.3026	204.2604	294.6529	399.0113	431.2519	478.6927	483.0056	545.9114	596.7223	701.1741	727.7288	792.4389	873.4099	884.2407	940.0919	993.4361	1006.2687	1035.5312	1112.7613	1166.3163	1207.7597	1215.9115	1241.0077	1284.1556	1318.34	1330.7202	1354.0842	1402.696	1448.4296	1468.4254	1810.5496	1824.0797	3043.7333	3059.85	3093.717	3127.3635	3146.0841	3157.6729
O=C1CCC(=O)C2OC12	O=C1CCC(=O)[C@H]2O[C@@H]12	
InChI=1S/C6H6O3/c7-3-1-2-4(8)6-5(3)9-6/h5-6H,1-2H2	InChI=1S/C6H6O3/c7-3-1-2-4(8)6-5(3)9-6/h5-6H,1-2H2/t5-,6+
