16
gdb 48497	3.92689	1.53696	1.40826	3.2061	72.79	-0.2367	-0.0282	0.2085	929.9512	0.125053	-400.661326	-400.654743	-400.653799	-400.692404	26.115	
O	-0.8211764319	 1.2622047129	-0.1339927332	-0.278189
C	 0.3294704199	 0.9032475997	-0.0261837258	 0.025107
C	 1.4737483381	 1.8167638518	 0.0277358154	 0.284627
C	 1.4494308207	 3.1971125228	 0.7435222007	-0.111911
C	 1.7027485524	 3.1099437243	-0.7326890201	-0.151568
C	 3.1859354533	 2.8577276373	-0.3844063395	-0.011908
C	 2.950858371	 3.2476371328	 1.1164647225	-0.079707
C	 3.3496841504	 1.8024792948	 1.4675564552	-0.190805
N	 2.9052203971	 1.4090642549	 0.0770837751	-0.197977
H	 0.611054077	-0.1716012243	 0.0304917762	 0.081694
H	 0.5715248631	 3.5395542995	 1.2727255968	 0.118879
H	 1.1699295438	 3.4901809756	-1.5927797129	 0.118273
H	 4.0726205695	 3.0548281641	-0.982141509	 0.08923
H	 3.3430017729	 4.140208745	 1.6018505624	 0.082435
H	 4.431239922	 1.6638167024	 1.5539515602	 0.113043
H	 2.8353322307	 1.2863648663	 2.283499736	 0.108778
114.1627	164.8868	205.9934	391.4166	480.8871	579.4681	683.8406	721.0333	754.1951	784.3775	821.753	851.8137	860.4349	900.5056	908.6248	918.9896	934.4588	994.869	1003.0459	1014.8016	1053.7485	1061.9108	1103.9471	1150.6784	1156.1221	1179.2436	1194.9869	1221.2402	1254.3233	1269.7456	1289.0331	1376.2047	1420.8735	1497.9844	1796.1239	2890.2256	3052.0937	3112.9514	3127.7354	3147.1314	3216.7114	3229.2968
O=CC12C3C1C1C3CN21	O=C[C@]12[C@@H]3[C@H]1[C@H]1[C@@H]3CN21	
InChI=1S/C7H7NO/c9-2-7-4-3-1-8(7)6(3)5(4)7/h2-6H,1H2	InChI=1S/C7H7NO/c9-2-7-4-3-1-8(7)6(3)5(4)7/h2-6H,1H2/t3-,4+,5+,6-,7+/m1/s1
