15
gdb 19277	3.38358	1.86974	1.3778	4.3749	61.14	-0.2444	-0.0303	0.2141	882.8979	0.118807	-399.754974	-399.747641	-399.746697	-399.786815	27.093	
O	 0.0975998206	 1.3660070662	 0.1632753073	-0.42345
C	 0.0962316011	-0.0128250227	-0.1646178006	-0.086868
C	-1.3181262713	-0.5786129061	-0.0650025762	-0.125996
C	-1.6004189879	-2.0920663548	-0.1100142036	-0.079237
N	-0.8881431553	-2.6759786995	 1.032582661	-0.326138
C	-2.2578970098	-2.0775997539	 1.2420076262	-0.184843
C	-1.9728044425	-0.5930622173	 1.3462673081	 0.442951
O	-2.2067494358	 0.2691444212	 2.1446785738	-0.321775
H	-0.3216602469	 1.4589632913	 1.027331234	 0.296619
H	 0.4714928314	-0.08734119	-1.1911269213	 0.107089
H	 0.7691348065	-0.59268639	 0.4812878121	 0.112827
H	-1.9906831876	-0.0268462439	-0.7330601705	 0.113247
H	-1.8806833059	-2.6806819916	-0.9734944097	 0.112065
H	-1.0298302279	-3.6863216961	 1.0145788034	 0.243612
H	-3.0613777387	-2.6725871929	 1.656051466	 0.119895
105.5912	111.8549	181.7417	234.9915	379.9556	410.5697	465.5528	526.7943	626.934	722.7486	758.7365	826.2865	834.0005	891.9896	945.9979	987.5996	1025.1544	1049.8801	1070.3846	1097.1082	1106.0072	1126.4742	1163.3872	1203.9782	1286.6819	1304.7308	1319.4018	1356.4841	1382.8635	1434.655	1518.5485	1884.3408	3015.5736	3050.1305	3071.1238	3202.5301	3213.784	3468.5827	3787.222
OCC1C2NC2C1=O	OC[C@H]1[C@H]2N[C@H]2C1=O	
InChI=1S/C5H7NO2/c7-1-2-3-4(6-3)5(2)8/h2-4,6-7H,1H2	InChI=1S/C5H7NO2/c7-1-2-3-4(6-3)5(2)8/h2-4,6-7H,1H2/t2-,3+,4+/m0/s1
