18
gdb 80935	2.83664	1.44201	1.28806	3.3195	72.54	-0.2353	0.0674	0.3027	1047.9122	0.147309	-438.991693	-438.983504	-438.98256	-439.023826	32.49	
O	-0.0503473513	 1.455785476	-0.0761681187	-0.451105
C	 0.0151129756	 0.0534896752	-0.0002428826	 0.088026
C	-0.0343598067	-0.6557026066	 1.3955275914	-0.224113
C	-1.5022450475	-0.1395646219	 1.5402408506	-0.303668
C	-1.3725816823	-0.6489890397	 0.0558458051	 0.306741
O	-2.3267267949	-0.7178012591	-0.9307645331	-0.472667
C	-0.6224153587	-1.8531414161	 0.6308032447	 0.410864
C	-0.0754948326	-3.0992153998	 0.081465682	-0.361613
N	-1.1744008434	-3.1030783168	 1.0983381567	-0.399847
H	 0.8351306437	 1.8096236495	 0.049533637	 0.28735
H	 0.7332292213	-0.3634692095	-0.7172613451	 0.07022
H	 0.7422297134	-0.6718752069	 2.1574392366	 0.076976
H	-2.1600888813	-0.7230470039	 2.1856586989	 0.105141
H	-1.6191506122	 0.9347105318	 1.6745839446	 0.10648
H	-2.5647973008	 0.1823026623	-1.1801373284	 0.292065
H	-0.3772858714	-3.4498337959	-0.9014700914	 0.129788
H	 0.9156172371	-3.4190017182	 0.3947593473	 0.109951
H	-0.7947261979	-3.3440522806	 2.0114568845	 0.229414
167.1651	189.2604	209.8315	251.5141	274.4979	291.729	351.4874	401.0004	482.8805	512.6805	599.4982	666.9859	701.9083	758.3591	836.0825	893.1445	908.8102	934.779	944.3764	972.977	979.2396	1018.2749	1062.4723	1082.9546	1112.4947	1131.1726	1138.7819	1160.1879	1178.0989	1203.1711	1251.5227	1257.5696	1293.7537	1298.7839	1361.9161	1426.7022	1465.342	1502.7099	1552.3905	3030.3107	3087.5171	3104.2888	3140.4433	3164.9507	3190.175	3486.0474	3805.4683	3825.5445
OC1C2CC1(O)C21CN1	O[C@H]1[C@H]2C[C@]1(O)[C@]12CN1	
InChI=1S/C6H9NO2/c8-4-3-1-6(4,9)5(3)2-7-5/h3-4,7-9H,1-2H2	InChI=1S/C6H9NO2/c8-4-3-1-6(4,9)5(3)2-7-5/h3-4,7-9H,1-2H2/t3-,4+,5-,6-/m1/s1
