20
gdb 95436	2.48798	1.37371	0.93603	4.2658	85.59	-0.1987	-0.0215	0.1771	1271.4986	0.170955	-403.186486	-403.177141	-403.176197	-403.220802	34.575	
C	-0.552471582	 1.0694869005	-0.2541012549	-0.400475
C	-0.2067989493	-0.403759511	-0.0013140897	-0.106615
C	 0.5353203449	-1.024259644	-1.2259087221	-0.173807
N	 1.538118721	-1.9156248233	-0.6262777643	-0.291391
C	 1.715540888	-1.5519425426	 0.6789099413	-0.054386
C	 0.7648406417	-0.7046135486	 1.1438736214	 0.145845
C	 0.6999575573	-0.3411992656	 2.5597034942	 0.280194
C	-0.4981449917	 0.4606408123	 3.0525870335	-0.489467
O	 1.5772256463	-0.6692549351	 3.3474226394	-0.350393
H	 0.3580501488	 1.6707769316	-0.347932898	 0.116808
H	-1.1249447841	 1.1750126006	-1.1827988728	 0.112408
H	-1.1568908207	 1.4925724114	 0.5510963193	 0.121614
H	-1.1470739005	-0.952093198	 0.1585724039	 0.08404
H	-0.1310438939	-1.5742074996	-1.8960230834	 0.114361
H	 1.0242724333	-0.2304657781	-1.8098839678	 0.103476
H	 2.3283472361	-2.2149972869	-1.1762961421	 0.248524
H	 2.5208728905	-1.976089642	 1.2642281951	 0.146534
H	-1.4408876975	 0.0905929456	 2.6357452177	 0.121381
H	-0.5281016705	 0.4108557854	 4.1419658538	 0.133984
H	-0.399317518	 1.5110202376	 2.7558685457	 0.137365
67.9279	89.8184	165.8278	178.4386	197.7925	254.8123	317.146	369.0229	393.3411	471.6517	490.9073	541.1256	604.2873	629.1626	709.6877	820.3531	896.3639	943.2821	958.1953	965.8562	989.7685	1035.1024	1043.3274	1092.8191	1119.3145	1140.5232	1160.5146	1227.2947	1278.9307	1315.029	1327.355	1344.5028	1364.6294	1385.1731	1407.0384	1465.4528	1474.2772	1480.7192	1498.5808	1505.2012	1521.3206	1623.7046	1734.791	2981.644	2993.5706	3031.859	3034.3603	3080.6659	3094.957	3096.5495	3125.2115	3145.7043	3234.3114	3621.2199
CC1CNC=C1C(C)=O	C[C@H]1CNC=C1C(=O)C	
InChI=1S/C7H11NO/c1-5-3-8-4-7(5)6(2)9/h4-5,8H,3H2,1-2H3	InChI=1S/C7H11NO/c1-5-3-8-4-7(5)6(2)9/h4-5,8H,3H2,1-2H3/t5-/m0/s1
