20
gdb 81696	2.71157	1.60936	1.32996	2.2586	78.98	-0.2401	0.0344	0.2745	1047.7513	0.173254	-403.150792	-403.143089	-403.142145	-403.182565	30.811	
C	-0.2981353084	 1.3140030492	 0.1436727704	-0.423309
C	 0.1055988133	-0.1538247926	 0.0486668301	 0.002645
C	 0.8870380906	-0.5472538115	-1.2430729444	-0.035736
C	 2.2145467498	-0.3607542315	-0.458424673	-0.261021
C	 1.3935590233	-0.5075294159	 0.8450682879	 0.124021
O	 1.3947167537	-1.8296737076	 1.3786700224	-0.237413
C	 1.1108124993	-2.8997586712	 0.5877568875	 0.118639
N	 0.807508954	-3.0366647408	-0.6288802475	-0.263251
C	 0.653652761	-2.0048473692	-1.6364885113	-0.169676
H	 0.5433196477	 1.9826743508	-0.0696023742	 0.116423
H	-1.0919494224	 1.5458963219	-0.5739368648	 0.120725
H	-0.6700812994	 1.5565026218	 1.1449716679	 0.11996
H	-0.7505689027	-0.7932008951	 0.2867763194	 0.082787
H	 0.734890902	 0.0972986918	-2.1148543387	 0.063334
H	 3.0112724528	-1.0909189248	-0.6191518235	 0.111817
H	 2.6305724663	 0.644593074	-0.5562626088	 0.106437
H	 1.6537307071	 0.1300819935	 1.6924833226	 0.083255
H	 1.1807426686	-3.7900428344	 1.2133860465	 0.11839
H	-0.3622459913	-2.1092596462	-2.044119657	 0.110849
H	 1.3286841248	-2.2669560421	-2.4636419116	 0.111126
138.2605	221.2759	229.1146	238.3114	321.2042	341.6609	396.941	428.3591	509.5262	573.2953	762.3685	793.9877	815.0526	832.3977	878.7721	904.6862	930.3678	955.4722	967.9788	982.8971	1050.4927	1075.1124	1095.8044	1098.0556	1128.8304	1145.7272	1173.6809	1183.1778	1245.7876	1265.8124	1279.2744	1307.4331	1321.4858	1355.7862	1375.4304	1400.518	1412.4701	1440.9599	1470.2514	1478.7122	1498.3961	1499.1098	1755.1715	3000.6613	3025.186	3028.4469	3052.8794	3054.0112	3067.8783	3089.7421	3096.2163	3099.1826	3121.5169	3134.454
CC1C2CC1OC=NC2	C[C@H]1[C@H]2C[C@@H]1OC=NC2	
InChI=1S/C7H11NO/c1-5-6-2-7(5)9-4-8-3-6/h4-7H,2-3H2,1H3	InChI=1S/C7H11NO/c1-5-6-2-7(5)9-4-8-3-6/h4-7H,2-3H2,1H3/t5-,6-,7-/m0/s1
