21
gdb 104025	3.25755	1.15859	1.13386	1.1085	76.85	-0.2557	0.0699	0.3256	1184.1604	0.182628	-424.219848	-424.211097	-424.210152	-424.252843	34.331	
C	-0.26308526	 1.6221881538	 0.0286080379	-0.454896
C	-0.0380263808	 0.1006090981	-0.008296934	 0.295527
C	-1.3890343859	-0.6311877305	-0.0787125757	-0.113443
O	-2.1236565598	-0.3634618441	-1.2625573163	-0.424797
C	 0.8742084394	-0.2927574228	-1.2154781604	-0.274158
C	 2.2655543844	-0.4422353121	-0.6407014831	 0.047088
O	 2.692484301	 0.678081482	 0.1521435402	-0.258527
C	 2.1910876599	-0.4873706989	 0.8236308817	 0.052492
C	 0.7465916781	-0.3678025714	 1.2595307949	-0.297296
H	 0.6908300999	 2.146554498	 0.1091926016	 0.146451
H	-0.7573553806	 1.9719073169	-0.8854192652	 0.101428
H	-0.8865482371	 1.9073004731	 0.8848302252	 0.103587
H	-1.21915227	-1.7139771783	-0.0805521002	 0.102078
H	-1.9822571332	-0.3952482646	 0.8201678009	 0.085144
H	-2.4308967936	 0.5470986577	-1.2229500238	 0.285543
H	 0.5604374075	-1.2495511848	-1.6492817796	 0.105634
H	 0.832989584	 0.4477717682	-2.0196532939	 0.109376
H	 3.054252878	-0.9305066075	-1.2083851247	 0.091625
H	 2.9160433709	-1.0132564909	 1.4406393971	 0.091703
H	 0.620618833	 0.3243126569	 2.0984956287	 0.108097
H	 0.3989015049	-1.3528347386	 1.5987825287	 0.097344
100.7582	129.108	204.5575	262.9942	289.1877	314.8993	331.2491	361.9446	392.7551	423.0538	477.8297	660.2029	670.3566	782.0111	813.1836	861.9993	882.2479	912.6558	934.576	948.3744	982.2791	989.2163	1001.6356	1035.2467	1079.8169	1106.4333	1130.2435	1169.0525	1176.0545	1209.8463	1238.783	1266.663	1305.426	1318.2732	1333.6179	1341.4682	1383.6095	1402.6638	1417.6049	1449.0619	1475.5868	1481.05	1497.1489	1499.6297	1518.9459	2969.8842	3018.7984	3022.3693	3042.4131	3059.1567	3074.0627	3080.3208	3088.9047	3133.0709	3135.4617	3148.3331	3828.2144
CC1(CO)CC2OC2C1	C[C@@]1(CO)C[C@H]2O[C@H]2C1	
InChI=1S/C7H12O2/c1-7(4-8)2-5-6(3-7)9-5/h5-6,8H,2-4H2,1H3	InChI=1S/C7H12O2/c1-7(4-8)2-5-6(3-7)9-5/h5-6,8H,2-4H2,1H3/t5-,6+,7-
