14
gdb 49971	3.04512	1.21711	0.99337	2.4416	65.84	-0.2643	-0.07	0.1943	1144.9018	0.097399	-473.823059	-473.814287	-473.813343	-473.857131	29.96	
O	 0.0373251399	 0.2609057106	-0.5674610105	-0.270756
C	 0.0233296083	 1.3908799134	-0.1646027875	 0.164933
N	 1.0969868638	 1.9702169478	 0.5357564799	-0.108534
C	 2.4572754268	 1.8424700538	 0.1474262011	-0.246665
C	 1.761194534	 3.2149983334	 0.1866567076	 0.083584
C	 1.5056420534	 3.8519726529	-1.1514901958	 0.092759
O	 0.9310592104	 3.2872943387	-2.0481751234	-0.252137
C	 2.09505032	 4.1216680213	 1.3332530855	 0.113328
O	 2.4280522788	 5.2706886675	 1.1982675736	-0.245349
H	-0.8535863065	 2.0578309464	-0.1965067215	 0.107541
H	 3.1753195179	 1.6036931615	 0.9277537343	 0.148087
H	 2.6674151455	 1.4506165961	-0.8448334871	 0.17021
H	 1.8900485508	 4.8838466303	-1.2429791887	 0.136309
H	 2.0138416869	 3.6313624263	 2.3269734126	 0.10669
76.5037	105.2888	122.5482	189.7146	207.4907	241.7358	299.6623	331.8442	398.6589	445.3295	593.8639	705.3354	748.5653	872.4359	920.4088	972.1837	1014.3316	1025.3413	1062.1609	1080.3076	1135.3149	1154.6528	1258.1516	1375.406	1404.6071	1413.9511	1426.5098	1498.1394	1806.3637	1820.7531	1829.7085	2911.987	2982.6191	3006.7584	3107.6886	3206.9156
O=CN1CC1(C=O)C=O	O=CN1CC1(C=O)C=O	
InChI=1S/C5H5NO3/c7-2-5(3-8)1-6(5)4-9/h2-4H,1H2	InChI=1S/C5H5NO3/c7-2-5(3-8)1-6(5)4-9/h2-4H,1H2
