21
gdb 96826	2.59055	1.19353	1.0166	2.597	82.48	-0.2302	0.0273	0.2575	1304.5781	0.179749	-420.403911	-420.393291	-420.392346	-420.439388	38.549	
C	-0.0100427031	 1.3514236412	 0.1083698369	-0.331929
N	-0.0408796768	-0.1014240397	 0.173776385	-0.340422
C	-1.1600092847	-0.6820514347	 0.0886398876	 0.371691
N	-2.4920662556	-0.3261411749	-0.0757359883	-0.380765
C	-2.8912055672	-1.6840510615	-0.5625651333	 0.291266
C	-4.0981541276	-2.2486096997	 0.1740784033	-0.435512
C	-3.035577132	-1.7658669417	-2.0782340149	-0.418561
C	-1.4742778988	-2.1628507578	-0.0472006181	-0.010854
O	-0.6512505976	-2.8744953656	-0.92905066	-0.430021
H	 0.9772316262	 1.6800430647	-0.2284134318	 0.12469
H	-0.7592554269	 1.7795694314	-0.5772638531	 0.091156
H	-0.1808687314	 1.7917081254	 1.0997664229	 0.125436
H	-2.8238006109	 0.5504097718	-0.4571642557	 0.236575
H	-5.0113621464	-1.7034835008	-0.0898041424	 0.113778
H	-4.2495897585	-3.3012249464	-0.0870467118	 0.124239
H	-3.9611185622	-2.1745271445	 1.2565601193	 0.121053
H	-2.1473292095	-1.3767732696	-2.5814003494	 0.121053
H	-3.1680840862	-2.8041792168	-2.3954553297	 0.132356
H	-3.9090520373	-1.1945472929	-2.4126145635	 0.107163
H	-1.5580721093	-2.6881596942	 0.9130291648	 0.090444
H	 0.1458370557	-2.3406453434	-1.0404234978	 0.297164
63.2344	81.281	146.41	184.9511	193.8276	218.0413	246.8207	251.7658	293.6427	323.2429	365.8391	407.7986	465.3037	532.0301	571.9361	644.5851	739.2515	796.7814	859.8245	910.8833	948.4613	977.299	1013.0626	1044.6156	1110.5531	1131.0822	1140.2784	1165.618	1194.0724	1237.7288	1250.4835	1282.751	1344.863	1368.9779	1391.6266	1404.1285	1421.4777	1438.7282	1475.9794	1482.0924	1486.2325	1497.9719	1501.7163	1504.6729	1812.3641	2967.7535	3020.9709	3030.6883	3037.3714	3039.9219	3092.6749	3097.0723	3106.4804	3114.324	3126.6124	3571.6128	3770.7145
CN=C1NC(C)(C)C1O	CN=C1NC(C)(C)[C@H]1O	
InChI=1S/C6H12N2O/c1-6(2)4(9)5(7-3)8-6/h4,9H,1-3H3,(H,7,8)	InChI=1S/C6H12N2O/c1-6(2)4(9)5(7-3)8-6/h4,9H,1-3H3,(H,7,8)/t4-/m0/s1
