19
gdb 31048	2.27212	1.41364	0.89463	1.4252	81.84	-0.181	0.0202	0.2013	1330.238	0.158382	-419.252456	-419.242487	-419.241543	-419.288038	34.671	
C	 0.0935969609	 1.4693501743	 0.0202821298	-0.32309
N	-0.3341704089	 0.1024273732	-0.2578322704	-0.390961
C	 0.4311535717	-0.6519947641	-1.139469262	 0.220047
C	 0.6442438497	-1.9978694061	-1.1831914903	 0.23076
C	 0.2465268478	-3.1609083989	-0.3538136441	-0.503469
O	 1.4046622148	-2.2396226214	-2.3178894299	-0.213282
C	 1.6139848632	-1.0271727598	-2.8697197688	 0.384017
C	 2.4263422737	-0.9566346826	-4.1123385535	-0.489261
N	 1.0633704969	-0.0483760373	-2.2199887195	-0.351889
H	 1.0659754816	 1.534691716	 0.5333335888	 0.104822
H	 0.1742664325	 2.0145110653	-0.9210903765	 0.157774
H	-0.663672704	 1.9547037055	 0.6415185117	 0.115134
H	-0.5714598195	-0.4110809441	 0.5792302408	 0.228753
H	-0.2155849243	-2.8165963936	 0.5764058393	 0.12253
H	-0.4794781747	-3.8115833995	-0.8583360039	 0.135373
H	 1.1100971791	-3.7805392036	-0.0846557058	 0.135788
H	 3.4375023325	-1.344142067	-3.9475448376	 0.141572
H	 1.9745139217	-1.5506104435	-4.9137716949	 0.142698
H	 2.4923976154	 0.082860337	-4.4341953532	 0.152683
57.2436	86.9194	104.8728	143.4609	177.4275	190.1748	241.6694	247.3992	329.6423	380.905	507.3798	588.6238	630.3872	659.0835	673.6161	737.2862	833.7752	943.3709	1019.621	1045.7042	1059.0765	1062.9946	1065.6752	1122.8743	1154.5149	1187.2163	1229.8525	1337.9091	1397.565	1410.9902	1432.1754	1462.3288	1466.8156	1473.0122	1475.687	1481.8967	1491.6401	1498.7368	1521.1099	1622.9345	1700.2424	2979.9802	3014.0695	3040.8881	3061.9636	3088.8905	3093.2138	3103.0385	3144.2683	3155.8303	3585.8221
CNC1=C(C)OC(C)=N1	CNc1c(C)oc(C)n1	
InChI=1S/C6H10N2O/c1-4-6(7-3)8-5(2)9-4/h7H,1-3H3	InChI=1S/C6H10N2O/c1-4-6(7-3)8-5(2)9-4/h7H,1-3H3
