17
gdb 46861	2.29445	1.79285	1.23384	5.0227	72.76	-0.2291	-0.0622	0.1669	1031.6272	0.136831	-421.8525	-421.844703	-421.843758	-421.885318	29.442	
O	 0.0788828083	-0.04226104	 0.0964586326	-0.288628
C	 0.0034187307	 1.159505293	 0.062139909	 0.297072
C	-1.2902259721	 1.9530336937	 0.039155184	-0.308696
C	-1.3787126944	 2.9237795591	 1.2384414958	-0.24364
C	-0.0820697481	 3.688080424	 1.5190306739	-0.039213
C	 0.988849413	 3.0550434998	 2.3437649243	-0.288606
C	 1.2281565241	 3.2708193683	 0.8496322778	-0.136538
C	 1.2583464531	 2.0646088565	-0.0140328468	 0.33085
O	 2.1544709239	 1.8053235845	-0.7828487956	-0.314259
H	-1.2908786828	 2.5393946626	-0.890285334	 0.131341
H	-2.1379121592	 1.2641167767	 0.0102851592	 0.127619
H	-2.1856592218	 3.6370284516	 1.047878105	 0.118969
H	-1.6696403108	 2.3619310742	 2.1326299042	 0.124454
H	-0.1957096314	 4.7609874396	 1.6345551006	 0.105486
H	 1.5768016112	 3.6655347329	 3.0188108154	 0.133067
H	 0.8332714637	 2.0352090623	 2.6834969329	 0.137133
H	 1.9481166426	 4.0333012313	 0.5738841416	 0.113589
55.0734	120.0251	174.0027	307.0546	326.3523	366.9686	440.997	453.2138	549.9507	642.3338	712.5576	758.0303	768.3545	831.3544	869.4355	910.5436	925.1209	954.6553	1010.8326	1045.4708	1078.8752	1114.4907	1121.5931	1128.7283	1196.2161	1219.5331	1227.5491	1275.5864	1326.1205	1351.0634	1372.1559	1394.445	1466.6443	1487.8288	1502.5158	1797.0679	1826.8599	3019.4317	3045.1455	3086.8355	3108.4849	3131.206	3160.4875	3178.0582	3222.722
O=C1CCC2CC2C1=O	O=C1CC[C@H]2C[C@H]2C1=O	
InChI=1S/C7H8O2/c8-6-2-1-4-3-5(4)7(6)9/h4-5H,1-3H2	InChI=1S/C7H8O2/c8-6-2-1-4-3-5(4)7(6)9/h4-5H,1-3H2/t4-,5+/m0/s1
