20
gdb 121272	3.87437	0.99608	0.87609	1.869	76.03	-0.2392	0.0769	0.3161	1378.2442	0.171533	-440.245539	-440.236798	-440.235854	-440.279645	32.069	
C	-0.0235617927	 1.3787316535	 0.6998592436	-0.222269
O	-0.1022678061	-0.0165366423	 0.859051656	-0.244339
C	 0.9671832588	-0.7004211813	 0.2391572952	-0.080197
C	 0.7791345928	-2.1843368873	 0.5186228229	 0.11309
O	 1.780984868	-2.8911172597	-0.2130747624	-0.279125
C	 2.1943161499	-4.048750145	 0.5068532424	-0.074269
C	 1.8670779678	-3.7703329961	 1.9583350666	-0.056976
N	 2.3764521375	-2.4563610181	 2.4020959686	-0.332487
C	 0.970339601	-2.5945180558	 1.9665468885	-0.063301
H	-0.0508710159	 1.670944677	-0.3620431602	 0.103816
H	-0.8863368241	 1.8171203139	 1.2079459867	 0.123094
H	 0.8973784538	 1.7899027915	 1.1427109927	 0.105551
H	 0.9726531039	-0.5247820924	-0.8483501203	 0.093161
H	 1.9380844502	-0.3790436827	 0.6437303601	 0.111067
H	-0.2314306228	-2.4844643891	 0.1967943797	 0.074562
H	 1.6498829122	-4.9454265274	 0.169495694	 0.090133
H	 3.2626603857	-4.1929353107	 0.3150943786	 0.113085
H	 1.7729727541	-4.5880549852	 2.664751329	 0.092939
H	 2.4051857967	-2.4370466021	 3.4187560965	 0.232387
H	 0.1617031992	-2.4673835807	 2.6759859117	 0.100078
65.0771	97.9054	117.8813	185.7105	235.0126	257.6219	359.2849	364.9621	417.7886	579.1331	661.1749	759.2789	802.2794	856.9084	878.7543	890.9508	954.2797	970.7812	1009.6557	1020.5921	1074.1979	1092.2876	1105.5767	1132.5964	1151.0931	1160.3383	1173.7797	1187.8952	1228.9986	1234.395	1239.686	1257.7565	1311.2651	1336.1025	1383.939	1397.0178	1416.7784	1433.132	1480.8467	1485.1155	1503.2764	1509.4155	1527.9487	2967.0476	2971.853	2979.3018	2981.5497	3013.427	3027.8384	3070.9834	3109.7669	3171.2216	3192.2278	3500.7345
COCC1OCC2NC12	COC[C@H]1OC[C@H]2N[C@@H]12	
InChI=1S/C6H11NO2/c1-8-3-5-6-4(7-6)2-9-5/h4-7H,2-3H2,1H3	InChI=1S/C6H11NO2/c1-8-3-5-6-4(7-6)2-9-5/h4-7H,2-3H2,1H3/t4-,5-,6-/m1/s1
