17
gdb 77733	2.31948	2.00932	1.61414	1.8819	66.33	-0.2265	0.0404	0.2669	905.33	0.136385	-458.885247	-458.877914	-458.87697	-458.916711	29.105	
O	 0.1988761012	 1.2246675351	 0.366235527	-0.427275
C	 0.0431242964	-0.1364479142	 0.1639857761	 0.026501
C	-1.3572837375	-0.6838470927	-0.0022589597	 0.280133
C	-2.5426173471	 0.2194818421	-0.2593510887	-0.330826
C	-2.3396883409	 0.6293290334	-1.7530202927	-0.093791
O	-0.9235172044	 0.450609762	-2.0449277175	-0.305668
C	-0.4604918131	-0.5550926983	-1.2059597647	 0.187036
C	-0.6423520321	-2.064280841	-1.3479534578	-0.152946
O	-1.3846807907	-2.1202258804	-0.0896516492	-0.319712
H	 0.1045004213	 1.6468124476	-0.4989099827	 0.300072
H	 0.77776213	-0.7504389566	 0.6817087753	 0.110025
H	-3.4850655765	-0.309932423	-0.1073636274	 0.129322
H	-2.5208598685	 1.0944409604	 0.3951115399	 0.132722
H	-2.9267095766	-0.0143922295	-2.4201814136	 0.11508
H	-2.5867648186	 1.6719799856	-1.9691162232	 0.118622
H	-1.2739911309	-2.3440827918	-2.1996230216	 0.115852
H	 0.253253088	-2.6952346685	-1.3251522595	 0.114853
131.4748	205.163	233.9739	280.4214	349.7405	400.421	423.65	551.9848	562.0498	638.9499	689.2347	766.154	791.9303	838.188	873.3648	919.1678	948.1406	966.1071	984.2363	1019.1875	1053.9678	1130.2253	1147.5624	1151.5211	1188.7233	1225.2778	1231.817	1241.5832	1308.1001	1315.9102	1339.0472	1353.7536	1384.301	1425.7058	1468.5048	1506.8262	1516.0938	3020.8508	3026.9148	3073.334	3075.6326	3101.1471	3126.7381	3132.0169	3746.8603
OC1C23CCOC12CO3	O[C@H]1[C@@]23CCO[C@@]12CO3	
InChI=1S/C6H8O3/c7-4-5-1-2-8-6(4,5)3-9-5/h4,7H,1-3H2	InChI=1S/C6H8O3/c7-4-5-1-2-8-6(4,5)3-9-5/h4,7H,1-3H2/t4-,5-,6-/m0/s1
