16
gdb 88899	6.68969	0.57247	0.55118	6.3547	84.59	-0.2796	-0.0403	0.2394	1927.5324	0.122508	-400.718622	-400.709304	-400.70836	-400.754153	32.314	
C	 0.204377426	 1.474724259	-0.2584719657	-0.421596
C	-0.0175150828	 0.0303305983	 0.1107668653	 0.075499
O	 1.1356155513	-0.8154964514	 0.2255217641	-0.246164
C	 0.3534803722	-0.5909398036	 1.3932170537	 0.066454
C	 1.0165009004	 0.1668509647	 2.5369324207	-0.409605
C	 1.8522178957	-0.6973852251	 3.3562902019	 0.090507
C	 2.5340991016	-1.4306477309	 4.0316997705	 0.054916
C	 3.3057469608	-2.2547794835	 4.799191989	 0.212337
N	 3.9606225264	-2.9552345797	 5.4550048099	-0.337077
H	 1.0337855721	 1.9221669008	 0.2927037503	 0.128313
H	 0.4324180424	 1.5540116946	-1.3261289072	 0.140212
H	-0.7014931541	 2.0595139531	-0.0662097714	 0.129417
H	-0.8452342838	-0.4430174715	-0.42149113	 0.09919
H	-0.21990171	-1.458577795	 1.7231703224	 0.108325
H	 1.6246502949	 0.9860640476	 2.1416757192	 0.156096
H	 0.2389988769	 0.6168102327	 3.1692372173	 0.153175
33.0018	63.5232	146.183	150.6545	185.0736	222.0739	330.0762	358.4377	417.3357	486.234	498.9144	577.2425	580.6676	735.2015	768.9754	827.856	895.4315	965.651	1000.7865	1085.2046	1094.5176	1165.7441	1176.3822	1181.2747	1232.9092	1298.7249	1318.6853	1396.8253	1416.4753	1442.35	1467.1822	1487.3494	1509.6591	2267.9676	2404.2195	3025.7435	3043.0044	3082.6317	3088.9815	3105.4379	3105.6086	3134.4857
CC1OC1CC#CC#N	C[C@H]1O[C@H]1CC#CC#N	
InChI=1S/C7H7NO/c1-6-7(9-6)4-2-3-5-8/h6-7H,4H2,1H3	InChI=1S/C7H7NO/c1-6-7(9-6)4-2-3-5-8/h6-7H,4H2,1H3/t6-,7+/m1/s1
