17
gdb 75051	2.81536	1.33024	0.95624	4.4935	75.56	-0.2364	-0.0759	0.1605	1213.8813	0.134463	-421.870938	-421.862277	-421.861333	-421.905198	31.532	
C	-0.0315000135	 1.5559694848	 0.0609747656	-0.47107
C	-0.0122906633	 0.0550637937	-0.0395882659	 0.297045
C	-0.0340401208	-0.5830264813	-1.2117165204	-0.15393
C	-0.0056221587	-2.0758233671	-1.3984201499	-0.377366
C	 0.2245969041	-2.8670732557	-0.1221321247	 0.308732
O	 0.6987603348	-3.9742453314	-0.1017650602	-0.279166
C	-0.2055550868	-2.1757821538	 1.1953627397	 0.307736
O	-0.6956792878	-2.8191922803	 2.0882007029	-0.278703
C	 0.0399737125	-0.6794451524	 1.2817388879	-0.41435
H	 0.8476977565	 1.9257082478	 0.6042041804	 0.129021
H	-0.0459617646	 2.0265006128	-0.9250245671	 0.127384
H	-0.9099029195	 1.9024405571	 0.6200924089	 0.131062
H	-0.0698230045	 0.0029392225	-2.1272568428	 0.092776
H	-0.9646490868	-2.4237342056	-1.816254346	 0.150295
H	 0.7515404776	-2.3832655877	-2.1297583189	 0.143237
H	 1.0339269485	-0.5428237065	 1.739612943	 0.148325
H	-0.6689700877	-0.261917627	 2.0067702176	 0.13897
43.4818	56.0498	185.9731	247.8898	276.7012	314.7905	339.2759	400.6301	444.3558	470.3495	577.9027	629.3842	644.805	754.4919	775.3962	901.6986	912.3055	971.6746	976.0169	1056.6526	1070.9426	1087.4785	1162.9582	1177.6707	1191.996	1229.2831	1309.5097	1343.245	1378.9032	1415.8142	1439.8646	1440.8228	1478.5118	1490.8117	1749.8953	1815.0891	1824.2505	2983.7881	2987.5873	3018.4685	3054.0936	3055.9321	3065.2861	3118.5942	3151.6866
CC1=CCC(=O)C(=O)C1	CC1=CCC(=O)C(=O)C1	
InChI=1S/C7H8O2/c1-5-2-3-6(8)7(9)4-5/h2H,3-4H2,1H3	InChI=1S/C7H8O2/c1-5-2-3-6(8)7(9)4-5/h2H,3-4H2,1H3
