15
gdb 77229	3.5568	1.09445	0.91353	3.3542	69.19	-0.2542	-0.0355	0.2187	1224.8221	0.109162	-457.701382	-457.692497	-457.691553	-457.735832	31.535	
O	 0.1688167131	 1.3876370472	 0.0733232413	-0.411952
C	-0.0003026511	 0.0165722371	 9.3692*^-6	 0.055022
C	-1.4395837358	-0.6047419702	 0.0471562805	 0.008984
O	-1.1834679763	-1.3799812361	-1.1294195551	-0.270125
C	 0.0674233258	-0.7042706895	-1.3925740843	-0.099693
C	 0.0016380813	 0.2141899816	-2.5184174967	 0.30448
C	-0.066115947	 1.0339900016	-3.3966497801	-0.419813
C	-1.7625713492	-1.4123695722	 1.2775154756	 0.130987
O	-1.7152577054	-2.6111269472	 1.3487479942	-0.232676
H	-0.1688698517	 1.7783765328	-0.7448161648	 0.29078
H	 0.6724310467	-0.4384833402	 0.7297221859	 0.124252
H	-2.2171119329	 0.1595831229	-0.1072317509	 0.099138
H	 0.8857753042	-1.4210833448	-1.5166404811	 0.123854
H	-0.115145125	 1.7226601797	-4.2047790693	 0.214978
H	-2.0256153768	-0.7763366127	 2.1554211653	 0.081784
46.2338	86.5968	128.7094	166.7622	243.4203	284.0546	331.5332	391.7601	408.7445	517.6525	610.5244	661.1659	680.8936	743.1042	763.4947	809.0995	872.5469	940.0902	989.2263	1036.7383	1054.4179	1113.3087	1164.2837	1189.0024	1218.7112	1262.7958	1317.2033	1352.7622	1361.4958	1416.3859	1443.962	1838.5886	2224.8473	2859.2	2993.872	3056.5882	3098.4952	3496.6986	3741.6042
OC1C(OC1C#C)C=O	O[C@H]1[C@@H](O[C@H]1C#C)C=O	
InChI=1S/C6H6O3/c1-2-4-6(8)5(3-7)9-4/h1,3-6,8H	InChI=1S/C6H6O3/c1-2-4-6(8)5(3-7)9-4/h1,3-6,8H/t4-,5-,6+/m0/s1
