16
gdb 47121	3.26548	1.16631	0.86846	3.571	81.31	-0.2399	-0.0276	0.2123	1263.2523	0.12475	-400.767371	-400.759044	-400.7581	-400.800831	30.924	
O	-0.0317031833	-0.0328703151	 0.3562127948	-0.378165
C	-0.0272784887	 1.1615645544	 0.1252045948	 0.398791
C	-1.3131172264	 1.9026475003	-0.2133874775	-0.428285
C	-1.1767423133	 3.3846012376	-0.4784999573	 0.136115
C	 0.0082004317	 4.0041708503	-0.4174530643	-0.143107
C	 1.2908309741	 3.3138008032	-0.0885693868	-0.203742
N	 1.1227774848	 1.8950810265	 0.1562859835	-0.318629
C	-2.3728418182	 4.0873832897	-0.7962599507	 0.222981
C	-3.4163545612	 4.6286359195	-1.0598368021	-0.401698
H	-1.7576291601	 1.3994048241	-1.0799466476	 0.152957
H	-2.0149892613	 1.7251833154	 0.6097508363	 0.15293
H	 0.0783266581	 5.0688149993	-0.6120283839	 0.107987
H	 2.0059922149	 3.4709694856	-0.9120380193	 0.127066
H	 1.7440502496	 3.7966493982	 0.7922746886	 0.127057
H	 1.9429533749	 1.3528769004	 0.3865400002	 0.248887
H	-4.3275893555	 5.1211272106	-1.2938994088	 0.198854
62.5786	108.3723	142.5927	173.0116	352.285	413.5496	430.0177	492.1363	505.1122	552.7492	564.0578	607.618	645.0663	661.5711	710.1993	842.7906	854.973	926.0453	973.829	989.806	1024.4376	1131.4209	1150.3189	1212.1315	1245.1836	1299.7024	1342.0161	1371.069	1401.0403	1452.0891	1487.4814	1524.2405	1718.8405	1793.0082	2222.2194	2971.4301	2980.3494	3045.4137	3072.4058	3193.673	3501.9714	3610.1507
O=C1CC(=CCN1)C#C	O=C1CC(=CCN1)C#C	
InChI=1S/C7H7NO/c1-2-6-3-4-8-7(9)5-6/h1,3H,4-5H2,(H,8,9)	InChI=1S/C7H7NO/c1-2-6-3-4-8-7(9)5-6/h1,3H,4-5H2,(H,8,9)
