13
gdb 20709	7.00144	1.36789	1.15251	3.9865	64.48	-0.2802	-0.0632	0.2169	975.6684	0.096256	-394.807036	-394.80002	-394.799076	-394.83869	24.409	
C	-0.0381815489	 1.4818237078	-0.0676022488	-0.49695
C	 0.0045806273	-0.0075450029	 0.0224848928	 0.308769
N	-0.039960227	-0.7881942595	-1.0431699964	-0.270876
N	 0.0215108809	-2.0373091123	-0.5374708143	 0.071111
C	-0.0026353119	-3.1519682268	-1.4034242958	 0.207494
O	 0.0481301942	-4.2877083099	-1.0379239085	-0.245817
N	 0.1037291474	-2.1118433376	 0.799231871	-0.186814
C	 0.0945699779	-0.8467241264	 1.1714562151	-0.094625
H	 0.8587720528	 1.9284152543	 0.3738963663	 0.144795
H	-0.1042646779	 1.7926785643	-1.1115805686	 0.153357
H	-0.9021153738	 1.8837829721	 0.4718488569	 0.1449
H	-0.0735164743	-2.8004916015	-2.4451647476	 0.126356
H	 0.1505605234	-0.5758092315	 2.2150137679	 0.1383
94.224	111.3038	206.2949	270.0476	304.901	347.5571	516.4068	674.1082	694.5716	700.4891	830.8097	897.915	978.9337	990.3235	1034.6819	1062.9916	1068.3971	1203.4897	1255.7019	1335.4602	1398.6182	1409.2157	1421.9772	1453.2723	1482.9463	1489.7396	1590.3527	1855.6619	3026.6239	3043.6512	3098.6185	3143.0244	3259.1311
CC1=NN(C=O)N=C1	Cc1nn(C=O)nc1	
InChI=1S/C4H5N3O/c1-4-2-5-7(3-8)6-4/h2-3H,1H3	InChI=1S/C4H5N3O/c1-4-2-5-7(3-8)6-4/h2-3H,1H3
