14
gdb 28852	3.21553	1.38714	1.04124	4.3438	76.59	-0.2366	-0.0785	0.1581	1083.4249	0.10177	-436.721523	-436.714193	-436.713248	-436.753393	27.932	
O	 0.0558056822	 1.2916259936	 0.4124519758	-0.418416
C	 0.0064818526	-0.0312971933	 0.103299482	 0.338378
C	-1.2059330759	-0.6501330059	 0.1394145722	-0.173534
C	-1.4815434117	-2.0114873064	-0.2036889843	-0.04488
C	-0.6082674641	-3.0396363167	-0.3297634256	-0.191131
C	 0.8183893022	-2.966017753	 0.0232484728	 0.334049
O	 1.3813485855	-3.8410179092	 0.6443597813	-0.323208
N	 1.5489506	-1.878836888	-0.482594319	-0.223666
C	 1.220351621	-0.6456858871	-0.4075815773	-0.081517
H	 0.966653331	 1.6030926062	 0.371310503	 0.308433
H	-2.0526206988	-0.0191757454	 0.3931048891	 0.119841
H	-2.5361188561	-2.2420948482	-0.3346361012	 0.114776
H	-0.9759271431	-4.0343536828	-0.5610398747	 0.128288
H	 1.9419001353	 0.0709292863	-0.8230523242	 0.112586
87.7679	188.0061	301.731	330.8996	341.5723	371.4985	419.4716	470.9141	532.0143	591.1531	682.329	697.8007	792.7263	804.7777	875.101	916.6551	926.382	959.1523	1010.5343	1057.7041	1184.0087	1229.9139	1233.9552	1287.4153	1403.2689	1435.1129	1461.0055	1579.9148	1655.009	1699.7711	1776.1634	3028.8771	3155.2204	3180.4	3189.4965	3814.3042
OC1=CC=CC(=O)N=C1	Oc1cccc(=O)nc1	
InChI=1S/C6H5NO2/c8-5-2-1-3-6(9)7-4-5/h1-4,8H	InChI=1S/C6H5NO2/c8-5-2-1-3-6(9)7-4-5/h1-4,8H
