18
gdb 41546	4.17832	1.61927	1.51938	1.2784	74.25	-0.2365	0.0731	0.3095	910.2903	0.150918	-401.861327	-401.855298	-401.854353	-401.891504	25.645	
C	 0.0671075803	 1.5387659521	-0.0529147848	-0.095001
O	 1.4697376947	 1.5259759027	 0.3064368042	-0.303978
C	 1.4646246676	 0.0795332227	 0.4454836233	 0.096207
C	-0.002961976	 0.0024578133	-0.0317404982	-0.048709
N	 0.0829919377	-0.6826635473	-1.3344767694	-0.136056
C	 1.3931192536	-0.2296578496	-1.9999517064	-0.0178
C	 1.5332306534	-1.6438736924	-2.5902854992	-0.239287
C	 1.1086420571	-1.8057636782	-1.1223823278	-0.031238
C	 2.1169561493	-0.6738685818	-0.69606011	-0.046897
H	-0.5377889308	 2.0329506848	 0.7166376337	 0.103322
H	-0.1187016792	 2.0173663509	-1.0215072006	 0.107176
H	 1.7560051175	-0.23680082	 1.4512286313	 0.073659
H	-0.7639859112	-0.4615536951	 0.5963695956	 0.08255
H	 1.4689292825	 0.7324640864	-2.5064629149	 0.09074
H	 0.7898939611	-1.9282182955	-3.335997365	 0.110194
H	 2.5406799349	-1.969696974	-2.8530804309	 0.098642
H	 0.8448028712	-2.7145713881	-0.577097012	 0.082417
H	 3.1937372763	-0.8517321708	-0.6904256988	 0.074058
180.1575	237.0574	347.5478	455.1398	495.9854	673.0485	713.5853	745.3374	796.8638	811.8618	862.9163	884.6547	900.6464	916.8902	928.77	951.2416	973.3479	1002.4054	1011.4757	1042.2153	1054.2512	1079.1397	1100.0226	1113.4347	1124.8962	1152.069	1171.2805	1175.8718	1211.1275	1221.6972	1228.4857	1246.6162	1280.7246	1310.44	1324.3038	1339.3468	1357.5933	1498.52	1517.1364	3021.012	3066.5598	3067.9099	3077.3446	3091.272	3103.9549	3109.608	3119.0431	3150.6766
C1OC2C1N1C3CC1C23	C1O[C@H]2[C@@H]1N1[C@@H]3C[C@H]1[C@H]23	
InChI=1S/C7H9NO/c1-3-6-4(1)8(3)5-2-9-7(5)6/h3-7H,1-2H2	InChI=1S/C7H9NO/c1-3-6-4(1)8(3)5-2-9-7(5)6/h3-7H,1-2H2/t3-,4+,5-,6-,7+/m1/s1
