16
gdb 113638	3.8124	0.87003	0.83045	4.0778	74.48	-0.258	-0.0685	0.1895	1397.6457	0.122223	-437.82165	-437.81231	-437.811366	-437.856952	33.073	
O	-0.3970130746	 1.5725963674	-0.9897524492	-0.421177
C	-0.0372716772	 0.5241198187	-0.1025768273	-0.084844
C	-1.2478567787	-0.3265395464	 0.2108683807	-0.025829
N	-1.6648627975	-1.2346169942	-0.853008549	-0.321139
C	-1.2030451906	-1.8190639903	 0.417055043	-0.163948
C	 0.0810967032	-2.5978678824	 0.3936554156	 0.278097
O	 0.9347465236	-2.480654092	-0.4584768856	-0.293829
C	 0.2414536781	-3.5117212645	 1.5142594642	 0.245882
C	 0.3595394159	-4.2700637545	 2.4418969327	-0.414225
H	-0.6468611629	 1.1505598487	-1.8195543491	 0.291905
H	 0.7614807121	-0.1012080338	-0.5144301665	 0.13201
H	 0.329445798	 1.0046935629	 0.8102934027	 0.109237
H	-2.0292942925	 0.1897422544	 0.7672034548	 0.102209
H	-2.6776631841	-1.302232805	-0.9066909238	 0.243729
H	-1.946876208	-2.2200236399	 1.1012102273	 0.103585
H	 0.4833938751	-4.9434015391	 3.2552957894	 0.218336
34.673	70.3462	122.2037	163.8436	207.9504	258.8299	285.0167	383.9418	424.6693	447.48	529.2759	601.2313	650.4265	705.6442	755.4008	796.9044	843.829	895.3235	936.9525	977.2336	1010.0467	1065.4854	1097.3973	1123.5112	1176.7568	1198.5012	1244.8978	1272.8992	1371.3965	1406.0979	1432.5842	1469.8362	1501.261	1765.2735	2210.1295	3047.9215	3095.2034	3121.3124	3142.651	3493.2392	3509.4274	3802.8299
OCC1NC1C(=O)C#C	OC[C@H]1N[C@H]1C(=O)C#C	
InChI=1S/C6H7NO2/c1-2-5(9)6-4(3-8)7-6/h1,4,6-8H,3H2	InChI=1S/C6H7NO2/c1-2-5(9)6-4(3-8)7-6/h1,4,6-8H,3H2/t4-,6-/m1/s1
