23
gdb 59302	2.37927	1.18365	1.06688	2.8312	85.56	-0.235	-0.0124	0.2226	1307.6289	0.203521	-388.309691	-388.299403	-388.298459	-388.344753	38.376	
C	 1.1460224347	-0.5504053799	-1.4071710686	-0.408778
C	 0.1751739192	 0.0120660955	-0.3542926268	 0.039463
C	 0.094630743	 1.5410981102	-0.4823506216	-0.392577
C	-1.239754579	-0.5996901229	-0.3798063634	-0.03088
C	-1.8477014238	-0.8795558139	-1.7961754595	-0.354141
C	-1.5526129559	-2.3696174523	-1.553729398	 0.389533
O	-1.3959024359	-3.3170978736	-2.2693507218	-0.307022
C	-1.3699978586	-2.1360152564	-0.0475906866	-0.092571
C	-0.3462029488	-2.9308335268	 0.7500987568	-0.426953
H	 2.1588659949	-0.1806813943	-1.2180809571	 0.114919
H	 1.1897676848	-1.6428077638	-1.4109360713	 0.129179
H	 0.8703065936	-0.2307979164	-2.4175315572	 0.119294
H	 0.5935872509	-0.2139981682	 0.6365424376	 0.078061
H	-0.355900166	 1.8319130652	-1.438733405	 0.115702
H	-0.5111760355	 1.9790506391	 0.3177237902	 0.110648
H	 1.0908324813	 1.9931040118	-0.4361944006	 0.111619
H	-1.8842872598	 0.0146890141	 0.2541900175	 0.069413
H	-2.9249150501	-0.6900316941	-1.838960089	 0.124149
H	-1.3824617917	-0.425800483	-2.6734597575	 0.125039
H	-2.3630044395	-2.2832418049	 0.4010407957	 0.103616
H	 0.6683099049	-2.8069299981	 0.3643117827	 0.129258
H	-0.345886294	-2.6321126153	 1.8033547595	 0.118712
H	-0.5878998686	-3.9971373318	 0.704096934	 0.134315
69.2066	90.1638	150.5992	170.5073	195.9771	218.8531	259.4793	282.45	297.6683	365.6383	421.9167	487.9756	519.6256	547.0993	699.0155	727.855	738.5754	871.9416	883.18	904.9935	931.2219	962.4083	975.0658	1010.5705	1043.4707	1066.0034	1115.5349	1133.0233	1139.1765	1174.7029	1185.8096	1219.911	1232.7298	1266.0303	1328.1113	1348.8085	1358.408	1382.7616	1401.1146	1405.6462	1425.2109	1445.569	1485.5677	1490.7361	1494.6767	1497.9495	1507.9415	1513.0601	1884.0494	3003.6883	3008.2928	3025.8436	3039.5866	3042.3006	3058.2885	3070.2514	3091.9089	3099.5532	3101.7974	3105.9333	3112.7639	3123.0627	3124.2989
CC(C)C1CC(=O)C1C	CC(C)[C@H]1CC(=O)[C@H]1C	
InChI=1S/C8H14O/c1-5(2)7-4-8(9)6(7)3/h5-7H,4H2,1-3H3	InChI=1S/C8H14O/c1-5(2)7-4-8(9)6(7)3/h5-7H,4H2,1-3H3/t6-,7+/m0/s1
