18
gdb 99382	4.30186	0.64524	0.59606	3.38	71.19	-0.2515	-0.0423	0.2092	1831.6639	0.144271	-476.245105	-476.23454	-476.233596	-476.28327	34.865	
C	-0.5160438659	 1.1029036904	-1.0530402508	-0.334649
N	 0.0114007537	-0.234867269	-1.2273849065	-0.296564
C	 1.1543563432	-0.6516131458	-0.6331878791	 0.366173
O	 1.8574152474	 0.024688967	 0.0961738156	-0.380193
C	 1.5442355157	-2.0999740173	-0.9317954982	-0.170425
O	 0.6257228196	-2.7125596361	-1.8222249862	-0.253975
C	 0.9092245025	-4.0640752687	-2.0987698397	-0.158544
C	 2.036150321	-4.2294889893	-3.1142382937	 0.130678
O	 2.616615008	-5.2633278461	-3.3070685632	-0.221364
H	-0.577286981	 1.6341844921	-2.0092618138	 0.127589
H	-1.5138598454	 1.0810141746	-0.6011261623	 0.127588
H	 0.1638524755	 1.6393521815	-0.3900069094	 0.171
H	-0.4715463361	-0.902662164	-1.8068820345	 0.261371
H	 2.5644804863	-2.0902799002	-1.3409155098	 0.131871
H	 1.5807510504	-2.6409900851	 0.0249625384	 0.1322
H	 1.1454937093	-4.6387759492	-1.1917443178	 0.130443
H	 0.0027443232	-4.497578702	-2.5401589848	 0.144431
H	 2.2533481425	-3.3024103128	-3.6940232543	 0.09237
24.1976	49.0988	77.7779	85.8406	141.7716	156.52	173.8389	287.3437	307.486	357.1149	448.5497	532.2013	561.0556	639.5174	686.3816	724.6942	877.6569	1009.7748	1025.0474	1035.5054	1100.6025	1125.3945	1154.5532	1156.5469	1181.0283	1247.1216	1266.9538	1278.574	1345.4907	1388.4493	1402.0261	1439.9887	1454.1565	1492.5691	1496.7033	1499.7394	1576.0535	1790.4194	1844.0036	2871.7201	2999.1534	3009.412	3029.276	3037.4109	3063.9743	3081.4513	3152.1795	3641.5265
CNC(=O)COCC=O	CNC(=O)COCC=O	
InChI=1S/C5H9NO3/c1-6-5(8)4-9-3-2-7/h2H,3-4H2,1H3,(H,6,8)	InChI=1S/C5H9NO3/c1-6-5(8)4-9-3-2-7/h2H,3-4H2,1H3,(H,6,8)
