23
gdb 59358	2.50856	1.20516	0.95682	0.3876	81.87	-0.2475	0.0521	0.2996	1356.0814	0.203508	-425.42084	-425.410304	-425.40936	-425.456555	38.964	
C	-0.2749787612	 1.371535571	 0.2463517631	-0.39431
C	-0.0073859484	-0.1209311034	 0.0122444444	 0.016284
C	 0.6325110785	-0.386793627	-1.3573016191	-0.400085
C	 0.8714018875	-0.6755222644	 1.1280256779	 0.11521
O	 0.2991027055	-0.4912031417	 2.4470129467	-0.319317
C	 0.4422458881	-1.8926096567	 2.7817145154	 0.117986
C	-0.8535815374	-2.5192397911	 3.2561216189	-0.402477
C	 0.9561687576	-2.2141752356	 1.349925675	 0.041758
O	 0.1865855515	-3.0635084737	 0.5355606492	-0.420437
H	 0.6551593912	 1.9484667244	 0.1805312599	 0.111218
H	-0.9662241134	 1.7658584891	-0.505397433	 0.107863
H	-0.7062076615	 1.5371496217	 1.2367218293	 0.134914
H	-0.9755001498	-0.6416966829	 0.0522983953	 0.049862
H	 1.6113321689	 0.1018795687	-1.4312697587	 0.112791
H	 0.771371517	-1.457901002	-1.5268128747	 0.132437
H	 0.0054845026	 0.0099306415	-2.1621116203	 0.112046
H	 1.8647010444	-0.2034931658	 1.0726058898	 0.066972
H	 1.2213600824	-2.0257155244	 3.5456221679	 0.073983
H	-1.6522395534	-2.4117427207	 2.5151708166	 0.102829
H	-0.7135012171	-3.584573456	 3.4641151353	 0.126824
H	-1.1880031483	-2.0273599503	 4.1744501592	 0.131148
H	 1.968096075	-2.621268147	 1.3146575772	 0.095307
H	-0.7220147097	-2.7458960636	 0.5245397144	 0.287196
35.2637	89.7038	158.6892	187.6511	233.1662	237.3262	253.4442	260.639	291.9541	316.1006	383.5831	389.7979	459.0633	535.2062	572.1039	781.7418	797.6889	847.0456	890.6437	901.5965	931.6028	964.9893	991.6717	1017.7822	1035.8161	1094.72	1125.3669	1138.2241	1163.8822	1176.0885	1203.4092	1249.1492	1270.9924	1277.333	1309.6337	1329.2483	1344.3763	1375.8821	1395.5627	1400.3197	1411.5344	1424.6669	1445.6647	1479.4123	1489.9535	1495.5449	1498.0425	1503.9444	1517.8497	2977.1791	2994.438	3000.2497	3028.7767	3032.8893	3036.9401	3092.3834	3097.2959	3099.127	3106.9985	3116.6942	3119.3015	3123.5075	3818.6476
CC(C)C1OC(C)C1O	CC(C)[C@H]1O[C@@H](C)[C@H]1O	
InChI=1S/C7H14O2/c1-4(2)7-6(8)5(3)9-7/h4-8H,1-3H3	InChI=1S/C7H14O2/c1-4(2)7-6(8)5(3)9-7/h4-8H,1-3H3/t5-,6+,7+/m0/s1
