21
gdb 62114	4.5399	0.6889	0.63085	4.1858	80.87	-0.2754	0.0102	0.2856	1768.644	0.180604	-424.239542	-424.229426	-424.228482	-424.276111	35.756	
C	-0.2234229786	 1.2765530509	-0.1962598072	-0.405492
C	 0.028010097	-0.2350430127	-0.1328956878	-0.003048
C	 0.7852562354	-0.7382582772	-1.3644788384	-0.081985
O	 0.0094690412	-0.5222549435	-2.5520784911	-0.181341
C	 0.5735477468	 0.1326914653	-3.5818038167	 0.171022
O	 0.0038697753	 0.3358401171	-4.6115328509	-0.276617
C	 0.7857168448	-0.6296462002	 1.1220434276	 0.033072
C	 0.0508335175	-0.8429896931	 2.4201974726	-0.275914
C	 0.6589173608	-2.0193603269	 1.697419249	-0.276619
H	 0.7228931511	 1.8311162231	-0.208199589	 0.109946
H	-0.7874900049	 1.5475067332	-1.0925793016	 0.133392
H	-0.7909228231	 1.6089179417	 0.6774208334	 0.123139
H	-0.9417168761	-0.7507778947	-0.1212268713	 0.087575
H	 1.7548114931	-0.2283795117	-1.4561416538	 0.104241
H	 0.9722743467	-1.813727075	-1.2857090963	 0.122527
H	 1.6109137427	 0.4578574541	-3.3662071928	 0.075122
H	 1.7681375423	-0.1690303653	 1.2096662681	 0.081025
H	 0.5153359962	-0.5043121354	 3.3394096601	 0.115122
H	-1.0303568524	-0.7483805293	 2.4091442268	 0.115343
H	-0.0178069737	-2.7114183087	 1.2060465144	 0.114847
H	 1.5396833581	-2.4884112716	 2.1215756849	 0.114643
34.2364	59.0795	88.3639	131.255	177.9727	220.4964	253.4155	274.1329	361.8327	370.7473	446.9295	489.7533	671.3899	769.9626	821.7671	829.6815	885.9094	923.928	935.2956	967.6853	1003.5367	1042.3568	1046.4642	1058.7188	1081.2447	1130.0071	1136.8719	1140.7203	1191.7374	1199.9659	1225.3589	1226.7472	1290.3422	1305.8108	1362.271	1392.0218	1411.2724	1420.8179	1435.4276	1470.4426	1494.464	1501.8168	1504.771	1507.7531	1865.2283	2939.0984	3006.7333	3020.6532	3032.1966	3081.225	3100.5517	3121.2815	3122.2021	3128.7603	3133.8393	3207.2614	3222.1872
CC(COC=O)C1CC1	C[C@@H](COC=O)C1CC1	
InChI=1S/C7H12O2/c1-6(4-9-5-8)7-2-3-7/h5-7H,2-4H2,1H3	InChI=1S/C7H12O2/c1-6(4-9-5-8)7-2-3-7/h5-7H,2-4H2,1H3/t6-/m0/s1
