17
gdb 9303	5.86629	0.89607	0.8386	5.0998	74.26	-0.2566	-0.0387	0.2179	1374.0942	0.141318	-360.058962	-360.049657	-360.048713	-360.0934	32.618	
C	-0.2454701496	 1.3947634129	 0.282011066	-0.378325
C	-0.2723799122	-0.1147092265	 0.0315793815	-0.165411
C	 0.7442676	-0.5519918369	-1.0377994935	-0.171811
N	 0.778670338	-1.9978258207	-1.1863121202	-0.257424
C	 0.0196840194	-2.5530842608	-2.0450840888	 0.262139
N	-0.8510391273	-1.9747872877	-2.953071517	-0.555993
C	 0.0847007565	-4.0014767062	-2.1595514747	 0.271479
N	 0.1032962143	-5.1516599597	-2.2712364601	-0.318916
H	 0.7429146563	 1.720731778	 0.6231933673	 0.123168
H	-0.4821523305	 1.9571419568	-0.6282876019	 0.112601
H	-0.9727048027	 1.6804385254	 1.0476414132	 0.120134
H	-0.0526103423	-0.6590823904	 0.9561383873	 0.122017
H	-1.2801748285	-0.4267625662	-0.2725804477	 0.08966
H	 0.5384463327	-0.0277210215	-1.9860343916	 0.087036
H	 1.7439442935	-0.2341735279	-0.7212611324	 0.115867
H	-1.1922079625	-1.0504452761	-2.7467896523	 0.270011
H	-1.518721545	-2.5810717125	-3.4017883151	 0.273768
61.2088	85.1913	93.3118	179.5934	229.8333	271.1492	304.1685	339.0314	372.9912	420.8212	478.736	557.2953	614.0009	719.7271	756.128	822.1788	889.7828	908.8012	1001.196	1044.5833	1108.4245	1136.61	1191.1331	1269.0272	1314.7319	1322.9987	1334.1255	1380.6457	1413.0241	1490.8487	1498.7198	1505.0364	1527.0045	1640.472	1720.8777	2358.4714	2962.4902	3023.1561	3031.7658	3054.3622	3073.2505	3100.5489	3108.3329	3601.4751	3714.1563
CCCN=C(N)C#N	CCCN=C(N)C#N	
InChI=1S/C5H9N3/c1-2-3-8-5(7)4-6/h2-3H2,1H3,(H2,7,8)	InChI=1S/C5H9N3/c1-2-3-8-5(7)4-6/h2-3H2,1H3,(H2,7,8)
