16
gdb 25594	4.25373	0.92116	0.80815	3.5683	72.27	-0.2316	0.0113	0.243	1374.8955	0.124947	-437.900713	-437.892558	-437.891614	-437.935057	29.016	
N	-0.3664746735	 0.9061808647	 0.8573148115	-0.440359
C	-0.5882042074	-0.0532788242	 0.0694291381	 0.132625
O	-0.3840353716	-1.3228300702	 0.4803387638	-0.175246
C	-0.8187818102	-2.3526889339	-0.404925436	-0.214641
C	-2.2679906387	-2.6801450902	-0.2147345015	 0.219254
C	-3.0845803294	-2.2275809754	 0.7749273608	-0.085072
O	-4.3347829845	-2.7441036163	 0.6364361879	-0.141123
C	-4.313164431	-3.5449169591	-0.458988899	 0.012551
C	-3.0793727218	-3.5479622463	-1.0247458868	-0.296264
H	-0.5391540235	 1.7907017401	 0.3843311656	 0.230259
H	-0.9314119278	 0.0181788551	-0.9722409353	 0.090215
H	-0.6161393762	-2.0683772677	-1.448020397	 0.11454
H	-0.184203757	-3.2160089683	-0.1791244449	 0.138282
H	-2.9305324648	-1.5650555916	 1.6092410962	 0.16226
H	-5.2427704957	-4.0319998996	-0.7029337092	 0.140541
H	-2.7778053869	-4.0936876271	-1.9056130741	 0.112178
47.7161	53.5471	114.4316	203.4678	245.0133	349.8638	402.7867	622.2994	623.2297	649.0557	714.1491	744.4328	798.981	821.638	826.5779	895.0074	965.5584	993.4543	1038.8382	1045.668	1060.3565	1100.7582	1137.3403	1204.7968	1242.4874	1251.152	1275.3259	1333.9549	1375.1897	1414.3471	1436.7533	1498.7672	1535.7195	1638.1779	1746.9939	2998.5971	3021.7819	3069.2871	3250.7798	3284.1667	3293.41	3519.6614
N=COCC1=COC=C1	[NH][CH]OCc1cocc1	
InChI=1S/C6H7NO2/c7-5-9-4-6-1-2-8-3-6/h1-3,5,7H,4H2	InChI=1S/C6H7NO2/c7-5-9-4-6-1-2-8-3-6/h1-3,5,7H,4H2
