17
gdb 87538	2.60631	1.56573	1.152	2.5664	74.51	-0.2379	-0.0265	0.2114	1083.9652	0.135624	-417.946602	-417.938432	-417.937488	-417.979444	30.669	
C	-0.0237037993	 1.5692160757	-0.0367738729	-0.392046
C	-0.0511608831	 0.0675505562	 0.0952053133	-0.06372
N	 1.2132399178	-0.6494350388	-0.1523089503	-0.3998
C	 0.6475578967	-0.6378521256	 1.192333757	 0.28825
C	 1.3465961761	-0.1678452733	 2.4620180093	-0.175835
N	 0.2669354256	-0.0284591388	 3.4501395635	-0.334067
C	 0.8712680307	-1.3852480516	 3.2178789304	-0.192297
C	 0.2457749514	-1.9102102027	 1.9364463519	 0.386171
O	-0.1682314856	-2.9721442801	 1.5666829134	-0.326256
H	 0.9290327473	 1.9702478576	 0.3188228367	 0.123398
H	-0.1468462766	 1.8679323958	-1.0829592293	 0.124901
H	-0.8322458785	 2.0205074204	 0.5466276254	 0.130203
H	-0.9617655319	-0.4190466308	-0.2525968358	 0.102038
H	 1.0370977107	-1.5595281442	-0.5768658998	 0.246556
H	 2.3013460522	 0.3327057943	 2.5456870587	 0.121976
H	 0.6810654459	 0.3075551244	 4.3209550591	 0.241891
H	 1.3325785707	-1.9375395286	 4.0257271393	 0.118636
101.5943	133.2616	167.773	181.8609	249.3021	287.1284	428.0098	440.2526	563.7541	624.4721	659.4323	768.8455	801.9206	831.4239	857.5864	875.9966	898.3653	911.9134	969.664	1030.6855	1044.3648	1059.3436	1080.5153	1097.0655	1102.0582	1134.2771	1212.4754	1240.4293	1270.0737	1290.4459	1333.3929	1374.4384	1412.2453	1474.1084	1488.413	1505.5122	1881.7624	3039.3997	3105.7045	3111.7875	3128.7512	3209.2472	3222.0438	3458.5928	3472.337
CC1NC11C2NC2C1=O	C[C@H]1N[C@]21[C@H]1N[C@H]1C2=O	
InChI=1S/C6H8N2O/c1-2-6(8-2)4-3(7-4)5(6)9/h2-4,7-8H,1H3	InChI=1S/C6H8N2O/c1-2-6(8-2)4-3(7-4)5(6)9/h2-4,7-8H,1H3/t2-,3-,4+,6-/m1/s1
