17
gdb 96616	3.39154	1.06897	0.83092	3.8092	76.25	-0.2267	-0.0735	0.1532	1360.8652	0.134686	-451.346644	-451.336756	-451.335811	-451.382087	35.574	
C	-0.7335622394	 1.7346482602	 0.7622737397	-0.336714
N	-0.5544703781	 0.340704796	 1.1096898554	-0.250591
C	-0.6325823151	-0.5097863912	 0.1556573807	 0.261821
N	-0.9133417986	-0.2682405893	-1.1641558255	-0.564976
C	-0.4404372761	-1.9626647033	 0.5737913773	 0.329802
O	-0.5817622207	-2.301490474	 1.7258632957	-0.2953
C	-0.0317747256	-3.0485697386	-0.4368421068	 0.303522
N	 0.2069777221	-4.2264797803	 0.188642904	-0.5238
N	 0.0605422657	-2.7803132013	-1.6904631789	-0.549758
H	-0.6161059797	 2.3530281082	 1.6552575369	 0.126013
H	 0.0030670695	 2.0842078345	 0.0177985797	 0.105185
H	-1.733122463	 1.930839396	 0.3419334998	 0.117291
H	-0.8189676035	 0.6827387861	-1.4837250098	 0.247327
H	-0.6393090385	-1.0063551445	-1.8097494717	 0.280423
H	-0.0036943334	-4.2719042235	 1.1738166955	 0.280209
H	 0.3693136764	-5.0704643662	-0.3310367171	 0.257624
H	 0.3351313482	-3.5946170486	-2.2412817248	 0.211923
39.7766	56.4513	166.0313	184.5955	202.0129	228.266	320.5501	342.231	366.9458	408.4832	450.3044	468.9397	575.7037	585.3617	625.485	648.8842	685.2264	765.193	838.6312	864.6223	970.345	1068.6706	1092.1693	1107.5346	1125.841	1170.4222	1226.8022	1355.4233	1426.4558	1434.6825	1489.5633	1502.3645	1587.8386	1629.4125	1692.6394	1713.0867	1792.3218	2949.1186	2998.8324	3102.6056	3422.5882	3460.3786	3588.9416	3656.4545	3732.1697
CN=C(N)C(=O)C(N)=N	CN=C(N)C(=O)C(=N)N	
InChI=1S/C4H8N4O/c1-8-4(7)2(9)3(5)6/h1H3,(H3,5,6)(H2,7,8)	InChI=1S/C4H8N4O/c1-8-4(7)2(9)3(5)6/h1H3,(H3,5,6)(H2,7,8)
