19
gdb 108974	4.03873	1.17014	1.05648	2.0963	80.55	-0.2228	0.0001	0.2228	1196.3565	0.159326	-385.817478	-385.809843	-385.808899	-385.849833	30.267	
C	 0.0134669683	 1.5369085121	 0.2348304851	-0.372796
C	-0.0272322234	 0.0456990318	-0.1466520973	-0.301597
C	-1.4030590499	-0.5351057828	-0.1040556251	 0.311499
C	-2.1734880499	-1.028651772	-1.0835124136	-0.236189
C	-3.4555760969	-1.4526469979	-0.3995171338	-0.084864
C	-3.754647876	-0.4058774042	 0.7306564326	 0.076825
O	-4.2575780573	-1.4460822223	 1.6360904744	-0.325461
C	-3.0670914641	-2.0290490803	 1.0069475515	 0.076806
C	-2.2675837653	-0.6857017819	 1.1421018308	-0.145826
H	 1.0390508795	 1.9174517137	 0.207397981	 0.115101
H	-0.5908471847	 2.1318213479	-0.4568022768	 0.121372
H	-0.3769189558	 1.7001912332	 1.2445422375	 0.121023
H	 0.3893047617	-0.0888655572	-1.1514003209	 0.104538
H	 0.6277793602	-0.5101216056	 0.539195964	 0.106111
H	-1.9460007858	-1.1197731824	-2.1372924917	 0.10212
H	-4.2855352138	-1.8973858087	-0.9457120091	 0.076093
H	-4.3000087546	 0.5402290945	 0.6832049885	 0.090555
H	-2.7805605825	-3.0442021048	 1.2934860348	 0.090613
H	-1.9189239596	-0.371847773	 2.125212318	 0.074076
76.8488	119.2197	200.8238	278.4978	344.8567	427.02	513.8307	544.1961	598.6509	697.6596	716.1475	785.9764	800.8305	848.3354	854.2795	877.4418	881.8995	933.1965	951.6307	973.0441	992.8872	1014.0516	1059.5816	1088.7129	1117.7971	1139.173	1164.6226	1172.6955	1184.8842	1204.8449	1243.315	1261.2026	1278.5506	1327.358	1344.5521	1351.2849	1406.9658	1478.0674	1498.2526	1506.4308	1682.2874	3006.5494	3036.7773	3059.1391	3084.2682	3089.2314	3107.7322	3111.8084	3134.9258	3144.2626	3219.2766
CCC1=CC2C3OC2C13	CCC1=C[C@@H]2[C@H]3O[C@@H]2[C@@H]13	
InChI=1S/C8H10O/c1-2-4-3-5-7-6(4)8(5)9-7/h3,5-8H,2H2,1H3	InChI=1S/C8H10O/c1-2-4-3-5-7-6(4)8(5)9-7/h3,5-8H,2H2,1H3/t5-,6+,7-,8+
