18
gdb 54728	4.02778	1.15292	1.05068	3.4265	77.7	-0.2248	0.0117	0.2364	1185.716	0.146164	-401.889426	-401.881152	-401.880208	-401.92302	31.143	
C	-0.0543385506	 1.4674314554	 0.0570156117	-0.475417
C	 0.0078515191	-0.0489597297	 0.0125623762	 0.358593
O	 0.9502007647	-0.6891634936	 0.425430071	-0.340274
N	-1.0865997208	-0.6479230071	-0.6082535026	-0.097871
C	-2.4630992016	-0.6065569908	-0.1109389711	-0.063405
C	-3.4324787363	-1.1545707477	-1.2010761977	-0.081572
C	-2.7029502673	-1.589657424	-2.4435793026	-0.284492
C	-2.6414158382	-2.4598427469	-1.218572502	-0.080926
C	-1.6858799055	-1.8801400555	-0.1305203747	-0.037162
H	 0.9592345755	 1.8654974602	-0.0100762103	 0.149369
H	-0.6773007112	 1.8759919233	-0.7412528432	 0.134957
H	-0.4741037395	 1.7867194122	 1.0178549486	 0.141876
H	-2.7326524822	 0.0193638363	 0.7303828305	 0.109115
H	-4.5041623605	-1.0130821013	-1.1605529731	 0.097086
H	-3.3461636625	-1.966576271	-3.2323562717	 0.113902
H	-1.8237148888	-1.0535964473	-2.7800020717	 0.135127
H	-3.0146048024	-3.4746202301	-1.1918642149	 0.099028
H	-1.2224551018	-2.4235409727	 0.6817193274	 0.122067
60.2664	84.3193	127.6187	150.4687	315.8926	376.8101	441.201	531.6941	588.266	619.7377	721.6372	732.3104	757.3985	786.9482	852.0477	882.7884	895.3214	936.4004	943.4537	980.5509	1014.356	1030.6659	1046.3913	1051.4906	1067.6413	1079.2087	1100.2044	1158.1301	1208.4977	1238.2904	1273.1655	1287.3675	1327.9127	1384.2776	1404.3401	1463.996	1470.8081	1480.2345	1784.2291	3044.7832	3115.531	3137.3948	3154.7052	3193.161	3201.7998	3207.1654	3219.6122	3227.9284
CC(=O)N1C2C3CC3C12	CC(=O)N1[C@H]2[C@H]3C[C@H]3[C@@H]12	
InChI=1S/C7H9NO/c1-3(9)8-6-4-2-5(4)7(6)8/h4-7H,2H2,1H3	InChI=1S/C7H9NO/c1-3(9)8-6-4-2-5(4)7(6)8/h4-7H,2H2,1H3/t4-,5+,6-,7+,8?
