15
gdb 27825	2.03917	1.87001	0.98139	3.9197	74.33	-0.2181	-0.0415	0.1766	1138.8792	0.112927	-454.004138	-453.996188	-453.995244	-454.036736	29.823	
C	-0.0204610029	 1.4556022982	 0.0732083643	-0.470475
C	-0.0004743017	-0.0319360559	-0.0609537073	 0.421114
N	-0.0225556248	-0.6183856836	-1.203543106	-0.402232
C	-0.0001081353	-2.0024098204	-1.188945798	 0.419972
O	-0.0245958086	-2.5695597251	-2.4039464713	-0.407778
C	 0.0426581593	-2.7428014491	-0.057319127	-0.266947
C	 0.0669158229	-2.0771882773	 1.2139705317	 0.382729
N	 0.1069086481	-2.6263129314	 2.3537585427	-0.544478
O	 0.0420019526	-0.6548414871	 1.1258158837	-0.254762
H	 0.8700964146	 1.7957745783	 0.6110104653	 0.156391
H	-0.0546336954	 1.9141966974	-0.9139159113	 0.154013
H	-0.8908115456	 1.7677809208	 0.6589412665	 0.156395
H	-0.0537191614	-1.8454701793	-3.0438802783	 0.304678
H	 0.0593474394	-3.8224291282	-0.0722678343	 0.130382
H	 0.1163240688	-1.9307482872	 3.0982727093	 0.220997
116.0219	140.7308	177.2128	201.9013	289.7573	357.4424	484.9627	499.4463	549.8865	556.7739	588.546	629.3848	680.3572	747.0877	817.9535	842.6286	857.1584	968.1382	996.1091	1062.0611	1064.6257	1087.8949	1195.7044	1226.6695	1299.2396	1344.4894	1407.677	1438.2396	1469.3531	1472.8443	1654.5346	1710.2783	1768.2494	3051.3517	3110.0545	3171.0295	3248.4594	3506.6357	3778.1677
CC1=NC(O)=CC(=N)O1	CC1=N[C@H](O)C=C([NH])O1	
InChI=1S/C5H6N2O2/c1-3-7-5(8)2-4(6)9-3/h2,6,8H,1H3	InChI=1S/C5H7N2O2/c1-3-7-5(8)2-4(6)9-3/h2,5-6,8H,1H3/t5-/m1/s1
