18
gdb 111573	3.23877	1.45438	1.23069	2.299	70.26	-0.228	0.0688	0.2968	1036.982	0.149646	-439.007112	-438.999888	-438.998944	-439.039004	28.726	
O	-0.0959869625	 1.4359257927	-0.0035144571	-0.428986
C	 0.0284254046	 0.0171010345	 0.0543361446	-0.118333
C	-1.3811041642	-0.5441058931	 0.1225893737	 0.071877
C	-1.5097662334	-2.0712815314	 0.2775326013	-0.119656
N	-0.7292447037	-2.2910138639	 1.5508260124	-0.330465
C	-1.8997470343	-1.6391097034	 2.1958279634	-0.060737
C	-2.8922508748	-2.073824939	 1.111497376	 0.089907
O	-3.5029444467	-0.7872849356	 1.0266252432	-0.292648
C	-2.185704719	-0.2837297237	 1.4169563786	 0.062151
H	 0.7865947266	 1.8131514686	 0.051743415	 0.286383
H	 0.5358233791	-0.3727192122	-0.8434570215	 0.08118
H	 0.60720547	-0.3040726161	 0.9270933688	 0.112179
H	-1.9661608542	-0.1661577602	-0.7199183069	 0.091811
H	-1.2973783551	-2.7229761855	-0.5685153439	 0.072506
H	-0.7758770531	-3.2825334272	 1.7862911234	 0.217744
H	-2.0404210053	-1.6895342086	 3.2741238444	 0.083038
H	-3.5634122989	-2.9328804187	 1.1026921821	 0.086128
H	-2.1969487051	 0.7051540629	 1.8675638425	 0.095922
80.9908	175.8012	210.4037	268.112	385.8184	490.9899	536.4354	544.1712	692.4863	740.781	763.0253	836.0464	846.473	861.643	888.6035	935.2014	952.6448	967.9628	1009.178	1013.7554	1035.9331	1061.5282	1090.9602	1109.7749	1128.5569	1158.7574	1162.2443	1182.7832	1209.302	1238.1504	1243.1336	1264.8515	1284.232	1313.7005	1331.96	1355.0759	1377.6601	1451.2608	1529.2076	2966.7806	3059.0779	3086.1489	3118.0749	3133.9302	3139.8082	3165.3893	3455.6402	3832.6175
OCC1C2NC3C2OC13	OC[C@H]1[C@H]2N[C@@H]3[C@H]2O[C@H]13	
InChI=1S/C6H9NO2/c8-1-2-3-6-4(7-3)5(2)9-6/h2-8H,1H2	InChI=1S/C6H9NO2/c8-1-2-3-6-4(7-3)5(2)9-6/h2-8H,1H2/t2-,3+,4-,5+,6-/m0/s1
