19
gdb 97772	3.65399	0.69876	0.64725	1.9098	83.14	-0.2402	0.0291	0.2693	1755.922	0.156154	-422.977741	-422.967319	-422.966375	-423.014226	37.382	
C	-0.2860760143	 1.5363542507	 0.1711491854	-0.449391
C	-0.013569362	 0.055365335	 0.0703769177	 0.408876
O	-1.1162369497	-0.7182177195	-0.326509233	-0.46314
C	 1.3443003462	-0.4544352159	-0.3191196446	-0.34257
C	 0.8302204926	-0.6578647842	 1.1120824172	-0.247199
C	 1.4250732979	 0.0436128522	 2.2087357072	 0.049734
C	 1.9338582935	 0.6359024183	 3.1289891359	 0.082711
C	 2.4913300368	 1.3467071778	 4.2773303561	-0.193036
O	 1.5927646111	 2.2822771401	 4.8618726106	-0.4038
H	 0.5712721033	 2.069449482	 0.587801195	 0.136093
H	-0.5023471956	 1.9555689061	-0.8190017026	 0.107414
H	-1.1520316187	 1.7177663807	 0.8150256211	 0.130194
H	-1.3152385961	-0.4972367121	-1.2435983082	 0.282351
H	 1.3876663601	-1.340152344	-0.9424643516	 0.118535
H	 2.1489396635	 0.2586750086	-0.4577678843	 0.122867
H	 0.4800473055	-1.6630806285	 1.3266198003	 0.12084
H	 2.8422444483	 0.6127372668	 5.0209432283	 0.116901
H	 3.3688013421	 1.9297359665	 3.97517822	 0.13659
H	 0.7589961455	 1.8228183593	 5.0063872393	 0.286031
28.9073	67.6371	98.0646	172.3828	226.0707	228.8018	274.9872	304.6019	343.4811	354.4978	371.3727	424.1786	488.2701	529.0184	592.7417	708.634	744.0444	861.4213	913.6058	932.6224	956.7147	990.9139	1013.9129	1047.3197	1058.7841	1088.4903	1099.1012	1197.0983	1217.3174	1239.6835	1299.16	1348.726	1355.1238	1399.6673	1418.4528	1421.3925	1472.2799	1484.6842	1492.4757	1504.0743	2349.9289	2972.2873	3030.4191	3057.5577	3096.7316	3132.3994	3138.4593	3154.7589	3234.8154	3788.8336	3816.7539
CC1(O)CC1C#CCO	C[C@@]1(O)C[C@H]1C#CCO	
InChI=1S/C7H10O2/c1-7(9)5-6(7)3-2-4-8/h6,8-9H,4-5H2,1H3	InChI=1S/C7H10O2/c1-7(9)5-6(7)3-2-4-8/h6,8-9H,4-5H2,1H3/t6-,7-/m1/s1
