22
gdb 122534	4.91323	0.57627	0.55526	1.7324	80.85	-0.2498	0.0732	0.323	2061.4467	0.192863	-441.442831	-441.432203	-441.431259	-441.480119	37.257	
C	-0.2562021001	 1.5175923636	 0.408008019	-0.384786
C	 0.0043593401	 0.0579992757	 0.0767106001	-0.025871
O	 0.7129962216	-0.5279058634	 1.1496019399	-0.247978
C	 1.0104298722	-1.8918904259	 0.9413197768	-0.059082
C	 1.7558076646	-2.3886209856	 2.1532163725	-0.031845
N	 0.9711523099	-3.019574762	 3.2274543312	-0.345209
C	 1.9674436838	-3.8216870261	 2.4884127245	-0.043494
C	 1.3878460089	-4.9867397012	 1.7175652449	-0.064667
O	 0.9131563463	-5.986860073	 2.6024701984	-0.421469
H	 0.6866667083	 2.0512322659	 0.5580308063	 0.125159
H	-0.8041842749	 2.0017896747	-0.405808195	 0.114403
H	-0.8472038367	 1.6024040457	 1.3242629669	 0.128312
H	-0.9462125842	-0.4771406625	-0.0883470049	 0.087225
H	 0.5869896703	-0.0297379451	-0.8567744939	 0.083436
H	 0.0877813006	-2.4726273537	 0.7963595437	 0.095939
H	 1.6319132849	-2.0150205606	 0.0363808983	 0.083909
H	 2.5505886717	-1.7083308152	 2.4552090038	 0.093978
H	 1.3299228048	-2.7474095848	 4.1380447819	 0.235786
H	 2.8919134328	-4.0604115088	 3.0121776463	 0.090081
H	 0.5906949353	-4.641804243	 1.0440904487	 0.088885
H	 2.1617828813	-5.4586365923	 1.1028529396	 0.108058
H	 0.2874624087	-5.5419817123	 3.186891921	 0.289231
38.8763	64.3988	81.333	95.2769	137.1659	181.35	246.2388	253.2663	316.4513	396.3799	446.8913	469.1093	484.8651	586.433	800.8502	822.3737	855.213	891.8453	908.1755	973.3389	979.232	1035.7055	1040.2725	1060.8835	1071.2648	1140.7494	1150.8439	1163.1277	1181.6233	1190.4126	1233.5194	1268.5788	1276.144	1283.7289	1297.4381	1357.1465	1372.5549	1398.1709	1408.6768	1430.5999	1451.2177	1483.8584	1492.7163	1498.0188	1499.8715	1507.1369	1535.3211	2944.2012	2955.0046	2975.8507	3001.2411	3016.8405	3045.1788	3073.4793	3116.5174	3119.4743	3122.0571	3128.1167	3512.4947	3788.0211
CCOCC1NC1CO	CCOC[C@H]1N[C@H]1CO	
InChI=1S/C6H13NO2/c1-2-9-4-6-5(3-8)7-6/h5-8H,2-4H2,1H3	InChI=1S/C6H13NO2/c1-2-9-4-6-5(3-8)7-6/h5-8H,2-4H2,1H3/t5-,6+/m0/s1
