19
gdb 102066	2.2106	1.20171	0.8524	3.3267	77.03	-0.2429	-0.0441	0.1988	1367.7753	0.157161	-419.21991	-419.209477	-419.208533	-419.256441	36.037	
C	-0.1378453447	 1.4669235363	 0.0518550922	-0.327873
N	 0.0428982112	 0.0141282233	 0.0402475757	-0.277926
C	 0.7178994125	-0.4879349647	-1.1403913613	-0.076835
C	 2.2371765191	-0.5704543682	-0.9529740578	 0.143572
O	 2.7679468362	-0.3665499703	 0.1095991791	-0.24885
C	 0.147128163	-1.8935421009	-1.5334833959	-0.147092
C	-1.3637252228	-1.8279989138	-1.8206191091	-0.395077
C	 0.86308756	-2.4563231334	-2.683228163	 0.267419
N	 1.4186647309	-2.8832100472	-3.6029584809	-0.325835
H	 0.7957757262	 2.0385885292	-0.0702022275	 0.112712
H	-0.8250343505	 1.7584811257	-0.7493034101	 0.12602
H	-0.5931464483	 1.7596827048	 1.0017104204	 0.129131
H	 0.613266737	-0.2426401425	 0.8423470443	 0.232851
H	 0.5308996422	 0.1814535305	-1.9913892729	 0.110079
H	 2.8256644641	-0.8512431321	-1.8495803998	 0.122285
H	 0.3161818766	-2.5618728979	-0.6795710535	 0.136378
H	-1.5630061546	-1.2154244563	-2.704796234	 0.131939
H	-1.7657044599	-2.827987178	-1.9996606241	 0.136159
H	-1.8615146582	-1.3822483244	-0.9586464218	 0.150941
38.1872	60.5428	95.0978	141.1144	195.7548	224.6831	239.3014	257.9778	314.9008	321.8958	366.8473	419.9538	542.7741	578.2435	721.0928	782.9607	812.9753	870.7727	945.2527	974.6971	1034.3893	1061.2219	1099.4138	1123.1527	1158.8928	1165.5566	1212.6435	1261.0368	1313.3149	1325.08	1359.7896	1398.1595	1411.1137	1460.9329	1492.1953	1493.2851	1502.9347	1506.3237	1535.12	1821.3572	2351.8495	2938.2299	2979.9281	3021.8665	3039.6112	3053.3032	3069.475	3113.1167	3126.0455	3154.1821	3497.0804
CNC(C=O)C(C)C#N	CN[C@@H](C=O)[C@@H](C)C#N	
InChI=1S/C6H10N2O/c1-5(3-7)6(4-9)8-2/h4-6,8H,1-2H3	InChI=1S/C6H10N2O/c1-5(3-7)6(4-9)8-2/h4-6,8H,1-2H3/t5-,6-/m0/s1
