16
gdb 88307	2.50012	1.15462	0.98673	0.5067	70.34	-0.2742	-0.0556	0.2186	1240.7813	0.121589	-437.892399	-437.883172	-437.882228	-437.927713	32.094	
C	 0.9893630512	 1.7000450073	-0.285962306	-0.435731
C	 0.015275039	 0.7302977148	 0.3247004957	 0.088959
O	 0.3005792335	-0.6561506682	 0.2120160129	-0.229544
C	 0.3040348541	-0.1103702131	 1.5230157944	-0.055769
C	 1.624825358	-0.0293301754	 2.2261167584	 0.377936
O	 2.6910433508	-0.1344014525	 1.6769917673	-0.288633
C	 1.5616000433	 0.1770344709	 3.7591530284	-0.438578
C	 0.5310691149	 1.1143194437	 4.1896231768	 0.258055
N	-0.2920956448	 1.862734872	 4.5024723062	-0.301666
H	 2.0188219187	 1.406970438	-0.0774495131	 0.16164
H	 0.8468124359	 1.7241402277	-1.3711756209	 0.13788
H	 0.8093135691	 2.7090930354	 0.0986144289	 0.132574
H	-1.0402314057	 0.9744525921	 0.189852139	 0.111765
H	-0.5404270695	-0.3954351695	 2.1508852707	 0.116967
H	 1.3695438028	-0.8001899223	 4.2215491755	 0.181339
H	 2.5485181689	 0.5093535192	 4.0895471456	 0.182806
37.3832	56.8574	129.5476	172.2586	199.8863	246.5047	338.2301	375.2791	380.215	441.3002	485.362	587.4859	697.6879	772.0382	821.2725	863.0258	925.7019	968.1012	998.6357	1028.2389	1073.8662	1109.8599	1164.1319	1171.6832	1215.4705	1283.2815	1285.5486	1391.4551	1414.5001	1439.3704	1447.8765	1490.0738	1501.8631	1822.57	2360.9787	3039.8725	3045.6396	3093.8822	3107.5774	3114.8144	3115.9729	3156.2611
CC1OC1C(=O)CC#N	C[C@H]1O[C@H]1C(=O)CC#N	
InChI=1S/C6H7NO2/c1-4-6(9-4)5(8)2-3-7/h4,6H,2H2,1H3	InChI=1S/C6H7NO2/c1-4-6(9-4)5(8)2-3-7/h4,6H,2H2,1H3/t4-,6-/m1/s1
