23
gdb 105527	1.90216	1.56798	1.07681	1.7316	84.77	-0.2605	0.0806	0.341	1254.7182	0.205331	-388.261798	-388.252329	-388.251385	-388.296132	35.945	
C	-1.6169773474	-0.5421855538	-0.0555565279	-0.396024
C	-0.2006512139	 0.0444036834	-0.0007629904	-0.230477
C	 0.6650729519	-0.4099221871	 1.1882415024	 0.327758
C	 1.9769601733	 0.4295838716	 1.3040570422	-0.273591
C	 1.3086397342	 1.2921674591	 2.4069115538	-0.214849
C	 0.2101203952	 0.2074890604	 2.5547609168	-0.264367
C	 0.8336805223	-1.9124934843	 1.1979415656	 0.009341
C	 1.9485292037	-2.5988020384	 0.5331870459	-0.188374
O	 1.9228344653	-2.4513755549	 1.9556341652	-0.241639
H	-2.1649799902	-0.3597583652	 0.874998981	 0.120098
H	-2.1898389883	-0.0867295576	-0.8691315304	 0.114727
H	-1.6082241538	-1.6224342748	-0.2298225806	 0.118915
H	 0.3308424006	-0.1998559115	-0.9303031421	 0.094517
H	-0.2700612988	 1.139031386	 0.0278803676	 0.096616
H	 2.7959188653	-0.173084637	 1.7022426927	 0.118573
H	 2.3107973302	 0.9410702656	 0.3966682439	 0.086941
H	 1.908966265	 1.5103629178	 3.292637298	 0.099245
H	 0.9146327323	 2.23600738	 2.0209913957	 0.100102
H	-0.8268449721	 0.5466196575	 2.6272564903	 0.092439
H	 0.4142934697	-0.4721062987	 3.3862106398	 0.112607
H	-0.0899711168	-2.4787289857	 1.3280936431	 0.091063
H	 1.8237928366	-3.6165319052	 0.1661563682	 0.113859
H	 2.7099612656	-2.0117801072	 0.0211999793	 0.112519
75.0265	107.2571	125.4801	193.0641	213.6949	228.9229	280.4903	314.0763	376.22	476.2778	530.1366	608.3731	700.8451	775.1212	794.8577	846.2327	862.3027	875.9501	910.937	947.686	952.5664	968.9019	998.9397	1026.2608	1048.7778	1083.6154	1098.181	1151.2154	1157.5778	1172.5464	1189.1544	1209.7014	1225.6819	1262.9122	1272.6087	1278.5109	1291.1082	1302.2128	1338.5441	1369.1	1412.6893	1432.7902	1470.3095	1481.6514	1485.7599	1501.1907	1505.1444	1508.8716	1526.2963	3013.6533	3037.2122	3047.5869	3053.3261	3054.8047	3065.1001	3082.217	3093.2143	3098.6465	3103.2247	3108.439	3112.9495	3125.8516	3167.8866
CCC1(CCC1)C1CO1	CCC1(CCC1)[C@H]1CO1	
InChI=1S/C8H14O/c1-2-8(4-3-5-8)7-6-9-7/h7H,2-6H2,1H3	InChI=1S/C8H14O/c1-2-8(4-3-5-8)7-6-9-7/h7H,2-6H2,1H3/t7-/m1/s1
