17
gdb 97677	3.49914	0.73556	0.69632	3.3982	74.48	-0.249	0.0145	0.2635	1646.8041	0.133122	-458.888461	-458.878513	-458.877569	-458.925191	34.129	
O	 0.0117158468	 1.4023473046	-0.4421762264	-0.4086
C	-0.0039124967	 0.1294317488	 0.1906861963	-0.216422
C	-1.3466796773	-0.4331000812	 0.1234648745	 0.030532
C	-2.4459356452	-0.9232107297	 0.0758560663	 0.085277
C	-3.796848674	-1.4593664526	 0.0244046087	 0.165064
O	-4.5991422337	-0.9902006272	 1.0895732748	-0.45569
C	-4.4608970078	-1.4383430613	-1.3899926058	-0.105969
O	-4.3932568324	-2.8719494562	-1.4888034699	-0.270229
C	-3.9206227028	-2.9973923772	-0.1369814596	-0.09374
H	 0.9120532117	 1.7390755012	-0.3882874805	 0.292441
H	 0.6967020647	-0.5696664831	-0.2943165564	 0.123844
H	 0.301023129	 0.2031608021	 1.2473283543	 0.121238
H	-4.3544073238	-0.075367166	 1.2652600882	 0.287764
H	-5.4926271387	-1.0674185689	-1.3496704425	 0.105693
H	-3.9042718913	-0.9391525202	-2.1892547067	 0.112721
H	-2.993741863	-3.5747983529	-0.0684650565	 0.112
H	-4.6780164057	-3.4112011202	 0.5397464912	 0.114075
26.3952	62.0814	86.2713	120.2107	201.0281	225.5915	253.8943	308.6165	348.0259	373.1298	495.9565	521.3061	558.4991	637.3081	798.8912	885.6211	955.0642	986.3533	1008.5169	1021.6201	1025.4499	1043.569	1069.324	1147.113	1156.1615	1162.0785	1244.9819	1247.3818	1268.8849	1298.7263	1349.3016	1395.9631	1458.9452	1496.773	1501.161	1523.5633	2362.4776	2965.7105	2985.0391	3017.6248	3029.9539	3086.7352	3089.2462	3814.8321	3818.4268
OCC#CC1(O)COC1	OCC#CC1(O)COC1	
InChI=1S/C6H8O3/c7-3-1-2-6(8)4-9-5-6/h7-8H,3-5H2	InChI=1S/C6H8O3/c7-3-1-2-6(8)4-9-5-6/h7-8H,3-5H2
