19
gdb 124491	2.55315	1.28689	1.03498	4.2214	78.2	-0.2088	0.0078	0.2166	1233.8246	0.160249	-415.396245	-415.386859	-415.385915	-415.431117	34.287	
C	-0.0316564698	 1.6485101084	 0.2179781224	-0.391112
C	-0.0056883414	 0.1213783968	 0.0259652263	-0.100842
C	 0.8495499761	-0.5599415904	 1.1136491779	-0.378906
C	-1.3836432647	-0.4629732004	-0.0548326072	 0.316139
C	-1.9611696473	-1.3545028121	-0.9391791906	 0.20048
N	-1.4018090439	-1.9402074505	-2.0828461718	-0.601199
N	-3.2602931722	-1.5591636988	-0.5869981397	-0.252063
N	-3.535410115	-0.8444789453	 0.4718198123	-0.131786
N	-2.4089748375	-0.1979008007	 0.8038994989	-0.243516
H	 0.9838891753	 2.0548307682	 0.1876294267	 0.120997
H	-0.6215159794	 2.1372692641	-0.5620346559	 0.132206
H	-0.4601660292	 1.9235643287	 1.1892611822	 0.106059
H	 0.4580444258	-0.0852896866	-0.9465407365	 0.100935
H	 0.4296522829	-0.3843960015	 2.110433241	 0.113504
H	 0.8991163934	-1.6420377977	 0.96148566	 0.119522
H	 1.8708437831	-0.165515899	 1.1063318019	 0.117687
H	-0.5801035053	-2.4969219002	-1.880564385	 0.2448
H	-2.0926040559	-2.5304986753	-2.5321135265	 0.252662
H	-2.4170565853	 0.4150659922	 1.6030563534	 0.274434
26.2702	131.2778	155.6701	189.7378	230.8379	255.7641	285.4681	298.5875	384.2645	433.9091	515.6375	560.4193	618.4597	717.1947	735.1121	745.0469	829.3522	886.6076	929.636	961.6688	1009.74	1076.8068	1105.8932	1117.4716	1120.424	1167.1657	1225.2508	1248.1157	1342.9509	1349.4141	1378.6024	1384.7952	1398.5008	1422.971	1484.662	1490.9864	1502.0748	1506.1801	1521.8498	1642.3134	1647.4281	3027.182	3029.4584	3035.6657	3093.2888	3101.3878	3110.1203	3119.4695	3523.4455	3608.8944	3657.9599
CC(C)C1=C(N)N=NN1	CC(C)c1c(N)nn[nH]1	
InChI=1S/C5H10N4/c1-3(2)4-5(6)8-9-7-4/h3H,1-2H3,(H3,6,7,8,9)	InChI=1S/C5H10N4/c1-3(2)4-5(6)8-9-7-4/h3H,1-2H3,(H3,6,7,8,9)
