19
gdb 124767	3.82907	1.01256	0.83225	3.3705	79.14	-0.2324	0.0192	0.2517	1394.807	0.159455	-419.228459	-419.219015	-419.218071	-419.263816	33.823	
C	 0.3186739305	 1.1211269544	-0.7306850036	-0.399881
C	 0.0475770367	 0.0023090691	 0.2783551687	 0.022672
O	 0.2573355724	 0.4501902952	 1.6192052535	-0.425064
C	-1.31760048	-0.613637632	 0.1319949779	 0.152442
C	-2.1981165002	-0.5689114885	-0.9342009092	-0.1458
N	-3.2908967949	-1.2923577315	-0.5839519148	 0.056523
C	-4.5102979844	-1.4824647851	-1.3391635176	-0.319585
N	-3.1898304928	-1.8012714176	 0.6597518835	-0.270147
C	-1.9986749688	-1.3983804699	 1.0923965877	-0.080598
H	 1.3052029545	 1.5525367172	-0.5441814694	 0.123747
H	 0.2953449018	 0.743954178	-1.7586267572	 0.113028
H	-0.4307222427	 1.915786812	-0.6417946953	 0.108958
H	 0.8140301304	-0.7725403293	 0.1451659929	 0.09972
H	-0.4830023285	 1.0251195574	 1.8447146401	 0.2752
H	-2.1303295326	-0.09301789	-1.8997461846	 0.130284
H	-4.3118153674	-1.2934110987	-2.3958879515	 0.137354
H	-4.8506272374	-2.5115260358	-1.2121670864	 0.156633
H	-5.2989421744	-0.8049752255	-0.9951936705	 0.14369
H	-1.656685122	-1.6774085794	 2.0778743157	 0.120824
36.2912	55.0414	138.7698	160.3821	222.7715	258.409	310.9389	339.4598	354.7076	465.6925	492.9118	606.729	651.7136	706.9484	739.4244	798.6027	890.5369	896.9128	999.2993	1006.197	1037.4956	1074.7177	1088.3371	1110.7007	1149.2084	1192.8343	1219.0779	1279.5369	1331.2349	1341.2421	1396.1064	1406.6247	1410.3149	1423.8895	1449.0447	1472.5397	1481.5676	1491.8689	1494.7013	1522.1316	1601.4651	3019.302	3030.9825	3043.3548	3099.1038	3116.1244	3122.7706	3149.6398	3252.1343	3258.3187	3794.3467
CC(O)C1=CN(C)N=C1	C[C@@H](O)c1cn(C)nc1	
InChI=1S/C6H10N2O/c1-5(9)6-3-7-8(2)4-6/h3-5,9H,1-2H3	InChI=1S/C6H10N2O/c1-5(9)6-3-7-8(2)4-6/h3-5,9H,1-2H3/t5-/m1/s1
