14
gdb 132427	3.22899	1.41673	0.99075	2.6385	70.81	-0.2317	-0.0658	0.1659	1107.7499	0.100461	-478.001618	-477.993992	-477.993048	-478.033947	28.325	
C	 0.033363609	 1.5017365969	-0.000178629	-0.472264
C	-0.0679064727	 0.0169599536	 0.0627838462	 0.376964
C	-1.1140073177	-0.7394658567	-0.3174291042	-0.165458
N	-1.0973912029	-2.1256663966	-0.2129040698	-0.288109
C	-0.0434245389	-2.6424446872	 0.2608833251	 0.253764
F	 0.0422165124	-3.9617618102	 0.3892279408	-0.060837
C	 1.1591416838	-1.9232369667	 0.7095941532	 0.282074
N	 2.230202556	-2.3960517688	 1.1887536821	-0.507711
O	 1.0585207638	-0.5599658517	 0.5703688814	-0.23664
H	 0.87884127	 1.8038603148	-0.6275271126	 0.153222
H	-0.8827786074	 1.9294476495	-0.4106777555	 0.142473
H	 0.2041410677	 1.9188643993	 0.9980798238	 0.153221
H	-2.0121651807	-0.2929213041	-0.7210638249	 0.126325
H	 2.1644018377	-3.4110985222	 1.2334715737	 0.242976
98.9734	153.279	169.4464	292.0794	333.9605	378.6237	433.1352	487.4106	530.6798	578.864	611.3944	705.5596	762.8124	779.1038	846.0517	855.3007	984.4674	1014.232	1064.641	1085.6172	1203.1484	1227.3679	1285.6772	1346.869	1388.8433	1420.2049	1466.8532	1483.0389	1646.691	1702.0211	1728.4589	3040.2111	3096.0829	3143.0686	3226.2525	3526.8121
CC1=CN=C(F)C(=N)O1	CC1=C[N]C(=C([NH])O1)F	
InChI=1S/C5H5FN2O/c1-3-2-8-4(6)5(7)9-3/h2,7H,1H3	InChI=1S/C5H5FN2O/c1-3-2-8-4(6)5(7)9-3/h2,7H,1H3
