23
gdb 101235	3.60606	0.89584	0.8565	1.6227	82.54	-0.2514	0.0777	0.3291	1510.1559	0.204502	-425.424384	-425.414259	-425.413315	-425.459742	37.712	
C	-0.0188607245	 1.5207140879	-0.2611283415	-0.383386
C	-0.0405463454	 0.0228996101	 0.0488955303	-0.187323
C	-1.4509241576	-0.5823626677	-0.0139850765	 0.111158
O	-2.0663076812	-0.3518201851	-1.2746822538	-0.440421
C	-1.4348168993	-2.0813828386	 0.2816824606	 0.137414
C	-2.7641133746	-2.8575114176	 0.2117079941	-0.325991
C	-2.0592175272	-3.7078875949	-0.8668509726	 0.175733
C	-2.6958474511	-3.828631651	-2.235033591	-0.408476
O	-0.9083337777	-2.8150009516	-0.8589327754	-0.333753
H	 1.0030486602	 1.9116648909	-0.2557529363	 0.107464
H	-0.4590747474	 1.714657178	-1.2423712521	 0.130418
H	-0.5969905754	 2.0854703341	 0.4792396495	 0.109666
H	 0.5984937796	-0.5206163588	-0.6595091597	 0.106806
H	 0.3765181005	-0.1636915112	 1.0471754399	 0.090074
H	-2.0931718432	-0.0899513132	 0.7294380843	 0.082297
H	-1.6211187938	-0.960488667	-1.8803975812	 0.283218
H	-0.8446360722	-2.2872878287	 1.1849592173	 0.070324
H	-3.0762571629	-3.3750122622	 1.1195445427	 0.104011
H	-3.5869993277	-2.2567170412	-0.1801953152	 0.121897
H	-1.7551578336	-4.6977174943	-0.4994938973	 0.077392
H	-3.0427858551	-2.8523598034	-2.5873429596	 0.12547
H	-1.9794556793	-4.2294695009	-2.9593514809	 0.126377
H	-3.555229941	-4.5069681935	-2.1952150255	 0.119632
60.7498	69.8234	114.526	172.1073	218.274	241.3371	275.7965	301.1817	334.8917	366.2777	445.0692	480.2772	510.0552	668.7102	690.0891	782.8213	816.7994	879.8041	899.1313	926.0911	933.3775	978.2063	985.5702	1034.3745	1072.2863	1074.5869	1105.8382	1121.8414	1140.7716	1158.6193	1206.876	1245.4313	1256.6916	1270.8361	1294.8876	1330.1627	1336.6551	1371.1657	1383.862	1397.7596	1408.1449	1413.5305	1433.9611	1484.2116	1485.8226	1488.3877	1496.2156	1499.2121	1510.076	3004.8788	3009.4393	3019.5027	3020.854	3032.9551	3035.3941	3057.1552	3079.7846	3099.6872	3104.8393	3113.1252	3124.5644	3139.7453	3750.844
CCC(O)C1CC(C)O1	CC[C@@H](O)[C@H]1C[C@@H](C)O1	
InChI=1S/C7H14O2/c1-3-6(8)7-4-5(2)9-7/h5-8H,3-4H2,1-2H3	InChI=1S/C7H14O2/c1-3-6(8)7-4-5(2)9-7/h5-8H,3-4H2,1-2H3/t5-,6-,7-/m1/s1
