14
gdb 44261	3.11317	1.55687	1.20021	3.2424	61.6	-0.276	-0.0532	0.2228	980.769	0.102037	-473.856242	-473.849213	-473.848269	-473.88841	25.734	
O	-0.0298992889	-0.0560413905	-0.3981674357	-0.260505
C	-0.0476122005	 1.1001910352	-0.1178994257	 0.375754
C	-1.1428943247	 2.1425753841	 0.2208274868	-0.306378
N	-0.0456646918	 3.082240427	 0.6089889217	-0.164194
C	 1.0310569531	 2.1930081113	 0.1171237153	-0.132866
C	 2.0330073206	 2.1255109283	 1.2842155	-0.114628
O	 1.379121563	 2.8121888711	 2.3567612752	-0.231518
C	 0.1367256001	 3.2516856274	 1.9941022884	 0.458487
O	-0.6569612976	 3.6934887058	 2.7700653241	-0.358341
H	-1.708050626	 2.4841068859	-0.6509496044	 0.153538
H	-1.8333636207	 1.9012934198	 1.0340150261	 0.168022
H	 1.4919127766	 2.5258121639	-0.8178136058	 0.129794
H	 2.2618662389	 1.1023312127	 1.596266387	 0.145277
H	 2.9656646381	 2.6452009481	 1.0512971071	 0.137558
68.4062	142.8769	179.2812	257.4091	405.4143	482.8873	560.7247	617.0745	678.8765	719.691	775.4326	793.357	845.3629	917.4866	990.5501	1034.6982	1046.2506	1073.5684	1084.5584	1100.5018	1143.2004	1198.8983	1223.0556	1254.2384	1271.0254	1314.4791	1396.2727	1470.623	1523.1553	1888.4804	1920.5048	3057.3339	3060.5437	3067.2317	3107.4328	3118.34
O=C1CN2C1COC2=O	O=C1CN2[C@H]1COC2=O	
InChI=1S/C5H5NO3/c7-4-1-6-3(4)2-9-5(6)8/h3H,1-2H2	InChI=1S/C5H5NO3/c7-4-1-6-3(4)2-9-5(6)8/h3H,1-2H2/t3-/m0/s1
