25
gdb 80424	2.33643	1.6517	1.21711	0.0936	91.73	-0.2803	0.0811	0.3614	1175.3943	0.230152	-352.362231	-352.353134	-352.352189	-352.394983	37.186	
C	-0.1393335385	 1.5482611922	-0.0975539178	-0.412529
C	 0.0687510308	 0.0345532194	-0.0359540597	 0.025447
C	 0.9570975496	-0.5378218862	-1.1628347059	-0.016562
C	 1.1909659798	-1.9936956301	-0.6791192702	-0.274127
C	 2.0020824237	-1.284861805	 0.4500762477	 0.358954
C	 3.0340423476	-2.0253414233	 1.2711693306	-0.503973
C	 2.3962854333	-0.2506805583	-0.6523579383	-0.26763
C	 0.8640394044	-0.5400713768	 1.2060590315	-0.010051
C	 1.3331426061	 0.4670792784	 2.2573397937	-0.419428
H	 0.8044840819	 2.101591671	-0.086607375	 0.113524
H	-0.6682911924	 1.8189307919	-1.0181129165	 0.108333
H	-0.742238642	 1.9070520373	 0.7428001858	 0.111427
H	-0.91995621	-0.4379656407	-0.0808544844	 0.061793
H	 0.6557750293	-0.3139029044	-2.1876338874	 0.050077
H	 0.3177995011	-2.5891334766	-0.390419439	 0.079925
H	 1.8325270998	-2.5686602854	-1.3526094771	 0.086859
H	 3.7505261409	-2.5470725111	 0.6277894464	 0.10953
H	 3.6028982232	-1.3455266731	 1.9150661791	 0.115581
H	 2.560973312	-2.7742198245	 1.9181217863	 0.11122
H	 3.1637165017	-0.6430943918	-1.3249411914	 0.089466
H	 2.659254414	 0.7673955397	-0.3524120194	 0.084929
H	 0.2410142485	-1.2830447169	 1.7201738689	 0.060792
H	 2.0353904056	 1.2029333256	 1.8531099573	 0.113072
H	 0.4888844815	 1.0181364702	 2.6836556943	 0.112122
H	 1.8353470682	-0.0452428515	 3.0845783006	 0.111251
130.9089	204.5717	207.7286	242.3815	258.9277	277.274	297.0412	313.0834	397.5414	469.0688	487.3393	531.7901	616.3641	670.5766	745.5012	798.6482	836.9329	847.8784	870.9566	909.0843	962.385	975.574	1007.3451	1020.0049	1027.1637	1036.4941	1059.3383	1074.0062	1100.9332	1135.0259	1152.824	1167.5671	1176.6058	1207.7148	1239.9405	1252.5001	1267.5178	1288.7434	1319.7707	1340.0965	1377.0439	1378.294	1409.859	1412.11	1418.6848	1487.3472	1488.6333	1491.359	1492.89	1498.2732	1507.8882	1513.8706	1526.6652	3007.3018	3020.874	3026.112	3031.4642	3037.006	3037.3875	3055.9785	3083.4675	3090.2675	3092.7556	3096.0782	3098.6154	3100.0591	3100.7559	3106.489	3112.4825
CC1C2CC(C)(C2)C1C	C[C@H]1[C@@H]2C[C@@](C)(C2)[C@H]1C	
InChI=1S/C9H16/c1-6-7(2)9(3)4-8(6)5-9/h6-8H,4-5H2,1-3H3	InChI=1S/C9H16/c1-6-7(2)9(3)4-8(6)5-9/h6-8H,4-5H2,1-3H3/t6-,7+,8-,9+/m1/s1
