20
gdb 105942	4.16648	1.33007	1.25605	1.676	81.73	-0.2208	0.0819	0.3026	1091.4315	0.172254	-365.934638	-365.927189	-365.926245	-365.966598	29.98	
C	-0.2957326986	 1.4909586008	 0.111802851	-0.38024
C	 0.0902743477	 0.0130370885	-0.0333344273	-0.330521
C	 0.9152874197	-0.4861365936	 1.1071369865	 0.386992
C	 1.135860726	-1.8230739877	 1.7098872745	-0.126478
C	 2.585100498	-1.5374129249	 2.1463300963	-0.067128
C	 2.5019150193	-1.169118783	 3.6483597768	-0.240272
C	 1.5460775886	-0.073528745	 3.1498364242	 0.015082
C	 2.2554590459	-0.0362208635	 1.7625702877	-0.139089
N	 0.3699944595	-0.7693806927	 2.4753758897	-0.196271
H	 0.5929858984	 2.1298329255	 0.1545893617	 0.114507
H	-0.904997621	 1.823557909	-0.7337284959	 0.112151
H	-0.8689899893	 1.649972957	 1.0300543718	 0.132318
H	-0.8140121861	-0.6050027449	-0.0936008463	 0.110607
H	 0.6389419042	-0.1417250396	-0.9720233053	 0.099957
H	 0.6398106328	-2.7700270819	 1.5337412193	 0.090902
H	 3.3969633574	-2.1153458862	 1.7091819082	 0.072038
H	 2.1240451914	-1.9118686365	 4.3566695998	 0.102383
H	 3.4411731086	-0.7396873958	 4.0113049449	 0.100778
H	 1.2469361257	 0.7886548703	 3.7440351326	 0.072628
H	 2.9920004819	 0.6875556843	 1.4224857798	 0.069658
83.3894	135.3807	193.9308	290.6176	348.7092	433.4415	559.6202	600.3245	715.7526	746.496	769.0476	808.5247	816.8334	834.6685	870.5768	881.1565	918.5574	937.6276	961.4701	971.0716	994.9428	1032.2448	1040.1893	1063.983	1071.622	1095.7401	1108.4463	1154.3889	1169.6948	1201.8029	1209.796	1240.1159	1252.1446	1268.6828	1278.289	1315.1111	1346.1404	1407.1857	1447.9959	1470.4222	1480.3475	1498.5006	1509.0093	3017.7431	3036.4841	3048.3145	3056.961	3104.2195	3107.9944	3114.8638	3124.2936	3134.8447	3147.732	3183.1703
CCC12C3C4CC(C14)N23	CC[C@@]12[C@H]3[C@@H]4C[C@@H]([C@H]14)N23	
InChI=1S/C8H11N/c1-2-8-6-4-3-5(6)9(8)7(4)8/h4-7H,2-3H2,1H3	InChI=1S/C8H11N/c1-2-8-6-4-3-5(6)9(8)7(4)8/h4-7H,2-3H2,1H3/t4-,5+,6-,7-,8+,9?/m1/s1
