18
gdb 23000	2.74556	1.26203	0.93923	1.5426	71.52	-0.253	-0.007	0.2461	1240.7607	0.145138	-476.15645	-476.146874	-476.14593	-476.191973	34.145	
C	 0.4624855247	 1.3335973341	-0.0170688351	-0.490421
C	 0.0379680188	-0.0994763254	 0.1144739058	 0.350183
N	-0.1828772661	-0.7115671205	 1.2154432851	-0.196884
O	-0.0120790988	 0.1142002159	 2.333418509	-0.39097
C	-0.2061573813	-0.9001678388	-1.1400988134	 0.019531
O	 0.7494577466	-0.6119712191	-2.1826274178	-0.293867
C	 1.0742379026	-2.0149347156	-2.3377557158	-0.081532
C	 0.1518317601	-2.4191103616	-1.1717501437	 0.075926
O	 0.8481091713	-2.9454533673	-0.0807413553	-0.434898
H	 1.1599949217	 1.5990037321	 0.7798396602	 0.153466
H	 0.9260398317	 1.4939239909	-0.9912090739	 0.157129
H	-0.4051078567	 1.9978024451	 0.0755042178	 0.144641
H	-0.1798083245	-0.4881233921	 3.0661542599	 0.308796
H	-1.2287840798	-0.6973571675	-1.4940790861	 0.092989
H	 0.786062066	-2.3869984908	-3.3275119841	 0.101574
H	 2.133066869	-2.2181341789	-2.1495041911	 0.1184
H	-0.6958640473	-3.0560225529	-1.4565873882	 0.07521
H	 0.4817508718	-2.5237710377	 0.7126876067	 0.290725
49.6826	59.1546	72.1293	171.1674	205.6782	302.7987	324.8497	369.4908	377.0722	416.8028	466.3849	514.2728	544.9033	697.2993	792.1998	811.8553	897.4957	927.7047	977.9243	1009.8916	1016.7645	1041.0063	1063.453	1077.2769	1153.5748	1193.0173	1224.1951	1245.66	1284.4764	1341.8065	1350.7541	1384.8995	1395.4203	1401.6937	1431.07	1477.9849	1486.0645	1509.986	1725.553	2978.2837	3010.7218	3033.4551	3042.5925	3092.1145	3113.172	3157.2592	3667.9198	3819.2232
CC(=NO)C1OCC1O	CC(=NO)[C@H]1OC[C@H]1O	
InChI=1S/C5H9NO3/c1-3(6-8)5-4(7)2-9-5/h4-5,7-8H,2H2,1H3	InChI=1S/C5H9NO3/c1-3(6-8)5-4(7)2-9-5/h4-5,7-8H,2H2,1H3/t4-,5-/m1/s1
