19
gdb 92619	3.83976	1.18874	0.99481	2.0305	77.69	-0.2464	0.0072	0.2535	1203.5229	0.16115	-423.034168	-423.026329	-423.025384	-423.066833	30.473	
O	 0.1087700763	 1.4195710889	 0.1138732283	-0.431308
C	 0.0580360672	 0.0047430304	 0.0290966391	 0.122719
C	-1.3889480238	-0.5800686257	-0.0263117612	-0.291359
C	-1.2433987387	-1.8394285384	-0.8854301377	 0.066873
O	-2.2618946317	-2.066674485	-1.8566075379	-0.27042
C	-1.6437661896	-2.8005101871	-2.9162383524	-0.069064
C	-0.1388575051	-2.3705375392	-2.9770493478	-0.379008
C	-0.0196387896	-1.5649730094	-1.7190000745	 0.358888
C	 0.6997410231	-0.5594898573	-1.2303669406	-0.308174
H	-0.3031941852	 1.7695503291	-0.6844460405	 0.274031
H	 0.5782839031	-0.3309648524	 0.9352460094	 0.095854
H	-1.8226986656	-0.7508559357	 0.9611739913	 0.102921
H	-2.0281554603	 0.1283135596	-0.5649041534	 0.108542
H	-1.1223850594	-2.7423962758	-0.260248547	 0.069142
H	-1.7208057459	-3.8812767165	-2.7251042316	 0.094941
H	-2.1905638688	-2.5775410247	-3.8357592117	 0.112683
H	 0.5192598707	-3.2459869091	-2.9895274876	 0.120138
H	 0.0904381727	-1.778238586	-3.8670802138	 0.124052
H	 1.6045444707	-0.1294823358	-1.6458059003	 0.098549
70.2475	128.0818	173.2688	303.4009	332.6361	365.4025	440.5851	470.5577	572.4231	618.4999	689.0624	713.0204	805.5988	846.8029	857.4606	878.9831	929.8192	956.91	995.6529	1027.375	1047.699	1069.5395	1077.4451	1099.5157	1152.8808	1190.1555	1207.9016	1238.8169	1242.9988	1253.7514	1281.7989	1292.6476	1313.5798	1348.5321	1363.5098	1390.5538	1432.8692	1476.8834	1482.2273	1517.433	1739.5273	2934.8806	2989.9745	3026.823	3047.8496	3053.8431	3084.477	3101.0127	3116.5792	3193.6569	3791.6575
OC1CC2OCCC2=C1	O[C@H]1C[C@H]2OCCC2=C1	
InChI=1S/C7H10O2/c8-6-3-5-1-2-9-7(5)4-6/h3,6-8H,1-2,4H2	InChI=1S/C7H10O2/c8-6-3-5-1-2-9-7(5)4-6/h3,6-8H,1-2,4H2/t6-,7-/m1/s1
