19
gdb 30239	4.35872	1.13014	0.95157	3.2773	84.54	-0.2058	0.0445	0.2503	1284.5828	0.160344	-382.087644	-382.079026	-382.078082	-382.121348	31.671	
C	-0.3902520386	 1.525841896	-0.011643902	-0.39858
C	 0.0006751753	 0.0552667651	 0.0762002751	-0.141988
C	 0.613397055	-0.6069761712	-1.2309529889	-0.188503
N	 1.8482589654	-0.8110814996	-0.4495781946	 0.020092
C	 3.0735210316	-1.3681356052	-0.1568510849	-0.258621
C	 3.2412086032	-1.0965338085	 1.1919045557	 0.272002
C	 4.4257798536	-1.4251550913	 2.043253166	-0.484411
N	 2.1395726102	-0.4323834335	 1.7286368031	-0.421674
C	 1.3501411471	-0.2980552824	 0.6917205247	 0.36627
H	 0.4196542957	 2.1235824472	-0.4416254483	 0.124738
H	-1.2840723242	 1.6582586104	-0.6302740669	 0.117679
H	-0.6076747611	 1.923012157	 0.9841844525	 0.13815
H	-0.8267211562	-0.5375300687	 0.4796960905	 0.101704
H	 0.1344308845	-1.5366059823	-1.5502621813	 0.128338
H	 0.7366714889	 0.064390378	-2.0856124626	 0.124225
H	 3.7138826715	-1.846550273	-0.8780818486	 0.125754
H	 4.9090108702	-0.5168408483	 2.4202874569	 0.130098
H	 4.1281739794	-2.0157158682	 2.9162979618	 0.131371
H	 5.1689487185	-1.9963941313	 1.4798753717	 0.113355
53.8757	115.9913	140.5508	204.0111	239.0275	248.985	326.8455	420.4874	511.4568	581.6275	655.3987	704.7952	724.0741	756.0419	799.3135	867.1794	917.7762	973.9947	1003.5719	1036.3344	1061.6138	1081.2312	1110.8649	1135.083	1168.7883	1181.7136	1227.4949	1259.3733	1282.0505	1344.7456	1401.6457	1408.7946	1419.491	1444.3124	1475.1882	1488.3488	1492.166	1494.5237	1508.8485	1550.0097	1582.1578	3031.8251	3035.7235	3051.8578	3056.5558	3085.7034	3105.9676	3108.2393	3113.1598	3114.987	3279.0138
CC1CN2C=C(C)N=C12	C[C@H]1Cn2cc(C)nc12	
InChI=1S/C7H10N2/c1-5-3-9-4-6(2)8-7(5)9/h4-5H,3H2,1-2H3	InChI=1S/C7H10N2/c1-5-3-9-4-6(2)8-7(5)9/h4-5H,3H2,1-2H3/t5-/m0/s1
