15
gdb 52290	4.06898	0.81114	0.70882	3.7915	62.58	-0.2665	-0.0385	0.2281	1494.8091	0.10984	-494.906578	-494.897714	-494.89677	-494.942208	29.549	
O	-0.2071709455	 0.3548737092	 0.7325711027	-0.230411
C	 0.1236101546	 1.0863430396	-0.1604568397	 0.14168
C	 1.2971598805	 2.0455645808	-0.0616219314	-0.166003
O	 1.4697562915	 2.6495643975	-1.332778647	-0.256751
C	 2.5325036	 3.5524141093	-1.3857392373	-0.045774
C	 2.6304414754	 4.3440906675	-2.6974680938	-0.11245
O	 2.4826314432	 5.6029522959	-1.9605129141	-0.233706
C	 2.2938502705	 4.952516709	-0.7685815191	 0.435222
O	 2.0181788023	 5.4162095474	 0.2898940177	-0.315393
H	-0.406723572	 1.1252520607	-1.1371570039	 0.100218
H	 1.0889551676	 2.794317286	 0.7158145785	 0.16216
H	 2.1952749268	 1.486864164	 0.2454936258	 0.131084
H	 3.4762681906	 3.0982069831	-1.0508824539	 0.11122
H	 3.5820123724	 4.3120650723	-3.2290477014	 0.135045
H	 1.7879772419	 4.184454048	-3.3720074132	 0.143859
46.7296	56.3806	98.9858	101.7011	182.0622	229.7708	350.5702	371.4366	489.8571	567.2756	724.1458	741.606	756.6988	860.4777	934.1446	961.5725	1038.675	1055.2081	1110.2605	1114.9072	1131.2309	1158.0664	1201.0853	1238.4013	1247.7319	1324.3596	1349.5936	1393.9497	1420.1764	1483.0335	1508.1021	1848.6092	1935.7006	2902.8244	2990.1664	3007.8738	3039.257	3086.6336	3154.8571
O=CCOC1COC1=O	O=CCO[C@H]1COC1=O	
InChI=1S/C5H6O4/c6-1-2-8-4-3-9-5(4)7/h1,4H,2-3H2	InChI=1S/C5H6O4/c6-1-2-8-4-3-9-5(4)7/h1,4H,2-3H2/t4-/m0/s1
