12
gdb 21412	3.34926	2.4717	1.42217	5.3512	61.06	-0.2313	-0.0378	0.1935	785.6041	0.086834	-410.863811	-410.857463	-410.856519	-410.894448	23.781	
N	-0.0646323557	 1.2826383943	 0.3566432643	-0.48169
C	 0.0006871243	 0.0600255458	 0.0195332792	 0.287647
N	 1.1547403799	-0.6560832286	-0.3116953324	-0.378311
C	 1.1581114165	-1.9840958814	-0.6698271227	 0.115136
N	 0.1106734502	-2.7169790177	-0.7416420484	-0.223712
N	-1.0631928719	-2.0790667758	-0.4290551309	-0.290982
C	-1.2673575276	-0.7676990248	-0.0513727213	 0.411833
O	-2.367343006	-0.3345999921	 0.1971919849	-0.332832
H	 0.8560758149	 1.7271612193	 0.3659739638	 0.211478
H	 2.0350739646	-0.1612864889	-0.2839943502	 0.257906
H	 2.1196151556	-2.4237895941	-0.9035557112	 0.147848
H	-1.8875521248	-2.6596339259	-0.4865851949	 0.275679
105.5062	173.9276	351.2645	425.823	495.4503	534.4276	539.4697	577.7444	609.8898	666.3799	724.4996	794.7676	869.9021	885.2622	946.4537	1047.6325	1111.4719	1179.4011	1237.3801	1358.3815	1405.3819	1450.2684	1477.3256	1710.1254	1735.0814	1816.0823	3219.0283	3450.3454	3598.5378	3618.2925
N=C1NC=NNC1=O	[NH][C]1NC=NNC1=O	
InChI=1S/C3H4N4O/c4-2-3(8)7-6-1-5-2/h1H,(H,7,8)(H2,4,5,6)	InChI=1S/C3H4N4O/c4-2-3(8)7-6-1-5-2/h1H,(H,7,8)(H2,4,5,6)
