20
gdb 91449	2.46611	1.68069	1.2925	1.8804	79.	-0.2334	0.0027	0.2361	1063.4296	0.171568	-403.151205	-403.142684	-403.14174	-403.183848	33.123	
C	-0.0611781054	 1.5287826967	 0.0192267904	-0.419032
C	 0.0329779412	 0.0043754963	 0.0153829598	 0.014877
C	 0.9908015365	-0.5680974953	-1.0908974523	-0.227088
C	 1.9665456553	-1.3514964318	-0.2045347504	-0.126057
N	 2.1888418104	-0.3445505501	 0.9105911963	-0.345017
C	 0.7225141842	-0.596279588	 1.2667934889	 0.191849
C	 0.2268297878	-0.2675401971	 2.6474326555	-0.511446
C	 1.0418057898	-2.039891376	 0.815854353	 0.385356
O	 0.9163127526	-3.1326253431	 1.2899555532	-0.33878
H	 0.9219148186	 1.9734412947	 0.198291678	 0.134878
H	-0.4270594055	 1.891937855	-0.9470805053	 0.114631
H	-0.7501391113	 1.8896761527	 0.7900589725	 0.112781
H	-0.9708612499	-0.4238193231	-0.0807344226	 0.078347
H	 0.4807678597	-1.2061527025	-1.8169274185	 0.108479
H	 1.5069769666	 0.2320546456	-1.6279591844	 0.111337
H	 2.8370675208	-1.8296620441	-0.6494454802	 0.088487
H	 2.7734148398	-0.77466669	 1.6291170342	 0.23047
H	 0.3415372884	 0.797568726	 2.8694473903	 0.133224
H	-0.8345927207	-0.5204460149	 2.735071728	 0.134501
H	 0.7667696611	-0.841693701	 3.4069042735	 0.128203
125.8395	159.7593	190.7474	217.0026	248.9333	264.5431	322.0891	418.392	473.2914	507.3052	606.3456	687.6559	693.4876	751.3853	810.8094	832.331	889.5562	892.2219	924.6058	954.1911	1015.9356	1031.3074	1058.6194	1077.4386	1093.6541	1137.3931	1156.4975	1188.8371	1219.6394	1250.8289	1268.633	1305.6057	1315.7501	1354.5484	1380.0812	1404.37	1413.2705	1484.9055	1486.9258	1490.148	1499.1409	1507.0762	1875.835	3033.038	3038.7789	3043.259	3062.9825	3095.8208	3107.3343	3111.8959	3113.0245	3118.2433	3145.8102	3452.7023
CC1CC2NC1(C)C2=O	C[C@H]1C[C@H]2N[C@]1(C)C2=O	
InChI=1S/C7H11NO/c1-4-3-5-6(9)7(4,2)8-5/h4-5,8H,3H2,1-2H3	InChI=1S/C7H11NO/c1-4-3-5-6(9)7(4,2)8-5/h4-5,8H,3H2,1-2H3/t4-,5+,7-/m0/s1
