20
gdb 28904	2.29065	1.73997	1.00729	2.4394	89.6	-0.2381	-0.01	0.228	1205.0252	0.171092	-366.094066	-366.084893	-366.083949	-366.128117	34.075	
C	-0.0354796044	 1.5168594185	-0.0635376818	-0.485293
C	-0.018155111	 0.0065786054	 0.0037399665	 0.263395
N	-0.0570379889	-0.6152420226	-1.1835608498	-0.331248
C	-0.0430178275	-1.9474821368	-1.197252594	-0.012146
C	 0.0108149906	-2.7218635687	-0.0474056286	-0.201568
C	 0.0515210119	-2.0910661784	 1.1946351239	 0.250773
C	 0.1113239662	-2.9017921021	 2.4636957491	-0.495689
C	 0.0357326185	-0.6867894385	 1.2271233137	 0.158877
C	 0.0789963123	 0.0355739765	 2.5521047013	-0.507768
H	 0.8553663088	 1.9581415967	 0.3974701173	 0.125901
H	-0.0700454886	 1.8185987621	-1.1108048035	 0.1382
H	-0.9068069095	 1.9399590636	 0.4492541698	 0.126419
H	-0.0759604981	-2.4179790261	-2.177657068	 0.101271
H	 0.021142542	-3.8050545745	-0.1153197666	 0.088555
H	 1.0047229267	-2.6626855043	 3.0521846196	 0.133864
H	-0.7513787691	-2.7014051757	 3.1098879583	 0.134365
H	 0.1272378539	-3.9723304358	 2.2463307776	 0.124662
H	 1.0083666445	-0.1786238066	 3.0943063549	 0.130255
H	 0.0096329483	 1.1168135659	 2.4356667234	 0.127983
H	-0.7424899365	-0.2800357287	 3.2060887768	 0.129192
51.3979	121.0524	163.9444	172.7936	229.5406	279.3309	303.8474	332.731	465.9125	497.7161	523.205	552.1273	553.8392	670.8085	770.7987	840.8968	850.2362	897.5486	977.5232	994.2634	1006.7487	1032.0607	1057.9978	1075.8147	1094.3569	1129.253	1207.1105	1284.1449	1289.3884	1295.7459	1401.0921	1408.3406	1419.4627	1433.2547	1472.2103	1476.4178	1487.291	1488.642	1492.0297	1502.8772	1509.4001	1608.4529	1624.8902	3025.917	3028.7469	3031.2459	3069.6411	3078.9796	3082.7661	3119.6672	3143.6577	3146.0648	3147.3198	3180.08
CC1=NC=CC(C)=C1C	Cc1nccc(C)c1C	
InChI=1S/C8H11N/c1-6-4-5-9-8(3)7(6)2/h4-5H,1-3H3	InChI=1S/C8H11N/c1-6-4-5-9-8(3)7(6)2/h4-5H,1-3H3
