15
gdb 44443	3.12847	1.84509	1.60895	3.5873	62.85	-0.2276	-0.0262	0.2013	850.7806	0.114484	-457.764746	-457.75849	-457.757546	-457.795458	25.182	
O	 0.0280631535	 0.0127879131	-0.387924575	-0.316995
C	-0.0053830244	 1.1683143592	-0.0525056802	 0.442733
C	-1.2825300293	 1.9451354239	 0.2706884673	-0.350232
C	-0.9614632637	 3.3773782031	 0.6582468024	-0.141047
C	 0.2219354164	 4.0447298412	-0.0225492186	 0.047891
O	 1.0651025917	 3.174148487	-0.7500526741	-0.259209
C	 1.2347530769	 2.0519673591	 0.1055238535	 0.031785
O	 1.2354844386	 2.5435604741	 1.439096957	-0.259208
C	 0.3335594216	 3.6316232447	 1.411603689	 0.047891
H	-1.9377650859	 1.9042690286	-0.6068848597	 0.146569
H	-1.8066748157	 1.4192810429	 1.0768452495	 0.146572
H	-1.7989504184	 4.0210714567	 0.9088480133	 0.103307
H	 0.2178920451	 5.0543326031	-0.4089179324	 0.121423
H	 2.1684521073	 1.5340696591	-0.1163273272	 0.117098
H	 0.4263596864	 4.2828267944	 2.2694596652	 0.121423
97.9751	251.1799	377.0472	424.1762	485.3937	512.1604	599.9227	697.5967	724.6764	758.6449	774.0956	781.8909	876.1207	913.1368	935.6223	942.0882	1023.9937	1050.9448	1062.3143	1073.7194	1101.8622	1109.8356	1156.1299	1205.9888	1223.7163	1262.4338	1284.1629	1315.8887	1334.804	1345.3597	1409.5404	1445.3551	1847.286	3043.1717	3082.3465	3127.3129	3158.8037	3213.5289	3222.3052
O=C1CC2C3OC1OC23	O=C1C[C@@H]2[C@@H]3O[C@H]1O[C@H]23	
InChI=1S/C6H6O3/c7-3-1-2-4-5(2)9-6(3)8-4/h2,4-6H,1H2	InChI=1S/C6H6O3/c7-3-1-2-4-5(2)9-6(3)8-4/h2,4-6H,1H2/t2-,4+,5-,6+
