18
gdb 70392	2.43043	1.53097	1.35061	3.9465	76.1	-0.245	0.0258	0.2708	1044.4044	0.147995	-398.097014	-398.088322	-398.087378	-398.129806	33.439	
C	-0.1108569711	 1.5407496487	 0.0554670923	-0.52075
C	 0.1124373313	 0.062029838	 0.0336244652	 0.334586
N	-0.7835241863	-0.8958574475	 0.722919183	-0.38676
C	 0.6748784076	-0.9050466613	 1.0149155201	-0.092446
C	 1.3013903705	-1.769878783	-0.0728547361	-0.277969
C	 0.6771272641	-0.768678726	-1.1566619458	 0.104311
N	-0.3402874505	-1.1979814882	-2.0919311489	-0.56711
C	 1.7415559486	-0.0552036456	-1.8653538559	 0.27527
N	 2.5998468878	 0.5024805717	-2.402526884	-0.348464
H	 0.7746367608	 2.0744276407	-0.3021850115	 0.152489
H	-0.9533182877	 1.8162378432	-0.5881130322	 0.144507
H	-0.3297412352	 1.8847076692	 1.0718480881	 0.119706
H	-1.250904679	-0.3790575443	 1.4670303883	 0.233217
H	 1.0409089342	-0.7299250515	 2.0186402799	 0.10315
H	 2.3922902451	-1.7625619051	-0.0754205337	 0.127517
H	 0.9267702346	-2.7942294436	-0.1378835877	 0.110889
H	 0.0305266909	-1.8745350916	-2.7515217592	 0.237466
H	-1.0786454555	-1.6445538535	-1.5550737818	 0.250391
126.1511	133.7482	194.831	214.0607	247.0843	308.0131	355.9655	372.7531	455.6178	478.3167	535.6673	559.6345	659.8789	667.2856	761.3882	850.5212	867.9575	893.8551	915.9653	955.7733	957.1391	1018.4893	1041.3554	1074.9564	1102.9513	1117.6988	1153.5308	1227.8836	1234.2156	1295.0885	1338.4383	1346.915	1408.3116	1439.5012	1471.5853	1480.9218	1499.7781	1639.1465	2355.2987	3033.276	3068.9803	3100.1226	3111.3761	3137.8801	3197.8722	3479.4955	3494.2187	3581.4405
CC12NC1CC2(N)C#N	C[C@]12N[C@H]1C[C@]2(N)C#N	
InChI=1S/C6H9N3/c1-5-4(9-5)2-6(5,8)3-7/h4,9H,2,8H2,1H3	InChI=1S/C6H9N3/c1-5-4(9-5)2-6(5,8)3-7/h4,9H,2,8H2,1H3/t4-,5-,6-/m0/s1
