19
gdb 58941	3.44686	1.23029	1.15934	0.9395	74.06	-0.23	0.0699	0.2999	1131.9127	0.158235	-422.952431	-422.944113	-422.943169	-422.985474	32.207	
C	 0.1339629682	 1.4465405179	 0.2482241464	-0.401479
C	-0.0350131285	-0.0500597984	-0.0298084402	-0.013636
O	-1.4136620601	-0.424674199	-0.0251182759	-0.423763
C	 0.657464661	-0.4721483969	-1.2954300311	 0.309461
C	 0.3614379456	-0.0476392434	-2.7403325875	-0.30649
C	 1.3270378158	-1.1943245093	-3.1336610224	 0.067305
O	 2.6241971836	-0.7242390179	-2.6654827593	-0.298734
C	 2.1276018234	-0.9459013575	-1.3479093306	 0.047625
C	 1.040860673	-1.8824200233	-1.7468419727	-0.204531
H	 1.1906857352	 1.7125452158	 0.3490709187	 0.122333
H	-0.2820311397	 2.0430971878	-0.5725960252	 0.111708
H	-0.3890668633	 1.7189569338	 1.1685770515	 0.123547
H	 0.396771769	-0.6176018975	 0.8048050836	 0.085951
H	-1.8545559324	 0.0864462012	-0.7126170523	 0.276692
H	-0.6698399594	-0.2829535507	-3.0196961294	 0.099752
H	 0.6368938629	 0.9561913117	-3.0800534365	 0.101284
H	 1.3559494935	-1.6409423851	-4.1249079792	 0.089539
H	 2.8149584462	-0.926985005	-0.5119992954	 0.108472
H	 0.730158786	-2.8667285742	-1.4260881425	 0.104964
60.5568	137.4802	184.764	247.9869	259.0003	319.5573	370.4059	463.8718	489.5127	572.4744	645.6134	765.7764	775.2443	800.5093	822.4211	884.9395	913.6485	919.639	944.8665	971.124	995.2754	1034.5567	1043.1547	1048.1957	1078.5615	1107.6712	1131.1693	1155.4669	1162.4191	1193.855	1244.0778	1262.2935	1299.1175	1315.4651	1346.4472	1400.3641	1403.2037	1422.9961	1484.8021	1491.517	1494.7498	3025.0351	3031.8537	3040.8657	3099.5574	3102.2036	3122.7769	3148.4282	3200.9169	3217.8305	3802.8335
CC(O)C12CC3OC1C23	C[C@@H](O)[C@@]12C[C@H]3O[C@@H]1[C@@H]23	
InChI=1S/C7H10O2/c1-3(8)7-2-4-5(7)6(7)9-4/h3-6,8H,2H2,1H3	InChI=1S/C7H10O2/c1-3(8)7-2-4-5(7)6(7)9-4/h3-6,8H,2H2,1H3/t3-,4-,5+,6-,7-/m1/s1
