14
gdb 25515	5.31603	0.96894	0.837	1.4797	72.38	-0.2702	-0.0398	0.2304	1275.3033	0.10246	-436.760947	-436.753758	-436.752814	-436.793289	26.187	
O	 2.4830852998	 0.0916838639	-0.0431162692	-0.247917
C	 2.278391265	 1.2268921742	 0.2467225095	 0.156856
O	 1.2715188587	 1.9464543766	-0.3302222472	-0.225215
C	 1.164858584	 3.292132183	-0.0489603594	 0.407724
C	-0.0962322005	 3.7977790488	 0.2444922677	-0.225196
C	-0.2072334528	 5.1624025825	 0.4868271663	 0.023241
N	 0.823141396	 6.0139099639	 0.4614208661	-0.265964
C	 2.020971397	 5.5041158464	 0.171666398	 0.025628
C	 2.2535850454	 4.1568512064	-0.0999772083	-0.241882
H	 2.834993749	 1.8099351803	 0.9998594523	 0.104733
H	-0.9552047146	 3.1391544734	 0.2799348222	 0.124131
H	-1.1787494306	 5.5920801512	 0.7173685268	 0.122363
H	 2.8495330115	 6.2074626273	 0.144082348	 0.121783
H	 3.2438642522	 3.8071946721	-0.3662921429	 0.119716
74.8023	128.8853	172.9479	296.51	395.5606	399.3426	460.528	566.27	667.0527	677.8959	764.5718	850.9225	876.6938	898.5868	984.6117	1003.0368	1009.5046	1044.0648	1079.4865	1102.8083	1117.2771	1237.8664	1268.6357	1294.5665	1355.3252	1415.1833	1443.8951	1523.4761	1616.8091	1623.7983	1877.6637	3000.7693	3161.0324	3164.5413	3204.8617	3214.8131
O=COC1=CC=NC=C1	O=COc1ccncc1	
InChI=1S/C6H5NO2/c8-5-9-6-1-3-7-4-2-6/h1-5H	InChI=1S/C6H5NO2/c8-5-9-6-1-3-7-4-2-6/h1-5H
