13
gdb 5427	3.60163	1.85523	1.22562	4.3936	64.76	-0.2097	-0.0269	0.1828	901.6032	0.096061	-398.641719	-398.634682	-398.633738	-398.672913	26.036	
N	 0.07876992	 1.3442635923	 0.1645604184	-0.588548
C	-0.0490155652	-0.0125739065	 0.0538575216	 0.338414
C	-1.1381839022	-0.865309478	 0.0200518163	 0.10144
C	-2.5342403991	-0.4995057436	 0.0139645945	 0.056342
O	-3.4651816603	-1.279899245	-0.0195419863	-0.298088
C	-0.5725228369	-2.1962627802	-0.0198598938	-0.262737
C	 0.7642140945	-2.0536121364	-0.0105526549	-0.021928
O	 1.1012099952	-0.7049047149	 0.0356246219	-0.18045
H	 0.9546680404	 1.7188809969	-0.1699030716	 0.269981
H	-0.7267405388	 1.8841671974	-0.1110403523	 0.272555
H	-2.7265621571	 0.6011953325	 0.0421493337	 0.031357
H	-1.1361196945	-3.1143876718	-0.0538992854	 0.138073
H	 1.603356304	-2.7267256829	-0.029889522	 0.14359
148.619	174.6723	208.3327	295.3628	333.5761	364.6192	530.284	547.929	612.1141	668.1761	692.3311	740.8693	810.8318	859.0214	909.3766	1006.3272	1022.8429	1049.1763	1146.7712	1189.3667	1288.9942	1337.0019	1439.4675	1497.0045	1587.6196	1608.9606	1665.7854	1772.825	2815.1375	3272.5308	3303.0644	3578.4568	3688.4415
NC1=C(C=O)C=CO1	Nc1c(C=O)cco1	
InChI=1S/C5H5NO2/c6-5-4(3-7)1-2-8-5/h1-3H,6H2	InChI=1S/C5H5NO2/c6-5-4(3-7)1-2-8-5/h1-3H,6H2
