21
gdb 42005	3.25779	1.39677	1.05197	1.1224	84.23	-0.2265	0.0254	0.2519	1174.9404	0.185893	-387.108254	-387.10047	-387.099526	-387.140786	30.649	
C	-0.0815913175	 1.5399025216	-0.0173089352	-0.249035
C	 1.4233682021	 1.9196218175	 0.0237461186	-0.24256
C	 2.133560242	 0.6809317959	 0.615712111	-0.029209
C	 3.5040246736	 0.3168367073	 0.0305398407	-0.259197
C	 3.9459716369	-1.0888387627	 0.529983452	-0.075846
O	 2.9114166408	-1.8173258261	 1.1782877251	-0.240926
C	 1.6934673545	-1.8360081389	 0.4500647503	-0.206484
C	 1.1517779952	-0.437827518	 0.3278145302	 0.354515
C	-0.0481088065	 0.0259359278	-0.0147126086	-0.227173
H	-0.6200983155	 1.9214668328	 0.8624337168	 0.103543
H	-0.5944359598	 1.9556645195	-0.8920379539	 0.099505
H	 1.7815694114	 2.0834639509	-0.9993867624	 0.098144
H	 1.6185901962	 2.835956373	 0.5873710141	 0.093756
H	 2.2412792218	 0.7852729072	 1.7055079255	 0.084143
H	 3.4253910066	 0.31845354	-1.0632090965	 0.098721
H	 4.2623141889	 1.0622406417	 0.2922908075	 0.099566
H	 4.346216206	-1.6774665324	-0.3115160356	 0.087663
H	 4.7373950409	-1.005018095	 1.2798611846	 0.109645
H	 1.8494990791	-2.2851926241	-0.5475468906	 0.09757
H	 1.0173937907	-2.4983769504	 1.0001206068	 0.120674
H	-0.9191348776	-0.5802095677	-0.2424873303	 0.082984
68.12	136.5749	205.1965	266.1765	334.8826	344.4038	459.5688	513.4406	572.3859	655.6117	693.8373	790.1353	822.8057	847.8201	874.8627	898.5198	926.1084	966.9197	976.9329	996.6404	1013.6058	1063.4588	1079.2312	1122.816	1127.3565	1167.7348	1188.3661	1224.1112	1238.1435	1254.4765	1269.8515	1287.6395	1317.9031	1325.0135	1330.6565	1350.6691	1367.4865	1383.3256	1413.298	1484.1302	1484.4831	1494.2358	1500.7543	1510.5885	1727.446	2936.9243	2968.6215	2989.4834	3001.2956	3030.3117	3037.0701	3055.1285	3066.5987	3069.4929	3089.7589	3094.4814	3180.5683
C1CC2CCOCC2=C1	C1C[C@@H]2CCOCC2=C1	
InChI=1S/C8H12O/c1-2-7-4-5-9-6-8(7)3-1/h3,7H,1-2,4-6H2	InChI=1S/C8H12O/c1-2-7-4-5-9-6-8(7)3-1/h3,7H,1-2,4-6H2/t7-/m1/s1
