17
gdb 49469	2.14624	1.56998	1.06997	3.5043	79.04	-0.2367	-0.0183	0.2185	1136.7101	0.134724	-384.62996	-384.621658	-384.620714	-384.663138	31.378	
O	 0.102029243	 0.013418006	-0.5727662226	-0.273432
C	 0.0439735617	 1.1338092317	-0.1227982931	 0.143524
C	 1.2459042582	 1.9928948641	 0.0447543149	-0.096741
C	 1.2801473004	 3.4970600375	-0.1631570617	-0.081203
C	 0.00037772	 4.1832619151	 0.3330838016	-0.264414
C	 0.2980289129	 3.6328444917	 1.7818693467	-0.177692
C	-0.7109091238	 2.8748654818	 2.4977869497	 0.317038
C	-1.5509918065	 2.2545773299	 3.0947940973	-0.448404
C	 1.5428291337	 2.9178674661	 1.2137874925	-0.088574
H	-0.925986405	 1.5737442106	 0.178774345	 0.088294
H	 2.1412880823	 1.4932300983	-0.3154629904	 0.111331
H	 1.9823706306	 3.9268881894	-0.8665206496	 0.104593
H	 0.0638728499	 5.2721035991	 0.300533806	 0.118979
H	-0.942016999	 3.8756815425	-0.1234679141	 0.119683
H	 0.6286665216	 4.4660118284	 2.4098429935	 0.11768
H	-2.2881565122	 1.6972487701	 3.6182241672	 0.202722
H	 2.4754335919	 2.8055264878	 1.7531162872	 0.106618
67.3729	127.0796	164.3207	206.4485	264.1502	347.0947	411.6039	487.5891	497.6986	586.2519	628.3794	643.807	695.9653	776.2616	806.9713	819.5334	930.6746	973.7003	980.6904	992.7792	1030.9644	1047.3413	1059.8237	1089.8144	1094.8704	1147.0472	1207.4687	1211.532	1256.6033	1290.7378	1319.7477	1341.3047	1386.1911	1462.3312	1496.8448	1804.4565	2231.7012	2948.2069	3055.6912	3079.3289	3130.7965	3155.6253	3182.8419	3195.4409	3501.8699
O=CC1C2CC(C#C)C12	O=C[C@H]1[C@H]2C[C@@H](C#C)[C@@H]12	
InChI=1S/C8H8O/c1-2-5-3-6-7(4-9)8(5)6/h1,4-8H,3H2	InChI=1S/C8H8O/c1-2-5-3-6-7(4-9)8(5)6/h1,4-8H,3H2/t5-,6-,7+,8-/m1/s1
