16
gdb 88924	3.28953	0.92742	0.7715	6.8115	74.48	-0.2513	-0.0413	0.21	1429.1502	0.124755	-434.077586	-434.068647	-434.067703	-434.112193	32.133	
N	 0.1193798759	 0.9816983062	 0.0568460804	-0.520628
H	 1.3040994657	-0.0932195181	 1.69024871	 0.272408
H	 0.771500646	 1.6846107363	-0.276344492	 0.244155
H	-0.4753397152	 0.7271363397	-0.7247671012	 0.245824
C	-0.6623881472	 1.4877892226	 1.1590406833	-0.047548
C	-1.4942153083	 0.4829909667	 1.918157143	-0.301501
C	-0.2283361147	 1.0334378419	 2.5345455286	 0.059207
N	 0.9369445737	 0.2087520585	 2.5847802273	-0.323247
C	 1.5586017899	-0.1056536052	 3.7417863555	 0.34811
O	 1.2126378908	 0.2273708722	 4.8569820032	-0.356453
C	 2.7702471227	-0.9281051207	 3.5253403778	 0.209024
N	 3.7206594344	-1.5716582102	 3.3920558474	-0.319061
H	-1.0596311236	 2.5000088571	 1.0893538371	 0.095031
H	-2.4458632127	 0.801703963	 2.3270842805	 0.130141
H	-1.4592282642	-0.5435987532	 1.5706327468	 0.128718
H	-0.3043853731	 1.7080319132	 3.3773453923	 0.135823
50.1395	86.6178	102.6151	213.22	249.2692	301.3118	307.0408	366.7265	450.5698	517.5024	565.2744	624.0788	636.1862	763.8696	781.4257	826.1285	868.0513	890.4406	940.2794	993.4169	1039.139	1064.4256	1125.4091	1161.1145	1168.2726	1232.4695	1256.3013	1272.5047	1365.653	1409.846	1476.948	1537.0939	1659.1116	1779.8769	2348.5411	3098.7121	3141.6641	3206.588	3235.3193	3503.4437	3565.1488	3579.3302
[NH3+]C1CC1[N-]C(=O)C#N	N[C@H]1C[C@H]1NC(=O)C#N	
InChI=1S/C5H7N3O/c6-2-5(9)8-4-1-3(4)7/h3-4H,1,7H2,(H,8,9)	InChI=1S/C5H7N3O/c6-2-5(9)8-4-1-3(4)7/h3-4H,1,7H2,(H,8,9)/t3-,4+/m0/s1
