21
gdb 96156	2.62757	1.52654	1.06251	1.7957	79.36	-0.2349	0.0807	0.3155	1179.522	0.183068	-424.20866	-424.200379	-424.199435	-424.241085	33.011	
C	 0.0268698832	 1.5413515459	 0.0735542673	-0.39661
C	-0.0110722325	 0.0186288091	 0.0121277352	 0.131229
C	 0.6856001186	-0.524924827	-1.2425208658	-0.178939
C	 0.6564219594	-2.0460603302	-1.4096897463	-0.091404
O	 1.3634609622	-2.7307071239	-0.3813914253	-0.24424
C	 0.6096675994	-2.9223235633	 0.7722126756	 0.078382
C	 1.2995348786	-2.6565227477	 2.0821938827	-0.346516
C	 0.2235943011	-1.7189248709	 1.6052522432	 0.079652
O	 0.6351744005	-0.4546752677	 1.2000442614	-0.25946
H	 1.0630330705	 1.8936769644	 0.0945652913	 0.126039
H	-0.4703762707	 1.9798992735	-0.796698497	 0.111712
H	-0.4720283978	 1.8977759012	 0.9784467163	 0.120985
H	-1.0606399311	-0.3183227099	 0.0195682161	 0.063804
H	 0.2179330174	-0.0758729274	-2.1294070293	 0.090704
H	 1.731370894	-0.1953423583	-1.2243477835	 0.110424
H	-0.38107186	-2.4112370905	-1.466649424	 0.086791
H	 1.1534216402	-2.3191121988	-2.3466153354	 0.105501
H	-0.1026739298	-3.747531219	 0.7155039158	 0.081779
H	 1.1046224995	-3.3052668321	 2.9282379829	 0.113133
H	 2.3115005906	-2.2766362149	 2.0034111339	 0.135793
H	-0.7466706733	-1.7420684524	 2.1050131246	 0.081241
128.0224	166.3572	220.0249	254.1421	292.6905	312.8238	371.6861	394.2337	459.5874	478.5853	547.0032	700.9003	769.2756	791.6165	802.7028	850.417	885.3575	940.5177	978.096	979.564	1031.1243	1057.99	1064.8325	1086.8529	1110.6062	1122.3747	1151.0171	1158.0132	1185.2817	1193.8117	1255.7095	1262.6452	1298.1856	1341.6761	1350.4905	1381.2642	1400.006	1404.7339	1414.4109	1419.3013	1457.47	1473.0295	1485.2329	1496.6989	1499.6846	2967.8535	2984.0645	3017.7908	3042.3181	3066.6127	3073.1435	3074.1472	3085.4542	3114.9729	3122.5471	3143.7235	3238.8385
CC1CCOC2CC2O1	C[C@H]1CCO[C@H]2C[C@H]2O1	
InChI=1S/C7H12O2/c1-5-2-3-8-6-4-7(6)9-5/h5-7H,2-4H2,1H3	InChI=1S/C7H12O2/c1-5-2-3-8-6-4-7(6)9-5/h5-7H,2-4H2,1H3/t5-,6-,7+/m0/s1
