20
gdb 77563	2.41908	1.45316	1.31588	3.2301	74.77	-0.2371	0.0692	0.3063	1105.8168	0.169572	-440.251052	-440.241911	-440.240967	-440.284058	35.825	
C	-0.2618810976	 1.5245294589	 0.0831688668	-0.518888
C	 0.07995783	 0.0703000145	-0.011174201	 0.315928
N	-0.7272194945	-0.9610665016	 0.696409163	-0.410052
C	 0.7312979451	-0.859895763	 0.9608303788	-0.171401
C	 1.3476291044	-1.7112669426	-0.1667015229	 0.392527
C	 2.8488169562	-1.8966937878	-0.1625620392	-0.460359
O	 0.7222202504	-2.9709864186	-0.3243314832	-0.487119
C	 0.770008675	-0.6444837786	-1.1893469017	 0.052716
O	 0.0117144977	-1.1478586743	-2.2446143337	-0.444239
H	 0.5763352618	 2.1436335233	-0.2532370248	 0.129367
H	-1.1260719868	 1.7629617901	-0.5466736565	 0.141224
H	-0.5030111901	 1.8144335232	 1.1122367004	 0.115074
H	-1.2207305587	-0.4992942562	 1.4584956599	 0.231955
H	 1.1111528701	-0.6845369255	 1.9610851173	 0.091176
H	 3.1500759493	-2.5600616126	 0.6540302763	 0.123445
H	 3.1760481961	-2.3448972332	-1.1055631627	 0.132912
H	 3.3593137792	-0.9366776425	-0.0405032388	 0.114639
H	-0.171529471	-2.8395470487	 0.0363681759	 0.29498
H	 1.5699381133	-0.0050664508	-1.5843710389	 0.072254
H	-0.1215647499	-2.084608754	-2.035911345	 0.283862
122.1013	196.729	215.4888	219.6294	243.024	264.3347	275.7724	354.3654	371.5426	387.6171	523.3742	568.7008	585.3352	626.835	703.8016	728.8686	794.3077	835.8169	880.5209	916.7936	954.335	968.7141	1010.3272	1045.1561	1095.0019	1098.0592	1112.8912	1158.9008	1180.4068	1186.987	1233.1465	1281.1822	1315.0015	1353.9792	1397.255	1409.3743	1422.3218	1448.4009	1448.7719	1481.5856	1483.5077	1496.0678	1497.2219	3023.7715	3027.4889	3039.2622	3091.4501	3097.5282	3112.3628	3115.4259	3178.8592	3486.1635	3651.6297	3715.8141
CC12NC1C(C)(O)C2O	C[C@]12N[C@H]1[C@@](C)(O)[C@H]2O	
InChI=1S/C6H11NO2/c1-5-3(7-5)6(2,9)4(5)8/h3-4,7-9H,1-2H3	InChI=1S/C6H11NO2/c1-5-3(7-5)6(2,9)4(5)8/h3-4,7-9H,1-2H3/t3-,4+,5+,6-/m1/s1
