18
gdb 22370	2.25172	1.30108	0.86967	2.6443	71.34	-0.2511	-0.002	0.2491	1291.0302	0.146344	-476.18648	-476.177263	-476.176319	-476.220629	34.429	
O	-0.1122275152	 1.2878991388	-0.3213443805	-0.391358
N	-0.0304557179	-0.1111108102	-0.272544008	-0.244998
C	-1.1342023577	-0.6428239495	 0.0592984255	 0.375607
C	-2.4715962617	-0.0079249082	 0.3372527784	-0.344054
C	-3.408953068	-1.2126544624	 0.6108086795	 0.110504
O	-4.7280539789	-1.0423659431	 0.1277524328	-0.429469
C	-2.7415777662	-2.3850347491	-0.1208858626	-0.241605
C	-1.242788867	-2.1584124108	 0.1170302812	 0.071414
O	-0.4261648889	-2.8356446426	-0.8071185398	-0.442352
H	 0.7762413383	 1.5399919298	-0.5955609935	 0.308322
H	-2.429766698	 0.7260126689	 1.1480341306	 0.122099
H	-2.8151513686	 0.5234135191	-0.5591132838	 0.140997
H	-3.4232157362	-1.4218079382	 1.6921757152	 0.07281
H	-5.1601833618	-0.3671027121	 0.6599480443	 0.28435
H	-3.0943300388	-3.3598353262	 0.2204994141	 0.110806
H	-2.9473670924	-2.2973407165	-1.1934882143	 0.123831
H	-0.9938932741	-2.4775650894	 1.1464793857	 0.082378
H	 0.3477136632	-2.2764042682	-0.9490945748	 0.29072
57.9079	120.1687	175.0333	214.568	260.031	285.4953	319.897	358.9304	392.6796	453.6334	490.2531	506.5084	540.6733	561.9792	647.1508	818.8174	863.5409	906.4719	968.3717	1004.5198	1037.0431	1045.0069	1090.6614	1124.9502	1156.0161	1189.1266	1215.6842	1247.2744	1271.871	1281.1135	1297.0421	1360.3005	1372.26	1407.2428	1416.4882	1439.7418	1460.8094	1497.2885	1765.3538	2922.4895	2972.1199	3039.5634	3058.8369	3085.1373	3123.1659	3778.3949	3815.2801	3820.4957
ON=C1CC(O)CC1O	ON=C1C[C@@H](O)C[C@H]1O	
InChI=1S/C5H9NO3/c7-3-1-4(6-9)5(8)2-3/h3,5,7-9H,1-2H2	InChI=1S/C5H9NO3/c7-3-1-4(6-9)5(8)2-3/h3,5,7-9H,1-2H2/t3-,5-/m1/s1
