19
gdb 113027	3.46055	0.99363	0.84645	3.4969	82.24	-0.2403	-0.006	0.2343	1392.967	0.160096	-382.08712	-382.078186	-382.077242	-382.121333	32.944	
C	 0.1549139641	 1.536832768	-0.0701238434	-0.390002
C	 0.0981896414	 0.0077726209	-0.0629558672	-0.156757
C	-1.326881289	-0.5388754975	 0.1184569044	-0.009498
N	-2.2053634358	-0.1571271236	-1.009057762	-0.318573
C	-3.0421015389	-1.300637863	-1.4003182417	-0.14175
C	-2.3382804516	-2.4754046799	-0.7484198565	-0.083363
C	-1.4094008184	-2.0430538855	 0.0945808865	-0.059204
C	-4.4433293397	-1.1907720253	-0.9345775739	 0.248832
N	-5.5342481289	-1.0708189903	-0.5701623518	-0.326027
H	 1.1822732082	 1.8935027824	-0.1879654774	 0.116665
H	-0.4358513452	 1.9433413843	-0.8968494621	 0.125484
H	-0.2366973658	 1.9540659841	 0.8650621586	 0.112221
H	 0.4999539881	-0.387675062	-1.0027888157	 0.102985
H	 0.7246774143	-0.3843809976	 0.7486974991	 0.091943
H	-1.7118160755	-0.1646182389	 1.084547293	 0.082874
H	-2.7532920808	 0.6714552003	-0.8219633217	 0.238171
H	-3.0805079104	-1.4009526833	-2.4947357568	 0.129006
H	-2.6171272186	-3.4992637094	-0.957588986	 0.122954
H	-0.7650098575	-2.6660154737	 0.7027750445	 0.114038
57.4376	106.3594	116.5896	192.2439	225.5837	254.1955	342.9067	408.2499	468.075	494.2692	574.5343	654.6122	720.7559	755.117	814.7946	838.0245	881.9622	919.3093	966.9798	968.8442	974.6784	1033.4798	1048.9099	1095.3183	1132.9263	1142.5195	1151.9515	1246.0043	1285.9505	1304.1814	1334.3066	1340.397	1367.5965	1385.2685	1407.9362	1446.7	1477.6193	1497.2909	1511.259	1694.1319	2343.3175	2930.6264	2995.5932	3023.9961	3031.1256	3068.489	3100.2798	3111.6412	3208.1267	3237.0864	3584.6787
CCC1NC(C=C1)C#N	CC[C@H]1N[C@@H](C=C1)C#N	
InChI=1S/C7H10N2/c1-2-6-3-4-7(5-8)9-6/h3-4,6-7,9H,2H2,1H3	InChI=1S/C7H10N2/c1-2-6-3-4-7(5-8)9-6/h3-4,6-7,9H,2H2,1H3/t6-,7+/m1/s1
