16
gdb 51936	5.60477	0.51682	0.49673	3.2874	81.26	-0.2518	0.0202	0.2719	2123.3105	0.121714	-400.704333	-400.694202	-400.693258	-400.742879	34.186	
O	-0.5014736495	 1.4355762939	-0.4912932611	-0.320448
C	 0.1523131267	 1.5505853321	 0.523422866	 0.161564
N	 1.4978886202	 1.3744861951	 0.611022555	-0.269192
C	 2.3213243563	 1.0927833027	-0.5600942005	-0.289105
C	 3.4737660663	 1.9828703447	-0.6559842035	 0.052495
C	 4.4324031942	 2.7071163155	-0.7096731067	 0.093252
C	 5.5954425188	 3.5928630825	-0.7922809347	-0.490585
C	 6.5852888578	 3.3611758738	 0.2616194975	 0.314041
C	 7.4021568068	 3.1806493885	 1.1224946258	-0.44226
H	-0.2908700962	 1.8094287771	 1.5048119979	 0.081099
H	 1.9586553543	 1.5414299985	 1.4912165984	 0.256345
H	 2.6597391667	 0.0477962405	-0.5473583955	 0.141932
H	 1.6598797482	 1.2025505499	-1.4254709052	 0.176599
H	 6.0743267334	 3.4710120447	-1.7736587533	 0.166433
H	 5.2631876691	 4.639438359	-0.7553505372	 0.165017
H	 8.1249923768	 3.0185732816	 1.8832887073	 0.202812
9.4395	25.4359	76.4714	111.2886	221.5691	250.8035	256.1756	313.7526	329.6802	369.5783	470.0145	524.892	583.1964	625.5832	652.2529	739.7227	827.9017	933.0361	947.0636	971.34	1032.1464	1041.3576	1160.9093	1204.3233	1230.894	1258.3919	1335.5953	1374.2027	1426.0996	1450.9881	1485.9215	1520.0979	1804.4543	2247.7686	2378.8284	2944.1919	3010.1991	3012.5231	3034.9818	3084.8365	3506.3836	3641.7694
O=CNCC#CCC#C	O=CNCC#CCC#C	
InChI=1S/C7H7NO/c1-2-3-4-5-6-8-7-9/h1,7H,3,6H2,(H,8,9)	InChI=1S/C7H7NO/c1-2-3-4-5-6-8-7-9/h1,7H,3,6H2,(H,8,9)
