18
gdb 79711	2.85954	1.73474	1.37995	0.4966	70.7	-0.2198	0.0702	0.29	965.4883	0.14811	-439.00518	-438.997608	-438.996664	-439.038858	29.797	
C	-0.0922056731	 1.5273596175	-0.0655549745	-0.317952
N	 0.0401414987	 0.0682398272	-0.0556557258	-0.093785
C	 0.9244784558	-0.6933707493	-0.9731869387	-0.118664
C	 2.373413485	-0.3614462716	-0.5393344251	 0.024034
O	 2.5041735119	 0.8471059147	 0.2185773357	-0.242075
C	 2.2122286419	-0.3661221749	 0.9221295167	 0.024032
C	 0.7038011146	-0.6997906375	 1.027692636	-0.118666
C	 0.6373334025	-1.9022142875	 0.0038859019	 0.19227
O	-0.5896962653	-2.53529925	-0.1334729021	-0.44777
H	 0.4735309182	 1.9768065188	-0.8855189867	 0.128543
H	-1.1491865919	 1.7981818962	-0.1808533729	 0.103083
H	 0.2817065096	 1.9713428495	 0.8604387018	 0.128555
H	 0.6695078457	-0.7217250987	-2.0328014544	 0.076591
H	 3.2513471654	-0.7017360561	-1.077548952	 0.106544
H	 2.9520114137	-0.7104131684	 1.6365691065	 0.106545
H	 0.2240708334	-0.7346872351	 2.0060777601	 0.076592
H	 1.4107173774	-2.6685020815	 0.0867226135	 0.088539
H	-1.2332502737	-1.8149423133	-0.2021408999	 0.283584
9.1979	211.4687	262.1471	277.3435	316.2393	444.7509	473.4854	502.4553	585.6667	681.3979	726.3456	738.7386	809.4421	835.6344	871.5236	874.6322	921.1961	933.7411	964.825	972.2587	1036.2069	1075.7272	1107.238	1117.3733	1142.7533	1185.0226	1193.3503	1221.5823	1222.891	1244.5539	1257.7088	1273.9058	1299.0147	1308.0014	1383.3462	1441.0421	1455.9855	1485.6271	1506.0308	3016.1635	3085.5273	3101.9085	3114.9344	3118.0767	3119.8695	3170.0956	3182.0948	3734.2197
CN1C2C3OC3C1C2O	CN1[C@H]2[C@H]3O[C@H]3[C@@H]1[C@H]2O	
InChI=1S/C6H9NO2/c1-7-2-4(8)3(7)6-5(2)9-6/h2-6,8H,1H3	InChI=1S/C6H9NO2/c1-7-2-4(8)3(7)6-5(2)9-6/h2-6,8H,1H3/t2-,3+,4+,5-,6+
