21
gdb 92810	2.80625	1.60061	1.19169	0.4325	91.77	-0.2032	-0.0102	0.193	1105.1749	0.185226	-349.984299	-349.976584	-349.975639	-350.016183	31.478	
C	-0.0503802184	 1.5840007061	-0.1564764028	-0.390734
C	 0.0064822168	 0.0574188755	-0.0327542218	-0.020744
C	 0.9178511594	-0.5654287661	-1.144690049	-0.252376
C	 2.2821784075	-0.6611440879	-0.4853235982	-0.257757
C	 2.1539217255	-0.5664525486	 0.8409304628	 0.386445
C	 2.9775055468	-0.3777293197	 2.0230597662	-0.203158
C	 2.2179042194	 0.1074617005	 3.0215694227	-0.065466
C	 0.7683696129	 0.3142714531	 2.6092544748	-0.315668
C	 0.6995772168	-0.4461912748	 1.2609258495	-0.047863
H	 0.9492243157	 2.0262476787	-0.0857018958	 0.120706
H	-0.47574818	 1.8733522398	-1.1231517619	 0.109067
H	-0.6734896321	 2.0311207862	 0.6246046452	 0.110552
H	-1.0131066407	-0.3351497879	-0.1103468074	 0.061206
H	 0.5477816156	-1.5576565156	-1.4457025292	 0.098192
H	 0.9282311912	 0.0448322798	-2.0558963575	 0.095055
H	 3.2067729714	-0.7638449303	-1.0412374947	 0.085294
H	 4.0473878388	-0.5419142604	 2.0697005966	 0.097006
H	 2.587750474	 0.3884438255	 4.001973852	 0.095603
H	 0.0590036434	-0.0636259733	 3.3532425261	 0.101867
H	 0.5629826224	 1.3880730953	 2.5036396101	 0.11282
H	 0.3266293036	-1.4586060459	 1.4772554623	 0.079954
102.4787	177.6957	254.2992	274.5771	316.389	371.4331	434.3578	472.8888	613.5474	644.3214	708.4718	750.047	762.858	818.9289	823.9317	856.2267	917.2529	923.922	939.2959	967.981	975.5706	985.4944	1029.993	1070.7314	1083.9481	1112.2549	1122.4521	1170.9591	1186.9867	1217.8866	1240.5745	1261.1298	1287.5415	1307.1084	1340.772	1344.3663	1371.5027	1378.4956	1407.6536	1481.5816	1483.5353	1501.4507	1502.0707	1622.008	1719.426	2980.7874	2986.0246	3023.0124	3031.044	3044.2587	3045.8079	3063.6683	3097.333	3102.2934	3184.9889	3196.8681	3212.2814
CC1CC=C2C=CCC12	C[C@H]1CC=C2C=CC[C@@H]12	
InChI=1S/C9H12/c1-7-5-6-8-3-2-4-9(7)8/h2-3,6-7,9H,4-5H2,1H3	InChI=1S/C9H12/c1-7-5-6-8-3-2-4-9(7)8/h2-3,6-7,9H,4-5H2,1H3/t7-,9-/m0/s1
