15
gdb 28485	3.08309	1.4397	0.98737	0.6383	73.1	-0.2174	-0.0407	0.1767	1124.991	0.113396	-454.021066	-454.01321	-454.012266	-454.053434	29.81	
C	-0.0110650676	 1.5072515939	-0.085131644	-0.475062
C	 0.033554371	 0.0089100599	-0.0331875875	 0.237225
N	 0.0169373372	-0.686352745	-1.1708371362	-0.388008
C	 0.0572128791	-2.0139546896	-1.1031492942	 0.389059
O	 0.0401213173	-2.7148368513	-2.2593531071	-0.423965
C	 0.1156770248	-2.6875471095	 0.1147842719	-0.101987
N	 0.1329107427	-2.004748488	 1.2606990123	-0.325825
C	 0.092727755	-0.684788587	 1.1887263883	 0.366001
O	 0.1093890922	 0.0278109904	 2.3411371572	-0.420088
H	 0.8707463906	 1.9421092412	 0.3979541472	 0.142199
H	-0.0544076457	 1.8397037632	-1.1230723151	 0.13504
H	-0.882973721	 1.8918653848	 0.4551439433	 0.1422
H	-0.0015061326	-2.0615648901	-2.9705875583	 0.298619
H	 0.148161039	-3.7707400718	 0.1595332379	 0.125927
H	 0.150991938	-0.619226421	 3.0582842942	 0.298665
102.4884	128.8289	223.444	273.6685	345.1531	400.5072	458.5606	482.5802	506.596	515.2872	518.6055	596.4305	648.1772	727.3734	800.9411	806.5374	914.6853	982.8775	1038.4517	1056.304	1135.2408	1188.3625	1277.1593	1298.848	1324.3749	1378.8253	1406.8855	1462.8075	1476.3921	1504.5199	1507.0871	1612.7984	1654.38	3038.9427	3090.9276	3146.8484	3189.5658	3774.9869	3778.506
CC1=NC(O)=CN=C1O	Cc1nc(O)cnc1O	
InChI=1S/C5H6N2O2/c1-3-5(9)6-2-4(8)7-3/h2H,1H3,(H,6,9)(H,7,8)	InChI=1S/C5H6N2O2/c1-3-5(9)6-2-4(8)7-3/h2H,1H3,(H,6,9)(H,7,8)
