23
gdb 123035	5.3154	0.5159	0.498	2.5482	84.54	-0.252	0.0891	0.3411	2277.9981	0.203	-425.401008	-425.390003	-425.389059	-425.43874	38.126	
C	-0.347692863	 1.3405860493	-0.0716618508	-0.226844
O	-0.2968553507	-0.0604049819	-0.1775293073	-0.229686
C	 0.711846644	-0.5099919734	-1.0547063134	-0.052306
C	 0.6768299282	-2.0311763036	-1.0988926486	-0.188938
C	 1.7537901783	-2.6192244976	-2.020892736	-0.231924
C	 1.7058568826	-4.1283194194	-2.042691772	 0.067257
O	 0.6457773793	-4.742219931	-2.788263802	-0.264782
C	 1.9942477583	-4.9760009302	-3.2123626811	 0.076081
C	 2.3961556223	-4.4718312023	-4.5751166621	-0.419325
H	 0.5955430721	 1.7575746208	 0.317301221	 0.100578
H	-0.5556751654	 1.8185939773	-1.0426597236	 0.101626
H	-1.1545002471	 1.5887747405	 0.6224629782	 0.126107
H	 0.5564741658	-0.092219132	-2.0655213726	 0.082656
H	 1.7020352875	-0.1570639561	-0.7136990461	 0.079342
H	 0.8034302239	-2.4134259435	-0.0788367103	 0.105193
H	-0.3124186657	-2.3563866676	-1.4382811834	 0.125193
H	 1.6260956937	-2.2262980954	-3.0342451142	 0.103435
H	 2.7502277157	-2.3068839503	-1.6784535733	 0.098826
H	 1.8606835594	-4.5856724378	-1.0613740144	 0.084139
H	 2.3424386089	-5.9891577598	-2.9962822377	 0.084558
H	 2.0371449634	-3.4576851298	-4.7591702421	 0.127855
H	 3.4868475242	-4.4820834231	-4.6784021518	 0.120879
H	 1.9818359445	-5.1219235533	-5.3529123665	 0.13008
40.9855	54.7682	86.5384	109.203	132.0287	166.8846	208.0105	232.6334	240.6578	358.1693	372.2261	447.6589	493.1297	552.533	746.3229	775.324	824.4248	875.1384	934.8297	977.6199	999.5432	1039.5374	1055.053	1066.333	1111.4241	1143.7082	1165.95	1176.621	1177.9274	1192.5468	1224.4365	1229.3803	1277.4268	1301.3427	1308.5637	1315.5051	1366.5404	1403.3104	1419.856	1427.9621	1469.5231	1473.3052	1481.559	1484.9552	1491.1104	1498.0113	1506.4059	1513.7301	1532.4465	2934.9616	2960.2211	2965.8857	3006.2636	3017.3472	3038.734	3038.7766	3061.3747	3076.3295	3080.0263	3096.6274	3098.5874	3111.7783	3136.6251
COCCCC1OC1C	COCCC[C@H]1O[C@H]1C	
InChI=1S/C7H14O2/c1-6-7(9-6)4-3-5-8-2/h6-7H,3-5H2,1-2H3	InChI=1S/C7H14O2/c1-6-7(9-6)4-3-5-8-2/h6-7H,3-5H2,1-2H3/t6-,7+/m0/s1
