16
gdb 129355	4.03198	0.90988	0.84071	1.4283	72.12	-0.2482	0.0102	0.2585	1359.128	0.126328	-434.075986	-434.067751	-434.066807	-434.111138	28.89	
N	-0.4712810964	 1.0032094303	 0.6053217513	-0.442468
C	-0.6702383287	-0.051731964	-0.0575304582	 0.134989
O	-0.3502911908	-1.2503318728	 0.4724622427	-0.179483
C	-0.7527540766	-2.4007621697	-0.2794318154	-0.222853
C	-2.2063601138	-2.7165778378	-0.1079280455	 0.18692
C	-2.9744218234	-2.5409709731	 1.0281808639	-0.107515
N	-4.214545209	-2.9860608213	 0.7199759116	-0.173402
N	-4.3208074915	-3.4449743568	-0.5404054029	-0.221973
C	-3.1019066478	-3.2810732376	-1.0458201758	-0.090262
H	-0.7361351821	 1.8149615557	 0.0511771068	 0.229018
H	-1.0814854733	-0.1178247152	-1.0742968962	 0.089954
H	-0.513163097	-2.2659256358	-1.3430170133	 0.114597
H	-0.1142500891	-3.2057239354	 0.0969720334	 0.134911
H	-2.732355843	-2.1278013082	 1.9940521491	 0.156524
H	-5.030782799	-2.9866935497	 1.3081744596	 0.279068
H	-2.9022880085	-3.5735763286	-2.066964041	 0.111976
20.2867	56.2933	103.9446	192.6239	259.1498	346.1285	402.7943	543.2874	639.2999	643.914	697.813	735.425	813.1297	821.5415	883.3403	953.2704	963.4173	1011.5706	1030.9927	1043.1473	1068.2186	1125.6194	1168.4518	1225.1313	1251.642	1323.9015	1329.2964	1362.9182	1408.2888	1416.9226	1435.287	1498.0569	1500.1336	1608.8833	1746.6813	3014.2565	3026.5975	3077.4519	3239.9538	3272.3635	3517.1063	3673.1314
N=COCC1=CNN=C1	[NH][CH]OCc1c[nH]nc1	
InChI=1S/C5H7N3O/c6-4-9-3-5-1-7-8-2-5/h1-2,4,6H,3H2,(H,7,8)	InChI=1S/C5H7N3O/c6-4-9-3-5-1-7-8-2-5/h1-2,4,6H,3H2,(H,7,8)
