19
gdb 78230	2.43003	1.56604	1.29396	2.8189	76.02	-0.2322	0.0027	0.2349	1069.9447	0.159449	-423.018651	-423.010251	-423.009307	-423.051139	33.166	
C	-0.0049718254	 1.5086859132	 0.1213855575	-0.496366
C	 0.0179976476	 0.0143839309	 0.0256396966	 0.297446
C	 0.0702850218	-0.7401841451	-1.0790468636	-0.244414
C	 0.0351223033	-2.2348536251	-0.7828216106	 0.101131
O	 1.0782457172	-2.9800470243	-1.3948420278	-0.445726
C	 0.0467264646	-2.2903004387	 0.7524370903	-0.139933
C	 1.2664927155	-1.7077634056	 1.4147546475	 0.104216
O	 2.4510334379	-1.4705054333	 0.6953608118	-0.431997
C	 0.0259024009	-0.8505682173	 1.2550857016	-0.193088
H	 0.8342915752	 1.883270372	 0.7204960874	 0.131501
H	 0.0371815184	 1.976917927	-0.8652831685	 0.129199
H	-0.9190095013	 1.8523786668	 0.6217688159	 0.133465
H	 0.1372822169	-0.3681975287	-2.0958012611	 0.098265
H	-0.8909395247	-2.6722939323	-1.1763213968	 0.091755
H	 1.8875484795	-2.7495049812	-0.9185418651	 0.289357
H	-0.4936387556	-3.084326292	 1.2534875994	 0.090883
H	 1.4970896219	-2.0519160464	 2.4176581373	 0.110822
H	 2.27779562	-0.7376423806	 0.0882849916	 0.285096
H	-0.5185312038	-0.537499209	 2.1396311366	 0.088388
142.2945	160.4045	183.4005	197.0407	290.4472	334.2609	360.1586	411.7344	490.4739	569.7828	588.4078	607.2603	645.5703	763.8887	774.8409	798.4994	849.3573	865.8552	945.09	994.974	1006.221	1024.0684	1047.3376	1068.6688	1072.6646	1077.0977	1104.2723	1167.5508	1191.7113	1251.6717	1274.2112	1303.2166	1330.0704	1352.1709	1361.6912	1413.666	1432.2178	1453.105	1477.4017	1488.5075	1699.6205	3020.6037	3026.7938	3067.7382	3116.3344	3160.9433	3167.6584	3184.4857	3194.183	3731.7898	3748.6675
CC1=CC(O)C2C(O)C12	CC1=C[C@@H](O)[C@H]2[C@@H](O)[C@@H]12	
InChI=1S/C7H10O2/c1-3-2-4(8)6-5(3)7(6)9/h2,4-9H,1H3	InChI=1S/C7H10O2/c1-3-2-4(8)6-5(3)7(6)9/h2,4-9H,1H3/t4-,5+,6-,7+/m1/s1
