19
gdb 75738	2.46696	1.54554	1.20333	3.0773	77.74	-0.2488	-0.0543	0.1945	1097.6003	0.15808	-423.065389	-423.056426	-423.055482	-423.098556	34.39	
C	 0.1196408058	 1.4965139565	-0.0268892513	-0.405257
C	-0.0523458576	-0.0351911505	 0.019064208	 0.187754
C	-1.5435614353	-0.4030962666	-0.0048733666	-0.440554
C	 0.7004564833	-0.673107668	-1.1368994858	-0.054134
C	 1.861966047	-1.247606704	-0.7918279503	-0.20482
C	 2.0554090178	-1.0790588345	 0.6593344176	 0.338417
O	 3.0605219526	-1.1824817258	 1.3292098813	-0.352509
C	 0.7032792047	-0.6440499258	 1.2360783361	 0.010138
O	 0.8531899263	 0.1947417897	 2.3480812845	-0.436514
H	 1.1749693341	 1.7792242239	 0.0057565443	 0.122588
H	-0.3175031996	 1.9047105597	-0.9440331487	 0.108196
H	-0.376601305	 1.9541298238	 0.8321560987	 0.137855
H	-2.0313617832	-0.0089865638	-0.9032042552	 0.113815
H	-1.6873662569	-1.488399093	 0.0086068032	 0.118129
H	-2.055160767	 0.0175412514	 0.8664273257	 0.133218
H	 0.3106386468	-0.6189212408	-2.1497191318	 0.116068
H	 2.5903333459	-1.7040341676	-1.449524582	 0.123027
H	 0.1781680361	-1.5738879874	 1.5215369316	 0.091656
H	 1.7497813542	 0.0268789429	 2.6764360609	 0.292929
74.6151	190.6259	211.1733	242.2809	261.544	272.3646	315.9132	331.172	380.5199	421.7884	526.4077	544.6333	572.3736	688.6281	701.6615	797.7783	828.2342	893.6338	911.1528	956.2728	984.2148	1000.7751	1029.0961	1084.9562	1135.1728	1156.7591	1185.9422	1233.0908	1243.3525	1281.9246	1351.3269	1370.8937	1397.075	1406.2428	1427.4957	1481.1114	1483.8804	1500.5949	1506.3376	1631.4172	1809.0097	2937.0754	3029.4167	3041.4973	3097.6761	3107.9553	3113.3366	3130.0121	3173.7531	3224.9365	3710.125
CC1(C)C=CC(=O)C1O	CC1(C)C=CC(=O)[C@H]1O	
InChI=1S/C7H10O2/c1-7(2)4-3-5(8)6(7)9/h3-4,6,9H,1-2H3	InChI=1S/C7H10O2/c1-7(2)4-3-5(8)6(7)9/h3-4,6,9H,1-2H3/t6-/m1/s1
