18
gdb 14312	2.84915	2.19404	1.8646	3.0075	66.41	-0.2196	0.0575	0.2771	813.3636	0.155913	-384.933661	-384.926648	-384.925704	-384.964498	28.381	
O	-0.3557372916	 1.6615937106	 0.2179581887	-0.441902
C	-0.1900788898	 0.2870329706	 0.117539488	 0.137259
C	-0.4034659221	-0.7191342409	 1.2230521568	-0.108727
C	-1.2729250539	-0.3486980385	 2.4191475991	-0.227117
C	-2.604276086	 0.1913124362	 1.8581589417	 0.073852
O	-2.5351360752	 1.6292528751	 1.8907941575	-0.425066
C	-2.7095546063	-0.3665629491	 0.4176957069	-0.248858
C	-1.2976358492	-0.7325174587	-0.0218564541	-0.105063
H	-1.0814968281	 1.8562653976	 0.8350187325	 0.292645
H	 0.6763246129	 0.0819898302	-0.5055146631	 0.096798
H	 0.3567384251	-1.4774719978	 1.3818736556	 0.078323
H	-1.4630883326	-1.2456267303	 3.0178966044	 0.105048
H	-0.8229794698	 0.3960287866	 3.0837534769	 0.120994
H	-3.4575710732	-0.1187530854	 2.4730543072	 0.081646
H	-3.3160001762	 1.9761673669	 1.4458012273	 0.290021
H	-3.3340482082	-1.2673231271	 0.4181244402	 0.105485
H	-3.2000472272	 0.3583734793	-0.2447506729	 0.096549
H	-1.1993364386	-1.4997214952	-0.7834781227	 0.078112
138.4598	179.6665	263.3017	358.5284	410.7265	416.6346	483.3059	579.4033	645.3785	696.6291	727.84	738.646	786.1692	810.1739	884.2242	912.4169	966.3015	989.4193	1043.5635	1055.2216	1057.5638	1079.8905	1112.811	1115.4359	1189.3113	1208.6557	1232.4075	1252.9401	1293.0211	1321.9955	1326.2454	1361.7343	1372.3136	1409.4313	1421.7301	1474.8251	1486.4721	1505.6455	3019.7052	3029.5988	3049.2968	3064.2843	3087.5741	3142.8018	3147.1841	3161.0675	3616.324	3811.5814
OC1C2CC(O)CC12	O[C@H]1[C@H]2C[C@@H](O)C[C@@H]12	
InChI=1S/C6H10O2/c7-3-1-4-5(2-3)6(4)8/h3-8H,1-2H2	InChI=1S/C6H10O2/c7-3-1-4-5(2-3)6(4)8/h3-8H,1-2H2/t3-,4+,5-,6+
