13
gdb 131984	4.77339	1.08872	0.88741	3.5584	68.	-0.2316	-0.0917	0.1399	1192.9313	0.090714	-485.999857	-485.992351	-485.991406	-486.032098	27.671	
N	-0.097898585	 1.3577199062	 0.152861046	-0.589426
C	 0.0635433964	-0.0144278919	 0.0472101006	 0.414615
N	-1.0061694239	-0.8238590836	 0.0205103966	-0.280736
N	-0.4988999013	-2.067547067	-0.0043452464	-0.252691
C	 0.8482631791	-2.0561554024	-0.0077422439	 0.521035
C	 1.2738440856	-0.7447593641	 0.0277933928	-0.371961
N	 1.5829339065	-3.2827962834	-0.0405278022	 0.342642
O	 0.9210767556	-4.3210995738	-0.059628864	-0.387281
O	 2.8042603173	-3.2106417495	-0.0479456568	-0.352504
H	 0.6003710154	 1.899176227	-0.335632999	 0.256357
H	-1.0344168239	 1.6577868829	-0.0820858649	 0.260231
H	-1.0885995438	-2.8833391305	-0.0260176888	 0.298347
H	 2.290255192	-0.3923057599	 0.0465259799	 0.141373
96.49	156.6896	188.6508	269.4079	343.548	385.3361	426.4018	508.8349	557.3027	629.4313	648.9436	717.5139	742.7247	775.073	827.8488	839.5299	990.5735	1036.3101	1088.0643	1154.3061	1213.4963	1293.9257	1403.3064	1419.074	1502.9931	1537.6837	1599.5891	1625.5882	1652.0626	3292.9537	3560.6355	3660.7315	3673.8248
NC1=NNC(=C1)N(=O)=O	Nc1n[nH]c(c1)N(=O)=O	
InChI=1S/C3H4N4O2/c4-2-1-3(6-5-2)7(8)9/h1H,(H3,4,5,6)	InChI=1S/C3H4N4O2/c4-2-1-3(6-5-2)7(8)9/h1H,(H3,4,5,6)
