21
gdb 86388	2.45787	1.44391	1.08888	1.7699	77.75	-0.2505	0.0719	0.3224	1179.3815	0.182159	-424.224395	-424.215271	-424.214327	-424.257543	35.883	
C	-0.0234170614	 1.5746870306	-0.0227967648	-0.413362
C	 0.039285112	 0.0464887727	-0.0041374359	-0.020434
C	 0.766780112	-0.5865074244	-1.208889729	-0.29103
C	 1.2757308407	-1.9657852199	-0.7189773957	 0.120193
O	 2.477542045	-2.387628413	-1.3509836848	-0.436587
C	 1.4928285095	-1.7871842954	 0.7693588002	-0.084281
C	 2.2644045933	-0.55515197	 1.2107373719	-0.3543
C	 0.7570473291	-0.5518217681	 1.2059260052	 0.398641
O	 0.068334562	-0.5575683086	 2.4218228613	-0.480221
H	 0.9817175086	 2.0107075613	-0.0421703767	 0.114801
H	-0.564929663	 1.9411968753	-0.9009709232	 0.114451
H	-0.5413509107	 1.9576351518	 0.8637961245	 0.106684
H	-0.9869535306	-0.3426706798	 0.0383831018	 0.080396
H	 0.1255116994	-0.6643158091	-2.0923201131	 0.091551
H	 1.6364278517	 0.0161174483	-1.4945219891	 0.107075
H	 0.490377212	-2.7247052875	-0.865133649	 0.065863
H	 2.285427563	-2.536690603	-2.2823871392	 0.278966
H	 1.5273899972	-2.662360046	 1.4068556914	 0.092436
H	 2.7284739264	-0.6249891804	 2.188365861	 0.110938
H	 2.8295394085	 0.0154031352	 0.4817639496	 0.115526
H	 0.1890022751	 0.3033498498	 2.8360532436	 0.282693
118.3201	145.1247	227.2089	231.13	257.765	273.2525	283.1696	335.3196	423.6005	439.1455	467.5363	536.1025	589.4436	600.9185	668.1117	817.5109	883.848	914.3792	921.5639	942.5157	952.3654	977.8366	1033.8893	1048.9596	1058.1269	1082.0593	1094.4936	1130.186	1150.5658	1185.1976	1238.0509	1246.9774	1260.3859	1300.0394	1328.4629	1334.8267	1357.8777	1377.9145	1405.9115	1409.7943	1432.4653	1484.6999	1495.7036	1502.099	1507.789	2967.3812	3014.7804	3025.6792	3042.3954	3085.7782	3091.4403	3098.6169	3134.5079	3186.4267	3221.543	3804.3499	3812.9713
CC1CC(O)C2CC12O	C[C@H]1C[C@@H](O)[C@H]2C[C@@]12O	
InChI=1S/C7H12O2/c1-4-2-6(8)5-3-7(4,5)9/h4-6,8-9H,2-3H2,1H3	InChI=1S/C7H12O2/c1-4-2-6(8)5-3-7(4,5)9/h4-6,8-9H,2-3H2,1H3/t4-,5+,6+,7+/m0/s1
