20
gdb 86034	3.60799	0.92263	0.87749	3.3373	79.63	-0.2735	0.0243	0.2977	1404.4006	0.16953	-403.162567	-403.153057	-403.152113	-403.19709	35.648	
C	 0.0703211037	 1.5916588353	 0.1414505616	-0.410719
C	 0.064436462	 0.0743648858	 0.0557206577	 0.054925
C	 1.0824580551	-0.6236005553	-0.8927510797	-0.270119
C	 1.3061145384	-1.7041262318	 0.1918169668	 0.403913
O	 0.4736990314	-2.8064539554	-0.1124527642	-0.482787
C	 2.7561618917	-2.1743239937	 0.4245125627	-0.39123
C	 2.8245525546	-3.1178215303	 1.5384637842	 0.244917
N	 2.8102121805	-3.8638496193	 2.4216656605	-0.310067
C	 0.6703859245	-0.7407506883	 1.2361973501	-0.28181
H	 1.0754575218	 1.9711164558	 0.360463906	 0.108874
H	-0.2584659585	 2.0444275346	-0.800538953	 0.118382
H	-0.5988220601	 1.947648147	 0.9325512466	 0.119004
H	-0.9438440331	-0.2883329374	-0.1618078223	 0.088815
H	 0.7232484946	-0.9990184724	-1.8527098684	 0.11556
H	 1.9757258706	-0.0109753941	-1.0521414202	 0.094352
H	 0.4155629755	-3.366243917	 0.6719118391	 0.29178
H	 3.1226373138	-2.6691553892	-0.4817432387	 0.15776
H	 3.4121443621	-1.3227903619	 0.6316076454	 0.144983
H	 1.4270690329	-0.1647508953	 1.7792603038	 0.097563
H	-0.0149187113	-1.1933789771	 1.9569243917	 0.105903
58.3541	82.4463	126.1967	226.3655	276.3442	291.3569	333.1327	351.0178	390.8487	403.5928	430.8412	456.3923	488.2196	672.4805	752.476	821.5694	881.2062	895.6943	902.114	921.1063	945.3233	971.3275	1033.4506	1050.0562	1075.5275	1140.0648	1148.1134	1206.1605	1229.1659	1236.0632	1281.8543	1288.365	1298.0497	1305.786	1365.6202	1386.8906	1412.758	1454.1317	1461.8325	1484.5958	1494.417	1497.1466	2354.8943	3022.3068	3046.731	3048.8267	3054.9149	3065.3702	3091.1576	3093.8422	3095.9918	3110.9024	3123.6043	3777.9952
CC1CC(O)(CC#N)C1	C[C@H]1C[C@@](O)(CC#N)C1	
InChI=1S/C7H11NO/c1-6-4-7(9,5-6)2-3-8/h6,9H,2,4-5H2,1H3	InChI=1S/C7H11NO/c1-6-4-7(9,5-6)2-3-8/h6,9H,2,4-5H2,1H3/t6-,7-
