20
gdb 102174	2.29249	1.10542	0.80186	3.491	76.34	-0.263	0.0352	0.2981	1437.0519	0.167827	-440.291044	-440.280203	-440.279259	-440.327863	37.904	
C	 0.1404033647	 1.1484060898	-1.0059972098	-0.252342
O	-0.1463968226	 0.3990024347	 0.162790932	-0.250247
C	-1.2902357727	-0.4218783696	 0.1075985875	 0.095212
C	-1.0016826002	-1.7950214848	-0.5514383936	-0.345516
C	-0.9346147193	-1.7624495319	-2.008160751	 0.251858
N	-0.8996454875	-1.7303287554	-3.1635469922	-0.318683
C	-1.7580574597	-0.6318180135	 1.5649237519	 0.115654
C	-2.0849134935	 0.6870897005	 2.2569084721	-0.419961
O	-2.8511415214	-1.5430883453	 1.6128133348	-0.427062
H	 0.9730465915	 1.8099959813	-0.7561129942	 0.130721
H	 0.43087142	 0.5121125726	-1.8496615137	 0.143243
H	-0.7218914555	 1.7593788748	-1.3102689469	 0.112222
H	-2.0982894173	 0.0799765063	-0.4515259178	 0.074982
H	-0.0560023755	-2.1785322879	-0.153025923	 0.154077
H	-1.7954124882	-2.4860468424	-0.2515671763	 0.171725
H	-0.9440209652	-1.1328883735	 2.1031238264	 0.1028
H	-2.9101294064	 1.1986894774	 1.7438575522	 0.105639
H	-2.3859793434	 0.5036499765	 3.2915263338	 0.127571
H	-1.2194199809	 1.3515233795	 2.246108038	 0.143984
H	-3.6479130868	-1.0646488592	 1.3572813498	 0.284123
37.3157	71.2164	84.1718	133.6093	192.0548	224.0836	230.3907	276.4212	314.1105	330.9383	395.5074	401.2849	420.6142	473.1041	497.9804	584.2402	838.0056	882.0596	939.0892	954.4773	1016.175	1035.7464	1070.1041	1120.6479	1140.5753	1163.9577	1181.3788	1212.0896	1235.2164	1255.9839	1309.6915	1343.9222	1370.13	1392.1796	1398.9861	1414.3805	1459.9118	1480.7855	1491.2463	1496.7681	1497.309	1510.3725	2354.9132	2963.1191	2998.5866	3023.9031	3044.9128	3054.3731	3072.2558	3104.6378	3105.3236	3122.4632	3145.9546	3798.9082
COC(CC#N)C(C)O	CO[C@@H](CC#N)[C@@H](C)O	
InChI=1S/C6H11NO2/c1-5(8)6(9-2)3-4-7/h5-6,8H,3H2,1-2H3	InChI=1S/C6H11NO2/c1-5(8)6(9-2)3-4-7/h5-6,8H,3H2,1-2H3/t5-,6+/m1/s1
