20
gdb 82194	2.45714	1.80987	1.39268	2.0081	77.36	-0.225	0.062	0.287	1015.3047	0.171465	-403.106332	-403.098189	-403.097245	-403.138397	32.861	
C	 0.0073865266	 1.4652179396	 0.0066176842	-0.488203
C	-0.064681198	-0.0420221129	-0.0020989008	 0.359414
C	-0.8569587152	-0.7839447025	 1.0109318569	-0.288719
N	 0.6141985644	-0.7774479207	 1.0857382796	-0.147504
C	 1.3257987177	-1.9089498509	 0.4890483376	 0.006207
C	 0.6247512509	-3.0503627366	-0.2021179849	-0.305406
C	 1.1699601413	-1.8969491468	-1.0117828484	-0.072419
C	 0.1950516168	-0.7580817251	-1.341011772	 0.003166
O	-1.0480521327	-1.1724871934	-1.899890124	-0.428998
H	 0.9755293291	 1.8172657858	-0.3678939284	 0.115526
H	-0.7773593344	 1.8913001833	-0.6286829458	 0.12423
H	-0.1228969491	 1.8513091139	 1.0207603966	 0.12466
H	-1.3448805619	-0.2306545461	 1.8100127091	 0.108272
H	-1.3814255996	-1.6836009547	 0.7121577141	 0.125738
H	 2.2813011928	-2.1079692767	 0.9615407054	 0.094728
H	 1.1702886053	-3.9870881256	-0.2515082061	 0.110118
H	-0.448820465	-3.1725307436	-0.1334871631	 0.127594
H	 2.0080461582	-2.0633892439	-1.6799246048	 0.082617
H	 0.6911300147	-0.0532760007	-2.0241803217	 0.065647
H	-0.8569803917	-1.6665445122	-2.7037446137	 0.283335
129.4384	196.261	210.7594	249.7418	273.0898	306.8657	404.0867	446.5353	502.4872	562.6716	621.9337	673.6315	729.9712	765.6072	806.2699	827.8066	855.597	931.498	950.122	966.9834	989.5361	1038.75	1047.9552	1052.0202	1095.7979	1107.6156	1113.2597	1119.5809	1120.1046	1173.3466	1193.3529	1237.5344	1259.7637	1328.4123	1336.3222	1378.575	1385.733	1413.2382	1427.9271	1479.1553	1487.1971	1494.2896	1520.2025	2990.5167	3027.9199	3089.4664	3113.1289	3118.4043	3137.396	3159.7715	3169.4557	3209.5752	3223.8549	3814.0778
CC12CN1C1CC1C2O	C[C@]12CN1[C@H]1C[C@H]1[C@H]2O	
InChI=1S/C7H11NO/c1-7-3-8(7)5-2-4(5)6(7)9/h4-6,9H,2-3H2,1H3	InChI=1S/C7H11NO/c1-7-3-8(7)5-2-4(5)6(7)9/h4-6,9H,2-3H2,1H3/t4-,5+,6-,7-,8?/m1/s1
