14
gdb 17325	2.89373	2.49981	1.78499	1.8133	55.96	-0.2368	0.0457	0.2825	750.0993	0.105762	-419.576029	-419.569334	-419.56839	-419.606403	26.712	
O	 0.1109595752	 1.4172852786	-0.0740752911	-0.424348
C	-0.0760618576	 0.0474971729	 0.010359576	 0.072274
C	-0.4361663838	-0.7848987434	 1.2318422796	-0.23138
C	-1.6072138635	-0.1890177054	 2.055461013	 0.037182
O	-2.0186101017	 1.0850173229	 1.493028034	-0.270118
C	-2.4808613737	-0.1421720805	 0.8921371801	-0.052541
C	-1.3538950217	-0.7432698184	-0.0153236421	 0.261767
O	-1.6282709379	-1.7787929757	-0.8862905117	-0.446886
H	-0.5890685736	 1.8087612809	 0.4661882418	 0.296527
H	 0.6870718397	-0.4646128553	-0.5743459037	 0.115772
H	 0.1896935425	-1.5895492732	 1.5961390079	 0.105465
H	-1.8168866684	-0.3469565143	 3.1056084982	 0.121037
H	-3.5486084007	-0.2852114646	 0.7752383168	 0.120722
H	-1.7126872049	-1.4132601145	-1.7745815688	 0.294528
210.8765	249.0269	280.4582	319.0624	339.9305	439.7483	534.2275	565.2748	629.7122	682.801	744.5884	772.1744	801.6472	866.918	886.3915	938.3119	958.4822	971.3168	1029.3319	1070.5772	1119.6385	1169.0243	1204.0427	1233.5223	1265.0838	1301.5187	1304.5812	1364.3071	1428.1593	1489.8617	3130.6746	3188.1614	3197.9829	3208.4938	3743.0642	3785.2674
OC1C2C3OC3C12O	O[C@H]1[C@H]2[C@H]3O[C@H]3[C@@]12O	
InChI=1S/C5H6O3/c6-3-1-2-4(8-2)5(1,3)7/h1-4,6-7H	InChI=1S/C5H6O3/c6-3-1-2-4(8-2)5(1,3)7/h1-4,6-7H/t1-,2-,3+,4-,5+/m1/s1
