21
gdb 53695	5.99295	0.4712	0.45061	1.6011	89.08	-0.2416	0.0613	0.3028	2427.8975	0.180037	-387.049544	-387.038756	-387.037811	-387.088529	36.647	
C	-0.0292511224	 1.4592749421	 0.2377304992	-0.496999
C	-0.0082879102	 0.0133786563	 0.0657812375	 0.110952
C	 0.0181863852	-1.1820951624	-0.0762335558	 0.022883
C	 0.0149444527	-2.6313053937	-0.2439231071	-0.358501
C	-1.3919264565	-3.2511276688	-0.1316752065	-0.163737
C	-1.3796095784	-4.7731699438	-0.3197664246	-0.221128
C	-2.7573247316	-5.3764622405	-0.1979964139	 0.094673
C	-2.9947165094	-6.6914299	 0.4087985322	-0.181362
O	-3.2889213741	-5.4915548927	 1.1262694554	-0.235653
H	 0.6048965062	 1.7713770877	 1.0751152809	 0.145506
H	 0.3320599335	 1.9742589454	-0.6595221813	 0.144617
H	-1.0433523284	 1.8219178164	 0.4398503992	 0.146044
H	 0.4482868218	-2.8909729131	-1.2198537079	 0.120962
H	 0.6724567636	-3.0914350626	 0.5064399216	 0.124471
H	-1.8174021817	-3.0106825137	 0.8481841376	 0.126001
H	-2.0465053247	-2.7873674969	-0.8792751258	 0.105381
H	-0.9684377399	-5.0249818595	-1.3072695957	 0.0991
H	-0.7241087124	-5.2368988634	 0.4275260489	 0.102697
H	-3.4869490461	-5.0218179943	-0.9296664737	 0.089694
H	-3.8589943457	-7.2826491374	 0.1086396594	 0.113233
H	-2.1500228215	-7.2665249152	 0.7869744806	 0.111164
13.7694	42.3986	67.4694	85.7684	118.2335	169.346	220.252	280.1712	294.7889	385.7761	403.0884	448.6707	530.4271	738.6226	760.0584	798.7434	847.4929	879.3682	948.9738	1009.8295	1039.2429	1050.4168	1053.5464	1056.8479	1103.1202	1128.2765	1158.6944	1168.4997	1170.0715	1205.5187	1258.6734	1295.194	1300.5033	1325.4398	1347.4813	1388.8895	1415.6223	1449.2603	1471.4012	1475.2545	1479.453	1479.7367	1502.4281	1531.1574	2374.0333	3004.2674	3013.343	3024.3107	3029.9089	3039.5842	3055.1628	3078.6194	3083.6712	3084.0514	3084.5812	3093.0247	3164.4852
CC#CCCCC1CO1	CC#CCCC[C@H]1CO1	
InChI=1S/C8H12O/c1-2-3-4-5-6-8-7-9-8/h8H,4-7H2,1H3	InChI=1S/C8H12O/c1-2-3-4-5-6-8-7-9-8/h8H,4-7H2,1H3/t8-/m0/s1
