17
gdb 131722	5.41174	1.01352	0.88547	1.8208	77.61	-0.2278	0.0319	0.2597	1294.3232	0.137725	-417.984011	-417.975919	-417.974974	-418.017578	29.344	
O	 0.1171348477	 1.3004445433	 0.4608607709	-0.41745
C	-0.0246780044	 0.0399296842	-0.1846993471	-0.183365
C	-1.4231702112	-0.4490785035	 0.0311975982	 0.363366
N	-1.6482778649	-1.7608549418	 0.2370611671	-0.370031
N	-2.9839728115	-1.792213425	 0.3122346781	 0.087731
C	-4.1766652538	-2.5877123367	 0.6317249327	-0.168442
C	-4.9670218851	-1.2230691579	 0.480590636	-0.374416
C	-3.5994931238	-0.6059193229	 0.2061002112	 0.396966
C	-2.6122506664	 0.3393637509	 0.011487619	-0.468845
H	 0.9677261787	 1.6670496174	 0.2020924567	 0.286882
H	 0.1753064567	 0.1367947875	-1.2647156872	 0.095777
H	 0.6742226563	-0.7106841986	 0.210916396	 0.107868
H	-4.4080425292	-3.3642005233	-0.1020340574	 0.132068
H	-4.1700174487	-3.0122986936	 1.6389757221	 0.135872
H	-5.6803439498	-1.1997788781	-0.3462771988	 0.130451
H	-5.4628606881	-0.8892850644	 1.3947156535	 0.133084
H	-2.6773478125	 1.4062073826	-0.1121178711	 0.112484
49.4604	79.8743	165.0899	223.9096	256.7142	297.5942	388.7564	510.2578	616.3058	655.3103	706.6817	793.8666	802.6411	816.1115	830.4681	908.2341	1004.2778	1024.8341	1059.0237	1071.0073	1092.0961	1133.1779	1147.1809	1171.8408	1218.1885	1235.057	1239.2625	1272.8797	1336.1126	1379.5738	1420.803	1475.5637	1486.505	1497.9495	1513.794	1532.7039	1571.1327	2960.8697	3016.6676	3060.6269	3073.8965	3112.1357	3127.3815	3289.3879	3829.0397
OCC1=NN2CCC2=C1	OCc1nn2CCc2c1	
InChI=1S/C6H8N2O/c9-4-5-3-6-1-2-8(6)7-5/h3,9H,1-2,4H2	InChI=1S/C6H8N2O/c9-4-5-3-6-1-2-8(6)7-5/h3,9H,1-2,4H2
