23
gdb 92081	2.49121	1.46067	1.20018	1.6821	84.06	-0.2562	0.0628	0.319	1167.1766	0.207434	-388.29491	-388.285961	-388.285016	-388.327958	35.597	
C	 0.0492981304	 1.5602708756	 0.003418231	-0.403132
C	 0.0672948203	 0.0293829561	 0.023133702	 0.015878
C	 0.76854694	-0.5465547937	-1.2249699796	-0.245809
C	 0.9278117458	-2.0670058519	-1.2024562266	-0.027625
C	 2.1514120463	-2.7133524432	-0.5918058024	-0.296288
C	 0.8245433088	-2.8148786032	 0.1136799429	-0.008638
C	 0.5335116414	-2.0540171651	 1.3974237877	-0.24761
C	 0.701232724	-0.5242223245	 1.3122081279	 0.126467
O	 2.0569914195	-0.1026442504	 1.4810815701	-0.444258
H	 1.0634229122	 1.9599635353	 0.0991096205	 0.12094
H	-0.3818317679	 1.9404096177	-0.9287106561	 0.105929
H	-0.5413836869	 1.9591977386	 0.8347247509	 0.111102
H	-0.9694112037	-0.3354779643	 0.0130071748	 0.072718
H	 0.191675581	-0.255313852	-2.1088663004	 0.101945
H	 1.7466311415	-0.0599533159	-1.355959804	 0.090378
H	 0.5230604156	-2.5757990853	-2.0716602532	 0.082078
H	 2.5531459698	-3.6027331171	-1.065686972	 0.107448
H	 2.9138052342	-2.0752368136	-0.1560701296	 0.100454
H	 0.3501473374	-3.7912275366	 0.0688104776	 0.080628
H	-0.5100578493	-2.2472704351	 1.6792283491	 0.093955
H	 1.1541924719	-2.425757017	 2.220925818	 0.104319
H	 0.18180458	-0.0877546473	 2.1735102602	 0.078694
H	 2.5157867777	-0.193197657	 0.640981521	 0.280428
104.6344	138.411	210.702	235.8707	253.5705	287.677	318.7207	368.4795	382.1283	445.8604	537.4192	573.3215	695.8486	741.578	805.1961	818.0149	864.8475	866.3618	886.3854	925.8808	974.7365	998.0553	1026.6777	1040.2452	1052.8038	1090.1512	1104.1301	1120.8553	1134.574	1145.5953	1169.3085	1210.7879	1240.9219	1258.1027	1277.9113	1300.8428	1320.4158	1362.536	1375.7453	1378.2269	1399.2423	1411.7932	1418.737	1433.7359	1475.196	1492.6685	1494.8489	1502.2965	1507.9181	2992.4448	3009.4878	3015.292	3032.9487	3039.7663	3060.9251	3063.0861	3098.2367	3110.194	3126.507	3136.5244	3150.7911	3206.868	3830.0001
CC1CC2CC2CC1O	C[C@H]1C[C@H]2C[C@H]2C[C@H]1O	
InChI=1S/C8H14O/c1-5-2-6-3-7(6)4-8(5)9/h5-9H,2-4H2,1H3	InChI=1S/C8H14O/c1-5-2-6-3-7(6)4-8(5)9/h5-9H,2-4H2,1H3/t5-,6-,7-,8+/m0/s1
