21
gdb 80380	2.15999	1.59247	1.35746	1.2277	78.21	-0.2404	0.0693	0.3097	1094.0484	0.180187	-424.194697	-424.185035	-424.18409	-424.228	37.687	
C	-0.215457539	 1.5968622991	 0.0042946063	-0.464036
C	-0.0196706907	 0.079953089	-0.0043318191	 0.25946
C	-1.3420380222	-0.6353771915	-0.2972789494	-0.42292
C	 1.1356340478	-0.5056438763	-0.8948993784	-0.277956
C	 1.7118545527	-1.2430886562	 0.3211717955	-0.175428
C	 2.1138072292	-0.2474058058	 1.3771950157	 0.012849
O	 2.6453614267	 1.0196711829	 1.0969819499	-0.420094
C	 0.66251032	-0.5657091455	 1.2247963138	 0.332432
O	-0.0530673288	-1.1440456226	 2.2643812084	-0.462367
H	 0.7245324565	 2.1173724828	 0.191000324	 0.138975
H	-0.6219868095	 1.9386390553	-0.9549849143	 0.104523
H	-0.9320252333	 1.8902788329	 0.7813441299	 0.101442
H	-1.7326648881	-0.3244541757	-1.2724600137	 0.104088
H	-1.2171911265	-1.7225390535	-0.306638555	 0.11531
H	-2.0926957232	-0.3985839953	 0.4631786	 0.111781
H	 0.7700674282	-1.1707216541	-1.6799064901	 0.098906
H	 1.8042358571	 0.2370629605	-1.3389443435	 0.090291
H	 2.0849849173	-2.2604620783	 0.3291645589	 0.089084
H	 2.5324437574	-0.7186669031	 2.2685559629	 0.088908
H	 3.5236700551	 0.8953367411	 0.7212104418	 0.287079
H	-0.1151194166	-0.5038060756	 2.9816567664	 0.287672
144.4194	181.8342	200.1718	221.0695	244.1674	265.897	274.1976	289.7783	320.6322	360.1044	393.9684	446.1845	544.0641	583.6437	638.9397	665.6622	796.4006	832.9821	873.8265	910.3602	943.03	965.6386	992.6451	1000.4825	1032.5791	1042.6722	1112.7216	1131.5524	1177.5696	1223.5657	1227.5302	1237.8785	1268.1929	1290.0582	1300.9996	1333.5308	1343.3295	1397.7989	1417.7564	1463.1011	1482.3445	1488.5851	1498.752	1501.0101	1514.8064	3022.2899	3031.1371	3057.8609	3076.5345	3089.6229	3100.2842	3104.9166	3113.0952	3144.4878	3180.8448	3796.2883	3799.1407
CC1(C)CC2C(O)C12O	CC1(C)C[C@H]2[C@@H](O)[C@@]12O	
InChI=1S/C7H12O2/c1-6(2)3-4-5(8)7(4,6)9/h4-5,8-9H,3H2,1-2H3	InChI=1S/C7H12O2/c1-6(2)3-4-5(8)7(4,6)9/h4-5,8-9H,3H2,1-2H3/t4-,5+,7+/m0/s1
