17
gdb 81347	2.80046	1.56357	1.25295	2.789	69.65	-0.2225	0.0182	0.2408	1023.4493	0.1378	-455.123722	-455.116125	-455.115181	-455.155335	30.328	
N	 0.0442253873	 1.3198438069	-0.1652688011	-0.569817
C	-0.0134901708	-0.048254841	-0.0083176439	 0.385257
N	-1.122272728	-0.6830126533	-0.0132224112	-0.298988
C	-1.0054438603	-2.1457973078	 0.0177644217	-0.170502
C	 0.4520040116	-2.6113641229	 0.0216300257	 0.052306
O	 1.1515049099	-1.8420518544	 1.0528845694	-0.287225
C	 1.3083741192	-0.8024318557	 0.059490485	-0.073817
C	 1.2647135156	-1.8768101724	-1.0635487378	 0.152296
O	 2.4725712438	-2.5506089768	-1.3007444864	-0.445927
H	 0.796709271	 1.7944507857	 0.3110494057	 0.250942
H	-0.8523708982	 1.7792101472	-0.0746609552	 0.254629
H	-1.5166420646	-2.5218581459	 0.9130351672	 0.114136
H	-1.5342204889	-2.5683676662	-0.8473670874	 0.104437
H	 0.5957323507	-3.6896493209	 0.1253082766	 0.089515
H	 2.2020588598	-0.1883216593	 0.2045063413	 0.072941
H	 0.7473376358	-1.6017577446	-1.991190347	 0.084688
H	 3.0272294062	-1.9928469986	-1.8557475626	 0.285129
157.4315	215.7062	276.0069	288.1949	310.8052	378.5801	394.2841	444.7691	479.5869	537.2349	596.8555	718.136	731.0791	849.9471	870.9537	898.9245	917.524	948.2534	974.0029	1005.0927	1012.6939	1082.8439	1118.3233	1172.0818	1177.5387	1199.2252	1226.5928	1256.1754	1288.5321	1306.2655	1329.2157	1356.1459	1408.3232	1439.6857	1482.3155	1625.1174	1730.6752	3013.9721	3026.3042	3045.4343	3071.5111	3090.9307	3552.2073	3666.8713	3814.8617
NC1=NCC2OC1C2O	NC1=NC[C@@H]2O[C@H]1[C@H]2O	
InChI=1S/C5H8N2O2/c6-5-4-3(8)2(9-4)1-7-5/h2-4,8H,1H2,(H2,6,7)	InChI=1S/C5H8N2O2/c6-5-4-3(8)2(9-4)1-7-5/h2-4,8H,1H2,(H2,6,7)/t2-,3-,4-/m0/s1
