20
gdb 90621	4.05777	1.22736	1.13419	2.8326	79.35	-0.2207	0.0703	0.291	1169.2701	0.170633	-403.080176	-403.071938	-403.070994	-403.112491	32.535	
C	-0.0883791263	 1.4741518407	-0.0654313433	-0.41358
C	 0.021570188	-0.034023402	 0.0340202955	 0.15785
O	 1.0891013203	-0.5501070033	-0.8229295248	-0.313618
C	 1.7876697825	-1.0965912121	 0.3006657391	 0.079238
C	 0.7262536254	-0.5957568189	 1.2987544169	-0.10697
C	 0.4518428296	-2.0648601169	 1.6921754036	-0.135733
N	 0.0275749776	-2.7762765858	 0.4622291976	-0.363497
C	 1.4707307957	-2.5697163121	 0.7160884466	 0.331834
C	 2.4414324568	-3.7081704735	 0.7631802021	-0.521153
H	 0.852460397	 1.9598523638	 0.2131630666	 0.114278
H	-0.3340179893	 1.7699384002	-1.0901971545	 0.126106
H	-0.8805665788	 1.8421682727	 0.5966355433	 0.111072
H	-0.9258849773	-0.5245241616	-0.2069322109	 0.096402
H	 2.8480667783	-0.8283208253	 0.3350948586	 0.07179
H	 0.9580997818	 0.0945367382	 2.1084921037	 0.074752
H	 0.1741633096	-2.4386839201	 2.6709076619	 0.08973
H	-0.1804622902	-3.7381920685	 0.7305929447	 0.224679
H	 2.6464860644	-4.0937148069	-0.2426220471	 0.135136
H	 3.3956267837	-3.3964474626	 1.201629421	 0.125154
H	 2.0514865513	-4.5354745959	 1.3670492992	 0.11653
126.7293	183.6431	201.4952	237.5944	251.4703	300.0676	334.7392	390.8162	534.9553	548.6345	654.9787	715.6394	795.5011	810.1557	859.0523	860.7063	889.7565	909.2553	937.9931	968.3454	1010.4316	1025.324	1050.3828	1070.5698	1088.9676	1104.2786	1108.0432	1147.1792	1189.0768	1209.3377	1242.7191	1267.7069	1291.6559	1318.0964	1349.5732	1367.4281	1403.1684	1409.5759	1440.7621	1481.8035	1482.5445	1494.5741	1497.1855	3020.9158	3029.1848	3060.5047	3068.5936	3084.7907	3092.2627	3101.7369	3109.5165	3124.3778	3179.3583	3465.9711
CC1OC2C1C1NC21C	C[C@H]1O[C@H]2[C@@H]1[C@H]1N[C@@]21C	
InChI=1S/C7H11NO/c1-3-4-5-7(2,8-5)6(4)9-3/h3-6,8H,1-2H3	InChI=1S/C7H11NO/c1-3-4-5-7(2,8-5)6(4)9-3/h3-6,8H,1-2H3/t3-,4+,5-,6+,7-/m1/s1
