12
gdb 131182	3.62883	1.14773	0.87352	0.8327	63.5	-0.2366	-0.0509	0.1857	1202.8651	0.075601	-505.894994	-505.886902	-505.885957	-505.929179	27.799	
O	 0.1356406696	 1.379877695	-0.0036708964	-0.421084
C	 0.0980588884	 0.0366745846	-0.0452121062	 0.196566
C	 0.0297556502	-0.783663847	-1.137755921	 0.454674
O	-0.0430634111	-0.4625379015	-2.4312963546	-0.213466
C	 0.1333204749	-1.4390128945	-3.3891514772	 0.107601
N	-0.0102217377	-1.1036743671	-4.5884649317	-0.411303
O	 0.0124968592	-2.0466165585	-0.7212306471	-0.225653
N	 0.0801056263	-1.995027565	 0.7233530771	-0.028756
N	 0.1240912542	-0.7715906597	 1.0451140718	-0.175948
H	 0.1682375399	 1.6440587729	 0.9237101652	 0.317629
H	 0.3883273713	-2.4133968565	-2.9708510821	 0.150061
H	 0.1546162648	-1.9008776126	-5.1999784178	 0.249679
30.3356	86.0209	150.6837	224.8961	276.6228	306.7834	373.6905	462.0166	532.4058	646.0121	663.0992	702.1263	710.4666	827.2089	844.7858	990.7272	1021.0403	1044.1603	1157.3434	1240.4694	1276.3816	1364.1814	1408.8495	1423.9878	1465.1966	1724.7988	1763.7164	3129.5982	3525.3702	3811.9419
OC1=C(OC=N)ON=N1	Oc1c(O[CH][NH])onn1	
InChI=1S/C3H3N3O3/c4-1-8-3-2(7)5-6-9-3/h1,4,7H	InChI=1S/C3H3N3O3/c4-1-8-3-2(7)5-6-9-3/h1,4,7H
