19
gdb 91565	2.71296	1.26948	1.02193	2.8662	78.77	-0.2487	0.025	0.2737	1210.6164	0.159423	-382.04581	-382.037053	-382.036109	-382.079753	32.636	
C	 0.2724774757	 1.6091537594	 0.72664295	-0.418483
C	 0.1424022039	 0.1333156384	 0.3742210957	-0.04505
C	 0.7678816409	-0.4326040467	-0.9331576042	-0.180014
N	 1.4990710256	-1.5235693436	-0.1879375185	-0.174671
C	 2.4282869036	-0.8109499186	 0.7133778994	-0.281466
C	 1.0075448393	-0.9029588364	 1.1031920458	 0.338904
C	 0.529316657	-1.7645899141	 2.2517290475	-0.441487
C	 0.4603147323	-1.0144909571	 3.5074501038	 0.26546
N	 0.4039105936	-0.4006293253	 4.4848143051	-0.310048
H	 1.3112916123	 1.9490133228	 0.6726898543	 0.118512
H	-0.3146876897	 2.2245734839	 0.0366226237	 0.119844
H	-0.0899313038	 1.8029121094	 1.7413281153	 0.139715
H	-0.9093261163	-0.1653964984	 0.4358828385	 0.085136
H	 0.0490773065	-0.8644910087	-1.6313731159	 0.115136
H	 1.440319553	 0.2370729292	-1.4800444766	 0.108244
H	 3.1284397784	-1.4735108912	 1.2132711997	 0.125164
H	 2.8565746875	 0.1345866193	 0.3894558711	 0.118916
H	-0.4650793693	-2.1724005825	 2.0330198219	 0.154411
H	 1.2021378194	-2.6192427398	 2.3802172333	 0.161778
46.5617	94.3973	182.5021	211.5485	243.9234	301.4882	357.114	391.7899	446.5793	479.6669	512.9153	691.1165	713.2032	794.4413	862.9105	872.8734	907.2552	924.269	940.8054	954.4485	1012.5445	1083.0027	1095.2406	1112.7401	1131.1757	1154.0886	1185.1625	1206.6852	1245.4501	1281.4455	1312.6175	1324.838	1373.5777	1400.8207	1418.0947	1457.1477	1491.4372	1496.3392	1498.7653	1514.8071	2361.9896	3034.2875	3039.1937	3047.2981	3049.0141	3084.9481	3101.9352	3107.476	3110.9147	3118.0838	3197.7978
CC1CN2CC12CC#N	C[C@H]1CN2C[C@@]12CC#N	
InChI=1S/C7H10N2/c1-6-4-9-5-7(6,9)2-3-8/h6H,2,4-5H2,1H3	InChI=1S/C7H10N2/c1-6-4-9-5-7(6,9)2-3-8/h6H,2,4-5H2,1H3/t6-,7-,9?/m0/s1
