19
gdb 112444	2.71367	1.23856	0.93663	4.2501	71.95	-0.2585	0.0136	0.2721	1269.0331	0.15832	-460.204801	-460.195651	-460.194707	-460.239081	33.152	
C	 0.1489356187	 1.656463395	-0.3400902586	-0.2419
O	-0.3233763504	 0.3382466517	-0.5231582524	-0.243732
C	 0.613531339	-0.5276191566	-1.1103884076	 0.108448
C	 1.7705277618	-0.9876943737	-0.2130891349	-0.403362
C	 2.0534769462	-2.4013746145	-0.7083514913	 0.432119
O	 3.0224159156	-3.0756583492	-0.5192365365	-0.333593
O	 0.9984216668	-2.8349198155	-1.4512867472	-0.22619
C	-0.0719003846	-1.8655862569	-1.483138979	 0.073637
C	-1.1922382416	-2.2911428638	-0.5439164488	-0.385272
H	 0.9901902791	 1.6998394518	 0.3663374181	 0.115036
H	 0.4711566696	 2.1052367151	-1.2920911265	 0.111781
H	-0.6803116277	 2.2406733311	 0.0644871362	 0.135015
H	 1.0241234604	-0.0698430276	-2.0247012031	 0.082086
H	 2.6768516858	-0.3837959887	-0.2619376686	 0.137947
H	 1.4481269104	-1.0374750159	 0.8332098174	 0.146136
H	-0.4358931923	-1.8466901438	-2.513713794	 0.100699
H	-0.8529750168	-2.3225127412	 0.4955069007	 0.123196
H	-2.0238406725	-1.586626719	-0.6090310655	 0.137797
H	-1.5431706875	-3.2879079085	-0.8227303983	 0.130154
88.1686	99.5214	114.1402	179.9708	207.9467	221.0411	307.4908	387.5593	423.063	468.3836	519.3195	567.0276	657.5428	699.0738	810.3011	838.4471	934.3698	986.5622	996.2935	1034.0245	1087.3087	1106.9802	1147.2359	1167.4896	1173.1206	1184.3747	1189.8998	1232.6873	1257.602	1339.5398	1363.5325	1385.4331	1396.4666	1411.5483	1463.5431	1482.1378	1486.9857	1490.1054	1491.2973	1509.1472	1885.6113	2971.1951	2983.9718	3034.9131	3051.8002	3060.3356	3075.3838	3122.8582	3125.5378	3134.579	3141.5348
COC1CC(=O)OC1C	CO[C@H]1CC(=O)O[C@H]1C	
InChI=1S/C6H10O3/c1-4-5(8-2)3-6(7)9-4/h4-5H,3H2,1-2H3	InChI=1S/C6H10O3/c1-4-5(8-2)3-6(7)9-4/h4-5H,3H2,1-2H3/t4-,5-/m0/s1
