16
gdb 106094	3.14664	1.3876	1.2322	3.2992	69.38	-0.2236	-0.0039	0.2197	1047.6527	0.123949	-437.811348	-437.803617	-437.802673	-437.843984	28.944	
C	 0.0949182493	 1.3487625311	 0.2321940677	-0.25939
O	-0.0316502181	-0.021028026	-0.1530047118	-0.274819
C	-1.2951314515	-0.4883369537	-0.0746850694	 0.429526
C	-2.2310462289	-0.902110986	 1.0025253377	-0.123006
N	-3.3551513847	-0.1478496172	 0.4367667719	-0.300116
C	-2.6483327793	-0.1929663757	-0.8771255778	-0.243199
C	-2.5526468852	-1.6937138839	-1.2616956163	 0.445407
O	-2.8209532609	-2.3122426014	-2.2522478563	-0.333154
C	-1.7421658151	-1.965453008	-0.0300654125	-0.2927
H	 1.1513821036	 1.6014984248	 0.132209753	 0.1392
H	-0.5009036179	 1.9970369823	-0.4216122756	 0.129492
H	-0.2255536911	 1.4953075597	 1.2704791197	 0.128952
H	-2.0783848014	-1.0540754968	 2.0638233322	 0.115572
H	-4.233850995	-0.6721054331	 0.419279593	 0.21905
H	-2.8669480675	 0.5799292223	-1.6101442057	 0.099145
H	-1.1516098663	-2.8259886484	 0.2505190803	 0.12004
78.9951	121.0506	165.9636	195.7441	366.3184	411.7768	431.4031	503.0447	602.6015	614.3914	734.1657	771.67	780.3694	861.2662	880.8958	933.3464	960.3064	1000.7543	1029.2797	1043.8218	1069.4763	1080.5592	1134.7404	1145.5623	1176.9939	1190.8684	1202.7041	1226.2073	1297.5834	1346.2147	1435.4325	1486.2072	1500.5152	1514.0587	1881.7791	3016.6626	3081.3756	3142.9727	3154.5257	3196.1979	3230.9214	3408.5195
COC12C3NC1C(=O)C23	CO[C@@]12[C@H]3N[C@@H]1C(=O)[C@@H]23	
InChI=1S/C6H7NO2/c1-9-6-2-3(8)5(6)7-4(2)6/h2,4-5,7H,1H3	InChI=1S/C6H7NO2/c1-9-6-2-3(8)5(6)7-4(2)6/h2,4-5,7H,1H3/t2-,4+,5-,6+/m1/s1
