17
gdb 14355	4.30893	2.26333	1.97196	1.209	73.62	-0.2064	0.0101	0.2165	743.0687	0.144384	-326.632765	-326.627038	-326.626094	-326.662065	24.795	
C	-0.0998126153	 1.5585461919	 0.136070356	-0.256881
C	 1.4096663916	 1.2644148671	 0.0592084867	-0.025365
C	 1.1858332363	 0.0818282952	 1.0708333292	-0.276996
C	 0.0915581394	-0.0021339183	-0.029452875	 0.311741
C	-0.8884587095	-0.8617481805	-0.7595287894	-0.216053
C	-0.6732627927	-0.6539758269	-2.065032003	-0.054161
C	 0.4946217227	 0.3068714304	-2.3124301826	-0.249671
N	 1.2028617179	 0.203805998	-1.0235919314	-0.117253
H	-0.4972795043	 1.9229605605	 1.0870871112	 0.089911
H	-0.5504381867	 2.0866256394	-0.7053334706	 0.09881
H	 2.2464910845	 1.9633166707	 0.0375466942	 0.082491
H	 1.9377872762	-0.7064643433	 1.0420755468	 0.108642
H	 0.8747640525	 0.3571249126	 2.0800606233	 0.092567
H	-1.6809602813	-1.4531827161	-0.3210553934	 0.104838
H	-1.2623560053	-1.0692907353	-2.8749624894	 0.100029
H	 1.1487459257	-0.0146076801	-3.1301072537	 0.108278
H	 0.1072407583	 1.3036038449	-2.5840542391	 0.099073
260.2626	315.2233	423.4386	488.5438	525.509	581.8618	654.3986	700.419	769.1059	786.171	826.0674	848.3675	894.9791	911.0241	939.7352	954.3916	959.9849	984.1927	1035.0742	1050.129	1083.5392	1100.831	1124.0153	1136.4286	1157.9066	1181.1281	1205.7003	1215.7393	1228.2782	1260.9618	1314.2959	1363.6006	1471.7884	1493.9646	1529.8568	1627.4748	2954.5621	3054.0683	3060.385	3077.6029	3109.031	3132.1276	3161.678	3194.6215	3228.691
C1C2CC11C=CCN21	C1[C@H]2C[C@]31C=CCN23	
InChI=1S/C7H9N/c1-2-7-4-6(5-7)8(7)3-1/h1-2,6H,3-5H2	InChI=1S/C7H9N/c1-2-7-4-6(5-7)8(7)3-1/h1-2,6H,3-5H2/t6-,7+
