20
gdb 97140	4.41905	0.99926	0.91412	2.6844	82.96	-0.2394	0.0353	0.2747	1351.9787	0.171105	-403.154318	-403.145392	-403.144448	-403.189179	32.857	
C	-0.1288543404	 1.2443678644	-0.8007311164	-0.330836
N	-0.0451592198	-0.1042518869	-0.2621710461	-0.328231
C	-1.0700325425	-0.6416152015	 0.2312225464	 0.442449
C	-1.1337913939	-2.0285733245	 0.8393828857	-0.407909
C	-2.6220076935	-2.3289588016	 0.808965945	 0.339537
C	-3.1969296194	-3.3865593273	-0.0972951221	-0.302234
C	-3.2568396625	-3.5475160973	 1.4058898345	-0.331921
C	-3.2583931274	-0.9523037727	 0.9025838761	-0.143238
O	-2.3132907307	-0.0562901665	 0.3000397285	-0.251542
H	 0.3561239325	 1.9450470491	-0.1094747878	 0.121896
H	 0.4328237872	 1.2863011776	-1.7397755142	 0.119097
H	-1.1514864016	 1.5946551234	-0.9813604498	 0.120389
H	-0.5135704283	-2.7317370316	 0.2824655312	 0.133315
H	-0.7540279187	-1.9889886868	 1.8688655126	 0.125421
H	-4.1205849654	-3.1674768839	-0.6234674528	 0.115987
H	-2.5053731468	-4.0129486478	-0.6510313412	 0.119923
H	-2.610486536	-4.2849123305	 1.8703929915	 0.119359
H	-4.2218262856	-3.4377400759	 1.8914208122	 0.115267
H	-4.2057224569	-0.8670533773	 0.3624547018	 0.115523
H	-3.4201283604	-0.6447148522	 1.945112285	 0.107748
27.0354	64.622	148.954	202.8312	232.6229	279.9838	337.705	371.5477	445.3119	560.7865	586.3919	690.7563	780.7172	788.385	826.6893	888.6171	903.6144	952.6733	988.1854	999.1118	1031.5351	1056.6046	1063.6934	1078.1975	1089.7178	1128.4608	1142.3478	1176.9406	1187.8354	1201.6166	1226.7457	1275.5538	1302.7412	1360.5809	1413.6186	1439.1592	1466.7221	1474.1953	1492.5172	1499.6003	1506.9349	1522.0022	1805.4507	3007.2555	3014.3381	3026.9966	3071.3514	3082.5107	3089.2998	3123.494	3123.6434	3128.1821	3202.2832	3217.5351
CN=C1CC2(CC2)CO1	CN=C1CC2(CC2)CO1	
InChI=1S/C7H11NO/c1-8-6-4-7(2-3-7)5-9-6/h2-5H2,1H3	InChI=1S/C7H11NO/c1-8-6-4-7(2-3-7)5-9-6/h2-5H2,1H3
