22
gdb 110111	2.18507	1.1683	0.92376	4.0227	86.93	-0.2784	0.0319	0.3103	1409.3879	0.193377	-367.23135	-367.221017	-367.220072	-367.267155	37.291	
C	 0.3608471371	 1.5395029482	-0.1960784312	-0.380487
C	-0.1788777531	 0.1342417963	 0.0952949561	-0.205649
C	 0.5310885349	-0.5261485379	 1.2600504866	-0.032345
C	 0.5592521479	-2.0093968993	 1.4925744954	-0.032347
C	-0.118978455	-3.0202695844	 0.5898247774	-0.205652
C	 0.4745155565	-4.4261674201	 0.7387317308	-0.380483
C	 1.8449130794	-1.2910240446	 1.0705931645	-0.198139
C	 2.3689141646	-1.4881364853	-0.2501165838	 0.294846
N	 2.7900625836	-1.6473178639	-1.3171055722	-0.357867
H	 1.4173750167	 1.5022281355	-0.4789000072	 0.133854
H	-0.1897689161	 2.0072241223	-1.0173947207	 0.117868
H	 0.269611274	 2.1896676097	 0.6810774357	 0.112654
H	-1.2502797352	 0.1886356281	 0.3266445565	 0.102488
H	-0.0882403465	-0.4807123621	-0.8048732679	 0.12172
H	 0.5269296679	 0.0793112133	 2.163979057	 0.096425
H	 0.5723064448	-2.3090430671	 2.5383887387	 0.096425
H	-1.188875962	-3.0412547831	 0.8332681475	 0.102487
H	-0.0463684491	-2.7070244458	-0.45578035	 0.121707
H	 0.4027896209	-4.77992839	 1.7732121151	 0.112652
H	-0.0536730557	-5.1427989679	 0.1031549648	 0.117866
H	 1.5304599795	-4.4377788607	 0.4515529765	 0.133865
H	 2.613145715	-1.1582019709	 1.8247617804	 0.128111
65.937	68.5914	115.3247	134.2686	161.2889	226.3286	234.9927	257.9625	302.1414	383.0394	403.8627	561.9686	597.9735	623.9896	732.311	774.1618	804.5669	810.0274	829.5048	939.0133	961.7484	1001.5734	1008.5689	1045.1914	1058.7011	1103.3369	1121.6677	1146.4314	1146.7968	1199.0811	1253.0117	1293.3117	1301.7703	1334.3947	1339.7427	1372.522	1404.5468	1413.6397	1416.4173	1449.0318	1479.6052	1488.1573	1500.2861	1500.3765	1504.883	1506.6174	2342.9209	3027.9698	3031.5618	3034.9739	3035.2978	3076.7508	3085.3907	3104.7392	3107.3454	3114.0336	3114.3817	3124.7452	3135.8254	3167.9828
CCC1C(CC)C1C#N	CC[C@H]1[C@@H](CC)[C@H]1C#N	
InChI=1S/C8H13N/c1-3-6-7(4-2)8(6)5-9/h6-8H,3-4H2,1-2H3	InChI=1S/C8H13N/c1-3-6-7(4-2)8(6)5-9/h6-8H,3-4H2,1-2H3/t6-,7+,8-
