18
gdb 11577	3.36456	1.14231	0.95159	1.6538	64.28	-0.2567	0.0603	0.317	1232.2374	0.151883	-422.040579	-422.031521	-422.030577	-422.074862	32.256	
O	 0.3618620649	 0.2085923504	 1.0106433302	-0.409176
C	-0.2167620882	 0.2894928326	-0.2810506463	-0.094491
C	-1.5308308682	-0.4940894804	-0.4040599709	 0.099712
O	-2.1069362439	-0.2922788576	-1.6906106724	-0.432501
C	-1.3574432524	-1.9799409433	-0.0712217411	-0.238662
C	-2.6783708854	-2.7012907601	 0.0246822995	 0.099017
C	-2.8954821594	-3.8145652718	 0.95502639	-0.182568
O	-3.4055528806	-2.5121378064	 1.2455427027	-0.240229
H	-0.2203527856	 0.6681116633	 1.624651326	 0.289486
H	-0.3979041835	 1.3286021324	-0.5913758316	 0.100679
H	 0.5280455138	-0.1333018876	-0.968541617	 0.0979
H	-2.2593829074	-0.0654793663	 0.2971297112	 0.099573
H	-1.505747762	-0.6680148438	-2.3441171015	 0.279202
H	-0.7347527893	-2.4494036325	-0.8479732073	 0.086216
H	-0.8155211379	-2.068084994	 0.8754343827	 0.120366
H	-3.3023185507	-2.6489948531	-0.8676720116	 0.100595
H	-3.6454461771	-4.5725707051	 0.7324416338	 0.113315
H	-2.0759922071	-4.1477021467	 1.5913633636	 0.111566
69.0509	76.1129	129.6619	160.1699	233.2315	304.8783	309.3264	340.236	390.3148	456.5	477.4483	542.3874	788.6697	831.5125	879.7188	908.798	962.1653	1017.1158	1039.3489	1084.7445	1095.7151	1120.714	1131.3856	1157.6305	1169.7638	1182.2912	1214.7508	1292.1909	1300.8669	1324.6625	1372.5406	1385.6873	1416.7774	1421.1139	1444.0638	1468.5742	1502.167	1529.6715	2998.4502	3001.6769	3027.5211	3054.1481	3078.9494	3089.5164	3116.8927	3164.9676	3791.1374	3813.519
OCC(O)CC1CO1	OC[C@@H](O)C[C@H]1CO1	
InChI=1S/C5H10O3/c6-2-4(7)1-5-3-8-5/h4-7H,1-3H2	InChI=1S/C5H10O3/c6-2-4(7)1-5-3-8-5/h4-7H,1-3H2/t4-,5-/m0/s1
