17
gdb 60829	4.03639	0.97637	0.91271	3.1632	65.46	-0.2677	-0.0402	0.2275	1281.5124	0.132982	-496.073868	-496.064624	-496.063679	-496.108619	33.019	
O	 0.2247352412	 1.5132287222	 0.0408843463	-0.435195
C	 0.0781457105	 0.1216847788	 0.0268885262	 0.028035
C	 0.6874827333	-0.4556443706	-1.2376685268	 0.145536
O	 1.1408393544	 0.2554399796	-2.0995814459	-0.257904
C	 0.7465226612	-0.5045834533	 1.2701629843	 0.064627
O	 2.1280540443	-0.2281620891	 1.2706749022	-0.435073
C	 0.0936575855	-0.0187855314	 2.5583966188	 0.070354
C	 0.826506153	-0.0593809924	 3.8277948727	-0.18633
O	 0.6569199636	 1.1700926536	 3.1075425954	-0.230575
H	 0.6176283315	 1.7409426282	-0.8175364232	 0.298662
H	-0.9903858898	-0.1698993642	 0.0233415896	 0.091002
H	 0.6807950929	-1.560463807	-1.3310877821	 0.100264
H	 0.6351732826	-1.5958452303	 1.2093733331	 0.097384
H	 2.1940093481	 0.7201137119	 1.4530962953	 0.300611
H	-0.9962241785	-0.0586337755	 2.5787527146	 0.098213
H	 0.2761628861	-0.126449267	 4.764223388	 0.119638
H	 1.8416506	-0.4479842534	 3.8362654615	 0.130751
46.5425	94.1001	108.8116	191.6264	253.6568	256.1921	283.4386	333.3232	370.1206	420.6272	501.2625	629.8195	730.8402	749.3455	789.352	848.4037	882.8304	925.2374	972.7628	1011.3246	1032.2737	1095.0885	1115.607	1162.208	1165.7733	1178.062	1236.676	1272.6329	1294.8746	1320.3929	1348.3475	1401.0671	1421.4248	1433.2536	1441.6954	1513.8763	1819.0135	2919.7296	2938.5075	3027.1641	3097.6334	3106.8828	3194.9883	3679.1944	3756.3281
OC(C=O)C(O)C1CO1	O[C@@H](C=O)[C@@H](O)[C@H]1CO1	
InChI=1S/C5H8O4/c6-1-3(7)5(8)4-2-9-4/h1,3-5,7-8H,2H2	InChI=1S/C5H8O4/c6-1-3(7)5(8)4-2-9-4/h1,3-5,7-8H,2H2/t3-,4+,5+/m0/s1
