19
gdb 103799	3.58445	0.95048	0.87192	19.6654	84.52	-0.1527	-0.0511	0.1015	1365.1554	0.158211	-456.253273	-456.243563	-456.242619	-456.288278	35.266	
C	-0.3927961874	 1.6050269715	 0.26954966	-0.494985
C	-0.1275813534	 0.1189723518	 0.1156122607	 0.354258
C	-1.2703896823	-0.6849961335	-0.407231483	-0.297013
N	-1.5470444774	-0.1970000191	-1.8608678705	-0.413284
H	-1.7112740309	 0.8138929951	-1.8204532505	 0.330655
H	-0.6987119774	-0.3382635965	-2.4167884899	 0.329712
H	-2.3388715483	-0.6560248979	-2.3161614991	 0.321135
N	 1.2139778161	-0.2408824115	-0.3989787297	-0.359831
C	 0.8569972489	-0.5871302801	 1.0022847167	-0.199892
C	 1.5613747848	 0.1293859887	 2.2153912519	 0.368259
O	 1.6658177306	-0.6274588017	 3.188830746	-0.461207
O	 1.8804092461	 1.3195961959	 2.0316819546	-0.471324
H	 0.4711284671	 2.0162314997	 0.8103831499	 0.2332
H	-0.4882780488	 2.1241487913	-0.6986851265	 0.064125
H	-1.3004715151	 1.7844414306	 0.8581467412	 0.107163
H	-1.0611180251	-1.7535850289	-0.4850688266	 0.158161
H	-2.2130520556	-0.5210429526	 0.1221941393	 0.164171
H	 1.1750843438	-1.0963592767	-0.9582128153	 0.19565
H	 0.6526589044	-1.6402565763	 1.1945894607	 0.071046
54.0421	81.6605	127.8927	198.5098	212.1762	233.5771	275.7287	314.2738	368.6415	384.6539	445.3962	512.2391	667.7324	697.4212	738.3343	783.0328	815.8737	829.0038	857.7489	903.5095	967.198	1019.5242	1036.6984	1075.6764	1108.8402	1138.1368	1164.3005	1256.0455	1289.7292	1307.0806	1347.8336	1367.5577	1380.8691	1405.9861	1435.1556	1466.6006	1477.0025	1512.2399	1624.6821	1655.2478	1786.2722	2948.8374	3024.9841	3069.8511	3076.1775	3109.7491	3140.8232	3381.5131	3398.9497	3472.1489	3499.5351
CC1(C[NH3+])NC1C([O-])=O	C[C@@]1(C[NH3])N[C@H]1C(=O)[O]	
InChI=1S/C5H10N2O2/c1-5(2-6)3(7-5)4(8)9/h3,7H,2,6H2,1H3,(H,8,9)	InChI=1S/C5H10N2O2/c1-5(2-6)3(7-5)4(8)9/h3,7H,2H2,1,6H3/t3-,5-/m0/s1
