19
gdb 12249	3.58448	1.39487	1.08007	2.6193	73.49	-0.2287	-0.0209	0.2079	1131.0145	0.163325	-365.06255	-365.053676	-365.052732	-365.096085	32.033	
C	-0.00710687	 1.5267477635	 0.0751893379	-0.383352
C	-0.0994708641	 0.0074199149	-0.0420124141	-0.123767
N	 0.6036097781	-0.4888706131	-1.2120957787	-0.090826
C	 0.0037657076	-0.2277794193	-2.5419347055	-0.293065
C	 0.3235605671	-1.6850740578	-2.9008940815	 0.382516
O	 0.3604288579	-2.3283414971	-3.9061306562	-0.290458
C	 0.6361474762	-1.9608974573	-1.4211603155	-0.056388
C	 1.9233950962	-2.6828428185	-1.0579208154	-0.397893
H	 1.0381112577	 1.8452425	 0.122206182	 0.127403
H	-0.4722933358	 2.0189852324	-0.7855057304	 0.1201
H	-0.5213693746	 1.8759823982	 0.9755785571	 0.11577
H	 0.3546364633	-0.4577221015	 0.8410683656	 0.105428
H	-1.1647943587	-0.3016425902	-0.0509920265	 0.074716
H	-1.0860350887	-0.0523131151	-2.5246263631	 0.112641
H	 0.4796312043	 0.5577097584	-3.1375082313	 0.13133
H	-0.2328956125	-2.4680987893	-0.9616084417	 0.084834
H	 2.7833631579	-2.1874748346	-1.5161131617	 0.127678
H	 2.0720304483	-2.6969037824	 0.0264959139	 0.12116
H	 1.8847932999	-3.7181397112	-1.4104424449	 0.132173
85.4691	96.6559	168.2774	187.344	200.1587	229.1954	303.923	375.3447	400.145	498.8437	577.8698	629.082	750.5611	798.6113	811.0974	906.5324	964.3094	980.2155	1029.6788	1069.5023	1083.7101	1124.3762	1135.1011	1141.1248	1194.6159	1207.2928	1258.0869	1293.9488	1315.5577	1354.4587	1394.9745	1401.3366	1415.1934	1470.3402	1484.1818	1489.5241	1492.891	1495.9219	1512.5042	1916.0705	2895.0077	2931.4354	2961.6207	3038.3631	3040.1168	3047.486	3072.5369	3106.5118	3110.2609	3119.7506	3124.324
CCN1CC(=O)C1C	CCN1CC(=O)[C@H]1C	
InChI=1S/C6H11NO/c1-3-7-4-6(8)5(7)2/h5H,3-4H2,1-2H3	InChI=1S/C6H11NO/c1-3-7-4-6(8)5(7)2/h5H,3-4H2,1-2H3/t5-/m1/s1
