14
gdb 132193	2.00756	1.88525	0.97818	6.2989	68.62	-0.2374	-0.0307	0.2067	1113.6665	0.101393	-474.200812	-474.192954	-474.19201	-474.233765	28.573	
C	-0.0213511074	 1.486167614	 0.0427174935	-0.489914
C	-0.0013911614	-0.0086263909	-0.0550672776	 0.382128
N	-0.0223675944	-0.6192781185	-1.1750466783	-0.275068
C	-0.001571628	-2.0325006925	-1.1961616914	 0.360227
N	-0.0228856612	-2.6240950182	-2.3217774567	-0.502208
N	 0.0424969394	-2.7463972877	 0.0376675198	-0.373285
C	 0.0606070504	-2.0600919589	 1.0936131427	 0.395634
F	 0.1013278883	-2.625541054	 2.2881349901	-0.059217
N	 0.0417816163	-0.6961253749	 1.1604686832	-0.407585
H	 0.8722589955	 1.8543311137	 0.5595302168	 0.145643
H	-0.0550372123	 1.9046715707	-0.9617306922	 0.175066
H	-0.8962056209	 1.8275952624	 0.6077244415	 0.145624
H	-0.0031975718	-3.6315001995	-2.1578194644	 0.223995
H	 0.0586623376	-0.2255347457	 2.0509430629	 0.27896
68.8002	128.8418	176.0259	237.0193	296.1927	373.4809	413.274	522.4134	543.6807	588.3236	592.3278	638.8714	711.6628	791.4862	912.8679	913.2356	968.8278	981.6352	1061.5945	1096.9194	1134.6942	1204.2792	1323.8031	1353.7613	1409.1946	1463.0693	1481.9098	1488.7265	1690.7181	1712.9875	1788.1237	3037.5181	3093.4867	3173.6365	3484.7919	3648.1165
CC1=NC(=N)N=C(F)N1	C[C@@H]1N=C([NH])N=C(F)N1	
InChI=1S/C4H5FN4/c1-2-7-3(5)9-4(6)8-2/h1H3,(H2,6,7,8,9)	InChI=1S/C4H6FN4/c1-2-7-3(5)9-4(6)8-2/h2,6H,1H3,(H,7,8,9)/t2-/m0/s1
