19
gdb 35730	2.77245	1.35625	1.15251	1.7095	80.14	-0.2498	0.0403	0.2902	1138.3617	0.158876	-385.842041	-385.833503	-385.832559	-385.875897	32.595	
C	 0.2767476802	-1.1615394287	 0.2135674962	-0.492807
C	 0.0871194727	 0.0235284859	 0.1441307813	 0.365663
C	-0.1505213136	 1.4694366886	 0.049119797	-0.073383
C	-0.7632950675	 2.0607415925	 1.3353197251	-0.311685
C	 0.4859976681	 2.3148057765	 2.1624253983	 0.347224
C	 0.4632805321	 2.9441462905	 3.5251314979	-0.339611
C	 0.8034566545	 1.4791471144	 3.3753826867	-0.296666
C	 1.5622568663	 2.6439584587	 1.1307700133	-0.131589
O	 1.0653531405	 2.1986923319	-0.1360353967	-0.259965
H	 0.4483979946	-2.2080875484	 0.2696788776	 0.198157
H	-0.7719492276	 1.6691026112	-0.8305061852	 0.107608
H	-1.2702917197	 2.9997489713	 1.0859781263	 0.106854
H	-1.4790530517	 1.3913350573	 1.8157469512	 0.114822
H	 1.263873192	 3.6307320473	 3.7829343992	 0.113889
H	-0.4988463287	 3.2085030802	 3.9521452697	 0.114253
H	 0.0717970416	 0.7461102916	 3.6982204694	 0.116612
H	 1.8345424054	 1.1769292289	 3.5284685349	 0.114479
H	 1.7465649231	 3.7234319525	 1.052445489	 0.102319
H	 2.5153134378	 2.1486022479	 1.3575294388	 0.103826
39.4008	77.1498	174.5553	247.4508	269.7158	336.2541	391.5052	437.7261	518.9302	558.2284	624.4641	661.3338	757.1443	776.5677	779.689	841.9903	889.3156	903.7583	935.6103	950.2871	985.8186	1003.4295	1027.9173	1059.5364	1075.4613	1080.2563	1106.545	1187.1803	1189.7834	1219.7174	1255.2393	1293.5602	1318.3197	1343.771	1366.3186	1410.2691	1467.6992	1484.2357	1505.8108	1525.9501	2230.5922	3005.5119	3038.9902	3040.6044	3054.4525	3118.4964	3122.4499	3128.4196	3200.6967	3217.2817	3502.9856
C#CC1CC2(CC2)CO1	C#C[C@H]1CC2(CC2)CO1	
InChI=1S/C8H10O/c1-2-7-5-8(3-4-8)6-9-7/h1,7H,3-6H2	InChI=1S/C8H10O/c1-2-7-5-8(3-4-8)6-9-7/h1,7H,3-6H2/t7-/m0/s1
