17
gdb 64971	3.53926	1.0116	0.85484	2.0239	74.93	-0.2502	-0.0298	0.2205	1347.2543	0.131471	-421.788065	-421.778394	-421.77745	-421.823284	34.692	
C	-0.0856931604	 1.5428082833	-0.7212011546	-0.46233
C	-0.0830575879	 0.2144223271	-0.0041160303	 0.302265
C	 0.8829397767	-0.8416650482	-0.3802618438	-0.217571
O	 1.0635601284	-0.0829609573	 0.808862572	-0.255205
C	-1.4154665929	-0.2184387769	 0.5757767902	 0.320326
O	-2.4476872515	 0.151314305	 0.0748854869	-0.286807
C	-1.3549270721	-1.0966674538	 1.8344934767	-0.489995
C	-2.6444783856	-1.6216121716	 2.2464431678	 0.318745
C	-3.7057458177	-2.063714784	 2.5919583157	-0.421119
H	 0.896444968	 1.7432275177	-1.1548346405	 0.125873
H	-0.8412085884	 1.5377651218	-1.5096812806	 0.151615
H	-0.3326906639	 2.3521836343	-0.0275554966	 0.136547
H	 0.6387270845	-1.8936810955	-0.2402313679	 0.122895
H	 1.5840744493	-0.6316927151	-1.1865992257	 0.130138
H	-0.6294819123	-1.9046918522	 1.6840945304	 0.155737
H	-0.9083501239	-0.4780860919	 2.6254002527	 0.170728
H	-4.6469351802	-2.4505857229	 2.8948393376	 0.198159
41.1083	70.256	124.327	170.021	221.5606	264.2736	317.6809	325.8076	373.0693	396.7413	471.5071	533.9581	580.3027	630.3847	649.2334	772.9723	831.4961	845.4189	924.931	938.0885	959.1629	1017.0365	1068.5609	1099.7253	1139.937	1165.6355	1207.4662	1278.264	1349.6115	1366.6358	1409.7187	1420.0849	1477.3502	1494.1674	1527.458	1814.9782	2250.8604	3028.5502	3052.6909	3063.0057	3085.9584	3122.8472	3144.2492	3174.1371	3507.6526
CC1(CO1)C(=O)CC#C	C[C@]1(CO1)C(=O)CC#C	
InChI=1S/C7H8O2/c1-3-4-6(8)7(2)5-9-7/h1H,4-5H2,2H3	InChI=1S/C7H8O2/c1-3-4-6(8)7(2)5-9-7/h1H,4-5H2,2H3/t7-/m0/s1
