17
gdb 31092	2.67364	1.26041	0.89344	1.3805	72.46	-0.1697	0.0596	0.2293	1279.979	0.135324	-455.150637	-455.140931	-455.139987	-455.185836	34.602	
C	-0.3655269144	 1.1372912216	-0.0779381211	-0.244384
O	 0.5792818608	 0.0843698133	-0.2119282391	-0.291435
C	 0.9524503553	-0.4998596409	 0.975938653	 0.192886
C	 0.7391662117	-1.8314088251	 1.2413243135	 0.292272
O	 0.1443400837	-2.8055857625	 0.5081898691	-0.445773
N	 1.2799853992	-2.1139712139	 2.4602899195	-0.308875
C	 1.8399190243	-0.9660667805	 3.0001526206	 0.250706
N	 2.4502615235	-1.0580161353	 4.2735351594	-0.610445
C	 1.6534623037	 0.0530801132	 2.0938062005	-0.327716
H	 0.0463335487	 1.9766944618	 0.4971117839	 0.11639
H	-0.6027422711	 1.481890925	-1.0876409378	 0.122839
H	-1.2828012381	 0.7917864683	 0.4177486127	 0.110217
H	-0.0930573257	-2.3989679121	-0.3341239114	 0.307153
H	 1.2909621156	-3.0133213164	 2.9098047797	 0.265183
H	 3.4293475642	-0.7939907691	 4.2420810953	 0.241946
H	 1.9987413618	-0.4564076697	 4.9546473989	 0.240668
H	 1.9832307669	 1.0738164522	 2.2118676632	 0.088371
50.7535	61.7508	144.5203	164.6945	216.2231	260.3728	285.9529	321.146	352.8535	416.3078	453.2039	547.972	593.2964	645.4198	655.1099	691.8612	774.1698	795.1612	817.8549	1019.9926	1047.6194	1157.0049	1163.8828	1178.3622	1206.5695	1208.0837	1217.9677	1255.5027	1387.1991	1418.4981	1477.9032	1486.7257	1505.8066	1552.5842	1570.9776	1656.9145	1675.0337	2999.1221	3058.2191	3115.892	3247.6292	3498.3402	3560.365	3682.3941	3803.213
COC1=C(O)NC(N)=C1	COc1c(O)[nH]c(N)c1	
InChI=1S/C5H8N2O2/c1-9-3-2-4(6)7-5(3)8/h2,7-8H,6H2,1H3	InChI=1S/C5H8N2O2/c1-9-3-2-4(6)7-5(3)8/h2,7-8H,6H2,1H3
