23
gdb 115715	2.71604	1.06828	0.90613	2.2494	82.05	-0.24	0.0611	0.3011	1424.6741	0.203995	-425.4117	-425.401211	-425.400266	-425.447598	38.173	
C	-0.1493514059	 1.7099188543	-0.0981765503	-0.386757
C	-0.0552953544	 0.2526314461	 0.3667593854	-0.199442
C	-1.3220064672	-0.519509535	 0.0402189592	 0.145741
O	-1.5741561757	-0.6127206824	-1.3878235046	-0.28924
C	-1.7826287397	-2.0301905678	-1.3139389605	-0.08883
C	-1.3998878595	-2.0687130283	 0.1829410365	-0.072665
C	-0.1543802699	-2.8717941687	 0.58009452	 0.100079
C	-0.4519787942	-4.3728113622	 0.6460817688	-0.408591
O	 0.9734439928	-2.6173076658	-0.253932149	-0.416819
H	 0.7756104498	 2.2525300869	 0.1184784294	 0.108947
H	-0.3265421443	 1.7559496778	-1.1765704968	 0.135475
H	-0.9717572503	 2.237031349	 0.3990163333	 0.10752
H	 0.7989881218	-0.2458082535	-0.0962320496	 0.127316
H	 0.0989411673	 0.2146653188	 1.4539373813	 0.087435
H	-2.1778169411	-0.0294226144	 0.5313704945	 0.064233
H	-2.8200310282	-2.3115311579	-1.5371955263	 0.098263
H	-1.1274731059	-2.5759693828	-2.0086687407	 0.078127
H	-2.2216548299	-2.385503101	 0.8313995079	 0.076227
H	 0.166417962	-2.533334567	 1.5730669384	 0.094316
H	-0.8086015574	-4.7438544054	-0.3232346805	 0.111804
H	 0.4554585299	-4.9233751218	 0.9074607625	 0.126929
H	-1.2228759168	-4.5952772335	 1.3905590874	 0.118418
H	 0.7871691069	-2.9761087355	-1.1280909863	 0.281514
52.2151	81.4317	105.6471	142.5352	214.7761	229.9136	251.2015	253.8721	283.4558	302.1257	410.2718	449.1121	536.593	581.1399	746.836	757.2972	827.0465	878.509	910.4929	945.7315	965.9007	981.8382	1021.5607	1044.4574	1066.4013	1077.1253	1090.3491	1112.2915	1158.5462	1166.3509	1181.08	1253.0991	1275.8864	1277.3556	1305.282	1327.5815	1347.7203	1367.5383	1377.6502	1402.5448	1406.7287	1418.736	1425.7907	1485.2985	1491.2247	1496.6251	1499.6324	1510.0228	1528.5995	2966.7799	2988.1898	3020.7254	3024.9357	3026.8063	3033.5315	3037.7894	3067.8041	3093.117	3095.6996	3114.3325	3120.7271	3121.0774	3808.5363
CCC1OCC1C(C)O	CC[C@H]1OC[C@H]1[C@@H](C)O	
InChI=1S/C7H14O2/c1-3-7-6(4-9-7)5(2)8/h5-8H,3-4H2,1-2H3	InChI=1S/C7H14O2/c1-3-7-6(4-9-7)5(2)8/h5-8H,3-4H2,1-2H3/t5-,6+,7-/m1/s1
