14
gdb 131077	4.87068	0.86399	0.77693	5.2732	64.59	-0.27	-0.022	0.248	1368.7362	0.101568	-470.011853	-470.003899	-470.002955	-470.046684	27.052	
O	 0.2397308413	 0.1199328671	-0.282940694	-0.255925
C	 0.3118346939	 1.3077197676	-0.3106092326	 0.181654
O	 0.7938526318	 2.0296945138	 0.7300573565	-0.165527
C	 0.8820696831	 3.4422425386	 0.5610557397	-0.214844
C	 2.2674932593	 3.8340648038	 0.1551568061	 0.321393
C	 3.4413302919	 3.1246912604	 0.0584282554	-0.135826
N	 4.4320432389	 3.968192551	-0.3517936398	-0.177531
N	 3.9437752581	 5.1594493403	-0.5125515625	-0.10383
N	 2.6285217898	 5.0901868982	-0.2081223228	-0.250167
H	-0.0096268615	 1.942760562	-1.1590641942	 0.087785
H	 0.1427905668	 3.7871930119	-0.1763074792	 0.128411
H	 0.6094601191	 3.8794732345	 1.5273002006	 0.154864
H	 3.6216013957	 2.0819364697	 0.2585388346	 0.147569
H	 2.0674191818	 5.9249915211	-0.2736065178	 0.281973
25.9652	45.709	134.0543	213.7733	240.8426	354.3473	397.3989	556.4407	665.3177	678.8832	721.3807	726.7759	860.7394	993.1946	1002.7654	1037.2352	1051.7803	1063.3365	1076.0328	1133.0157	1155.1198	1217.4128	1304.8233	1337.6698	1354.6844	1409.8106	1425.2386	1453.1375	1495.9277	1608.2384	1880.23	2950.6403	3004.0358	3069.9126	3286.3861	3650.8062
O=COCC1=CN=NN1	O=COCc1cnn[nH]1	
InChI=1S/C4H5N3O2/c8-3-9-2-4-1-5-7-6-4/h1,3H,2H2,(H,5,6,7)	InChI=1S/C4H5N3O2/c8-3-9-2-4-1-5-7-6-4/h1,3H,2H2,(H,5,6,7)
