20
gdb 18399	3.1426	2.07737	1.41391	1.2302	74.28	-0.2424	0.0858	0.3282	925.7591	0.180173	-348.997126	-348.990106	-348.989162	-349.027958	28.541	
C	-0.0444169845	 1.5369461283	 0.0627354241	-0.321391
C	 1.2769780037	 0.8114575998	 0.0149546153	 0.017604
C	 2.2196213611	 0.7620498675	 1.2065684853	-0.232037
C	 2.7158332393	-0.663165479	 1.5096738389	-0.187567
C	 1.6860991056	-1.5549467959	 2.2185879414	-0.063632
O	 0.5212869045	-1.8752229763	 1.480112041	-0.240392
C	-0.3642160604	-0.7857231522	 1.2671736179	-0.101586
C	-0.010710911	 0.0252127344	 0.0379713293	-0.00402
H	-0.3186580325	 2.0178680771	 0.9974566379	 0.10871
H	-0.3897148205	 2.0627918427	-0.820727063	 0.110273
H	 1.7869402132	 0.8212027096	-0.9450611838	 0.082598
H	 3.0753715815	 1.4196648607	 1.0131405029	 0.095741
H	 1.7291980443	 1.1690705898	 2.1002057386	 0.09232
H	 3.036939544	-1.1507746346	 0.5810343282	 0.101748
H	 3.5972417597	-0.6156277238	 2.1632836545	 0.089342
H	 2.1475458574	-2.5184571797	 2.4605738604	 0.102155
H	 1.3994065336	-1.0785359363	 3.1734826955	 0.07994
H	-1.3617229854	-1.2243199176	 1.1516823672	 0.102943
H	-0.3935716793	-0.1442577122	 2.1618614646	 0.082551
H	-0.2919746843	-0.4494507624	-0.8977405662	 0.084698
158.267	200.6163	300.2484	333.5275	355.4182	383.3692	440.4988	526.0754	586.8844	746.8577	799.6507	819.9635	856.7226	893.0674	925.8698	940.3692	960.4701	1020.0764	1035.9078	1037.1483	1063.9529	1076.9225	1127.1189	1138.0204	1168.2871	1192.4874	1235.0048	1246.5685	1258.8779	1290.2149	1336.377	1347.3814	1378.2113	1382.5503	1404.9326	1420.6045	1433.1458	1473.1898	1486.3983	1488.4557	1492.7318	1506.0526	2943.8055	2980.2789	3015.0386	3021.7885	3054.1114	3059.3409	3062.9335	3069.2471	3123.0209	3132.6495	3148.163	3207.875
C1C2CCCOCC12	C1[C@H]2CCCOC[C@@H]12	
InChI=1S/C7H12O/c1-2-6-4-7(6)5-8-3-1/h6-7H,1-5H2	InChI=1S/C7H12O/c1-2-6-4-7(6)5-8-3-1/h6-7H,1-5H2/t6-,7-/m1/s1
