18
gdb 68718	2.41724	1.64602	1.32002	1.9529	82.98	-0.2398	0.034	0.2737	1046.2795	0.146845	-364.725565	-364.717331	-364.716387	-364.75794	32.533	
C	-0.0061724734	 1.5245336527	 0.0383038115	-0.472129
C	-0.0617357063	 0.0269208805	 0.0509182411	 0.25513
N	 1.1398734203	-0.7286057117	-0.2933477365	-0.408034
C	 0.5533981352	-0.964850478	 1.0403059949	 0.088102
C	 1.3381351689	-0.726278458	 2.2070092957	 0.295717
C	 1.9705584761	-0.5356960855	 3.2126017672	-0.429813
C	-0.696828234	-1.825117482	 0.9649909104	-0.144768
C	-1.9125634978	-1.0209384422	 1.3423076442	-0.285246
C	-1.3111858186	-0.8334523673	-0.0275630846	-0.126711
H	 0.963819275	 1.8714467063	 0.401860699	 0.14246
H	-0.143788078	 1.9083830225	-0.9792143607	 0.123644
H	-0.7933729283	 1.9497832055	 0.6686615916	 0.121646
H	 0.9433608176	-1.5087201741	-0.9182591705	 0.226832
H	 2.5394232524	-0.3677143204	 4.0931016236	 0.18895
H	-0.7043174439	-2.9081461126	 0.9199852012	 0.095491
H	-2.8495674043	-1.5696670578	 1.3773525839	 0.114897
H	-1.828882348	-0.2345509261	 2.0869508955	 0.12181
H	-1.858137323	-1.0623348719	-0.9355119275	 0.092021
117.6788	136.3096	186.876	226.237	287.154	356.2392	436.667	530.4036	544.0895	573.2425	586.0345	597.9578	649.6824	686.5941	763.2248	788.497	818.7703	865.2648	944.4086	956.426	1001.7589	1040.5349	1065.4474	1072.2674	1094.192	1095.6707	1117.0981	1139.6737	1178.7103	1231.4026	1262.0539	1326.9346	1340.446	1402.2103	1438.7049	1483.1191	1488.7571	1492.096	2236.8602	3034.0466	3095.7609	3117.0427	3128.5582	3170.7987	3181.1157	3202.3534	3464.8733	3503.4697
CC12NC1(C#C)C1CC21	C[C@@]12N[C@]1(C#C)[C@H]1C[C@@H]21	
InChI=1S/C8H9N/c1-3-8-6-4-5(6)7(8,2)9-8/h1,5-6,9H,4H2,2H3	InChI=1S/C8H9N/c1-3-8-6-4-5(6)7(8,2)9-8/h1,5-6,9H,4H2,2H3/t5-,6+,7+,8-/m1/s1
