18
gdb 17955	2.60734	2.50676	1.43651	0.1969	81.13	-0.213	-0.0278	0.1852	899.4882	0.156361	-310.667346	-310.660186	-310.659242	-310.699001	27.969	
C	-0.0474132801	 1.4913371799	 0.1812164752	-0.31475
C	 1.3281979169	 2.0850212667	 0.004407091	-0.040662
C	 1.8591309347	 2.3788033018	-1.1822135704	-0.040661
C	 1.1498370405	 2.1537487081	-2.4945747664	-0.31475
C	 1.3069952789	 0.7201471311	-2.9690329839	-0.079862
C	 0.9859604597	-0.4248932024	-2.3409799545	-0.044323
C	 0.4024247845	-0.7476768921	-1.0371401476	-0.044328
C	-0.0250898313	-0.0167781306	 0.0076821275	-0.079862
H	-0.4280131664	 1.7237215071	 1.1800274609	 0.100719
H	-0.7590430941	 1.93456945	-0.5245265788	 0.118244
H	 1.9289727419	 2.201416806	 0.9032236111	 0.087844
H	 2.8863729039	 2.7311834991	-1.2365481982	 0.087843
H	 0.0855778603	 2.4017724396	-2.4122473181	 0.118241
H	 1.5577016237	 2.8224566061	-3.2580911606	 0.100719
H	 1.7536080942	 0.6087872492	-3.9548720585	 0.089822
H	 1.2063596856	-1.3240547214	-2.914386863	 0.082972
H	 0.3038443045	-1.8232267224	-0.898084212	 0.082972
H	-0.4002206075	-0.5826890858	 0.8578372062	 0.089822
46.4549	217.6035	250.6691	302.3231	339.1821	492.8602	520.3316	540.3788	647.5706	679.5489	746.1931	791.0519	822.8612	838.0406	904.9004	913.5293	970.6619	989.9552	999.3128	1014.6338	1026.84	1055.9829	1083.2038	1190.2612	1234.7953	1272.4876	1298.7735	1308.4808	1331.2626	1349.3009	1400.4356	1431.337	1457.0344	1477.9275	1505.7417	1672.1871	1694.4029	1721.159	3029.6856	3043.9986	3076.6936	3081.2698	3116.3597	3130.7672	3142.5049	3149.4592	3156.7938	3167.5242
C1C=CCC=CC=C1	C1C=CCC=CC=C1	
InChI=1S/C8H10/c1-2-4-6-8-7-5-3-1/h1-4,7-8H,5-6H2/b3-1-,4-2-,8-7-	InChI=1S/C8H10/c1-2-4-6-8-7-5-3-1/h1-4,7-8H,5-6H2/b3-1-,4-2-,8-7-
