21
gdb 63740	3.28925	1.13058	1.10934	1.9537	85.19	-0.2403	0.0103	0.2506	1236.0269	0.181538	-387.090861	-387.081982	-387.081038	-387.124408	34.832	
C	 0.1430422535	 1.5301887549	-0.0637819473	-0.4272
C	-0.0508009525	 0.0057089463	 0.0058098498	 0.255901
C	-1.5539726485	-0.3196791193	 0.1268896479	-0.418222
C	 0.589850468	-0.7260956092	-1.2164998047	-0.361895
C	 1.4342267568	-1.8614398998	-0.6315538741	 0.431977
C	 1.5767042598	-3.1967188874	-1.2352584259	-0.250582
O	 2.6348931398	-2.2423061018	-1.3239688689	-0.283248
C	 1.5020556849	-1.6084866358	 0.8307336091	-0.167114
C	 0.708030146	-0.5971338991	 1.1766107716	-0.093845
H	 1.2043899381	 1.7897320192	-0.1265570285	 0.118616
H	-0.3615372263	 1.9480673914	-0.9421154968	 0.113566
H	-0.2727255108	 2.0216680514	 0.8230976182	 0.109952
H	-2.1112160133	 0.1008042783	-0.7178396344	 0.112604
H	-1.7227136932	-1.4009728986	 0.1436510973	 0.115096
H	-1.9762910827	 0.0995639253	 1.0468450458	 0.110867
H	-0.1629902677	-1.0837425694	-1.9240405215	 0.10023
H	 1.2581348237	-0.0535219102	-1.7630892943	 0.117325
H	 1.7771677646	-4.0637256936	-0.6052469501	 0.108525
H	 1.0616457097	-3.4168681032	-2.1706465632	 0.109669
H	 2.1228921155	-2.2020582636	 1.4915418292	 0.10285
H	 0.5656380845	-0.2290844256	 2.1881446408	 0.09493
38.213	173.1314	237.5576	257.007	293.2919	307.063	328.9806	335.8598	405.7456	421.2471	496.4117	580.8935	648.2814	783.5391	796.9431	821.7254	828.5354	904.2865	919.7776	921.7288	951.0779	972.8782	977.1999	988.0631	1035.6416	1105.2167	1126.6272	1145.7231	1156.7873	1201.1311	1240.4989	1259.0752	1271.1504	1299.7845	1344.7606	1396.7216	1412.8709	1432.7695	1481.4301	1484.6499	1489.5617	1502.1159	1507.8676	1526.7773	1679.4291	3022.0398	3026.7176	3054.8746	3067.8995	3087.8408	3093.8538	3097.9104	3102.6079	3103.8743	3152.9671	3175.6711	3209.7156
CC1(C)CC2(CO2)C=C1	CC1(C)C[C@]2(CO2)C=C1	
InChI=1S/C8H12O/c1-7(2)3-4-8(5-7)6-9-8/h3-4H,5-6H2,1-2H3	InChI=1S/C8H12O/c1-7(2)3-4-8(5-7)6-9-8/h3-4H,5-6H2,1-2H3/t8-/m0/s1
