16
gdb 107777	2.77652	1.75128	1.31353	1.6778	68.36	-0.2223	-0.0136	0.2087	974.0184	0.123412	-437.813751	-437.805994	-437.80505	-437.84623	28.945	
C	 0.0394306593	 1.3896480505	-0.0705153689	-0.278907
O	 0.0463497916	-0.0354208241	 0.0100681276	-0.296124
C	-1.2016708771	-0.5915945321	 0.0438098178	 0.284821
C	-2.1947006555	-0.5293410886	 1.2229699013	-0.224492
N	-2.7380045428	-1.87044693	 0.77487054	-0.135522
C	-2.7871612267	-1.8321899174	-0.7294478497	-0.170376
C	-1.5116694532	-2.1422301796	 0.0191862776	-0.116878
C	-2.1645411435	-0.5477328554	-1.1815234601	 0.378713
O	-2.197295211	 0.1075672156	-2.1853517148	-0.341944
H	 1.0840808915	 1.70174366	-0.1102335182	 0.136852
H	-0.482893404	 1.7296871926	-0.9701418972	 0.152877
H	-0.4322817276	 1.8350948916	 0.8166365651	 0.115225
H	-1.7278655893	-0.6711869757	 2.2002354559	 0.126307
H	-2.927840248	 0.2834708514	 1.2569118944	 0.114694
H	-3.4778334319	-2.5029160297	-1.2217035424	 0.126527
H	-0.9127867419	-3.0414851992	 0.0391729216	 0.128227
79.1309	153.834	167.9412	203.7496	286.505	386.1672	418.0667	485.5121	609.4392	698.6128	740.0524	755.3492	796.9482	843.5347	860.6922	908.9992	972.7323	975.5368	1036.7809	1064.7342	1069.2314	1112.8589	1147.8849	1152.7155	1180.0315	1213.9155	1225.9828	1256.2863	1285.4337	1369.5033	1486.2471	1488.3399	1506.0709	1510.0716	1876.5248	3005.1163	3047.0496	3088.7791	3117.8825	3141.7481	3216.0655	3229.6512
COC12CN3C(C13)C2=O	CO[C@]12CN3[C@H]([C@@H]13)C2=O	
InChI=1S/C6H7NO2/c1-9-6-2-7-3(4(6)7)5(6)8/h3-4H,2H2,1H3	InChI=1S/C6H7NO2/c1-9-6-2-7-3(4(6)7)5(6)8/h3-4H,2H2,1H3/t3-,4+,6-,7?/m1/s1
