17
gdb 46770	2.70193	1.93378	1.28076	3.9925	72.7	-0.238	0.0082	0.2462	970.132	0.139887	-418.062547	-418.055414	-418.05447	-418.094357	27.597	
O	 0.2673891775	 0.1697735688	 0.55536259	-0.411423
C	 0.1144044656	 1.3015365327	 0.1513448547	 0.435378
N	-1.017953687	 2.0700480752	 0.27224372	-0.340023
C	-0.8982743283	 3.3885880882	-0.3070394276	-0.192149
C	 0.6268796191	 3.4742777782	-0.5849568805	-0.02298
C	 1.5169664239	 4.1807321065	 0.4176918815	-0.089095
C	 2.5261490929	 3.3903252938	 0.7768668879	-0.067387
C	 2.4299014071	 2.0422288808	 0.093582705	-0.232456
N	 1.0888072288	 2.0749167636	-0.511227062	-0.128697
H	-1.8931776656	 1.6363902563	 0.5094723102	 0.256223
H	-1.4672065218	 3.4876642215	-1.2405429437	 0.110499
H	-1.2342951803	 4.1741044974	 0.3796031306	 0.114318
H	 0.7906489572	 3.8946175405	-1.5863707059	 0.096543
H	 1.3624005294	 5.2096082741	 0.7196373325	 0.103401
H	 3.3446232419	 3.6570437903	 1.4342145066	 0.107236
H	 3.208958282	 1.9272480684	-0.6726446156	 0.114337
H	 2.4987449177	 1.1820199735	 0.7660349964	 0.146275
90.3987	124.9676	228.7841	316.7606	392.5034	446.1803	520.3763	604.1193	679.1831	702.4633	747.7916	783.8946	807.4072	861.1595	887.7616	938.81	959.4946	1010.9966	1034.0712	1067.0235	1100.7808	1103.4484	1132.5563	1163.8005	1215.046	1236.6537	1270.4443	1306.8821	1312.8236	1350.778	1352.3422	1394.4089	1445.9081	1505.4716	1536.26	1673.637	1834.496	2997.9303	3010.9341	3015.7075	3050.7531	3089.1418	3199.053	3223.7903	3676.201
O=C1NCC2C=CCN12	O=C1NC[C@H]2C=CCN12	
InChI=1S/C6H8N2O/c9-6-7-4-5-2-1-3-8(5)6/h1-2,5H,3-4H2,(H,7,9)	InChI=1S/C6H8N2O/c9-6-7-4-5-2-1-3-8(5)6/h1-2,5H,3-4H2,(H,7,9)/t5-/m1/s1
