23
gdb 103194	2.73631	1.52965	1.25848	0.2298	87.94	-0.243	0.084	0.327	1128.0631	0.206223	-351.11071	-351.102134	-351.10119	-351.143431	34.768	
C	 0.0960919924	 1.4976386676	 0.2583616483	-0.386225
C	-0.0203775241	 0.0061864267	-0.0821951489	-0.247554
C	-1.4467574533	-0.5597172519	-0.008993239	 0.350788
C	-2.3194585346	-0.0265694972	-1.1500721112	-0.448393
C	-1.6012068786	-2.0811943287	 0.1347296051	-0.099598
C	-1.4892210867	-2.4375634091	 1.6280784333	-0.082557
C	-1.2906560351	-1.1404423847	 2.4113491947	-0.252628
C	-2.2252395136	-0.4911714224	 1.3555782044	-0.090435
C	-2.7906224834	-1.938660217	 1.0461523054	-0.086243
H	 1.1395904262	 1.8259275366	 0.2222320069	 0.110378
H	-0.4679009271	 2.1239577153	-0.4396940493	 0.116108
H	-0.2799080754	 1.7050975164	 1.2662754475	 0.116872
H	 0.3682028172	-0.167531142	-1.0949313206	 0.086388
H	 0.6329047878	-0.5656509688	 0.5847404675	 0.097009
H	-1.9045791696	-0.3061534479	-2.1255511967	 0.10638
H	-3.3353343936	-0.4290301827	-1.0914355908	 0.113743
H	-2.3917745274	 1.0657511012	-1.12323331	 0.110459
H	-1.4402797136	-2.8358348857	-0.6269807639	 0.074392
H	-1.2512938888	-3.4479593255	 1.9367590386	 0.080967
H	-1.7844314378	-1.2010439708	 3.3857320526	 0.095025
H	-0.2846777292	-0.7285182271	 2.5431331201	 0.08873
H	-2.8165631342	 0.3905709816	 1.5990689516	 0.061471
H	-3.7828326578	-2.3645016941	 1.0235076945	 0.084922
79.9181	170.0977	204.6757	236.1128	270.0957	290.0841	366.0408	398.9965	484.1837	527.2698	613.0547	754.7651	776.6895	785.2075	792.3176	804.9103	843.5711	890.63	923.9965	933.228	972.7243	999.2852	1001.7754	1010.1959	1012.8737	1032.7985	1044.9274	1058.538	1077.0567	1132.4732	1155.1442	1162.9347	1197.5874	1202.2262	1221.9262	1241.3896	1273.3814	1301.7763	1333.6322	1366.037	1370.1233	1407.0745	1413.5229	1482.6048	1493.0894	1499.6979	1504.5975	1505.9807	1520.7139	3017.1648	3026.3348	3033.7142	3041.0663	3066.0746	3087.358	3091.2119	3098.562	3101.7326	3106.7417	3121.1366	3174.3778	3190.677	3223.1991
CCC1(C)C2C3CC1C23	CC[C@@]1(C)[C@H]2[C@H]3C[C@@H]1[C@@H]23	
InChI=1S/C9H14/c1-3-9(2)6-4-5-7(6)8(5)9/h5-8H,3-4H2,1-2H3	InChI=1S/C9H14/c1-3-9(2)6-4-5-7(6)8(5)9/h5-8H,3-4H2,1-2H3/t5-,6+,7-,8-,9+/m0/s1
