18
gdb 73753	2.49041	1.5478	1.03196	1.6393	88.5	-0.2157	-0.0162	0.1995	1166.5327	0.147294	-364.775566	-364.76715	-364.766206	-364.808302	32.582	
C	 0.0779717302	 1.4950953988	 0.1175408369	-0.511617
C	 0.0037946738	 0.0084110554	 0.0216998728	 0.194386
C	-0.0386217387	-0.7313022866	-1.108052373	 0.18501
C	-0.0676100429	-0.2506510992	-2.4376360294	 0.196406
C	-0.1078437618	 0.1218044985	-3.584032783	-0.439339
C	-0.0131353664	-2.195512677	-0.7781531067	-0.182739
N	 1.2381204226	-2.5926284239	-0.0766617772	-0.331789
C	 0.0197652921	-2.288515055	 0.7037967933	-0.044701
C	-0.0042620133	-0.8709612204	 1.2591544936	-0.290485
H	 1.0130873147	 1.8099436749	 0.5984887162	 0.133496
H	 0.0265688906	 1.9607169127	-0.8691855535	 0.139849
H	-0.7383142462	 1.8914875156	 0.7353161263	 0.125268
H	-0.1326316365	 0.458205103	-4.5905069061	 0.186998
H	-0.5139688708	-2.9139978527	-1.4170137361	 0.09353
H	 1.3360789054	-3.6052179312	-0.1362756321	 0.227836
H	-0.4741284835	-3.0908735097	 1.2406516125	 0.088567
H	 0.8602885209	-0.6690936911	 1.9038452842	 0.121753
H	-0.9024119601	-0.687266992	 1.8652997112	 0.10757
128.6799	139.6096	157.4816	175.1532	305.9509	352.9638	405.7542	434.1902	492.7628	557.5458	560.305	623.4541	641.956	701.5765	760.986	817.7738	852.3737	874.3402	932.8884	950.6967	972.7388	1035.6904	1069.2849	1095.4768	1134.3666	1173.274	1184.5112	1191.9625	1227.7281	1265.588	1343.4855	1366.1542	1406.8604	1417.6004	1460.9185	1479.3026	1480.0133	1672.8455	2216.1622	3011.4534	3017.384	3051.5684	3061.064	3124.4703	3167.7881	3181.6816	3474.7217	3503.9747
CC1=C(C#C)C2NC2C1	CC1=C(C#C)[C@H]2N[C@H]2C1	
InChI=1S/C8H9N/c1-3-6-5(2)4-7-8(6)9-7/h1,7-9H,4H2,2H3	InChI=1S/C8H9N/c1-3-6-5(2)4-7-8(6)9-7/h1,7-9H,4H2,2H3/t7-,8+/m0/s1
