12
gdb 130827	4.54181	1.06486	0.86261	4.3721	62.86	-0.259	-0.1115	0.1475	1204.736	0.076484	-472.62062	-472.61308	-472.612136	-472.653921	25.862	
O	-0.0837946964	 0.0159016061	 0.0021174445	-0.208203
C	-0.0374082365	 1.214548267	 0.0085454594	 0.081214
C	 1.3240544647	 1.9534223927	-0.0011824112	 0.208188
O	 2.3655181785	 1.3435735705	-0.0153898114	-0.268213
C	 1.2930812236	 3.4367738813	 0.0079462178	 0.296488
N	 0.1491164706	 4.0943143922	 0.0234835299	-0.17466
O	 0.4853320041	 5.4262831125	 0.0279657493	-0.155573
C	 1.8291078359	 5.5441682772	 0.0149963369	 0.091813
C	 2.4098067497	 4.3214735632	 0.0018475455	-0.329665
H	-0.93841448	 1.856113754	 0.0213182214	 0.130742
H	 2.2062073906	 6.5544834415	 0.0171533866	 0.170755
H	 3.4533262452	 4.0596856917	-0.0103154586	 0.157113
55.5826	84.7776	154.5775	196.9764	291.5209	385.5618	487.6823	545.5754	624.8631	722.5447	820.8308	832.9012	892.5495	922.4174	932.6203	977.4874	1014.5679	1030.8777	1074.6251	1138.1326	1303.1226	1399.4935	1452.1913	1472.4976	1582.6298	1792.128	1836.689	2967.1446	3275.6071	3304.5359
O=CC(=O)C1=NOC=C1	O=CC(=O)c1nocc1	
InChI=1S/C5H3NO3/c7-3-5(8)4-1-2-9-6-4/h1-3H	InChI=1S/C5H3NO3/c7-3-5(8)4-1-2-9-6-4/h1-3H
