18
gdb 98026	5.78234	0.58416	0.55515	2.3725	88.17	-0.2536	-0.0515	0.2021	2007.5482	0.145857	-401.912793	-401.902859	-401.901914	-401.949663	34.017	
C	 0.0466102713	 1.5313948433	-0.1239075841	-0.384833
C	-0.0718837401	 0.0097875177	-0.1341088707	-0.278169
C	-1.4847326524	-0.4833926296	 0.139250611	 0.209583
O	-2.4205989242	 0.2643100403	 0.3384180718	-0.296675
C	-1.6498988829	-1.922861483	 0.1471232917	-0.021804
C	-1.793058613	-3.1240712128	 0.160343652	 0.182854
C	-1.9934531155	-4.5399043209	 0.1566179357	-0.174949
C	-2.9075497045	-5.1476490319	 1.1787768362	-0.221674
N	-3.3194220144	-5.0946476663	-0.2198975737	-0.29806
H	 1.0768350457	 1.8367524888	-0.3263183589	 0.110362
H	-0.6033310079	 1.9787852061	-0.8800068401	 0.13376
H	-0.2528304055	 1.9400572694	 0.8444518128	 0.133096
H	 0.2451590409	-0.4140271427	-1.0966747073	 0.130353
H	 0.5901173313	-0.4525957796	 0.6105666517	 0.129328
H	-1.1602348357	-5.1368662584	-0.2034379441	 0.12603
H	-2.6723544058	-6.1394116038	 1.553784093	 0.13402
H	-3.3699069167	-4.4756940978	 1.8952319092	 0.136206
H	-3.9703637506	-4.3251899789	-0.3607516462	 0.250573
34.2801	54.1553	66.2163	112.6409	165.6804	189.5804	263.8404	268.946	394.7625	503.1136	533.0655	574.6388	604.6109	718.5585	805.8278	808.0152	838.753	925.4721	967.1401	993.3986	1021.3062	1078.4192	1087.9011	1113.1187	1132.784	1163.2873	1224.8455	1259.0878	1272.0432	1300.3189	1367.1616	1393.5288	1412.9854	1449.3123	1490.8993	1497.6356	1504.3485	1756.2736	2314.1176	3023.0995	3050.3745	3052.3578	3118.9358	3124.1708	3128.6332	3147.6748	3211.9589	3504.7496
CCC(=O)C#CC1CN1	CCC(=O)C#C[C@H]1CN1	
InChI=1S/C7H9NO/c1-2-7(9)4-3-6-5-8-6/h6,8H,2,5H2,1H3	InChI=1S/C7H9NO/c1-2-7(9)4-3-6-5-8-6/h6,8H,2,5H2,1H3/t6-/m0/s1
