18
gdb 47239	2.63153	1.61878	1.12331	2.8088	82.79	-0.2307	-0.0311	0.1996	1090.608	0.149698	-401.954536	-401.946765	-401.945821	-401.986818	30.246	
N	 0.0023756249	 1.3479712362	 0.3430972076	-0.49509
C	 0.0103535845	 0.1307720034	-0.0007678082	 0.384193
C	-1.2637244221	-0.6815869525	-0.0741228546	-0.339479
C	-1.295588301	-1.6244174838	 1.1027556471	-0.06936
C	-0.6737342579	-2.8078365415	 1.1458178824	-0.063858
C	 0.0649646916	-3.4559085319	 0.0636136811	-0.085524
C	 0.817493807	-2.937376998	-0.9166965319	-0.058396
C	 1.2701065969	-1.5333496936	-1.215107181	-0.156388
O	 1.182223258	-0.5554525354	-0.1801708123	-0.23622
H	 0.9613541485	 1.70131258	 0.3825315076	 0.218991
H	-2.1011521707	 0.0156257252	-0.0478081759	 0.133111
H	-1.3087886092	-1.2499206005	-1.0095853982	 0.121748
H	-1.8265495228	-1.2743312126	 1.9831621681	 0.106423
H	-0.7812851936	-3.4050820942	 2.0490374848	 0.094481
H	-0.0183698957	-4.5421269018	 0.0644641617	 0.09609
H	 1.2243414161	-3.6392083433	-1.6445262746	 0.096653
H	 2.3390586596	-1.5730260965	-1.4553901052	 0.131348
H	 0.7731077559	-1.1638575693	-2.1257542586	 0.121277
84.7409	169.1409	202.4176	285.2815	290.1076	353.0234	459.2824	497.0253	518.5341	631.7855	677.8315	718.8851	771.5732	821.5596	857.0269	861.7135	920.3291	945.1103	985.0487	1002.7329	1012.1494	1034.5506	1054.6395	1056.3093	1138.6358	1202.802	1265.1868	1276.2836	1307.0879	1311.4803	1330.5746	1411.2374	1420.1045	1452.2466	1476.5257	1488.734	1695.6588	1716.9498	1747.8819	2983.2999	3049.3516	3052.6804	3118.4662	3133.2784	3138.0696	3147.8732	3178.0811	3456.5553
N=C1CC=CC=CCO1	[NH][C]1CC=CC=CCO1	
InChI=1S/C7H9NO/c8-7-5-3-1-2-4-6-9-7/h1-4,8H,5-6H2/b3-1-,4-2-,8-7?	InChI=1S/C7H9NO/c8-7-5-3-1-2-4-6-9-7/h1-4,8H,5-6H2/b3-1-,4-2-,8-7?
