21
gdb 56572	2.83681	0.93319	0.92385	2.0743	84.67	-0.249	0.058	0.3069	1427.5246	0.17966	-387.039919	-387.029477	-387.028533	-387.075595	38.501	
C	-0.1487842948	 1.5397391463	-0.1352984971	-0.41307
C	 0.0571147787	 0.0211139139	 0.033989476	-0.160785
C	 0.6765445032	-0.5497587044	-1.1601886225	 0.326939
C	 1.1863300286	-1.0192781315	-2.1424202169	-0.464027
C	 0.8875612936	-0.339020582	 1.3047727727	 0.115058
O	 2.1545095289	 0.3054176106	 1.300243662	-0.433982
C	 0.1216362394	-0.0882360609	 2.5860669645	-0.014801
C	-0.7900622695	-1.1551361071	 3.1422289921	-0.267063
C	 0.5085852418	-0.8331808459	 3.836755968	-0.278058
H	 0.8151373462	 2.0438202458	-0.2454557257	 0.129365
H	-0.7368358271	 1.7461705559	-1.032427286	 0.130908
H	-0.6792056279	 1.9673186636	 0.7210446067	 0.113741
H	-0.9270071127	-0.4494216988	 0.1646640317	 0.106297
H	 1.6393343272	-1.4363546281	-3.0072292454	 0.190754
H	 1.1164803921	-1.4093811252	 1.2460518084	 0.091113
H	 2.0358245783	 1.1993424371	 1.6364286415	 0.280612
H	-0.2091719298	 0.9389130841	 2.7260888263	 0.080337
H	-1.7190036069	-0.8464662525	 3.6083899257	 0.113362
H	-0.8562005438	-2.0944280282	 2.6026042958	 0.117136
H	 1.3188851576	-1.5501592038	 3.7597638779	 0.123573
H	 0.4697927371	-0.3057652387	 4.7832569942	 0.112592
51.8702	72.2986	124.8958	179.5728	196.8176	223.0634	247.3659	269.1691	307.0019	339.5195	436.7753	485.5803	542.6975	616.1137	634.6725	669.2114	769.8309	804.0172	838.0813	861.208	915.8143	947.5849	977.0982	997.4756	1057.059	1073.3274	1082.8973	1095.6838	1127.4932	1134.5629	1151.1283	1196.6757	1227.7124	1278.8266	1294.0852	1315.2783	1354.9274	1401.3799	1407.3937	1437.0426	1471.378	1494.1277	1505.9034	1506.7711	2235.3071	3015.1666	3044.1492	3045.7549	3115.3997	3126.2104	3127.2306	3131.1545	3137.8969	3210.072	3225.4896	3505.3847	3820.847
CC(C#C)C(O)C1CC1	C[C@@H](C#C)[C@@H](O)C1CC1	
InChI=1S/C8H12O/c1-3-6(2)8(9)7-4-5-7/h1,6-9H,4-5H2,2H3	InChI=1S/C8H12O/c1-3-6(2)8(9)7-4-5-7/h1,6-9H,4-5H2,2H3/t6-,8+/m0/s1
