17
gdb 99956	2.16558	1.40722	1.07394	2.2025	65.51	-0.2455	-0.0841	0.1615	1160.6998	0.13117	-496.104798	-496.094443	-496.093498	-496.140297	36.234	
C	-0.5147933469	 1.7152874244	-0.0667548315	-0.421784
C	 0.0405348682	 0.2890205813	-0.062847771	 0.262627
O	 0.8790428909	 0.0634846754	 1.0613419765	-0.473173
C	-1.0972077553	-0.7608550511	-0.0555564737	-0.148314
O	-1.6783159657	-0.6936631686	 1.2458820928	-0.43006
C	 0.9408654449	 0.0490617055	-1.2766697161	 0.279785
O	 0.9535708938	 0.7356841465	-2.2697695579	-0.289699
C	 1.8912834148	-1.1612894745	-1.2683031324	 0.106634
O	 1.5882752304	-2.2561333962	-0.8725965824	-0.2256
H	 0.3001216175	 2.4314515434	 0.0593007243	 0.129323
H	-1.0238607781	 1.9314000529	-1.0091907113	 0.129452
H	-1.2204680907	 1.8340814346	 0.7589085862	 0.131223
H	 0.2872740916	-0.2511329013	 1.7598273897	 0.29122
H	-1.8351468982	-0.5199621854	-0.8322323612	 0.109825
H	-0.677286869	-1.752620443	-0.2455493529	 0.134195
H	-2.0595331571	-1.5510677131	 1.4529021483	 0.302985
H	 2.850304029	-0.9529619509	-1.7886272676	 0.111361
64.1265	90.3913	106.6961	180.4119	194.566	214.2102	228.189	281.7248	303.4608	361.2473	377.1795	440.5705	468.6456	514.0132	569.5338	706.7347	756.0792	848.459	946.3058	968.937	994.2131	1054.7271	1112.5007	1133.3233	1188.4092	1206.8571	1270.6536	1310.3585	1383.1035	1393.0595	1406.1603	1436.3626	1486.1944	1492.3074	1520.3462	1807.7651	1817.491	2915.3178	3017.2423	3055.4753	3096.1153	3136.5003	3137.6115	3734.8631	3848.722
CC(O)(CO)C(=O)C=O	C[C@@](O)(CO)C(=O)C=O	
InChI=1S/C5H8O4/c1-5(9,3-7)4(8)2-6/h2,7,9H,3H2,1H3	InChI=1S/C5H8O4/c1-5(9,3-7)4(8)2-6/h2,7,9H,3H2,1H3/t5-/m1/s1
