18
gdb 98366	2.1345	1.2705	0.83843	2.6196	71.52	-0.2584	-0.0032	0.2552	1368.5697	0.144607	-476.248637	-476.238254	-476.23731	-476.286021	34.92	
C	-0.3978600196	 0.9585166202	 1.3484711215	-0.24291
O	 0.0879737311	-0.3840328982	 1.4998814597	-0.220858
C	 0.8369317015	-0.842665915	 0.4892735295	 0.444781
O	 1.0984131924	-0.2156451546	-0.5060500041	-0.35933
C	 1.2887110693	-2.2935049261	 0.7148330557	-0.030299
C	 2.6943505416	-2.5179086544	 0.171684787	-0.39389
O	 1.2786053868	-2.6636914115	 2.086847254	-0.174255
C	 0.1155852744	-3.103762701	 2.6126430279	 0.139825
N	 0.0467882773	-3.3772863295	 3.8410755962	-0.443643
H	-1.0290239625	 1.0397762821	 0.4601667039	 0.143248
H	-0.9715820962	 1.1672408425	 2.2506892825	 0.142355
H	 0.4372331914	 1.6562506787	 1.2531918967	 0.148087
H	 0.5749045711	-2.918881702	 0.156188146	 0.11326
H	 3.4200621605	-1.9542420589	 0.7636726133	 0.141404
H	 2.9488424793	-3.5783612993	 0.2265466309	 0.129362
H	 2.7473754228	-2.1788950067	-0.8635589045	 0.148233
H	-0.6910786891	-3.1999219209	 1.8733461566	 0.08531
H	-0.884565132	-3.7188110356	 4.0685789171	 0.229319
17.6901	65.3358	113.84	117.6791	147.4264	197.855	214.6005	241.5089	311.1587	332.0225	420.9755	485.0265	564.4535	650.9276	773.4058	817.1531	855.7866	919.455	1000.8699	1038.4806	1059.354	1095.2774	1146.1274	1156.2062	1178.7293	1211.3831	1271.8819	1293.9156	1332.6941	1361.4227	1406.15	1427.1597	1472.4424	1481.8949	1485.303	1495.3862	1498.5143	1749.4081	1818.9574	2988.5834	3025.6116	3056.2047	3061.5797	3132.869	3136.3196	3157.826	3168.0412	3520.1374
COC(=O)C(C)OC=N	COC(=O)[C@@H](C)O[CH][NH]	
InChI=1S/C5H9NO3/c1-4(9-3-6)5(7)8-2/h3-4,6H,1-2H3	InChI=1S/C5H9NO3/c1-4(9-3-6)5(7)8-2/h3-4,6H,1-2H3/t4-/m1/s1
