14
gdb 128443	4.70789	1.02676	0.84742	3.2103	65.43	-0.2804	-0.0443	0.2361	1273.6163	0.100933	-473.846652	-473.838666	-473.837722	-473.880144	27.571	
C	-0.040115214	 1.3456202784	 0.0504972969	-0.244934
O	 0.022431168	-0.0844543065	-0.0348509214	-0.242552
C	 0.6467853375	-0.5666729553	-1.1289452538	 0.370255
O	 1.1298494892	 0.1229426777	-1.9941426535	-0.37712
C	 0.6633683168	-2.033907354	-1.1326090876	 0.019485
C	 0.1607591141	-2.9238055676	-0.2295914428	 0.020368
O	 0.3970144785	-4.1720592919	-0.6251551178	-0.161504
N	 1.088639421	-4.1448639148	-1.8461585307	-0.125769
C	 1.2353963388	-2.8785973625	-2.1281320385	-0.025012
H	 0.9650121144	 1.7738646625	 0.0710773534	 0.145807
H	-0.5813133268	 1.7584801348	-0.8043426882	 0.145802
H	-0.5678604202	 1.5628302628	 0.9788718513	 0.136461
H	-0.3682436921	-2.802871691	 0.7023587992	 0.176893
H	 1.7449603749	-2.5818667825	-3.0330409165	 0.161819
77.8215	107.1607	130.0732	139.2999	244.9458	310.0253	391.408	500.6502	605.7272	647.4876	784.7042	808.1114	861.6767	883.0832	932.5378	937.9304	971.3369	1031.361	1152.5137	1165.6956	1179.1978	1211.5977	1231.3906	1318.3779	1409.7659	1472.6004	1481.5483	1493.1857	1499.9913	1630.3747	1808.3028	3054.0232	3129.7621	3162.6511	3261.0008	3277.0431
COC(=O)C1=CON=C1	COC(=O)c1conc1	
InChI=1S/C5H5NO3/c1-8-5(7)4-2-6-9-3-4/h2-3H,1H3	InChI=1S/C5H5NO3/c1-8-5(7)4-2-6-9-3-4/h2-3H,1H3
