19
gdb 39404	2.43734	2.16179	1.74059	1.377	73.32	-0.2423	0.0756	0.3179	882.9395	0.162813	-422.987858	-422.981397	-422.980452	-423.018287	27.407	
C	-0.0620956589	 1.5644244327	 0.0700505291	-0.243072
C	 1.4928759428	 1.487171434	-0.0540692852	-0.085563
C	 2.1826879259	 1.6072677301	 1.315109693	-0.081803
O	 1.3239357206	 1.2742706663	 2.3994490401	-0.251508
C	 0.9146453144	-0.076617457	 2.5019303163	-0.087258
C	 0.5797749744	-0.7706219546	 1.1879582498	 0.073674
O	 1.7948080051	-0.9718004961	 0.4038274273	-0.298966
C	 1.3379790264	-0.0020848139	-0.5430641514	 0.123072
C	-0.0977644575	 0.0228172663	 0.0163499684	-0.088921
H	-0.4670672431	 2.071497008	 0.9455297531	 0.116753
H	-0.5200234885	 1.9775050412	-0.8333170286	 0.097955
H	 1.9611491124	 2.170025269	-0.7675895989	 0.070589
H	 3.0979561836	 0.999256607	 1.3353519743	 0.106563
H	 2.4546816796	 2.6513968645	 1.4960799555	 0.104893
H	 1.6979132413	-0.6828282114	 2.9866872327	 0.103013
H	 0.0370853271	-0.0735254564	 3.1594383488	 0.10668
H	 0.1068285294	-1.7344781277	 1.4101327013	 0.084884
H	 1.6212074506	-0.2322091295	-1.571875032	 0.075399
H	-0.9417398554	-0.4884520226	-0.4467094635	 0.073619
205.9439	280.7296	310.8601	356.0583	382.7454	484.9344	569.9128	677.5086	722.5597	742.6569	791.473	829.3124	855.1101	873.248	902.4622	931.1601	972.2372	1013.3887	1015.2913	1041.0296	1066.5604	1074.9705	1088.9105	1127.6369	1154.3258	1171.5877	1212.3016	1238.5083	1250.2411	1276.8432	1282.8697	1308.6219	1320.6397	1328.7395	1346.6678	1358.7221	1392.275	1417.9533	1478.744	1482.7141	1490.9922	2971.8097	3011.7078	3036.4133	3059.7026	3061.1422	3071.8194	3085.4376	3093.7272	3110.3507	3134.8707
C1C2COCC3OC2C13	C1[C@H]2COC[C@@H]3O[C@H]2[C@H]13	
InChI=1S/C7H10O2/c1-4-2-8-3-6-5(1)7(4)9-6/h4-7H,1-3H2	InChI=1S/C7H10O2/c1-4-2-8-3-6-5(1)7(4)9-6/h4-7H,1-3H2/t4-,5+,6-,7+/m0/s1
