17
gdb 36475	2.8692	1.07018	0.8584	3.9826	76.72	-0.3173	0.0062	0.3235	1315.1593	0.136752	-380.893713	-380.885038	-380.884094	-380.927992	31.028	
N	 0.11566348	-1.1863295567	-0.1321846956	-0.301267
C	 0.0346263064	-0.0387835103	-0.0240175963	 0.262915
C	-0.0314266245	 1.4151966512	 0.1094701419	-0.376206
C	 1.360791454	 2.0482344037	 0.0252211092	 0.026965
C	 2.1397040581	 2.0013839243	-1.3149845774	-0.224048
C	 2.6157561787	 3.4543485068	-1.058205654	-0.226185
C	 1.4787493381	 3.6171521241	 0.0084771941	-0.198363
C	 0.2963541785	 4.2958590375	-0.4991201801	 0.282427
N	-0.6525246206	 4.8141597701	-0.9105728742	-0.329181
H	-0.6810590004	 1.8161111401	-0.6764996165	 0.173228
H	-0.5081191884	 1.6598371247	 1.0661140931	 0.160032
H	 1.982489251	 1.6702479117	 0.8410404637	 0.110846
H	 2.9006096292	 1.2274824936	-1.4209033577	 0.126194
H	 1.4606718317	 1.9454143731	-2.1706693216	 0.127274
H	 3.5957657342	 3.4986461193	-0.5789277852	 0.123623
H	 2.5960822596	 4.1501804918	-1.8968545806	 0.13308
H	 1.7677787642	 4.0769599549	 0.9564691573	 0.128664
64.6391	89.875	99.7501	158.8275	230.9866	313.5214	380.0559	395.5869	479.3115	521.5325	599.2315	710.4435	770.1991	807.0364	872.9387	898.9336	941.0381	945.2816	977.0312	1029.1871	1090.3303	1105.1333	1123.4362	1185.9421	1227.0601	1251.4669	1262.7603	1270.8732	1281.9519	1330.8176	1348.4128	1383.22	1463.9871	1483.3326	1498.9219	2348.6108	2363.471	3043.9019	3067.0039	3073.232	3080.6582	3086.9891	3092.3714	3130.3856	3147.4593
N#CCC1CCC1C#N	N#CC[C@H]1CC[C@H]1C#N	
InChI=1S/C7H8N2/c8-4-3-6-1-2-7(6)5-9/h6-7H,1-3H2	InChI=1S/C7H8N2/c8-4-3-6-1-2-7(6)5-9/h6-7H,1-3H2/t6-,7+/m1/s1
