18
gdb 55171	2.95241	1.3925	1.19714	3.9274	71.62	-0.2278	-0.0056	0.2222	1090.4692	0.146669	-439.045766	-439.037314	-439.03637	-439.079628	31.129	
C	 0.1137494964	 1.2424433449	 0.5459883505	-0.489583
C	 0.1537419664	-0.2162360503	 0.1331005042	 0.397376
O	 1.1781464245	-0.806301168	-0.1037105834	-0.292833
C	-1.207116899	-0.9017497741	 0.0325221917	-0.117679
N	-1.196894195	-2.3806233654	 0.1547335375	-0.309755
C	-2.2447785668	-2.3466784258	 1.200705513	-0.051965
C	-1.634623078	-2.2897664323	 2.6141475981	-0.064246
O	-1.4967929355	-0.8408832597	 2.5263310547	-0.292942
C	-2.1637254693	-0.8045634367	 1.2543764469	 0.081774
H	 1.0868808665	 1.7054029842	 0.3777269741	 0.14039
H	-0.6637652143	 1.7928950975	 0.0045105321	 0.123694
H	-0.1341764089	 1.2900370635	 1.6127645156	 0.167267
H	-1.704714345	-0.5248468301	-0.8755502649	 0.089682
H	-1.4514671413	-2.8764368412	-0.6891979306	 0.22699
H	-3.1471528764	-2.9344664771	 1.0310615238	 0.083068
H	-2.3126598148	-2.5638002897	 3.4316760607	 0.101365
H	-0.6710745621	-2.7949367124	 2.7250857297	 0.124318
H	-2.9891003675	-0.0902502272	 1.2258616062	 0.083079
48.7314	88.3569	146.2702	165.1363	238.6084	353.0319	402.5136	443.988	511.1975	608.9752	633.9079	738.2661	781.4461	800.4591	865.4846	929.5682	939.0278	958.3363	994.9839	1014.6158	1042.8728	1050.1818	1072.5571	1089.0827	1152.562	1177.6589	1193.0962	1203.5437	1246.2451	1277.5151	1300.1898	1349.893	1366.6999	1378.9956	1395.2961	1467.637	1476.3734	1502.3205	1827.833	2975.5825	3023.7994	3034.1241	3085.2	3098.5059	3099.0804	3109.478	3150.5371	3570.278
CC(=O)C1NC2COC12	CC(=O)[C@H]1N[C@H]2CO[C@@H]12	
InChI=1S/C6H9NO2/c1-3(8)5-6-4(7-5)2-9-6/h4-7H,2H2,1H3	InChI=1S/C6H9NO2/c1-3(8)5-6-4(7-5)2-9-6/h4-7H,2H2,1H3/t4-,5+,6+/m0/s1
