18
gdb 50085	3.75788	0.95767	0.85526	3.4444	74.44	-0.2524	-0.0003	0.2521	1358.6948	0.147249	-439.05208	-439.043472	-439.042528	-439.086629	30.476	
O	 0.0706911356	 0.315913535	-0.530500848	-0.288556
C	 0.148389488	 1.4464935156	-0.1167860535	 0.137933
N	 1.2588748229	 1.9876227448	 0.5070159257	-0.063581
C	 2.6246436426	 1.7636956211	 0.1051915703	-0.2466
C	 2.0274831309	 3.1459000284	 0.0828518357	-0.037562
C	 1.7301458314	 3.8043981833	-1.2381147758	 0.142641
C	 0.8043747129	 5.0446420311	-1.2518149896	-0.304608
C	 2.0191309179	 5.7640047825	-1.8694116141	-0.063499
O	 2.850029	 4.5929859144	-1.6962453293	-0.288717
H	-0.7024524234	 2.1553409217	-0.1207929915	 0.084551
H	 3.3190710249	 1.4945857732	 0.8954199395	 0.133424
H	 2.782650505	 1.2626208887	-0.8466759809	 0.143479
H	 2.2972770303	 3.8352528129	 0.8816260212	 0.1051
H	 1.4545936811	 3.035748842	-1.9758409537	 0.088227
H	-0.0881947175	 4.9698483881	-1.8737462288	 0.119939
H	 0.5236065535	 5.4003533066	-0.2583345739	 0.117352
H	 1.9124105277	 6.0314771884	-2.9276967119	 0.109034
H	 2.4119576763	 6.6275034522	-1.3217657815	 0.111444
59.1749	71.149	97.5055	170.3773	200.9461	303.6092	345.2202	375.1639	495.7205	640.9321	752.5912	811.2649	828.1407	873.5281	944.705	960.0791	978.9814	1006.4454	1029.523	1038.6691	1079.3518	1092.4693	1115.7979	1132.0091	1157.1047	1165.8252	1200.5366	1221.0814	1259.1927	1279.7043	1319.2455	1356.796	1378.9847	1418.8945	1449.4968	1489.8041	1512.0669	1532.2294	1799.9945	2945.3042	2991.8214	3024.6435	3068.0801	3080.2665	3114.2597	3122.5998	3138.2628	3205.1221
O=CN1CC1C1CCO1	O=CN1C[C@H]1[C@H]1CCO1	
InChI=1S/C6H9NO2/c8-4-7-3-5(7)6-1-2-9-6/h4-6H,1-3H2	InChI=1S/C6H9NO2/c8-4-7-3-5(7)6-1-2-9-6/h4-6H,1-3H2/t5-,6+,7?/m0/s1
