19
gdb 71774	3.10588	1.81312	1.57955	1.3271	76.48	-0.2424	0.0808	0.3232	913.1818	0.162437	-385.891687	-385.885076	-385.884132	-385.922076	28.727	
O	-0.0621636306	 1.3693821589	-0.059967363	-0.479961
C	 0.0179874915	-0.0242520926	-0.0510620277	 0.393474
C	 1.0021232607	-0.7073767271	-0.9945065678	-0.303851
C	 0.4523872711	-2.1169842993	-1.1466465413	-0.064431
C	 0.0792919354	-2.8591260198	 0.1180863564	-0.062708
C	 0.2993034944	-2.1313800288	 1.4377504986	-0.24231
C	-0.3350807793	-0.7646777679	 1.2194470095	-0.139186
C	-1.262265221	-0.8235446053	 0.0052912421	-0.110332
C	-0.9966253747	-2.1465039325	-0.6835775291	-0.070461
H	 0.6649005059	 1.7136832956	 0.4702447311	 0.279202
H	 0.996001381	-0.1802277506	-1.9554229062	 0.106254
H	 2.0318147485	-0.6911337025	-0.6132877748	 0.090174
H	 0.7672984288	-2.7067751185	-2.0003095452	 0.080661
H	 0.1491512248	-3.9413639179	 0.1015493107	 0.07863
H	-0.2083600778	-2.6598260578	 2.2536186227	 0.099639
H	 1.3615700164	-2.0658362344	 1.7061562813	 0.095756
H	-0.6116822224	-0.1528840992	 2.0718053633	 0.080431
H	-2.2323536612	-0.3454572898	-0.0059583986	 0.088757
H	-1.7766277915	-2.6698295405	-1.2203331119	 0.080263
241.0242	260.376	309.2689	358.38	432.7321	452.8848	564.4645	658.6984	685.3072	699.7079	732.0236	779.3737	786.8768	847.0144	897.8005	926.8611	942.8838	947.7168	979.9967	1000.936	1017.3132	1022.756	1037.8864	1060.1258	1073.0949	1094.7748	1126.8158	1162.153	1200.1751	1206.4468	1245.8625	1259.3669	1292.2086	1296.5692	1319.8096	1342.5214	1343.463	1406.2727	1439.0629	1487.8962	1500.5017	3017.6308	3022.0139	3054.8116	3063.8568	3162.8894	3165.532	3172.7824	3198.1384	3211.7543	3792.8659
OC12CC3C4CC1C2C34	O[C@@]12C[C@H]3[C@H]4C[C@@H]1[C@@H]2[C@@H]34	
InChI=1S/C8H10O/c9-8-2-4-3-1-5(8)7(8)6(3)4/h3-7,9H,1-2H2	InChI=1S/C8H10O/c9-8-2-4-3-1-5(8)7(8)6(3)4/h3-7,9H,1-2H2/t3-,4+,5-,6-,7-,8+/m1/s1
