21
gdb 110014	2.08398	1.55811	0.97792	3.804	78.06	-0.2467	-0.0288	0.2179	1244.2711	0.182926	-424.263403	-424.254351	-424.253407	-424.297169	34.631	
C	-0.2239979531	 1.5419906401	-0.1271588176	-0.41388
C	 0.0426599507	 0.041589586	-0.0043971537	 0.009342
C	 0.8603637579	-0.5491526521	-1.1794070269	-0.223256
C	 1.3305008011	-1.9160422835	-0.664056823	-0.31699
C	 1.5545425375	-1.684155243	 0.8254781076	 0.406893
O	 2.2766648022	-2.340945348	 1.5435860608	-0.34167
C	 0.7983728595	-0.4262474978	 1.2677169069	-0.145002
C	 1.8273196981	 0.5588599033	 1.8765711558	-0.058164
O	 2.386666586	 0.0507286662	 3.0637944098	-0.42867
H	 0.7059367635	 2.1179686732	-0.1736681178	 0.123792
H	-0.7880860342	 1.7549686562	-1.0412494079	 0.115524
H	-0.8102398927	 1.9180228368	 0.7175872599	 0.121342
H	-0.9288910571	-0.4711280387	-0.000042491	 0.080149
H	 0.2743590727	-0.6121665268	-2.1000111087	 0.105403
H	 1.7269906195	 0.0899847158	-1.3898554548	 0.108164
H	 0.5327475154	-2.665460051	-0.7645435422	 0.1317
H	 2.223016638	-2.3270464053	-1.1403733242	 0.129104
H	 0.1149934029	-0.6879535233	 2.0828865256	 0.106902
H	 2.6039732024	 0.8019678841	 1.1305517065	 0.083517
H	 1.3265980929	 1.4967913058	 2.1355895654	 0.109388
H	 2.6442474167	-0.8655668382	 2.8827816895	 0.296412
62.4987	154.1988	173.335	202.8896	243.4458	255.9504	302.3385	394.5757	453.8934	484.9188	530.0429	545.848	578.9863	653.5282	767.1294	801.8105	868.4459	935.4071	948.8555	965.5155	996.4571	1003.8912	1051.5713	1089.8555	1100.2203	1158.9295	1171.9628	1180.4327	1210.1459	1239.7196	1271.0047	1304.055	1305.485	1320.5026	1352.5646	1372.2659	1382.9163	1416.5986	1452.9267	1465.4758	1497.0007	1499.734	1504.5211	1520.0734	1807.42	2948.6877	3003.9433	3022.8984	3032.6497	3036.3419	3054.4155	3074.7171	3094.2888	3099.3951	3104.8563	3114.3445	3709.5328
CC1CCC(=O)C1CO	C[C@H]1CCC(=O)[C@H]1CO	
InChI=1S/C7H12O2/c1-5-2-3-7(9)6(5)4-8/h5-6,8H,2-4H2,1H3	InChI=1S/C7H12O2/c1-5-2-3-7(9)6(5)4-8/h5-6,8H,2-4H2,1H3/t5-,6-/m0/s1
