14
gdb 17510	4.86626	1.845	1.66715	4.6858	65.6	-0.2694	-0.0061	0.2634	778.3852	0.1093	-341.53753	-341.531514	-341.53057	-341.567533	23.527	
N	 0.0275401654	-1.157334392	-0.0034722871	-0.331513
C	 0.0036035578	-0.0014148612	-0.0182664656	 0.182921
C	-0.0208502064	 1.4383079767	-0.0148161649	 0.222417
C	-1.111080933	 2.2241431952	 0.7532276889	-0.275842
C	-0.9125744925	 3.2557085383	-0.3400331148	-0.040529
C	 0.5304296369	 3.2812871972	-0.7242935195	-0.040531
C	 1.2802308856	 2.2665202176	 0.1164268216	-0.275866
N	-0.3832433697	 2.2417883303	-1.3221679516	-0.171967
H	-2.0829826677	 1.7354544288	 0.6622586423	 0.137495
H	-0.9110861179	 2.4831143367	 1.7968587228	 0.115364
H	-1.6086939969	 4.021095917	-0.6603951634	 0.1126
H	 0.9493733336	 4.0664356431	-1.3415933515	 0.1126
H	 1.6171419084	 2.5279014913	 1.1236009296	 0.115364
H	 2.0938295564	 1.809517101	-0.4500407468	 0.137487
165.9233	173.9614	393.5568	426.3026	498.6153	553.1665	562.1724	734.7238	767.1214	804.9991	822.5148	877.2098	920.3613	996.4666	1009.2273	1022.889	1030.5532	1065.7748	1089.2319	1097.2536	1161.7857	1184.7043	1246.2149	1251.5763	1304.3211	1325.9726	1372.639	1487.9095	1505.7147	2354.8115	3057.9331	3061.908	3126.6334	3128.6168	3191.7161	3202.6871
N#CC12CC3C(C1)N23	N#C[C@@]12C[C@H]3[C@@H](C1)N23	
InChI=1S/C6H6N2/c7-3-6-1-4-5(2-6)8(4)6/h4-5H,1-2H2	InChI=1S/C6H6N2/c7-3-6-1-4-5(2-6)8(4)6/h4-5H,1-2H2/t4-,5+,6+,8?
