19
gdb 113905	3.626	0.84177	0.72755	3.8934	74.84	-0.2279	0.0623	0.2903	1567.0705	0.158385	-456.352449	-456.342575	-456.341631	-456.388213	35.611	
C	 0.252698489	 1.1673111529	 0.2868054591	-0.232606
O	-0.3816698265	 0.1348668389	-0.4445114149	-0.25074
C	 0.4522010231	-0.4796341539	-1.3778937215	 0.076832
C	 1.4002690162	-1.5638564119	-0.907006516	-0.338134
C	 0.1298908667	-1.9132197336	-1.6607830616	 0.03337
N	-0.9809973955	-2.4794430913	-0.9595710046	-0.353496
C	-1.6088197266	-3.5997056975	-1.4547298366	 0.453795
N	-2.7950536849	-3.9107006913	-0.79508604	-0.569611
O	-1.1897375149	-4.2486479801	-2.3954372685	-0.392985
H	 1.1167811631	 0.7898446813	 0.8505640745	 0.115078
H	 0.5946256679	 1.9747955019	-0.376599105	 0.113333
H	-0.4864545982	 1.5696378858	 0.983204814	 0.129055
H	 0.7600792327	 0.1679116525	-2.1995470403	 0.093187
H	 2.3558601602	-1.680948223	-1.4064709957	 0.117696
H	 1.4011114496	-1.7769070768	 0.1566367989	 0.117854
H	 0.2167857081	-2.2863620096	-2.6737441391	 0.131764
H	-1.510068402	-1.8277881052	-0.3990899503	 0.251824
H	-2.8543426082	-3.676153524	 0.1848859209	 0.245365
H	-3.1124160297	-4.8443157352	-1.0083207735	 0.258419
36.6922	89.6988	103.6845	130.544	197.5137	225.8913	299.0226	340.5607	389.1589	457.8569	485.1465	518.3608	564.1023	598.1171	650.5355	772.0255	780.2445	826.2659	908.2291	981.2816	1003.1461	1036.8727	1073.0389	1093.0383	1100.2581	1130.25	1172.504	1184.0302	1196.8464	1244.8112	1258.4621	1308.0258	1369.7459	1405.7156	1465.7523	1485.7392	1489.8638	1509.1548	1535.7429	1626.3481	1801.5842	2992.8742	3047.4601	3093.9302	3121.7254	3132.0928	3195.7915	3226.5585	3571.3446	3609.8841	3685.5242
COC1CC1NC(N)=O	CO[C@H]1C[C@H]1NC(=O)N	
InChI=1S/C5H10N2O2/c1-9-4-2-3(4)7-5(6)8/h3-4H,2H2,1H3,(H3,6,7,8)	InChI=1S/C5H10N2O2/c1-9-4-2-3(4)7-5(6)8/h3-4H,2H2,1H3,(H3,6,7,8)/t3-,4+/m1/s1
