21
gdb 114428	3.7329	1.24824	1.12115	1.6005	80.55	-0.2235	0.0812	0.3047	1175.6002	0.184199	-387.062269	-387.054479	-387.053535	-387.094537	31.266	
C	-0.0565516083	 1.5507427755	-0.0643366988	-0.38494
C	 0.0512363404	 0.0229786312	-0.0330597497	-0.19244
C	 0.7047419077	-0.5222243299	 1.2397904211	 0.051796
C	-0.0819928518	-0.2449593215	 2.5596505323	-0.246313
C	 0.0868168068	-1.5219172884	 3.3820728757	-0.090313
C	-0.3579804128	-2.8119232718	 2.7185914923	 0.101795
O	-0.5205701153	-2.6203802066	 1.3121848122	-0.310391
C	 0.8339936757	-2.0462824693	 1.2628117393	 0.069172
C	 1.0928423066	-2.4538417768	 2.728034652	-0.165715
H	 0.9304493424	 2.0203795427	 0.0183579207	 0.109924
H	-0.5103945371	 1.8950400654	-0.9988564599	 0.11156
H	-0.6715552875	 1.927255962	 0.7596627457	 0.118278
H	-0.9429428344	-0.4282947765	-0.1303485626	 0.11516
H	 0.6304787302	-0.3145278649	-0.9028646575	 0.087885
H	 1.7186303775	-0.1051962428	 1.3318297781	 0.065554
H	 0.3117054833	 0.6238901919	 3.0942309691	 0.0985
H	-1.1379462111	-0.0468144562	 2.3464552814	 0.107337
H	 0.0346886605	-1.4915102917	 4.465073369	 0.085473
H	-0.9278462946	-3.6015833323	 3.1943790293	 0.099828
H	 1.4250364339	-2.4989312658	 0.4638589183	 0.073818
H	 1.9669599877	-2.9108849641	 3.1695884219	 0.094033
103.5755	128.221	190.2084	243.094	319.7332	390.2012	466.2163	491.5954	661.5794	715.045	755.0616	787.5743	801.4845	808.0065	846.013	868.2532	912.1928	940.9529	966.8255	979.9601	1009.1527	1018.3907	1030.8972	1044.9705	1059.2505	1076.6364	1113.2207	1135.1363	1145.4755	1204.9788	1227.8361	1253.3396	1269.0201	1281.8281	1297.0684	1315.3298	1327.2693	1361.4741	1387.3274	1406.8898	1413.7887	1487.8144	1496.6341	1501.2592	1508.2827	2996.5583	3019.0674	3030.1034	3045.7634	3064.0242	3088.8901	3094.1081	3097.5528	3103.6252	3171.9349	3181.7418	3211.6031
CCC1CC2C3OC1C23	CC[C@H]1C[C@H]2[C@H]3O[C@@H]1[C@@H]23	
InChI=1S/C8H12O/c1-2-4-3-5-6-7(4)9-8(5)6/h4-8H,2-3H2,1H3	InChI=1S/C8H12O/c1-2-4-3-5-6-7(4)9-8(5)6/h4-8H,2-3H2,1H3/t4-,5+,6+,7-,8+/m0/s1
