19
gdb 38887	3.61727	1.44277	1.1517	1.6914	81.13	-0.2322	0.0123	0.2445	1079.1057	0.161897	-385.861276	-385.854215	-385.853271	-385.89257	28.897	
C	-0.0236343086	 1.547995619	-0.0257013076	-0.284176
C	 1.2901902463	 0.8014513111	 0.0080757304	-0.03165
C	 2.1609094202	 0.7986516448	 1.2747292944	-0.268263
C	 2.0563914873	-0.5877366274	 1.909272473	 0.091404
O	 2.2564467005	-0.7009053168	 3.3500630194	-0.309718
C	 0.9536473749	-1.3256689333	 3.5212152263	-0.170265
C	 0.6209775591	-0.9922836356	 2.0895932525	 0.275557
C	-0.3823986621	-0.6676317782	 1.287728243	-0.261367
C	-0.0239511471	 0.0330449898	 0.0198609008	-0.049793
H	-0.3162122584	 2.075166941	 0.8769827452	 0.114062
H	-0.3232430499	 2.0352894494	-0.9478396119	 0.109715
H	 1.8408938796	 0.7690260658	-0.9263543718	 0.086519
H	 3.193095614	 1.0702740891	 1.0327187588	 0.100912
H	 1.7933660468	 1.5262504917	 2.0048568274	 0.109047
H	 2.6906524815	-1.3153335037	 1.3823386651	 0.080247
H	 1.0489438579	-2.3955033094	 3.7556664622	 0.107743
H	 0.3536308914	-0.8421399909	 4.3016896355	 0.116608
H	-1.4275292641	-0.8275527835	 1.5410035114	 0.091381
H	-0.3051105292	-0.4643669229	-0.9050961543	 0.092038
132.5362	171.8804	285.2648	345.0096	383.008	443.1341	469.1843	516.0289	658.5923	772.2104	791.5285	811.0074	829.8107	841.8946	871.0432	948.8269	963.9379	973.6338	989.1566	1016.8556	1044.2531	1064.7365	1085.077	1100.0707	1124.8959	1138.8327	1140.0945	1147.4595	1212.9922	1218.83	1248.9304	1293.1789	1310.6272	1356.2176	1369.9483	1375.3196	1393.286	1480.8138	1494.9147	1509.6731	1782.1554	2991.3547	3000.043	3047.2379	3049.0443	3092.1875	3123.6554	3130.3409	3155.3269	3156.9721	3211.7538
C1C2CC3OCC3=CC12	C1[C@H]2C[C@H]3OC[C]3[CH][C@@H]12	
InChI=1S/C8H10O/c1-5-2-7-4-9-8(7)3-6(1)5/h2,5-6,8H,1,3-4H2	InChI=1S/C8H10O/c1-5-2-7-4-9-8(7)3-6(1)5/h2,5-6,8H,1,3-4H2/t5-,6+,8-/m1/s1
