23
gdb 110255	3.01339	1.04902	0.90406	1.2931	87.39	-0.2595	0.0774	0.3369	1408.5169	0.205167	-388.223192	-388.21323	-388.212286	-388.258735	36.925	
C	 0.0474622864	 1.5912034107	-0.4455514771	-0.450825
C	 0.103145627	 0.0663996438	-0.3334093194	 0.066344
C	 1.2927299717	-0.8479655426	-0.7966413763	-0.092803
C	 2.0965145205	-0.444916248	 0.4820955153	 0.071579
C	 2.8872903974	 0.8591492292	 0.5964252	-0.45561
C	 0.6107505325	-0.6709831348	 0.9485756246	-0.12275
C	 0.6730844487	-1.9791562872	 0.0940226107	 0.085726
C	-0.5586062541	-2.7685558952	-0.3049452047	-0.156096
O	-0.1449597397	-3.6944680978	-1.3060346836	-0.420719
H	 0.3024880367	 1.9259613677	-1.4579428974	 0.115425
H	-0.9753052258	 1.9297906278	-0.2466522782	 0.109098
H	 0.6947594379	 2.1170935673	 0.2550126583	 0.123689
H	-0.8556492356	-0.3103333575	-0.6952621638	 0.061276
H	 1.6818474104	-0.9617906188	-1.8105504275	 0.067293
H	 2.7400116203	-1.2569156673	 0.8400798144	 0.063126
H	 2.7992043596	 1.2969748511	 1.5976310884	 0.114702
H	 3.9496105214	 0.6481228616	 0.4334319117	 0.112054
H	 2.6028722406	 1.6195966606	-0.1298519588	 0.124388
H	 0.2213586178	-0.5731147138	 1.965790423	 0.057884
H	 1.420553426	-2.6980921548	 0.4454472861	 0.069377
H	-0.9387070623	-3.2962523217	 0.5858341824	 0.082601
H	-1.3755606165	-2.1352787943	-0.6748841171	 0.089155
H	-0.9014888408	-4.2414202257	-1.5367423511	 0.285084
50.1627	57.5262	119.8146	142.829	222.7577	238.9628	276.3239	317.4373	358.9006	386.7054	434.2903	540.2553	640.8347	738.0561	776.8008	786.934	799.503	838.4496	909.5853	1008.2305	1018.4919	1031.4882	1048.8368	1052.1449	1057.567	1067.2306	1086.7789	1108.9542	1138.5586	1151.0938	1163.7124	1203.7052	1216.0456	1223.8351	1244.5314	1257.7259	1269.6272	1289.6696	1401.891	1406.4863	1417.1955	1426.9331	1465.4967	1473.6198	1494.3498	1496.9383	1501.2408	1524.1113	1530.8435	2961.5859	3013.7221	3020.4473	3032.5456	3035.8265	3051.5661	3068.541	3073.7076	3085.3748	3085.9159	3092.537	3137.8168	3157.1563	3827.6967
CC1C2C(C)C1C2CO	C[C@H]1[C@H]2[C@@H](C)[C@@H]1[C@H]2CO	
InChI=1S/C8H14O/c1-4-7-5(2)8(4)6(7)3-9/h4-9H,3H2,1-2H3	InChI=1S/C8H14O/c1-4-7-5(2)8(4)6(7)3-9/h4-9H,3H2,1-2H3/t4-,5+,6-,7-,8+
