19
gdb 102703	2.17102	1.1452	1.07332	4.5875	69.23	-0.2596	0.004	0.2636	1266.996	0.156882	-497.299759	-497.289674	-497.28873	-497.335568	35.103	
C	 0.0503803608	 0.6607104909	 0.5574632907	-0.24603
O	-0.2074335162	-0.4843534845	-0.2338962822	-0.251561
C	 0.6709169857	-0.6962197913	-1.3191777631	 0.106959
C	 2.1675236204	-0.6588550854	-0.9423477194	-0.093522
O	 2.4900550726	-1.3872460917	 0.2184697278	-0.415476
C	 0.245316745	-2.0360285128	-1.9134728088	-0.115995
O	 0.545846365	-3.1129910801	-1.0129145623	-0.206512
C	-0.4086231762	-3.4580957197	-0.1123082892	 0.190641
O	-0.1876673502	-4.2219858579	 0.7759805561	-0.278376
H	 0.9792414807	 0.5549044866	 1.1285097236	 0.142308
H	 0.0986578756	 1.5731511365	-0.0559204628	 0.103673
H	-0.7869463822	 0.7524040268	 1.2529096087	 0.131736
H	 0.5141606917	 0.0710368953	-2.1011755361	 0.07011
H	 2.7426657668	-0.990020302	-1.8239119383	 0.091037
H	 2.4669965181	 0.3753285155	-0.7454167198	 0.11339
H	 2.1763736806	-2.2912809708	 0.0969219199	 0.304292
H	-0.8281702688	-2.0193597437	-2.1333278713	 0.124626
H	 0.7936751745	-2.2464997161	-2.8343100019	 0.12822
H	-1.3804729337	-2.9773854656	-0.3149278914	 0.100479
58.8671	68.4623	114.2518	143.2635	170.2899	223.8852	251.9257	276.4634	316.1537	351.3083	407.1521	500.8948	544.1735	627.8196	758.6332	815.1967	907.2894	948.9105	986.8894	1030.1793	1049.7709	1086.9625	1121.9731	1153.7721	1158.5402	1182.325	1216.4821	1241.3648	1302.7444	1342.1241	1370.2342	1391.1664	1403.1096	1426.1369	1442.1842	1480.0835	1488.5346	1490.7343	1503.9854	1520.7158	1869.3041	2928.4396	2964.9776	2990.7793	3002.0672	3047.8289	3072.1415	3076.9184	3118.1951	3123.064	3794.6436
COC(CO)COC=O	CO[C@@H](CO)COC=O	
InChI=1S/C5H10O4/c1-8-5(2-6)3-9-4-7/h4-6H,2-3H2,1H3	InChI=1S/C5H10O4/c1-8-5(2-6)3-9-4-7/h4-6H,2-3H2,1H3/t5-/m0/s1
