17
gdb 65626	3.31814	1.31423	1.20405	3.8302	72.36	-0.2506	0.0113	0.2618	1065.7605	0.137018	-417.974989	-417.966971	-417.966027	-418.00759	30.466	
N	-0.0145847353	 1.3592102704	 0.1906255548	-0.556438
C	 0.0511059269	-0.0820994525	 0.0358344813	 0.14299
C	 0.3685970586	-0.8907112454	 1.3516565289	-0.277494
C	-0.9261328899	-1.7296017116	 1.1839681726	-0.069358
C	-2.1638127019	-1.0861019699	 1.8245905184	-0.08855
O	-2.3432318873	-0.2060959668	 0.6777123036	-0.294496
C	-1.3111137148	-0.8828743042	-0.0572903932	 0.066194
C	 0.9434715265	-0.4424192608	-1.0623439869	 0.255646
N	 1.6168251242	-0.7629221625	-1.9458851399	-0.334986
H	-0.0810252861	 1.8099023369	-0.7177606509	 0.242183
H	-0.8824803738	 1.5664323289	 0.683021264	 0.246164
H	 1.2963777862	-1.461352503	 1.3030841954	 0.133967
H	 0.395490065	-0.2473251267	 2.2342822383	 0.11955
H	-0.8382066469	-2.8134308851	 1.1863631148	 0.094241
H	-3.0256588476	-1.7542669139	 1.93577983	 0.115511
H	-2.0118269821	-0.5282383926	 2.7557775682	 0.111825
H	-1.6436479315	-1.2465781214	-1.0322261093	 0.093051
82.0282	144.2322	181.9462	245.7735	278.9722	353.8524	383.596	468.2612	505.4991	569.9241	636.4373	771.6697	791.0264	848.267	859.8771	901.0406	916.3914	971.1835	995.7862	1001.7661	1014.723	1055.4878	1061.3291	1141.2618	1157.6706	1200.4695	1216.4768	1236.5913	1266.0946	1277.7939	1308.9382	1357.3097	1366.2396	1474.1318	1522.5622	1660.9015	2352.7386	3024.0547	3073.2128	3075.6631	3086.5949	3135.8895	3146.4977	3467.9164	3555.9397
NC1(CC2COC12)C#N	N[C@]1(C[C@H]2CO[C@@H]12)C#N	
InChI=1S/C6H8N2O/c7-3-6(8)1-4-2-9-5(4)6/h4-5H,1-2,8H2	InChI=1S/C6H8N2O/c7-3-6(8)1-4-2-9-5(4)6/h4-5H,1-2,8H2/t4-,5+,6+/m0/s1
