15
gdb 7078	7.14891	0.87205	0.81697	3.6044	62.79	-0.2671	-0.0377	0.2294	1307.8127	0.116148	-399.817034	-399.808114	-399.80717	-399.851567	30.171	
O	-0.1470545184	 1.4546351726	 0.0604213477	-0.411276
C	 0.0093969564	 0.0504166584	 0.0213175758	 0.121988
C	 0.7236665336	-0.4010840404	-1.259857036	-0.313729
C	 0.0348717633	 0.1542335422	-2.493042309	 0.168807
O	 0.6003733165	 0.7386242417	-3.3779397355	-0.231744
C	 0.7337242169	-0.4855927133	 1.2777086825	-0.365711
C	 0.0515773246	-0.1205178645	 2.5166368495	 0.273375
N	-0.4919102998	 0.1553763963	 3.4976940671	-0.295388
H	 0.7187493554	 1.86944417	-0.0331713037	 0.291807
H	-1.0140889731	-0.3417345668	 0.0229595023	 0.121406
H	 1.7708034537	-0.0770457332	-1.2710834375	 0.120457
H	 0.7089783692	-1.498115538	-1.3245960711	 0.130319
H	-1.0626737219	-0.0300571778	-2.5289249047	 0.085339
H	 0.8142932146	-1.5774033483	 1.2269500492	 0.155865
H	 1.758126329	-0.0936317189	 1.3071435334	 0.148484
53.6497	75.7844	92.3334	132.864	216.3377	311.9087	318.597	394.6547	406.9932	441.1769	507.2936	610.6851	781.1764	864.2074	932.0928	949.1671	1007.0844	1059.5538	1069.5539	1130.5421	1188.3901	1200.6749	1265.8663	1325.7845	1346.9056	1377.0907	1420.2122	1429.4624	1452.5343	1465.7665	1842.3701	2368.5251	2879.5596	3019.6919	3034.7543	3053.436	3077.0266	3086.6421	3792.539
OC(CC=O)CC#N	O[C@@H](CC=O)CC#N	
InChI=1S/C5H7NO2/c6-3-1-5(8)2-4-7/h4-5,8H,1-2H2	InChI=1S/C5H7NO2/c6-3-1-5(8)2-4-7/h4-5,8H,1-2H2/t5-/m1/s1
