18
gdb 28600	4.58869	0.97703	0.84608	0.8434	80.1	-0.1749	0.056	0.2308	1355.1791	0.148703	-401.969399	-401.960949	-401.960005	-402.002968	32.229	
O	 0.8296023347	 1.1365195062	 0.1720784335	-0.437791
C	 0.2829668728	-0.0864976672	-0.0561583099	 0.364442
C	-0.3649799027	-0.6480148576	-1.1290306479	-0.29576
C	-0.6917239761	-1.986318179	-0.7410719097	-0.210837
C	-0.2356769499	-2.1969364866	 0.5370154775	 0.296649
N	 0.3604410571	-1.0079443955	 0.94598683	-0.348266
C	-0.3150117113	-3.3609488326	 1.4402451824	-0.136668
C	-0.2788422581	-4.7569804709	 0.8721826888	-0.251838
C	 0.8948900557	-4.2537984546	 1.6683972705	-0.25802
H	 0.7026666122	 1.6723578268	-0.6163529338	 0.305986
H	-0.580324087	-0.166353698	-2.0703146293	 0.08252
H	-1.2222634298	-2.7118991424	-1.3386569793	 0.089451
H	 0.8228888502	-0.8522316945	 1.8250489674	 0.260744
H	-0.9543539972	-3.2347567342	 2.3131941513	 0.088524
H	-0.9255086237	-5.5035288128	 1.3188809375	 0.109399
H	-0.1517707198	-4.855639769	-0.199412739	 0.118964
H	 1.8026006253	-4.0118671462	 1.1271542069	 0.115524
H	 1.0531405675	-4.6533525119	 2.6642754331	 0.106975
42.5349	124.7271	165.3814	230.0623	272.4122	347.4351	390.0637	436.0699	490.4783	586.1305	648.6026	684.2141	695.1951	729.7266	793.4868	810.1439	831.7071	895.4362	926.4171	991.9153	1022.5697	1055.1581	1056.2027	1082.3247	1092.9745	1130.5566	1170.8127	1191.5436	1199.2388	1238.2041	1257.817	1306.3034	1387.8092	1425.0691	1464.7594	1499.2469	1531.4435	1575.2162	1646.1668	3100.3636	3133.1167	3143.1718	3216.7453	3232.0739	3239.2263	3253.8773	3679.5217	3849.5754
OC1=CC=C(N1)C1CC1	Oc1ccc([nH]1)C1CC1	
InChI=1S/C7H9NO/c9-7-4-3-6(8-7)5-1-2-5/h3-5,8-9H,1-2H2	InChI=1S/C7H9NO/c9-7-4-3-6(8-7)5-1-2-5/h3-5,8-9H,1-2H2
