24
gdb 113371	1.9291	1.14295	0.82141	2.4875	85.78	-0.2409	0.068	0.3089	1525.1701	0.216474	-405.526729	-405.515846	-405.514902	-405.563226	39.937	
C	-0.2456200976	 1.3825952993	-0.9729304013	-0.385802
C	-0.0872121621	 0.2333084549	 0.0316589978	-0.225908
C	-1.3771489051	-0.539895858	 0.2850001241	 0.30693
C	-2.4864679992	 0.3202360854	 0.8965721382	-0.245601
C	-3.7517564696	-0.3907466434	 1.3862710612	-0.406112
N	-1.7235054959	-1.4952125827	-0.789646494	-0.38398
C	-1.3595165224	-2.010035286	 0.5505990694	-0.074151
C	-0.1450650918	-2.9121558886	 0.5784597482	-0.08211
O	-0.409066887	-4.1165795408	-0.1242707179	-0.422269
H	 0.7252878021	 1.8367916677	-1.1925425992	 0.112018
H	-0.6646566503	 1.0104724375	-1.9131798388	 0.128645
H	-0.8995539149	 2.1760704936	-0.5989188959	 0.114131
H	 0.6720770056	-0.4518280496	-0.3511454638	 0.10522
H	 0.2886813057	 0.6199327546	 0.9881918278	 0.092211
H	-2.0516304482	 0.8826664808	 1.7329013339	 0.104573
H	-2.7737462272	 1.0734683212	 0.1522880316	 0.109473
H	-4.2111359956	-1.01036028	 0.6075072875	 0.113926
H	-3.555069991	-1.0310233174	 2.2508367924	 0.12753
H	-4.5005919687	 0.3475435134	 1.6875556182	 0.118885
H	-2.7312693094	-1.5419469275	-0.9193794248	 0.225515
H	-2.1810624117	-2.400386317	 1.1464589803	 0.084648
H	 0.737159838	-2.4045015185	 0.1678213086	 0.089229
H	 0.0880045357	-3.1999801499	 1.6093536078	 0.104606
H	-0.7083236293	-3.8423253189	-0.9998259513	 0.28839
52.172	65.3857	92.6035	151.8365	191.7648	215.0253	227.6594	255.6756	313.0587	348.2675	378.0766	438.4538	480.5881	514.101	587.	677.7585	773.4341	776.1671	831.6975	886.2728	932.05	960.6721	998.3439	1024.6983	1040.3938	1047.7731	1066.4304	1080.1876	1099.8465	1133.8366	1148.3499	1192.5616	1262.4323	1267.5772	1296.5644	1321.0043	1331.455	1366.6395	1374.0188	1394.8141	1406.3851	1414.3807	1427.8689	1471.7002	1477.4013	1487.3323	1499.5841	1502.4682	1503.2492	1508.449	1509.8209	3019.1323	3020.2112	3028.022	3035.1145	3039.0103	3052.29	3071.9844	3094.6037	3098.1046	3109.0311	3112.4765	3117.195	3141.9458	3493.1126	3783.489
CCC1(CC)NC1CO	CCC1(CC)N[C@H]1CO	
InChI=1S/C7H15NO/c1-3-7(4-2)6(5-9)8-7/h6,8-9H,3-5H2,1-2H3	InChI=1S/C7H15NO/c1-3-7(4-2)6(5-9)8-7/h6,8-9H,3-5H2,1-2H3/t6-/m0/s1
