16
gdb 76277	2.416	1.65196	1.12206	1.1507	66.02	-0.2806	-0.0225	0.2581	1063.186	0.124091	-475.077999	-475.069635	-475.068691	-475.111141	30.928	
C	 0.2602473746	 1.5509915427	 0.0549610254	-0.394594
C	-0.0536594626	 0.0496097645	-0.0613793838	-0.187778
C	 0.6700933976	-0.6417474657	-1.2340564307	 0.057189
O	 0.9247346084	 0.1749075911	-2.340486383	-0.430043
C	 1.9371556609	-1.1391074902	-0.569707427	 0.386511
N	 3.0208902273	-1.325014595	-1.1770893271	-0.544646
O	 1.7087393976	-1.3186033591	 0.7729026418	-0.215184
C	 0.5097369168	-0.6953240955	 1.1431005756	 0.428045
O	 0.1051413183	-0.7658219322	 2.2580270941	-0.303913
H	 1.3372323753	 1.7308808933	 0.1243417848	 0.132826
H	-0.1068671142	 2.0707330022	-0.8311867129	 0.149339
H	-0.2190482161	 1.9650103555	 0.9449797198	 0.139676
H	-1.1348810376	-0.0986231695	-0.0865473902	 0.121137
H	 0.0877740675	-1.5305309866	-1.5320917352	 0.111853
H	 1.8142086431	-0.0543247975	-2.6462437935	 0.304327
H	 3.7716537133	-1.6381975982	-0.5622364781	 0.245255
67.1094	139.4929	214.9621	238.1248	245.3241	267.6122	356.5785	395.9768	471.984	546.341	611.7391	644.916	718.3078	750.4959	802.4667	868.7523	903.9865	918.6608	992.4334	1067.1889	1080.1496	1109.5203	1136.1781	1181.6881	1244.3161	1280.496	1315.6795	1344.2295	1384.1355	1406.0907	1429.1381	1493.0467	1495.248	1793.4104	1927.46	2958.2322	3053.4043	3097.1004	3127.5465	3148.9189	3501.3903	3739.9288
CC1C(O)C(=N)OC1=O	C[C@H]1[C@@H](O)[C]([NH])OC1=O	
InChI=1S/C5H7NO3/c1-2-3(7)4(6)9-5(2)8/h2-3,6-7H,1H3	InChI=1S/C5H7NO3/c1-2-3(7)4(6)9-5(2)8/h2-3,6-7H,1H3/t2-,3+/m0/s1
