17
gdb 93645	2.03968	1.67962	1.34343	4.209	67.33	-0.2617	0.0108	0.2725	1029.6166	0.137267	-455.144802	-455.136092	-455.135147	-455.179028	31.769	
N	 0.0311643367	 1.2802482153	 0.6008294446	-0.539392
C	-0.056602027	-0.0866798821	 0.124053519	-0.020079
C	-1.5011495194	-0.428690758	-0.3590389048	 0.099482
O	-2.1871875545	 0.7246341445	-0.7894219202	-0.431118
C	-1.2853737702	-1.3614129891	-1.5625508377	-0.095337
O	 0.1266367032	-1.6110570849	-1.6631401415	-0.243606
C	 0.8069644627	-0.5145343113	-1.1055825397	-0.07294
C	 0.9728438671	 0.6027484071	-2.0633019263	 0.278353
N	 1.1123261404	 1.496221859	-2.783488981	-0.327335
H	 0.8181316591	 1.4088226076	 1.2254385059	 0.24387
H	 0.1439647342	 1.9280392857	-0.1738099572	 0.258131
H	 0.2118984553	-0.7603712285	 0.9416874918	 0.100848
H	-2.0534181978	-0.9308922411	 0.4470275958	 0.078271
H	-2.0896199539	 1.3718002878	-0.0767398534	 0.289318
H	-1.7682480403	-2.3349957515	-1.4608411216	 0.119614
H	-1.6577399019	-0.862593492	-2.4651795351	 0.132941
H	 1.8058257062	-0.8542329084	-0.8156062484	 0.128978
33.6443	101.14	143.7076	185.7394	263.7873	296.9719	362.6699	411.5767	496.6973	557.9681	564.112	593.4192	682.3014	719.1238	829.0145	870.3031	897.7062	931.4284	971.865	1030.3666	1060.6176	1090.8665	1112.9785	1154.731	1217.2771	1231.5836	1253.8069	1268.7918	1309.1961	1351.0169	1360.0497	1379.5209	1419.364	1428.0679	1506.1538	1658.4256	2347.0479	3001.48	3041.4428	3070.4414	3085.1959	3117.6018	3506.0198	3595.8161	3742.3271
NC1C(O)COC1C#N	N[C@H]1[C@@H](O)CO[C@H]1C#N	
InChI=1S/C5H8N2O2/c6-1-4-5(7)3(8)2-9-4/h3-5,8H,2,7H2	InChI=1S/C5H8N2O2/c6-1-4-5(7)3(8)2-9-4/h3-5,8H,2,7H2/t3-,4-,5-/m0/s1
