18
gdb 115023	2.11266	1.57025	0.9888	5.6367	76.48	-0.2427	0.0056	0.2483	1199.9481	0.149028	-398.155766	-398.147061	-398.146117	-398.189583	31.852	
C	 0.071209565	 1.6228952972	 0.0368206492	-0.403651
C	 0.0834371337	 0.0911275119	 0.045725449	-0.184985
C	 0.6336456175	-0.5208575349	-1.2487911073	 0.000984
N	 2.0618520475	-0.2277180137	-1.470805197	-0.3009
C	 2.7667503055	-1.3572909644	-1.1126034247	 0.069634
N	 2.1176964322	-2.4503636854	-0.9762459849	-0.248706
C	 0.7098564243	-2.0943922663	-1.2676486169	-0.13088
C	-0.2222117716	-2.7547487786	-0.3499562517	 0.299565
N	-0.9812759612	-3.2627848802	 0.3573522793	-0.334938
H	 1.0791170161	 2.0476948005	-0.0377085494	 0.107924
H	-0.5160720923	 2.0113397829	-0.8024613218	 0.124302
H	-0.36903099	 2.0104715368	 0.9596726479	 0.131342
H	 0.6680381213	-0.2810812231	 0.8957681715	 0.118718
H	-0.9372363625	-0.2791639672	 0.1884333376	 0.132532
H	 0.0436579036	-0.1643988021	-2.0989111499	 0.0976
H	 2.4162237789	 0.6760350234	-1.1930763794	 0.247699
H	 3.8453958009	-1.2967295027	-0.9994819568	 0.136
H	 0.4718173512	-2.4535838839	-2.2780497747	 0.137759
69.8773	104.5389	134.1638	199.3523	236.4008	260.653	361.5679	398.7024	485.4282	541.2997	559.9317	591.5994	760.233	778.2753	823.349	871.1629	912.5926	970.8337	980.5814	1015.646	1047.5808	1081.7661	1109.3045	1121.0125	1152.8045	1251.698	1270.2072	1296.611	1327.0118	1341.842	1356.3506	1395.7575	1415.6875	1438.1981	1479.1344	1500.7208	1506.2545	1683.5891	2363.1735	3013.3627	3028.991	3038.2506	3056.0834	3076.8839	3099.1208	3112.2637	3188.919	3607.108
CCC1NC=NC1C#N	CC[C@H]1N[CH][N][C@H]1C#N	
InChI=1S/C6H9N3/c1-2-5-6(3-7)9-4-8-5/h4-6H,2H2,1H3,(H,8,9)	InChI=1S/C6H9N3/c1-2-5-6(3-7)9-4-8-5/h4-6H,2H2,1H3,(H,8,9)/t5-,6+/m1/s1
