17
gdb 35729	2.38492	1.48375	1.01222	5.2379	73.19	-0.2567	0.0012	0.2579	1163.7794	0.135913	-417.954292	-417.945925	-417.944981	-417.988421	29.948	
N	-0.0683751264	-1.0578462945	-0.5280823702	-0.325807
C	-0.0042954881	 0.0534905299	-0.2188809115	 0.303644
C	 0.033704526	 1.4736691994	 0.1410848893	-0.035404
O	-0.1006443779	 1.707526536	 1.5527927589	-0.270984
C	 1.2165036353	 2.304919394	 1.6385303204	-0.085977
C	 1.4339010679	 2.1622896921	 0.1179140612	-0.022202
N	 2.5339976798	 1.3152213607	-0.2607773639	-0.049824
C	 2.9466800799	 1.3650293035	-1.6631404712	-0.223149
C	 3.7853034633	 1.9912113062	-0.6064393594	-0.23093
H	-0.7445468201	 1.9965757301	-0.4279402329	 0.123822
H	 1.1712986329	 3.3252883064	 2.0322711866	 0.112286
H	 1.9027410357	 1.6971780569	 2.2367930857	 0.126665
H	 1.4087777278	 3.118548766	-0.4272755742	 0.07615
H	 3.2234124297	 0.4103469359	-2.0977717481	 0.139051
H	 2.4062182436	 2.0338782032	-2.3308352111	 0.116201
H	 3.8068455916	 3.0789889124	-0.5655987971	 0.115751
H	 4.6894940391	 1.5029787519	-0.2569704125	 0.130709
47.8071	79.8643	116.8598	209.2943	234.6245	299.3624	365.2981	436.7921	545.8435	595.9067	728.1826	813.5808	822.6285	889.2826	903.0921	934.1238	985.1793	1021.68	1035.1379	1057.2737	1091.162	1101.6086	1117.4392	1125.438	1163.6167	1174.4085	1201.6905	1242.3567	1271.7619	1325.3903	1344.1231	1355.8495	1391.9812	1490.5704	1513.9022	1517.814	2358.8986	2974.034	3035.3522	3042.573	3096.6723	3099.2103	3105.3882	3190.6122	3205.4465
N#CC1OCC1N1CC1	N#C[C@H]1OC[C@H]1N1CC1	
InChI=1S/C6H8N2O/c7-3-6-5(4-9-6)8-1-2-8/h5-6H,1-2,4H2	InChI=1S/C6H8N2O/c7-3-6-5(4-9-6)8-1-2-8/h5-6H,1-2,4H2/t5-,6-/m1/s1
