19
gdb 110688	4.82501	1.0509	1.01767	2.58	75.14	-0.2349	0.0736	0.3084	1211.3775	0.160809	-422.968442	-422.960927	-422.959982	-423.000654	29.588	
O	 0.263546452	 0.5704914557	 1.053101441	-0.421326
C	-0.066108969	 0.361262429	-0.31522864	-0.119817
C	-1.4287809916	-0.2985488901	-0.3523093667	 0.028199
C	-1.9336865873	-0.9856010357	-1.6448355123	-0.124008
C	-1.0246757839	-2.2340198701	-1.3572568021	-0.065804
C	-1.8257455716	-3.4603547559	-1.7755517679	-0.109171
O	-3.1425079528	-3.0917642162	-1.3311211186	-0.284904
C	-2.9180746067	-1.817313707	-0.7668498716	 0.151984
C	-1.5856639526	-1.7888123039	 0.0401461712	-0.091391
H	 1.1031174291	 1.0377088817	 1.0921994327	 0.286277
H	-0.111987867	 1.3176904403	-0.8617367969	 0.084069
H	 0.6920548397	-0.2607324861	-0.8133677227	 0.083283
H	-2.1583081413	 0.3661221218	 0.1255823978	 0.071459
H	-2.1394452196	-0.5342319137	-2.6170158247	 0.069425
H	 0.042779168	-2.2177929382	-1.5695397232	 0.0735
H	-1.8285111434	-3.6307252107	-2.8595869201	 0.101003
H	-1.5028533038	-4.3818075856	-1.2748061535	 0.102458
H	-3.8410399818	-1.3920899424	-0.3746952053	 0.086846
H	-1.3867728965	-2.254489633	 1.0052538927	 0.077915
75.1937	158.9403	230.0921	276.5528	302.4955	363.4553	463.4859	530.2357	689.5934	734.4109	748.636	794.9537	838.8161	908.7732	938.7372	964.0528	965.5743	979.1968	984.1627	1026.1954	1045.1546	1068.137	1080.4987	1113.3822	1121.9397	1128.5323	1149.1328	1165.2454	1203.1094	1212.6173	1224.5563	1260.2054	1264.6909	1275.8524	1285.5277	1320.5332	1382.6994	1412.2808	1469.9078	1519.5687	1521.1098	2964.8851	3001.1889	3015.1557	3039.9525	3052.5073	3096.1369	3115.3137	3134.5681	3140.6659	3828.3938
OCC1C2C3COC2C13	OC[C@H]1[C@H]2[C@@H]3CO[C@H]2[C@H]13	
InChI=1S/C7H10O2/c8-1-3-5-4-2-9-7(5)6(3)4/h3-8H,1-2H2	InChI=1S/C7H10O2/c8-1-3-5-4-2-9-7(5)6(3)4/h3-8H,1-2H2/t3-,4-,5-,6+,7+
