16
gdb 66970	2.58508	1.71386	1.29345	3.3455	72.02	-0.2629	0.0219	0.2848	984.0623	0.1251	-400.706386	-400.699082	-400.698137	-400.737993	28.88	
O	-0.1780509521	 1.3475866893	 0.0718383054	-0.457215
C	-0.0011863015	-0.0114245803	 0.0289015558	 0.391846
C	-0.2073531038	-0.8435403572	-1.2508858128	-0.129941
C	 0.4866537347	-2.1872858085	-1.0480543982	-0.246198
C	 0.0297350678	-2.0704180594	 0.4319129528	-0.076287
C	-1.0850942715	-1.0460838668	-0.0263754365	-0.147588
C	 0.8344111096	-0.8540815619	 1.0070887313	-0.209345
C	 2.2897161927	-0.8455911279	 0.9130143996	 0.255024
N	 3.4416854739	-0.8233387644	 0.8110386458	-0.335613
H	 0.5277179815	 1.7685192092	-0.4328962057	 0.298071
H	-0.4765811375	-0.3405949564	-2.1709185242	 0.096918
H	-0.0464160149	-2.9921833148	-1.5608065944	 0.110409
H	 1.5608749234	-2.2704171137	-1.2416410946	 0.1206
H	-0.1190853441	-2.9455078953	 1.0582887087	 0.09212
H	-2.1505678295	-0.9841259646	 0.1335624207	 0.110265
H	 0.5258150712	-0.6395346772	 2.0337186262	 0.126935
129.1426	136.9954	274.4825	335.1106	358.0865	398.503	435.0645	529.2589	575.8121	637.4438	713.1283	795.3413	808.7637	841.1521	870.9341	922.4466	945.6059	963.53	993.0429	999.5519	1037.5384	1056.208	1101.8423	1123.4596	1147.5469	1179.6329	1197.8206	1250.8401	1265.2114	1296.9322	1311.9681	1346.5697	1458.4708	1501.5647	2346.6902	3050.1593	3084.3075	3107.24	3156.9961	3200.8287	3240.022	3787.4275
OC12C3CC(C13)C2C#N	O[C@]12[C@H]3C[C@H]([C@@H]13)[C@H]2C#N	
InChI=1S/C7H7NO/c8-2-5-3-1-4-6(3)7(4,5)9/h3-6,9H,1H2	InChI=1S/C7H7NO/c8-2-5-3-1-4-6(3)7(4,5)9/h3-6,9H,1H2/t3-,4-,5+,6+,7-/m0/s1
