16
gdb 65450	3.04597	0.96041	0.86486	5.2887	73.72	-0.254	0.0074	0.2613	1343.3951	0.12448	-434.081954	-434.072957	-434.072013	-434.116445	32.45	
N	-0.1047951765	 1.4395216382	-0.002480571	-0.56714
C	-0.0056183099	-0.0004671312	 0.0034684125	 0.104183
C	-0.4317872898	-0.6883291564	 1.2970449233	-0.328977
C	-1.3395984526	-0.7457544144	 0.107783563	 0.042297
N	-2.5290059387	 0.0341617094	 0.0549207081	-0.284198
C	-3.6922284987	-0.4490759486	-0.467207418	 0.155046
O	-3.8632732891	-1.5845020604	-0.8533234901	-0.31761
C	 1.0526252944	-0.6016860742	-0.7762824769	 0.242081
N	 1.9073700727	-1.048280745	-1.4164462711	-0.338968
H	 0.688444185	 1.8568573431	 0.4750994877	 0.253232
H	-0.1016417618	 1.7918264565	-0.9555003986	 0.253282
H	 0.0954996013	-1.5888232917	 1.5878558645	 0.149441
H	-0.6990754671	-0.0174346002	 2.1056790689	 0.134743
H	-1.4460360971	-1.6845014073	-0.4202507918	 0.160001
H	-2.439583784	 1.0157828877	 0.2736462909	 0.260029
H	-4.4807057482	 0.3277315646	-0.4876262515	 0.082558
39.11	109.3752	153.7208	207.4446	233.1426	264.5988	315.2259	351.6016	449.8892	462.6088	575.7405	584.9723	607.3776	704.8899	750.9112	848.2331	882.7231	895.0638	939.4262	1025.8117	1055.1935	1063.2453	1092.294	1137.9722	1216.5171	1251.0948	1284.1862	1297.7448	1370.7346	1429.9882	1464.118	1535.2773	1661.5519	1805.7725	2340.051	2950.1642	3144.6554	3215.9473	3242.6826	3495.533	3571.5914	3612.3688
NC1(CC1NC=O)C#N	N[C@]1(C[C@H]1NC=O)C#N	
InChI=1S/C5H7N3O/c6-2-5(7)1-4(5)8-3-9/h3-4H,1,7H2,(H,8,9)	InChI=1S/C5H7N3O/c6-2-5(7)1-4(5)8-3-9/h3-4H,1,7H2,(H,8,9)/t4-,5-/m1/s1
