19
gdb 36141	3.85754	1.09373	0.97778	2.012	80.15	-0.2552	0.0511	0.3063	1253.7384	0.158877	-385.859384	-385.850939	-385.849995	-385.892624	32.6	
C	-0.0539829896	-1.1670746848	-0.4445026759	-0.451645
C	-0.0369428001	-0.0004750754	-0.1574167921	 0.314442
C	 0.0029109896	 1.4151910562	 0.199319389	-0.453803
C	 1.4099731943	 1.9810884995	 0.2349721962	 0.427333
C	 2.4634399203	 1.403810807	 1.1673303964	-0.275804
C	 3.6339029224	 2.4119386255	 1.0828395367	-0.21536
C	 2.9829020108	 3.776448713	 0.7435338414	-0.241996
C	 1.7286657962	 3.3938141928	-0.0156838023	-0.012758
O	 1.953158161	 2.3967882321	-1.0281943026	-0.296673
H	-0.0750729217	-2.1958004098	-0.7062911515	 0.197203
H	-0.5880742606	 1.9950734783	-0.5185497137	 0.139731
H	-0.4629794973	 1.5556505911	 1.1840761189	 0.131732
H	 2.0461564328	 1.3567224999	 2.1813694354	 0.099176
H	 2.7548978614	 0.3880652267	 0.8867785954	 0.119331
H	 4.2231223361	 2.4468675332	 2.0020683089	 0.097709
H	 4.3045858138	 2.1202181181	 0.2723286462	 0.122262
H	 2.6940696906	 4.3240203446	 1.6496817353	 0.101682
H	 3.6462305444	 4.4272110886	 0.1655059921	 0.110194
H	 0.9681191255	 4.1340455234	-0.2554841637	 0.087245
59.9836	105.4042	200.4325	234.0525	295.0056	342.4878	385.5958	418.5065	452.3636	619.9842	638.6533	650.104	658.8887	720.6256	816.2595	853.2067	878.7867	895.3671	937.8722	943.7649	961.2168	976.3715	1032.6918	1039.295	1124.3256	1154.6386	1187.2306	1209.133	1249.1183	1267.9437	1283.2142	1324.5209	1336.8406	1338.7563	1359.5749	1451.4424	1458.5484	1479.6654	1487.2247	1499.9933	2240.8566	3018.8908	3032.315	3033.8266	3066.6665	3073.4006	3084.0951	3094.999	3121.9267	3136.1743	3506.8458
C#CCC12CCCC1O2	C#CC[C@]12CCC[C@H]1O2	
InChI=1S/C8H10O/c1-2-5-8-6-3-4-7(8)9-8/h1,7H,3-6H2	InChI=1S/C8H10O/c1-2-5-8-6-3-4-7(8)9-8/h1,7H,3-6H2/t7-,8+/m1/s1
