18
gdb 105430	2.30344	1.50859	1.18778	1.6427	77.68	-0.254	0.0163	0.2702	1121.1896	0.146537	-401.932352	-401.923432	-401.922487	-401.966174	33.104	
C	-0.0290512774	 1.5425956794	 0.1045975011	-0.393693
C	-0.1119878271	 0.016097998	 0.0891767155	-0.218636
C	-1.5351948251	-0.5408369004	-0.0816172585	 0.173229
C	-1.5982571166	-2.0991655218	 0.1015604884	-0.231399
N	-2.3466421053	-2.3171320237	 1.3441991726	-0.260864
C	-2.6977623512	-1.1690445932	 1.7442504987	 0.117696
O	-2.3491773278	-0.0633909493	 1.0453912957	-0.245759
C	-2.1577959947	-0.0968004016	-1.3240579779	 0.332436
C	-2.6479846976	 0.2341800726	-2.3701114496	-0.472812
H	 1.0049330347	 1.8679640946	 0.2504688062	 0.114582
H	-0.3894417531	 1.9657895175	-0.837405371	 0.131384
H	-0.635199239	 1.9548010815	 0.9154014835	 0.133915
H	 0.4998295354	-0.3939717185	-0.7230996397	 0.11222
H	 0.2830451199	-0.3968120672	 1.0250974008	 0.110158
H	-2.1069534288	-2.5873959785	-0.7339554628	 0.130344
H	-0.594155173	-2.52868257	 0.1813623112	 0.1203
H	-3.2805280244	-0.9647928409	 2.6359712049	 0.142504
H	-3.0894817487	 0.5322063816	-3.2892424391	 0.204396
61.5607	112.0992	160.2647	176.0943	215.2586	260.4185	380.6422	395.0725	492.1744	511.848	548.2932	622.9634	634.5768	669.578	772.5729	784.6877	871.8716	914.6905	947.4332	964.2018	995.1063	1018.3697	1037.5848	1112.3841	1130.2382	1159.7732	1185.1559	1256.4608	1310.658	1323.5073	1339.911	1367.3836	1411.518	1474.1021	1496.321	1498.1934	1509.3539	1712.1025	2236.4796	3031.3366	3047.6719	3049.8094	3072.0122	3093.3984	3116.9285	3127.2937	3213.5013	3499.4409
CCC1(CN=CO1)C#C	CC[C@]1(CN=CO1)C#C	
InChI=1S/C7H9NO/c1-3-7(4-2)5-8-6-9-7/h1,6H,4-5H2,2H3	InChI=1S/C7H9NO/c1-3-7(4-2)5-8-6-9-7/h1,6H,4-5H2,2H3/t7-/m0/s1
