19
gdb 96769	2.36135	1.4356	1.25205	2.6537	78.32	-0.2314	0.0033	0.2347	1125.755	0.15803	-419.154896	-419.145644	-419.1447	-419.188596	34.285	
C	 0.0072249064	 1.3162884837	 0.1593411335	-0.348935
N	 0.0134039899	-0.1306518816	-0.0069598476	-0.285547
C	 0.5771725102	-0.6108879067	-1.017139408	 0.322879
C	 1.3109751656	-0.1349750995	-2.2911060527	 0.022205
O	 2.3571507969	 0.8028571793	-2.2739272356	-0.422003
C	 1.5548377615	-1.6191112214	-2.5621775622	-0.107332
C	 2.0841243421	-2.3746566216	-1.4061254489	 0.012533
C	 3.0740725834	-1.8928834762	-0.3680173092	-0.432238
N	 0.6373437072	-2.0163616874	-1.3845229623	-0.176733
H	 0.5696227912	 1.8648251053	-0.6062825449	 0.129153
H	-1.0309648253	 1.6671322133	 0.1614978042	 0.131879
H	 0.4222234389	 1.5614722198	 1.1432402005	 0.12814
H	 0.5757697623	 0.256891751	-3.0017072285	 0.126485
H	 3.0655215701	 0.4625216719	-1.7190545612	 0.28998
H	 1.4238898496	-2.0863513405	-3.5321291296	 0.105402
H	 2.1830779274	-3.4389975277	-1.6121416419	 0.109729
H	 2.9323428826	-0.846412385	-0.0878149751	 0.122449
H	 2.9681282795	-2.4811046823	 0.549046319	 0.143937
H	 4.0976683505	-2.0249434642	-0.7345393296	 0.128018
95.339	153.4468	159.1185	168.9638	209.2542	256.2272	280.8544	332.307	343.7161	409.2386	513.3338	620.503	637.96	681.5129	732.433	791.152	878.888	902.0515	960.7555	1029.7872	1054.3219	1062.9133	1075.9809	1105.4323	1130.014	1143.1232	1160.151	1189.036	1224.3171	1261.0583	1277.9221	1357.9196	1410.5981	1426.2155	1436.0216	1443.617	1489.4622	1491.0999	1502.2493	1504.5775	1821.1912	3012.6113	3039.6615	3067.259	3082.2989	3085.0009	3103.5812	3112.5707	3132.2795	3176.3898	3831.3567
CN=C1C(O)C2C(C)N12	CN=C1[C@@H](O)[C@H]2[C@@H](C)N12	
InChI=1S/C6H10N2O/c1-3-4-5(9)6(7-2)8(3)4/h3-5,9H,1-2H3	InChI=1S/C6H10N2O/c1-3-4-5(9)6(7-2)8(3)4/h3-5,9H,1-2H3/t3-,4-,5+,8?/m1/s1
