17
gdb 34668	3.4016	1.20782	0.9394	5.9046	76.92	-0.2711	-0.0514	0.2197	1219.2324	0.137603	-418.025235	-418.017137	-418.016193	-418.058401	29.887	
N	-0.0035661978	-1.1625807194	-0.3291357755	-0.325598
C	-0.0240768405	-0.0220721059	-0.1429414452	 0.299906
C	-0.0358425749	 1.4121779204	 0.0954764445	 0.263891
N	-1.1455058363	 2.0096398235	 0.0455239498	-0.270525
C	-1.3038219529	 3.4533648595	 0.1141607903	-0.156621
C	-0.6078595987	 4.1942674031	 1.2626081815	-0.210421
C	 0.9184337491	 4.1709507683	 1.1771738516	-0.202587
C	 1.5075645907	 2.780456334	 1.3587933539	-0.076967
O	 1.2326471642	 1.8651486368	 0.2826846218	-0.259703
H	-0.9546462819	 3.8686795976	-0.8437314053	 0.125092
H	-2.3788099889	 3.6493249446	 0.1626535925	 0.120045
H	-0.9613929837	 5.2314674668	 1.2473668053	 0.109672
H	-0.9346820788	 3.765359793	 2.2186526717	 0.111194
H	 1.2540420116	 4.5813988161	 0.2165057768	 0.113821
H	 1.3448158417	 4.8083539726	 1.9613334662	 0.110933
H	 2.5982894943	 2.8203891825	 1.3926343109	 0.12981
H	 1.1503599128	 2.3318619265	 2.2950993492	 0.118056
55.5486	140.4401	175.4234	208.8973	328.9457	347.1875	354.4641	431.0267	507.3972	576.5698	591.5671	723.8555	771.9749	823.3714	865.2446	878.5592	938.9808	997.327	1043.9156	1078.7846	1102.6645	1132.2374	1197.5186	1219.1762	1259.9563	1298.1421	1321.2804	1371.8576	1380.5097	1400.0381	1421.445	1471.8244	1480.6895	1489.6924	1499.501	1742.404	2356.7874	2998.102	3024.6429	3027.2172	3028.9883	3068.7203	3076.3608	3078.5326	3113.0292
N#CC1=NCCCCO1	N#CC1=NCCCCO1	
InChI=1S/C6H8N2O/c7-5-6-8-3-1-2-4-9-6/h1-4H2	InChI=1S/C6H8N2O/c7-5-6-8-3-1-2-4-9-6/h1-4H2
