19
gdb 99174	5.4362	0.70445	0.68856	3.7714	74.57	-0.244	0.0582	0.3022	1676.8759	0.158914	-456.354038	-456.344062	-456.343117	-456.390636	34.146	
C	-0.1498891068	 1.5129952129	-0.0429486008	-0.323471
N	 0.1041352576	 0.0841536961	-0.0055941251	-0.36532
C	 0.6465725287	-0.5496635015	-1.103453069	 0.502297
O	 1.0904958778	 0.0466924414	-2.0694547416	-0.404557
N	 0.6495097625	-1.9323150354	-1.0037773834	-0.380539
C	 1.3102532935	-2.747958827	-1.9815200171	 0.01263
C	 2.5185239544	-3.6235348073	-1.5632045734	-0.092214
O	 1.9147934418	-4.791012972	-2.1539155581	-0.269314
C	 0.6669422273	-4.1010407705	-2.3635851633	-0.094698
H	 0.575696667	 1.9617189452	-0.7213064078	 0.169291
H	-1.1567039276	 1.7555841494	-0.4082912565	 0.120536
H	-0.0253279667	 1.9414279641	 0.9557357641	 0.120911
H	-0.4778555336	-0.4641160203	 0.6076515878	 0.234706
H	 0.4796240911	-2.3443019046	-0.0989686284	 0.231986
H	 1.5216846335	-2.1046926468	-2.8340261142	 0.136373
H	 3.4913822607	-3.3867865681	-2.007512363	 0.114485
H	 2.636493785	-3.7236905666	-0.4732471838	 0.08647
H	-0.1136543231	-4.4323317527	-1.6624071525	 0.08788
H	 0.2964952269	-4.2118325366	-3.388585234	 0.112549
40.6618	62.9407	83.5574	87.2103	148.5803	179.2984	306.7757	328.0944	345.9561	402.4997	472.7839	488.4528	731.5106	763.4147	771.0419	881.7488	889.7593	958.1294	1004.9554	1021.0972	1033.5573	1106.7795	1131.7309	1149.7676	1151.9323	1161.0651	1174.7089	1230.5897	1245.1153	1274.084	1298.1619	1343.7436	1388.0372	1441.6192	1491.314	1500.804	1507.0114	1528.2141	1534.8414	1563.4819	1786.0912	2982.0011	2994.6976	3014.8896	3063.049	3064.7373	3085.8241	3144.0176	3158.8696	3610.9278	3625.0958
CNC(=O)NC1COC1	CNC(=O)NC1COC1	
InChI=1S/C5H10N2O2/c1-6-5(8)7-4-2-9-3-4/h4H,2-3H2,1H3,(H2,6,7,8)	InChI=1S/C5H10N2O2/c1-6-5(8)7-4-2-9-3-4/h4H,2-3H2,1H3,(H2,6,7,8)
