12
gdb 25445	5.37772	1.11543	0.92381	5.3599	66.48	-0.2708	-0.0889	0.1819	1131.5988	0.078801	-468.866057	-468.858992	-468.858048	-468.898921	24.887	
O	-0.1105537525	-0.0540127688	 0.0003576121	-0.266041
C	-0.0628509959	 1.1428222618	 0.0079829051	 0.189121
N	 1.139702373	 1.8745128301	 0.0000903631	-0.129507
C	 2.383895782	 1.2421772329	-0.018752823	 0.119091
N	 3.4913546851	 1.8695100395	-0.0263701531	-0.297327
C	 3.4743704492	 3.2968774035	-0.0154727639	 0.406857
O	 4.49843689	 3.9216730386	-0.0207568388	-0.299672
N	 2.2134279374	 3.9675737925	 0.0042242101	-0.298337
C	 1.1543916269	 3.26291823	 0.0107076361	 0.115105
H	-0.944187391	 1.8075961313	 0.024071226	 0.125555
H	 2.3301074061	 0.1569029028	-0.0264570948	 0.180987
H	 0.1698791996	 3.7316118258	 0.0254971213	 0.154168
26.8367	146.8405	225.1581	265.5506	429.5195	432.3911	473.2995	528.0321	647.0173	667.9299	801.5898	837.3835	840.536	969.7399	999.4818	1021.9061	1029.3338	1050.7924	1239.6315	1344.8044	1390.221	1426.4047	1449.2538	1631.6072	1728.7928	1832.1454	1845.3252	2991.4489	3130.5982	3186.2156
O=CN1C=NC(=O)N=C1	O=Cn1cnc(=O)nc1	
InChI=1S/C4H3N3O2/c8-3-7-1-5-4(9)6-2-7/h1-3H	InChI=1S/C4H3N3O2/c8-3-7-1-5-4(9)6-2-7/h1-3H
