16
gdb 5537	3.22324	1.91458	1.29325	0.6633	67.76	-0.1799	0.0521	0.232	938.7661	0.131395	-379.936756	-379.928513	-379.927569	-379.969683	30.034	
C	 0.334166325	 0.9499818819	-0.5237603302	-0.322672
N	-0.3555028421	 0.4018431663	 0.6529583643	-0.393035
C	-1.346573615	-0.5569944409	 0.3728525045	 0.186197
C	-1.2954567809	-1.8627008841	-0.0741129022	 0.27268
O	-0.1182824477	-2.5081078125	-0.3485489385	-0.459969
C	-2.6238772974	-2.3551373357	-0.1758644733	-0.283323
C	-3.461378719	-1.3270180193	 0.2102460438	-0.078338
N	-2.6866127592	-0.2540267997	 0.5367145483	-0.259206
H	 1.0806330928	 1.6789315158	-0.1921358016	 0.110745
H	 0.8337452164	 0.1866054722	-1.1369691774	 0.121239
H	-0.3914288286	 1.4723759468	-1.1542845346	 0.121682
H	 0.327988126	 0.0250516254	 1.3002964754	 0.232308
H	-0.3222265279	-3.4077185687	-0.6180717319	 0.294052
H	-2.9300092421	-3.3398460554	-0.49749559	 0.084346
H	-4.5363602688	-1.2857629354	 0.274185746	 0.11519
H	-3.0035962913	 0.6341230533	 0.8841813673	 0.258103
47.6064	147.9395	181.7681	187.839	270.0736	296.809	406.122	461.275	464.6638	628.7293	650.6535	669.2643	687.3267	718.654	778.7733	799.2588	909.4209	1030.1954	1080.9044	1094.2297	1143.238	1150.7221	1173.4134	1272.9591	1284.066	1345.0904	1445.1053	1450.4371	1469.5664	1486.7892	1497.4113	1516.4225	1524.1809	1665.3668	3000.5451	3073.6003	3107.3142	3232.7064	3269.5835	3523.0606	3684.1958	3848.3619
CNC1=C(O)C=CN1	CNc1c(O)cc[nH]1	
InChI=1S/C5H8N2O/c1-6-5-4(8)2-3-7-5/h2-3,6-8H,1H3	InChI=1S/C5H8N2O/c1-6-5-4(8)2-3-7-5/h2-3,6-8H,1H3
