17
gdb 65996	2.4123	1.47	1.36523	2.2986	68.58	-0.254	-0.0311	0.2229	1044.5458	0.133216	-458.935862	-458.927146	-458.926201	-458.969468	31.617	
C	-0.0895432162	 1.7687060305	 0.4273489845	-0.447629
C	-0.0347216239	 0.2895186372	 0.0801520158	 0.237762
O	 0.8324444377	-0.0014435113	-1.0497725346	-0.320395
C	 1.6490169611	-0.9462220265	-0.3240003999	-0.192152
C	 0.8855542126	-0.5990438841	 0.9544985489	 0.332558
O	 0.972637389	-0.847998399	 2.1160898288	-0.28114
C	-1.4127340749	-0.3127253765	-0.1139791145	 0.039292
C	-1.9174584142	-0.634274846	-1.4542382654	-0.172184
O	-1.4441180466	-1.6612088205	-0.5759791851	-0.242066
H	 0.9183761889	 2.1730484655	 0.5466489872	 0.133324
H	-0.5961406111	 2.3273554089	-0.3657451021	 0.135338
H	-0.6366565893	 1.9172060919	 1.363306754	 0.138949
H	 1.5025185491	-1.9781688382	-0.6641611126	 0.145815
H	 2.714793047	-0.6904261839	-0.3378499942	 0.131896
H	-2.1223545689	-0.0877329069	 0.6828399721	 0.105445
H	-2.9909320439	-0.6356525467	-1.6351421719	 0.118904
H	-1.2806048266	-0.4376923647	-2.3122162411	 0.136283
82.4418	116.8666	144.7553	177.1876	215.5901	247.3867	321.7684	377.4198	468.5535	551.8918	586.3292	652.9909	732.4401	843.1624	865.7699	880.4763	950.1192	956.7243	1007.2425	1015.624	1042.4759	1095.7877	1135.597	1150.8124	1163.9938	1165.6896	1203.2708	1233.0479	1287.0586	1303.0036	1398.702	1413.7402	1470.9732	1480.405	1490.6621	1512.5309	1925.3725	3028.5956	3042.8706	3082.1214	3097.7846	3110.3608	3117.4272	3128.1725	3199.9166
CC1(OCC1=O)C1CO1	C[C@]1(OCC1=O)[C@H]1CO1	
InChI=1S/C6H8O3/c1-6(5-3-8-5)4(7)2-9-6/h5H,2-3H2,1H3	InChI=1S/C6H8O3/c1-6(5-3-8-5)4(7)2-9-6/h5H,2-3H2,1H3/t5-,6-/m1/s1
