24
gdb 9414	5.53372	0.68035	0.63775	1.3466	82.54	-0.2614	0.0813	0.3427	1826.209	0.221455	-351.413174	-351.402237	-351.401293	-351.449833	38.544	
C	 0.0039596123	 1.5350666759	-0.145005691	-0.391313
C	 0.0135421335	 0.0135063229	 0.0340952503	-0.165772
C	 0.6888784595	-0.4877147798	 1.3256526073	 0.046688
C	-0.0626912477	-0.0229363276	 2.5816965314	-0.390636
C	 0.8386110052	-2.02081405	 1.2799104265	-0.184094
C	 1.6826274031	-2.6249884887	 2.4073447064	-0.17863
C	 1.9047152475	-4.121918285	 2.2337180066	-0.072331
O	 2.6760360789	-4.5833258761	 3.3335898563	-0.422316
H	 1.0201907761	 1.9437598612	-0.1040861639	 0.112253
H	-0.4240562118	 1.8106364006	-1.1141247349	 0.110507
H	-0.5866492413	 2.038558267	 0.6263204307	 0.117681
H	-1.0173455475	-0.3663808805	 8.5744*^-6	 0.089905
H	 0.5288416608	-0.437786701	-0.823715848	 0.088795
H	 1.7017709953	-0.0574695872	 1.3575025062	 0.066931
H	-1.0811301353	-0.4310503805	 2.5972675608	 0.108307
H	 0.4390425689	-0.3470421969	 3.497662436	 0.117131
H	-0.1413882679	 1.0669513671	 2.625579137	 0.113096
H	-0.1621549664	-2.4772056272	 1.2850265325	 0.089191
H	 1.2896479825	-2.2953566077	 0.3162673839	 0.086828
H	 2.6625075203	-2.132788037	 2.45040777	 0.101955
H	 1.2098879691	-2.4655802138	 3.3824433886	 0.108438
H	 0.9317828311	-4.6389009119	 2.1853484924	 0.081867
H	 2.4202218377	-4.3131999683	 1.2778424858	 0.081645
H	 2.8186703359	-5.5279629453	 3.2252364646	 0.283872
53.8954	64.6659	94.6056	115.282	135.681	207.894	251.9162	258.361	264.9774	291.1931	334.6827	417.98	472.9916	514.0237	754.3074	774.5136	820.4599	864.2789	913.4511	971.0267	991.4783	1018.6512	1026.3416	1043.6582	1068.4187	1078.8982	1146.3699	1174.7334	1191.87	1225.513	1236.0798	1284.6888	1304.1169	1307.78	1319.195	1335.2264	1379.9011	1382.5002	1392.8272	1413.3571	1415.959	1462.3869	1477.6669	1488.229	1496.751	1499.6529	1501.0355	1508.3802	1513.0096	1528.6441	2955.3446	2979.9624	2984.5877	2997.0724	3009.7141	3027.5633	3029.4527	3032.3173	3033.5402	3044.0543	3081.5925	3096.1144	3097.2988	3104.8574	3114.185	3830.3258
CCC(C)CCCO	CC[C@@H](C)CCCO	
InChI=1S/C7H16O/c1-3-7(2)5-4-6-8/h7-8H,3-6H2,1-2H3	InChI=1S/C7H16O/c1-3-7(2)5-4-6-8/h7-8H,3-6H2,1-2H3/t7-/m1/s1
