18
gdb 26398	4.46778	0.91904	0.78911	3.3068	73.8	-0.2321	0.0094	0.2416	1426.2616	0.147737	-439.11924	-439.110512	-439.109568	-439.153379	31.924	
C	 0.1003305989	 1.5470303621	 0.0247354177	-0.400915
C	 0.067552358	 0.0339259089	 0.2386952435	 0.133404
O	 0.2743591157	-0.2985130544	 1.6088930191	-0.420323
C	-1.2263639657	-0.5910519813	-0.3088757224	-0.347013
C	-1.2683908608	-2.0771908146	-0.1971726294	 0.33758
C	-0.6924958024	-3.0182041182	 0.5931015905	-0.184542
N	-1.1296786415	-4.2830580157	 0.2082207159	-0.259274
C	-1.9349879009	-4.0499189186	-0.772714077	 0.063832
O	-2.0791304196	-2.7414201664	-1.0883847043	-0.182253
H	 1.0191759553	 1.9636421363	 0.4448709229	 0.129617
H	 0.0567008038	 1.8005767102	-1.0392000656	 0.120285
H	-0.752226392	 2.0298333755	 0.5189069969	 0.109036
H	 0.9178192807	-0.4241492251	-0.2792135402	 0.102313
H	-0.4421390489	 0.094576779	 2.1204182244	 0.279578
H	-2.0854870994	-0.1419338799	 0.2142839515	 0.109741
H	-1.3432061149	-0.3162438144	-1.3636991582	 0.124001
H	-0.002912984	-2.8683925983	 1.4059329685	 0.139507
H	-2.4970177123	-4.7550301449	-1.3648981637	 0.145424
52.0609	84.1103	139.5447	239.8485	269.4883	295.6196	311.6202	334.6764	458.4751	482.7361	651.9703	672.6551	739.0001	830.7508	846.736	884.8935	908.6349	936.419	953.1262	989.4743	1060.6012	1081.8787	1119.5511	1132.8379	1155.6454	1175.6887	1211.9818	1254.8482	1311.3292	1328.9421	1354.3803	1395.2463	1405.4955	1424.8253	1471.8123	1492.4187	1495.65	1550.3866	1632.0923	2985.2002	3026.4208	3051.9753	3062.4787	3098.0274	3124.006	3274.7532	3294.1967	3794.5959
CC(O)CC1=CN=CO1	C[C@@H](O)Cc1cnco1	
InChI=1S/C6H9NO2/c1-5(8)2-6-3-7-4-9-6/h3-5,8H,2H2,1H3	InChI=1S/C6H9NO2/c1-5(8)2-6-3-7-4-9-6/h3-5,8H,2H2,1H3/t5-/m1/s1
