17
gdb 13344	5.05236	1.25769	1.15314	2.9104	66.36	-0.2637	0.0244	0.2882	1067.3615	0.143383	-401.009791	-401.001972	-401.001028	-401.043338	27.498	
N	-0.1709241249	 1.1176475902	-0.6117223277	-0.441648
C	-0.0931807129	-0.0655250192	-0.1797471128	 0.126674
O	-1.1933414512	-0.8492529976	-0.1666630145	-0.202751
C	-0.9882255068	-2.208913552	 0.2365908018	 0.210685
C	-2.3744611578	-2.879438783	 0.2875108222	-0.263642
C	-2.3450290286	-3.8777699815	-0.8944911424	-0.213423
C	-1.1189314997	-3.418857148	-1.6936440397	-0.092867
O	-0.2212343894	-2.9074270415	-0.7003475401	-0.240574
H	 0.736330656	 1.5729989136	-0.5325033326	 0.227718
H	 0.8043704817	-0.5600319357	 0.2123358667	 0.095332
H	-0.4326560008	-2.2195389943	 1.1803754864	 0.089962
H	-2.5334440515	-3.3788328808	 1.2449263455	 0.114754
H	-3.1441548165	-2.1152678518	 0.170730914	 0.13519
H	-2.1970743043	-4.8992293745	-0.5336997853	 0.112849
H	-3.2618844687	-3.8587469823	-1.4873007046	 0.112566
H	-0.5999377125	-4.2204633611	-2.2227054679	 0.113576
H	-1.3788708121	-2.6288990505	-2.4104187292	 0.115599
42.5043	87.2597	94.7342	209.7315	219.7113	391.1047	498.7674	610.5764	651.3388	757.2191	826.0834	835.879	878.6658	926.5286	940.0051	964.0964	984.6483	1042.9699	1054.0081	1071.9564	1116.9695	1139.7184	1211.3485	1233.3053	1255.7782	1290.5781	1310.1522	1321.4525	1360.1356	1379.4518	1400.5302	1431.5131	1481.923	1498.8952	1519.7715	1747.7448	3023.1203	3040.0936	3056.774	3065.2478	3086.6189	3109.3252	3118.1058	3138.8936	3512.6478
N=COC1CCCO1	[NH][CH]O[C@H]1CCCO1	
InChI=1S/C5H9NO2/c6-4-8-5-2-1-3-7-5/h4-6H,1-3H2	InChI=1S/C5H9NO2/c6-4-8-5-2-1-3-7-5/h4-6H,1-3H2/t5-/m0/s1
