19
gdb 106077	2.66121	1.67068	1.41862	1.136	82.33	-0.2085	-0.035	0.1735	1014.8303	0.158807	-385.771876	-385.764	-385.763056	-385.804193	30.854	
C	 0.2860081606	 1.3179592873	-0.2856618521	-0.261078
O	 0.1058710527	-0.0599994117	 0.0042158015	-0.289956
C	-1.2128561231	-0.4403556247	 0.021843659	 0.420857
C	-1.7752900782	-1.8122473528	 0.0365727051	-0.157866
C	-2.3086240275	-1.6508132312	 1.5095668276	-0.267194
C	-2.2658584266	-0.1600998229	 1.127367251	-0.025455
C	-3.3919243099	 0.3654185596	 0.6044449989	-0.097863
C	-3.352858394	 0.2637900845	-0.9199744627	-0.265454
C	-2.1714947241	-0.7095779519	-1.0753916313	-0.126209
H	 1.3587990517	 1.5159234306	-0.2355265864	 0.126679
H	-0.0791011419	 1.5673250147	-1.2917985068	 0.109989
H	-0.2329187321	 1.9518680443	 0.4456014534	 0.120608
H	-1.2874513035	-2.708839174	-0.3384755366	 0.098252
H	-3.2868573986	-2.0569427229	 1.7817430715	 0.100334
H	-1.5414347166	-2.0091082268	 2.2045473021	 0.114048
H	-4.348454485	 0.3082571738	 1.11850726	 0.096356
H	-4.3191981576	-0.1398215018	-1.2472988836	 0.112599
H	-3.1838930082	 1.1819706764	-1.5014291568	 0.108287
H	-1.8072473381	-0.9938801406	-2.0609304039	 0.083068
81.4653	151.4738	177.3344	268.1239	299.3957	368.0221	442.056	504.3495	553.6459	597.7712	684.4766	749.421	798.1231	819.0423	866.2202	904.9662	923.7823	957.166	979.7692	997.1088	1012.44	1055.6289	1058.4652	1086.2738	1103.6446	1154.1149	1169.7263	1179.0806	1181.3104	1216.4878	1248.6642	1264.3609	1292.5676	1301.5692	1430.3945	1470.669	1486.5093	1493.1043	1502.5585	1507.3167	1591.3578	2994.5514	2998.0934	3034.7569	3045.0924	3053.2089	3097.8134	3124.1845	3134.3602	3145.2159	3151.1778
COC12C3CC1=CCC23	CO[C@@]12[C@H]3C[C]1[CH]C[C@@H]23	
InChI=1S/C8H10O/c1-9-8-5-2-3-6(8)7(8)4-5/h2,6-7H,3-4H2,1H3	InChI=1S/C8H10O/c1-9-8-5-2-3-6(8)7(8)4-5/h2,6-7H,3-4H2,1H3/t6-,7+,8+/m1/s1
