15
gdb 64548	3.99119	1.09994	1.08074	3.3445	68.97	-0.2528	-0.0566	0.1962	1124.223	0.110562	-457.758017	-457.750103	-457.749159	-457.790651	29.748	
O	-0.1585939815	 1.3606848501	 0.026979089	-0.471363
C	-0.1234553977	-0.0190802261	 0.0089428962	 0.36777
C	 1.0257632457	-0.5877509863	 0.7632626762	 0.100871
O	 1.8384944561	 0.1293040841	 1.2980295111	-0.280206
C	-1.3806770518	-0.8310973108	-0.0013818746	-0.144122
C	-2.4720543211	-0.0334782695	-0.7367083416	-0.362162
C	-1.5609113585	-0.0808899541	-1.9891725253	 0.434187
O	-1.7276028602	 0.1941855545	-3.1394980303	-0.301892
C	-0.4692257267	-0.8241818015	-1.2565398017	-0.269336
H	 0.6491064447	 1.6315226126	 0.4928037093	 0.302409
H	 1.0927104596	-1.6929988293	 0.8009300365	 0.103738
H	-1.5578989337	-1.6546010031	 0.6790671135	 0.114922
H	-3.3845518014	-0.6086558132	-0.9146136944	 0.137624
H	-2.7189543705	 0.9474282042	-0.328813371	 0.149233
H	 0.203145527	-1.5693748117	-1.6657738228	 0.118328
84.8527	110.8343	210.8185	280.5017	306.6896	366.0258	404.3224	451.4938	494.4574	560.121	629.4898	663.5166	798.1431	833.7549	857.742	877.0564	940.1779	979.8436	986.3855	1023.4198	1045.9265	1082.0761	1099.0455	1143.3301	1212.1057	1246.548	1274.8144	1341.4964	1382.5579	1448.1002	1463.6903	1800.4671	1896.8205	2943.2914	3077.391	3141.3323	3184.7561	3196.0557	3691.682
OC1(C=O)C2CC(=O)C12	O[C@@]1(C=O)[C@H]2CC(=O)[C@@H]12	
InChI=1S/C6H6O3/c7-2-6(9)3-1-4(8)5(3)6/h2-3,5,9H,1H2	InChI=1S/C6H6O3/c7-2-6(9)3-1-4(8)5(3)6/h2-3,5,9H,1H2/t3-,5-,6-/m0/s1
