13
gdb 132015	2.3952	1.86054	1.05391	3.5407	62.43	-0.2625	-0.0505	0.212	1021.3132	0.088542	-497.900473	-497.892893	-497.891949	-497.933	27.187	
C	-0.0356401415	 1.5439438651	 0.0247975851	-0.484842
C	-0.0048770605	 0.0461996268	-0.0179312602	-0.122229
C	-0.1553795061	-0.6727690847	-1.1378649565	 0.357155
F	-0.3479299302	-0.1763571954	-2.3374266295	-0.030632
O	-0.1312211373	-2.016468402	-1.1984534038	-0.188746
C	 0.0637375383	-2.660721773	-0.0071173034	 0.127224
N	 0.2210159049	-2.1268398881	 1.1273162141	-0.2923
C	 0.2017563158	-0.7036711276	 1.2332489838	 0.357032
O	 0.3491873655	-0.1597223604	 2.3034969723	-0.327465
H	 0.9034551243	 1.9269080298	 0.4356930953	 0.15444
H	-0.1945318378	 1.9732680828	-0.965508294	 0.132032
H	-0.8307944828	 1.8837927253	 0.6953132809	 0.154424
H	 0.0660388173	-3.7339066385	-0.1683174541	 0.163908
98.2289	111.6265	193.6148	263.7755	268.6819	372.3865	483.6573	506.9603	519.607	584.7117	666.0428	692.0549	804.2383	874.5732	923.638	959.9209	1013.9556	1063.8791	1129.1533	1184.2828	1264.9852	1382.3847	1411.4389	1418.8665	1475.9664	1484.8068	1663.9773	1750.8754	1795.9883	3049.3607	3105.5813	3144.5916	3201.4493
CC1=C(F)OC=NC1=O	Cc1c(F)ocnc1=O	
InChI=1S/C5H4FNO2/c1-3-4(6)9-2-7-5(3)8/h2H,1H3	InChI=1S/C5H4FNO2/c1-3-4(6)9-2-7-5(3)8/h2H,1H3
