13
gdb 132215	2.03056	1.83187	0.96305	4.5556	65.15	-0.2168	-0.005	0.2119	1091.8218	0.090403	-494.078398	-494.071047	-494.070103	-494.110376	27.855	
O	-0.0954409621	 1.3005588938	 0.0102635196	-0.408429
C	 0.041080795	-0.0339770657	 0.0025173437	 0.508874
N	 1.1841996081	-0.6046463818	-0.0066542276	-0.427201
C	 1.255458173	-2.0190724576	-0.0144419248	 0.345187
N	 2.3634977584	-2.6586922741	-0.0238167219	-0.541224
C	-0.0173622748	-2.7480801903	-0.0114123033	-0.326233
C	-1.1572956431	-2.0552344145	-0.0016149126	 0.388605
F	-2.3725920721	-2.5764229061	 0.002215055	-0.0558
N	-1.1700910214	-0.6745517135	 0.0057033449	-0.431833
H	 0.8039322235	 1.6578088235	 0.0072883822	 0.318243
H	 3.1317312949	-1.9853063129	-0.0244466831	 0.209884
H	-0.015114135	-3.8277616758	-0.0171018837	 0.134556
H	-2.0363952545	-0.1608033247	 0.0131077116	 0.285372
118.5787	171.0878	234.5216	335.2875	342.5756	362.8969	499.6428	532.9293	536.0242	581.1875	629.3472	638.7371	694.4898	751.207	857.8251	899.6598	927.2086	1025.0973	1039.4891	1138.4038	1191.2995	1246.3569	1283.4256	1363.8602	1445.0182	1543.2219	1670.8155	1703.4367	1766.8499	3252.2038	3465.5349	3657.4285	3776.5703
OC1=NC(=N)C=C(F)N1	OC1=NC(=C[C@H](F)N1)[NH]	
InChI=1S/C4H4FN3O/c5-2-1-3(6)8-4(9)7-2/h1H,(H3,6,7,8,9)	InChI=1S/C4H5FN3O/c5-2-1-3(6)8-4(9)7-2/h1-2,6H,(H2,7,8,9)/t2-/m1/s1
