15
gdb 19599	4.39333	2.02894	1.88469	2.6559	59.11	-0.2425	0.0699	0.3124	737.129	0.1211	-399.716921	-399.711187	-399.710243	-399.746404	24.156	
O	 0.1323992473	 1.4041487138	-0.0889379719	-0.462661
C	 0.1203138361	 0.0068924323	-0.1010287998	 0.191195
C	 0.16699567	-0.6406489849	 1.3144274675	 0.008542
O	-1.2570888327	-0.2476450778	 1.4456600925	-0.334935
C	-1.3023233491	-0.6166511631	 0.0098757581	 0.008542
C	-1.0708126503	-2.134464754	 0.0840289606	-0.045929
N	 0.2866661071	-2.5608182016	-0.3356209855	-0.332143
C	 0.0382843214	-2.1525785415	 1.0687575121	-0.045928
H	-0.4829249443	 1.6679022433	 0.6089549521	 0.284337
H	 0.8007768334	-0.3381410658	-0.873782336	 0.116859
H	 0.7990127785	-0.2708248798	 2.1209935152	 0.084572
H	-2.1710584723	-0.2223181629	-0.5160189422	 0.084572
H	-1.8949269128	-2.8371767392	 0.0852332794	 0.103966
H	 0.3063690757	-3.5786149844	-0.3765313532	 0.235043
H	 0.1216752718	-2.8701125143	 1.8757029213	 0.103966
261.843	340.0221	366.0789	402.7736	558.7192	595.2252	609.8405	678.2132	791.9913	838.9804	841.5437	845.9694	887.1047	898.26	921.5381	940.3847	951.0123	1051.3267	1052.2003	1099.6899	1106.0552	1152.49	1183.8452	1189.1415	1217.8475	1249.1642	1269.1514	1294.2262	1330.3306	1337.6697	1389.4963	1447.3642	3132.3133	3134.3402	3171.0638	3185.6285	3195.4595	3482.9317	3755.5096
OC1C2OC1C1NC21	O[C@H]1[C@H]2O[C@@H]1[C@H]1N[C@@H]21	
InChI=1S/C5H7NO2/c7-3-4-1-2(6-1)5(3)8-4/h1-7H	InChI=1S/C5H7NO2/c7-3-4-1-2(6-1)5(3)8-4/h1-7H/t1-,2+,3+,4+,5-
