23
gdb 64222	2.96163	0.96439	0.8906	0.8307	91.68	-0.2538	0.0576	0.3114	1449.7748	0.203582	-351.122849	-351.112703	-351.111759	-351.157557	38.974	
C	-0.0650877879	 1.5449904109	-0.080341677	-0.435909
C	-0.0193048942	 0.0144874061	-0.0356453679	 0.313312
C	-1.3934821505	-0.571456811	-0.3470483452	-0.451563
C	 1.1816853741	-0.5443481829	-0.8667286825	-0.255444
C	 2.0131052975	-0.6565951479	 0.4378179623	-0.232823
C	 0.6926388315	-0.5632742917	 1.2420534928	 0.022198
C	 0.6665776513	 0.2167562595	 2.5630165666	-0.394792
C	 1.4410036627	-0.4398201515	 3.6107416529	 0.29745
C	 2.0852762722	-1.0045243089	 4.4543008898	-0.438779
H	 0.9141393195	 1.9946910887	 0.1136164868	 0.112867
H	-0.3886167523	 1.8825665508	-1.0714017897	 0.110745
H	-0.7718591466	 1.9510494904	 0.6523264348	 0.111677
H	-1.7438496796	-0.2536748638	-1.3363363906	 0.111593
H	-1.3700158747	-1.6663310015	-0.3369576938	 0.109307
H	-2.1417924214	-0.2460186717	 0.3859508065	 0.109933
H	 0.9565680778	-1.5252779053	-1.2956890509	 0.095503
H	 1.571682355	 0.0992293615	-1.6602721419	 0.091786
H	 2.6216695668	-1.5519563127	 0.5778013347	 0.101748
H	 2.6517078552	 0.217685671	 0.5976516599	 0.100308
H	 0.3083092935	-1.5715091949	 1.4310230624	 0.077146
H	 1.055955403	 1.2305629325	 2.4081743951	 0.12565
H	-0.3718655206	 0.336796793	 2.9008579394	 0.126631
H	 2.6522903677	-1.4929170808	 5.2072164955	 0.191455
63.6603	115.0649	127.2347	209.5224	234.2137	256.8941	283.4988	342.7789	349.152	360.6792	379.4194	477.0598	506.5611	598.8818	616.2024	630.8961	744.8886	792.9682	865.6326	879.468	911.7951	944.6485	949.4204	968.2869	984.5678	1003.5007	1027.1734	1106.9258	1117.8677	1184.8005	1193.2084	1223.2121	1243.155	1252.3326	1274.1798	1280.6218	1314.0843	1332.6089	1385.318	1401.3805	1419.7206	1469.5918	1480.3702	1483.9434	1492.1242	1500.7883	1505.7662	1507.8911	2236.0102	3013.616	3016.4088	3024.6761	3038.4973	3049.0169	3055.1454	3058.9308	3079.5259	3088.4086	3090.7937	3095.4758	3097.4281	3116.4863	3507.8534
CC1(C)CCC1CC#C	CC1(C)CC[C@H]1CC#C	
InChI=1S/C9H14/c1-4-5-8-6-7-9(8,2)3/h1,8H,5-7H2,2-3H3	InChI=1S/C9H14/c1-4-5-8-6-7-9(8,2)3/h1,8H,5-7H2,2-3H3/t8-/m1/s1
