15
gdb 10044	3.26009	1.36195	1.0058	2.9014	67.83	-0.2761	0.0081	0.2841	1119.3498	0.115959	-362.625466	-362.616459	-362.615515	-362.659519	30.979	
C	 0.17221975	 1.442042419	-0.110408352	-0.2501
O	-0.1312366537	 0.0674251489	 0.0619338568	-0.221743
C	 0.5898924243	-0.5570487585	 1.0897972155	-0.017695
C	-0.0406050937	-1.9437041928	 1.3381772912	-0.370959
C	-1.3831465257	-1.8415227574	 1.8914479013	 0.301692
C	-2.4823865456	-1.7518567939	 2.3666532934	-0.428828
C	 2.023195835	-0.7003870605	 0.7354948259	 0.2698
N	 3.1387206586	-0.8029006155	 0.45242008	-0.319422
H	 1.220948314	 1.5920159947	-0.399735357	 0.134829
H	-0.4759130348	 1.8056920444	-0.909339115	 0.143101
H	-0.030412444	 2.0124546441	 0.8074316914	 0.117679
H	 0.5383424816	 0.0315935149	 2.0194398973	 0.124724
H	-0.0546622762	-2.4807588713	 0.3834270866	 0.160707
H	 0.6093829568	-2.5081288075	 2.0160970998	 0.153062
H	-3.4585044065	-1.6806924986	 2.7788518148	 0.203154
71.431	87.5583	124.0228	165.7142	210.2316	268.5687	276.8081	340.5769	397.8984	497.7933	566.3481	596.1155	624.7573	661.4538	837.1724	929.3498	981.7832	1030.2652	1057.3662	1151.8227	1183.8302	1201.3686	1260.6936	1296.9296	1362.5809	1371.1983	1457.7428	1480.7739	1488.4838	1506.7283	2246.9258	2353.6133	2986.5949	2995.9904	3045.2065	3055.4109	3086.0183	3137.042	3505.7983
COC(CC#C)C#N	CO[C@@H](CC#C)C#N	
InChI=1S/C6H7NO/c1-3-4-6(5-7)8-2/h1,6H,4H2,2H3	InChI=1S/C6H7NO/c1-3-4-6(5-7)8-2/h1,6H,4H2,2H3/t6-/m0/s1
