17
gdb 29644	2.35194	1.68278	0.99484	2.7777	73.42	-0.1754	0.0491	0.2244	1156.363	0.134473	-455.171754	-455.162189	-455.161245	-455.206356	33.887	
C	 0.0167383718	 1.4229637178	 0.0082665593	-0.341494
N	 0.1083223829	-0.0182197169	 0.0246673961	-0.147364
C	 0.0552700019	-0.7837800635	-1.1156407695	 0.458518
N	-0.0129605183	-0.3639510072	-2.3127649975	-0.61731
O	 0.0873207742	-2.1064695412	-0.7007398717	-0.248192
C	 0.1055404444	-2.1082733969	 0.6834390732	 0.266279
O	 0.212812513	-3.2980953953	 1.2965617903	-0.421468
C	 0.1018902629	-0.86045358	 1.1623098285	 0.173569
C	 0.1272107117	-0.3622809428	 2.5618126086	-0.507016
H	 0.7575906467	 1.8656882229	 0.6808885139	 0.1292
H	 0.2159268084	 1.7490735138	-1.0131696378	 0.17805
H	-0.9805649241	 1.7760752146	 0.3004649345	 0.126995
H	-0.014819062	-1.1386513321	-2.9692591236	 0.221627
H	-0.4195533945	-3.913972787	 0.9044047045	 0.309685
H	 0.0845807842	-1.2118084169	 3.2466415911	 0.149289
H	 1.0415558248	 0.2021524093	 2.7823818273	 0.136448
H	-0.7234788481	 0.2945861912	 2.7790736228	 0.133183
59.7795	100.5678	151.4972	182.0014	206.5164	245.3957	250.3882	297.1377	318.4453	358.627	557.4807	609.3333	635.8545	642.2439	691.3437	717.8698	729.854	896.9529	995.3532	1015.6063	1068.1723	1086.9957	1154.8628	1158.1833	1216.2779	1278.8736	1333.6243	1379.0805	1423.0784	1431.5151	1460.8852	1477.8533	1496.9598	1500.0464	1513.954	1762.6142	1831.1842	3016.2155	3022.9845	3067.4582	3082.5103	3130.898	3152.2729	3551.5913	3766.5277
CN1C(=N)OC(O)=C1C	CN1[C@H]([NH])OC(=C1C)O	
InChI=1S/C5H8N2O2/c1-3-4(8)9-5(6)7(3)2/h6,8H,1-2H3	InChI=1S/C5H9N2O2/c1-3-4(8)9-5(6)7(3)2/h5-6,8H,1-2H3/t5-/m0/s1
