19
gdb 67520	2.38549	1.7433	1.48348	2.8655	78.56	-0.2259	-0.0199	0.206	997.872	0.158672	-385.860248	-385.852284	-385.85134	-385.892401	31.593	
C	-0.0368664023	 1.5393856986	-0.0127595019	-0.493556
C	 0.0073358986	 0.0277855061	 0.0264319403	 0.228264
C	-1.2256646008	-0.677038887	 0.6605088785	-0.086604
C	-1.1586550439	-2.1757247117	 0.5829738724	-0.309847
C	-0.3093446005	-1.4658200371	 1.6010852877	-0.050058
C	 0.9408318285	-0.8005798202	 0.9778142053	-0.086417
C	 1.6319916975	-1.4832684234	-0.2369996839	-0.377993
C	 0.6632952479	-0.7100017933	-1.1679078501	 0.349612
O	 0.519876829	-0.6604073631	-2.3549164911	-0.302978
H	 0.9417881262	 1.9639916997	-0.259471724	 0.120005
H	-0.7496944005	 1.8808774725	-0.7714273615	 0.135821
H	-0.3508023381	 1.945648279	 0.9549328077	 0.120694
H	-2.1527194214	-0.1566119463	 0.8716124201	 0.089554
H	-2.0234700308	-2.6837006022	 0.998527925	 0.116417
H	-0.7323148707	-2.6873499828	-0.2745269603	 0.122126
H	-0.4290322045	-1.6565737293	 2.6606785211	 0.089009
H	 1.5880352453	-0.2830091152	 1.6845261635	 0.07606
H	 2.665797321	-1.1544566923	-0.3889773707	 0.130315
H	 1.6062882794	-2.5738384518	-0.3081977279	 0.129576
96.438	189.8355	206.2657	249.7496	258.1242	332.369	448.7974	473.7957	532.191	610.2924	662.4889	742.4179	755.3444	782.0496	866.2148	875.057	891.1211	936.6052	961.606	996.4806	1007.0218	1024.9864	1044.379	1061.3229	1085.0834	1097.3814	1111.5211	1161.0357	1178.8362	1201.2233	1219.0814	1240.8689	1299.7916	1308.8806	1358.2893	1405.6761	1432.4434	1488.9251	1490.2435	1501.7936	1882.0327	3026.7703	3051.9419	3096.0104	3098.6598	3106.7676	3122.2424	3122.8676	3171.3131	3181.9313	3202.4432
CC12C3CC3C1CC2=O	C[C@]12[C@H]3C[C@H]3[C@H]1CC2=O	
InChI=1S/C8H10O/c1-8-5-2-4(5)6(8)3-7(8)9/h4-6H,2-3H2,1H3	InChI=1S/C8H10O/c1-8-5-2-4(5)6(8)3-7(8)9/h4-6H,2-3H2,1H3/t4-,5+,6-,8+/m1/s1
