19
gdb 75376	2.96129	1.53016	1.19507	2.7104	76.78	-0.2237	0.0384	0.2621	1088.5254	0.161186	-419.203234	-419.195204	-419.19426	-419.236099	30.52	
C	-0.0032163911	 1.4739254318	 0.0860581073	-0.448611
C	-0.0470765749	-0.0178501907	-0.0728622263	 0.403745
N	 0.0319921529	-0.571766182	-1.2070746012	-0.302005
C	-0.0487912716	-2.020152829	-1.3078004026	-0.168175
C	 0.2519590738	-2.766936354	-0.0192614278	-0.020365
N	 1.6690089153	-2.7553393199	 0.4267068143	-0.314762
C	 1.2542793144	-2.4822392331	 1.8219583848	-0.182621
C	-0.118660043	-2.020281905	 1.2841482243	 0.113666
O	-0.198093141	-0.6052844715	 1.155369976	-0.280138
H	 0.8491069145	 1.763686992	 0.7090399942	 0.135602
H	 0.0811439801	 1.941280572	-0.8940177849	 0.142451
H	-0.9077059638	 1.8291814206	 0.5902824235	 0.133249
H	-1.0582147285	-2.2858830503	-1.6543222335	 0.104857
H	 0.6411919499	-2.3506267508	-2.0937373653	 0.109146
H	-0.1983809016	-3.770244176	-0.0340016437	 0.064119
H	 2.1806958302	-3.6176623657	 0.277677164	 0.218276
H	 1.1611433184	-3.371036413	 2.4622165795	 0.091379
H	 1.8464465083	-1.7216838908	 2.3401331514	 0.111251
H	-1.0083398924	-2.3446851444	 1.8256723361	 0.088935
75.7478	116.7283	143.7577	248.9199	316.6128	331.075	402.2095	504.2167	555.8933	603.2284	653.0208	742.159	786.7574	827.7906	893.785	908.1436	950.6382	984.2918	1007.6272	1033.9775	1055.0465	1068.1444	1085.6592	1127.5931	1156.505	1174.3677	1226.5436	1233.1068	1247.6182	1282.7803	1329.5211	1359.8681	1375.8717	1384.7086	1396.5202	1408.2432	1469.2437	1476.7236	1477.0467	1507.6773	1762.5984	2983.5386	2999.2554	3007.4663	3045.1521	3046.9289	3076.6139	3097.7869	3103.5326	3167.1319	3532.9291
CC1=NCC2NCC2O1	CC1=NC[C@H]2NC[C@H]2O1	
InChI=1S/C6H10N2O/c1-4-7-2-5-6(9-4)3-8-5/h5-6,8H,2-3H2,1H3	InChI=1S/C6H10N2O/c1-4-7-2-5-6(9-4)3-8-5/h5-6,8H,2-3H2,1H3/t5-,6-/m1/s1
