16
gdb 48794	2.77554	1.51863	1.16497	4.0826	70.38	-0.2498	-0.0466	0.2031	1051.6174	0.122848	-437.814626	-437.806797	-437.805853	-437.847151	29.245	
O	-0.0867033863	 0.0711062765	-0.4969606643	-0.255851
C	 0.0984005573	 1.0174104136	 0.2295626721	 0.0746
C	 1.2356905671	 1.9575952749	 0.0766599336	 0.134465
C	 2.0913105336	 1.9994985183	-1.14039742	-0.275187
N	 2.7044705795	 1.4563585692	 0.0643060119	-0.141433
C	 3.0722219086	 2.6459040394	 0.9259560635	-0.255897
C	 1.6117951531	 3.087775824	 1.0048700609	 0.377507
C	 0.9504546033	 4.3604008813	 1.2917272749	-0.269323
O	 0.9526739804	 3.2775699323	 2.2412596108	-0.266921
H	-0.5788242329	 1.2485473363	 1.0771044893	 0.096531
H	 1.8725805878	 1.2414322484	-1.885880323	 0.155173
H	 2.4171870648	 2.9654371397	-1.5229864648	 0.119055
H	 3.454599189	 2.3076743737	 1.8906548586	 0.140464
H	 3.7906508286	 3.3222362885	 0.4522098052	 0.117905
H	 1.5450717383	 5.2260379588	 1.5792548737	 0.125594
H	-0.015530862	 4.585581065	 0.8420595374	 0.12332
102.3967	128.9804	172.3254	222.1239	299.5773	334.1931	449.7162	484.3283	527.9778	579.9769	696.3392	758.695	844.44	856.3609	866.7053	899.0815	965.4922	993.8172	1046.9961	1075.8968	1104.1028	1123.3148	1131.1754	1145.3937	1164.7327	1198.6101	1272.6665	1275.8082	1338.9998	1422.0379	1449.5915	1478.0693	1494.4433	1538.2522	1805.5422	2925.9775	3054.4038	3085.4859	3098.7478	3128.2892	3174.5639	3208.2455
O=CC12CN1CC21CO1	O=C[C@]12CN1C[C@]12CO1	
InChI=1S/C6H7NO2/c8-3-5-1-7(5)2-6(5)4-9-6/h3H,1-2,4H2	InChI=1S/C6H7NO2/c8-3-5-1-7(5)2-6(5)4-9-6/h3H,1-2,4H2/t5-,6+,7?/m0/s1
