21
gdb 96127	2.19164	1.82089	1.22621	2.294	78.21	-0.2506	0.0829	0.3335	1105.6302	0.182329	-424.22753	-424.218766	-424.217821	-424.260478	34.065	
C	-0.0283628923	 1.4876026236	-0.0207072639	-0.409596
C	 0.0171494596	-0.0363399639	 0.0116944596	 0.076839
O	 0.6511212003	-0.4419322086	-1.1910936082	-0.2546
C	 0.866300402	-1.8365056429	-1.270707009	-0.079536
C	 1.9411263725	-2.2884607532	-0.2793289206	-0.239823
C	 1.690231565	-1.6786152073	 1.0871164804	-0.015628
O	 2.1399660803	-0.3289285201	 1.2772571071	-0.2892
C	 0.728710883	-0.5712691955	 1.2569148184	 0.374897
C	 0.0143690729	-0.3732731676	 2.5747982671	-0.476728
H	 0.9865466551	 1.887862392	 0.0465374529	 0.140452
H	-0.4750015161	 1.8199975468	-0.9609613464	 0.124126
H	-0.6232340676	 1.8859436281	 0.8053937676	 0.113837
H	-1.012069103	-0.4408743129	 0.0290837063	 0.059515
H	-0.0757218741	-2.3772532666	-1.0750183326	 0.083565
H	 1.1633993339	-2.0462755649	-2.3022793545	 0.107202
H	 1.9450134868	-3.3818502095	-0.2068201018	 0.097629
H	 2.9324921592	-1.9772866546	-0.6256563954	 0.123139
H	 1.8802009897	-2.3217578498	 1.9475382373	 0.084111
H	-0.1035181326	 0.6903943759	 2.8044389206	 0.130858
H	-0.9828337492	-0.8259444723	 2.5517266101	 0.120426
H	 0.5841461448	-0.8312250467	 3.3871397048	 0.128514
91.6047	174.7105	205.3288	232.0893	242.3841	282.9218	331.6391	377.5965	408.1891	478.8841	501.1757	578.0451	643.1089	708.9315	787.0904	861.2993	875.5395	912.2914	942.4561	979.2648	1015.8691	1041.5885	1070.3801	1091.8524	1127.9566	1134.3052	1148.803	1158.8542	1238.14	1257.7985	1295.1013	1333.9154	1355.3435	1367.1978	1371.9404	1403.3348	1412.0619	1418.2159	1461.346	1468.9598	1482.1726	1491.0506	1498.6453	1499.4706	1504.9492	2929.7731	2958.4949	3038.0427	3040.4421	3051.715	3079.7228	3088.4875	3097.2581	3102.739	3121.4811	3128.0436	3133.0474
CC1OCCC2OC12C	C[C@H]1OCC[C@H]2O[C@@]12C	
InChI=1S/C7H12O2/c1-5-7(2)6(9-7)3-4-8-5/h5-6H,3-4H2,1-2H3	InChI=1S/C7H12O2/c1-5-7(2)6(9-7)3-4-8-5/h5-6H,3-4H2,1-2H3/t5-,6-,7+/m1/s1
