14
gdb 27780	2.08355	1.84333	0.98397	1.6319	68.6	-0.2483	-0.0512	0.1972	1120.4981	0.1008	-473.907921	-473.900173	-473.899229	-473.940342	28.706	
C	 0.0275727731	 1.4997310441	 0.0347722309	-0.464368
C	-0.0157705819	 0.0028869744	 0.0028184079	 0.332301
C	-1.1789606467	-0.6925544337	-0.1457741119	-0.321467
C	-1.1895851909	-2.1242278577	-0.1718252953	 0.430611
O	-2.0830475566	-2.9075302458	-0.289329883	-0.324941
O	 0.1393020904	-2.68841973	-0.0267548609	-0.266209
C	 1.19867364	-1.89315311	 0.110533153	 0.50189
O	 2.3356100076	-2.5693636434	 0.2303831303	-0.373855
N	 1.2120510958	-0.6083167543	 0.1353431113	-0.393615
H	 0.6769619436	 1.8670878083	-0.7668309623	 0.152183
H	-0.9647674474	 1.9404058023	-0.0739828155	 0.130273
H	 0.4725842777	 1.8358306467	 0.9771674011	 0.152188
H	-2.1356905416	-0.1994922131	-0.2489071708	 0.123445
H	 2.1310134168	-3.5136473178	 0.1894069952	 0.321563
126.659	156.5671	179.5853	195.0752	303.8959	360.1927	475.2761	504.9211	560.5171	578.1705	596.9001	628.2367	731.6476	784.1058	831.9474	846.9981	964.9256	1017.8233	1030.652	1061.0352	1151.67	1208.9519	1256.7854	1400.1541	1414.4353	1436.7497	1468.6109	1476.6669	1611.4317	1693.5494	1886.1887	3043.6886	3101.9967	3142.4668	3230.1786	3787.5837
CC1=CC(=O)OC(O)=N1	Cc1cc(=O)oc(O)n1	
InChI=1S/C5H5NO3/c1-3-2-4(7)9-5(8)6-3/h2H,1H3,(H,6,8)	InChI=1S/C5H5NO3/c1-3-2-4(7)9-5(8)6-3/h2H,1H3,(H,6,8)
