21
gdb 77088	2.69359	1.05535	0.93036	3.4104	80.35	-0.2441	-0.0204	0.2238	1351.31	0.179397	-424.235379	-424.225325	-424.224381	-424.27021	37.441	
C	-0.7168915749	 1.0482864219	-0.0651998592	-0.427614
C	-0.0149528416	-0.2825517473	 0.1478997865	-0.009502
C	 1.2861746859	-0.6065354422	-0.658879309	-0.080138
C	 1.8036125135	-1.3688047889	 0.5986404153	-0.31347
C	 0.7560003016	-0.6005108677	 1.4608098728	 0.398935
C	 1.3428208278	 0.6076099928	 2.1828604032	-0.455828
O	-0.039454916	-1.377135076	 2.3352093047	-0.477087
C	 1.11133223	-1.4089631188	-1.9139570747	 0.15723
O	 1.5215371182	-1.1035807482	-3.0047243797	-0.25647
H	-0.032202491	 1.8939375331	 0.0533583806	 0.116945
H	-1.1401835696	 1.1058565579	-1.0734678894	 0.125894
H	-1.5384365246	 1.174171163	 0.6479072704	 0.127368
H	-0.7239870707	-1.107252724	 0.0061902588	 0.090514
H	 1.8705468438	 0.2890719183	-0.8827454137	 0.084628
H	 1.5458635444	-2.4310844662	 0.5549664622	 0.110644
H	 2.8625088405	-1.259631554	 0.8450134755	 0.103404
H	 1.9384332673	 1.2352014408	 1.5133052614	 0.12594
H	 0.5498604042	 1.2215854904	 2.6197895404	 0.128511
H	 2.0065836207	 0.2763471169	 2.9916285006	 0.109403
H	 0.4269200508	-1.4714618705	 3.1728724925	 0.275156
H	 0.5399414196	-2.3573595614	-1.7603194493	 0.065537
67.3727	78.5759	205.0058	208.7107	240.5569	256.9613	263.793	281.8951	308.7391	337.8331	391.0813	458.8133	477.2307	530.9673	636.4978	732.8708	824.6638	874.18	900.7694	914.2311	963.5702	991.89	1056.0303	1062.3672	1083.5196	1095.2243	1130.2368	1182.6341	1186.5753	1200.3603	1240.14	1253.5025	1283.5043	1324.1482	1367.6957	1387.2903	1408.99	1413.2198	1429.6998	1479.219	1487.8257	1489.7454	1500.4237	1505.4736	1826.7667	2833.6847	3024.1518	3033.8397	3037.4295	3055.7463	3085.692	3090.691	3100.5207	3106.4085	3115.4598	3119.071	3802.5001
CC1C(CC1(C)O)C=O	C[C@H]1[C@@H](C[C@]1(C)O)C=O	
InChI=1S/C7H12O2/c1-5-6(4-8)3-7(5,2)9/h4-6,9H,3H2,1-2H3	InChI=1S/C7H12O2/c1-5-6(4-8)3-7(5,2)9/h4-6,9H,3H2,1-2H3/t5-,6-,7-/m0/s1
