16
gdb 46563	3.29234	1.73854	1.38889	3.6253	70.37	-0.2531	0.0194	0.2725	926.7543	0.125627	-437.805954	-437.799372	-437.798428	-437.836783	26.727	
N	 0.0347254547	 1.3388972293	-0.1335505303	-0.544986
C	-0.0294284584	 0.0893235735	 0.0039012013	 0.422506
O	 1.0875260253	-0.7360832937	 0.08188656	-0.264483
C	 0.7583227209	-2.1238517303	 0.3413500846	-0.195292
C	-0.6921688484	-2.0257927517	 0.7132662563	 0.37501
C	-2.1109582412	-2.6261050704	 0.8423939005	-0.309131
C	-2.1276058365	-1.1085621229	 1.2446146284	 0.032495
O	-0.9030044408	-1.3395605303	 2.0225767986	-0.332714
C	-1.252541516	-0.7881793351	 0.001552074	-0.12246
H	 1.0078751788	 1.650951924	-0.1465096929	 0.225172
H	 0.9277812204	-2.7197921163	-0.5622251994	 0.123379
H	 1.3989964015	-2.4806403269	 1.1509991084	 0.138101
H	-2.6223480103	-2.9310017083	-0.0735792484	 0.11031
H	-2.2592277072	-3.3156194954	 1.6729972187	 0.122918
H	-2.9269936164	-0.5304256293	 1.7061042127	 0.114732
H	-1.7062645863	-0.9086813562	-0.9850994024	 0.104442
140.7203	208.4971	299.7474	345.6224	469.1402	518.3486	577.0276	607.6796	673.6375	737.2685	772.1859	809.338	883.2837	900.6982	912.2759	915.1931	971.0455	982.0554	1011.1366	1023.6736	1055.97	1082.7061	1123.9328	1130.7774	1186.4403	1195.7333	1208.1194	1245.7177	1252.4064	1315.4312	1348.8791	1386.0089	1487.6922	1497.326	1789.8087	3046.8139	3070.6414	3087.7001	3112.8396	3132.7543	3161.0698	3466.7426
N=C1OCC23CC(O2)C13	[NH][C]1OC[C@@]23C[C@@H](O2)[C@@H]13	
InChI=1S/C6H7NO2/c7-5-4-3-1-6(4,9-3)2-8-5/h3-4,7H,1-2H2	InChI=1S/C6H7NO2/c7-5-4-3-1-6(4,9-3)2-8-5/h3-4,7H,1-2H2/t3-,4+,6-/m1/s1
