20
gdb 8707	2.61639	1.56038	1.27677	2.9085	66.41	-0.2514	0.0468	0.2982	1046.3033	0.174942	-423.260381	-423.250308	-423.249364	-423.294844	36.483	
C	-0.0614394106	 1.5813167346	 0.0519535248	-0.427932
C	-0.0380423031	 0.0469244805	-0.0011588655	 0.228598
C	 0.737899126	-0.4650698657	 1.2204676575	-0.124984
O	 1.0338297062	-1.851968329	 1.0357401583	-0.437949
C	-1.473067929	-0.5202274012	-0.0067033477	-0.0978
O	-2.2949531291	-0.0247579234	 1.0428575785	-0.426313
C	 0.6595174026	-0.4383293471	-1.2978123602	-0.086615
O	 2.0734830178	-0.3400647999	-1.2475875544	-0.434297
H	 0.9494243354	 1.9812842007	-0.0721147002	 0.124324
H	-0.6873056039	 1.9838258034	-0.7514560025	 0.113058
H	-0.4743043419	 1.9413390172	 0.9982893587	 0.118241
H	 1.663878045	 0.1141689775	 1.330424967	 0.102577
H	 0.141038332	-0.3071123804	 2.131747832	 0.080102
H	 1.478251576	-2.1751570601	 1.8249703745	 0.292511
H	-1.970741514	-0.2246492448	-0.9380260487	 0.105186
H	-1.4287205054	-1.617698315	 0.0115527052	 0.102413
H	-2.088482849	-0.5176142932	 1.8416026304	 0.285327
H	 0.352312187	-1.4698417074	-1.5198168916	 0.092979
H	 0.334688325	 0.1879930808	-2.1357087139	 0.10424
H	 2.3590712428	-1.0528246173	-0.663923422	 0.286335
79.4732	97.3702	143.3178	185.6389	221.8111	227.672	266.98	301.6835	321.1118	351.3181	371.353	404.404	503.0956	530.5486	606.7226	769.1797	881.1026	898.4813	920.4848	972.0972	1032.0373	1048.5188	1061.5408	1088.9587	1142.488	1162.5131	1200.3728	1217.6626	1275.0441	1300.8047	1311.9666	1392.2191	1400.1362	1407.13	1418.3768	1427.5029	1453.2226	1490.5584	1493.7331	1502.244	1504.7502	1523.9453	2985.368	3001.0187	3012.8348	3031.1844	3037.1277	3061.5322	3071.0063	3104.5387	3118.7318	3790.3352	3830.698	3836.6247
CC(CO)(CO)CO	CC(CO)(CO)CO	
InChI=1S/C5H12O3/c1-5(2-6,3-7)4-8/h6-8H,2-4H2,1H3	InChI=1S/C5H12O3/c1-5(2-6,3-7)4-8/h6-8H,2-4H2,1H3
