25
gdb 58295	2.89471	0.84305	0.72611	1.66	89.54	-0.2616	0.0819	0.3435	1686.3892	0.226758	-389.477982	-389.466987	-389.466043	-389.515192	40.262	
C	 0.0448644962	 1.4977872289	 0.0964783796	-0.400011
C	-0.0128274482	-0.0381425706	 0.0437238454	 0.042235
C	 0.7006418814	-0.6036032985	 1.2834060163	-0.395101
C	-1.462693024	-0.5769064046	-0.0984689773	 0.058647
C	-2.2481033885	 0.146249346	-1.2052288929	-0.414298
C	-1.478047311	-2.1035892815	-0.3442143168	-0.237667
C	-2.83621002	-2.739220409	-0.1614409923	 0.096794
C	-3.0018485388	-4.0615645098	 0.4551237283	-0.183964
O	-3.2940779413	-2.8726195191	 1.190168552	-0.236859
H	 1.0728797859	 1.8348860458	 0.2647846274	 0.107912
H	-0.3041384899	 1.9629081194	-0.8284168266	 0.113815
H	-0.5667943747	 1.8859925671	 0.9202846666	 0.112218
H	 0.5460081295	-0.3613450625	-0.8483038406	 0.065282
H	 0.163629786	-0.3271863223	 2.1986680076	 0.116483
H	 0.7894516569	-1.6926174397	 1.267755335	 0.113862
H	 1.7146300797	-0.1977809248	 1.3603435322	 0.108712
H	-1.9741752762	-0.39786703	 0.8583689843	 0.08512
H	-1.722067825	 0.080129685	-2.1658735859	 0.109271
H	-3.2408769676	-0.2915910624	-1.3426444563	 0.112948
H	-2.3963929101	 1.2040770874	-0.977471221	 0.118848
H	-1.1230233813	-2.311083262	-1.3640204419	 0.093672
H	-0.7887039417	-2.6051626068	 0.3400458729	 0.09895
H	-3.6188337939	-2.4193224745	-0.8506619878	 0.091335
H	-3.8625374116	-4.6787477161	 0.1996778994	 0.111459
H	-2.1215588719	-4.6116088754	 0.7867817424	 0.110338
31.3484	53.0047	74.8484	155.1845	198.6482	209.754	238.2361	293.1169	323.514	353.1869	374.5798	408.2637	441.6683	475.5777	519.1633	776.517	800.6967	849.3252	888.5226	900.0937	926.4523	940.3237	965.3472	968.6592	993.1085	1040.0161	1077.8806	1089.3032	1154.7478	1159.2493	1163.8659	1173.2098	1185.9165	1193.798	1258.7378	1294.9612	1298.8694	1333.725	1349.7091	1363.4738	1380.8472	1401.6566	1412.166	1424.0444	1446.1758	1469.563	1486.4996	1492.5303	1497.4285	1505.8347	1508.7312	1523.5886	1530.3662	2982.3292	3003.0696	3017.2198	3027.1164	3031.2951	3033.0105	3077.7261	3085.4809	3088.5929	3096.0556	3096.9898	3104.8608	3113.4099	3115.1539	3123.5819	3163.4399
CC(C)C(C)CC1CO1	CC(C)[C@@H](C)C[C@H]1CO1	
InChI=1S/C8H16O/c1-6(2)7(3)4-8-5-9-8/h6-8H,4-5H2,1-3H3	InChI=1S/C8H16O/c1-6(2)7(3)4-8-5-9-8/h6-8H,4-5H2,1-3H3/t7-,8-/m0/s1
