19
gdb 119533	4.39241	0.92784	0.84469	1.5726	75.62	-0.2439	0.0008	0.2448	1379.5915	0.158897	-423.010026	-423.001449	-423.000505	-423.04367	32.425	
O	 0.0999913756	 1.4304203485	 0.2087698845	-0.418335
C	 0.0279737937	 0.0143115728	 0.1986425081	-0.059847
C	-1.3424395299	-0.5008531029	-0.2606309122	-0.314509
C	-1.4153874581	-2.0060724145	-0.287583493	 0.414306
C	-0.5959836762	-2.8233833314	-1.294219633	-0.327263
C	-1.4031453243	-4.0949660833	-1.4565715261	-0.079362
C	-2.5290120758	-4.0735505921	-0.7388036306	-0.076471
C	-2.6103337715	-2.8067743275	 0.045955683	-0.077543
O	-1.5235826551	-2.6505400872	 0.9921639241	-0.305034
H	-0.5072044751	 1.7500896617	 0.8837615677	 0.281953
H	 0.8078200502	-0.3142263767	-0.4968467234	 0.113039
H	 0.2677728275	-0.4128714714	 1.1836519384	 0.107765
H	-2.1134904144	-0.1243617025	 0.422870719	 0.094741
H	-1.5597005077	-0.095451581	-1.2559781348	 0.108182
H	-0.4830720377	-2.2876865592	-2.2460746287	 0.113047
H	 0.4152067277	-3.0245548906	-0.9207256484	 0.126614
H	-1.0624111403	-4.9225449295	-2.0685701919	 0.103192
H	-3.2720735068	-4.8593392589	-0.6879228513	 0.10323
H	-3.5554674817	-2.3729588642	 0.3603016685	 0.092296
68.8559	101.9992	120.3797	251.2245	296.4628	327.5739	345.3744	382.7608	425.2054	531.8219	695.7567	715.6625	738.3701	779.9503	816.817	869.5489	910.4267	941.7088	949.8064	975.2357	989.3683	1013.9614	1064.7013	1072.8346	1081.08	1131.3843	1139.7931	1188.7713	1232.1368	1261.5492	1296.7969	1320.8091	1332.016	1370.946	1397.7431	1421.1121	1438.1367	1462.3955	1471.5866	1513.018	1662.649	2998.4904	3022.8861	3027.422	3059.6895	3064.5066	3084.0179	3155.078	3191.4621	3220.6989	3815.5915
OCCC12CC=CC1O2	OCC[C@]12CC=C[C@H]1O2	
InChI=1S/C7H10O2/c8-5-4-7-3-1-2-6(7)9-7/h1-2,6,8H,3-5H2	InChI=1S/C7H10O2/c8-5-4-7-3-1-2-6(7)9-7/h1-2,6,8H,3-5H2/t6-,7-/m1/s1
