19
gdb 81462	3.06584	1.55938	1.43718	0.2066	73.61	-0.2295	0.0711	0.3006	983.0714	0.161271	-422.983264	-422.976122	-422.975178	-423.014251	30.011	
O	-0.1234660052	 1.4463852748	 0.0452141314	-0.442069
C	 0.0459203601	 0.0422234289	-0.0032709249	 0.10114
C	 0.2052653312	-0.6185561984	 1.3993926455	 0.084867
C	-1.3385864997	-0.4995312602	 1.5374272939	-0.24848
C	-1.3541868217	-0.6244165568	-0.0226181357	-0.054558
C	-1.2625593383	-2.1193851176	-0.3056905659	-0.062117
C	-0.0959775787	-2.7651798239	-1.0263278879	-0.334306
C	-0.1734018386	-2.7902038931	 0.4843722153	 0.10765
O	 0.6574220552	-1.9642515923	 1.2657209161	-0.276176
H	 0.7296004555	 1.8393789529	 0.2571820734	 0.284477
H	 0.778746139	-0.2414366362	-0.7669153812	 0.062958
H	 0.8581541386	-0.1491168524	 2.1388843533	 0.069729
H	-1.8575078731	-1.2669133146	 2.115588215	 0.09557
H	-1.6174544558	 0.4974223842	 1.8770178571	 0.116304
H	-2.1249741517	-0.1163865521	-0.6047535158	 0.074298
H	-2.2244614143	-2.6206544389	-0.3660297796	 0.091951
H	-0.288771861	-3.698686351	-1.5447122005	 0.10965
H	 0.6578940338	-2.1459953276	-1.4961928257	 0.122957
H	-0.3526761054	-3.7428538156	 0.9725932563	 0.096156
207.3476	262.5248	285.7143	301.2656	322.0308	428.8961	459.9377	484.6749	519.0517	660.9739	746.5626	809.2034	813.1038	864.288	891.7823	919.3579	926.4332	963.9855	969.6083	1005.04	1014.4035	1057.3868	1079.2439	1093.0928	1119.5914	1121.8318	1140.2314	1158.4084	1176.3586	1203.6618	1229.6542	1249.6275	1272.1789	1293.3115	1314.4802	1344.6913	1361.568	1401.6331	1423.6342	1476.3947	1487.8697	3035.6945	3077.2875	3087.9097	3095.4206	3139.3605	3142.8905	3151.5286	3156.5626	3230.9434	3811.1855
OC1C2CC1C1CC1O2	O[C@H]1[C@H]2C[C@@H]1[C@H]1C[C@H]1O2	
InChI=1S/C7H10O2/c8-7-4-2-6(7)9-5-1-3(4)5/h3-8H,1-2H2	InChI=1S/C7H10O2/c8-7-4-2-6(7)9-5-1-3(4)5/h3-8H,1-2H2/t3-,4-,5-,6-,7-/m1/s1
