19
gdb 86125	2.4128	1.45509	0.96188	4.4144	76.03	-0.2285	-0.086	0.1425	1239.2562	0.157766	-423.077279	-423.068033	-423.067088	-423.111429	33.877	
C	-0.3259621078	 1.5958278426	 0.0993472837	-0.404087
C	 0.0721138541	 0.1283056285	-0.0291743658	-0.103066
C	 1.1283603473	-0.2160393968	-1.1047664451	-0.250152
C	 1.7024067662	-1.5946421319	-0.7034559788	-0.103068
C	 3.0545219648	-1.9767388043	-1.2987690449	-0.404086
C	 1.6932864987	-1.5511107166	 0.8202133144	 0.311974
O	 2.3617322614	-2.1968148759	 1.581897535	-0.287572
C	 0.6620585737	-0.4612446854	 1.2467287977	 0.311972
O	 0.4250857244	-0.1500031816	 2.3829017434	-0.287572
H	 0.554737969	 2.2242039652	 0.2675832835	 0.125016
H	-0.8275581097	 1.9496338585	-0.8059963611	 0.117978
H	-0.9993524836	 1.733287691	 0.9492017248	 0.141397
H	-0.8287969808	-0.4733251206	-0.2341978693	 0.111655
H	 0.7134356158	-0.2130141913	-2.1157099137	 0.111929
H	 1.9301283051	 0.5336840034	-1.0819511503	 0.111637
H	 0.9591166286	-2.3628397082	-0.9736829954	 0.111655
H	 3.8066828441	-1.2125271746	-1.0773485465	 0.125016
H	 3.4040134739	-2.9202979485	-0.8719742015	 0.141397
H	 2.9909582549	-2.0858174434	-2.3852708201	 0.117978
62.0741	110.0676	187.9851	191.9583	217.0411	243.944	290.6588	319.2061	376.3973	465.2753	503.8067	535.3602	588.4557	693.2884	780.6096	883.7039	892.9185	910.4737	975.6033	997.4886	1008.2375	1047.4257	1086.4908	1130.1797	1169.8235	1178.1862	1189.6555	1277.0633	1296.6675	1309.8317	1338.0866	1355.8338	1410.4624	1410.7019	1492.2873	1493.6484	1497.4815	1497.5007	1503.7829	1837.6931	1856.5382	2977.183	2980.9775	3029.2966	3041.7802	3042.5444	3095.8782	3109.6758	3110.1408	3125.0134	3125.0176
CC1CC(C)C(=O)C1=O	C[C@H]1C[C@@H](C)C(=O)C1=O	
InChI=1S/C7H10O2/c1-4-3-5(2)7(9)6(4)8/h4-5H,3H2,1-2H3	InChI=1S/C7H10O2/c1-4-3-5(2)7(9)6(4)8/h4-5H,3H2,1-2H3/t4-,5+
