18
gdb 107357	3.1398	1.30393	1.05029	4.682	71.82	-0.2505	0.0478	0.2984	1170.993	0.148001	-439.127443	-439.11917	-439.118226	-439.160402	31.53	
C	-0.2169844631	 1.517103835	-0.0996138854	-0.379194
C	 0.1425488768	 0.0351555097	 0.0609460823	-0.264575
C	 0.7819421206	-0.5461613735	-1.1698169678	 0.438412
C	 0.0074151388	-1.0611486971	-2.3602868497	-0.364187
C	 0.8767997119	-2.0010245299	-1.5344200226	-0.086999
N	 2.2408948606	-2.1477390843	-1.9330089177	-0.363115
C	 2.8901972327	-0.9284563409	-1.9903651848	 0.452319
O	 3.9848964923	-0.6893943062	-2.4134461087	-0.383302
O	 2.0506807151	 0.026100288	-1.4649823023	-0.27795
H	 0.6747544721	 2.1086739248	-0.3230917492	 0.143461
H	-0.9314578376	 1.6629339509	-0.9161437625	 0.119254
H	-0.6656833549	 1.9084518061	 0.8177091907	 0.1153
H	 0.8298639658	-0.0956830601	 0.9051330641	 0.115816
H	-0.7555270786	-0.5507908677	 0.2886147045	 0.102218
H	-1.0667014135	-1.1494796943	-2.2362862139	 0.123624
H	 0.3413521976	-0.7962366639	-3.3577169885	 0.129552
H	 0.4452412677	-2.7921595049	-0.9317964534	 0.115049
H	 2.5663286258	-2.8811958316	-2.5413745752	 0.264318
85.2798	134.9328	160.81	204.6225	287.3688	353.1934	413.2703	446.8065	479.4853	508.668	638.2617	730.2129	759.0201	769.3901	796.3367	859.7658	898.6948	927.8749	982.2856	989.7711	1001.9179	1034.2389	1053.527	1087.7427	1124.2448	1141.9587	1195.9909	1257.063	1282.5759	1344.409	1373.2027	1391.8483	1411.0013	1418.4171	1474.8316	1476.9551	1496.6887	1509.5839	1895.5979	3033.0344	3043.3016	3070.8082	3112.1755	3124.9247	3131.0453	3172.4786	3226.2792	3652.9422
CCC12CC1NC(=O)O2	CC[C@]12C[C@H]1NC(=O)O2	
InChI=1S/C6H9NO2/c1-2-6-3-4(6)7-5(8)9-6/h4H,2-3H2,1H3,(H,7,8)	InChI=1S/C6H9NO2/c1-2-6-3-4(6)7-5(8)9-6/h4H,2-3H2,1H3,(H,7,8)/t4-,6+/m1/s1
