19
gdb 62825	2.34648	1.45942	1.32357	3.449	76.88	-0.2395	-0.0263	0.2132	1081.5834	0.157483	-422.982857	-422.973985	-422.973041	-423.016422	33.669	
C	-0.1336463546	 1.5499094692	 0.002395805	-0.489089
C	 0.0223467993	 0.0346976425	 0.0058380659	 0.424612
O	-1.2548545371	-0.5604482013	-0.1283945192	-0.485252
C	 1.2115900817	-0.6508733692	-0.7595721629	-0.127139
C	 2.1597960686	-0.1571740441	 0.3746698559	-0.28195
C	 0.8953291527	-0.6823602685	 1.1038746496	 0.218713
C	 0.949487779	-1.9097842108	 0.1212723264	-0.276639
C	 0.621686946	-0.714753574	 2.5665911894	 0.019548
O	 1.3677883682	-0.2753741687	 3.4082888559	-0.251487
H	 0.8007182082	 2.0913206727	 0.1480046854	 0.134415
H	-0.5493687017	 1.8736641471	-0.9608186479	 0.112688
H	-0.8349698995	 1.8533342095	 0.7854074723	 0.135111
H	-1.7298510805	-0.0963135607	-0.8248468222	 0.281457
H	 1.4052625748	-0.6291245111	-1.8335376746	 0.071652
H	 3.0571346473	-0.7590890016	 0.5260990224	 0.106423
H	 2.3910004055	 0.9044328129	 0.4439436509	 0.102776
H	 0.0223083513	-2.4511815808	-0.045988492	 0.124402
H	 1.8034535239	-2.5742678776	 0.2679519213	 0.098483
H	-0.350743373	-1.1803331556	 2.8450303484	 0.081277
57.5033	140.1156	188.1885	196.1489	234.0785	264.8962	353.9504	378.5139	440.0133	528.0146	554.8361	573.4517	661.1629	717.8526	761.1506	829.6059	894.7995	930.8951	963.2847	982.0032	1003.0184	1018.3329	1048.3767	1073.5633	1105.8125	1144.8475	1150.7361	1162.607	1198.618	1206.1056	1214.8399	1239.9038	1302.5775	1369.1825	1413.7511	1422.1318	1484.5774	1492.9053	1503.5144	1543.7209	1810.2863	2876.803	3027.4475	3080.6373	3086.5882	3094.7755	3100.7841	3143.3374	3159.3937	3178.7399	3818.7478
CC1(O)C2CC1(C2)C=O	C[C@@]1(O)[C@H]2C[C@@]1(C2)C=O	
InChI=1S/C7H10O2/c1-6(9)5-2-7(6,3-5)4-8/h4-5,9H,2-3H2,1H3	InChI=1S/C7H10O2/c1-6(9)5-2-7(6,3-5)4-8/h4-5,9H,2-3H2,1H3/t5-,6-,7+/m1/s1
