16
gdb 10716	2.58007	2.17936	1.36242	1.7009	61.2	-0.2495	0.0135	0.263	902.8706	0.131676	-417.065275	-417.057281	-417.056337	-417.097728	29.844	
N	 0.2748690596	 1.0191604934	-0.7453224662	-0.5449
C	 0.0557870168	-0.0199289161	 0.10764966	 0.341182
O	 0.8352907165	-0.3452739119	 0.9885792905	-0.377421
C	-1.2466089602	-0.7699373883	-0.1021962599	 0.202294
C	-2.1562759946	-0.4006515915	-1.2528541022	-0.168598
O	-2.5513449281	 0.9707465532	-1.2303413611	-0.418143
C	-1.2633457367	-2.1679186483	 0.4105009568	-0.258363
N	-1.9575053786	-1.1163754812	 1.1558205749	-0.355043
H	 1.0743884413	 1.5986624221	-0.5401621346	 0.257873
H	-0.5239782441	 1.4446117615	-1.1975122814	 0.275292
H	-1.6432181148	-0.5451358377	-2.2088658411	 0.124217
H	-3.0339716645	-1.058745128	-1.2318508146	 0.113635
H	-3.0008662927	 1.1169986442	-0.3894039094	 0.297446
H	-1.9085204059	-2.8964548301	-0.0727552197	 0.117873
H	-0.327915974	-2.5434330929	 0.8110339543	 0.144451
H	-1.3536205599	-0.8392418185	 1.9295722138	 0.248203
68.1776	119.1696	223.6156	264.0779	305.7099	335.5492	423.8558	440.6267	480.3567	553.0046	614.2633	660.7995	704.5423	779.9426	826.9944	923.6773	942.9179	994.4194	1008.9554	1057.0317	1110.9101	1139.0008	1143.3097	1203.0616	1277.0862	1306.402	1340.9769	1381.6693	1415.0841	1432.4189	1486.7806	1493.0505	1628.2914	1778.7367	3026.7627	3089.2712	3117.379	3218.7767	3473.4781	3534.8973	3679.9091	3793.9495
NC(=O)C1(CO)CN1	NC(=O)[C@@]1(CO)CN1	
InChI=1S/C4H8N2O2/c5-3(8)4(2-7)1-6-4/h6-7H,1-2H2,(H2,5,8)	InChI=1S/C4H8N2O2/c5-3(8)4(2-7)1-6-4/h6-7H,1-2H2,(H2,5,8)/t4-/m0/s1
