20
gdb 79024	4.66011	1.34221	1.28146	1.4246	82.14	-0.2233	0.0953	0.3185	1062.2024	0.173127	-365.926303	-365.919384	-365.918439	-365.957148	29.377	
C	-0.1918975552	 1.5858689598	-0.0346176334	-0.437332
C	 0.0144932012	 0.0821227198	 0.0188776862	 0.02789
C	 1.2529696235	-0.5874181334	-0.6048382702	-0.033031
C	 2.17126863	-0.1018591986	 0.5833041281	-0.04445
C	 3.1979117417	-1.2017263494	 0.8065467484	-0.080277
C	 2.9108982103	-2.1806203815	 1.9280022335	-0.299162
C	 2.3030704098	-2.391155384	 0.5678402816	 0.002559
N	 0.9733106017	-1.8202898155	 0.277167645	-0.145761
C	 0.8079146241	-0.5810637831	 1.16727606	-0.045898
H	 0.7182385813	 2.1500528605	 0.1859022792	 0.116803
H	-0.5378450405	 1.890208975	-1.0284691648	 0.119742
H	-0.9579488562	 1.895201264	 0.6849102394	 0.119305
H	-0.9084685564	-0.4591878859	-0.2075279764	 0.081674
H	 1.5232748668	-0.7002349717	-1.6578054456	 0.073288
H	 2.4920814502	 0.9365934376	 0.6761894511	 0.067195
H	 4.197055056	-1.1060362807	 0.3984977667	 0.086141
H	 3.7164659263	-2.8572021903	 2.1967369672	 0.108866
H	 2.2943259107	-1.8838324056	 2.7687514501	 0.114903
H	 2.5749927367	-3.2504742772	-0.032874691	 0.091526
H	 0.5090498481	-0.6714155697	 2.213353215	 0.076018
184.8607	208.4314	237.0608	332.0849	381.4557	497.86	548.4797	663.3886	690.2926	752.9544	785.7224	796.0183	811.9878	844.0246	859.4561	888.5439	926.6655	952.8062	981.2784	1020.7721	1035.349	1039.2711	1059.4531	1077.4619	1091.5625	1100.1918	1110.1659	1116.1547	1155.049	1161.3313	1164.9873	1194.1984	1219.1562	1237.9621	1270.048	1310.3658	1318.9993	1362.949	1400.3093	1419.501	1488.0429	1496.2773	1502.1779	3034.5246	3068.8777	3081.9277	3088.7338	3091.7729	3104.7711	3117.783	3131.9549	3177.5581	3187.3041	3213.6608
CC1C2C3C4CC4N2C13	C[C@H]1[C@H]2[C@@H]3[C@H]4C[C@H]4N2[C@H]13	
InChI=1S/C8H11N/c1-3-7-6-4-2-5(4)9(7)8(3)6/h3-8H,2H2,1H3	InChI=1S/C8H11N/c1-3-7-6-4-2-5(4)9(7)8(3)6/h3-8H,2H2,1H3/t3-,4-,5+,6-,7-,8+/m0/s1
