19
gdb 46735	2.67159	1.72402	1.3538	2.9605	77.16	-0.2238	-0.0175	0.2064	1002.0145	0.161084	-385.886581	-385.879248	-385.878304	-385.918646	29.314	
O	 0.0052786612	 0.0313757075	 0.2998853339	-0.320495
C	-0.0436608571	 1.2038907614	 0.0268545147	 0.39837
C	-1.326495455	 1.9707761115	-0.3429908929	-0.327048
C	-0.9073218658	 3.366541898	-0.8645613379	-0.247738
C	 0.5989795939	 3.5346104864	-0.5334357459	-0.028104
C	 1.0348805687	 4.1921018822	 0.7936967375	-0.057378
C	 0.4121393047	 3.5290157301	 1.9895519477	-0.292596
C	 1.5632809857	 2.8477664173	 1.3038271993	-0.048463
C	 1.1357541418	 2.1688043938	-0.0204829812	-0.138853
H	-1.8975973121	 1.385292335	-1.0694109812	 0.127407
H	-1.9512447876	 2.0240840648	 0.5567117842	 0.1358
H	-1.0561344681	 3.4196556221	-1.947183296	 0.106153
H	-1.5070521249	 4.1683915999	-0.424614298	 0.108505
H	 1.1616376818	 3.9367382622	-1.3773371044	 0.077615
H	 1.4932958836	 5.1709371907	 0.8682409887	 0.087942
H	 0.6704344601	 3.9852050949	 2.9402128566	 0.117475
H	-0.5964565268	 3.1278245928	 1.9695459869	 0.111614
H	 2.4831147194	 2.6207804385	 1.8273764028	 0.094656
H	 1.9753604464	 1.736285251	-0.5668483748	 0.095137
76.0384	110.5226	216.9691	315.2113	436.7205	464.177	556.0959	583.633	650.3972	712.0653	738.3476	757.7865	792.4103	821.3317	901.2492	923.7474	932.4145	967.4312	996.9001	1010.8076	1017.921	1043.2689	1061.0076	1080.4603	1089.6867	1146.9939	1154.8037	1174.8153	1181.3055	1225.8592	1259.9691	1263.8485	1269.303	1300.9466	1317.2426	1343.8879	1366.9233	1448.8648	1492.3413	1498.2792	1835.5313	3042.0227	3051.9601	3082.1879	3089.4469	3100.0555	3105.4323	3125.402	3177.3449	3191.6239	3204.7088
O=C1CCC2C3CC3C12	O=C1CC[C@H]2[C@H]3C[C@H]3[C@@H]12	
InChI=1S/C8H10O/c9-7-2-1-4-5-3-6(5)8(4)7/h4-6,8H,1-3H2	InChI=1S/C8H10O/c9-7-2-1-4-5-3-6(5)8(4)7/h4-6,8H,1-3H2/t4-,5+,6+,8-/m0/s1
