13
gdb 5701	4.90592	2.17141	1.53612	2.8712	58.91	-0.2065	-0.0021	0.2045	761.3428	0.098458	-398.608563	-398.602658	-398.601714	-398.639002	21.714	
C	 0.0639834685	 1.3558962913	-0.141189747	-0.086932
C	 1.538908453	 1.857943083	 0.1401987833	-0.378698
C	 2.0979054012	 0.5490118257	 0.5665875211	 0.201785
C	 1.1470132354	-0.386558608	 0.701220434	 0.364026
O	-0.1098140519	-0.0025145252	 0.3836965967	-0.278693
N	 1.6547368986	-1.5611164869	 1.1881551456	-0.347588
C	 2.9175062846	-1.2664857889	 1.3336520065	 0.046361
O	 3.2778236056	 0.0019318215	 0.9873466339	-0.187579
H	-0.6910460079	 1.9852854911	 0.3320083836	 0.130589
H	-0.1268706886	 1.3136876522	-1.2171284087	 0.128997
H	 1.9802723168	 2.2891130828	-0.7641117573	 0.128165
H	 1.5699404845	 2.6265431717	 0.9228170871	 0.127145
H	 3.7092785401	-1.9090675604	 1.683709471	 0.152421
84.9533	170.3996	319.2953	449.5352	616.2766	632.1025	723.8285	733.3424	778.5942	792.9622	837.9012	911.8575	946.7879	977.3497	1073.3805	1099.6318	1132.2321	1188.9329	1240.6569	1257.6919	1289.6209	1345.1935	1376.0647	1455.8406	1495.4652	1513.0647	1519.2061	1701.9678	3018.7725	3056.6211	3069.1406	3127.0348	3282.4487
C1CC2=C(O1)N=CO2	C1Cc2c(O1)nco2	
InChI=1S/C5H5NO2/c1-2-7-5-4(1)8-3-6-5/h3H,1-2H2	InChI=1S/C5H5NO2/c1-2-7-5-4(1)8-3-6-5/h3H,1-2H2
