22
gdb 103566	2.31165	1.2381	1.12351	2.9065	83.66	-0.255	0.0329	0.2878	1274.0361	0.192522	-404.370872	-404.360769	-404.359825	-404.405612	37.733	
C	 0.1184852773	 1.6026676778	 0.1286810189	-0.396033
C	-0.2348044464	 0.1365327241	-0.1481918495	-0.216039
C	 0.6075046638	-0.5149851168	-1.2424509611	 0.412525
C	 0.5201030741	 0.1764812134	-2.5926572519	-0.446019
O	 2.0269021661	-0.5798690167	-0.801650953	-0.299048
C	 2.0050783058	-1.9540812793	-0.7758339422	 0.431808
N	 2.8793722552	-2.7793312258	-0.4138182553	-0.553768
C	 0.5913166526	-2.0791538164	-1.3021043779	-0.188769
C	-0.3955980432	-2.91623898	-0.4987783929	-0.416451
H	 1.1871639462	 1.7062502688	 0.3376495479	 0.137693
H	-0.1285572873	 2.2535186378	-0.7149236624	 0.118804
H	-0.4339086997	 1.9691020421	 0.9986645217	 0.116045
H	-0.1050190867	-0.4374771912	 0.7747150521	 0.107343
H	-1.2926471621	 0.0467258399	-0.426223469	 0.101166
H	 0.8479371513	 1.2170445198	-2.5291910463	 0.13291
H	 1.1523168706	-0.3326679128	-3.3252605334	 0.125978
H	-0.5120802503	 0.164041829	-2.9593520002	 0.12137
H	 3.7270955408	-2.3043973228	-0.0978828565	 0.222729
H	 0.5968621634	-2.4213557383	-2.3421640905	 0.101522
H	-0.4147261554	-2.6360513461	 0.5570707791	 0.126784
H	-1.4104632791	-2.8256858365	-0.8989274657	 0.117342
H	-0.102994507	-3.96857651	-0.552467072	 0.142108
70.2135	99.8223	176.4142	193.7878	206.9283	221.2295	229.7404	301.8802	327.1612	348.5844	412.387	459.5433	545.6323	628.6026	657.8802	757.8121	789.5103	829.4613	853.9966	868.4676	919.0157	999.4606	1010.7905	1026.9795	1045.6781	1073.9676	1079.7217	1135.5403	1157.2878	1202.5087	1235.8117	1266.23	1290.9358	1337.9901	1370.8425	1382.476	1408.6745	1411.4688	1416.3044	1471.9327	1485.9831	1492.7346	1496.4495	1500.306	1507.7227	1512.142	1817.4801	3030.8458	3041.0271	3044.1313	3045.4425	3056.4901	3076.5529	3111.1645	3112.8846	3113.3784	3120.5699	3123.6171	3126.2439	3469.6878
CCC1(C)OC(=N)C1C	CC[C@@]1(C)O[C]([NH])[C@H]1C	
InChI=1S/C7H13NO/c1-4-7(3)5(2)6(8)9-7/h5,8H,4H2,1-3H3	InChI=1S/C7H13NO/c1-4-7(3)5(2)6(8)9-7/h5,8H,4H2,1-3H3/t5-,7-/m1/s1
