22
gdb 111412	1.89392	1.51084	0.97373	1.4023	81.98	-0.2252	0.0782	0.3034	1299.4006	0.194197	-404.297779	-404.288223	-404.287279	-404.332273	35.83	
C	 0.2551287465	 0.6593772857	-1.5889038227	-0.38815
C	-0.062566827	 0.3420160751	-0.1238045065	-0.190321
C	-1.4154993433	-0.3417163542	 0.0449691633	 0.019752
C	-1.5341432435	-1.8245049291	-0.3498821596	-0.057877
N	-0.6447542057	-2.5805369372	 0.5677522205	-0.335712
C	-2.0123925437	-2.1985822935	 1.0068407795	-0.083472
C	-1.9338311694	-0.7460439258	 1.4896998781	-0.009597
C	-1.0816805436	-0.4616020152	 2.7113080086	-0.0968
O	-1.1009701927	 0.9457419416	 2.9363329934	-0.424315
H	 1.2330478418	 1.1408720648	-1.6888366145	 0.108549
H	 0.2724245128	-0.2507270916	-2.1991895561	 0.111974
H	-0.4926297768	 1.33370587	-2.0223023679	 0.108679
H	 0.717020204	-0.3078807225	 0.2874222708	 0.109616
H	-0.0578106177	 1.2606969466	 0.4727610425	 0.107074
H	-2.1923758547	 0.2443345375	-0.4573675481	 0.068578
H	-1.806343379	-2.2392515296	-1.313037793	 0.087408
H	-0.6874597275	-3.5590786184	 0.2850423953	 0.226045
H	-2.7243617016	-2.9577007671	 1.3086643683	 0.087876
H	-2.9323867259	-0.3303406809	 1.6529686895	 0.079107
H	-1.499666213	-1.0037448578	 3.5765564132	 0.077955
H	-0.0618103075	-0.832095749	 2.5511563647	 0.108543
H	-0.4648693625	 1.1459007308	 3.628995421	 0.28509
84.8592	103.4147	125.5424	171.7818	212.2773	235.9524	262.4333	292.8349	347.2123	467.4443	531.1838	589.6816	680.6863	761.7689	804.7488	827.1838	846.4141	889.0792	922.0778	964.3557	982.8828	1019.2045	1037.0043	1045.4573	1069.3119	1085.6454	1106.1917	1124.6492	1129.5918	1168.0202	1185.7231	1228.0706	1245.6714	1270.7193	1286.1806	1299.2165	1323.5526	1348.5492	1360.5248	1385.8905	1394.9613	1410.6845	1455.0519	1494.0105	1500.0944	1507.4251	1525.8139	2957.9767	3025.3197	3039.1919	3046.6985	3048.0747	3071.673	3076.3021	3098.267	3099.9248	3174.7427	3188.9001	3474.1338	3830.2005
CCC1C2NC2C1CO	CC[C@H]1[C@H]2N[C@H]2[C@H]1CO	
InChI=1S/C7H13NO/c1-2-4-5(3-9)7-6(4)8-7/h4-9H,2-3H2,1H3	InChI=1S/C7H13NO/c1-2-4-5(3-9)7-6(4)8-7/h4-9H,2-3H2,1H3/t4-,5+,6-,7+/m1/s1
