22
gdb 57554	3.80381	0.67095	0.65879	4.1786	83.88	-0.2667	0.0347	0.3014	1796.8924	0.190613	-404.371471	-404.360327	-404.359383	-404.40887	39.686	
C	-0.1055056176	 1.5677562054	 0.1027741996	-0.415692
C	 0.0257801395	 0.0378998568	 0.0593893345	 0.364496
C	 0.661197703	-0.4991654736	 1.3506609405	-0.41566
C	-1.3457390626	-0.6055665332	-0.1637696824	-0.396715
O	 0.778769834	-0.3814144908	-1.0976290664	-0.288044
C	 2.1138202228	 0.0419330877	-1.2174363728	-0.067123
C	 2.6257492075	-0.5623247356	-2.533619194	-0.332264
C	 4.0158120907	-0.2063674382	-2.7988944084	 0.245319
N	 5.1169023228	 0.086018077	-2.9917412603	-0.304348
H	 0.8498380704	 2.0601363894	 0.3072433058	 0.117885
H	-0.4931210043	 1.9438120823	-0.8487624071	 0.121362
H	-0.7990518684	 1.8635813283	 0.8956442576	 0.119702
H	 0.0047187721	-0.301865926	 2.2034644516	 0.119693
H	 0.813535326	-1.5802495337	 1.2790275755	 0.12136
H	 1.6240217565	-0.0265822851	 1.5664518329	 0.117877
H	-1.784158157	-0.247180704	-1.0991427463	 0.11992
H	-1.2478561021	-1.6927776455	-0.2267292975	 0.119931
H	-2.026406358	-0.3627791934	 0.6569605325	 0.112953
H	 2.2024037811	 1.1363144262	-1.2597639879	 0.109818
H	 2.7397789576	-0.3110890768	-0.3862439417	 0.109813
H	 2.5299218513	-1.6522031172	-2.4924375933	 0.15986
H	 1.9964818645	-0.2152905	-3.3596358924	 0.159855
26.9844	54.7349	97.7912	127.3641	199.7338	223.2104	243.5259	258.328	301.4474	337.1521	341.9592	401.1746	440.8278	451.2831	490.664	567.5865	750.2128	797.7704	877.6228	909.7783	922.2348	955.7755	970.0558	1037.0682	1039.1214	1066.9096	1095.2468	1127.0039	1221.4775	1225.6107	1253.9543	1275.1377	1303.7402	1304.7601	1393.5108	1395.7083	1418.9839	1427.6161	1470.5837	1471.4814	1482.5776	1485.6131	1499.2935	1499.7589	1516.3695	1531.4108	2365.2701	3000.6473	3032.6246	3040.1727	3040.5655	3047.5235	3057.6247	3100.846	3106.5775	3111.797	3113.6211	3114.8446	3122.0031	3125.0723
CC(C)(C)OCCC#N	CC(C)(C)OCCC#N	
InChI=1S/C7H13NO/c1-7(2,3)9-6-4-5-8/h4,6H2,1-3H3	InChI=1S/C7H13NO/c1-7(2,3)9-6-4-5-8/h4,6H2,1-3H3
