23
gdb 59941	2.12618	1.1446	0.97541	4.2672	86.43	-0.2316	0.0365	0.2681	1400.5602	0.202913	-384.486423	-384.475206	-384.474261	-384.522523	41.466	
C	 0.7110617251	 1.4196278423	-0.6185671634	-0.371358
C	 0.0584583591	 0.1479827371	-0.0616958302	 0.061575
C	 0.0416198443	-0.969101519	-1.1160632327	-0.397378
N	 0.7471917876	-0.2440417943	 1.1810355522	-0.3106
C	-0.0396238578	-0.68987086	 2.3326133	 0.090614
C	-0.9868677329	-1.89048018	 2.0771546763	-0.402118
C	 0.9497211559	-1.0386978577	 3.46332764	-0.411028
C	-0.8664224068	 0.4556437985	 2.7816325497	 0.31018
N	-1.5316070344	 1.331237465	 3.1372856159	-0.352154
H	 1.7597391454	 1.2324692947	-0.8769349266	 0.107592
H	 0.1968928346	 1.765166808	-1.5217268258	 0.107372
H	 0.6854412603	 2.2175177956	 0.1272580201	 0.129314
H	-0.975709636	 0.3947321064	 0.2065872426	 0.098961
H	 1.0662238084	-1.2371667592	-1.4035229242	 0.111616
H	-0.452108038	-1.8722894108	-0.7476754233	 0.113653
H	-0.477151828	-0.6452371667	-2.0240671156	 0.120454
H	 1.4799444569	-0.9193859715	 0.9946075304	 0.213012
H	-0.3957696359	-2.7562139636	 1.7626197904	 0.116324
H	-1.5341586561	-2.1554050702	 2.9866711824	 0.130579
H	-1.7182210139	-1.6633797711	 1.2985953079	 0.13555
H	 1.6118503679	-0.1937961795	 3.6609237824	 0.14515
H	 0.4186053362	-1.3018932683	 4.3807600147	 0.135399
H	 1.556347658	-1.8988801955	 3.1603990565	 0.11729
46.0356	75.1147	152.7681	190.6403	207.9905	229.4877	242.889	268.5445	289.2178	309.9492	331.6825	375.8458	411.5877	435.4271	472.2365	576.2607	602.6067	651.8702	711.2284	850.2875	909.0822	924.8072	927.2775	939.4781	940.746	1023.4668	1044.6703	1136.7349	1144.3785	1182.9628	1195.6085	1214.5603	1267.4994	1334.0968	1377.7832	1392.4264	1398.6894	1413.6357	1419.2407	1472.3601	1478.8381	1481.1108	1485.1604	1487.8779	1496.0194	1506.9172	1509.414	1518.694	2354.6506	3025.3764	3030.9346	3039.3774	3040.7528	3044.7937	3090.0382	3100.2254	3112.6043	3117.3644	3120.5468	3125.091	3130.4093	3145.578	3535.6699
CC(C)NC(C)(C)C#N	CC(C)NC(C)(C)C#N	
InChI=1S/C7H14N2/c1-6(2)9-7(3,4)5-8/h6,9H,1-4H3	InChI=1S/C7H14N2/c1-6(2)9-7(3,4)5-8/h6,9H,1-4H3
