23
gdb 104986	2.39533	1.27646	1.10752	1.8349	80.68	-0.2573	0.0781	0.3354	1265.3915	0.202914	-425.419834	-425.409428	-425.408484	-425.454455	40.039	
C	 0.023706025	 1.6087619822	 0.1417216874	-0.403026
C	-0.0465714831	 0.0815236764	 0.2250060017	-0.261694
C	-1.4344813526	-0.5201326254	 0.0568073336	 0.376726
C	-2.6496672745	 0.284439242	 0.2471265145	-0.234451
O	-2.1766346162	-0.0263583817	-1.0782710222	-0.303109
C	-1.5665845211	-2.0552355519	 0.2132453288	 0.291595
C	-0.5263307183	-2.7900920895	-0.6506071447	-0.427288
C	-1.4559795075	-2.4681085695	 1.6831653051	-0.401683
O	-2.8701879078	-2.4464183377	-0.2071585565	-0.469008
H	 1.066189054	 1.9384328802	 0.116645818	 0.114493
H	-0.467796137	 1.9676172225	-0.7668438744	 0.138673
H	-0.4511843658	 2.0878585641	 1.0032290327	 0.117441
H	 0.596797589	-0.3452406728	-0.5527271027	 0.115417
H	 0.3673021011	-0.2589684941	 1.1815925786	 0.107148
H	-3.572612583	-0.2152216259	 0.5275476957	 0.126506
H	-2.5757471657	 1.3335589388	 0.5199171581	 0.11466
H	 0.4966603077	-2.6393742877	-0.2941561225	 0.111971
H	-0.7440325117	-3.8610215123	-0.6294478521	 0.122375
H	-0.5810188442	-2.451427061	-1.6907752282	 0.119231
H	-2.2027158483	-1.9440149061	 2.2857987008	 0.119418
H	-1.638991472	-3.5425862222	 1.7731966482	 0.125921
H	-0.4634516232	-2.2553616188	 2.0891420752	 0.113223
H	-3.0367203845	-1.9554439197	-1.0243955451	 0.28546
81.3204	88.1654	197.2045	208.714	234.0774	263.8847	269.4948	316.8823	326.088	356.5002	379.0207	406.4486	454.7647	520.7788	535.4664	567.5895	642.4861	768.9753	821.6071	869.4966	894.3779	927.2258	940.2595	979.8787	1010.7756	1017.6365	1070.5279	1115.2556	1137.5989	1146.045	1173.7553	1182.6446	1214.4471	1256.6996	1312.674	1374.2165	1382.9722	1395.7724	1401.4469	1414.1182	1422.4891	1475.7583	1481.0251	1489.6434	1500.927	1501.3006	1505.6923	1510.0753	1524.4934	3034.8734	3037.5369	3043.7908	3047.3953	3069.4805	3107.5799	3109.7603	3115.3331	3118.2431	3121.9344	3122.9394	3126.1013	3205.0064	3740.1447
CCC1(CO1)C(C)(C)O	CC[C@]1(CO1)C(C)(C)O	
InChI=1S/C7H14O2/c1-4-7(5-9-7)6(2,3)8/h8H,4-5H2,1-3H3	InChI=1S/C7H14O2/c1-4-7(5-9-7)6(2,3)8/h8H,4-5H2,1-3H3/t7-/m0/s1
