14
gdb 127372	2.52036	1.87107	1.08124	4.3284	68.82	-0.2535	-0.0587	0.1948	1033.3607	0.100782	-469.999147	-469.991039	-469.990095	-470.033109	28.433	
C	-0.0193651119	 1.4545276282	-0.0044864847	-0.36594
N	-0.0343854854	-0.0083541124	 0.0106516967	-0.151646
C	-0.141897217	-0.7021454512	-1.174135847	 0.144754
N	-0.1697491388	-1.9686437493	-1.3402217784	-0.133513
O	-0.0795285089	-2.7431287239	-0.1708543016	-0.28536
C	 0.0323373247	-2.1896783028	 1.0851095452	 0.309726
N	 0.1109929998	-2.9145930793	 2.1137693496	-0.463132
C	 0.0604412901	-0.6853442022	 1.2215507187	 0.383465
O	 0.1562637295	-0.1218450495	 2.2826021677	-0.325344
H	 0.8331366555	 1.8212361965	-0.5831030705	 0.149813
H	-0.9458805575	 1.8407549579	-0.4385085217	 0.14975
H	 0.0682923233	 1.7891301254	 1.0273762991	 0.189327
H	-0.2116386156	-0.1061269489	-2.0776875714	 0.156943
H	 0.0784515523	-3.9038557486	 1.8570919083	 0.241157
42.854	69.2657	109.3486	215.369	321.484	373.3845	466.7054	469.7146	527.8528	559.2705	568.2902	675.9916	793.4008	884.8237	904.98	910.5995	924.2111	1017.8149	1051.731	1121.624	1155.0146	1245.7925	1325.8273	1352.3085	1403.174	1445.9461	1503.2402	1506.2615	1713.9648	1742.2387	1817.2479	3049.7201	3114.8035	3180.7976	3201.4753	3471.5116
CN1C=NOC(=N)C1=O	CN1C=NO[C]([NH])C1=O	
InChI=1S/C4H5N3O2/c1-7-2-6-9-3(5)4(7)8/h2,5H,1H3	InChI=1S/C4H5N3O2/c1-7-2-6-9-3(5)4(7)8/h2,5H,1H3
