20
gdb 110486	3.20607	1.43543	1.27388	1.7975	81.34	-0.211	0.0014	0.2124	1081.5912	0.172832	-365.974092	-365.966484	-365.96554	-366.006226	30.481	
C	 0.0574179804	 1.5503277742	 0.0670629537	-0.380037
C	 0.0614040775	 0.0254375634	-0.0867056928	-0.208219
C	-1.3248051605	-0.5917953801	 0.0509041714	 0.043177
C	-1.5418556103	-2.0939307243	-0.0221776786	-0.095457
C	-1.4003146548	-2.8191033484	 1.2960175875	-0.06799
C	-0.685713717	-2.1690970872	 2.428006764	-0.073409
C	-1.1491339126	-0.9242111888	 2.5553431099	-0.084545
C	-2.1089038801	-0.6696846374	 1.424180592	-0.088329
N	-2.6360154731	-2.0539746307	 1.0126247327	-0.135798
H	 1.0617665921	 1.9659686876	-0.0587069972	 0.113399
H	-0.5945706952	 2.0236294658	-0.6757810069	 0.114503
H	-0.3024722703	 1.8493340306	 1.0578805983	 0.114859
H	 0.4589032711	-0.2431453805	-1.0745697168	 0.09438
H	 0.7401648384	-0.42169796	 0.6470913139	 0.100201
H	-2.0072099609	-0.1318428943	-0.6726071987	 0.087702
H	-1.65026034	-2.6584613341	-0.9447878339	 0.089444
H	-1.510289633	-3.8990520294	 1.2606835022	 0.090975
H	 0.083597536	-2.6534093122	 3.0149712818	 0.104649
H	-0.8032638104	-0.1645527242	 3.244662094	 0.103681
H	-2.8899947572	 0.07026457	 1.5922788334	 0.076812
79.9763	147.6843	193.6735	264.6222	330.4371	449.0936	479.3662	566.5467	689.0298	722.122	738.8815	770.3853	781.4434	799.3209	836.7254	851.2965	921.2313	936.5197	951.1256	977.2916	990.8256	1010.9701	1049.414	1067.8272	1093.7918	1106.8717	1130.8237	1156.0871	1163.7415	1190.48	1245.1603	1286.2835	1293.3861	1330.6634	1345.061	1358.4125	1378.3629	1404.093	1412.667	1485.2606	1500.3157	1504.6016	1654.4422	3022.8748	3029.3314	3043.1633	3070.2702	3096.2724	3103.6384	3119.2874	3139.509	3156.8011	3205.6779	3231.2884
CCC1C2C3C=CC1N23	CC[C@H]1[C@H]2[C@H]3C=C[C@@H]1N23	
InChI=1S/C8H11N/c1-2-5-6-3-4-7-8(5)9(6)7/h3-8H,2H2,1H3	InChI=1S/C8H11N/c1-2-5-6-3-4-7-8(5)9(6)7/h3-8H,2H2,1H3/t5-,6+,7-,8+,9?/m1/s1
