21
gdb 93866	2.03856	1.63221	1.48281	2.8835	77.72	-0.2443	0.0621	0.3064	1065.1003	0.183468	-424.224091	-424.215383	-424.214439	-424.25724	34.452	
O	-0.4029644724	 1.6064770079	 0.5337582104	-0.446574
C	-0.1821620098	 0.263545048	 0.1270947131	 0.057877
C	 0.6199069716	-0.5542335759	 1.1828613804	-0.231958
C	-0.4003529774	-1.5098786821	 1.8632245332	-0.240611
C	-1.7829110556	-1.0320066041	 1.3851174958	 0.023817
O	-2.2501231703	 0.0927326706	 2.1529921921	-0.446336
C	-1.4913329755	-0.5124471992	-0.0061423642	 0.390065
C	-2.5667865375	-0.1085311994	-0.9665773081	-0.327154
C	-1.7757062068	-1.3703340837	-1.2137809036	-0.340182
H	-1.0427112624	 1.559490121	 1.2576205708	 0.282945
H	 0.3525495941	 0.3317035549	-0.8250431163	 0.07136
H	 1.4300749637	-1.1202608805	 0.7150357592	 0.099415
H	 1.0777515703	 0.1439367614	 1.887000188	 0.10921
H	-0.2486010821	-2.5415998359	 1.529572766	 0.1054
H	-0.3255764262	-1.5175517415	 2.9562830427	 0.086354
H	-2.5397338909	-1.827909067	 1.3993958518	 0.06151
H	-2.2240036943	-0.1494919493	 3.0845310767	 0.284287
H	-3.5986433838	-0.2055639271	-0.6467062792	 0.115387
H	-2.372303385	 0.7544608708	-1.5937623473	 0.124535
H	-1.045998909	-1.3713158644	-2.0169277577	 0.112925
H	-2.2713266605	-2.3243658445	-1.0630542338	 0.107725
66.6761	128.918	216.514	231.4935	263.8198	332.4067	372.2402	394.4307	429.9831	521.7111	542.1536	588.8108	708.8609	776.7678	786.8251	836.7822	869.6706	895.2175	934.766	940.4861	960.0886	985.861	1009.454	1015.206	1054.1968	1060.4507	1080.4698	1102.0318	1177.0859	1185.3532	1186.9508	1221.4595	1244.4308	1287.8593	1304.7274	1316.0574	1329.0344	1340.8314	1364.8028	1438.1934	1463.8208	1470.4544	1477.6437	1496.4474	1507.6003	3009.1245	3040.9323	3057.1136	3070.3658	3077.6788	3114.4255	3123.5069	3135.9609	3203.6121	3222.6358	3745.424	3813.4291
OC1CCC(O)C11CC1	O[C@H]1CC[C@@H](O)C21CC2	
InChI=1S/C7H12O2/c8-5-1-2-6(9)7(5)3-4-7/h5-6,8-9H,1-4H2	InChI=1S/C7H12O2/c8-5-1-2-6(9)7(5)3-4-7/h5-6,8-9H,1-4H2/t5-,6+
