18
gdb 12339	2.99522	2.0876	1.33068	2.5983	72.89	-0.2357	-0.0109	0.2248	940.2492	0.154202	-347.846738	-347.838984	-347.83804	-347.878838	29.253	
C	-0.0277977871	 1.5563642121	 0.0010836836	-0.398851
C	 0.0998930444	 0.0352909037	 0.0146194494	-0.084486
C	 0.7971740893	-0.5245316166	-1.2479195833	-0.25514
C	 1.0734055729	-2.0008742776	-1.1512317008	-0.067513
C	 1.1253149377	-2.6605300189	 0.0043574439	-0.047674
C	 0.9543698153	-1.9968120995	 1.3464284177	-0.356134
C	 0.814540179	-0.4800162921	 1.2592526489	 0.386819
O	 1.2364102106	 0.2497007415	 2.1261289123	-0.313968
H	 0.95889083	 2.0287715663	-0.0011311772	 0.127409
H	-0.572307344	 1.8898762254	-0.8878539548	 0.106239
H	-0.5562623998	 1.9147713877	 0.8875141756	 0.127221
H	-0.9016393931	-0.4217750747	 0.0418211237	 0.096337
H	 0.1718430188	-0.3131205745	-2.1238729691	 0.110202
H	 1.7360489217	 0.0230992095	-1.4206730384	 0.119393
H	 1.2391626904	-2.5347098471	-2.0835802003	 0.091422
H	 1.3225282221	-3.7296009115	 0.0139356502	 0.093199
H	 0.0573796269	-2.3869372656	 1.8531166213	 0.132546
H	 1.7906743848	-2.2203762781	 2.0183034372	 0.13298
83.365	122.0326	186.3384	272.3361	309.1721	384.9341	412.2475	476.8634	544.2313	605.5173	678.7659	714.9396	803.3686	890.9277	908.8594	936.1337	953.5844	1002.7677	1014.595	1062.7491	1091.688	1130.6325	1149.9979	1170.8691	1218.2966	1234.4017	1309.1523	1327.6407	1332.8051	1388.9723	1409.0823	1412.9602	1446.8364	1480.2527	1490.1838	1493.1598	1729.2188	1814.513	2987.2525	2994.2648	3001.7009	3043.3418	3045.957	3064.3495	3112.2071	3125.4129	3147.5722	3170.5733
CC1CC=CCC1=O	C[C@H]1CC=CCC1=O	
InChI=1S/C7H10O/c1-6-4-2-3-5-7(6)8/h2-3,6H,4-5H2,1H3	InChI=1S/C7H10O/c1-6-4-2-3-5-7(6)8/h2-3,6H,4-5H2,1H3/t6-/m0/s1
