19
gdb 51731	3.36065	0.94258	0.80966	1.1566	76.64	-0.2352	-0.0284	0.2068	1418.3697	0.157083	-422.995382	-422.986311	-422.985367	-423.030682	32.583	
O	-0.3600395735	 0.018005496	-0.2806066302	-0.233871
C	-0.0255304288	 1.1528376203	-0.0586007792	 0.157437
C	 1.3494250951	 1.7193383203	-0.3370157423	-0.296602
C	 1.2918713484	 2.9355593852	-1.2657763803	-0.150722
C	 0.7384202876	 4.2628209941	-0.6884595993	-0.09037
O	 1.9883548656	 4.9435084196	-0.9281350488	-0.302852
C	 2.578112466	 3.7473599029	-1.4405086678	 0.460655
C	 3.999005576	 3.3888750285	-1.1520745991	-0.336965
C	 3.5608275084	 3.7766970243	-2.5602893411	-0.33317
H	-0.7467356618	 1.8827135553	 0.3791895765	 0.075539
H	 1.7936459799	 2.0240353184	 0.6210780508	 0.125438
H	 1.9672879459	 0.9229307821	-0.7627130964	 0.123734
H	 0.8325454939	 2.6594008705	-2.2191307689	 0.097599
H	-0.0888721004	 4.7202777367	-1.2416340336	 0.11177
H	 0.4886708444	 4.2404775616	 0.3800186767	 0.102024
H	 4.5811508202	 4.1139440797	-0.5934617655	 0.128094
H	 4.2527831028	 2.3522103078	-0.9546036483	 0.117463
H	 3.5096552209	 3.0023814108	-3.3193940434	 0.117234
H	 3.8594275195	 4.7536159458	-2.9251266099	 0.127566
47.6924	65.3829	73.3764	143.2544	241.0039	249.6731	342.2961	405.5652	460.8527	530.4051	570.0584	757.4861	778.4637	834.6281	868.0881	875.4847	905.6999	942.5636	969.3758	980.4283	1023.2083	1048.0834	1067.817	1070.2671	1108.7174	1132.4168	1167.998	1186.9316	1219.7434	1235.2612	1241.0829	1301.0055	1348.3906	1356.4554	1395.5764	1433.982	1446.5093	1463.5469	1494.2296	1527.6098	1835.3051	2854.296	3014.3437	3019.8405	3058.9559	3074.0569	3095.6089	3126.1218	3128.4821	3209.8963	3223.8398
O=CCC1COC11CC1	O=CC[C@H]1COC21CC2	
InChI=1S/C7H10O2/c8-4-1-6-5-9-7(6)2-3-7/h4,6H,1-3,5H2	InChI=1S/C7H10O2/c8-4-1-6-5-9-7(6)2-3-7/h4,6H,1-3,5H2/t6-/m0/s1
