19
gdb 59886	2.81559	1.03097	0.89918	1.9929	73.	-0.2665	-0.004	0.2624	1383.8329	0.156485	-460.179114	-460.169302	-460.168358	-460.214809	34.625	
C	 0.0258027466	 1.3955423061	-0.4985161555	-0.39314
C	 0.0074408941	-0.0711168142	-0.0964930606	 0.145435
C	 0.2238773177	-0.2996533558	 1.3952147762	-0.397843
O	-1.3032973153	-0.5758684284	-0.4808293857	-0.253487
C	-1.3993089853	-1.8845324572	-0.7463887615	 0.431826
O	-0.4957145384	-2.6827604324	-0.6791276222	-0.375115
C	-2.796260447	-2.2825069244	-1.1316999171	-0.031093
C	-3.9715847736	-1.7029556685	-0.4525389509	-0.165936
O	-3.6241297134	-1.3160669268	-1.7724677808	-0.212602
H	 1.0023289398	 1.8329403887	-0.2705914084	 0.121125
H	-0.1627391655	 1.5070992267	-1.5693221126	 0.130941
H	-0.739085908	 1.957522163	 0.0463388061	 0.125833
H	 0.7499501362	-0.6383238387	-0.6646294844	 0.112495
H	 0.2066095104	-1.3667658615	 1.6269443257	 0.141948
H	 1.1967435223	 0.1006563237	 1.6967974229	 0.121691
H	-0.5515918533	 0.2064614978	 1.9792240893	 0.120058
H	-2.849000791	-3.2933349246	-1.5285981437	 0.121471
H	-4.8708144463	-2.3091978936	-0.3552592437	 0.125597
H	-3.8160011298	-0.9448921801	 0.3115813369	 0.130797
44.0711	81.9513	95.1403	132.8527	214.5426	237.1115	260.7333	292.5104	348.5702	413.9143	463.13	490.3728	619.3453	762.1455	837.0906	855.2482	887.793	913.4466	934.7996	949.968	959.4715	1035.8037	1098.6414	1137.5981	1157.827	1161.2689	1169.5023	1204.0407	1263.7229	1306.988	1362.2496	1383.3358	1402.5831	1405.6546	1420.2	1481.1332	1485.8159	1495.5258	1511.4097	1514.4124	1806.615	3041.1092	3045.5287	3075.8785	3093.0566	3110.6338	3121.1327	3125.2533	3134.2016	3153.403	3190.0959
CC(C)OC(=O)C1CO1	CC(C)OC(=O)[C@H]1CO1	
InChI=1S/C6H10O3/c1-4(2)9-6(7)5-3-8-5/h4-5H,3H2,1-2H3	InChI=1S/C6H10O3/c1-4(2)9-6(7)5-3-8-5/h4-5H,3H2,1-2H3/t5-/m1/s1
