22
gdb 100884	2.5536	0.95564	0.82945	3.0154	82.75	-0.2804	0.0277	0.3082	1533.8524	0.192054	-404.378024	-404.366997	-404.366053	-404.414422	39.296	
C	-0.0090416177	 1.6068228648	-0.0066866101	-0.383033
C	 0.0014756457	 0.0770639953	 0.0449315871	-0.209927
C	-1.4028600607	-0.5286338974	-0.0601087745	 0.122189
O	-2.0745993296	-0.1346983984	-1.2451276808	-0.430142
C	-1.4075486177	-2.0790218866	 0.0897007527	-0.146449
C	-2.8421532528	-2.6416188719	 0.2077673519	-0.181562
C	-2.9045327988	-4.1606692662	 0.3724211846	-0.402567
C	-0.7028676816	-2.670115195	-1.0529574103	 0.276044
N	-0.1639197125	-3.091409955	-1.9858044161	-0.34313
H	 1.0082344375	 2.0069914984	 0.0252303036	 0.115901
H	-0.4903871133	 1.9599495581	-0.9221243278	 0.131144
H	-0.5614736243	 2.0265993769	 0.841221579	 0.115459
H	 0.6219530231	-0.3237545158	-0.7678165873	 0.115324
H	 0.4630605227	-0.2651246999	 0.9799389264	 0.098695
H	-2.0231347297	-0.1370213218	 0.7556490214	 0.092976
H	-1.5435232142	-0.4242640485	-1.9980455586	 0.293636
H	-0.8451448945	-2.3394053194	 0.9960160916	 0.119506
H	-3.3076875682	-2.1520558477	 1.0711672606	 0.104638
H	-3.4054204571	-2.3231837305	-0.6740737789	 0.130621
H	-2.4650764185	-4.6737500747	-0.4884711967	 0.142416
H	-2.3657857888	-4.4887211011	 1.2683890403	 0.116232
H	-3.941817599	-4.4944305237	 0.4673310723	 0.122028
70.9824	80.8572	97.9778	141.2354	147.5741	187.5285	223.1378	261.8833	276.4337	320.8738	368.7566	371.8275	437.108	499.324	574.1141	722.8564	758.8816	790.3295	831.5376	880.8705	947.4188	975.3299	1001.8125	1042.3961	1073.7755	1081.8686	1111.5245	1130.7075	1165.6346	1245.2171	1265.1305	1278.3885	1296.5604	1349.3614	1360.1418	1369.3145	1392.9668	1410.7774	1417.0759	1427.5482	1483.9172	1489.8751	1496.683	1499.7666	1507.3119	1508.5868	2345.2472	3017.6958	3030.3284	3035.6708	3035.9874	3039.7334	3043.0317	3060.2362	3089.315	3105.9845	3110.0431	3115.5332	3125.7439	3774.141
CCC(O)C(CC)C#N	CC[C@@H](O)[C@@H](CC)C#N	
InChI=1S/C7H13NO/c1-3-6(5-8)7(9)4-2/h6-7,9H,3-4H2,1-2H3	InChI=1S/C7H13NO/c1-3-6(5-8)7(9)4-2/h6-7,9H,3-4H2,1-2H3/t6-,7+/m0/s1
