23
gdb 120979	3.64478	0.86104	0.8089	1.827	85.43	-0.2374	0.0788	0.3163	1551.0422	0.206093	-388.260612	-388.251389	-388.250445	-388.295631	34.529	
C	-0.1485772745	 1.5677873754	-0.0838975817	-0.380928
C	-0.0433457739	 0.0404501619	-0.0709185717	-0.164221
C	 0.7402868322	-0.5192648447	-1.2651793397	-0.193632
C	 0.8286685932	-2.041477706	-1.260703922	 0.025159
C	-0.4587738946	-2.8686660847	-1.604713548	-0.256633
C	 0.3207002254	-3.5969856489	-2.7212127356	 0.124861
O	 0.1788863725	-2.9558684843	-4.0069672289	-0.293202
C	 1.4170559167	-2.2276070185	-3.8301252481	-0.081004
C	 1.6009608952	-2.773154938	-2.4044226697	-0.118258
H	 0.8434159018	 2.0327518155	-0.0621620741	 0.112876
H	-0.6583513363	 1.9218795467	-0.9868502147	 0.114962
H	-0.7085454232	 1.9377663988	 0.7806892771	 0.111169
H	 0.4369670918	-0.2871188715	 0.8607873363	 0.092913
H	-1.0505203847	-0.3960949472	-0.0616568918	 0.101048
H	 0.2654087377	-0.1765191643	-2.1939335564	 0.100383
H	 1.7546413356	-0.0950417665	-1.2641976903	 0.089676
H	 1.2347236911	-2.366149498	-0.2961170514	 0.070745
H	-0.8099651705	-3.5132896378	-0.7945530544	 0.097224
H	-1.3032156068	-2.2918414502	-1.9916405959	 0.106731
H	 0.2612457825	-4.6867243037	-2.7899501929	 0.071516
H	 2.1824465849	-2.571212753	-4.5385800993	 0.09705
H	 1.28820436	-1.1456268876	-3.951188925	 0.100749
H	 2.5720868342	-3.2008005632	-2.1565419119	 0.070815
42.6377	90.9772	96.9453	139.226	247.1974	278.3805	314.9444	358.3511	417.5584	490.4103	662.9171	745.3632	766.1849	780.8302	843.6782	863.5233	895.412	921.7881	927.1316	970.8504	994.46	1012.2008	1022.0796	1045.7511	1061.9195	1097.5627	1113.2464	1137.0533	1153.0477	1186.8099	1206.4941	1212.6799	1254.0023	1265.1834	1274.6057	1298.4216	1308.5699	1324.7713	1339.5174	1359.5398	1375.2998	1397.7071	1412.7388	1463.7817	1482.7673	1493.6932	1499.764	1510.1216	1526.4644	3002.5713	3007.9595	3015.674	3028.5878	3029.4542	3039.2177	3053.8198	3054.3975	3059.3267	3068.2473	3095.7916	3101.3091	3110.118	3113.3222
CCCC1CC2OCC12	CCC[C@H]1C[C@H]2OC[C@@H]12	
InChI=1S/C8H14O/c1-2-3-6-4-8-7(6)5-9-8/h6-8H,2-5H2,1H3	InChI=1S/C8H14O/c1-2-3-6-4-8-7(6)5-9-8/h6-8H,2-5H2,1H3/t6-,7-,8+/m0/s1
