17
gdb 84488	3.16809	1.53443	1.13253	2.112	76.29	-0.2332	-0.0151	0.2181	1078.1371	0.136993	-418.051018	-418.042865	-418.041921	-418.083849	30.126	
C	-0.0143726616	 1.4482046259	 0.0119338443	-0.353168
N	 0.0120073143	 0.0020621649	-0.0134304195	-0.115701
C	 0.051843658	-0.8348006579	-1.1245437997	 0.033506
N	 0.0684898169	-2.0931883162	-0.8780880671	-0.314211
C	 0.0379194534	-2.1861227078	 0.5543535438	 0.224637
C	-0.7030051247	-3.3172674386	 1.2486368624	-0.292498
C	 0.785864389	-3.291318874	 1.2820810861	-0.292522
C	 0.0010642815	-0.8041549742	 1.1266115782	 0.368086
O	-0.0319023423	-0.4235598823	 2.276881983	-0.398521
H	 0.8807307104	 1.8720837543	-0.454844916	 0.138256
H	-0.9010432461	 1.840243962	-0.496853011	 0.138253
H	-0.0444107837	 1.7461324463	 1.0620638268	 0.171931
H	 0.0664730265	-0.405655773	-2.1205477816	 0.135497
H	-1.2426101829	-3.0401678264	 2.1473956778	 0.141591
H	-1.1939550036	-4.0242182005	 0.5911120291	 0.136647
H	 1.3301643266	-3.9802128354	 0.6478007659	 0.136634
H	 1.2746080783	-2.9962922571	 2.2039355375	 0.141582
96.1893	112.9887	182.2515	227.5201	242.3308	284.4279	319.9187	495.0957	528.7055	614.8096	723.8122	746.2401	758.8196	788.4904	884.1116	917.056	929.3721	972.1016	982.4854	1034.4667	1058.2952	1067.7846	1089.3704	1156.1712	1205.9608	1231.9394	1311.0767	1318.1709	1351.0534	1398.5386	1446.0966	1456.3349	1481.5838	1496.5074	1509.3261	1653.5082	1820.5728	3033.6991	3093.9066	3139.9983	3143.5569	3144.1049	3198.9034	3235.6181	3249.7162
CN1C=NC2(CC2)C1=O	CN1C=NC2(CC2)C1=O	
InChI=1S/C6H8N2O/c1-8-4-7-6(2-3-6)5(8)9/h4H,2-3H2,1H3	InChI=1S/C6H8N2O/c1-8-4-7-6(2-3-6)5(8)9/h4H,2-3H2,1H3
