21
gdb 59472	3.10253	0.93918	0.80082	3.2008	79.38	-0.2651	0.0666	0.3317	1497.2102	0.180029	-424.186452	-424.176634	-424.175689	-424.22198	35.685	
C	-0.4467312256	 1.2649545512	 0.5600881242	-0.392055
C	-0.6760203572	-0.0588522908	-0.1834238611	-0.004299
C	-1.7591746956	 0.0730444737	-1.2638255661	-0.391721
C	 0.6243694455	-0.5304450495	-0.8036059734	 0.070797
O	 1.6303274682	-1.0561120138	 0.066075329	-0.269064
C	 1.0589941436	-1.9343945394	-0.911672893	 0.027382
C	 0.2710100889	-3.0949083704	-0.4043460391	 0.05405
C	-0.2133110929	-4.1345416038	-1.3243885242	-0.180582
O	 0.9181199575	-4.3696572732	-0.4908971139	-0.231967
H	 0.3273291636	 1.151711408	 1.3242894255	 0.133578
H	-0.1265362283	 2.0522869311	-0.1326473052	 0.113327
H	-1.3658797242	 1.604106619	 1.0480748846	 0.112479
H	-0.9993849754	-0.8071060446	 0.5487684427	 0.078644
H	-1.4620778837	 0.7957247058	-2.03287892	 0.1172
H	-1.9495789561	-0.8837816781	-1.7604454558	 0.115498
H	-2.700658997	 0.4226595221	-0.8292815358	 0.11838
H	 1.0205955121	 0.1545698905	-1.5596952347	 0.086263
H	 1.7353675604	-2.2028004432	-1.7254104768	 0.099103
H	-0.2654503162	-2.9317664351	 0.5282149102	 0.108757
H	-1.112313758	-4.6959674362	-1.0742349328	 0.119198
H	-0.0003110895	-4.0522283532	-2.3899054342	 0.115032
48.3137	58.7301	127.197	174.8426	221.7524	243.306	273.5524	299.2087	347.0943	368.3743	454.1538	508.5125	590.0404	776.0114	834.0947	864.0675	877.3998	898.2133	928.4718	955.705	969.0183	974.516	1062.9775	1084.8302	1115.8481	1141.4733	1156.2871	1163.4384	1184.1694	1196.3445	1207.0009	1285.4617	1293.4116	1317.6395	1337.854	1343.7186	1397.9698	1416.771	1436.5164	1488.3257	1490.7668	1495.9346	1504.5657	1515.0702	1532.6939	3027.9261	3031.1658	3042.521	3061.1729	3081.063	3093.515	3097.6342	3100.2836	3106.9089	3115.9635	3135.8969	3167.7931
CC(C)C1OC1C1CO1	CC(C)[C@H]1O[C@H]1[C@H]1CO1	
InChI=1S/C7H12O2/c1-4(2)6-7(9-6)5-3-8-5/h4-7H,3H2,1-2H3	InChI=1S/C7H12O2/c1-4(2)6-7(9-6)5-3-8-5/h4-7H,3H2,1-2H3/t5-,6-,7+/m1/s1
