19
gdb 104077	2.46674	1.52835	1.24508	4.2499	77.07	-0.246	-0.0563	0.1897	1081.7683	0.159341	-423.066462	-423.057818	-423.056873	-423.099557	33.063	
C	-0.0186888671	 1.5338592596	 0.0202313557	-0.422022
C	-0.0311692367	-0.0032373378	-0.0394142467	 0.135862
C	-1.4844286061	-0.5345839632	-0.0383276821	-0.08073
O	-2.2314073416	-0.0806968188	 1.0642400867	-0.428353
C	 0.795402861	-0.552881937	-1.2260697662	-0.334295
C	 1.9732826081	-1.2437261402	-0.5896605062	-0.046104
C	 1.9221837322	-1.2471633953	 0.7486413315	-0.169589
C	 0.6924721388	-0.5704124914	 1.1983249233	 0.378455
O	 0.2747056473	-0.4877347516	 2.3392685865	-0.375536
H	 1.0051461685	 1.9209569001	 0.048579635	 0.113522
H	-0.5173280253	 1.9500767071	-0.8616475757	 0.116201
H	-0.5494712167	 1.8815329018	 0.9080961014	 0.144662
H	-1.9981629714	-0.1816982046	-0.941149728	 0.102315
H	-1.4592866867	-1.637702323	-0.0880137891	 0.081548
H	-1.6843278605	-0.2353097239	 1.8496766782	 0.297286
H	 0.2225109365	-1.2648024236	-1.8364117428	 0.123447
H	 1.1193322822	 0.2391123519	-1.9114921196	 0.12174
H	 2.7605968714	-1.6957800952	-1.1842398728	 0.120561
H	 2.6317225161	-1.6932198249	 1.4333652708	 0.121031
69.0059	172.7038	197.351	230.2961	259.8622	301.0129	305.8239	379.1398	414.8777	504.8781	571.7582	652.1905	687.5313	701.6616	762.6827	843.0197	889.7735	918.8592	946.2589	969.5035	1000.0157	1005.9684	1090.491	1100.7945	1122.4557	1138.5958	1189.5545	1202.8345	1242.9482	1274.8662	1337.2709	1364.7091	1381.552	1405.3745	1464.6655	1470.5069	1490.0041	1496.3121	1510.4683	1646.2601	1774.4177	2944.5132	3017.9206	3035.1283	3045.1383	3055.6771	3099.4136	3139.8711	3188.4604	3228.4556	3699.8211
CC1(CO)CC=CC1=O	C[C@@]1(CO)CC=CC1=O	
InChI=1S/C7H10O2/c1-7(5-8)4-2-3-6(7)9/h2-3,8H,4-5H2,1H3	InChI=1S/C7H10O2/c1-7(5-8)4-2-3-6(7)9/h2-3,8H,4-5H2,1H3/t7-/m0/s1
