14
gdb 7712	3.63337	1.95703	1.32137	2.196	60.71	-0.2677	-0.0097	0.258	868.9787	0.109961	-415.921572	-415.914915	-415.913971	-415.952657	24.888	
N	-0.1012753055	 1.3398696324	-0.1182726763	-0.514625
C	-0.0357673239	 0.078545193	 0.0189335049	 0.392084
C	-1.2719563861	-0.7829262293	 0.0320099482	-0.27594
C	-1.0464454114	-1.9843806604	 0.9367551377	-0.091288
O	 0.1142950405	-2.7264484425	 0.5246254027	-0.233741
C	 1.2569153667	-2.0532967765	 0.2805456643	 0.476482
O	 2.3127288729	-2.6151163518	 0.1744693388	-0.370481
N	 1.1358896802	-0.669387553	 0.157602848	-0.412893
H	 0.8251198986	 1.7725394977	-0.1283461518	 0.211287
H	-2.1209599355	-0.1823197838	 0.3612350207	 0.146817
H	-1.4759789034	-1.1291733494	-0.988364283	 0.143182
H	-0.9170227398	-1.673883993	 1.9809575913	 0.128533
H	-1.8728608935	-2.6945190297	 0.8863398882	 0.136745
H	 2.0252003304	-0.2065040936	 0.0318866665	 0.263838
114.9272	135.2456	247.2924	377.4759	453.3165	482.2394	546.3688	597.2934	619.6959	701.8422	768.8932	802.5954	885.9213	909.2161	947.54	1001.5721	1084.6417	1104.3263	1145.981	1219.0301	1245.8183	1282.8429	1351.1528	1406.9697	1417.8438	1428.3125	1463.3595	1513.4122	1748.0895	1860.8902	3035.342	3050.403	3125.7547	3134.2202	3446.4539	3611.1865
N=C1CCOC(=O)N1	[NH][C]1CCOC(=O)N1	
InChI=1S/C4H6N2O2/c5-3-1-2-8-4(7)6-3/h1-2H2,(H2,5,6,7)	InChI=1S/C4H6N2O2/c5-3-1-2-8-4(7)6-3/h1-2H2,(H2,5,6,7)
