17
gdb 39698	3.78186	1.68096	1.53821	1.9269	73.89	-0.2237	0.0751	0.2989	896.8565	0.137652	-384.615773	-384.609628	-384.608684	-384.646007	26.36	
C	-0.0812718741	 1.4813144022	 0.0106375998	-0.270241
O	 1.1537630851	 0.7478162656	-0.0055126829	-0.291276
C	-0.0729853463	 0.017928458	 0.0027537466	 0.520812
C	-0.4080395809	-0.8743065353	 1.1600718674	-0.184195
C	-1.5740363582	-1.7699725498	 0.7868688101	-0.093629
C	-0.1682099095	-2.3238901863	 0.7679304917	-0.085807
C	-0.1835668784	-2.315595892	-0.785293076	-0.085815
C	-1.5894538243	-1.7617057611	-0.7704835092	-0.093621
C	-0.4310117896	-0.861951169	-1.1571412821	-0.184196
H	-0.2922341336	 2.020026596	 0.9340853568	 0.110327
H	-0.3104357704	 2.0298210345	-0.9026510123	 0.110327
H	-0.2647912305	-0.5552069107	 2.1843363979	 0.093327
H	-2.4032664639	-1.9974562046	 1.4418667867	 0.089702
H	 0.298767293	-3.0564433352	 1.4107327174	 0.090627
H	 0.2705412085	-3.0411900869	-1.4449865928	 0.090626
H	-2.4315081898	-1.9823193765	-1.4113171193	 0.089703
H	-0.3080661871	-0.5319338487	-2.1805841999	 0.093327
153.9676	275.6534	321.411	479.6053	587.6386	594.3259	681.4508	732.2965	752.8454	773.8828	811.1123	851.1546	869.1281	881.1778	913.9575	921.0788	926.0677	948.6947	961.0667	995.6996	1006.7952	1021.3795	1038.6276	1049.4279	1070.4078	1092.2638	1122.9773	1162.818	1206.6745	1208.8201	1268.9825	1277.5785	1294.8699	1298.6659	1378.3499	1459.198	1541.0757	3074.8799	3158.3863	3200.0677	3202.6132	3203.1023	3211.755	3215.7465	3224.5807
C1OC11C2C3C2C2C3C12	C1O[C@]21[C@H]1[C@@H]3[C@H]1[C@H]1[C@@H]3[C@@H]21	
InChI=1S/C8H8O/c1-8(9-1)6-2-3(6)5-4(2)7(5)8/h2-7H,1H2	InChI=1S/C8H8O/c1-8(9-1)6-2-3(6)5-4(2)7(5)8/h2-7H,1H2/t2-,3+,4-,5+,6+,7-,8-
