19
gdb 63714	3.30363	1.25356	1.08287	1.8384	83.84	-0.228	0.0215	0.2495	1183.6439	0.155892	-385.826854	-385.817743	-385.816799	-385.859993	35.542	
C	-0.0744283373	 1.5474661647	 0.0174542767	-0.441864
C	 0.0633085724	 0.0356259025	 0.0854262348	 0.39816
C	-1.2338633817	-0.6811094892	-0.2668334697	-0.421672
O	 1.1372263879	-0.4504788606	-0.7993655044	-0.358541
C	 1.7317673284	-1.1787282047	 0.2822901499	 0.318206
C	 2.222262066	-0.2259680718	 1.3391271696	-0.358246
C	 0.760242811	-0.5926688517	 1.3011092004	-0.214451
C	 2.2124300493	-2.4980659088	 0.0634558385	 0.21331
C	 2.6253111641	-3.6123988143	-0.124820054	-0.418056
H	 0.8535341382	 2.0505075644	 0.2975445945	 0.120256
H	-0.3330653329	 1.8542060081	-1.001201677	 0.12834
H	-0.8704638598	 1.8883438251	 0.6874830072	 0.118646
H	-1.5619776092	-0.3954425586	-1.2707082291	 0.125123
H	-1.0919685974	-1.7647076578	-0.245028701	 0.129168
H	-2.0258411344	-0.4178384819	 0.4431299183	 0.112581
H	 2.7797702001	-0.6808869267	 2.1511562596	 0.128882
H	 2.5701331004	 0.7546126799	 1.0291645307	 0.121324
H	 0.2553295275	-1.0868330253	 2.1206233521	 0.106853
H	 2.9884363773	-4.5957839532	-0.293964537	 0.191979
98.9859	140.6848	190.4346	234.1122	246.2197	271.638	338.195	371.4703	459.7203	466.858	508.0372	527.8661	569.8426	608.4235	678.1337	686.9251	826.5605	842.1752	854.2362	933.2066	944.6782	955.9238	995.2007	997.2222	1008.2021	1050.0815	1077.3432	1127.1817	1200.1874	1219.987	1249.1738	1326.457	1365.0771	1400.9547	1414.8747	1468.6235	1475.9907	1482.2912	1495.878	1501.4532	2234.4097	3033.6568	3041.3112	3102.8296	3110.2226	3122.2155	3123.6952	3126.8708	3201.2492	3219.4944	3502.3221
CC1(C)OC2(CC12)C#C	CC1(C)O[C@]2(C[C@@H]12)C#C	
InChI=1S/C8H10O/c1-4-8-5-6(8)7(2,3)9-8/h1,6H,5H2,2-3H3	InChI=1S/C8H10O/c1-4-8-5-6(8)7(2,3)9-8/h1,6H,5H2,2-3H3/t6-,8-/m0/s1
