18
gdb 61912	3.67999	0.73729	0.64097	4.8735	74.25	-0.2533	0.0115	0.2648	1677.2471	0.146211	-439.086106	-439.076281	-439.075337	-439.121777	35.397	
N	 0.0984281349	 1.0667524695	-0.0840921797	-0.539543
H	-0.2233612905	 0.1771978059	-0.4457120819	 0.251452
H	 1.100735759	 0.990821601	 0.0641109423	 0.247112
H	-0.2765863677	 2.8529535469	-0.5681526717	 0.306596
C	-0.5913181005	 1.4394798211	 1.163869891	-0.147147
C	 0.0476716644	 0.9250816927	 2.4592957808	-0.179207
C	-0.0280106555	-0.6076522804	 2.5977580702	-0.368793
C	 0.6204035309	-1.0967173771	 3.8075748536	 0.288669
C	 1.1648973284	-1.4745199036	 4.8099721551	-0.422566
C	-0.7607543208	 2.9778434792	 1.2138524282	 0.439388
O	-1.0835370838	 3.5694421278	 2.2091421713	-0.339846
O	-0.5467582361	 3.5780183441	 0.038319205	-0.369328
H	-1.6151581502	 1.0479632576	 1.0942009543	 0.121553
H	 1.0969042309	 1.2442724498	 2.4982109935	 0.111924
H	-0.4535769484	 1.4052546314	 3.3023441529	 0.152083
H	-1.0809760504	-0.9208519022	 2.5938839188	 0.133309
H	 0.434072019	-1.0846978544	 1.7228781293	 0.115882
H	 1.6393136065	-1.8158966891	 5.6964451369	 0.198463
53.121	75.91	98.7767	110.0108	225.3639	278.548	306.9437	340.4338	355.5327	416.2915	487.0248	540.161	622.6186	623.9329	642.7186	732.8576	768.0822	838.5906	856.7791	887.8452	958.484	978.0903	1029.1992	1070.619	1126.0584	1146.092	1219.6815	1234.6103	1263.2005	1313.7489	1326.955	1381.7076	1393.8891	1426.959	1474.1595	1493.2554	1655.0067	1867.1538	2241.8815	3008.8718	3025.0439	3035.576	3046.0101	3120.5314	3470.19	3506.3147	3506.9128	3597.4052
[NH3+]C(CCC#C)C([O-])=O	N[C@@H](CCC#C)C(=O)O	
InChI=1S/C6H9NO2/c1-2-3-4-5(7)6(8)9/h1,5H,3-4,7H2,(H,8,9)	InChI=1S/C6H9NO2/c1-2-3-4-5(7)6(8)9/h1,5H,3-4,7H2,(H,8,9)/t5-/m0/s1
