18
gdb 100220	2.62387	1.14379	0.96272	4.903	77.78	-0.2774	0.0155	0.2928	1284.5065	0.143728	-401.926241	-401.915879	-401.914935	-401.961435	37.38	
C	-0.1814945877	 1.5468400632	-0.0230605233	-0.392396
C	 0.028991721	 0.032919288	 0.0060850873	-0.208983
C	 0.7860683637	-0.4646137182	 1.2626067496	 0.127749
O	 0.105184583	-0.0872345708	 2.4542121939	-0.43734
C	 0.9124184217	-2.0184940781	 1.1884704745	-0.385694
C	 1.5306795973	-2.6077871042	 2.3724214377	 0.285507
N	 2.0119432168	-3.099170549	 3.3001339281	-0.304341
C	 2.1256619022	 0.1274417705	 1.3289379079	 0.40796
C	 3.2358249592	 0.5839463333	 1.3388994506	-0.478248
H	 0.7757962424	 2.0725049617	-0.0711039617	 0.13766
H	-0.7741787867	 1.8337685146	-0.8960705988	 0.116051
H	-0.7034909685	 1.8837458151	 0.8760596785	 0.129875
H	-0.9414779765	-0.4832204029	-0.0158096061	 0.091044
H	 0.5757374003	-0.2942583235	-0.8854144918	 0.113184
H	-0.8017427959	-0.4096987733	 2.3914463091	 0.286285
H	-0.0901908121	-2.4465589711	 1.0667411026	 0.141005
H	 1.492419086	-2.2995015556	 0.3036972089	 0.160955
H	 4.2174990136	 0.9892143704	 1.3709422731	 0.209727
66.1966	104.2293	125.2079	159.2447	188.4237	224.2459	262.7975	265.0193	343.6621	394.1639	400.1236	413.2264	467.5149	561.9796	648.2382	649.9013	682.3716	735.1996	797.5794	895.8797	924.1382	982.8636	1015.462	1028.3579	1091.5297	1134.1858	1151.8356	1225.6278	1283.4706	1325.0879	1363.9713	1404.9652	1415.4155	1455.7204	1482.2194	1493.4004	1509.4035	2246.0167	2369.3716	3008.4398	3039.4209	3050.9361	3065.9481	3092.1889	3121.8534	3129.9218	3499.7048	3792.7037
CCC(O)(CC#N)C#C	CC[C@@](O)(CC#N)C#C	
InChI=1S/C7H9NO/c1-3-7(9,4-2)5-6-8/h1,9H,4-5H2,2H3	InChI=1S/C7H9NO/c1-3-7(9,4-2)5-6-8/h1,9H,4-5H2,2H3/t7-/m1/s1
