21
gdb 110855	2.19948	1.28059	1.08668	2.0328	78.96	-0.2326	0.0712	0.3038	1257.2793	0.180785	-424.18271	-424.172986	-424.172042	-424.217018	36.245	
C	 1.0693865692	 0.6220476852	-1.8910308348	-0.421338
C	 1.4715315008	-0.6729749474	-1.2145146571	 0.117838
O	 2.9092589902	-0.9175486382	-1.1375241384	-0.3107
C	 2.7704737499	-1.3442416329	 0.2227504005	 0.025132
C	 2.3782683303	-0.1946586319	 1.1032730053	-0.105661
C	 2.9210594044	 1.2087900723	 0.9369187085	-0.107355
O	 4.0674603184	 1.412149372	 1.755750954	-0.419297
C	 1.3132004516	-0.9270341416	 0.2898344554	 0.204391
C	 0.1078366766	-1.5716328887	 0.9118765423	-0.497941
H	 1.4655052558	 0.6498352415	-2.9115163861	 0.129745
H	-0.0229849783	 0.6767783805	-1.9556454164	 0.119787
H	 1.4257669503	 1.5050993575	-1.3584386219	 0.128225
H	 1.0183653854	-1.516275731	-1.7571717475	 0.079479
H	 3.2908525216	-2.2470211807	 0.5247372549	 0.099962
H	 2.3103955599	-0.4823893361	 2.1521915785	 0.093636
H	 3.1519461131	 1.4038822076	-0.1163326313	 0.106
H	 2.1877159461	 1.9512028957	 1.269296296	 0.107092
H	 4.752123895	 0.8142770545	 1.4378962485	 0.283211
H	-0.7133464594	-0.8545182922	 1.0314639101	 0.124154
H	-0.2608053735	-2.400823895	 0.2969379943	 0.119598
H	 0.3385104423	-1.9696500011	 1.9049811852	 0.124042
80.9632	150.0232	171.6846	185.9514	199.0205	202.2361	259.6652	282.7637	325.5394	388.4738	425.6157	557.2636	589.9751	646.3406	737.753	785.0044	860.9335	902.0089	933.7003	936.3905	996.9278	1018.32	1048.7495	1062.9239	1076.8605	1103.2635	1125.1683	1143.4443	1151.5507	1206.5293	1248.6478	1261.0279	1298.952	1325.9071	1385.1957	1402.3532	1409.2671	1413.3716	1419.448	1471.9822	1487.2764	1488.5508	1495.4659	1498.4841	1506.8451	2986.7802	3021.3831	3034.4523	3041.5035	3078.4328	3079.403	3099.1077	3102.3889	3122.9394	3141.3998	3167.9019	3811.9931
CC1OC2C(CO)C12C	C[C@H]1O[C@H]2[C@@H](CO)[C@@]12C	
InChI=1S/C7H12O2/c1-4-7(2)5(3-8)6(7)9-4/h4-6,8H,3H2,1-2H3	InChI=1S/C7H12O2/c1-4-7(2)5(3-8)6(7)9-4/h4-6,8H,3H2,1-2H3/t4-,5-,6+,7-/m1/s1
