19
gdb 106585	2.67821	1.42247	1.26081	0.9295	75.68	-0.2338	0.0056	0.2395	1079.8656	0.159661	-422.985142	-422.976985	-422.976041	-423.01776	32.385	
O	-0.0499924592	 1.4148598019	 0.0264876624	-0.425063
C	 0.012655498	-0.006717009	 0.0025989882	-0.21418
C	-1.3926172569	-0.5435237853	 0.0427009142	 0.276299
C	-2.3181319325	-0.484920302	 1.3074982074	-0.248293
C	-3.1204974254	-1.5701498225	 0.5140402727	-0.128573
C	-3.5126798338	-0.7629870343	-0.7301826117	-0.117882
C	-2.3927719653	-0.0961169066	-1.0355741715	-0.129886
C	-1.7023615331	-2.0944735701	 0.0695904996	 0.128474
O	-1.534585582	-2.8787638188	-1.0649664159	-0.441708
H	 0.8479831925	 1.7555347946	-0.0250133093	 0.28798
H	 0.5117347568	-0.3689683816	-0.911276113	 0.092584
H	 0.5832997062	-0.3955617859	 0.8610235382	 0.085111
H	-1.839128362	-0.8631193147	 2.2171857495	 0.091949
H	-2.8264470215	 0.4609796237	 1.4961360307	 0.108328
H	-3.8624194722	-2.2163568404	 0.9813083651	 0.063048
H	-4.4794003945	-0.752252188	-1.2139089362	 0.1028
H	-2.1908676075	 0.6132892275	-1.8250918702	 0.109378
H	-1.1756838657	-2.6047683103	 0.8814163143	 0.08673
H	-2.015668652	-2.4339878983	-1.7771868044	 0.272905
71.798	150.4057	240.1423	271.6718	276.5931	327.7499	418.0603	486.4338	500.8042	577.7067	599.2412	661.6991	740.6732	788.6617	806.1703	830.5397	880.2909	899.9962	919.5511	940.2417	948.0865	1037.7501	1050.3483	1077.5059	1095.4202	1132.2757	1146.5775	1167.2618	1190.8918	1215.0048	1237.7948	1255.9715	1267.2487	1285.3268	1311.7237	1359.2774	1446.8372	1464.9342	1500.9259	1516.4123	1615.2176	2962.5626	2991.093	3047.9831	3080.3698	3126.8845	3137.2906	3219.9415	3247.8362	3731.3778	3826.6561
OCC12CC(C=C1)C2O	OC[C@@]12C[C@@H](C=C1)[C@H]2O	
InChI=1S/C7H10O2/c8-4-7-2-1-5(3-7)6(7)9/h1-2,5-6,8-9H,3-4H2	InChI=1S/C7H10O2/c8-4-7-2-1-5(3-7)6(7)9/h1-2,5-6,8-9H,3-4H2/t5-,6-,7+/m1/s1
