14
gdb 23967	3.58924	1.36968	1.00405	7.8927	76.59	-0.2422	-0.0112	0.2309	1100.8863	0.104105	-395.748473	-395.741522	-395.740578	-395.780254	25.671	
N	-0.0155371617	-1.153074589	-0.047445079	-0.353592
C	 0.005001968	 0.0046685706	-0.036800406	 0.203998
C	-0.0171130507	 1.4217370831	-0.0185013387	 0.046427
C	-1.0953096138	 2.2708961689	 0.1261234332	 0.259926
C	-2.5278121964	 2.7451412016	 0.3109843068	-0.384509
C	-1.9129542631	 4.1946761055	 0.2498126031	-0.171376
N	-0.5944056161	 3.5293736236	 0.0770948924	-0.005712
C	 0.7593183364	 3.4578623336	-0.0936326866	-0.032397
N	 1.1280673144	 2.1962727225	-0.1531265168	-0.304243
H	-3.2142388008	 2.5057175479	-0.5032307326	 0.148286
H	-2.9926173773	 2.4862939592	 1.2640873919	 0.148282
H	-2.2056697023	 4.7994584276	-0.6101713408	 0.147663
H	-1.9826076902	 4.7799056435	 1.1683293105	 0.147668
H	 1.4138623635	 4.3115899114	-0.1663952372	 0.149579
111.2996	144.1653	181.7606	249.9075	415.2253	529.782	559.5851	589.3077	647.7914	714.6364	720.1856	802.0922	807.1864	855.3899	908.4886	1058.5004	1069.736	1093.3912	1137.0581	1183.6775	1216.617	1234.7595	1280.705	1289.7901	1384.7126	1399.1612	1471.514	1480.6785	1514.584	1582.3736	2350.927	3080.4644	3084.3792	3130.2937	3146.1245	3270.6064
N#CC1=C2CCN2C=N1	N#Cc1c2CCn2cn1	
InChI=1S/C6H5N3/c7-3-5-6-1-2-9(6)4-8-5/h4H,1-2H2	InChI=1S/C6H5N3/c7-3-5-6-1-2-9(6)4-8-5/h4H,1-2H2
