18
gdb 16569	2.93934	2.6176	2.15721	1.8867	65.54	-0.2533	0.0768	0.3301	742.46	0.157919	-384.953126	-384.947112	-384.946168	-384.982857	25.198	
C	-0.0330427309	 1.5589270925	-0.0436171669	-0.240889
C	 1.4586469729	 2.0093167026	-0.0546374948	-0.24089
C	 2.2583204651	 0.6869907321	 0.032784645	 0.119175
C	 1.3406959957	-0.3111116454	-0.6887563401	-0.223115
C	 0.0339198938	 0.0153715623	 0.0492186781	 0.119175
O	 0.1659104441	-0.4494699776	 1.3993003151	-0.268871
C	 1.2103108417	 0.1888174885	 2.0937967598	 0.019739
O	 2.4239177419	 0.2322952477	 1.3826162316	-0.268871
H	-0.607692394	 1.9810833054	 0.7846368861	 0.112374
H	-0.5411706828	 1.8428427148	-0.9696535979	 0.10296
H	 1.7121691127	 2.5231970293	-0.9863021667	 0.10296
H	 1.7148226021	 2.6823285743	 0.7674769043	 0.112373
H	 3.2682724069	 0.7650664435	-0.3730921194	 0.07685
H	 1.2641216127	-0.0836616574	-1.7580300137	 0.092322
H	 1.6546016038	-1.3474630068	-0.5537740817	 0.109708
H	-0.8558849366	-0.4801527023	-0.3426199936	 0.07685
H	 0.9040267149	 1.2102028016	 2.3785793072	 0.080335
H	 1.393662846	-0.3963155352	 2.9980835076	 0.117815
215.0196	315.0539	361.858	403.5111	429.7214	480.7758	611.3136	761.4396	764.4285	814.121	816.4201	879.649	891.1048	928.4756	933.5753	950.6761	1012.4141	1020.8917	1054.2634	1075.7895	1094.6498	1163.9758	1190.9943	1203.8582	1231.6337	1252.6564	1260.6565	1291.6263	1301.8799	1335.6037	1344.6786	1378.0641	1383.6842	1445.3466	1469.5292	1475.3952	1493.8878	1527.3074	2948.1294	3048.0514	3055.136	3064.5788	3094.1476	3098.7717	3099.7881	3103.4276	3115.0101	3125.2613
C1CC2CC1OCO2	C1C[C@@H]2C[C@H]1OCO2	
InChI=1S/C6H10O2/c1-2-6-3-5(1)7-4-8-6/h5-6H,1-4H2	InChI=1S/C6H10O2/c1-2-6-3-5(1)7-4-8-6/h5-6H,1-4H2/t5-,6+
