21
gdb 40651	3.15436	1.11975	1.09571	2.0056	82.23	-0.2527	0.0774	0.33	1237.8074	0.184564	-387.064914	-387.056764	-387.05582	-387.098524	31.326	
C	 0.0672835391	 1.4550337061	-0.145737286	-0.186522
O	 1.2513957273	 0.6609920944	-0.0847777572	-0.241833
C	-0.01759501	-0.0123365409	-0.1197118914	 0.074505
C	-0.3962973859	-0.7396601178	 1.1267733778	-0.031324
C	-1.661191223	-1.5515843752	 1.332726457	-0.068013
C	-2.4628203596	-2.0596654976	 0.1405752061	-0.213903
C	-1.4633953659	-2.8320544443	-0.760507683	-0.2262
C	-0.2455921339	-3.1789326568	 0.1371951166	-0.217127
C	-0.3123105121	-2.2386362775	 1.3352277434	-0.063415
H	-0.165661586	 2.0183539286	 0.7576613989	 0.108817
H	-0.0914589135	 1.9946653077	-1.0790429084	 0.109822
H	-0.2092833515	-0.5080972368	-1.0680333714	 0.089662
H	-0.1038819454	-0.1701233046	 2.0062442411	 0.087876
H	-2.2029974	-1.3772026263	 2.2565569689	 0.080852
H	-3.2398230591	-2.7360962272	 0.514455478	 0.101443
H	-2.9791107068	-1.2638658152	-0.4074675338	 0.098544
H	-1.9179349851	-3.7301825865	-1.1875359153	 0.098004
H	-1.1554198377	-2.2181783463	-1.6108488566	 0.109164
H	-0.3225750267	-4.2087596314	 0.5035045245	 0.101
H	 0.7003512552	-3.1106857185	-0.4108070098	 0.106177
H	 0.1431717505	-2.5762135641	 2.2601530604	 0.082471
41.0566	114.1369	138.4895	203.0957	288.4898	327.6845	468.9015	510.2702	663.3014	691.5337	752.5237	785.3327	801.2497	846.8436	869.4568	881.5117	886.959	941.0389	974.8181	984.6282	1020.6408	1024.1596	1070.0944	1090.6379	1098.0182	1115.8587	1133.5164	1153.9672	1165.9618	1184.0054	1220.9446	1248.3885	1259.716	1296.5315	1306.7305	1314.5979	1325.3287	1333.565	1359.6993	1404.3832	1477.4615	1492.3921	1496.4844	1517.0338	1531.1956	3034.701	3036.8163	3059.3001	3067.682	3070.1068	3075.552	3100.3742	3127.6821	3144.7726	3154.6194	3162.7206	3167.0776
C1OC1C1C2CCCC12	C1O[C@H]1[C@H]1[C@H]2CCC[C@@H]12	
InChI=1S/C8H12O/c1-2-5-6(3-1)8(5)7-4-9-7/h5-8H,1-4H2	InChI=1S/C8H12O/c1-2-5-6(3-1)8(5)7-4-9-7/h5-8H,1-4H2/t5-,6+,7-,8-/m1/s1
