16
gdb 7098	7.68508	0.89718	0.81558	3.8914	67.1	-0.2801	0.0122	0.2923	1356.5578	0.129356	-379.948858	-379.939978	-379.939034	-379.983284	30.365	
C	 0.0682831319	 1.5371903442	 0.1992417644	-0.391163
C	-0.0067762888	 0.0362911635	-0.002957264	-0.033918
O	 0.6662903064	-0.5842103476	 1.110254781	-0.25022
C	 0.708900117	-1.9257458335	 1.1141562719	 0.421123
N	 0.194546901	-2.6344870249	 0.2033960345	-0.522336
C	 1.460673271	-2.3683281682	 2.3699177834	-0.437856
C	 1.5728718797	-3.8159223104	 2.4866971695	 0.270562
N	 1.6497329816	-4.9661438122	 2.5590374832	-0.300745
H	 1.1073702847	 1.8767708487	 0.2325022822	 0.129157
H	-0.4339009989	 2.0462436165	-0.6285566437	 0.126365
H	-0.4207752359	 1.8319843186	 1.1320024328	 0.129162
H	-1.038852889	-0.3265073544	-0.0367621559	 0.126376
H	 0.4797291308	-0.2821591513	-0.9302193798	 0.126424
H	 0.3283286008	-3.628171912	 0.3800454274	 0.247174
H	 2.4599146215	-1.9191624963	 2.362318256	 0.179942
H	 0.9492409961	-1.9645571806	 3.2506617872	 0.179954
42.0606	86.5676	118.6002	134.3828	208.2632	253.2285	357.1688	378.5759	408.6862	472.0137	553.8649	702.6063	807.824	870.0742	877.0154	914.0229	967.18	983.5072	1046.7602	1122.403	1137.6134	1183.4367	1211.7223	1287.393	1289.9325	1365.2652	1406.2335	1430.4049	1447.2532	1485.6561	1496.4518	1520.4119	1743.1016	2370.8109	3046.748	3053.2667	3054.4821	3090.2154	3091.4062	3122.074	3126.0904	3515.8047
CCOC(=N)CC#N	CCO[C]([NH])CC#N	
InChI=1S/C5H8N2O/c1-2-8-5(7)3-4-6/h7H,2-3H2,1H3	InChI=1S/C5H8N2O/c1-2-8-5(7)3-4-6/h7H,2-3H2,1H3
