18
gdb 109853	2.97917	0.95203	0.85318	4.0885	70.72	-0.2383	0.0253	0.2635	1377.764	0.14691	-476.212642	-476.203117	-476.202173	-476.24802	34.234	
O	 0.1507680891	 1.1529338914	-0.4107535546	-0.425841
C	-0.0477299223	-0.012158367	 0.3729490699	-0.078737
C	-1.4404239997	-0.5913001604	 0.2025725084	-0.091482
C	-1.8465471584	-1.1264993151	-1.1438798605	 0.023459
O	-0.8304551189	-1.0983874451	-2.1208830786	-0.428571
C	-1.6776070087	-2.0873901972	 0.0061561527	-0.012593
N	-0.5847273282	-3.00500116	-0.066795926	-0.279036
C	-0.4633267272	-4.0723583329	 0.7683556531	 0.153637
O	-1.2185041749	-4.333008509	 1.6800082505	-0.3221
H	 0.0608467013	 0.8770546501	-1.3301196318	 0.2919
H	 0.7109134708	-0.7751407606	 0.1545902245	 0.084014
H	 0.0961045055	 0.2903916787	 1.4144879438	 0.117283
H	-2.2221225731	-0.0633875726	 0.740186905	 0.1048
H	-2.8440372186	-0.913871646	-1.5214800703	 0.104072
H	-1.0957340624	-1.6635709881	-2.8540431305	 0.301179
H	-2.5498182406	-2.5297016281	 0.4719441617	 0.13247
H	 0.0649235287	-2.8944930279	-0.8302038853	 0.250511
H	 0.4187312675	-4.69172885	 0.5113358482	 0.075036
33.3586	85.7684	141.2211	159.7682	216.5192	246.005	275.9838	327.5574	356.8865	456.7376	568.6977	582.379	598.697	635.3571	740.4612	774.7984	840.1332	901.2081	969.6822	1024.9809	1038.9289	1057.2587	1072.8102	1118.7932	1130.9055	1139.6009	1210.3422	1232.4566	1253.1681	1275.3163	1347.9555	1351.0708	1402.3378	1429.8733	1434.3167	1455.7504	1507.5342	1531.3799	1805.1539	2938.0859	3017.7665	3082.9641	3126.9572	3157.8195	3193.5924	3623.8023	3801.3507	3812.7354
OCC1C(O)C1NC=O	OC[C@H]1[C@@H](O)[C@H]1NC=O	
InChI=1S/C5H9NO3/c7-1-3-4(5(3)9)6-2-8/h2-5,7,9H,1H2,(H,6,8)	InChI=1S/C5H9NO3/c7-1-3-4(5(3)9)6-2-8/h2-5,7,9H,1H2,(H,6,8)/t3-,4+,5-/m1/s1
