22
gdb 59965	2.39303	1.11675	0.90883	3.9867	79.71	-0.2345	0.0301	0.2646	1408.2983	0.190276	-441.521947	-441.510389	-441.509445	-441.559555	40.733	
C	 0.2579103494	 1.4351292442	-0.8735595323	-0.395106
C	 0.0850914556	 0.1374030929	-0.0794035675	 0.151514
C	-1.3838474476	-0.2031093455	 0.1483477805	-0.388047
O	 0.6463709686	-1.0001147698	-0.7338481126	-0.245802
C	 2.04737092	-1.0622020551	-0.8140253127	 0.031486
C	 2.4287769694	-2.5394589974	-0.9411347268	-0.392257
C	 2.5915865578	-0.3084306074	-2.0494194951	 0.386289
N	 3.8012274795	 0.2987005276	-1.8526337008	-0.522844
O	 2.012927273	-0.2919550374	-3.1145930212	-0.360028
H	 1.3078827462	 1.731031481	-0.9504856933	 0.113999
H	-0.135639359	 1.3147004019	-1.886227939	 0.142484
H	-0.2783949214	 2.2496242964	-0.3756395555	 0.105378
H	 0.5819287464	 0.2527335303	 0.9004318616	 0.058473
H	-1.8971863207	-0.3223916997	-0.8107470885	 0.129064
H	-1.4761905291	-1.1394726325	 0.7046818778	 0.118294
H	-1.8811537389	 0.5915207934	 0.7120999172	 0.109986
H	 2.4977185926	-0.6394343154	 0.1012116323	 0.055193
H	 2.0624807917	-3.093999669	-0.0738834246	 0.122359
H	 1.9707322862	-2.9513652942	-1.8438485114	 0.149915
H	 3.513880616	-2.6615235564	-1.0110001294	 0.111172
H	 4.2887387016	 0.2607515926	-0.9749849813	 0.257553
H	 4.2622802428	 0.7175335494	-2.6441152874	 0.260925
33.5191	54.3277	96.1842	113.5389	180.2164	211.5943	219.2306	227.8823	249.494	291.6675	324.8395	339.6741	444.558	492.1164	511.3138	580.5068	647.2786	765.4279	776.6138	817.9471	899.456	926.998	945.1439	981.704	1052.5427	1090.3175	1113.3427	1141.697	1170.3345	1182.3923	1206.1797	1272.6182	1331.8087	1365.9762	1375.5958	1394.1764	1399.6984	1413.9508	1423.3533	1478.7445	1481.1372	1483.3453	1495.734	1497.9588	1510.7117	1613.6913	1810.8765	2938.8658	2945.9284	3039.2343	3044.8288	3046.436	3107.1479	3117.2944	3122.2923	3123.1985	3129.4932	3135.4283	3598.4225	3735.675
CC(C)OC(C)C(N)=O	CC(C)O[C@@H](C)C(=O)N	
InChI=1S/C6H13NO2/c1-4(2)9-5(3)6(7)8/h4-5H,1-3H3,(H2,7,8)	InChI=1S/C6H13NO2/c1-4(2)9-5(3)6(7)8/h4-5H,1-3H3,(H2,7,8)/t5-/m0/s1
