17
gdb 108440	2.31092	1.73871	1.23016	3.9651	67.99	-0.2587	-0.0089	0.2498	1052.0515	0.135235	-458.964725	-458.956514	-458.95557	-458.997772	30.181	
C	 0.0019909067	 1.555162995	-0.0685406002	-0.390293
C	-0.086723136	 0.0219600094	-0.0843531051	-0.290823
C	 0.7369056361	-0.563611256	-1.1972655825	 0.264652
O	 0.2931404676	-0.2022570807	-2.5327348611	-0.321546
C	 0.3819317202	-1.5762402148	-2.9909517594	-0.105368
C	 0.9517284118	-2.027500612	-1.6459006279	-0.008977
O	 2.3964808852	-1.8537561998	-1.57332853	-0.262679
C	 2.2833401428	-0.543678671	-1.1396241622	 0.439744
O	 3.1605294125	 0.2081998499	-0.8685197059	-0.322167
H	 1.0345749078	 1.8826424852	 0.0790300502	 0.14969
H	-0.3542094287	 1.9686394587	-1.0158072309	 0.141182
H	-0.610831395	 1.9664937711	 0.737830512	 0.116932
H	 0.2673266459	-0.3912831972	 0.8679630796	 0.114932
H	-1.1266698911	-0.2997607776	-0.2124413673	 0.110622
H	-0.6118257434	-1.9774820324	-3.2195761818	 0.119657
H	 1.0479555525	-1.6980298394	-3.8502777511	 0.129814
H	 0.6219894249	-2.9341419386	-1.1449178565	 0.114628
84.4511	131.5575	161.0337	202.2441	245.8663	301.3894	329.1872	423.1333	507.98	674.3005	693.1131	753.6602	782.2376	846.7747	881.5461	930.6299	948.0885	981.5952	1000.8952	1006.7328	1066.7429	1092.3454	1135.9141	1155.451	1173.6929	1178.884	1278.8219	1309.3897	1325.5406	1343.0896	1384.5552	1410.3431	1475.5371	1497.5152	1501.6173	1511.7259	1935.4012	3031.8675	3037.641	3050.093	3071.6073	3098.9226	3124.227	3130.0508	3153.9944
CCC12OCC1OC2=O	CC[C@]12OC[C@H]1OC2=O	
InChI=1S/C6H8O3/c1-2-6-4(3-8-6)9-5(6)7/h4H,2-3H2,1H3	InChI=1S/C6H8O3/c1-2-6-4(3-8-6)9-5(6)7/h4H,2-3H2,1H3/t4-,6+/m1/s1
