15
gdb 37908	3.31872	2.25418	2.0865	3.0304	68.12	-0.2334	-0.043	0.1905	736.4197	0.115505	-416.687162	-416.681791	-416.680847	-416.716576	23.038	
C	 0.0439157041	 1.5588270873	 0.1056862699	-0.17739
N	 1.519915237	 1.8029926601	 0.0968453828	-0.195439
C	 2.0007101044	 0.7223544777	-0.3705870084	 0.119318
C	 2.7135630016	-0.3771156976	 0.4893381065	 0.029373
O	 1.9145840336	-0.3353585253	 1.7045807072	-0.26408
C	 0.7776830323	-0.9347637636	 1.035865813	 0.062969
C	-0.0133122255	 0.0132779273	 0.0068777491	-0.048073
N	 1.097173465	-0.23945129	-0.9756663769	-0.124673
C	 1.6897401493	-1.3443208004	-0.1524365921	-0.043603
H	-0.3621085789	 1.9684958993	 1.0352398857	 0.125006
H	-0.4923891091	 2.0185463763	-0.7362894414	 0.119589
H	 3.7805932561	-0.4735336312	 0.6735536748	 0.109712
H	 0.2117511587	-1.5797216149	 1.7081044545	 0.100004
H	-0.9823433034	-0.4081197463	-0.276967273	 0.088314
H	 1.8630397546	-2.3280608185	-0.5796099917	 0.098973
248.7789	367.5079	455.5757	521.5791	622.4044	705.1093	738.9349	755.5486	792.5638	821.5518	838.6369	868.9479	904.961	926.8665	955.2437	965.592	981.2309	1018.4789	1034.6672	1046.3773	1078.4615	1155.8563	1164.58	1192.7356	1200.7319	1213.5903	1241.7717	1253.5865	1284.0877	1308.5302	1316.0447	1476.1265	1640.7404	3012.0249	3076.3245	3085.4102	3117.1394	3150.4233	3162.2823
C1N=C2C3OC4C1N2C34	C1[N][C]2[C@H]3O[C@H]4[C@@H]1N2[C@@H]34	
InChI=1S/C6H6N2O/c1-2-4-3-5(9-4)6(7-1)8(2)3/h2-5H,1H2	InChI=1S/C6H6N2O/c1-2-4-3-5(9-4)6(7-1)8(2)3/h2-5H,1H2/t2-,3-,4+,5+/m1/s1
