16
gdb 29202	3.10791	1.37563	0.9597	6.5855	76.99	-0.2136	-0.0305	0.1831	1170.0946	0.124966	-437.958845	-437.950693	-437.949748	-437.991207	31.42	
C	-0.0080121262	 1.5348624652	-0.0046545046	-0.519877
C	 0.000456724	 0.0313585579	 0.0119147765	 0.141096
C	-0.0538123149	-0.6893650387	-1.1276198494	 0.029759
O	-0.0408648109	-2.0219484751	-1.1983187173	-0.229822
C	 0.0348891132	-2.8285041571	-0.0258217618	 0.42524
O	 0.038790833	-4.0197077573	-0.1924740234	-0.362617
C	 0.0902764887	-2.0932939849	 1.1996042827	-0.378107
C	 0.07939957	-0.7224291987	 1.246592244	 0.318282
N	 0.1881402849	-0.0339118959	 2.4269766589	-0.580319
H	 0.8880904931	 1.9518604308	 0.4705244841	 0.138896
H	-0.0426026432	 1.9091820057	-1.030829743	 0.136101
H	-0.8801902427	 1.9497964487	 0.5183806995	 0.127664
H	-0.1133623218	-0.2320633545	-2.1104953948	 0.129921
H	 0.1457242219	-2.6879204409	 2.1035822875	 0.100482
H	 0.049248415	-0.5487488266	 3.2816248096	 0.263117
H	-0.124568494	 0.9218862113	 2.4546666116	 0.260183
109.1953	187.9721	212.8878	291.7973	299.5799	358.7997	384.1542	420.6904	433.0405	482.1791	549.7794	570.2336	717.2617	728.1973	731.6325	744.9169	831.8349	839.0423	912.0324	1022.1895	1068.1912	1087.5869	1145.3746	1221.0468	1266.1286	1308.4993	1361.7717	1419.0975	1480.6932	1482.6929	1508.8968	1586.1804	1654.7133	1707.4494	1843.2634	3011.6379	3061.9129	3114.7291	3183.8316	3200.4112	3600.3677	3711.7713
CC1=COC(=O)C=C1N	Cc1coc(=O)cc1N	
InChI=1S/C6H7NO2/c1-4-3-9-6(8)2-5(4)7/h2-3H,7H2,1H3	InChI=1S/C6H7NO2/c1-4-3-9-6(8)2-5(4)7/h2-3H,7H2,1H3
