22
gdb 101713	3.53427	0.82501	0.80047	4.5508	78.89	-0.2458	0.0591	0.305	1540.7752	0.194303	-441.459577	-441.44976	-441.448816	-441.494697	36.924	
C	 0.8974927218	 1.2756261678	-0.1581096317	-0.407189
C	 0.2142478458	-0.0454549995	 0.097629704	 0.012173
N	 1.080223586	-1.1655350592	 0.5068102999	-0.350879
C	 0.0690719077	-0.6361359399	 1.4597254816	-0.029827
C	 0.5661188172	 0.0349306636	 2.739619873	-0.241458
C	 1.9120754208	-0.5085369627	 3.2395627561	 0.107197
O	 2.9572297821	-0.2277816664	 2.3147974977	-0.456031
C	 2.3533647009	 0.1230940982	 4.5576753022	-0.04455
O	 3.6262340548	-0.3517044747	 4.9414721989	-0.431727
H	 1.7285124438	 1.4207180411	 0.5358908171	 0.145031
H	 1.2972203523	 1.3090165378	-1.176911509	 0.122238
H	 0.1932744889	 2.1070632764	-0.0448210287	 0.118984
H	-0.5810477694	-0.2902705025	-0.6048315724	 0.087491
H	 0.7743651715	-2.0456640278	 0.1044948633	 0.238159
H	-0.8041550046	-1.2698749579	 1.5969828799	 0.090791
H	 0.6670928088	 1.1157188529	 2.5933419379	 0.111333
H	-0.1915209636	-0.1075557871	 3.5191360263	 0.099865
H	 1.8307609003	-1.5974356645	 3.3934831982	 0.064856
H	 2.6888929451	-0.6611269224	 1.4844521771	 0.296603
H	 2.3504398297	 1.2207015252	 4.4422917125	 0.080041
H	 1.6506874845	-0.1337029073	 5.3579577261	 0.096264
H	 4.1525868057	-0.3328891212	 4.1315837101	 0.290635
51.7836	79.2751	138.1026	171.6757	211.8452	265.6952	294.2448	348.1346	378.2197	446.591	469.5203	483.1813	528.5728	592.6879	723.7514	774.8571	803.4599	868.196	901.777	906.4374	962.5685	998.4594	1028.46	1057.8924	1078.5906	1086.6969	1094.5556	1121.1415	1161.464	1177.6375	1216.7885	1246.1183	1264.5464	1280.8806	1291.1582	1340.6853	1374.4566	1385.3535	1395.361	1425.4983	1442.0603	1454.6763	1468.1707	1481.9174	1499.1143	1502.5654	1510.1075	2954.0707	2969.7441	3035.4806	3037.6312	3066.5488	3077.7479	3099.3626	3111.5991	3128.9759	3136.5773	3522.3097	3592.6143	3771.3983
CC1NC1CC(O)CO	C[C@H]1N[C@H]1C[C@@H](O)CO	
InChI=1S/C6H13NO2/c1-4-6(7-4)2-5(9)3-8/h4-9H,2-3H2,1H3	InChI=1S/C6H13NO2/c1-4-6(7-4)2-5(9)3-8/h4-9H,2-3H2,1H3/t4-,5-,6+/m1/s1
