16
gdb 68971	2.63933	1.66511	1.21185	4.5177	74.51	-0.2679	-0.0298	0.2381	1029.8766	0.123577	-400.757446	-400.749513	-400.748569	-400.789651	30.301	
C	-0.016946685	 1.5243308499	-0.0399496332	-0.483334
C	-0.0896130706	 0.0313965204	 0.1107428439	 0.317584
C	-1.3551771348	-0.7418440979	-0.2702640381	-0.33229
C	-1.3112415585	-1.9721586251	 0.6088927105	-0.074884
C	-0.2657753701	-1.9712605689	 1.4377373913	-0.148144
C	 0.5756870158	-0.7612007203	 1.185398711	 0.22329
O	 1.1103469274	-0.69939615	-0.160185428	-0.313429
C	 1.3996356139	-0.1812164025	 2.214631735	 0.227222
N	 2.0438440772	 0.2757184476	 3.0588836604	-0.342448
H	 0.9162980807	 1.9104240797	 0.3753689795	 0.152457
H	-0.0621166586	 1.7984286411	-1.0993657117	 0.137308
H	-0.8566822351	 2.005783122	 0.4704270269	 0.133234
H	-2.2566889862	-0.143371102	-0.089659157	 0.124189
H	-1.3484026709	-0.995715592	-1.3369930771	 0.137218
H	-2.0442377845	-2.7665288589	 0.5317355842	 0.117056
H	-0.0073142108	-2.7275024829	 2.1663956024	 0.12497
132.2042	148.9714	176.7935	223.826	311.7321	374.7837	398.6058	483.3036	530.3435	561.6738	600.1408	649.035	718.0567	748.0897	808.3648	897.7986	926.4161	941.5241	953.1381	973.6922	1046.8154	1085.6021	1146.4094	1189.9079	1203.6622	1220.1226	1314.1907	1363.4235	1404.238	1426.1603	1456.6425	1482.963	1493.2731	1662.8007	2358.9618	3033.6752	3042.8955	3070.1629	3107.459	3136.0027	3203.7378	3236.3748
CC12CC=CC1(O2)C#N	C[C@]12CC=C[C@]1(O2)C#N	
InChI=1S/C7H7NO/c1-6-3-2-4-7(6,5-8)9-6/h2,4H,3H2,1H3	InChI=1S/C7H7NO/c1-6-3-2-4-7(6,5-8)9-6/h2,4H,3H2,1H3/t6-,7-/m0/s1
