19
gdb 38754	2.36143	2.30969	1.79941	1.8485	72.51	-0.229	0.0664	0.2954	867.4335	0.163583	-423.022316	-423.01601	-423.015066	-423.052717	26.861	
C	-0.0106015258	 1.5906571421	-0.150189922	-0.271747
C	 1.5375596172	 1.5846972394	-0.0356828164	-0.061588
C	 2.0629265439	 1.7591420666	 1.3993751931	-0.233214
C	 1.8798453183	 0.3504966139	 2.00806472	 0.04129
C	 0.4307638278	 0.0367812372	 2.4359794619	-0.078749
O	-0.3807155161	-0.4112808469	 1.3551724962	-0.255904
C	-0.0259445847	 0.0502145606	 0.0711030748	 0.085724
C	 1.5252882289	 0.0216394686	-0.1626022975	 0.093898
O	 2.2256626672	-0.5275768285	 0.9340002045	-0.245874
H	-0.5628720854	 2.1918454542	 0.577493259	 0.101639
H	-0.3590644736	 1.8548374539	-1.1523366345	 0.103175
H	 2.0926680045	 2.1691070408	-0.7698456093	 0.069969
H	 3.1281379664	 2.0059550376	 1.3860341816	 0.107499
H	 1.5385222744	 2.5362806453	 1.9630612593	 0.100285
H	 2.5626293711	 0.1591064737	 2.8394300641	 0.0839
H	 0.4260587043	-0.782798786	 3.1613688581	 0.112037
H	-0.017818079	 0.9173722248	 2.9232608175	 0.086862
H	-0.6413470188	-0.5262510892	-0.6227081274	 0.083327
H	 1.8736503192	-0.4456197183	-1.0838718328	 0.07747
146.5304	295.2977	360.2841	407.6033	446.483	537.5698	587.3323	647.3541	743.6423	808.1112	817.0196	836.2004	851.1235	881.6872	910.5162	943.4566	951.1488	975.2644	1001.0186	1048.4393	1061.3196	1085.0689	1105.2409	1129.9322	1145.8771	1187.2255	1210.4374	1238.8444	1240.1342	1253.7523	1273.8869	1295.9309	1302.1374	1332.0742	1354.6579	1370.7505	1378.6481	1416.4174	1471.9652	1486.4368	1512.9445	2974.4943	3054.9607	3055.1994	3067.5989	3084.7926	3087.7938	3097.7962	3104.5434	3109.7428	3118.1182
C1C2CC3COC1C2O3	C1[C@H]2C[C@H]3CO[C@@H]1[C@@H]2O3	
InChI=1S/C7H10O2/c1-4-2-6-7(4)9-5(1)3-8-6/h4-7H,1-3H2	InChI=1S/C7H10O2/c1-4-2-6-7(4)9-5(1)3-8-6/h4-7H,1-3H2/t4-,5+,6+,7-/m1/s1
