19
gdb 9291	3.06739	1.28035	1.09299	3.9289	70.46	-0.2536	0.0334	0.287	1171.3474	0.163234	-402.185892	-402.176225	-402.175281	-402.221145	33.232	
C	 0.3837750821	 0.8096495047	-0.2376231167	-0.236149
O	-0.0277468014	-0.4780881077	 0.1619725284	-0.252509
C	-1.4164368174	-0.7438061516	 0.0263266837	 0.137172
C	-1.8769736735	-0.8166462765	-1.4312627777	-0.4058
C	-1.6665912631	-2.0499475883	 0.7805758449	-0.101769
O	-1.1108355528	-3.1806604944	 0.1189255811	-0.186123
C	 0.1833953733	-3.4709453383	 0.3757969123	 0.139569
N	 0.7560787622	-4.3887345215	-0.2740139055	-0.448923
H	 1.4308126016	 0.9154715158	 0.0567834958	 0.13005
H	 0.3114957536	 0.959690172	-1.323300788	 0.115483
H	-0.2052635186	 1.5949061242	 0.2617990373	 0.104031
H	-1.9882764472	 0.0426312956	 0.5516703086	 0.06554
H	-2.9467927667	-1.0440626625	-1.4757822508	 0.118686
H	-1.7201006342	 0.1338987692	-1.9469004473	 0.116497
H	-1.335117294	-1.6027203753	-1.9616909279	 0.152544
H	-1.2637057522	-1.9619616264	 1.7972925272	 0.111298
H	-2.7414650961	-2.2394037022	 0.8460251234	 0.118408
H	 0.6195555557	-2.855084097	 1.1705047494	 0.096555
H	 1.7114840988	-4.4988571698	 0.0595245918	 0.225439
60.3779	68.323	87.0255	149.0773	188.3356	220.4559	253.535	287.3789	342.0529	401.5472	452.5396	583.3887	687.0446	800.056	819.7835	911.3032	918.9269	976.8783	1038.2788	1050.6659	1113.3337	1136.6017	1147.0443	1178.7239	1181.8795	1224.2285	1261.4719	1338.4164	1366.3659	1378.5066	1395.3533	1411.4961	1424.7042	1477.1119	1482.1362	1488.6927	1493.8392	1505.9158	1513.0845	1743.1971	2942.3651	2980.9819	3030.5295	3039.438	3051.2565	3058.4812	3101.7471	3113.4487	3117.4278	3140.5385	3516.0104
COC(C)COC=N	CO[C@@H](C)CO[CH][NH]	
InChI=1S/C5H11NO2/c1-5(7-2)3-8-4-6/h4-6H,3H2,1-2H3	InChI=1S/C5H11NO2/c1-5(7-2)3-8-4-6/h4-6H,3H2,1-2H3/t5-/m0/s1
