21
gdb 31530	3.10142	1.05918	0.8409	1.2497	89.4	-0.1724	0.0553	0.2277	1452.4794	0.182201	-383.310373	-383.299946	-383.299002	-383.346594	37.115	
C	-0.7462948742	 0.767426439	 0.1078789085	-0.323488
N	 0.6149348461	 0.2167902292	 0.1427320507	-0.387408
C	 1.0415405702	-0.4263449278	-1.0346994187	 0.298225
C	 1.8410639942	-0.0319998954	-2.0814274064	-0.3166
C	 1.9676230301	-1.1402875185	-2.9801268814	 0.223092
C	 2.7509720474	-1.1378067913	-4.2589302773	-0.506378
C	 1.2252704949	-2.1785747993	-2.4556415572	 0.209184
C	 0.9663802073	-3.5659112418	-2.9436575171	-0.50828
N	 0.6673755351	-1.72744674	-1.2736497588	-0.322423
H	-0.900797499	 1.5121570702	-0.6882419323	 0.108973
H	-1.4635970545	-0.0431628727	-0.0495799175	 0.123039
H	-0.9709391558	 1.2297481299	 1.0736758873	 0.116509
H	 1.2757271922	 0.9434739741	 0.3876929789	 0.231715
H	 2.2819755112	 0.9467586845	-2.2042940403	 0.074884
H	 3.8078616227	-0.9020671609	-4.0843488138	 0.119659
H	 2.7138429689	-2.108306589	-4.7618978026	 0.113727
H	 2.3726551533	-0.3905149119	-4.9674874283	 0.119309
H	 1.2804134029	-4.327247106	-2.2172665184	 0.119785
H	-0.0967261277	-3.7406719726	-3.1559247175	 0.121912
H	 1.5171110362	-3.7543383867	-3.8675928938	 0.13416
H	 0.1658953584	-2.2928276831	-0.6102839442	 0.250406
44.8335	61.5103	106.733	121.7883	173.031	215.0572	250.6958	275.0747	295.0814	383.662	464.9157	482.3833	580.2225	627.2608	652.7858	690.0449	748.3602	775.0237	797.8895	985.729	993.0031	1005.8836	1054.9116	1064.0394	1066.782	1140.5976	1157.6628	1165.351	1188.7079	1244.3053	1327.2967	1397.8628	1413.6979	1425.6545	1450.2987	1468.2042	1478.5281	1483.288	1487.6727	1492.1286	1497.9426	1506.4636	1516.4222	1576.807	1652.3097	2982.3128	3007.0773	3018.2329	3046.0397	3061.2742	3074.492	3101.5981	3111.9558	3123.473	3231.0649	3559.2027	3672.2586
CNC1=CC(C)=C(C)N1	CNc1cc(C)c(C)[nH]1	
InChI=1S/C7H12N2/c1-5-4-7(8-3)9-6(5)2/h4,8-9H,1-3H3	InChI=1S/C7H12N2/c1-5-4-7(8-3)9-6(5)2/h4,8-9H,1-3H3
