23
gdb 114700	3.46233	1.10405	1.0445	1.1151	86.09	-0.2442	0.0826	0.3268	1302.5977	0.206099	-388.290918	-388.281763	-388.280819	-388.324368	35.639	
C	 0.2606845305	 0.6368098862	 0.7394662164	-0.236643
O	 0.1038863614	-0.4910478061	-0.0875738716	-0.236838
C	 0.6001342601	-0.3201804723	-1.4124086904	 0.098179
C	 2.142891446	-0.4664155943	-1.5066496597	-0.241948
C	 2.3932499806	-1.9336917934	-1.8147015606	-0.067784
C	 1.6730124714	-2.9580768322	-0.9658190028	-0.332546
C	 1.1030582031	-2.5582452464	-2.307810192	 0.363926
C	 1.0591821251	-3.5613205314	-3.4354498992	-0.483401
C	 0.038715835	-1.464306757	-2.2811661518	-0.284947
H	 1.3158961912	 0.8867621851	 0.9251133154	 0.105262
H	-0.228948897	 1.5242890387	 0.3073709169	 0.102113
H	-0.2129570223	 0.40384287	 1.6966057186	 0.125677
H	 0.2707726425	 0.6632893441	-1.7791518608	 0.061566
H	 2.5201978202	 0.1561032873	-2.3273231066	 0.095119
H	 2.6342946212	-0.1203257628	-0.5910596249	 0.100314
H	 3.3452219265	-2.2114955894	-2.2559761655	 0.072583
H	 2.1230959775	-3.943959458	-0.9031849855	 0.097371
H	 1.1759163462	-2.626150749	-0.0619204982	 0.128428
H	 1.9206524741	-4.2360250633	-3.3994493521	 0.111494
H	 0.155087352	-4.1802973493	-3.3859506142	 0.11492
H	 1.0646184047	-3.0642386672	-4.4134203541	 0.108518
H	-0.9272000765	-1.7944347887	-1.8862381127	 0.107168
H	-0.1281558236	-1.1009424006	-3.3029005845	 0.091469
98.6098	130.9	166.3604	217.0333	230.7023	290.9269	312.2135	364.2637	381.7973	413.5502	458.071	586.2549	683.6256	763.658	803.4353	824.3963	872.4874	884.0808	936.7422	943.6112	955.4385	1001.2352	1044.2418	1067.4384	1077.2671	1088.5463	1098.9137	1123.7554	1142.4115	1182.2597	1194.9284	1207.2727	1236.6821	1264.1465	1282.4155	1311.666	1327.9063	1352.1974	1390.2765	1411.9254	1424.3812	1472.5103	1475.7358	1479.0994	1490.2988	1491.0777	1494.5737	1505.9251	1511.361	2971.313	2985.7243	3016.4858	3019.8564	3028.4019	3035.7989	3072.5148	3073.3849	3083.6455	3094.2014	3110.0156	3129.0269	3155.3956	3222.6479
COC1CC2CC2(C)C1	CO[C@H]1C[C@H]2C[C@@]2(C)C1	
InChI=1S/C8H14O/c1-8-4-6(8)3-7(5-8)9-2/h6-7H,3-5H2,1-2H3	InChI=1S/C8H14O/c1-8-4-6(8)3-7(5-8)9-2/h6-7H,3-5H2,1-2H3/t6-,7-,8-/m0/s1
