23
gdb 110354	2.9234	1.05993	0.93579	1.5656	85.86	-0.2418	0.0707	0.3125	1399.1966	0.20505	-388.263222	-388.253464	-388.25252	-388.297688	37.273	
C	 0.0068380236	 1.3793628337	 0.3710850351	-0.372743
C	-0.041572427	-0.0271595789	-0.2378412324	-0.209279
C	-1.406616415	-0.6733656164	-0.0868064362	-0.001509
C	-1.7088164671	-2.1447702215	-0.1378971976	-0.097324
C	-1.9215584498	-1.3496896273	 1.1605266259	-0.128186
C	-0.8298638095	-2.1712022182	 1.8641786771	 0.136092
O	-1.2631283084	-2.8972647321	 2.9929795579	-0.432865
C	-0.6144393068	-2.9955716057	 0.5369487445	-0.029855
C	-0.9492455591	-4.4791357331	 0.6419610864	-0.408203
H	 0.9915584986	 1.837845248	 0.237121019	 0.110278
H	-0.7336745062	 2.0379767111	-0.0964796518	 0.112301
H	-0.2095013802	 1.350601981	 1.4441425716	 0.121506
H	 0.2075162899	 0.0259507037	-1.3056625356	 0.095019
H	 0.735041274	-0.6476959565	 0.2206544661	 0.102817
H	-2.193060749	-0.0891221078	-0.5655487384	 0.08217
H	-2.4523210232	-2.5459961951	-0.8193026694	 0.07686
H	-2.8414134958	-1.0387186324	 1.645356339	 0.079962
H	 0.0437707577	-1.6109001171	 2.2121998095	 0.080745
H	-2.0997652954	-3.3210691506	 2.7740694523	 0.277853
H	 0.3843119779	-2.8884112302	 0.097621126	 0.065491
H	-1.9709004046	-4.647524253	 1.0018824574	 0.097643
H	-0.8755305539	-4.9543909474	-0.3418267485	 0.114498
H	-0.2658753207	-4.9931721842	 1.323570012	 0.126729
65.0159	107.5012	170.612	195.654	224.3589	254.3071	270.4887	305.6327	317.3909	373.5542	471.6579	561.5593	572.9893	720.2366	760.9982	791.258	810.4416	824.4271	890.9802	936.5503	952.266	984.8055	1019.6246	1023.4134	1045.7869	1066.1983	1076.6319	1105.2828	1115.3173	1139.594	1152.1553	1213.5968	1233.3315	1242.2476	1288.0977	1295.696	1301.321	1326.713	1355.3997	1366.3744	1411.3314	1412.3268	1437.679	1450.8723	1489.1368	1490.8894	1498.7314	1505.9069	1508.4538	3023.5182	3026.2135	3029.6173	3031.1553	3055.2825	3069.0958	3089.4317	3097.9822	3104.6247	3107.7853	3113.1051	3152.1625	3164.8983	3806.7577
CCC1C2C1C(O)C2C	CC[C@H]1[C@@H]2[C@H]1[C@@H](O)[C@H]2C	
InChI=1S/C8H14O/c1-3-5-6-4(2)8(9)7(5)6/h4-9H,3H2,1-2H3	InChI=1S/C8H14O/c1-3-5-6-4(2)8(9)7(5)6/h4-9H,3H2,1-2H3/t4-,5-,6+,7-,8-/m0/s1
