15
gdb 27137	3.10937	1.3276	0.93037	2.5047	73.56	-0.1779	0.0068	0.1847	1169.7643	0.113457	-454.000956	-453.992416	-453.991472	-454.035541	30.63	
O	 0.0887878541	 1.4010825311	-0.0979158157	-0.468123
C	 0.0692900696	 0.0347224277	 0.0158492508	 0.205577
C	 0.0343600272	-0.7976567379	-1.0818676711	 0.356144
N	 0.0175302906	-0.4547539573	-2.4360546089	-0.39716
C	-0.0171890542	-1.3303320333	-3.4717134647	 0.142731
O	-0.0396888933	-2.5462264642	-3.3591918392	-0.350489
N	 0.0166070212	-2.0939194004	-0.6344615424	-0.295112
C	 0.0415002947	-2.0988829807	 0.7327803272	-0.079455
C	 0.0737244986	-0.7902521855	 1.1714951284	-0.280349
H	 0.1558662939	 1.7825707522	 0.7813521269	 0.299864
H	 0.0349511079	 0.534025222	-2.6346246065	 0.273331
H	-0.0232611334	-0.8161408329	-4.4488244586	 0.089842
H	-0.0089077287	-2.8694045675	-1.2793006619	 0.287529
H	 0.0336586822	-3.0238976272	 1.2843261472	 0.123135
H	 0.0969667797	-0.4616198961	 2.1994486285	 0.092535
23.2963	77.941	173.9276	190.9044	257.8659	300.0847	389.2046	457.8524	554.1	569.1012	614.5619	642.4015	677.3266	700.8565	709.4764	781.4332	878.7419	923.3827	993.7741	1061.6708	1084.4839	1145.9608	1168.0044	1258.0077	1293.857	1369.2111	1422.6776	1439.5282	1470.5072	1544.7369	1549.5649	1691.0472	1768.1743	2979.9469	3243.2111	3280.0548	3627.8774	3632.7648	3854.3781
OC1=C(NC=O)NC=C1	Oc1c(NC=O)[nH]cc1	
InChI=1S/C5H6N2O2/c8-3-7-5-4(9)1-2-6-5/h1-3,6,9H,(H,7,8)	InChI=1S/C5H6N2O2/c8-3-7-5-4(9)1-2-6-5/h1-3,6,9H,(H,7,8)
