16
gdb 125808	2.43162	1.77637	1.03562	3.5135	78.02	-0.2143	-0.0431	0.1712	1102.8692	0.124967	-434.047648	-434.039476	-434.038532	-434.080121	31.297	
C	 0.0799904738	 1.4617795558	 0.066010019	-0.451297
C	-0.0268377918	-0.0333540536	 0.0190165756	 0.334022
N	-0.0735252774	-0.5566538771	-1.1620660094	-0.144669
O	-0.1678107206	-1.9356382286	-1.2594609136	-0.242097
C	-0.2708345658	-2.690775967	-0.1442853841	 0.020176
C	-0.2025204375	-2.2152136199	 1.1162648789	 0.153999
N	-0.2280926417	-3.0246472755	 2.2590510448	-0.595916
C	-0.0364455731	-0.7794421354	 1.2879249923	 0.19053
N	 0.0963394751	-0.1327822283	 2.3940956533	-0.540594
H	 0.9882829134	 1.7531891973	 0.6011679542	 0.151799
H	 0.0908095488	 1.8702069451	-0.9449363554	 0.136159
H	-0.758116886	 1.8797266628	 0.631595908	 0.146523
H	-0.3973225656	-3.7366533076	-0.4023157946	 0.128574
H	-0.4454102686	-3.9936901971	 2.0640871365	 0.248508
H	-0.8596596051	-2.6715326598	 2.9699543897	 0.25072
H	 0.1397670319	-0.7774095014	 3.1852916049	 0.213564
90.0769	172.7208	260.4543	274.928	296.9338	324.6576	337.1392	441.1351	465.6608	513.5901	523.1376	574.7615	673.4533	738.1773	779.32	854.4846	865.9333	889.5009	909.0807	973.1466	1046.1546	1059.9203	1123.3105	1203.2581	1237.7191	1322.4752	1372.57	1408.1268	1463.4646	1466.5098	1476.1083	1622.0692	1635.4713	1656.0951	1699.5284	3053.3223	3112.749	3156.0142	3194.8069	3458.8337	3513.8505	3613.7398
CC1=NOC=C(N)C1=N	CC1=NO[CH]C(=C1[NH])N	
InChI=1S/C5H7N3O/c1-3-5(7)4(6)2-9-8-3/h2,7H,6H2,1H3	InChI=1S/C5H7N3O/c1-3-5(7)4(6)2-9-8-3/h2,7H,6H2,1H3
