19
gdb 122279	2.71275	0.84942	0.71932	3.0637	73.11	-0.2585	-0.0377	0.2208	1585.5192	0.156097	-460.143359	-460.133306	-460.132361	-460.179488	35.056	
O	 0.0130448977	 1.3218564798	 0.3288755748	-0.420397
C	-0.0032693473	-0.0169113656	-0.1395051058	-0.075822
C	-1.3934522079	-0.582897074	 0.1170038556	-0.171469
C	-1.5187386002	-2.0443119905	-0.3341758257	-0.297818
C	-2.8884181488	-2.6197834095	-0.0606680925	 0.309526
C	-3.0708758101	-3.9726731641	 0.5165496574	-0.223586
O	-3.2598172975	-2.8196819232	 1.3168749162	-0.261597
C	-4.0374196341	-2.1269295653	-0.8905062787	 0.127137
O	-3.9187607113	-1.5029143859	-1.9135554138	-0.255513
H	 0.8815304589	 1.6934811218	 0.1498335283	 0.285773
H	 0.2245437025	-0.0669094372	-1.2171833173	 0.087162
H	 0.7513663491	-0.6311812937	 0.3804539709	 0.08146
H	-1.613887387	-0.5074982646	 1.1873464152	 0.120888
H	-2.1252017175	 0.0369009218	-0.4107508326	 0.127229
H	-1.3318301134	-2.1221808641	-1.4115020135	 0.122755
H	-0.768644434	-2.6595509241	 0.1750182207	 0.10224
H	-3.97010515	-4.5492308903	 0.3005391338	 0.123445
H	-2.1774987409	-4.5597975334	 0.7242056875	 0.128891
H	-5.0302253283	-2.3984942879	-0.4671686104	 0.089697
50.1334	77.6328	114.0817	123.9182	144.4195	221.2789	257.1154	293.7593	326.8123	374.8123	422.4072	516.3711	546.7791	749.265	793.3986	849.5215	875.6323	886.6018	958.2049	1018.5779	1044.1636	1054.9738	1087.2484	1102.6063	1136.6348	1163.3411	1210.7054	1234.4247	1280.4765	1299.7103	1316.5534	1334.7326	1348.9193	1386.8385	1430.866	1464.9254	1468.1786	1500.9356	1521.7642	1528.9981	1826.0949	2892.0478	2953.6736	2979.9563	3035.4265	3052.6658	3075.7857	3080.2417	3104.1939	3169.7821	3831.2678
OCCCC1(CO1)C=O	OCCC[C@]1(CO1)C=O	
InChI=1S/C6H10O3/c7-3-1-2-6(4-8)5-9-6/h4,7H,1-3,5H2	InChI=1S/C6H10O3/c7-3-1-2-6(4-8)5-9-6/h4,7H,1-3,5H2/t6-/m1/s1
