19
gdb 26125	2.48663	1.46491	0.95564	2.3827	77.98	-0.2105	0.0281	0.2387	1225.3025	0.15972	-419.253843	-419.244578	-419.243633	-419.28845	34.122	
C	 0.4266669635	 1.1421104368	-0.5203875625	-0.403979
C	 0.037011248	-0.0923561198	 0.2895652462	 0.000488
O	 0.239145523	 0.1216204108	 1.6943831562	-0.43267
C	-1.3701695587	-0.5695373063	 0.0448162413	 0.215568
C	-2.270037623	-0.5363383058	-1.0017927886	 0.177375
C	-2.1555665781	 0.0770356287	-2.3656784609	-0.502605
N	-3.4210587902	-1.2157984736	-0.6526910383	-0.305637
C	-3.2262475335	-1.6520093386	 0.5710677996	-0.001273
N	-2.0019684847	-1.2961801012	 1.0352111618	-0.281412
H	 1.4400757682	 1.4483002435	-0.248450885	 0.125172
H	 0.4001475834	 0.9402332126	-1.5939481591	 0.131843
H	-0.258727302	 1.9729296827	-0.3176508533	 0.11555
H	 0.7445637673	-0.900087955	 0.0565554657	 0.106493
H	-0.279019198	 0.8975498182	 1.9401140693	 0.279605
H	-1.2917415463	-0.3022651412	-2.9233612737	 0.120747
H	-3.0559152695	-0.1697719899	-2.9319463855	 0.140221
H	-2.0678233628	 1.1682420719	-2.3305411785	 0.122057
H	-3.9311712773	-2.2163864654	 1.1631770755	 0.126204
H	-1.5987566494	-1.4613937486	 1.9432766099	 0.266252
36.7237	91.243	166.9032	188.821	255.1852	272.4566	307.5361	341.8166	376.4036	478.0457	500.838	589.7635	636.7861	689.5367	710.9394	742.026	807.1846	893.7117	962.3513	980.4455	1023.4687	1060.7422	1062.7104	1090.7363	1128.8708	1177.3544	1238.2879	1277.6178	1289.928	1343.7973	1384.884	1402.2834	1410.5636	1417.5421	1462.5745	1482.9711	1485.4141	1494.7723	1499.6871	1515.4091	1605.9084	3009.5126	3030.8188	3038.2774	3080.477	3112.1461	3130.1169	3133.1342	3249.9436	3656.0234	3784.31
CC(O)C1=C(C)N=CN1	C[C@@H](O)c1c(C)nc[nH]1	
InChI=1S/C6H10N2O/c1-4-6(5(2)9)8-3-7-4/h3,5,9H,1-2H3,(H,7,8)	InChI=1S/C6H10N2O/c1-4-6(5(2)9)8-3-7-4/h3,5,9H,1-2H3,(H,7,8)/t5-/m1/s1
