20
gdb 44941	2.49569	1.75262	1.56086	3.0946	78.47	-0.2538	0.0326	0.2863	978.4884	0.175767	-403.195563	-403.188536	-403.187592	-403.226705	29.238	
N	-0.0548211805	 1.2826423964	-0.1287985594	-0.562406
C	-0.0293458115	 0.0226174962	-0.0591429947	 0.424118
O	 1.1122732778	-0.740458945	-0.0368700703	-0.257958
C	 0.7398847619	-2.1419746087	 0.0611200102	 0.098186
C	-0.6408839673	-2.1737958955	-0.6054690936	-0.235342
C	-1.2273264391	-0.9039714966	 0.032680664	-0.08962
C	-1.5528175846	-1.1922413211	 1.5188210682	-0.212717
C	-0.2858175544	-1.5824658372	 2.3092605619	-0.20259
C	 0.6378610339	-2.5487526248	 1.5373623042	-0.208445
H	 0.8956531032	 1.6576004435	-0.1605792523	 0.217914
H	 1.5092681398	-2.7091685819	-0.4665649333	 0.084737
H	-0.5513501577	-2.0761321234	-1.6914951726	 0.109394
H	-1.2055613467	-3.08101991	-0.3779142369	 0.102164
H	-2.0883588701	-0.4839111554	-0.4865819964	 0.094
H	-2.0143439573	-0.3120238306	 1.9764897748	 0.116465
H	-2.2935816169	-2.0006342192	 1.5534550913	 0.096294
H	 0.2792787846	-0.6706934236	 2.5296812698	 0.123972
H	-0.5596442871	-2.0144923584	 3.2767423247	 0.096291
H	 0.2574783821	-3.5770576508	 1.5794576659	 0.099249
H	 1.6323671198	-2.5589032737	 1.9950646446	 0.106296
132.1494	225.1498	258.974	349.6808	412.0345	444.5856	463.7501	558.3221	674.3096	700.4271	746.9668	808.6051	824.0349	850.4206	887.7732	893.3644	901.8226	922.6223	962.8457	1007.8767	1023.2439	1055.7978	1057.4583	1081.9903	1116.2837	1127.2856	1173.2219	1210.829	1258.4609	1268.6999	1297.7158	1307.2084	1330.1388	1346.4706	1359.7465	1380.1554	1385.5914	1399.634	1480.8059	1485.5286	1493.8623	1505.2371	1780.3491	3030.0317	3031.2844	3046.549	3057.5854	3075.3611	3081.7975	3092.473	3094.2429	3111.5992	3119.2327	3461.2066
N=C1OC2CC1CCC2	[NH][C]1O[C@@H]2C[C@H]1CCC2	
InChI=1S/C7H11NO/c8-7-5-2-1-3-6(4-5)9-7/h5-6,8H,1-4H2	InChI=1S/C7H11NO/c8-7-5-2-1-3-6(4-5)9-7/h5-6,8H,1-4H2/t5-,6+/m1/s1
