14
gdb 6057	5.08644	0.82534	0.80569	3.1424	70.95	-0.2715	-0.0717	0.1998	1427.5988	0.102822	-382.547171	-382.537788	-382.536844	-382.583167	30.368	
C	 0.3636508398	 1.2926356048	 0.0404730353	-0.482632
C	-0.5844186837	 0.1187852475	-0.0587323006	 0.253909
O	-1.3743565104	-0.1848105422	 0.8073382173	-0.264262
C	-0.4982787301	-0.6525030649	-1.2903593675	 0.033903
C	-0.4410337919	-1.2939984693	-2.3147749572	 0.03412
C	-0.3893962625	-2.0631259872	-3.5496292715	 0.253861
C	 0.4004359932	-3.3508271193	-3.4805012168	-0.482624
O	-0.9535747407	-1.6711460679	-4.5467749742	-0.264262
H	 1.3996275812	 0.950893205	-0.0589152288	 0.150915
H	 0.1775348757	 1.9945884143	-0.7795737245	 0.157134
H	 0.2237162764	 1.7915284957	 1.0003746608	 0.150958
H	 1.4331488232	-3.1450644499	-3.1787799822	 0.15086
H	-0.0294865405	-4.0132208381	-2.7213675034	 0.157172
H	 0.3846313501	-3.8385011884	-4.4561096566	 0.15095
31.1185	78.8551	82.1364	109.0272	113.6075	231.6687	250.475	323.9419	460.3933	560.8239	587.8215	602.9998	627.904	659.992	871.7527	967.9888	990.0148	1043.3373	1044.0892	1192.494	1244.9153	1382.7228	1383.8429	1458.6614	1459.284	1466.2411	1466.7414	1772.4863	1775.3788	2293.7372	3040.3102	3040.3333	3104.7377	3104.8312	3154.464	3154.5385
CC(=O)C#CC(C)=O	CC(=O)C#CC(=O)C	
InChI=1S/C6H6O2/c1-5(7)3-4-6(2)8/h1-2H3	InChI=1S/C6H6O2/c1-5(7)3-4-6(2)8/h1-2H3
