16
gdb 66995	2.57776	2.12959	1.42848	3.6003	67.95	-0.2614	-0.0076	0.2537	910.6311	0.125305	-437.880452	-437.873425	-437.87248	-437.911711	27.597	
C	 0.0294491368	 1.476162364	-0.0313921747	-0.480848
C	-0.0427590879	-0.022055416	 0.0295581584	 0.156379
C	 0.2407780155	-0.8449295922	 1.2242414776	-0.103678
C	-0.1944191753	-2.2222043131	 0.6678204463	 0.044636
C	 1.112695486	-2.1819492889	-0.1471255978	-0.174007
N	 1.2944241353	-0.7235466339	 0.1622394347	-0.179339
O	-1.289660403	-1.9828524195	-0.226986402	-0.228255
C	-1.1478594167	-0.7170952805	-0.7282256953	 0.418763
O	-1.8482547333	-0.2702860779	-1.5891330485	-0.342703
H	 0.8848699654	 1.8373350708	 0.5430524082	 0.134329
H	 0.1406393832	 1.8018465259	-1.0691721067	 0.148046
H	-0.8862524188	 1.9248241964	 0.3643388908	 0.134686
H	 0.3600784756	-0.4995396804	 2.2441278522	 0.111231
H	-0.4406547676	-3.0615958603	 1.3131007442	 0.108326
H	 1.9330350934	-2.7269638334	 0.3251986558	 0.126465
H	 1.0375931113	-2.4449512411	-1.2065714333	 0.125971
145.7811	168.8102	255.4581	279.1263	364.0937	453.322	484.5226	589.8405	653.2571	675.4699	743.0343	795.4558	819.108	880.9321	903.7562	918.2714	964.8228	1004.3018	1023.1759	1046.5068	1081.7406	1088.0506	1114.2698	1170.3061	1208.0317	1228.8362	1293.3497	1301.0229	1346.8127	1394.7418	1424.4788	1481.8989	1490.7409	1493.3952	1879.2196	3051.8145	3057.0781	3120.7713	3123.0344	3138.7994	3154.7739	3190.4083
CC12C3C(CN13)OC2=O	C[C@]12[C@H]3[C@H](CN13)OC2=O	
InChI=1S/C6H7NO2/c1-6-4-3(2-7(4)6)9-5(6)8/h3-4H,2H2,1H3	InChI=1S/C6H7NO2/c1-6-4-3(2-7(4)6)9-5(6)8/h3-4H,2H2,1H3/t3-,4+,6+,7?/m0/s1
