15
gdb 18067	4.6777	1.50534	1.39418	3.5416	62.74	-0.2477	0.0257	0.2734	909.4255	0.118827	-399.735822	-399.728736	-399.727792	-399.767751	25.747	
N	-0.2848175063	 1.1172733745	 0.0143454823	-0.443775
C	-0.5149061589	-0.0876672808	-0.2738394216	 0.141132
O	-0.8514183779	-0.955124545	 0.7128729594	-0.192894
C	-1.0034444516	-2.2982169266	 0.3478955036	 0.085699
C	-2.2713944231	-3.0204695698	 0.7011650639	-0.179375
C	-3.4499145142	-2.0886118945	 0.4291665166	-0.086381
O	-2.9934830761	-1.8332599344	-0.9312056017	-0.27897
C	-1.9166342578	-2.7432783401	-0.7573923215	 0.039031
H	-0.0621176607	 1.637492464	-0.8318105215	 0.229933
H	-0.4803982063	-0.5525798218	-1.2653609611	 0.098008
H	-0.0990348389	-2.8925265718	 0.4647203852	 0.11205
H	-2.2959920895	-3.9320961832	 1.2820244782	 0.11019
H	-4.4162005892	-2.6007943622	 0.4106310522	 0.118048
H	-3.507275481	-1.1733983569	 1.0251224238	 0.134381
H	-1.6369005684	-3.3718042813	-1.5958478979	 0.112924
66.6034	132.5616	171.2212	236.5865	326.8276	487.8354	542.0392	725.3095	752.4735	799.5815	821.7893	830.6976	923.5427	967.7169	973.4912	1011.8681	1041.3185	1042.7409	1060.0916	1068.3939	1095.2707	1132.9489	1171.812	1214.3448	1262.434	1282.9798	1316.3137	1351.9446	1407.6464	1432.3381	1507.4441	1746.5521	3051.9094	3061.0839	3109.7451	3129.293	3174.0361	3210.5262	3517.7232
N=COC1C2COC12	[NH][CH]O[C@H]1[C@H]2CO[C@@H]12	
InChI=1S/C5H7NO2/c6-2-8-5-3-1-7-4(3)5/h2-6H,1H2	InChI=1S/C5H7NO2/c6-2-8-5-3-1-7-4(3)5/h2-6H,1H2/t3-,4+,5-/m0/s1
