18
gdb 22624	2.46708	1.52593	1.19448	1.7226	76.05	-0.2391	0.0075	0.2466	1093.3672	0.147168	-439.012722	-439.004468	-439.003523	-439.045277	31.907	
C	-0.0770447018	 1.5298461048	 0.0248342126	-0.500567
C	-0.0498875687	 0.0240647615	-0.0156914256	 0.177958
C	 0.6884603648	-0.8288002336	-1.1207864345	-0.282439
C	-0.2163788848	-1.95756929	-0.5522912003	 0.002775
O	 0.2847357704	-2.1270145083	 0.7843816426	-0.280092
C	 0.4162346022	-0.7555032886	 1.2347002789	-0.102773
C	-1.2483474684	-0.848153582	-0.3848634391	 0.452417
N	-2.4601954891	-0.5767619769	-0.5992575236	-0.30648
O	-3.1684608282	-1.70338302	-1.0721176135	-0.393824
H	 0.9253507056	 1.9356066433	 0.1982461394	 0.120633
H	-0.4544442597	 1.9388555293	-0.9165473986	 0.131796
H	-0.7296269929	 1.8868525856	 0.8282418381	 0.131878
H	 0.4272539632	-0.5215947689	-2.1347944151	 0.117048
H	 1.7656111668	-0.9756285326	-1.0035123773	 0.107405
H	-0.3976177269	-2.9172627204	-1.0254190622	 0.105142
H	 1.4583966464	-0.5477407648	 1.5050220487	 0.102759
H	-0.2257467066	-0.5819782382	 2.1059395374	 0.110495
H	-4.0586706721	-1.3500846202	-1.1752003479	 0.30587
118.206	155.1226	193.2623	259.9933	262.6487	309.0054	352.8478	410.8818	463.1257	550.1423	599.8947	667.8254	709.5449	789.0866	846.0926	884.295	904.1302	916.5469	955.9817	978.2792	998.1309	1035.2857	1062.5092	1087.07	1135.5136	1180.5941	1205.3114	1215.973	1240.124	1263.3684	1305.1867	1373.0529	1411.7596	1418.3241	1478.8013	1488.7072	1492.8632	1524.9063	1809.4189	3022.36	3036.2311	3062.7756	3068.2104	3101.3514	3113.0593	3138.7806	3185.2228	3817.2678
CC12CC(OC1)C2=NO	C[C@@]12C[C@@H](OC1)C2=NO	
InChI=1S/C6H9NO2/c1-6-2-4(9-3-6)5(6)7-8/h4,8H,2-3H2,1H3	InChI=1S/C6H9NO2/c1-6-2-4(9-3-6)5(6)7-8/h4,8H,2-3H2,1H3/t4-,6-/m1/s1
