14
gdb 48356	3.15134	1.26901	0.98415	2.6404	70.19	-0.2642	-0.0727	0.1915	1140.1795	0.098234	-436.640328	-436.631589	-436.630645	-436.674407	30.838	
O	-0.5656682685	 1.2880237698	 1.4029226824	-0.280839
C	-0.2605911397	 1.8331741967	 0.3673591514	 0.100002
C	 1.1303677424	 1.7533148179	-0.1843491456	 0.101502
C	 2.2318056082	 2.0348331666	 0.8219381002	-0.246452
N	 1.9944304821	 0.6890554166	 0.3640681244	-0.32939
C	 1.316281732	 2.1585046955	-1.6173696327	 0.177914
O	 0.4568674274	 2.774408455	-2.2146018533	-0.298575
C	 2.5765949902	 1.8022831376	-2.2392150059	 0.280627
C	 3.6180115193	 1.5388215933	-2.7811985526	-0.405915
H	-0.9812129312	 2.4094226917	-0.2371189481	 0.129342
H	 3.1436594599	 2.5003337803	 0.4592612112	 0.145631
H	 1.8972165182	 2.3299010119	 1.8128402586	 0.148307
H	 1.4254533127	 0.1969540003	 1.0561576639	 0.258175
H	 4.535365357	 1.2981711867	-3.2619076039	 0.219671
41.0905	127.0249	138.3216	210.7983	234.7372	285.7575	298.4827	343.6836	444.485	471.2297	654.5575	666.2817	715.634	741.0933	747.2592	848.0639	878.4997	979.7364	994.6698	1022.1343	1072.5837	1137.0295	1154.6002	1279.9548	1335.788	1355.1135	1418.3988	1491.852	1749.2216	1796.7166	2217.0913	3002.823	3112.6551	3211.6231	3448.3202	3492.4879
O=CC1(CN1)C(=O)C#C	O=C[C@]1(CN1)C(=O)C#C	
InChI=1S/C6H5NO2/c1-2-5(9)6(4-8)3-7-6/h1,4,7H,3H2	InChI=1S/C6H5NO2/c1-2-5(9)6(4-8)3-7-6/h1,4,7H,3H2/t6-/m1/s1
