23
gdb 95953	2.57361	1.46199	1.24626	1.3731	84.62	-0.2339	0.0739	0.3078	1154.4086	0.206856	-388.296304	-388.287438	-388.286494	-388.329905	34.439	
C	 0.2985455007	 1.6808326519	-0.3532508256	-0.405784
C	 0.0214531919	 0.2212867149	 0.0270313851	-0.045875
C	 0.5775379836	-0.7677796796	-1.0179541923	-0.250377
C	 2.0458390203	-0.9295098623	-0.5830178404	-0.076309
O	 2.1044903517	-0.5433027886	 0.7919167626	-0.31158
C	 0.8016020254	-0.2461227728	 1.2724283408	 0.462845
C	 0.7914214059	 0.6364120835	 2.5424007733	-0.294423
C	-0.3037733819	-0.2861595427	 3.1418662686	-0.214336
C	 0.0862009993	-1.3650807186	 2.0973508739	-0.285251
H	 1.3734327099	 1.8763053166	-0.4244995638	 0.127785
H	-0.1530912624	 1.9187832548	-1.3219001361	 0.109428
H	-0.1163046612	 2.376310476	 0.3820357714	 0.1168
H	-1.0553495492	 0.0816745411	 0.1659402114	 0.069864
H	 0.0524096774	-1.7254853872	-0.9501710008	 0.104362
H	 0.4784645623	-0.4063875648	-2.0447291945	 0.098356
H	 2.4004879104	-1.9614707198	-0.6959082287	 0.096593
H	 2.7209308531	-0.2806544798	-1.1554064733	 0.098895
H	 1.7442287458	 0.5258303081	 3.0666259853	 0.113089
H	 0.5740898924	 1.7008385992	 2.4313568057	 0.094139
H	-0.2088485176	-0.5532562621	 4.1959987747	 0.099135
H	-1.3104520238	 0.106968522	 2.9748880332	 0.10009
H	-0.7163826813	-1.9275141275	 1.6111319539	 0.087493
H	 0.8262473472	-2.065666512	 2.4927884758	 0.105062
65.6536	121.9916	141.1519	190.8379	239.2439	310.2212	324.668	401.3165	478.1194	489.6854	672.0381	691.8616	752.5583	789.5462	810.1803	839.4008	895.4755	904.6149	933.9998	956.1209	970.7099	991.8036	1009.8822	1026.0618	1035.7278	1070.0742	1116.0166	1149.7363	1167.4511	1192.7536	1201.9116	1220.6798	1228.0464	1247.92	1266.6205	1273.8234	1283.8219	1311.0386	1336.8205	1368.6236	1392.2153	1409.2631	1469.3002	1483.8177	1488.1227	1497.1266	1503.3828	1509.1077	1532.3703	3013.4249	3035.6088	3039.3212	3049.2516	3050.3045	3060.9467	3062.3414	3067.8627	3100.0161	3102.4332	3103.8222	3109.7558	3114.833	3126.5075
CC1CCOC11CCC1	C[C@H]1CCOC21CCC2	
InChI=1S/C8H14O/c1-7-3-6-9-8(7)4-2-5-8/h7H,2-6H2,1H3	InChI=1S/C8H14O/c1-7-3-6-9-8(7)4-2-5-8/h7H,2-6H2,1H3/t7-/m0/s1
