15
gdb 9069	6.33125	0.84513	0.78805	3.4051	63.19	-0.2909	-0.0553	0.2357	1351.7439	0.117005	-399.823287	-399.814727	-399.813783	-399.857201	29.447	
O	 0.0019162426	 1.4448189849	-0.0731571298	-0.431825
C	 0.0161144105	 0.0462664533	-0.0078489484	 0.041608
C	 0.6767758975	-0.5628772799	-1.2572401334	-0.208341
C	-0.0354130684	-0.0802282983	-2.5350461894	-0.337502
C	 0.5821960254	-0.6106241556	-3.7471152388	 0.25657
N	 1.0822878384	-1.0430322867	-4.6948202709	-0.301323
C	 0.7325455877	-0.4173520279	 1.2466781301	 0.135625
O	 1.2054978033	 0.3708088688	 2.0280639184	-0.251946
H	 0.4702901683	 1.7514711351	 0.7200732384	 0.300152
H	-1.0174886189	-0.3433964532	 0.0597856989	 0.099349
H	 1.7285409044	-0.2605188126	-1.2925440042	 0.135906
H	 0.6461839314	-1.6565483047	-1.2010371328	 0.122912
H	-1.0901988218	-0.3794363814	-2.5193202568	 0.151729
H	-0.0143281691	 1.0132329428	-2.565999548	 0.179832
H	 0.7993526587	-1.5125745547	 1.4047518866	 0.107255
65.868	86.3819	108.763	163.4067	248.9777	305.0763	358.0328	396.3344	418.703	489.93	555.5361	745.9094	777.5403	843.6657	931.2135	949.8466	985.5427	1054.0027	1095.1879	1160.2832	1210.2098	1249.2375	1293.4074	1315.4762	1353.228	1378.6284	1402.2265	1437.3417	1468.0223	1484.1203	1816.5625	2363.9973	2927.8818	2943.8112	3042.574	3050.7109	3089.056	3107.699	3684.6594
OC(CCC#N)C=O	O[C@@H](CCC#N)C=O	
InChI=1S/C5H7NO2/c6-3-1-2-5(8)4-7/h4-5,8H,1-2H2	InChI=1S/C5H7NO2/c6-3-1-2-5(8)4-7/h4-5,8H,1-2H2/t5-/m0/s1
