16
gdb 11647	3.24938	1.87803	1.48315	1.4885	72.33	-0.2452	0.0405	0.2857	882.6074	0.130037	-346.517104	-346.509838	-346.508894	-346.548255	28.712	
O	 0.2187748181	 1.3799167033	-0.191224614	-0.441369
C	 0.0550342034	 0.0072983877	-0.0334624862	 0.162904
C	-0.0148605717	-0.6686729873	 1.3705514408	-0.120234
C	-1.4654379191	-0.1188494822	 1.5073661138	-0.285383
C	-1.3779060824	-0.6572555104	 0.0365215416	 0.215577
C	-0.6351161359	-1.8924642986	 0.6419536492	-0.251944
C	-2.4031300205	-0.6473557633	-0.9636516781	 0.046961
C	-3.2576065198	-0.6266476135	-1.8107583403	-0.362331
H	-0.3633567272	 1.8488382608	 0.4153594204	 0.286089
H	 0.7346795368	-0.4617902646	-0.7491453935	 0.091268
H	 0.758771543	-0.683610192	 2.1371209351	 0.081879
H	-2.1362368865	-0.6665099181	 2.1734571816	 0.106325
H	-1.6046727068	 0.9579550732	 1.6429338711	 0.084363
H	 0.0117366389	-2.4521721211	-0.0386155786	 0.101911
H	-1.2516920433	-2.5544594221	 1.2523155792	 0.105337
H	-4.0094548969	-0.6101648017	-2.5602993622	 0.178646
126.0389	167.2062	236.8154	327.3246	349.2152	493.0634	500.4116	540.838	577.2409	620.4185	633.721	637.7543	758.3953	825.5834	866.2604	917.6056	943.8321	953.1243	1020.6509	1034.6238	1069.9811	1120.7584	1143.9238	1149.3682	1173.5152	1210.3506	1235.3483	1243.8904	1282.2978	1294.067	1452.1164	1506.0032	1544.7389	2231.073	3049.468	3062.4862	3088.6114	3111.3056	3127.6524	3134.3731	3501.6714	3816.4806
OC1C2CC1(C2)C#C	O[C@H]1[C@H]2C[C@@]1(C2)C#C	
InChI=1S/C7H8O/c1-2-7-3-5(4-7)6(7)8/h1,5-6,8H,3-4H2	InChI=1S/C7H8O/c1-2-7-3-5(4-7)6(7)8/h1,5-6,8H,3-4H2/t5-,6-,7+/m0/s1
