21
gdb 111278	2.96322	1.17135	0.99776	2.0862	78.14	-0.2459	0.073	0.3189	1256.656	0.18099	-424.186973	-424.177287	-424.176343	-424.221005	36.719	
C	-0.6221157144	 1.5776407422	-0.3002113526	-0.421038
C	-0.2348282745	 0.1060686908	-0.2051013914	-0.054341
C	 1.0032227197	-0.4589719468	-1.0101443435	 0.015377
C	 1.8404805306	 0.4753318048	-1.8644403379	-0.095748
O	 1.0565499166	 0.8443561209	-2.9944210944	-0.422203
C	 1.601952065	-0.9756362897	 0.3039022267	-0.149591
C	 1.7858876796	 0.1505454209	 1.3045717016	-0.353935
C	 0.4173081286	-0.4256775119	 1.0820123792	 0.399597
O	-0.28394989	-1.0711365704	 2.0886283586	-0.467797
H	 0.1909217286	 2.2401028426	 0.0151370996	 0.104839
H	-0.8824550947	 1.8408351734	-1.3289154833	 0.132679
H	-1.4856956258	 1.7925338825	 0.3394120116	 0.104868
H	-1.1064346812	-0.5141921065	-0.4340384935	 0.082376
H	 0.6800535681	-1.286412699	-1.6482447371	 0.083542
H	 2.1486137501	 1.363091533	-1.2926313195	 0.081631
H	 2.7613408943	-0.0463176306	-2.1733565191	 0.086024
H	 1.5582467783	 1.4784369439	-3.5148734656	 0.285631
H	 2.1168094223	-1.9204286567	 0.4294245103	 0.090399
H	 2.2440476629	-0.1674328174	 2.2360232272	 0.111494
H	 2.0537586314	 1.1572952102	 0.995649493	 0.102182
H	-0.5233252755	-0.4193332061	 2.75619084	 0.284013
96.9584	123.7292	180.5961	197.4647	224.8753	249.1225	254.467	279.6393	335.5201	382.9497	468.0292	507.2951	564.2512	635.8047	682.9593	762.6272	835.9963	908.2994	917.7089	952.8592	998.3181	1001.7899	1034.6461	1050.036	1067.0135	1077.9121	1102.2263	1133.6334	1145.6946	1193.4567	1227.2561	1244.663	1251.9752	1257.8015	1304.8509	1318.4312	1360.7651	1369.7211	1405.2436	1410.9156	1459.027	1491.7281	1495.4945	1502.6994	1520.3843	2965.3171	3000.5053	3031.3402	3055.3291	3071.375	3092.7366	3112.3351	3116.4869	3184.1599	3201.3429	3798.011	3829.5774
CC1C(CO)C2CC12O	C[C@H]1[C@@H](CO)[C@H]2C[C@@]12O	
InChI=1S/C7H12O2/c1-4-5(3-8)6-2-7(4,6)9/h4-6,8-9H,2-3H2,1H3	InChI=1S/C7H12O2/c1-4-5(3-8)6-2-7(4,6)9/h4-6,8-9H,2-3H2,1H3/t4-,5+,6+,7+/m0/s1
