18
gdb 75095	3.30129	1.26225	0.97284	3.8006	82.71	-0.2141	-0.0306	0.1835	1213.8027	0.149152	-401.9985	-401.990212	-401.989268	-402.031355	31.621	
C	-0.0138481713	 1.5691685688	 0.0136380574	-0.478249
C	 0.0241172605	 0.0676854675	 0.0038627162	 0.26912
C	 0.0671381837	-0.6251751103	-1.1375184371	-0.064302
N	 0.0368215171	-2.0209370747	-1.2586900714	-0.339553
C	-0.704229025	-2.9758206888	-0.5755467476	 0.356702
O	-0.7445132764	-4.1203479272	-0.9974294257	-0.376149
C	-1.4597093814	-2.5719401532	 0.6320154473	-0.117397
C	-1.1639894128	-1.5830862927	 1.4797687482	-0.070319
C	 0.0179865647	-0.6561148653	 1.3387094906	-0.372885
H	 0.8142587785	 1.9817887954	 0.6044982031	 0.125345
H	 0.0502004255	 1.9827483632	-0.9967135453	 0.122424
H	-0.9395387177	 1.9443362206	 0.4695193273	 0.128159
H	 0.1392798269	-0.110162156	-2.0914372773	 0.102286
H	 0.4145124602	-2.4098238551	-2.1122228459	 0.249885
H	-2.2917514746	-3.237640346	 0.8365088559	 0.116528
H	-1.8065732338	-1.4410287104	 2.3458396749	 0.106121
H	 0.9455868771	-1.2394577742	 1.4350851521	 0.133313
H	 0.0219152287	 0.0700007384	 2.1554235472	 0.10897
95.5015	104.0511	208.9121	258.6365	314.8639	327.1065	359.799	397.7188	471.4846	521.5368	633.6177	642.4822	692.7065	774.2363	793.1607	851.6698	880.8899	888.5484	932.4447	992.7013	1012.9348	1030.4778	1063.486	1172.6109	1178.786	1223.1879	1257.608	1312.7562	1353.5469	1396.5869	1415.5965	1420.5106	1470.7065	1475.8579	1480.5936	1496.2356	1694.3846	1744.5071	1764.5638	2998.9353	3011.5844	3055.7731	3089.829	3107.5488	3150.9651	3163.0318	3193.6665	3591.8767
CC1=CNC(=O)C=CC1	CC1=CNC(=O)C=CC1	
InChI=1S/C7H9NO/c1-6-3-2-4-7(9)8-5-6/h2,4-5H,3H2,1H3,(H,8,9)	InChI=1S/C7H9NO/c1-6-3-2-4-7(9)8-5-6/h2,4-5H,3H2,1H3,(H,8,9)
