19
gdb 86275	1.87245	1.60779	1.16603	2.7297	76.81	-0.2422	0.0118	0.2539	1164.3124	0.157721	-419.202473	-419.192775	-419.191831	-419.23658	35.902	
C	-0.5470281767	 1.0723004477	-1.4461115604	-0.413439
C	 0.2926968309	-0.105093342	-0.9885955296	 0.014268
N	 1.7423060907	-0.0027566698	-1.2708091387	-0.340694
C	 2.093042447	-0.5562417504	 0.0587616441	 0.025352
C	 3.2641458745	 0.1028597357	 0.7617748463	-0.393933
C	 0.6444701442	-0.2153805999	 0.5404055995	 0.230656
O	 0.6337469611	 1.0005248594	 1.2497444602	-0.451026
C	-0.0654448754	-1.2611662347	 1.2822511016	 0.226835
N	-0.6509676772	-2.0729339658	 1.8614421112	-0.340884
H	-0.1460657387	 2.0044348289	-1.0419559982	 0.135621
H	-0.5325210535	 1.1395891428	-2.5385435149	 0.126583
H	-1.5914346372	 0.9583406074	-1.1337333498	 0.116205
H	-0.153793632	-1.0519048683	-1.3251925877	 0.080667
H	 2.0675504478	-0.544166657	-2.0643101189	 0.220868
H	 2.2160965824	-1.648740556	 0.0534894645	 0.08351
H	 3.1144315048	 1.1812305745	 0.8277264089	 0.14226
H	 3.3917360771	-0.3021435498	 1.770627594	 0.123762
H	 4.1837389384	-0.0892544849	 0.199248728	 0.116849
H	-0.2806954082	 1.2442470122	 1.4328538999	 0.296538
91.9619	123.3824	169.4861	202.3797	209.2494	249.4747	258.3352	279.9866	351.9551	378.6077	486.4711	508.0986	535.0337	582.4714	601.8878	696.3765	818.7158	874.641	944.9874	956.9466	995.7468	1022.6443	1082.3355	1085.7001	1120.438	1130.8424	1176.288	1210.0462	1232.1526	1329.6837	1346.7298	1368.0019	1375.4085	1397.5598	1405.8495	1422.0292	1484.4295	1487.4586	1492.8161	1497.9733	2347.2716	2994.4745	2999.1264	3035.8383	3043.3408	3101.4563	3107.6604	3132.8262	3148.8647	3529.9405	3806.233
CC1NC(C)C1(O)C#N	C[C@H]1N[C@@H](C)[C@]1(O)C#N	
InChI=1S/C6H10N2O/c1-4-6(9,3-7)5(2)8-4/h4-5,8-9H,1-2H3	InChI=1S/C6H10N2O/c1-4-6(9,3-7)5(2)8-4/h4-5,8-9H,1-2H3/t4-,5+,6+
