23
gdb 99103	2.92358	0.95547	0.84363	2.3691	86.2	-0.2342	-0.0089	0.2253	1510.0064	0.203221	-388.309036	-388.298463	-388.297519	-388.345672	38.671	
C	-1.2487744985	 2.1466062609	 0.3243642865	-0.374979
C	-1.1422364528	 0.6399415081	 0.5390140712	-0.284221
C	-1.8786209065	-0.1838043246	-0.5076252475	 0.390658
O	-2.4378876057	 0.3326610428	-1.4500108518	-0.309514
C	-1.8969437251	-1.6992864959	-0.3060704193	-0.369227
C	-3.237535609	-2.1899908885	 0.2465124839	 0.380969
C	-4.424643019	-2.0119457537	-0.6820515445	-0.454749
C	-3.2106670688	-3.4266798826	 1.1132163406	-0.314096
C	-3.4730734204	-2.0758128733	 1.7367795848	-0.29855
H	-0.6851805326	 2.6893730921	 1.0883860927	 0.107938
H	-0.861989306	 2.4267238374	-0.658570699	 0.132503
H	-2.2911747654	 2.4732286693	 0.3656920626	 0.129529
H	-0.0931201931	 0.3095255767	 0.5342740558	 0.121427
H	-1.5236098723	 0.3450710022	 1.5265326036	 0.124148
H	-1.7156937463	-2.1658618047	-1.2814126873	 0.119799
H	-1.0894532401	-1.9987608643	 0.3703415509	 0.09414
H	-4.28039512	-2.5774750599	-1.610068229	 0.115222
H	-5.3433037993	-2.3727473557	-0.2090609434	 0.105846
H	-4.5661405641	-0.9638962852	-0.9583412576	 0.141021
H	-4.0400741064	-4.1209783199	 1.0281697446	 0.112525
H	-2.2548013328	-3.9011081439	 1.3094924582	 0.108435
H	-2.6927255209	-1.6495337943	 2.3589562401	 0.10753
H	-4.4780971451	-1.8533432228	 2.078948154	 0.113645
25.9538	67.1137	91.6411	157.9859	198.7814	216.5637	248.6368	303.2632	318.4295	353.5192	398.8591	425.7726	517.5988	633.3399	700.8645	763.9318	785.2433	820.539	871.1188	916.8859	927.111	951.4271	961.6412	1000.5599	1030.2611	1054.1078	1080.0702	1082.9845	1090.0973	1122.9304	1139.9973	1187.872	1219.278	1272.6601	1306.9783	1313.3467	1361.5149	1376.8957	1414.5669	1426.0944	1447.7401	1465.6172	1471.535	1490.2314	1492.6396	1497.5394	1499.9285	1509.5669	1800.1489	3011.7326	3031.0678	3033.7517	3040.6786	3051.2028	3084.1314	3094.3911	3119.784	3121.647	3125.5154	3127.434	3130.275	3203.1497	3217.4805
CCC(=O)CC1(C)CC1	CCC(=O)CC1(C)CC1	
InChI=1S/C8H14O/c1-3-7(9)6-8(2)4-5-8/h3-6H2,1-2H3	InChI=1S/C8H14O/c1-3-7(9)6-8(2)4-5-8/h3-6H2,1-2H3
