18
gdb 30312	2.99105	1.60258	1.09185	2.9456	78.91	-0.176	0.0419	0.2179	1098.4785	0.150107	-401.974554	-401.966775	-401.965831	-402.006803	30.223	
C	-0.0505028253	 1.5871531294	-0.0680550929	-0.397881
C	 0.0037363724	 0.0621658196	 0.0793736488	-0.145567
C	 0.8062845614	-0.624936367	-1.0852051542	-0.092519
O	 1.5762906956	-1.7304517868	-0.5526712509	-0.293005
C	 1.6233044767	-1.4979956173	 0.7958843759	 0.369431
C	 0.8045521297	-0.491574893	 1.2161485573	 0.20604
N	 0.8773361673	-0.4453406945	 2.5878274564	-0.374175
C	 1.7727387122	-1.4030974763	 3.0086651136	-0.0685
C	 2.258985695	-2.0939033911	 1.909021579	-0.323687
H	 0.9582896229	 2.0120523789	-0.0833612132	 0.12064
H	-0.5598883895	 1.8753710618	-0.9942617552	 0.11655
H	-0.5991242706	 2.0449435643	 0.7618221969	 0.110348
H	-1.0298144158	-0.3182076983	 0.0978897243	 0.082189
H	 0.1650408715	-1.015088238	-1.8787092787	 0.112499
H	 1.5064590163	 0.1020524895	-1.5188760929	 0.103506
H	 0.4293300552	 0.2222753115	 3.1894849536	 0.258996
H	 2.0158920407	-1.5058007641	 4.0541363958	 0.115406
H	 2.9667644144	-2.9064963187	 1.9293561064	 0.09973
90.9851	140.7242	223.0606	260.3818	308.8627	406.0153	418.9572	479.0737	592.5996	625.1649	656.9885	680.0359	724.1675	737.8441	797.7943	893.7747	925.7773	935.1137	981.8468	1023.5626	1068.4265	1094.8578	1106.9412	1132.6058	1163.0498	1234.1881	1263.6705	1302.5045	1330.9208	1366.9081	1386.4924	1407.9254	1454.5237	1475.6607	1494.568	1499.1783	1505.2989	1542.7132	1632.1924	2964.8462	3011.3098	3028.3588	3094.408	3102.3161	3107.1626	3254.7212	3272.1924	3688.8006
CC1COC2=C1NC=C2	C[C@H]1COc2c1[nH]cc2	
InChI=1S/C7H9NO/c1-5-4-9-6-2-3-8-7(5)6/h2-3,5,8H,4H2,1H3	InChI=1S/C7H9NO/c1-5-4-9-6-2-3-8-7(5)6/h2-3,5,8H,4H2,1H3/t5-/m0/s1
