17
gdb 69128	2.8164	1.44823	1.13028	5.138	73.75	-0.23	-0.0796	0.1503	1098.536	0.135155	-421.86007	-421.851985	-421.851041	-421.89268	30.934	
C	-0.1221820585	 1.5493962952	 0.1478619323	-0.479101
C	 0.0650351008	 0.0592163636	 0.0000838893	 0.319536
C	-0.8187886202	-0.8927240616	 0.7333378502	-0.330249
C	 0.6559753245	-0.779527219	 1.1414051932	-0.192723
C	 1.5460148033	-1.814533989	 0.5659031929	 0.331533
O	 2.3367822791	-2.5299195806	 1.1238476383	-0.302892
C	 1.3483774679	-1.7714899347	-0.9865744961	 0.289922
O	 1.7499574699	-2.6066656195	-1.7481818389	-0.275319
C	 0.6105236085	-0.4776327752	-1.3231743306	-0.396861
H	 0.8137361827	 2.0867297258	-0.0404669307	 0.126692
H	-0.8699519485	 1.9214328907	-0.5618136685	 0.129012
H	-0.4624490939	 1.8069777106	 1.155557489	 0.12353
H	-1.5228388142	-0.4889644492	 1.4525677639	 0.132834
H	-1.1561216564	-1.8028883263	 0.2458919896	 0.132069
H	 0.8886924149	-0.3615630619	 2.11285765	 0.11525
H	-0.1552783857	-0.6428948436	-2.0874507245	 0.136663
H	 1.3455382358	 0.2194006947	-1.7475994295	 0.140104
81.1569	134.5704	227.4516	274.6814	310.7022	339.3608	368.9858	419.585	506.1589	520.9701	625.7878	659.5578	689.3255	749.0742	853.5112	890.063	919.0197	937.9004	992.6576	1012.9712	1054.0591	1061.9823	1084.4205	1106.2189	1175.8353	1194.9863	1229.7572	1274.1597	1316.4535	1388.4466	1423.5719	1449.6441	1487.3753	1494.6576	1503.052	1833.808	1858.9289	3026.9905	3030.5269	3085.2521	3090.8879	3105.0039	3125.6365	3196.3062	3214.9296
CC12CC1C(=O)C(=O)C2	C[C@]12C[C@H]1C(=O)C(=O)C2	
InChI=1S/C7H8O2/c1-7-2-4(7)6(9)5(8)3-7/h4H,2-3H2,1H3	InChI=1S/C7H8O2/c1-7-2-4(7)6(9)5(8)3-7/h4H,2-3H2,1H3/t4-,7+/m0/s1
