16
gdb 42299	3.30355	1.2624	0.9238	5.5961	82.06	-0.2185	-0.0473	0.1712	1201.7048	0.125512	-396.946638	-396.938193	-396.937249	-396.981672	29.813	
N	-0.1653064202	 1.3561833209	-0.0126221479	-0.521356
C	 0.0419505147	 0.0914013636	-0.0180140992	 0.276206
C	-1.1419177484	-0.7567761317	-0.0336464483	 0.291673
N	-2.0697958318	-1.4453936992	-0.0460400555	-0.333143
N	 1.217624773	-0.6186711514	-0.0114180976	-0.120353
C	 1.3178518059	-2.0988700802	-0.0190243769	-0.17281
C	 2.8468138021	-2.3815124941	-0.006423434	-0.286246
C	 3.4584952919	-1.0000673501	 0.006711929	-0.156427
C	 2.5049486572	-0.0690776569	 0.0032769639	 0.00499
H	 0.7022998169	 1.8908381423	-0.0016450385	 0.223832
H	 0.8116450256	-2.5122269905	 0.8568532927	 0.143355
H	 0.828140617	-2.5020039856	-0.9089420337	 0.143338
H	 3.1393644496	-2.9687788361	 0.8711381026	 0.126898
H	 3.1555734195	-2.9593209719	-0.8847026028	 0.126898
H	 4.5200391777	-0.8026262584	 0.017409623	 0.115934
H	 2.6227589093	 1.0042412091	 0.0102975132	 0.137211
20.9713	63.2804	114.3293	143.8881	286.3658	323.0574	454.388	460.2113	508.488	654.2077	707.3997	721.2311	772.9085	806.277	838.0328	848.1976	906.8588	929.1188	957.4096	1007.1519	1064.8528	1129.5246	1206.1284	1208.4034	1230.7973	1262.0867	1314.1665	1332.9026	1380.0517	1455.1277	1494.2891	1520.7186	1660.1264	1690.7523	2360.3272	3034.8087	3059.0733	3062.7692	3105.4365	3237.8304	3260.3109	3499.1793
N=C(C#N)N1CCC=C1	[NH][C](C#N)N1CCC=C1	
InChI=1S/C6H7N3/c7-5-6(8)9-3-1-2-4-9/h1,3,8H,2,4H2	InChI=1S/C6H7N3/c7-5-6(8)9-3-1-2-4-9/h1,3,8H,2,4H2
