20
gdb 105711	2.25937	1.40401	1.14201	4.2253	84.41	-0.2617	-0.0012	0.2604	1190.2817	0.17161	-366.04798	-366.038974	-366.03803	-366.081708	33.809	
C	 0.1063203332	 1.4531175426	 0.1961840465	-0.403416
C	-0.1083694006	-0.0575866972	 0.0886323065	-0.208611
C	-1.5854473054	-0.4956699546	-0.1390044945	 0.10366
C	-1.7320257251	-2.0558942813	-0.1083852956	-0.264342
C	-2.2436505034	-2.4000952084	 1.3120240842	-0.264732
C	-2.8178522851	-1.0925167206	 1.7961959173	-0.072933
C	-2.4900997447	-0.0689924857	 1.0131804085	-0.084755
C	-2.0546172555	 0.0522625255	-1.4194161745	 0.258428
N	-2.4158317004	 0.4876481722	-2.4280820541	-0.357824
H	 1.1699064241	 1.6793571737	 0.3149211368	 0.120284
H	-0.2475412161	 1.9678237772	-0.7024651642	 0.143393
H	-0.4193697811	 1.8746218352	 1.0584456582	 0.120852
H	 0.4931372046	-0.459154688	-0.7351087763	 0.113189
H	 0.2330592808	-0.5523782274	 1.0050970753	 0.105405
H	-2.4715168051	-2.3636500876	-0.8509828472	 0.128855
H	-0.7892712246	-2.5469103295	-0.36038608	 0.11142
H	-2.9843541973	-3.2067256357	 1.2959576842	 0.116002
H	-1.435855051	-2.7398704908	 1.9741255765	 0.115106
H	-3.4067533384	-1.0117800558	 2.7031903187	 0.105515
H	-2.7731048589	 0.9654461562	 1.1611446535	 0.114504
84.7802	111.7645	158.8733	170.4338	220.1601	257.2917	295.8549	384.1841	469.4982	514.2901	564.5536	607.7112	695.0882	765.6369	784.5458	793.7316	851.6373	926.6562	938.7602	972.2488	981.2729	1004.6962	1024.2509	1051.0704	1088.8512	1124.3713	1161.7235	1180.159	1216.014	1248.7151	1305.5526	1317.7325	1328.8523	1358.8578	1381.8811	1415.2979	1480.5066	1486.3081	1499.7806	1499.9346	1506.5706	1688.6621	2347.2597	3020.1684	3032.2689	3041.5739	3061.7733	3072.119	3074.4504	3111.2519	3115.5561	3118.6486	3191.6176	3222.7256
CCC1(CCC=C1)C#N	CC[C@]1(CCC=C1)C#N	
InChI=1S/C8H11N/c1-2-8(7-9)5-3-4-6-8/h3,5H,2,4,6H2,1H3	InChI=1S/C8H11N/c1-2-8(7-9)5-3-4-6-8/h3,5H,2,4,6H2,1H3/t8-/m0/s1
