20
gdb 122614	4.23696	0.64816	0.58451	1.4183	77.12	-0.2426	-0.0245	0.2182	1861.1951	0.169539	-440.270696	-440.260791	-440.259846	-440.306791	34.979	
O	-0.1454137452	 1.5069822687	-0.1373151638	-0.421803
C	-0.0052099282	 0.1187197076	 0.1243492832	-0.075709
C	-1.367100835	-0.5339209693	-0.0712855191	-0.17122
C	-1.3474422266	-2.0423267982	 0.1902733173	-0.184421
C	-2.7053800512	-2.6928952522	-0.0470359981	-0.098474
N	-3.1501017868	-2.7733958144	-1.4709670823	-0.324218
C	-3.4662115658	-4.2239599756	-1.3778727755	-0.283822
C	-2.7869147488	-4.2299935079	 0.0011491778	 0.383061
O	-2.4289290401	-5.0687426027	 0.7716818117	-0.28788
H	 0.7147961217	 1.9221885978	-0.0272017587	 0.285576
H	 0.7283621501	-0.3442546915	-0.5559142145	 0.087005
H	 0.3490228657	-0.059466134	 1.1533281695	 0.084256
H	-2.0868695162	-0.0427457845	 0.5959516612	 0.100639
H	-1.7016967653	-0.3428819348	-1.0973306433	 0.117208
H	-0.6115995088	-2.5255337055	-0.4639669047	 0.102935
H	-1.0450360506	-2.2515211111	 1.2244101046	 0.109862
H	-3.4572820157	-2.2516498611	 0.6272998079	 0.092732
H	-3.9523606037	-2.1937649925	-1.6852127053	 0.226574
H	-4.5329049488	-4.4807772541	-1.3123959123	 0.123228
H	-3.0044574406	-4.8454786046	-2.1528588254	 0.134472
54.3308	80.9224	87.9536	125.9879	141.5319	202.0218	264.2057	287.2146	381.8255	436.5864	500.5748	563.0882	652.5832	741.7807	777.0969	810.0717	867.123	941.2176	977.1258	1006.5765	1021.8008	1050.8809	1074.9105	1086.2293	1091.9757	1108.4753	1164.184	1208.161	1213.9785	1237.1015	1276.4379	1298.0717	1313.936	1318.3786	1355.849	1369.5805	1391.848	1463.6108	1474.6768	1476.5212	1500.3535	1528.778	1912.8538	2958.1005	2975.4368	2983.9734	3010.4126	3022.9372	3031.5827	3061.1755	3069.1697	3084.7334	3552.3586	3830.8799
OCCCC1NCC1=O	OCCC[C@H]1NCC1=O	
InChI=1S/C6H11NO2/c8-3-1-2-5-6(9)4-7-5/h5,7-8H,1-4H2	InChI=1S/C6H11NO2/c8-3-1-2-5-6(9)4-7-5/h5,7-8H,1-4H2/t5-/m1/s1
