17
gdb 47778	2.72724	1.45053	1.00161	4.092	75.48	-0.2336	0.0241	0.2576	1157.3528	0.137462	-417.996692	-417.988401	-417.987457	-418.029782	31.436	
O	-0.0924874378	-0.0837269973	 0.1407004246	-0.361202
C	-0.0790909951	 1.1275406181	 0.0849307134	 0.437241
N	-1.2123178484	 1.8707977898	-0.0790954324	-0.332527
C	-1.3254416243	 3.3194117494	 0.0276923836	-0.131471
C	 0.0127802141	 3.9623366585	-0.3138001296	-0.160772
N	 1.0329541034	 3.3197227748	 0.5025511914	-0.308656
C	 1.2470334609	 1.9292342269	 0.0813282148	-0.277217
C	 2.2594899661	 1.2900547312	 0.9128138543	 0.336833
C	 3.1307692915	 0.8137815341	 1.5871276737	-0.428327
H	-2.0582461255	 1.319071824	-0.0471657811	 0.249552
H	-2.1011222533	 3.6674341935	-0.6630982003	 0.110637
H	-1.6176076576	 3.612649967	 1.0451352776	 0.119634
H	 0.2009283914	 3.8662311478	-1.3998103653	 0.090754
H	-0.0231001573	 5.0279964981	-0.0721574125	 0.111577
H	 1.9136625667	 3.8195285346	 0.4569578597	 0.231824
H	 1.5848191099	 1.8684346758	-0.9740922428	 0.114536
H	 3.8847141954	 0.3695830538	 2.1887023409	 0.197583
65.0025	140.8459	148.8356	228.5411	342.4618	377.0968	410.1971	446.2468	505.2898	548.0986	585.2384	628.4659	664.6178	668.8308	677.7694	787.0816	873.7979	909.5546	941.8782	1026.1963	1067.2334	1104.5411	1124.8027	1157.704	1252.5025	1255.4705	1285.8075	1317.2034	1347.331	1396.5113	1401.5374	1477.7175	1484.9288	1497.8937	1519.6488	1802.2809	2250.1391	2882.6194	2926.3296	3011.4536	3066.0169	3091.3527	3505.4099	3536.6022	3599.6565
O=C1NCCNC1C#C	O=C1NCCN[C@H]1C#C	
InChI=1S/C6H8N2O/c1-2-5-6(9)8-4-3-7-5/h1,5,7H,3-4H2,(H,8,9)	InChI=1S/C6H8N2O/c1-2-5-6(9)8-4-3-7-5/h1,5,7H,3-4H2,(H,8,9)/t5-/m0/s1
