17
gdb 111487	2.86088	1.4727	1.08684	3.7553	67.42	-0.2575	-0.0355	0.222	1091.3615	0.136118	-458.970303	-458.96249	-458.961546	-459.002918	29.821	
O	 0.2059323196	 1.3283335589	 0.073035445	-0.426092
C	 0.0969538239	-0.0749432238	 0.0160548918	-0.063882
C	-1.3741781143	-0.5325542373	-0.0052232074	-0.158222
C	-1.6071860105	-2.0222786746	-0.119275004	 0.019216
O	-1.1957090094	-2.7429856295	 1.053544511	-0.256997
C	-2.5916615004	-2.467292475	 0.8838235087	 0.037671
C	-3.0535032831	-1.2917097996	 1.7121961617	-0.347434
C	-2.1003833547	-0.1621168859	 1.2995434537	 0.396285
O	-1.9232372313	 0.8603374779	 1.9177468908	-0.325683
H	-0.3065963258	 1.6082022826	 0.8444975854	 0.296444
H	 0.5938409093	-0.3983279259	-0.9050358899	 0.107466
H	 0.6072976131	-0.5685800156	 0.8569734222	 0.106474
H	-1.8787895445	-0.0090916325	-0.8303930151	 0.114381
H	-1.4581822564	-2.5409258178	-1.0624231135	 0.107148
H	-3.22755001	-3.3346989587	 0.7326906529	 0.107759
H	-4.0839372272	-1.002900297	 1.4670838833	 0.136645
H	-3.0047676083	-1.4614719363	 2.7909359934	 0.14882
76.5079	139.535	183.3072	233.8659	349.4875	377.2428	454.9666	475.6241	555.5811	585.0516	669.7894	695.434	755.2841	829.7027	866.8523	899.2656	946.7285	985.1378	1002.5722	1057.4929	1083.4088	1095.2142	1104.1583	1150.1759	1174.0915	1211.143	1252.6663	1270.6534	1286.0306	1301.9947	1351.7604	1384.4757	1427.0481	1441.3985	1458.7318	1515.3079	1824.8786	2992.0605	3017.9919	3040.1856	3067.038	3106.1823	3150.6977	3163.5985	3738.5539
OCC1C2OC2CC1=O	OC[C@H]1[C@H]2O[C@H]2CC1=O	
InChI=1S/C6H8O3/c7-2-3-4(8)1-5-6(3)9-5/h3,5-7H,1-2H2	InChI=1S/C6H8O3/c7-2-3-4(8)1-5-6(3)9-5/h3,5-7H,1-2H2/t3-,5+,6-/m1/s1
