23
gdb 83374	2.538	1.67331	1.48586	0.0978	89.06	-0.245	0.0902	0.3351	1053.9865	0.208842	-351.112328	-351.104733	-351.103788	-351.143641	32.515	
C	-0.073655572	 1.667561942	 0.0649549516	-0.447021
C	 0.0560643642	 0.1509598005	 0.0534699708	 0.028878
C	 1.1306345961	-0.5852364123	-0.7857273574	-0.076724
C	 2.4430197146	 0.033859026	-0.1970279135	-0.207653
C	 2.1148062212	 0.0426732518	 1.354298308	-0.32509
C	 0.7567173671	-0.6378611962	 1.2345032247	 0.350669
C	-0.1763898849	-1.536799443	 2.0643300688	-0.337463
C	-0.3073961442	-2.4484828063	 0.7867234087	-0.280849
C	 0.9848587689	-1.7730157367	 0.1990947028	 0.008001
H	 0.8719584403	 2.1839586302	 0.2483669137	 0.116587
H	-0.4607676341	 2.0255992938	-0.8960590719	 0.113059
H	-0.7793282498	 1.9892434225	 0.83960943	 0.113028
H	-0.9309412374	-0.2733332578	-0.1375487661	 0.066788
H	 1.0863369422	-0.6579593504	-1.8758728673	 0.046659
H	 3.3172001227	-0.5833538378	-0.4237944058	 0.094759
H	 2.6357242665	 1.0346396647	-0.5918932643	 0.09536
H	 2.829543547	-0.5531018316	 1.9292439996	 0.092668
H	 2.101643945	 1.0520876237	 1.7763061025	 0.092152
H	 0.3467670152	-2.0579917321	 2.8726561626	 0.100047
H	-1.0885423735	-1.0890775233	 2.4702382027	 0.092071
H	-0.1920089692	-3.5191374337	 0.9665330163	 0.096602
H	-1.2306027933	-2.3016549114	 0.2238640177	 0.108982
H	 1.8642357375	-2.4142528625	 0.311790416	 0.058492
179.2072	228.6361	256.429	300.1145	316.5305	354.8799	415.4505	512.6157	578.1654	668.6189	706.5569	726.9385	780.3851	808.623	840.5603	843.1206	860.2663	900.6698	908.8112	928.0581	1000.8791	1018.4693	1029.4845	1045.9911	1062.1419	1078.3062	1115.0764	1125.2574	1155.0445	1165.2123	1201.4216	1207.4919	1218.8155	1232.3793	1241.73	1255.2381	1268.1891	1280.9382	1297.3889	1323.9363	1353.643	1407.2846	1417.6566	1479.3633	1485.6598	1491.355	1498.3259	1510.0125	1518.2135	3029.3103	3041.4679	3047.514	3053.2187	3057.2838	3071.7003	3073.7564	3083.7945	3085.0037	3088.9155	3090.5469	3104.2813	3117.1947	3127.3701
CC1C2CCC11CCC21	C[C@H]1[C@H]2CC[C@]31CC[C@@H]23	
InChI=1S/C9H14/c1-6-7-2-4-9(6)5-3-8(7)9/h6-8H,2-5H2,1H3	InChI=1S/C9H14/c1-6-7-2-4-9(6)5-3-8(7)9/h6-8H,2-5H2,1H3/t6-,7+,8-,9+/m0/s1
