15
gdb 29496	3.30332	1.66324	1.10878	2.9332	74.54	-0.177	0.0252	0.2021	1022.1395	0.115998	-416.834581	-416.827397	-416.826453	-416.865822	28.5	
N	 0.0715700908	 1.4374934801	 0.143520649	-0.615567
C	 0.0580416554	 0.0342761059	 0.0228685223	 0.053034
C	-1.0187145601	-0.8125659901	-0.0110322631	-0.099199
O	-0.6490578387	-2.146353331	-0.0335569443	-0.221596
C	 0.706990998	-2.1336579005	-0.0323333134	 0.358524
C	 1.1898343833	-0.8417993873	 0.0092851203	 0.24613
N	 2.5617401444	-0.9181255615	 0.0132602789	-0.414193
C	 2.9163652509	-2.256130926	-0.0101689738	-0.064919
C	 1.7842994235	-3.0498620817	-0.045544754	-0.326781
H	 0.6387989953	 1.874985005	-0.5750011312	 0.240093
H	-0.8618640739	 1.8268875308	 0.0848953761	 0.24251
H	-2.0796468192	-0.6248406782	-0.005651295	 0.117075
H	 3.2059305308	-0.1556599833	 0.1185814821	 0.261258
H	 3.9557964724	-2.5427510505	-0.00414481	 0.118495
H	 1.7634925673	-4.1266956318	-0.0791338039	 0.105137
169.7107	224.2071	242.7099	270.2336	346.9689	422.5663	535.7991	578.2026	609.1814	618.0851	658.2726	688.6815	691.5061	742.1784	787.2071	801.8298	821.122	928.7505	1056.1456	1067.4903	1094.3403	1133.2679	1158.2207	1253.3654	1273.7704	1342.6046	1398.7897	1467.6063	1477.5652	1563.864	1594.6265	1629.3895	1662.7959	3257.6362	3273.586	3275.4616	3506.6104	3597.2612	3695.802
NC1=COC2=C1NC=C2	Nc1coc2c1[nH]cc2	
InChI=1S/C6H6N2O/c7-4-3-9-5-1-2-8-6(4)5/h1-3,8H,7H2	InChI=1S/C6H6N2O/c7-4-3-9-5-1-2-8-6(4)5/h1-3,8H,7H2
