22
gdb 63492	3.12656	0.96896	0.84782	2.8014	83.78	-0.2397	-0.0243	0.2154	1443.6509	0.190231	-404.343093	-404.332204	-404.33126	-404.379369	39.186	
C	 0.0677843496	 1.4605385409	-0.2849211755	-0.435015
C	-0.0069307292	-0.0181976465	 0.0593031103	 0.26815
C	-1.198256564	-0.6881765356	-0.6041119764	-0.460756
N	 1.2956358401	-0.7230876435	 0.0695972849	-0.406427
C	 0.5650203035	-0.5350998727	 1.3489496997	 0.264825
C	 1.2379289443	 0.4019887789	 2.3406817975	-0.446759
C	-0.0387943641	-1.7523085406	 2.0440249841	-0.353104
C	 1.0194140348	-2.6237834792	 2.6963049194	 0.165557
O	 0.9464383723	-3.0755127779	 3.8095025742	-0.242612
H	 0.9878660034	 1.9217171344	 0.0719803174	 0.128923
H	 0.0355210137	 1.5906303208	-1.372384811	 0.118306
H	-0.7838177845	 2.0037462419	 0.1401776754	 0.114898
H	-1.1485804008	-0.5365149337	-1.6884584016	 0.12503
H	-1.2451371953	-1.7651176886	-0.4300210137	 0.112887
H	-2.140674784	-0.2498534973	-0.2567626163	 0.125818
H	 1.1728828453	-1.6748655919	-0.2720080017	 0.218195
H	 1.809924025	 1.1811487169	 1.8388410993	 0.132517
H	 0.4962379647	 0.8744527764	 2.9945235139	 0.120053
H	 1.9335886945	-0.1513199727	 2.9817710967	 0.127669
H	-0.7588959271	-1.4583112948	 2.8148073557	 0.123896
H	-0.566042785	-2.3946317967	 1.3292173543	 0.115224
H	 1.8987278828	-2.8411939087	 2.0464088133	 0.082727
58.765	67.8349	114.5476	146.8195	150.2321	174.6041	225.3509	278.2219	326.1148	364.0493	384.0084	410.6778	471.3208	504.0475	537.3307	692.0911	697.1026	804.9311	846.0151	937.0606	950.7386	965.0512	993.9787	1028.7123	1038.7115	1068.8133	1086.4523	1112.6812	1161.4591	1169.9065	1210.7291	1270.1652	1307.2279	1327.2397	1410.7616	1414.7664	1419.0804	1426.4574	1429.0571	1450.3928	1475.9014	1483.0534	1486.5181	1498.4921	1509.4893	1518.1213	1833.6194	2864.1731	3029.1065	3033.7062	3036.0401	3042.2738	3085.6929	3088.5141	3090.9726	3092.1959	3120.2827	3144.8822	3160.4664	3474.7101
CC1(C)NC1(C)CC=O	CC1(C)N[C@]1(C)CC=O	
InChI=1S/C7H13NO/c1-6(2)7(3,8-6)4-5-9/h5,8H,4H2,1-3H3	InChI=1S/C7H13NO/c1-6(2)7(3,8-6)4-5-9/h5,8H,4H2,1-3H3/t7-/m1/s1
