20
gdb 121768	3.23111	0.73227	0.60666	3.2024	86.84	-0.238	-0.035	0.203	1854.8677	0.1691	-399.348219	-399.337234	-399.33629	-399.385486	37.533	
C	-0.0883604619	 1.5157596541	 0.0509334962	-0.3804
C	-0.056399108	-0.0098220328	-0.0660772065	-0.201917
C	 0.7996978874	-0.4820752272	-1.2397626993	-0.102935
N	 0.8028329639	-1.9346604844	-1.3231197279	-0.357342
C	 1.4047218601	-2.5788386567	-2.3735290805	 0.323583
N	 1.8558041961	-1.9599191018	-3.3921418311	-0.297317
C	 2.4055862019	-2.6798172644	-4.5190941058	-0.340699
C	 1.4370078634	-4.031003816	-2.2093719592	 0.224121
N	 1.4836812754	-5.1799911395	-2.0877241579	-0.333933
H	 0.9177599933	 1.9245930743	 0.1924636252	 0.121959
H	-0.5089490122	 1.9729041362	-0.8509156426	 0.123702
H	-0.6994471878	 1.8314998619	 0.9011024192	 0.120299
H	 0.3353819179	-0.4399053799	 0.8662063198	 0.098382
H	-1.0740014424	-0.400256891	-0.1860704537	 0.112312
H	 0.4104831839	-0.093102426	-2.186018476	 0.133471
H	 1.8260518047	-0.0948122999	-1.1496638005	 0.110359
H	 0.7320720731	-2.4489023082	-0.4591472171	 0.255074
H	 2.4387002901	-3.7713447719	-4.3956024245	 0.127772
H	 1.8174074618	-2.4528119769	-5.416392116	 0.131794
H	 3.4234490691	-2.3217343397	-4.7118655219	 0.131716
44.7073	60.5379	91.1209	133.7588	153.7728	163.0248	233.8289	243.8631	264.2929	333.7512	342.5748	380.3008	417.5693	546.7331	650.5119	718.1506	755.7706	812.8571	892.4927	914.8157	1040.9367	1075.6203	1090.2654	1133.1251	1157.9008	1165.5357	1184.0292	1266.4386	1283.9776	1315.4989	1337.1081	1404.2856	1414.6224	1449.1864	1483.3737	1491.1752	1499.9244	1503.2219	1504.9957	1520.7629	1524.2193	1718.3014	2343.1057	2992.9823	2998.3052	3012.5418	3036.3967	3055.6767	3066.6671	3073.7678	3079.7853	3104.305	3112.5557	3631.1253
CCCNC(=NC)C#N	CCCNC(=NC)C#N	
InChI=1S/C6H11N3/c1-3-4-9-6(5-7)8-2/h3-4H2,1-2H3,(H,8,9)	InChI=1S/C6H11N3/c1-3-4-9-6(5-7)8-2/h3-4H2,1-2H3,(H,8,9)
