17
gdb 79609	2.26181	1.99698	1.5481	2.8202	73.41	-0.2353	-0.0128	0.2224	935.8157	0.136916	-417.958154	-417.950711	-417.949767	-417.989931	29.05	
C	-0.171970078	 1.535357237	 0.2508499613	-0.430329
C	-0.035432635	 0.0722050925	-0.0939063764	 0.000612
C	 0.5763054685	-0.5323269897	-1.3213392447	-0.084046
C	 1.5406278992	 0.1791981023	-2.2440804068	 0.031604
O	 1.9145837037	 1.5080204325	-1.8798578835	-0.237813
C	 2.7735254878	 0.4213135703	-1.4764775036	-0.07703
C	 2.4858215862	-0.0034083758	-0.0501463265	 0.34822
N	 3.1961670676	 0.152154333	 0.9891625341	-0.496746
N	 1.2358352977	-0.6863039663	-0.0094239514	-0.123443
H	-1.1268441684	 1.9075617522	-0.1356601531	 0.122917
H	-0.1870312206	 1.6493536672	 1.3397977083	 0.134612
H	 0.6280422212	 2.1436157141	-0.1618248967	 0.158198
H	-0.8466767879	-0.5264221644	 0.3209499899	 0.10594
H	 0.1341210243	-1.4366368623	-1.7348199815	 0.099475
H	 1.52766509	-0.0324386525	-3.308844058	 0.112279
H	 3.7831722388	 0.4468020755	-1.8775030633	 0.112219
H	 4.0643682948	 0.6346711245	 0.7527793618	 0.223333
114.0708	163.9726	193.0447	266.5882	333.4894	390.8411	471.8741	576.296	620.5226	700.2581	731.0361	748.0547	795.5208	822.8398	863.5379	883.4494	908.841	952.3608	986.4006	1021.5311	1042.3416	1076.2316	1100.733	1109.2775	1158.2538	1172.1253	1246.741	1276.7302	1314.2536	1353.9893	1379.8219	1392.0552	1417.3026	1433.6325	1491.5403	1502.2788	1734.3782	3044.3298	3099.2814	3100.4389	3126.7811	3152.8962	3169.3732	3190.8555	3468.8518
CC1C2C3OC3C(=N)N12	C[C@H]1[C@H]2[C@H]3O[C@H]3[C]([NH])N12	
InChI=1S/C6H8N2O/c1-2-3-4-5(9-4)6(7)8(2)3/h2-5,7H,1H3	InChI=1S/C6H8N2O/c1-2-3-4-5(9-4)6(7)8(2)3/h2-5,7H,1H3/t2-,3-,4+,5+,8?/m0/s1
