20
gdb 122609	3.29855	0.89781	0.77882	3.5594	78.51	-0.2378	0.0399	0.2777	1516.389	0.170237	-440.296481	-440.286758	-440.285814	-440.332548	33.825	
C	 0.0524487956	 1.3858907484	 0.162399605	-0.228757
O	 0.0458305551	-0.0186696977	 0.0544098908	-0.230733
C	 0.5859867489	-0.4810915581	-1.1651865273	-0.055815
C	 0.5041377955	-2.0032029981	-1.1804020031	-0.193123
N	-0.8462564453	-2.5055927128	-1.1900941198	-0.063749
C	-1.9122839022	-2.5287518809	-0.1812107855	-0.158846
C	-2.7771650895	-3.3062016245	-1.2142446362	-0.375281
C	-1.547820199	-3.1992494825	-2.1472979826	 0.404395
O	-1.2522997617	-3.5554389789	-3.2591391724	-0.375998
H	 1.074377645	 1.7927906729	 0.1083132215	 0.10749
H	-0.5471508169	 1.8593264279	-0.630708481	 0.108313
H	-0.3786050023	 1.6420353297	 1.1330820033	 0.129197
H	 0.0285371413	-0.0655490667	-2.0204726022	 0.099221
H	 1.6389777056	-0.1672601535	-1.2677304548	 0.089194
H	 0.9875186014	-2.3852392146	-2.0852151835	 0.138749
H	 1.0455728631	-2.3963380941	-0.3097987997	 0.115914
H	-1.6482953832	-3.088408916	 0.7230823193	 0.108176
H	-2.2742494224	-1.5372335029	 0.0996911812	 0.120661
H	-3.0411664272	-4.3281391667	-0.9366276879	 0.130762
H	-3.664612152	-2.7846317009	-1.577039455	 0.130231
34.5928	78.3254	106.0112	115.9929	185.8855	209.4493	233.432	297.8656	341.7488	474.5116	532.2192	578.4217	697.9662	769.7925	818.2877	851.8446	930.1671	979.4767	1001.4558	1045.1031	1057.6275	1096.9403	1150.8337	1155.6107	1163.9167	1182.3772	1187.409	1208.1438	1237.7549	1264.0522	1276.4386	1343.28	1390.8521	1419.0861	1426.578	1461.5998	1464.6063	1480.6686	1486.5944	1501.3705	1524.2269	1533.312	1872.2019	2955.9986	2975.1441	2992.6275	3019.1107	3025.1964	3041.9451	3087.2186	3096.5727	3102.3942	3116.7259	3144.5969
COCCN1CCC1=O	COCCN1CCC1=O	
InChI=1S/C6H11NO2/c1-9-5-4-7-3-2-6(7)8/h2-5H2,1H3	InChI=1S/C6H11NO2/c1-9-5-4-7-3-2-6(7)8/h2-5H2,1H3
