19
gdb 65539	2.83606	1.53812	1.31856	3.0619	79.04	-0.2653	0.0344	0.2998	1030.7304	0.162452	-382.071806	-382.064134	-382.06319	-382.103562	31.046	
N	-0.0417956807	 1.4580258209	 0.0327905221	-0.545299
C	-0.0348184368	-0.0075055964	 0.0101159749	 0.149217
C	 0.4776398218	-0.5992900705	 1.3779726811	-0.250051
C	-0.7988138163	-1.3382736113	 1.8217309636	-0.015874
C	-1.2276913368	-2.0522859256	 0.5063983877	-0.239079
C	-1.4757184416	-0.5911457124	 0.035104041	-0.026302
C	-1.9071084299	-0.2962020897	 1.4983436148	-0.233283
C	 0.7322214787	-0.5244357262	-1.1404909909	 0.232714
N	 1.3376313491	-0.8815351049	-2.0597344606	-0.356383
H	 0.9103283131	 1.8061756489	 0.1084001342	 0.240177
H	-0.4061322977	 1.8159075393	-0.8468083983	 0.23854
H	 1.3338346699	-1.2651265055	 1.2494531707	 0.119228
H	 0.7578247277	 0.2138935268	 2.0524029642	 0.112787
H	-0.7550709244	-1.8612952924	 2.7768395884	 0.067397
H	-0.4872159042	-2.6528484012	-0.0291861735	 0.112777
H	-2.1599383757	-2.610059717	 0.6125958968	 0.105587
H	-2.1000112437	-0.3512701994	-0.8261881082	 0.072741
H	-2.9099310764	-0.6742259913	 1.7074050598	 0.100527
H	-1.7899340762	 0.7239417479	 1.8659393122	 0.114579
137.0421	154.7904	238.2706	269.2544	333.7263	434.9133	458.6364	471.4245	520.7889	578.1417	631.4281	732.2843	825.0738	850.4914	853.7578	875.7833	893.7246	910.1341	946.4762	975.2345	994.5361	1030.0669	1034.7973	1081.3609	1090.8782	1105.3157	1152.3375	1170.3435	1215.1273	1231.0514	1249.4937	1261.236	1282.8706	1291.9694	1325.0291	1339.5086	1485.5691	1489.0617	1524.1497	1658.1728	2335.992	3063.0231	3066.3812	3076.6506	3112.1963	3117.9773	3119.6706	3127.501	3141.7986	3482.28	3560.2528
NC1(CC2CC1C2)C#N	N[C@]1(C[C@@H]2C[C@H]1C2)C#N	
InChI=1S/C7H10N2/c8-4-7(9)3-5-1-6(7)2-5/h5-6H,1-3,9H2	InChI=1S/C7H10N2/c8-4-7(9)3-5-1-6(7)2-5/h5-6H,1-3,9H2/t5-,6+,7-/m1/s1
