22
gdb 119230	1.93724	1.1834	0.86065	2.4038	85.21	-0.2539	-0.0275	0.2264	1467.3276	0.192073	-404.349126	-404.338696	-404.337752	-404.384961	37.637	
C	-0.0101594086	 1.6453860315	 0.2427966562	-0.383055
C	-0.0784291492	 0.1227168874	 0.3798434769	-0.166992
C	-1.2881950763	-0.4804960634	-0.3488708241	-0.261499
C	-1.3764836088	-1.9838215555	-0.1916006852	 0.2197
N	-1.6860018311	-2.5235262667	 1.1560923519	-0.358498
C	-2.653253077	-2.7410858757	 0.0919926024	-0.047005
C	-4.0029654822	-2.0751243499	 0.207444777	-0.403097
C	-0.4034873951	-2.7909271271	-0.9832512536	 0.12381
O	 0.3625707077	-2.355603271	-1.8054740359	-0.265981
H	 0.8563552576	 2.0530648608	 0.7726418936	 0.111437
H	 0.0710044541	 1.9462557367	-0.8076496407	 0.116324
H	-0.9065785148	 2.1225912345	 0.65518408	 0.110569
H	 0.8388122781	-0.3239218626	-0.0193138397	 0.113324
H	-0.1342743544	-0.1557729029	 1.4387141664	 0.107236
H	-2.2047283964	-0.0138885055	 0.0234855684	 0.097178
H	-1.2223012255	-0.2558694419	-1.4196468745	 0.113393
H	-1.1428929056	-3.365343115	 1.3447188256	 0.233513
H	-2.6921992201	-3.7448422739	-0.3344894455	 0.088744
H	-3.9316236198	-1.1160060028	 0.7227504595	 0.137502
H	-4.4453457536	-1.915204743	-0.781037773	 0.126517
H	-4.682805243	-2.7126371173	 0.7825449674	 0.127334
H	-0.4350159558	-3.8835949865	-0.7423227233	 0.059547
71.433	80.1529	106.695	128.1703	189.1439	217.0583	244.2077	281.8417	291.6757	329.256	416.8798	475.4169	508.3241	561.9283	737.3156	766.7378	814.6024	862.6825	884.1077	913.6925	969.3686	1012.7514	1023.1256	1041.6217	1053.8679	1111.9658	1121.7646	1135.6325	1147.838	1239.1196	1248.7162	1291.0613	1312.1839	1337.5762	1364.822	1397.4826	1408.4327	1410.5558	1432.156	1457.6729	1468.8526	1489.9872	1493.9982	1499.5852	1502.1189	1509.0201	1817.4992	2815.2719	3027.3782	3035.3385	3041.7327	3048.68	3068.2779	3088.9558	3089.6144	3101.7189	3102.9635	3104.0364	3142.4884	3463.8769
CCCC1(NC1C)C=O	CCC[C@]1(N[C@H]1C)C=O	
InChI=1S/C7H13NO/c1-3-4-7(5-9)6(2)8-7/h5-6,8H,3-4H2,1-2H3	InChI=1S/C7H13NO/c1-3-4-7(5-9)6(2)8-7/h5-6,8H,3-4H2,1-2H3/t6-,7-/m0/s1
