21
gdb 115789	3.8779	1.04565	0.9343	2.396	78.28	-0.2238	0.0738	0.2977	1319.1327	0.182277	-424.214619	-424.205533	-424.204589	-424.248214	34.74	
C	-0.0145751442	 1.4774044554	-0.0871693766	-0.465441
C	 0.0215916934	-0.0179984488	 0.0454030651	 0.456695
C	-0.8541804911	-0.7706470095	 1.0175354024	-0.36302
C	 0.6651746183	-0.7879685275	 1.1649928528	-0.145111
C	 1.42013745	-1.9318960289	 0.5066965878	 0.001012
C	 1.3296463333	-3.2730106813	 1.2191960359	-0.090046
O	 2.0370036947	-4.2239694492	 0.432733352	-0.424266
C	 0.8053008973	-1.9628970586	-0.9144383096	-0.102908
O	 0.309953407	-0.6525534719	-1.1806064252	-0.298168
H	 0.9390378948	 1.8540077754	-0.4707723322	 0.123194
H	-0.8040930594	 1.7840489463	-0.7811687205	 0.127667
H	-0.2116950019	 1.9454471969	 0.8810660769	 0.114583
H	-1.4084438855	-0.185671341	 1.7440121053	 0.109646
H	-1.3697687385	-1.6648782533	 0.6842987507	 0.113287
H	 1.1136595351	-0.2834948245	 2.0137511574	 0.085372
H	 2.4792828791	-1.6549213185	 0.4394679392	 0.084707
H	 1.7601634919	-3.1914963816	 2.2296909927	 0.087163
H	 0.2716820287	-3.5583105468	 1.3341023827	 0.085812
H	 1.9522098271	-5.0860515287	 0.8499329925	 0.287849
H	 1.5258247795	-2.2191438755	-1.6934695137	 0.119116
H	-0.0101175396	-2.7000909385	-0.9588860357	 0.092857
88.1695	128.5906	178.675	204.7101	210.5701	273.0044	303.2762	355.9429	420.4593	448.8549	483.0482	615.2408	658.6032	718.4913	828.1592	838.1458	908.2387	921.0694	946.6454	968.409	999.8907	1025.6456	1039.9874	1068.1742	1074.8523	1089.3695	1113.8616	1125.7941	1156.6268	1223.9255	1242.2006	1249.2116	1261.4134	1283.076	1324.9937	1352.2771	1387.9329	1402.5749	1429.1208	1456.6203	1477.1397	1483.9095	1504.7886	1515.6538	1525.8517	2967.2643	2991.291	2995.5141	3036.727	3037.7408	3101.6318	3105.8081	3118.2212	3130.2385	3166.7427	3214.732	3831.0415
CC12CC1C(CO)CO2	C[C@]12C[C@H]1[C@@H](CO)CO2	
InChI=1S/C7H12O2/c1-7-2-6(7)5(3-8)4-9-7/h5-6,8H,2-4H2,1H3	InChI=1S/C7H12O2/c1-7-2-6(7)5(3-8)4-9-7/h5-6,8H,2-4H2,1H3/t5-,6-,7-/m0/s1
