20
gdb 95523	2.52475	1.56416	1.25873	0.8392	80.97	-0.2365	0.0131	0.2497	1083.3032	0.172754	-403.135448	-403.127188	-403.126243	-403.168006	32.725	
O	 0.0405786053	 1.4561769977	-0.1011291196	-0.440525
C	 0.0068293566	 0.0335301086	 0.0114737359	 0.032622
C	 0.7484503075	-0.4461378285	 1.2659573394	-0.223902
C	 0.0484147186	 0.0487523322	 2.5407256559	-0.273135
C	-1.4453159348	-0.1387997029	 2.4704155763	-0.081472
C	-2.0994767504	-0.4036453621	 1.3369276777	-0.088257
C	-1.4253033002	-0.4899750748	 0.0152811012	 0.293533
C	-2.205253233	-0.350446963	-1.2439800019	-0.290831
N	-1.7812174388	-1.6838031577	-0.7974897761	-0.3631
H	-0.6037002056	 1.8119616694	 0.5205750539	 0.285865
H	 0.520185906	-0.3299920356	-0.8869597213	 0.069854
H	 0.7666291777	-1.5429958635	 1.2601854145	 0.104473
H	 1.7840886221	-0.0954994761	 1.2344604151	 0.101013
H	 0.4456126703	-0.4779492342	 3.4163237438	 0.110108
H	 0.2849998307	 1.109077085	 2.7120760206	 0.11235
H	-2.0004197573	-0.0574581151	 3.4017919464	 0.090618
H	-3.173856114	-0.5664700692	 1.3439316593	 0.092483
H	-3.2770275378	-0.1743498843	-1.1997912033	 0.116147
H	-1.7034031236	 0.1130384507	-2.0895136547	 0.121872
H	-0.9685286193	-1.9840856668	-1.3325865132	 0.230283
78.895	178.1034	222.355	267.7616	290.9337	302.93	387.441	423.6711	436.5661	554.723	598.1446	670.5128	734.5145	786.5704	855.0738	880.263	891.8087	917.3585	957.2444	970.6825	989.3072	997.6007	1006.3154	1059.5843	1081.7987	1093.5692	1130.4266	1173.3681	1193.7831	1236.3785	1262.25	1272.6786	1303.8255	1339.9159	1357.0527	1377.5138	1381.4101	1420.4473	1445.4658	1473.4094	1485.749	1511.0291	1709.7601	3004.143	3027.8527	3039.1982	3054.1005	3090.5663	3103.865	3149.5619	3172.9302	3189.9426	3480.6924	3809.0111
OC1CCC=CC11CN1	O[C@H]1CCC=C[C@]21CN2	
InChI=1S/C7H11NO/c9-6-3-1-2-4-7(6)5-8-7/h2,4,6,8-9H,1,3,5H2	InChI=1S/C7H11NO/c9-6-3-1-2-4-7(6)5-8-7/h2,4,6,8-9H,1,3,5H2/t6-,7+/m0/s1
