15
gdb 132945	2.37521	1.74954	1.0137	2.5355	72.71	-0.2233	-0.0297	0.1936	1090.213	0.112926	-461.936616	-461.928947	-461.928003	-461.96876	29.099	
C	 0.1393315873	 1.4751713092	 0.0441834322	-0.470699
C	-0.0022251919	-0.0175979799	 0.018139496	 0.172125
C	-0.0917214493	-0.7020294675	-1.1357146988	-0.018428
O	-0.2213799447	-2.0526074694	-1.2355609451	-0.197989
C	-0.2636596863	-2.7635441067	-0.0836678827	-0.057596
C	-0.1824025152	-2.1772991626	 1.1187475666	 0.13694
F	-0.2292880263	-2.9266337986	 2.2244365974	-0.074815
C	-0.0425892834	-0.7367896747	 1.2958790483	 0.141235
N	 0.0400477363	-0.1184209855	 2.4203396724	-0.546628
H	 1.0570758692	 1.7608730191	 0.5677030317	 0.148552
H	 0.1565181466	 1.8955823949	-0.9645873392	 0.113115
H	-0.6846544401	 1.9253072256	 0.6066339023	 0.14859
H	-0.0699425785	-0.2469756426	-2.1175251659	 0.135515
H	-0.3675455406	-3.8280916016	-0.2415498924	 0.150954
H	-0.0067565432	-0.7896583399	 3.1894491671	 0.21913
105.5869	175.1523	261.2573	281.4148	315.7163	316.5161	456.2174	458.9712	505.9292	508.9379	582.2975	671.3579	760.5927	850.6671	869.5312	883.3592	907.8997	948.5932	1021.6908	1067.1624	1089.3719	1201.74	1252.6471	1297.1827	1331.7293	1384.0375	1416.4958	1463.5492	1465.8549	1486.3344	1650.2393	1669.0672	1723.1665	3042.186	3102.0287	3124.2711	3223.6919	3236.8187	3459.3611
CC1=COC=C(F)C1=N	CC1=COCC(=C1[NH])F	
InChI=1S/C6H6FNO/c1-4-2-9-3-5(7)6(4)8/h2-3,8H,1H3	InChI=1S/C6H7FNO/c1-4-2-9-3-5(7)6(4)8/h2,8H,3H2,1H3
