21
gdb 111644	2.40295	1.39739	1.26296	1.6164	82.73	-0.2323	0.0349	0.2672	1135.818	0.184744	-387.084814	-387.076338	-387.075394	-387.117951	32.928	
O	 0.9134025971	-0.3720354896	 1.1441283515	-0.418379
C	 0.2417232872	-0.1636214157	-0.0977640311	-0.085326
C	-1.2211219863	-0.5404900499	-0.0388793818	-0.057082
C	-1.9772482022	-1.1626176481	-1.1974698523	-0.063693
C	-1.3134015352	-1.5050140809	-2.52368399	-0.276695
C	-0.3117101648	-2.6260229595	-2.4593429203	-0.051319
C	-0.0351151405	-3.3339501968	-1.3663994912	-0.046212
C	-0.6749448364	-3.1261125424	-0.0212199371	-0.277764
C	-1.6767627526	-1.9815064828	 0.0396456564	-0.050185
H	 0.4178523185	 0.0954562513	 1.8242168843	 0.277162
H	 0.340021273	 0.885676264	-0.419482496	 0.083682
H	 0.7807677136	-0.7768302559	-0.8226110927	 0.121718
H	-1.8109965147	 0.1569312978	 0.555495064	 0.070541
H	-3.0010984633	-0.816942626	-1.3043737062	 0.080557
H	-2.0979545817	-1.7845722286	-3.2411589263	 0.109908
H	-0.8397633282	-0.6141690072	-2.9620949828	 0.106468
H	 0.2011978491	-2.8564036933	-3.3904382434	 0.081901
H	 0.7019454466	-4.1320372151	-1.4209364612	 0.08338
H	-1.1836890433	-4.0567916077	 0.2658360845	 0.103714
H	 0.1074362743	-2.9745573102	 0.7347658955	 0.129313
H	-2.5130776201	-2.1652915237	 0.7073579261	 0.078312
82.8939	126.2294	135.4564	222.1159	284.2406	321.2824	386.4682	452.9961	488.5044	553.6054	587.6429	682.4556	743.9483	787.3067	818.2926	893.2028	920.7963	939.631	952.5337	966.8298	1001.7729	1013.6611	1041.0523	1057.6789	1076.7471	1114.5117	1117.3151	1146.7923	1196.4232	1216.937	1237.2456	1249.5384	1277.0103	1352.2513	1361.0389	1366.61	1374.3952	1391.1069	1424.0316	1434.5873	1455.6087	1475.9747	1480.5478	1513.0098	1734.9448	2972.4898	2995.7618	3007.6387	3014.4918	3032.758	3095.7901	3115.6955	3137.0357	3139.1044	3150.0157	3162.8483	3812.3546
OCC1C2CC=CCC12	OC[C@H]1[C@H]2CC=CC[C@@H]12	
InChI=1S/C8H12O/c9-5-8-6-3-1-2-4-7(6)8/h1-2,6-9H,3-5H2	InChI=1S/C8H12O/c9-5-8-6-3-1-2-4-7(6)8/h1-2,6-9H,3-5H2/t6-,7+,8-
