14
gdb 11239	4.21859	1.52777	1.31336	4.1637	63.29	-0.2331	0.0109	0.244	919.6458	0.110185	-374.931661	-374.92447	-374.923525	-374.963366	26.524	
N	 0.0799853936	 1.3164449583	 0.2047131165	-0.577084
C	-0.0314321903	-0.0442552558	 0.0355655981	 0.421979
N	-1.118333487	-0.7126474388	 0.0998465155	-0.298143
C	-0.7673504848	-2.1182083621	-0.0578317968	-0.176043
C	 0.808370071	-2.1758730684	-0.0306348668	-0.126508
N	 1.1541506729	-0.7584148473	-0.2210328321	-0.348958
C	 1.3385634992	-2.7081888059	 1.2317417576	 0.262066
N	 1.7694857647	-3.11967466	 2.2225089735	-0.318091
H	 0.7734944171	 1.7658735595	-0.3759566986	 0.258288
H	-0.814822123	 1.7846056791	 0.1853165658	 0.268524
H	-1.2053645846	-2.7365265572	 0.7307847831	 0.13084
H	-1.1328316568	-2.5007294679	-1.0184995674	 0.11697
H	 1.2044780479	-2.7882101819	-0.8458061621	 0.132718
H	 1.9742000799	-0.4388905017	 0.2795153638	 0.253442
67.2929	163.0021	242.2276	272.1801	375.2089	403.8991	474.4449	563.5738	578.2531	664.6443	709.9129	742.2583	792.3894	824.9649	948.6071	999.2146	1016.0817	1051.746	1093.7185	1171.7686	1217.3234	1258.652	1318.5201	1340.0007	1380.3946	1470.9193	1506.2183	1628.415	1751.5255	2350.9682	3029.7963	3065.9335	3083.5639	3566.5108	3569.6818	3671.8433
NC1=NCC(N1)C#N	N[C]1[N]C[C@@H](N1)C#N	
InChI=1S/C4H6N4/c5-1-3-2-7-4(6)8-3/h3H,2H2,(H3,6,7,8)	InChI=1S/C4H6N4/c5-1-3-2-7-4(6)8-3/h3H,2H2,(H3,6,7,8)/t3-/m0/s1
