21
gdb 103621	2.68616	1.15888	0.9833	2.0299	74.08	-0.2495	0.0523	0.3018	1275.1079	0.180451	-461.342069	-461.331891	-461.330947	-461.376849	38.116	
C	-0.5973341887	 1.6428603776	 0.0728760616	-0.47258
C	-0.0736307208	 0.2111572483	 0.0250939073	 0.293702
C	-1.204883379	-0.7887350711	-0.2568544717	-0.112203
O	-1.7793378266	-0.6413763473	-1.5442997262	-0.422597
C	 1.1646081365	-0.0510227345	-0.8881019446	-0.318358
C	 1.8169241051	-0.8669252155	 0.2616958638	 0.143634
O	 3.1601043698	-0.6298307881	 0.5903261028	-0.444428
C	 0.7595131832	-0.2725592954	 1.2510728537	 0.019087
O	 1.297726993	 0.8280783097	 1.969371677	-0.439123
H	 0.1891929524	 2.3379048089	 0.3720863665	 0.13495
H	-0.9575192398	 1.953893714	-0.9148649431	 0.106044
H	-1.421912703	 1.7471991571	 0.7881960548	 0.111741
H	-0.8219577074	-1.8150807497	-0.228538621	 0.107907
H	-1.9674309359	-0.7052252283	 0.5354801045	 0.086751
H	-2.2221536249	 0.2121259574	-1.575852101	 0.286093
H	 0.9702971604	-0.5638542709	-1.8323672358	 0.113468
H	 1.7302281133	 0.8629801828	-1.0930535445	 0.093779
H	 1.7129140342	-1.9467617902	 0.1295154183	 0.089284
H	 3.2051363053	 0.2993273868	 0.8503437482	 0.275057
H	 0.2562459947	-0.9713931266	 1.9336507777	 0.056378
H	 1.8173619381	 0.4682008652	 2.6961886418	 0.291414
70.6343	109.6803	160.1615	185.1676	200.4505	256.6371	267.7719	311.2164	328.7423	356.5694	375.5251	422.8124	519.274	545.3063	612.5845	681.6595	762.4084	841.4147	872.6471	917.4778	940.7424	967.3202	997.5006	1053.9376	1077.6376	1107.8034	1116.7193	1151.7519	1156.8261	1190.2354	1221.45	1248.1197	1278.5585	1283.7843	1323.982	1330.4384	1374.2632	1402.6098	1421.2748	1427.6242	1441.7054	1483.0272	1491.7773	1494.3968	1505.5877	2965.3181	2999.1032	3023.0809	3057.4599	3061.3273	3080.7193	3081.8328	3119.5412	3129.008	3767.6357	3811.187	3825.2959
CC1(CO)CC(O)C1O	C[C@@]1(CO)C[C@@H](O)[C@H]1O	
InChI=1S/C6H12O3/c1-6(3-7)2-4(8)5(6)9/h4-5,7-9H,2-3H2,1H3	InChI=1S/C6H12O3/c1-6(3-7)2-4(8)5(6)9/h4-5,7-9H,2-3H2,1H3/t4-,5-,6+/m1/s1
