14
gdb 45915	2.9786	1.47445	1.00374	3.9065	66.87	-0.2617	-0.0614	0.2003	1089.1777	0.103295	-470.073964	-470.066312	-470.065368	-470.106761	28.071	
N	-0.094393946	 1.3273666178	-0.3317914621	-0.505168
C	-0.0170784798	 0.1011626815	-0.0117006338	 0.392644
C	-1.2929130812	-0.694746806	 0.1537796939	-0.218297
N	-1.1391405789	-1.8356880881	 1.0392269726	-0.349149
C	 0.0006010421	-2.5632268921	 1.2143770227	 0.326167
O	 0.0479490856	-3.6196355095	 1.799703373	-0.327866
C	 1.2884665999	-1.9160538288	 0.6614619489	 0.32727
O	 2.3562428287	-2.467987674	 0.7210326347	-0.307412
N	 1.1545451703	-0.637132066	 0.1362516887	-0.391658
H	 0.8249855527	 1.7481482996	-0.4777113172	 0.21929
H	-2.0552603492	-0.0191036527	 0.5439997006	 0.161736
H	-1.6185680649	-1.0108538674	-0.8490131871	 0.148234
H	-1.9777453448	-2.2901109956	 1.3732483999	 0.263633
H	 2.0336680556	-0.1941351088	-0.1052161446	 0.260575
66.8411	116.6338	139.006	343.9366	387.5971	410.0488	426.6112	495.8289	552.7039	610.0769	622.0222	667.9449	681.1733	804.8117	822.3656	881.398	915.4393	1017.2704	1076.9591	1142.3176	1236.6801	1253.5977	1338.195	1391.3776	1396.964	1421.5961	1474.8585	1509.8279	1744.4794	1820.323	1831.3372	2992.5932	3120.6833	3461.0366	3564.7833	3601.9692
N=C1CNC(=O)C(=O)N1	[NH][C]1CNC(=O)C(=O)N1	
InChI=1S/C4H5N3O2/c5-2-1-6-3(8)4(9)7-2/h1H2,(H,6,8)(H2,5,7,9)	InChI=1S/C4H5N3O2/c5-2-1-6-3(8)4(9)7-2/h1H2,(H,6,8)(H2,5,7,9)
