17
gdb 69141	2.68106	1.7488	1.35891	4.6742	72.14	-0.2381	-0.017	0.2211	981.166	0.136842	-417.982208	-417.974745	-417.973801	-418.013841	29.499	
C	 0.0031376117	 1.5023070746	-0.0059634404	-0.480534
C	-0.0558481942	-0.0051817287	 0.0067572647	 0.32496
C	-0.618905963	-0.7636088605	 1.1534180635	-0.290574
N	 0.8528095173	-0.7078963985	 0.9350605164	-0.175344
C	 1.4644058859	-1.8109549499	 0.2497744196	 0.426627
O	 2.2167041237	-2.591647492	 0.7627288553	-0.318404
C	 1.051378898	-1.7773038516	-1.2123524249	-0.159286
N	-0.3972822256	-2.1129621029	-1.3211324338	-0.3393
C	 0.0329192799	-0.7081767811	-1.3428995381	-0.11103
H	 0.8567027061	 1.8561233198	-0.5946809925	 0.126095
H	-0.9094695826	 1.9221215584	-0.4434285027	 0.123342
H	 0.1105169931	 1.8901392677	 1.0096931208	 0.137093
H	-0.9527662598	-0.2283128178	 2.0380297077	 0.123147
H	-1.1176087797	-1.703944357	 0.9498865386	 0.156892
H	 1.7404255769	-2.0970289321	-1.9849581773	 0.114093
H	-0.5827165951	-2.4295640244	-2.2702944924	 0.244488
H	-0.0813368627	-0.1209281141	-2.2470045746	 0.097734
134.4717	194.3826	200.8417	290.5884	316.8117	373.1781	465.8264	517.4034	580.9776	620.3721	720.8513	764.0731	790.4021	833.0482	862.3019	875.972	926.3811	930.8658	957.4926	1006.2271	1041.3399	1100.0464	1106.2236	1126.8527	1130.3432	1141.0605	1171.3165	1251.8523	1278.6324	1353.7001	1370.0638	1409.675	1421.4909	1484.4817	1493.3261	1496.8912	1859.0131	3032.9017	3095.1034	3120.5326	3126.367	3177.1336	3191.0906	3226.5266	3498.2091
CC12CN1C(=O)C1NC21	C[C@]12CN1C(=O)[C@H]1N[C@@H]21	
InChI=1S/C6H8N2O/c1-6-2-8(6)5(9)3-4(6)7-3/h3-4,7H,2H2,1H3	InChI=1S/C6H8N2O/c1-6-2-8(6)5(9)3-4(6)7-3/h3-4,7H,2H2,1H3/t3-,4+,6+,8?/m0/s1
