23
gdb 115622	2.46865	1.15572	0.96276	1.7575	86.37	-0.2375	0.0776	0.3151	1380.5611	0.204477	-388.267164	-388.257281	-388.256337	-388.302072	36.78	
C	-0.0162439656	 1.5735509322	-0.3918823296	-0.383773
C	 0.0674199448	 0.0729635466	-0.0968154099	-0.188937
C	-1.2935659881	-0.526872291	 0.216923531	 0.08453
O	-2.2132531036	-0.4213486522	-0.9046389238	-0.301303
C	-2.4146654841	-1.8498121625	-0.9536870685	-0.139839
C	-1.4514589351	-2.0508572646	 0.2089874274	 0.278514
C	-0.4056126479	-3.1126546686	 0.3834217458	-0.357024
C	-1.5571595418	-3.0041610239	 1.3606465519	-0.057509
C	-1.3196866792	-2.5410737867	 2.7811108995	-0.409117
H	 0.9649896886	 1.9821850752	-0.6508015909	 0.109245
H	-0.6964217416	 1.7575875388	-1.2281116163	 0.138236
H	-0.3923091856	 2.1280740214	 0.475186934	 0.111668
H	 0.4963626906	-0.4584431932	-0.9546262607	 0.098736
H	 0.734183207	-0.1099842331	 0.7567914956	 0.091466
H	-1.7237173683	-0.0372251802	 1.1046172694	 0.067474
H	-3.4610781375	-2.1232566058	-0.7601110942	 0.096695
H	-2.1079701914	-2.2754142074	-1.918762595	 0.09872
H	-0.393288844	-3.9388911004	-0.3209555338	 0.110391
H	 0.5786718248	-2.8073513659	 0.7270175654	 0.112446
H	-2.3293363836	-3.7645859682	 1.2587076715	 0.082989
H	-0.5346468084	-1.7785400977	 2.8241253202	 0.116534
H	-2.2259736572	-2.1074218735	 3.2183972132	 0.120193
H	-1.0057797728	-3.3735326894	 3.4200094077	 0.119665
69.4523	95.3418	140.0525	161.3094	206.5467	211.5783	227.6461	288.2663	404.4216	409.8925	441.9785	496.5889	584.8921	760.587	783.2228	851.9907	865.1234	895.1265	917.8991	941.1733	961.8102	991.984	1017.0354	1049.2079	1058.9102	1087.4992	1107.6959	1125.025	1131.3018	1150.5313	1163.2426	1184.0991	1232.2366	1268.3169	1289.7123	1315.0199	1334.4119	1367.878	1401.4807	1408.3602	1413.4229	1439.7292	1475.0055	1491.3711	1494.191	1497.7938	1509.8554	1510.8318	1526.127	2977.0009	2995.424	3018.7123	3027.2363	3033.3672	3035.7499	3062.4085	3090.124	3093.567	3102.267	3117.3468	3120.0668	3123.8409	3200.9108
CCC1OCC11CC1C	CC[C@H]1OC[C@]21C[C@H]2C	
InChI=1S/C8H14O/c1-3-7-8(5-9-7)4-6(8)2/h6-7H,3-5H2,1-2H3	InChI=1S/C8H14O/c1-3-7-8(5-9-7)4-6(8)2/h6-7H,3-5H2,1-2H3/t6-,7-,8-/m1/s1
