25
gdb 115388	2.80861	1.05899	0.96702	1.0106	89.09	-0.2456	0.0777	0.3233	1414.0007	0.229935	-389.51399	-389.504222	-389.503278	-389.548535	37.452	
C	-0.0242743678	 1.4180780553	-0.0730059641	-0.233794
O	-0.028358018	 0.0331993165	 0.1738984223	-0.246668
C	-1.3046662966	-0.5930639512	 0.0633951282	 0.144237
C	-1.7425671541	-0.7680195439	-1.4013828643	-0.236766
C	-0.805990845	-1.7152525102	-2.1628178848	-0.177117
C	-0.6870674883	-3.0873024327	-1.476330388	 0.053701
C	 0.2599482837	-4.0195536367	-2.2363084873	-0.402972
C	-0.2533143973	-2.9049194698	-0.011246234	-0.178228
C	-1.1847734936	-1.9552071659	 0.7541307033	-0.230435
H	 0.9816091885	 1.7826939444	 0.1521390139	 0.124124
H	-0.2556089014	 1.6681093063	-1.118875069	 0.105324
H	-0.7436718323	 1.9476466795	 0.5720444002	 0.100699
H	-2.0478845847	 0.0241639188	 0.5952650385	 0.051486
H	-2.7649797711	-1.1689755487	-1.4027783818	 0.091673
H	-1.7966857957	 0.2046349891	-1.9027194695	 0.089504
H	-1.1569773337	-1.8395730886	-3.194201019	 0.08264
H	 0.191198463	-1.2603705946	-2.2213224863	 0.101883
H	-1.688334473	-3.5468972797	-1.4745235511	 0.060718
H	 1.2744015464	-3.6047070509	-2.2687642746	 0.11224
H	 0.3189133753	-5.0035028046	-1.7585613901	 0.106605
H	-0.0713442557	-4.1677647241	-3.2699556209	 0.105778
H	-0.2176605544	-3.8778512974	 0.493416429	 0.082312
H	 0.7655277842	-2.4989113969	 0.0124364085	 0.107894
H	-0.8236488049	-1.8039515317	 1.7765497696	 0.096457
H	-2.1884523534	-2.3937975124	 0.8258817114	 0.088704
63.4353	95.1626	169.8369	196.8778	232.5024	240.145	300.1967	312.8658	364.2472	411.5087	432.4897	482.858	514.5599	670.7425	777.7638	784.1129	834.4911	881.6917	908.6002	942.0819	971.4884	982.1197	984.8369	1041.1094	1079.766	1104.0043	1114.9398	1131.7716	1156.0353	1174.0957	1182.6258	1220.8893	1227.5125	1267.5014	1291.5925	1331.9968	1334.1654	1353.2235	1376.8982	1378.9606	1380.5724	1389.4254	1404.3511	1414.0407	1469.7784	1477.694	1480.3342	1481.2564	1495.2611	1498.7899	1500.1877	1500.731	1510.3018	2954.8241	2972.7891	2974.8326	3018.1993	3020.1964	3022.3774	3022.8015	3027.4791	3030.7342	3060.1481	3065.1258	3067.9749	3079.3743	3089.834	3093.5066	3105.2913
COC1CCC(C)CC1	CO[C@H]1CC[C@@H](C)CC1	
InChI=1S/C8H16O/c1-7-3-5-8(9-2)6-4-7/h7-8H,3-6H2,1-2H3	InChI=1S/C8H16O/c1-7-3-5-8(9-2)6-4-7/h7-8H,3-6H2,1-2H3/t7-,8+
