21
gdb 92085	2.55758	1.54428	1.2735	2.8243	77.01	-0.2532	0.0775	0.3307	1091.3237	0.184255	-424.232394	-424.224179	-424.223235	-424.264669	33.052	
C	-0.0431642189	 1.5734842466	 0.0180904276	-0.408812
C	 0.0147366181	 0.0442855307	 0.0297610817	 0.023655
C	 0.6269226106	-0.5005940513	-1.2785741933	-0.245281
C	 1.0578089212	-1.9537793346	-1.2070765473	 0.037488
O	 2.3010384183	-2.216219634	-0.5211030294	-0.268805
C	 1.0747854684	-2.692602169	 0.0675855411	 0.058789
C	 0.6642514826	-2.0160665029	 1.3551259524	-0.279665
C	 0.7739915672	-0.4831788506	 1.2665841082	 0.118637
O	 2.1274170468	-0.0516881616	 1.2925263296	-0.450873
H	 0.9689981991	 1.9865489786	 0.0569784055	 0.135417
H	-0.5370952527	 1.9484545486	-0.8845895373	 0.104491
H	-0.5943796752	 1.953987403	 0.8845410833	 0.109098
H	-1.0104529938	-0.3465906987	 0.106166511	 0.065355
H	-0.0955188956	-0.3838074804	-2.0938692066	 0.103683
H	 1.5030831769	 0.0972661715	-1.5597951837	 0.120098
H	 0.964633927	-2.5271041845	-2.1290347652	 0.095265
H	 0.9734833688	-3.7778899865	 0.0391523177	 0.093965
H	-0.3689021998	-2.3046290658	 1.5870881307	 0.104582
H	 1.2924657552	-2.3757143325	 2.1781604971	 0.115624
H	 0.312209311	-0.050750868	 2.162407074	 0.077132
H	 2.6027558248	-0.6170079386	 0.6667687128	 0.290157
113.2131	194.2197	223.4763	248.7248	310.4898	340.6475	361.0662	397.9938	465.1819	569.7584	584.9151	605.1225	717.2616	763.5545	808.0659	858.9511	867.0158	913.7797	923.2861	970.4608	1002.8991	1034.2694	1049.7154	1073.7712	1084.2966	1110.8498	1163.7581	1180.3493	1229.5544	1248.8119	1272.4659	1297.7391	1320.0945	1337.9304	1360.6629	1381.2891	1383.1974	1400.1078	1409.0452	1457.9642	1464.5461	1473.6043	1483.5431	1495.1871	1505.2209	2995.7003	3024.797	3030.1278	3033.1197	3039.9021	3070.7405	3071.8326	3096.3871	3103.4084	3115.2617	3117.4955	3721.7394
CC1CC2OC2CC1O	C[C@H]1C[C@H]2O[C@H]2C[C@H]1O	
InChI=1S/C7H12O2/c1-4-2-6-7(9-6)3-5(4)8/h4-8H,2-3H2,1H3	InChI=1S/C7H12O2/c1-4-2-6-7(9-6)3-5(4)8/h4-8H,2-3H2,1H3/t4-,5+,6+,7-/m0/s1
