15
gdb 17509	4.80392	1.78759	1.62557	4.2858	69.25	-0.2724	0.0169	0.2893	805.9271	0.120911	-325.491721	-325.48561	-325.484666	-325.521772	24.429	
N	 0.0316308748	-1.177159054	 0.0243584511	-0.344552
C	 0.0039534894	-0.0208299657	-0.0035886914	 0.155221
C	-0.0327254713	 1.4153482324	-0.0472671462	 0.202978
C	-1.1008769695	 2.2198783519	 0.759691764	-0.266739
C	-0.9326264839	 3.2994809136	-0.304631623	-0.068651
C	 0.5504561746	 3.3252537216	-0.7091622852	-0.068652
C	 1.2705083594	 2.2610789942	 0.1128556955	-0.266766
C	-0.3937074307	 2.3163989995	-1.3132117355	-0.113317
H	-2.0827806356	 1.7455827669	 0.6985303772	 0.123045
H	-0.8563584659	 2.4456769489	 1.8027647551	 0.106375
H	-1.5777794913	 4.1463159902	-0.4946474778	 0.10035
H	 0.9820808128	 4.1907969736	-1.1928887509	 0.100353
H	 1.5821679863	 2.4880313507	 1.1376171103	 0.106378
H	 2.1002026794	 1.8183101052	-0.4424762937	 0.123045
H	-0.6660674687	 2.0676219209	-2.3275811096	 0.110931
166.0773	169.3007	411.0686	424.6679	503.7003	553.9862	555.5381	718.9728	743.6325	788.8698	801.7591	899.0531	922.4615	939.6823	967.8697	995.2998	1005.1761	1027.6522	1039.7533	1085.9353	1091.4132	1145.1349	1158.1454	1168.5006	1237.0953	1249.8501	1294.0961	1304.6796	1361.0025	1492.0545	1509.8906	2349.2704	3045.4018	3051.5826	3115.8314	3118.6232	3207.812	3214.0706	3238.6711
N#CC12CC3C(C1)C23	N#C[C@@]12C[C@H]3[C@@H](C1)[C@@H]23	
InChI=1S/C7H7N/c8-3-7-1-4-5(2-7)6(4)7/h4-6H,1-2H2	InChI=1S/C7H7N/c8-3-7-1-4-5(2-7)6(4)7/h4-6H,1-2H2/t4-,5+,6-,7+
