19
gdb 58979	3.79467	1.06162	0.84596	5.749	85.74	-0.2019	0.0029	0.2048	1359.5313	0.159718	-419.227593	-419.218463	-419.217519	-419.26159	33.23	
C	-0.0052191203	 1.4146225543	 0.0445787142	-0.337367
N	 0.1452208102	-0.0284436341	-0.0038386968	-0.140208
C	-0.1813152738	-0.7576911123	 1.2095253916	-0.350137
C	 0.0610555326	-0.6378080535	-1.2216903958	 0.40201
C	-0.021102982	-0.0991992693	-2.4592218299	-0.3687
C	-0.0035534612	-1.1652230747	-3.4452922754	 0.430966
N	-0.0531824086	-1.0666777858	-4.7082875264	-0.570744
O	 0.0736899308	-2.3780849951	-2.7712415432	-0.258282
C	 0.1087017409	-2.1437587971	-1.3724388045	-0.183583
H	 0.6435509787	 1.8781553039	-0.7034432286	 0.147097
H	-1.0396018978	 1.7380692366	-0.1474896011	 0.12582
H	 0.2945832777	 1.7760057769	 1.0311796699	 0.127887
H	-1.2638608408	-0.7948103275	 1.4092565893	 0.124947
H	 0.1924029664	-1.7819884391	 1.1535013186	 0.144751
H	 0.3037150067	-0.2748925953	 2.0626571203	 0.13435
H	-0.0923264526	 0.9388482366	-2.7386172802	 0.110273
H	-0.0301562774	-1.9931389732	-5.1354732163	 0.213271
H	 1.0267516583	-2.574791227	-0.9492951381	 0.125497
H	-0.7477713081	-2.6424466144	-0.8984662877	 0.122152
91.0696	115.5285	154.4419	169.9405	197.8467	226.9711	250.6775	368.9923	412.8299	516.4072	541.7891	570.6324	689.6463	703.4098	810.977	848.7879	878.2123	898.3761	966.395	1033.8286	1052.3959	1084.2652	1101.0542	1126.9425	1164.7675	1181.6935	1217.4598	1231.6597	1281.8857	1347.464	1385.8841	1424.7093	1450.6433	1479.4665	1484.6074	1489.0124	1505.5842	1509.7948	1523.1982	1679.8147	1758.9204	2980.7132	2993.0996	3002.9008	3032.2408	3080.3312	3081.9861	3123.8824	3129.7044	3270.7356	3484.5475
CN(C)C1=CC(=N)OC1	CN(C)[C]1C=C([NH])OC1	
InChI=1S/C6H10N2O/c1-8(2)5-3-6(7)9-4-5/h3,7H,4H2,1-2H3	InChI=1S/C6H10N2O/c1-8(2)5-3-6(7)9-4-5/h3,7H,4H2,1-2H3
