18
gdb 68968	2.57838	1.62897	1.20742	1.909	83.97	-0.2276	-0.0017	0.2259	1072.5801	0.146833	-364.769785	-364.761413	-364.760469	-364.802216	32.994	
C	-0.0289004391	 1.5154556947	-0.0546659068	-0.461542
C	-0.0654201648	 0.0145418669	 0.0664684973	 0.25646
C	-1.3632897642	-0.7348213571	-0.2566749704	-0.338171
C	-1.3162186988	-1.9621903005	 0.6259088746	-0.087812
C	-0.255044032	-1.9525650007	 1.4351661593	-0.151612
C	 0.6171546315	-0.7594321197	 1.1791745962	 0.081277
N	 1.1946513326	-0.6819678779	-0.1983655219	-0.392614
C	 1.3784298595	-0.1740857433	 2.2437885224	 0.267123
C	 1.9915987866	 0.3056050835	 3.1604388506	-0.415086
H	 0.9266328891	 1.9031446635	 0.303951576	 0.141367
H	-0.1498896658	 1.8196896594	-1.1005922606	 0.119864
H	-0.8347450393	 1.9741541189	 0.5277653567	 0.11797
H	-2.239856592	-0.1132623555	-0.0311821969	 0.118164
H	-1.4318682384	-0.9855294364	-1.3238657089	 0.116017
H	-2.0553722428	-2.7528098203	 0.5694010891	 0.103859
H	-0.0004568891	-2.7008843033	 2.1753540356	 0.109299
H	 1.0329226899	-1.5745257589	-0.6630431503	 0.225797
H	 2.5418611272	 0.7319609469	 3.962133718	 0.189639
127.6675	142.2048	172.2385	221.756	305.0559	373.1943	379.7959	481.1852	518.5049	534.6063	579.5162	600.4235	651.2912	652.902	728.8112	748.705	779.691	874.4787	932.7362	951.7938	960.5288	972.6459	1053.939	1071.6622	1086.7789	1118.6627	1148.0266	1188.3146	1242.6409	1269.3604	1320.3087	1372.0128	1401.6143	1423.2544	1470.0883	1485.6145	1491.5233	1663.5758	2239.132	3017.5329	3034.2548	3045.7786	3095.4885	3133.74	3195.0738	3222.1852	3468.964	3502.8858
CC12CC=CC1(N2)C#C	C[C@]12CC=C[C@]1(N2)C#C	
InChI=1S/C8H9N/c1-3-8-6-4-5-7(8,2)9-8/h1,4,6,9H,5H2,2H3	InChI=1S/C8H9N/c1-3-8-6-4-5-7(8,2)9-8/h1,4,6,9H,5H2,2H3/t7-,8+/m0/s1
