20
gdb 92971	2.44894	1.3613	1.11321	2.9689	81.35	-0.2082	-0.0158	0.1924	1191.4458	0.169301	-403.164026	-403.154555	-403.153611	-403.198933	34.299	
C	 0.0896335372	 1.5297624456	 1.1877593313	-0.329184
N	 0.1473770286	 0.2315124145	 0.5490553558	-0.067944
C	-1.017123567	-0.1241047265	-0.2691568344	-0.201246
C	-1.0823303335	-1.6203339053	-0.1424539797	-0.089658
C	-0.251736726	-2.0497484971	 0.802253363	-0.077335
C	 0.5022913413	-0.891114681	 1.4165812848	-0.106119
C	 2.014487497	-1.1947419338	 1.4687536985	 0.374723
C	 2.8329079681	-0.8531936311	 0.2420921115	-0.468359
O	 2.4870318569	-1.7223207548	 2.4486220091	-0.307313
H	 1.0328692799	 1.7397306335	 1.7023849235	 0.123504
H	-0.0564359185	 2.3102162111	 0.4339143917	 0.12152
H	-0.7263808122	 1.6172100494	 1.9297032404	 0.098241
H	-1.9526584872	 0.3373438156	 0.1032044838	 0.092832
H	-0.8947195771	 0.2188056793	-1.3070081796	 0.107936
H	-1.7558812302	-2.2320835781	-0.7297148344	 0.107504
H	-0.106057043	-3.0692392692	 1.1351935968	 0.11875
H	 0.1921059364	-0.7513831088	 2.4683060959	 0.084548
H	 2.9063031128	 0.2333535681	 0.1318342223	 0.1454
H	 3.8303911446	-1.2838931667	 0.3380159185	 0.132116
H	 2.3371634018	-1.2188517145	-0.6621727788	 0.140083
44.7126	86.465	135.8348	164.8869	182.3871	214.6121	312.8844	337.3727	395.7887	459.8467	533.412	579.8984	631.9613	715.9568	792.0993	817.4316	903.7325	944.0286	967.4436	980.0823	1010.9943	1036.8231	1047.2746	1072.8813	1125.0244	1149.9959	1192.7524	1211.5767	1223.4415	1250.9552	1288.7767	1317.1241	1347.7012	1380.2051	1387.3138	1451.4756	1463.2744	1467.4509	1489.5539	1505.0483	1520.0067	1686.3974	1810.6231	2907.975	2928.2834	2935.4908	2998.4034	3048.7344	3057.2934	3099.4049	3111.2397	3154.1641	3205.2599	3231.0058
CN1CC=CC1C(C)=O	CN1CC=C[C@H]1C(=O)C	
InChI=1S/C7H11NO/c1-6(9)7-4-3-5-8(7)2/h3-4,7H,5H2,1-2H3	InChI=1S/C7H11NO/c1-6(9)7-4-3-5-8(7)2/h3-4,7H,5H2,1-2H3/t7-/m0/s1
