17
gdb 37940	2.87012	1.9857	1.45291	1.1011	71.01	-0.2288	0.0092	0.238	902.2379	0.139681	-417.952501	-417.945954	-417.94501	-417.983284	26.5	
C	 0.0186854748	 1.5024039621	-0.1588458913	-0.189923
C	 1.5605815163	 1.4546483781	 0.0798980196	 0.011736
N	 2.1792218724	 2.2466133425	 1.1156915819	-0.269757
C	 2.1066458776	 1.9914612466	 2.3502746365	 0.12607
O	 1.4458905959	 1.0404826969	 3.0607334641	-0.222566
C	 0.2382216843	 0.455175061	 2.5443145813	-0.115592
C	 0.4062052402	-0.3820233925	 1.2933042786	-0.032336
C	 1.3810757555	-0.0605248623	 0.2373691424	-0.06464
N	-0.1109705589	 0.0088096848	-0.0467475957	-0.151007
H	-0.5737451817	 2.0817797025	 0.5540759608	 0.1079
H	-0.2525192634	 1.8084052636	-1.1704455281	 0.12042
H	 2.082453447	 1.6827357812	-0.8521873765	 0.098689
H	 2.6817999012	 2.6004568627	 3.0491278406	 0.122744
H	-0.1148092209	-0.1767765817	 3.3613030484	 0.127412
H	-0.5033376173	 1.249446714	 2.404064886	 0.123881
H	 0.2436512103	-1.4458168282	 1.4444918431	 0.108686
H	 2.0168634368	-0.8143308115	-0.2161349114	 0.098283
141.0059	210.0305	304.36	376.3648	425.2266	480.8128	544.4246	656.6	705.4293	755.4932	776.1926	835.0957	849.5098	908.6207	933.4861	969.2574	978.6023	987.9617	1030.4808	1060.8475	1077.2985	1101.2441	1120.6789	1176.2941	1195.7444	1247.021	1250.9563	1293.5903	1299.5422	1350.308	1376.9976	1414.3544	1434.2201	1437.7674	1485.9007	1520.1632	1737.5294	3046.5088	3067.896	3074.6882	3110.2013	3124.5358	3130.0194	3145.6257	3163.7811
C1C2N=COCC3C2N13	C1[C@H]2N=COC[C@@H]3[C@H]2N13	
InChI=1S/C6H8N2O/c1-4-6-5(8(1)6)2-9-3-7-4/h3-6H,1-2H2	InChI=1S/C6H8N2O/c1-4-6-5(8(1)6)2-9-3-7-4/h3-6H,1-2H2/t4-,5-,6+,8?/m1/s1
