19
gdb 38145	2.95299	1.79272	1.30617	1.4147	79.28	-0.2324	0.0139	0.2463	990.4635	0.162306	-385.887764	-385.880805	-385.879861	-385.918991	28.491	
C	-0.0915094505	 1.4207601524	 0.1218291166	-0.357434
C	 1.3187144347	 0.8600641881	-0.0039868469	-0.122907
C	 2.0304774775	 0.5471311989	 1.2681984834	-0.07495
C	 1.4078100012	-0.4111941701	 1.963950506	-0.116229
C	 0.1993995014	-0.9399286993	 1.2290165406	-0.116602
C	 0.3266875079	-2.3280408027	 0.5624680548	-0.090412
O	-0.4892566286	-2.2532084901	-0.5991859251	-0.255713
C	-0.3637929661	-0.9462866712	-1.1606376376	-0.169291
C	 0.1020622387	-0.0544055148	-0.018775344	 0.321955
H	-0.404494952	 1.8248970476	 1.0802841888	 0.111809
H	-0.4786885016	 1.9528780162	-0.7425101736	 0.111824
H	 1.878272942	 1.0909146868	-0.9050324745	 0.087888
H	 2.9344136439	 1.0600449454	 1.5783213381	 0.096636
H	 1.7028059856	-0.7672785763	 2.9446018101	 0.095657
H	-0.7105205901	-0.9127982105	 1.8405933144	 0.083198
H	 1.3787527466	-2.5236626687	 0.2993052101	 0.088209
H	-0.0426681736	-3.1557037936	 1.1734235581	 0.106266
H	 0.3543241982	-0.9508837894	-1.9954264521	 0.093072
H	-1.3452129353	-0.6625136084	-1.5567675972	 0.107025
111.7035	195.8299	276.5198	332.8981	369.5585	474.0138	573.0083	579.8293	664.7061	752.2566	779.822	782.1128	835.602	860.6787	921.0071	946.5899	954.3158	971.8378	1013.7602	1028.0837	1048.0735	1069.4496	1072.7489	1079.1223	1080.1525	1109.195	1143.1631	1208.4932	1228.7231	1248.8831	1267.8034	1287.4292	1296.637	1345.574	1370.2218	1391.7886	1406.3076	1480.6826	1510.2146	1523.6331	1654.9402	2972.9666	2979.9636	3034.9974	3053.3642	3094.6505	3112.0592	3158.6466	3182.574	3200.3076	3207.0547
C1C2C=CC3COCC123	C1[C@H]2C=C[C@@H]3COC[C@]123	
InChI=1S/C8H10O/c1-2-7-4-9-5-8(7)3-6(1)8/h1-2,6-7H,3-5H2	InChI=1S/C8H10O/c1-2-7-4-9-5-8(7)3-6(1)8/h1-2,6-7H,3-5H2/t6-,7-,8-/m1/s1
