22
gdb 121262	3.95048	0.93853	0.83963	1.8812	82.4	-0.2292	0.0825	0.3116	1463.347	0.195075	-404.324854	-404.315889	-404.314945	-404.359164	33.767	
C	-0.1428343	 1.5155608103	-0.0033937878	-0.384267
C	-0.0898313216	 0.0068746364	 0.1693047364	-0.036132
O	-1.3684676201	-0.5218286785	-0.1294154998	-0.258482
C	-1.4363056805	-1.9321123808	-0.0951010555	 0.14915
C	-1.4344823334	-2.546292621	 1.329078944	-0.279295
C	-2.3542860194	-3.7783736376	 1.1978799736	-0.158129
N	-3.2866820422	-3.5458796951	 0.073303392	-0.099949
C	-3.9690583394	-2.2466933254	 0.1376888452	-0.240923
C	-2.7497952581	-2.4071862432	-0.6937120677	-0.046266
H	 0.8319732514	 1.9600930749	 0.218604733	 0.113722
H	-0.4190683555	 1.7742119862	-1.0294640894	 0.126746
H	-0.8852453041	 1.9524605648	 0.670556496	 0.126191
H	 0.6665400812	-0.4336906217	-0.502601785	 0.084697
H	 0.206287829	-0.2502864842	 1.1990763652	 0.087682
H	-0.6033470785	-2.3489600587	-0.6859186308	 0.064295
H	-0.4350374406	-2.8135512112	 1.6794754382	 0.102576
H	-1.8384108454	-1.8054972744	 2.0259711652	 0.114406
H	-1.7710550001	-4.6717423361	 0.9492166314	 0.10823
H	-2.9142314964	-3.9965017813	 2.1128438161	 0.107547
H	-4.9435208905	-2.2271956441	-0.3407731726	 0.115283
H	-3.9009228	-1.6531422028	 1.0453768904	 0.114187
H	-2.8273613258	-2.4617405468	-1.7752482881	 0.088729
61.9299	87.7956	105.37	197.2777	247.8629	275.5628	338.4204	376.2013	425.809	545.3462	647.978	655.8579	750.7138	820.5062	834.161	868.9284	878.7064	909.6767	959.7355	987.6248	1002.2546	1019.9863	1047.5622	1100.2678	1104.6819	1136.0838	1143.8815	1158.8655	1176.6502	1189.2161	1202.8236	1236.9026	1267.9182	1296.4419	1300.9351	1338.6795	1347.6098	1371.0113	1396.405	1402.5261	1439.6848	1482.9567	1490.028	1499.5654	1500.6418	1521.7182	1528.9247	2954.1549	2961.2975	2986.7439	3040.9533	3044.6081	3059.9212	3082.7108	3109.9611	3114.6894	3119.0618	3121.7328	3154.726	3197.5954
CCOC1CCN2CC12	CCO[C@H]1CCN2C[C@@H]12	
InChI=1S/C7H13NO/c1-2-9-7-3-4-8-5-6(7)8/h6-7H,2-5H2,1H3	InChI=1S/C7H13NO/c1-2-9-7-3-4-8-5-6(7)8/h6-7H,2-5H2,1H3/t6-,7-,8?/m0/s1
