15
gdb 42310	3.43329	1.23942	0.92101	5.3026	77.44	-0.2342	-0.0558	0.1785	1192.6958	0.11375	-416.853246	-416.845166	-416.844222	-416.88669	28.666	
O	-0.0091102267	-0.0531446582	 0.0039228223	-0.357712
C	-0.0425101662	 1.1629575339	 0.0078185443	 0.348103
C	 1.1978181592	 1.9611880763	 0.0012230223	 0.216217
N	 2.1910884029	 2.5519929279	-0.004196412	-0.331539
N	-1.1804322396	 1.8987949239	 0.0181513447	-0.118856
C	-2.5048466757	 1.2440778356	 0.0256052901	-0.16687
C	-3.5114218669	 2.4265675001	 0.0359227826	-0.28672
C	-2.6206543735	 3.6478272175	 0.0332029079	-0.153453
C	-1.3363022331	 3.2961015289	 0.023216038	 0.015551
H	-2.5964055982	 0.6052574166	-0.8561806758	 0.145626
H	-2.5840974201	 0.600417483	 0.9050643766	 0.145616
H	-4.1721961535	 2.4009318504	-0.8375817328	 0.129055
H	-4.1600339041	 2.3959497187	 0.9183339449	 0.129053
H	-2.9828400972	 4.665324429	 0.0386418362	 0.121046
H	-0.4535962374	 3.9187971364	 0.0188283508	 0.164885
69.113	109.7304	133.8663	149.9051	256.0081	340.2844	466.7845	472.3327	506.796	667.0631	734.8683	749.9752	767.568	830.8202	849.5048	932.6707	936.4537	962.4779	1037.5617	1063.8947	1140.1091	1206.6178	1242.2267	1250.3364	1314.4162	1325.6462	1384.6414	1442.2397	1492.0273	1516.6173	1688.9173	1753.0995	2346.4863	3038.9017	3064.246	3072.0831	3112.0813	3239.6363	3262.3161
O=C(C#N)N1CCC=C1	O=C(C#N)N1CCC=C1	
InChI=1S/C6H6N2O/c7-5-6(9)8-3-1-2-4-8/h1,3H,2,4H2	InChI=1S/C6H6N2O/c7-5-6(9)8-3-1-2-4-8/h1,3H,2,4H2
