17
gdb 55710	2.32815	1.2681	1.05849	2.455	74.54	-0.244	-0.0155	0.2285	1200.8243	0.131461	-421.786204	-421.776533	-421.775589	-421.821653	34.555	
C	 0.961298171	 0.3381768193	 0.2731522867	-0.475954
C	-0.504547557	 0.1937223765	-0.0810773256	 0.387558
O	-1.3653077801	 0.8732431974	 0.4250187066	-0.296255
C	-0.8698774922	-0.8359772123	-1.1598936639	-0.367234
C	-0.1507125621	-2.1707623507	-1.0547067176	 0.161171
C	 0.2044224113	-2.9161352243	-2.2813900348	-0.210008
O	 1.1981369705	-2.188872146	-1.5678902308	-0.257222
C	-0.3528784294	-2.9010560127	 0.175739109	 0.31843
C	-0.546546556	-3.4741731527	 1.2141803441	-0.422972
H	 1.5805756445	 0.3887403273	-0.6272389263	 0.145118
H	 1.1015737935	 1.2248577506	 0.8921133023	 0.137202
H	 1.2922454107	-0.5478786577	 0.8267198711	 0.158793
H	-1.9525692008	-0.9808691194	-1.1218784777	 0.133318
H	-0.618063163	-0.3944462124	-2.1324209382	 0.129177
H	 0.2935320061	-3.9994974531	-2.236830986	 0.130095
H	-0.0831656728	-2.5031674687	-3.2475334876	 0.121358
H	-0.7130394641	-3.9879822311	 2.1290932287	 0.207425
36.5444	70.0746	128.2558	140.5155	186.241	232.495	321.4788	325.8318	424.4574	485.124	526.2906	551.8517	582.6088	638.9959	671.8581	724.5918	781.8696	814.2085	880.4288	925.9099	961.5986	1026.6687	1043.2033	1132.6683	1163.1913	1183.9175	1222.389	1272.5478	1306.1503	1374.7655	1387.0093	1442.3738	1458.408	1475.2823	1520.2084	1817.6424	2239.9021	3037.6396	3044.9171	3086.9334	3108.5368	3110.4051	3157.2443	3182.0737	3499.5969
CC(=O)CC1(CO1)C#C	CC(=O)C[C@]1(CO1)C#C	
InChI=1S/C7H8O2/c1-3-7(5-9-7)4-6(2)8/h1H,4-5H2,2H3	InChI=1S/C7H8O2/c1-3-7(5-9-7)4-6(2)8/h1H,4-5H2,2H3/t7-/m0/s1
