18
gdb 14338	4.45986	1.64877	1.41519	2.2169	73.08	-0.2343	0.017	0.2513	932.4385	0.155139	-347.804495	-347.797357	-347.796412	-347.835864	27.399	
C	-0.1694736259	 1.5225515097	 0.0067324489	-0.486648
C	-0.0286972688	 0.0334055369	-0.0252322115	 0.328118
C	-0.1044932063	-0.7613932691	-1.0980291738	-0.187328
C	 0.1047883094	-2.2074424515	-0.7580561906	 0.096128
O	 1.4346103794	-2.7109263811	-1.0765542788	-0.295189
C	 1.8364929583	-2.6134884431	 0.3055854635	-0.079038
C	 0.41970957	-2.1978922364	 0.7610027784	-0.076119
C	 0.2182785705	-0.7544054064	 1.25043503	-0.321236
H	 0.7390543074	 1.9939225644	 0.4026929981	 0.128267
H	-0.36167179	 1.9342473763	-0.9873753284	 0.126488
H	-0.9896782412	 1.8276428682	 0.6691645689	 0.126105
H	-0.2778910871	-0.4177368498	-2.1122171443	 0.090094
H	-0.6618173857	-2.8829981499	-1.1543789949	 0.072849
H	 2.2032752394	-3.5739187929	 0.6870459041	 0.099199
H	 2.6121693346	-1.850589641	 0.4607437994	 0.093498
H	-0.0886926411	-2.9442501151	 1.3713090744	 0.077115
H	 1.0895582296	-0.3730764932	 1.8009247236	 0.103277
H	-0.6342701624	-0.664522086	 1.9374049531	 0.10442
104.3983	148.783	188.1772	300.8558	367.3783	404.3177	483.8326	595.7673	671.6272	794.0231	842.3965	860.9999	869.7303	896.0807	934.3083	969.4379	989.8909	1011.5424	1029.0237	1042.9915	1080.531	1103.376	1158.1636	1162.1038	1202.8846	1236.5765	1269.4555	1289.4607	1319.5627	1336.3154	1343.1078	1370.9891	1412.9116	1479.0656	1482.743	1487.0646	1523.0107	1709.8714	3000.1671	3007.6387	3018.8646	3032.0908	3039.6617	3048.6277	3064.2362	3109.3295	3114.4706	3190.2986
CC1=CC2OCC2C1	CC1=C[C@H]2OC[C@H]2C1	
InChI=1S/C7H10O/c1-5-2-6-4-8-7(6)3-5/h3,6-7H,2,4H2,1H3	InChI=1S/C7H10O/c1-5-2-6-4-8-7(6)3-5/h3,6-7H,2,4H2,1H3/t6-,7-/m1/s1
