21
gdb 80560	2.36157	1.5317	1.32666	2.9414	77.87	-0.2172	0.0588	0.276	1094.4562	0.18333	-424.227201	-424.218576	-424.217632	-424.259777	34.549	
C	 0.1921431953	 1.5275934519	-0.1493100215	-0.481517
C	-0.0339906509	 0.0487211012	 0.0658285437	 0.267968
C	-1.4819693185	-0.4419226155	 0.0369563774	-0.275765
C	-1.5584962668	-1.7311373457	 0.8772279667	 0.070777
O	-1.547816164	-2.8460554478	-0.0342257734	-0.425627
C	-0.3154695609	-1.7025761853	 1.7998438783	-0.254849
C	 0.687297321	-0.7557032027	 1.157051766	-0.14508
C	 1.0492884451	-0.9406792009	-0.301850769	 0.095438
O	 0.8923398191	-2.1062916726	-1.040076551	-0.444435
H	 1.2515148689	 1.7854077642	-0.0534307472	 0.114749
H	-0.1323920374	 1.8399364467	-1.1492430664	 0.118871
H	-0.3635225392	 2.1283716327	 0.5821388287	 0.107415
H	-2.1224310148	 0.3266392084	 0.484744714	 0.101178
H	-1.8637818533	-0.6317447425	-0.9719469314	 0.118696
H	-2.4876802799	-1.780418573	 1.4573364709	 0.081382
H	-1.4840678642	-3.6554470338	 0.4844857555	 0.289946
H	-0.5992237089	-1.3188447825	 2.7865019763	 0.105103
H	 0.0767616726	-2.7160716302	 1.955167558	 0.095938
H	 1.4164865622	-0.2845024382	 1.8101051724	 0.074764
H	 1.9904395842	-0.4742242812	-0.58252791	 0.092099
H	 0.0257439106	-2.5021470932	-0.8451354778	 0.292948
127.9873	173.5688	198.9864	249.4351	263.2269	302.6423	352.2553	408.496	419.6987	501.6361	543.6871	603.6837	647.2041	713.0242	723.32	808.1186	834.2653	858.6321	898.5112	954.9085	971.4832	1000.5654	1021.8233	1068.749	1071.2583	1096.1072	1125.4855	1152.2912	1197.42	1208.1595	1230.7904	1256.1912	1285.5964	1315.3464	1326.6584	1350.6691	1368.73	1410.4898	1418.0485	1434.2122	1474.2626	1486.7238	1490.342	1499.0204	1513.0559	3014.1178	3018.1386	3026.3095	3042.0614	3063.5733	3070.7957	3080.3127	3096.0599	3135.4974	3146.9059	3612.0535	3809.7981
CC12CC(O)CC1C2O	C[C@]12C[C@@H](O)C[C@H]1[C@H]2O	
InChI=1S/C7H12O2/c1-7-3-4(8)2-5(7)6(7)9/h4-6,8-9H,2-3H2,1H3	InChI=1S/C7H12O2/c1-7-3-4(8)2-5(7)6(7)9/h4-6,8-9H,2-3H2,1H3/t4-,5-,6+,7-/m0/s1
