21
gdb 97577	3.25377	0.68589	0.58834	0.9896	85.1	-0.2389	0.037	0.2759	1911.4681	0.178585	-424.189533	-424.177895	-424.176951	-424.22832	40.356	
C	 0.0720665639	 1.540137588	-0.0298194231	-0.415013
C	 0.0071392799	 0.011718576	-0.0185256398	 0.154662
O	 0.8074714227	-0.517253042	 1.0300085378	-0.425104
C	-1.4443491713	-0.5351150773	 0.0599101095	-0.190911
C	-2.3292397169	-0.057857507	-1.111341587	-0.39589
C	-1.4444163725	-1.9960422205	 0.1259864693	 0.08168
C	-1.4707418757	-3.199471353	 0.1349328681	 0.112129
C	-1.468951144	-4.6553949094	 0.1779334796	-0.21893
O	-2.4576653931	-5.1657254601	-0.7114671533	-0.41127
H	 1.117633234	 1.8559404784	 0.0126071804	 0.126929
H	-0.3793883302	 1.9682222477	-0.9287062682	 0.122221
H	-0.4467333442	 1.9606336865	 0.8414665439	 0.105421
H	 0.4640156578	-0.3793328721	-0.9352393819	 0.097464
H	 0.4397435123	-0.210080959	 1.8663525825	 0.275029
H	-1.8800115205	-0.1437696279	 0.9937009545	 0.086893
H	-2.4575730198	 1.0273001682	-1.094388958	 0.116136
H	-1.8844928938	-0.3426614385	-2.0699655773	 0.128339
H	-3.3170194685	-0.5205522807	-1.05173424	 0.133476
H	-0.4650135577	-5.0213657079	-0.0927652637	 0.116583
H	-1.6582659444	-4.9867352592	 1.2123650998	 0.112654
H	-2.4160338678	-6.12623441	-0.6623658732	 0.287502
13.7352	57.3712	73.2155	121.5933	185.5768	208.2933	220.6766	237.126	261.4295	293.1535	318.0137	347.1569	400.7659	442.4965	490.0867	540.1253	596.2011	751.4621	822.6989	922.4825	963.5715	1006.2297	1027.4825	1051.9219	1077.7689	1086.3867	1105.6312	1154.5049	1177.8829	1244.9646	1252.3826	1260.3216	1320.185	1332.4077	1369.8448	1400.184	1407.5358	1421.6508	1459.0215	1489.8987	1491.444	1497.5787	1503.8003	1505.0326	2370.406	2960.2936	2968.7306	2978.1477	3024.1427	3045.235	3048.4657	3100.8088	3118.0725	3123.5684	3129.734	3794.5397	3816.4915
CC(O)C(C)C#CCO	C[C@@H](O)[C@@H](C)C#CCO	
InChI=1S/C7H12O2/c1-6(7(2)9)4-3-5-8/h6-9H,5H2,1-2H3	InChI=1S/C7H12O2/c1-6(7(2)9)4-3-5-8/h6-9H,5H2,1-2H3/t6-,7+/m0/s1
