17
gdb 53804	2.93457	1.30059	0.99031	1.7949	71.56	-0.2361	-0.0596	0.1765	1187.0833	0.135347	-455.148893	-455.139923	-455.138978	-455.182817	34.104	
N	-0.7316121398	 0.5218184693	-2.4027925948	-0.511925
C	-0.6279604795	-0.8018132313	-2.0658323132	 0.23558
N	 0.0531918674	-1.6326657877	-2.761124718	-0.520833
C	-1.4433601136	-1.1190630349	-0.8100685209	 0.277173
O	-2.3377186582	-0.3590307599	-0.4851404668	-0.34429
C	-1.1760815096	-2.3526230817	 0.0009169534	 0.271491
O	-0.0891381617	-3.1745008313	-0.3221655209	-0.452571
C	-1.5976326479	-2.2922108633	 1.4639641119	-0.293526
C	-2.3985161094	-3.1021205297	 0.4954441241	-0.268822
H	-0.4513242948	 0.7567746829	-3.3419554319	 0.25815
H	-1.5313673086	 1.0045494518	-2.0228160721	 0.267208
H	 0.0499832232	-2.5478105295	-2.3183298218	 0.238823
H	 0.7253003349	-2.7087983826	-0.0990217905	 0.294299
H	-0.9472809496	-2.8215825113	 2.1505187065	 0.125209
H	-2.011664082	-1.3531896623	 1.8099988782	 0.144098
H	-3.3612929447	-2.718182882	 0.1812539187	 0.14266
H	-2.2914859459	-4.1800940368	 0.5157976381	 0.137277
49.0136	79.1709	220.6011	252.9435	307.7868	321.1481	364.1887	397.9139	410.6632	444.8883	510.9178	544.0898	572.7503	592.3889	679.3796	783.8246	796.4857	847.7117	871.019	930.5664	956.8	997.5465	1047.1083	1078.6095	1094.5915	1136.1892	1185.7287	1206.3465	1258.5931	1316.3476	1358.9083	1434.1713	1437.8649	1471.899	1593.4764	1708.9924	1750.2939	3146.0054	3150.0172	3241.504	3254.7689	3530.3572	3580.6547	3704.1204	3792.1966
NC(=N)C(=O)C1(O)CC1	NC(=N)C(=O)C1(O)CC1	
InChI=1S/C5H8N2O2/c6-4(7)3(8)5(9)1-2-5/h9H,1-2H2,(H3,6,7)	InChI=1S/C5H8N2O2/c6-4(7)3(8)5(9)1-2-5/h9H,1-2H2,(H3,6,7)
