19
gdb 39049	2.47837	1.97695	1.34642	1.8888	80.22	-0.2193	0.0038	0.2232	985.8245	0.162591	-382.009482	-382.002288	-382.001344	-382.040785	29.416	
C	 0.1404523703	 1.4320927149	-0.3058794805	-0.257399
C	 1.3307239539	 0.5948468131	 0.0083704134	 0.009699
C	 2.1851465395	 0.803134549	 1.229629075	-0.052677
N	 2.3337009628	 2.1676451958	 1.7769851789	-0.332465
C	 1.7074106266	 1.1153519771	 2.6060277309	-0.084482
C	 0.2805694331	 1.2916283002	 2.9760577134	-0.032669
C	-0.7419437841	 0.6448392467	 2.4189272826	-0.08991
C	-0.6473926536	-0.3718798706	 1.2963558562	-0.192079
N	-0.019502665	 0.0207098022	 0.0263259092	-0.104218
H	-0.1328946442	 2.1796170869	 0.4324730414	 0.130076
H	-0.0789785138	 1.6981021573	-1.3369057009	 0.108282
H	 1.9148066435	 0.2276333679	-0.8346459377	 0.083816
H	 3.0930343135	 0.2024471759	 1.1982052174	 0.082449
H	 3.2933319366	 2.3248113509	 2.076159281	 0.229539
H	 2.3245796011	 0.7218016087	 3.4156549762	 0.09201
H	 0.0915140241	 2.0012663781	 3.7799533678	 0.092069
H	-1.7449136329	 0.8592974001	 2.7818527439	 0.091871
H	-0.1172044474	-1.266115966	 1.6473356043	 0.115898
H	-1.6610275839	-0.6995361783	 1.0418456775	 0.11019
129.9938	205.792	257.0642	319.3999	337.5115	417.5192	507.6255	537.8703	633.9902	705.6301	713.3196	797.6611	806.3168	817.0357	884.7732	913.6959	921.1465	955.3332	980.5664	1003.9146	1043.3695	1051.3793	1059.5703	1096.2241	1118.7022	1148.3435	1166.9192	1177.3104	1225.8324	1236.1088	1287.3124	1294.6775	1338.0189	1370.8857	1398.6233	1416.2084	1432.8135	1473.5715	1482.37	1505.2763	1726.3625	3026.9085	3064.4476	3081.2929	3097.6886	3108.0729	3118.0892	3131.2842	3156.4883	3199.6401	3489.298
C1C2C3NC3C=CCN12	C1[C@H]2[C@H]3N[C@H]3C=CCN12	
InChI=1S/C7H10N2/c1-2-5-7(8-5)6-4-9(6)3-1/h1-2,5-8H,3-4H2	InChI=1S/C7H10N2/c1-2-5-7(8-5)6-4-9(6)3-1/h1-2,5-8H,3-4H2/t5-,6-,7-,9?/m0/s1
