22
gdb 17671	3.66654	1.41496	1.23277	0.1635	82.19	-0.2459	0.0931	0.339	1108.0551	0.199471	-313.050903	-313.041921	-313.040976	-313.08406	34.474	
C	-0.1277896723	 1.3108945472	-0.2794605989	-0.412886
C	 0.1990797139	-0.1317032352	 0.0405187318	-0.015154
C	 1.6241819951	-0.6324931341	 0.0958202218	-0.346325
C	 0.7889902811	-0.6031296796	 1.3574811206	 0.333297
C	 1.1603607586	 0.4055980979	 2.4317975236	-0.457926
C	 0.2586705154	-1.8862315409	 1.9435599034	-0.036942
C	 0.2668948973	-3.2099439443	 1.2251572607	-0.286108
C	 1.1863577918	-2.9870932618	 2.4009983887	-0.264165
H	 0.6200940204	 2.0022576405	 0.1184858868	 0.114069
H	-0.1669642	 1.4650621681	-1.3638462501	 0.115557
H	-1.1015913651	 1.6033164092	 0.1301747344	 0.114226
H	-0.5041990819	-0.8399544625	-0.391957649	 0.08111
H	 1.8677540779	-1.578623233	-0.3756681092	 0.10592
H	 2.4169863483	 0.1059883269	 0.018985771	 0.101428
H	 1.562318506	 1.3320452701	 2.0145292103	 0.110238
H	 0.2904939514	 0.6670649379	 3.046663717	 0.11045
H	 1.9206127926	-0.0137373154	 3.1002969116	 0.117392
H	-0.6079498904	-1.7248646151	 2.5828270899	 0.077727
H	-0.5905846589	-3.8607475197	 1.3577666093	 0.107947
H	 0.7130266266	-3.2738596467	 0.2386773669	 0.111666
H	 2.2432446662	-2.8661941152	 2.18647718	 0.111412
H	 0.9752499061	-3.4996159843	 3.3331287494	 0.107067
68.9173	149.814	185.7874	190.4426	227.0308	274.8359	293.3415	350.8433	440.9285	454.3282	525.1501	644.4002	767.7845	792.7683	829.7718	844.2128	883.1867	920.7557	925.935	947.0079	993.8518	1016.3174	1051.3746	1057.2816	1078.1022	1087.0102	1109.2675	1129.6835	1143.1802	1157.9416	1189.804	1198.5943	1221.1648	1272.0656	1321.5738	1402.7445	1408.8988	1419.3987	1428.1808	1466.6352	1486.452	1493.9412	1495.3728	1500.6496	1507.7375	1516.8755	3024.1426	3028.5881	3081.0653	3082.7268	3101.5702	3112.4726	3115.1062	3120.5675	3128.7559	3132.7658	3133.5095	3199.441	3205.266	3220.208
CC1CC1(C)C1CC1	C[C@H]1C[C@]1(C)C1CC1	
InChI=1S/C8H14/c1-6-5-8(6,2)7-3-4-7/h6-7H,3-5H2,1-2H3	InChI=1S/C8H14/c1-6-5-8(6,2)7-3-4-7/h6-7H,3-5H2,1-2H3/t6-,8-/m0/s1
