20
gdb 119019	1.85845	1.19582	0.83143	2.3082	79.06	-0.2825	0.0262	0.3087	1447.4074	0.169194	-403.151977	-403.142052	-403.141108	-403.188083	35.422	
C	-0.4269909628	 1.3647373826	-0.5066762613	-0.383593
C	 0.1004334415	-0.021693348	-0.1282105014	-0.174088
C	 0.4279798942	-0.8787322378	-1.3602235883	-0.262715
C	 1.065019806	-2.2138416329	-1.0270096287	 0.417322
C	 0.2138294134	-3.2215213149	-0.2483078655	-0.41197
C	-0.9718113392	-3.6474071783	-0.9891173559	 0.264973
N	-1.9042218853	-3.9698696696	-1.5906967527	-0.31061
C	 2.175594559	-2.7352367303	-1.835192645	-0.227111
O	 2.4103079508	-2.1526345373	-0.5467608651	-0.279764
H	 0.3085634691	 1.9185307585	-1.1003065376	 0.118243
H	-1.3448987074	 1.2919179388	-1.100181519	 0.12068
H	-0.6520111367	 1.9590955308	 0.383842776	 0.11682
H	 1.0055779273	 0.0772128427	 0.4825348214	 0.116405
H	-0.6449792214	-0.5295617597	 0.4964801835	 0.099928
H	-0.4816085034	-1.054903438	-1.9484539084	 0.124987
H	 1.1205022945	-0.3275265096	-2.005954837	 0.106955
H	 0.8253716169	-4.0965359251	-0.0091382434	 0.160588
H	-0.1038540442	-2.7851392501	 0.7049420483	 0.160683
H	 2.3460195232	-3.8090144997	-1.9004417634	 0.119314
H	 2.5386860446	-2.1559528423	-2.6820624763	 0.122953
31.8467	75.7635	98.2768	142.3277	174.6477	253.9472	302.1787	351.7382	357.3063	400.3128	405.7773	461.8984	572.2691	740.5705	764.2832	840.0322	886.4477	890.5303	913.138	946.7008	956.2165	1010.7285	1050.7429	1098.8046	1118.7896	1136.1043	1166.4044	1196.5857	1245.5584	1290.031	1306.4436	1323.3297	1338.8918	1384.1672	1415.1041	1430.1902	1466.3646	1472.6556	1493.0216	1501.3598	1509.6702	1530.329	2362.7525	3024.1639	3030.9264	3034.5622	3055.4493	3058.2712	3079.8659	3086.2848	3099.4095	3101.9842	3107.5815	3174.774
CCCC1(CC#N)CO1	CCC[C@@]1(CC#N)CO1	
InChI=1S/C7H11NO/c1-2-3-7(4-5-8)6-9-7/h2-4,6H2,1H3	InChI=1S/C7H11NO/c1-2-3-7(4-5-8)6-9-7/h2-4,6H2,1H3/t7-/m1/s1
