24
gdb 58253	2.5203	1.13715	0.95756	2.8631	86.11	-0.2359	0.0794	0.3154	1381.773	0.21537	-405.525707	-405.515094	-405.51415	-405.560841	40.136	
C	 0.1228492533	 3.2192857583	 0.8881815339	-0.405857
C	-0.1628381383	 1.7493335428	 0.5659024885	 0.160477
O	 0.4274894636	 1.3752706744	-0.6694044338	-0.444232
C	 0.2776690475	 0.7604732179	 1.6761217994	 0.025901
C	-0.3053720769	-0.6283829303	 1.4002113274	-0.396913
N	 1.7435914398	 0.6986841991	 1.6400996903	-0.094942
C	 2.5260002625	 1.5715934928	 2.5115486423	-0.249762
C	 2.5317534687	 0.0969904182	 2.7201446259	 0.02061
C	 1.9342664777	-0.5020105262	 3.9756394209	-0.418122
H	 1.1964613636	 3.4027221223	 0.9878884615	 0.119678
H	-0.2485547471	 3.8490400933	 0.0751113081	 0.120832
H	-0.3702319656	 3.5289206869	 1.816861002	 0.100195
H	-1.2463679005	 1.6311384127	 0.4348436073	 0.073551
H	 1.3300606098	 1.1089141039	-0.437896616	 0.279763
H	-0.0987092175	 1.1344203646	 2.6426422942	 0.056121
H	-0.0118749381	-0.9603757084	 0.4015048535	 0.135437
H	 0.0358441421	-1.3656310741	 2.1302085941	 0.110285
H	-1.3984129097	-0.5924820985	 1.4413174053	 0.113333
H	 3.369077571	 2.0832194053	 2.0540710431	 0.114431
H	 1.984108818	 2.1651931103	 3.2472656542	 0.110565
H	 3.3911678479	-0.4559191552	 2.3426528995	 0.091995
H	 1.061444801	 0.0540437317	 4.326801082	 0.124161
H	 1.6376547825	-1.5446746587	 3.824143937	 0.128265
H	 2.6810317947	-0.486815113	 4.7769697693	 0.124229
76.1986	91.5884	164.4381	196.2885	206.2759	230.7035	243.0696	266.8576	283.7086	332.7122	394.769	418.23	497.1431	510.1278	548.9354	608.6115	747.0709	796.1704	820.719	905.207	922.0683	943.5497	995.8657	1020.2921	1027.2067	1042.1264	1073.6349	1102.1958	1122.0315	1129.5288	1150.5541	1167.553	1183.6383	1193.6821	1281.3412	1327.3934	1332.8148	1364.676	1386.1273	1400.7872	1403.564	1403.9901	1422.2365	1436.7434	1487.1073	1489.503	1493.5408	1496.6991	1499.8183	1503.9984	1512.6455	2960.601	3021.7036	3033.8218	3038.185	3050.5715	3086.7737	3096.1517	3103.1171	3105.2069	3119.1935	3120.7557	3126.5868	3136.9635	3171.9077	3709.1841
CC(O)C(C)N1CC1C	C[C@@H](O)[C@@H](C)N1C[C@H]1C	
InChI=1S/C7H15NO/c1-5-4-8(5)6(2)7(3)9/h5-7,9H,4H2,1-3H3	InChI=1S/C7H15NO/c1-5-4-8(5)6(2)7(3)9/h5-7,9H,4H2,1-3H3/t5-,6-,7-,8?/m1/s1
