17
gdb 46973	3.12032	1.60186	1.20628	4.5101	72.18	-0.2506	-0.0021	0.2485	1015.8212	0.139041	-421.886705	-421.879732	-421.878787	-421.918427	27.072	
O	 0.2469451674	-0.065985765	-0.5653618775	-0.345455
C	 0.142429366	 1.1070645091	-0.354468256	 0.432167
O	-1.0420500795	 1.7655147593	-0.4564853389	-0.216733
C	-0.9177519334	 3.1406419555	-0.0661799186	-0.09058
C	 0.5900750683	 3.4878276206	-0.0556109431	-0.045374
C	 1.0275319826	 4.2667593764	 1.2070649482	-0.28425
C	 1.4786210933	 3.1683490975	 2.1420134599	-0.061263
C	 1.6053946397	 1.9951841655	 1.5239202645	-0.075077
C	 1.2377113641	 2.089968346	 0.0568335832	-0.201025
H	-1.4928379188	 3.7394652709	-0.7760743043	 0.123094
H	-1.3620515725	 3.2547902327	 0.9292123419	 0.117568
H	 0.8632766913	 4.000699179	-0.9795273006	 0.086765
H	 1.8521889773	 4.9582527629	 0.9901560797	 0.116229
H	 0.2172938072	 4.8788413677	 1.6221907975	 0.110283
H	 1.7012895507	 3.3471527611	 3.1880082648	 0.103517
H	 1.9411459248	 1.0664764441	 1.9691660664	 0.117825
H	 2.1053788416	 1.9203729468	-0.5892247672	 0.11231
87.5744	156.9692	202.0573	311.0772	415.3614	472.2546	579.5308	670.3516	697.4555	718.879	764.6817	809.5361	864.44	905.4628	923.8948	943.8422	977.648	983.8969	1029.8294	1045.5393	1070.3015	1086.9799	1128.5287	1176.1744	1204.5609	1233.2145	1245.0786	1266.6858	1286.7372	1321.0594	1340.9205	1364.5589	1408.3293	1487.5654	1518.0845	1678.6268	1878.5333	3021.175	3040.0884	3050.8953	3055.5471	3087.4035	3108.253	3192.4066	3219.7687
O=C1OCC2CC=CC12	O=C1OC[C@H]2CC=C[C@@H]12	
InChI=1S/C7H8O2/c8-7-6-3-1-2-5(6)4-9-7/h1,3,5-6H,2,4H2	InChI=1S/C7H8O2/c8-7-6-3-1-2-5(6)4-9-7/h1,3,5-6H,2,4H2/t5-,6-/m1/s1
