18
gdb 106206	3.85821	1.3992	1.29991	2.2611	74.06	-0.2192	0.0677	0.287	1015.788	0.149132	-401.880527	-401.873268	-401.872324	-401.912339	28.805	
O	 0.617039075	 0.1112220905	-0.7928812385	-0.418913
C	-0.180781595	 0.4090312029	 0.3447462731	-0.22539
C	-1.5141693178	-0.240527387	 0.1615305368	 0.36757
C	-2.2643823739	-0.3953666038	-1.1392026521	-0.134398
C	-3.7331500159	-0.1137869297	-0.8893081969	-0.176236
N	-3.9017645233	-0.5796716067	 0.495255221	-0.12112
C	-2.9907394738	-1.7141719498	 0.7343886736	-0.061041
C	-1.8713726039	-1.6242404755	-0.3412961999	-0.142235
C	-2.6456414847	-0.354619555	 1.2302484094	-0.149059
H	 1.4743159495	 0.5301917978	-0.6743456635	 0.290524
H	 0.2926106674	 0.0369665633	 1.268976456	 0.090454
H	-0.3101399088	 1.4987508384	 0.4653402118	 0.08915
H	-1.7585514317	-0.1802163381	-2.0711600824	 0.104425
H	-3.9850647886	 0.950001474	-0.951588818	 0.104772
H	-4.3996367411	-0.6760701537	-1.5513640809	 0.106242
H	-3.3546173643	-2.598002313	 1.2421528913	 0.092129
H	-1.226567753	-2.4156331788	-0.6935234304	 0.094992
H	-2.6673017459	 0.0901645243	 2.2175838596	 0.088134
79.926	174.3681	204.2302	260.2744	385.8774	416.9424	571.4135	631.1096	721.7555	751.7448	780.0092	786.0309	834.7359	857.8296	878.1384	906.6387	944.7485	956.4511	971.9516	998.885	1034.2583	1048.9626	1063.871	1090.8147	1097.1591	1129.7571	1167.8242	1202.4795	1218.9469	1228.1796	1248.8716	1260.7905	1279.2313	1300.3748	1325.0369	1439.4551	1481.4937	1498.2348	1522.4062	2945.431	2968.2142	3047.1189	3092.6224	3182.3662	3197.5828	3213.9915	3229.8285	3833.0841
OCC12C3CN4C(C13)C24	OC[C@@]12[C@@H]3CN4[C@@H]([C@H]13)[C@@H]24	
InChI=1S/C7H9NO/c9-2-7-3-1-8-5(4(3)7)6(7)8/h3-6,9H,1-2H2	InChI=1S/C7H9NO/c9-2-7-3-1-8-5(4(3)7)6(7)8/h3-6,9H,1-2H2/t3-,4-,5+,6+,7-,8?/m1/s1
