19
gdb 58181	2.00472	1.39684	1.02349	2.0158	72.6	-0.2504	-0.0954	0.155	1243.8825	0.155125	-460.18577	-460.17523	-460.174285	-460.221852	36.983	
C	-0.0712319809	 1.3829544157	 0.6121479253	-0.40996
C	-0.0735095471	-0.0747610135	 0.156208818	 0.147871
O	 0.4368535602	-0.9297800507	 1.1748094273	-0.444896
C	-1.4699081228	-0.5592292144	-0.3297272083	-0.137046
C	-1.9004125657	 0.0882952029	-1.6498508604	-0.40539
C	-1.4173896612	-2.0723848149	-0.4634659359	 0.326642
O	-1.1732796499	-2.6644879839	-1.4888809545	-0.293785
C	-1.7110218985	-2.9177270417	 0.7857845645	 0.096749
O	-2.0060773413	-2.459876885	 1.8601648838	-0.243177
H	 0.9256311191	 1.6475755071	 0.9745977089	 0.132052
H	-0.3350170818	 2.0677151048	-0.1985915457	 0.122895
H	-0.7846001489	 1.5339140651	 1.4312144673	 0.115668
H	 0.6267607018	-0.1979532008	-0.678915435	 0.103009
H	-0.1994050926	-0.9448315832	 1.9009316483	 0.290068
H	-2.1896790006	-0.3286821826	 0.4662525693	 0.098272
H	-2.8850181833	-0.2738755776	-1.9588383037	 0.125264
H	-1.9586050736	 1.1750033744	-1.5546764672	 0.120882
H	-1.1940178024	-0.1587736382	-2.4464909462	 0.140178
H	-1.6417014904	-4.0071705034	 0.5862731741	 0.114703
49.317	75.0007	101.9676	166.3921	174.0544	198.2596	228.4081	279.6163	300.518	357.1612	394.1397	452.8062	474.0197	530.9261	599.923	649.3663	768.597	828.7701	921.3625	973.6035	1003.3121	1048.2332	1092.0359	1098.4003	1123.154	1149.9656	1168.2965	1263.6333	1329.6407	1358.7054	1363.5209	1374.8396	1403.1738	1412.0109	1428.8171	1487.8518	1491.0465	1494.0111	1502.7371	1802.8785	1815.4806	2934.8711	3029.9577	3031.9047	3048.2109	3051.5695	3105.503	3119.1367	3124.0843	3133.0499	3777.7349
CC(O)C(C)C(=O)C=O	C[C@@H](O)[C@@H](C)C(=O)C=O	
InChI=1S/C6H10O3/c1-4(5(2)8)6(9)3-7/h3-5,8H,1-2H3	InChI=1S/C6H10O3/c1-4(5(2)8)6(9)3-7/h3-5,8H,1-2H3/t4-,5-/m1/s1
