18
gdb 88261	3.11654	1.19255	0.93989	4.206	75.01	-0.2445	-0.0321	0.2124	1253.8383	0.147559	-435.277983	-435.268724	-435.26778	-435.312252	34.147	
C	 0.0277332211	 1.1566575159	 0.090919749	-0.397917
C	 0.0102810293	-0.3449410278	 0.257500039	 0.026969
C	 0.7057502032	-1.2341650329	-0.7268713242	-0.260627
N	 1.1824439602	-1.1152348014	 0.6518945273	-0.11951
C	 2.4196883638	-0.5721141369	 0.9951908271	 0.240513
N	 2.549212714	 0.5068837584	 1.6533534216	-0.484303
C	 3.6406963604	-1.4339718498	 0.6559970203	 0.356262
N	 3.3669371118	-2.7077493326	 0.2660099942	-0.532352
O	 4.7626559854	-0.9764796678	 0.751001225	-0.357171
H	 0.9280630547	 1.4978130552	-0.4228831018	 0.130633
H	-0.8455650945	 1.4582038481	-0.4977850505	 0.115185
H	-0.009888503	 1.6599696311	 1.0591325671	 0.150046
H	-0.902724351	-0.7367575895	 0.70359652	 0.100993
H	 0.2868523773	-2.197839851	-1.0055296485	 0.118195
H	 1.2895926609	-0.7461363376	-1.5042731919	 0.132441
H	 3.5481383995	 0.6359662375	 1.8382327553	 0.242445
H	 2.4442568046	-3.0826606799	 0.4094984496	 0.27335
H	 4.1428776323	-3.3426207591	 0.1653928514	 0.264848
65.5449	79.2748	157.1629	197.1586	219.7516	277.6457	357.8097	387.2044	396.1909	447.7223	469.3839	506.2674	626.287	636.1323	726.9811	815.786	826.6487	873.0145	908.2372	949.4827	997.8325	1050.8014	1079.7237	1104.5073	1127.2793	1153.8507	1165.451	1195.4207	1298.4046	1341.0979	1400.599	1419.8536	1445.7373	1483.5836	1490.2128	1512.3866	1600.5096	1704.3901	1800.2003	3046.2126	3099.4566	3112.7442	3122.7845	3145.6985	3188.1576	3442.5943	3591.356	3726.379
CC1CN1C(=N)C(N)=O	C[C@H]1CN1[C]([NH])C(=O)N	
InChI=1S/C5H9N3O/c1-3-2-8(3)4(6)5(7)9/h3,6H,2H2,1H3,(H2,7,9)	InChI=1S/C5H9N3O/c1-3-2-8(3)4(6)5(7)9/h3,6H,2H2,1H3,(H2,7,9)/t3-,8?/m0/s1
