23
gdb 36917	4.28489	0.85518	0.75606	0.2175	91.75	-0.2321	0.0301	0.2622	1577.0035	0.207218	-351.157091	-351.148194	-351.14725	-351.191535	34.13	
C	 0.0011126072	 1.4800537955	-0.1515477857	-0.21619
C	-0.1139071364	-0.0304189753	-0.1449136544	 0.030235
C	-0.3698332564	-0.7908365475	 1.1346419735	-0.250749
C	-1.4476618825	-0.6950976896	 0.0829558532	-0.281975
C	 1.4339148952	 2.0087235253	 0.0425936961	-0.010153
C	 1.5401890221	 3.5534453678	-0.0930190751	-0.229819
C	 2.6079477071	 4.0025894227	 0.9359779567	-0.254395
C	 2.667366161	 2.8324677667	 1.8897168662	-0.06939
C	 2.0425195019	 1.7599170529	 1.4076299781	-0.058945
H	-0.3827070186	 1.8658147005	-1.1064992929	 0.093084
H	-0.6457411159	 1.8996145623	 0.6311444834	 0.088354
H	 0.5375626603	-0.5271553743	-0.8609983101	 0.078183
H	 0.1242247351	-1.7452235915	 1.2817085225	 0.107984
H	-0.5028543404	-0.2163455857	 2.0456805684	 0.111259
H	-2.3008913325	-0.0571591993	 0.2908385216	 0.108789
H	-1.6893045104	-1.5832916465	-0.4904524617	 0.108062
H	 2.0654964699	 1.5233778601	-0.7194301388	 0.070835
H	 1.7698970968	 3.8713231012	-1.1135642091	 0.093167
H	 0.5733683118	 3.9972242008	 0.1716952471	 0.098823
H	 3.5879564662	 4.1655790018	 0.4646356848	 0.102643
H	 2.3473016409	 4.9466213483	 1.428196989	 0.099385
H	 3.2015160462	 2.8741320186	 2.8331677285	 0.08629
H	 1.9912331414	 0.7934180752	 1.8954401284	 0.094522
60.4708	70.0104	104.4361	163.0503	264.1907	304.3285	347.1237	405.7284	509.1085	623.5486	747.6355	761.5266	774.0015	802.8472	829.3767	846.0903	856.1145	907.1256	922.1065	943.8566	963.8693	977.8799	994.9477	1038.8624	1055.2287	1075.5351	1077.2767	1094.4462	1128.2031	1140.4832	1145.323	1186.8479	1198.5612	1225.4298	1228.8613	1251.7764	1280.1499	1312.4125	1320.3399	1342.623	1356.4692	1390.3068	1416.9237	1467.7628	1481.2589	1484.9175	1498.7582	1506.8809	1685.1598	2963.6286	3001.7687	3003.5493	3036.1645	3040.6874	3053.7766	3092.8087	3124.4354	3126.1731	3132.0869	3180.2975	3203.5162	3209.993	3219.014
C(C1CC1)C1CCC=C1	C(C1CC1)[C@H]1CCC=C1	
InChI=1S/C9H14/c1-2-4-8(3-1)7-9-5-6-9/h1,3,8-9H,2,4-7H2	InChI=1S/C9H14/c1-2-4-8(3-1)7-9-5-6-9/h1,3,8-9H,2,4-7H2/t8-/m1/s1
