23
gdb 90767	2.70557	1.33914	1.1424	1.6294	83.88	-0.2515	0.0617	0.3132	1198.083	0.20773	-388.299487	-388.290856	-388.289912	-388.33247	34.699	
C	-0.0495259568	 1.5719433152	-0.038242708	-0.40832
C	 0.1545600954	 0.0576955185	-0.044524265	 0.043656
C	 1.1117693528	-0.4666075849	-1.1349810947	-0.221812
C	 1.4466458457	-1.9067106219	-0.6921757482	-0.240234
C	 1.419392489	-1.8936273175	 0.8500510687	-0.058549
C	 2.7192588181	-1.411105061	 1.5693244728	 0.152274
O	 3.9645642187	-1.5412013361	 0.924299146	-0.429697
C	 2.1035215872	 0.0025793991	 1.7438986716	-0.287985
C	 0.7274476959	-0.544752517	 1.2521054388	-0.008309
H	 0.891969044	 2.1027927636	 0.1403934451	 0.114096
H	-0.4463308839	 1.9199259805	-0.9979394513	 0.111719
H	-0.7552701054	 1.8758896357	 0.7422194679	 0.111489
H	-0.8227729914	-0.4190143202	-0.2100050447	 0.069759
H	 0.6733409779	-0.4225603506	-2.1366378	 0.09467
H	 2.0162413601	 0.1564160884	-1.1660309191	 0.08254
H	 0.6754133365	-2.5914752942	-1.0601342653	 0.099447
H	 2.4014482912	-2.2708595757	-1.0857374869	 0.09743
H	 1.0055929242	-2.8201181782	 1.253987315	 0.061323
H	 2.8432920196	-1.9206126097	 2.5289674569	 0.087253
H	 3.9420894026	-1.0179061839	 0.1163782452	 0.279648
H	 2.1354490309	 0.4254494994	 2.7508692759	 0.099129
H	 2.551669163	 0.7336478862	 1.0622716589	 0.090609
H	-0.0170884852	-0.6084331358	 2.0484415703	 0.059864
69.7683	164.4934	230.7979	245.6382	262.9311	307.7153	331.0808	410.2255	481.6909	524.8331	543.1084	587.4312	718.9373	747.8362	806.003	839.2164	872.9623	917.8429	938.1885	947.6414	965.0292	980.6433	1015.1443	1050.777	1070.0636	1077.7107	1107.8164	1138.2459	1152.5169	1171.0495	1201.1392	1227.929	1243.5196	1258.4758	1276.1197	1300.0682	1307.6857	1318.0993	1337.8217	1345.9809	1355.9524	1379.4842	1414.6631	1436.2856	1477.0609	1494.0321	1500.4398	1501.3672	1508.8819	2992.5531	3014.7012	3029.3698	3041.9374	3046.0806	3063.4829	3073.8939	3076.6265	3082.1695	3088.4098	3095.4937	3096.8248	3106.6048	3812.5667
CC1CCC2C(O)CC12	C[C@H]1CC[C@H]2[C@@H](O)C[C@@H]12	
InChI=1S/C8H14O/c1-5-2-3-6-7(5)4-8(6)9/h5-9H,2-4H2,1H3	InChI=1S/C8H14O/c1-5-2-3-6-7(5)4-8(6)9/h5-9H,2-4H2,1H3/t5-,6+,7-,8-/m0/s1
