16
gdb 71317	3.45188	1.48065	1.1945	4.9337	73.62	-0.2735	0.03	0.3035	1015.9158	0.124519	-400.686381	-400.679006	-400.678062	-400.718095	28.839	
O	-0.0126588281	 1.335640733	 0.1520139641	-0.458144
C	 0.0910029329	-0.033444766	 0.1126276644	 0.404194
C	 0.7961695568	-0.9975616658	 1.0906986642	-0.329338
C	 0.0894321797	-1.9071533087	 0.0642789245	-0.063329
C	-1.1542435143	-0.9592233759	-0.0399300498	-0.079902
C	-1.085106149	-0.9563981287	-1.5904203612	-0.183051
C	-1.5982987214	 0.1872067793	-2.3296434557	 0.270451
N	-2.0123477936	 1.0729918482	-2.9468373615	-0.333685
C	 0.3973786054	-0.9537543142	-1.1356201049	-0.116395
H	 0.850632916	 1.7261114496	-0.0229333648	 0.292019
H	 1.8908518629	-1.0065696802	 1.0797789322	 0.097325
H	 0.4141577865	-1.0216864417	 2.1154339219	 0.107145
H	 0.0615801044	-2.9926607117	 0.0127721518	 0.092824
H	-2.0387860255	-0.9671512689	 0.5958321002	 0.09556
H	-1.4206695757	-1.8818426876	-2.0689026875	 0.115967
H	 1.292519293	-0.9529309007	-1.757842408	 0.08836
116.3278	146.7325	232.7214	298.2524	350.5261	425.2563	440.2137	506.5616	561.5341	659.2662	724.7667	793.057	867.3527	881.9254	894.9284	906.7168	927.239	991.4758	1011.0592	1034.8965	1058.049	1072.1713	1082.2971	1116.2499	1137.6345	1170.1885	1202.1196	1213.5071	1220.0701	1276.8997	1300.062	1356.4519	1390.6403	1513.0825	2353.5371	3044.3421	3064.5016	3106.6784	3116.8367	3128.2218	3154.431	3808.7141
OC12CC3C1C(C#N)C23	O[C@@]12C[C@H]3[C@@H]1[C@@H](C#N)[C@@H]23	
InChI=1S/C7H7NO/c8-2-4-5-3-1-7(5,9)6(3)4/h3-6,9H,1H2	InChI=1S/C7H7NO/c8-2-4-5-3-1-7(5,9)6(3)4/h3-6,9H,1H2/t3-,4+,5+,6-,7-
