15
gdb 28511	3.24116	1.36106	0.95915	2.4201	72.77	-0.2007	0.0002	0.201	1139.0403	0.114478	-454.017032	-454.009191	-454.008247	-454.048862	30.97	
N	 0.0009124489	 1.4264969192	-0.0996532655	-0.592766
C	-0.0356449884	 0.0496518477	-0.0690196272	 0.30507
C	-1.217143108	-0.6848442499	-0.0366510547	-0.315586
C	-1.1387821256	-2.078569396	-0.0609407748	 0.439249
O	-2.2951882635	-2.7853275586	-0.0311251401	-0.430423
N	-0.0074615392	-2.7655303803	-0.1092239003	-0.388042
C	 1.1313116732	-2.0522621413	-0.1362391073	-0.118163
C	 1.1772346195	-0.6749415169	-0.1185792735	 0.271449
O	 2.3332551117	 0.0688500999	-0.1373823534	-0.467383
H	 0.8839169156	 1.8402626516	 0.1563833423	 0.266392
H	-0.8067466886	 1.9093534989	 0.2602350934	 0.25387
H	-2.1833844752	-0.1958660788	 0.0024513148	 0.094433
H	-2.0286927392	-3.7143220911	-0.0550367667	 0.292642
H	 2.0590602492	-2.6233062986	-0.1706138367	 0.090197
H	 3.0899444197	-0.5255903659	-0.1319037702	 0.299061
151.4712	213.6575	263.1912	303.2015	348.527	379.3898	422.6481	452.6712	456.2752	506.5187	521.4514	537.1011	594.17	697.5632	761.0198	777.5502	793.4341	857.0297	906.1641	992.1804	1098.5033	1161.5114	1192.7396	1246.4135	1298.2511	1329.8932	1355.6248	1412.8818	1507.3629	1551.9992	1637.7309	1639.1069	1674.0687	3122.2774	3197.1453	3586.1967	3697.3504	3774.9914	3830.8573
NC1=CC(O)=NC=C1O	Nc1cc(O)ncc1O	
InChI=1S/C5H6N2O2/c6-3-1-5(9)7-2-4(3)8/h1-2,8H,(H3,6,7,9)	InChI=1S/C5H6N2O2/c6-3-1-5(9)7-2-4(3)8/h1-2,8H,(H3,6,7,9)
