21
gdb 115508	2.24445	1.37145	1.08226	2.0968	74.72	-0.2505	0.0794	0.3299	1232.5011	0.182223	-461.367635	-461.358132	-461.357188	-461.402543	34.679	
C	-0.4273015056	 1.3719655795	-0.2932914536	-0.382388
C	-0.3594838305	-0.1544013518	-0.3746341147	-0.179371
C	 0.8323958124	-0.6466102033	-1.1969450567	 0.11281
C	 0.8751984444	-2.1680221843	-1.4039497674	-0.125147
O	 0.1633622241	-2.3524570138	-2.6216563476	-0.277175
C	 0.4357399185	-1.2151799411	-3.4184953218	 0.213074
C	-0.8102786916	-0.9128929244	-4.24887075	-0.088388
O	-1.97873344	-0.8895267445	-3.4610267186	-0.41521
O	 0.763961515	-0.1542221586	-2.5410289318	-0.280218
H	 0.4649773116	 1.7845335801	 0.1914968794	 0.108189
H	-0.4960952506	 1.8013635159	-1.2958453324	 0.138756
H	-1.3002261908	 1.6973844753	 0.2799324794	 0.111526
H	-0.2857355759	-0.5854778546	 0.6326007041	 0.08771
H	-1.2763200936	-0.540055947	-0.8334126348	 0.107374
H	 1.7676267809	-0.2790734022	-0.7561447998	 0.080223
H	 1.9078823145	-2.5325714326	-1.50169363	 0.100598
H	 0.3671608577	-2.734368431	-0.6200810058	 0.11745
H	 1.2999393856	-1.4043383598	-4.0803295304	 0.067486
H	-0.6960628613	 0.0736237158	-4.706980531	 0.122128
H	-0.8737182019	-1.6601294915	-5.0564149762	 0.091817
H	-1.960240823	-1.7076628762	-2.9494621102	 0.288755
60.0401	74.508	128.0317	162.0085	213.1778	240.1292	278.9318	321.4155	383.6026	439.515	445.9147	654.815	742.4054	752.3759	786.5272	845.3309	853.9612	894.9114	967.5416	987.4519	1001.1356	1038.5446	1057.8685	1087.4243	1096.772	1122.4824	1166.7222	1173.0214	1224.6532	1256.6714	1297.0195	1309.3591	1342.2308	1355.8991	1367.7453	1393.8903	1405.9768	1406.679	1417.4534	1439.3176	1472.8987	1492.1979	1494.8256	1507.9703	1514.1031	2940.9639	2982.7812	3000.1138	3022.391	3029.8404	3035.6676	3079.2848	3096.8591	3103.5151	3106.3906	3126.3559	3786.9058
CCC1COC(CO)O1	CC[C@H]1CO[C@@H](CO)O1	
InChI=1S/C6H12O3/c1-2-5-4-8-6(3-7)9-5/h5-7H,2-4H2,1H3	InChI=1S/C6H12O3/c1-2-5-4-8-6(3-7)9-5/h5-7H,2-4H2,1H3/t5-,6+/m0/s1
