15
gdb 19714	3.63569	2.62803	2.5481	1.7019	62.6	-0.2338	0.0144	0.2482	647.9619	0.121862	-362.605399	-362.600111	-362.599167	-362.634365	22.764	
N	-0.0358398439	 1.4945184249	 0.0051640913	-0.324399
C	 1.2767003551	 0.8120111843	-0.0016398758	-0.045034
C	 0.0363563295	 0.0168831022	 0.0064474408	-0.045031
C	 0.0796597092	-0.6746315981	-1.4022193239	-0.006159
O	 1.4980316065	-0.9136847306	-1.5135192853	-0.247841
C	 1.873960776	 0.4755843216	-1.4139124481	-0.006165
C	 0.9889515855	 1.1041715372	-2.4848851112	-0.054855
C	-0.1319489169	 0.385654529	-2.4775617199	-0.054863
H	-0.2327430288	 1.8113086576	 0.9543970963	 0.228355
H	 1.9396285222	 0.8901680826	 0.85151186	 0.096408
H	-0.3035104752	-0.5478092834	 0.8661352235	 0.096408
H	-0.4752586287	-1.6082279889	-1.4772964215	 0.074771
H	 2.9532350644	 0.5895660871	-1.4996334313	 0.074771
H	 1.2069339449	 2.0132169436	-3.0267796551	 0.106817
H	-1.0539626298	 0.5639399509	-3.0120102398	 0.106817
293.6469	335.0825	516.2756	549.6219	617.6543	701.8664	729.5143	755.8206	770.6182	839.1535	865.6798	881.125	902.0982	917.4218	919.3722	931.5704	935.2014	984.3289	1009.4259	1071.5141	1105.2702	1132.7549	1146.7466	1194.7519	1243.55	1259.1818	1290.0514	1305.1093	1325.6314	1340.862	1389.1494	1645.0966	3135.2509	3138.0039	3180.5391	3191.095	3225.8526	3251.0072	3464.2091
N1C2C1C1OC2C=C1	N1[C@H]2[C@@H]1[C@@H]1O[C@H]2C=C1	
InChI=1S/C6H7NO/c1-2-4-6-5(7-6)3(1)8-4/h1-7H	InChI=1S/C6H7NO/c1-2-4-6-5(7-6)3(1)8-4/h1-7H/t3-,4+,5+,6-
