20
gdb 35744	3.94911	0.99441	0.8801	4.2633	83.69	-0.2806	0.0386	0.3192	1345.1058	0.172838	-366.034899	-366.026472	-366.025528	-366.068824	32.14	
N	-0.3304843825	-0.9749161281	-0.601843351	-0.327676
C	-0.1324212797	 0.1326995689	-0.3359588173	 0.25888
C	 0.1224430673	 1.5258975271	 0.0121564999	-0.141638
C	-0.6783009134	 2.0190860145	 1.2465037656	-0.214996
C	 0.100677226	 3.2633811969	 1.7476678756	-0.301827
C	 1.4713959912	 3.2028965314	 1.0511034762	 0.387322
C	 2.0108496784	 4.4151272088	 0.3275837408	-0.309038
C	 2.6753205921	 3.9209172753	 1.5908226449	-0.335401
C	 1.5869608265	 1.8275691461	 0.4066519943	-0.286863
H	-0.1383103434	 2.1429188023	-0.856365088	 0.125568
H	-1.7209494324	 2.2305648765	 1.0003904005	 0.117343
H	-0.6777179234	 1.2314291411	 2.0055245904	 0.124087
H	-0.425278614	 4.189447906	 1.4964577471	 0.107909
H	 0.2001652381	 3.2398567723	 2.8372122179	 0.110543
H	 2.5304992057	 4.2662987135	-0.6137853959	 0.113177
H	 1.4392308617	 5.3363690734	 0.3797866807	 0.112462
H	 2.5528135443	 4.5088376138	 2.4949380119	 0.114084
H	 3.6438696998	 3.4387566972	 1.5043824876	 0.114832
H	 1.9259024017	 1.0776425946	 1.1317844307	 0.117342
H	 2.270612286	 1.8001626984	-0.4454743121	 0.113888
33.4526	101.6873	141.5543	261.131	284.6143	342.1346	396.9982	456.89	529.5657	546.3305	555.83	757.3748	783.3394	802.6128	859.3024	872.0007	915.2008	943.3978	974.831	979.7471	990.8057	1037.9923	1049.3562	1060.4666	1066.4974	1083.6966	1173.143	1189.1731	1215.3434	1242.7385	1268.2713	1282.5161	1301.079	1309.9147	1327.2929	1369.5582	1386.2043	1467.0292	1489.7407	1494.079	1505.0104	1513.0933	2355.9416	3032.0237	3042.7169	3046.7876	3065.6956	3082.5406	3101.4247	3117.0505	3121.2107	3126.0706	3199.6706	3214.8068
N#CC1CCC2(CC2)C1	N#C[C@H]1CCC2(CC2)C1	
InChI=1S/C8H11N/c9-6-7-1-2-8(5-7)3-4-8/h7H,1-5H2	InChI=1S/C8H11N/c9-6-7-1-2-8(5-7)3-4-8/h7H,1-5H2/t7-/m0/s1
