23
gdb 91736	2.83719	1.42853	1.32062	1.434	84.3	-0.2365	0.0827	0.3191	1128.5617	0.208092	-388.318776	-388.310502	-388.309558	-388.351076	33.683	
C	-0.1777292695	 1.5567440066	 0.0128575232	-0.408782
C	 0.0067287793	 0.0408826164	 0.004289542	 0.040708
C	 0.8495206161	-0.5136126321	-1.1983247589	-0.247892
C	 1.9873150886	-1.2960845266	-0.4988237652	-0.035443
C	 1.2428806802	-1.8955121582	 0.7143985871	-0.242109
C	 0.8127381346	-0.5089338971	 1.2066079322	 0.108151
O	 2.0566092159	 0.199944403	 1.3059975584	-0.297314
C	 2.886376261	-0.2599559208	 0.2111122925	 0.157485
C	 4.2147018869	-0.7773512694	 0.7477726442	-0.409291
H	 0.7882877812	 2.0639673413	 0.0861517905	 0.129842
H	-0.6784027825	 1.8962925425	-0.8998881017	 0.106962
H	-0.7862275068	 1.877615377	 0.8657006786	 0.108262
H	-0.9815326311	-0.4350598433	 0.0098969497	 0.066103
H	 0.2526662417	-1.1720643684	-1.8364659253	 0.091815
H	 1.2388086217	 0.2905939519	-1.8313437135	 0.094577
H	 2.5348707282	-1.9881478582	-1.1404758264	 0.061366
H	 0.4060813427	-2.5394851267	 0.4308906961	 0.094069
H	 1.8833486287	-2.4220083741	 1.425016197	 0.099956
H	 0.3098754079	-0.4414136229	 2.1730162155	 0.065777
H	 3.0809788589	 0.5932914402	-0.4539890655	 0.065602
H	 4.0831363512	-1.6807424155	 1.350533685	 0.116008
H	 4.8995521922	-1.0057262357	-0.0760864283	 0.108841
H	 4.6813328829	-0.0162726198	 1.3800882025	 0.125308
112.1298	204.1765	213.8722	229.5181	263.8306	314.7552	388.0199	447.8534	464.4473	514.0709	626.8278	738.3314	767.3008	814.8127	825.2271	844.9481	915.3464	917.5705	932.7198	951.502	968.3722	982.981	1021.8155	1040.1949	1050.4886	1078.2068	1094.8594	1133.7298	1147.0617	1159.3418	1202.4706	1224.6398	1247.4429	1275.0651	1290.7327	1314.0435	1322.8992	1333.2932	1360.2508	1374.7028	1396.6977	1407.2634	1408.8152	1481.802	1490.9409	1492.3584	1497.1247	1502.0077	1504.5414	2994.5163	3022.781	3032.4252	3036.9904	3045.1474	3066.39	3086.2155	3093.8039	3101.5432	3106.0011	3108.9668	3115.8328	3117.1158	3122.8247
CC1CC2CC1OC2C	C[C@H]1C[C@@H]2C[C@H]1O[C@H]2C	
InChI=1S/C8H14O/c1-5-3-7-4-8(5)9-6(7)2/h5-8H,3-4H2,1-2H3	InChI=1S/C8H14O/c1-5-3-7-4-8(5)9-6(7)2/h5-8H,3-4H2,1-2H3/t5-,6-,7+,8+/m0/s1
