17
gdb 30172	4.35215	1.30326	1.05856	2.5741	74.32	-0.1839	0.0434	0.2273	1119.3245	0.138505	-418.036861	-418.029325	-418.028381	-418.06932	28.998	
C	 0.2349448011	 1.49828739	 0.1047245836	-0.392993
C	 0.0293159875	 0.0031295219	-0.028540793	 0.119363
C	 0.7384649527	-0.6555134943	-1.2742896873	-0.383748
C	 1.4554716847	-1.788572312	-0.6024570373	 0.178241
C	 1.291229132	-1.6610850594	 0.7333680305	 0.430827
N	 1.9903215087	-2.6619292448	 1.3373283638	-0.395316
C	 2.5649350053	-3.3714984888	 0.2851783682	-0.024028
N	 2.2628394043	-2.8645216132	-0.8894704962	-0.333099
O	 0.5537471898	-0.6411071546	 1.2073933679	-0.304908
H	 1.3023945716	 1.7366014459	 0.1398500816	 0.129896
H	-0.2052209219	 2.0136220386	-0.7551394068	 0.123812
H	-0.2373758376	 1.8788805955	 1.0145111669	 0.128456
H	-1.0384232029	-0.2386502905	-0.0400547012	 0.098663
H	-0.0037978837	-0.9595995727	-2.0197060669	 0.117455
H	 1.4144336901	 0.0595389186	-1.7616687469	 0.111784
H	 2.0690591569	-2.8607691739	 2.31975407	 0.270613
H	 3.1788596816	-4.2399342762	 0.466694373	 0.124981
41.3714	199.5019	246.5524	264.6799	325.7336	433.5072	454.3551	471.8636	596.5096	656.3191	690.9627	727.9616	739.6956	765.8928	825.0793	878.5104	938.581	962.2254	1042.5833	1055.3274	1093.2147	1116.9798	1163.1254	1204.6523	1243.344	1274.8831	1342.5189	1355.4869	1371.1596	1382.6176	1411.9656	1479.4266	1484.2492	1496.3411	1506.5917	1548.9	1668.4348	3012.0364	3040.4776	3045.5367	3066.0465	3113.87	3121.8178	3259.2839	3676.4933
CC1CC2=C(NC=N2)O1	C[C@H]1Cc2c([nH]cn2)O1	
InChI=1S/C6H8N2O/c1-4-2-5-6(9-4)8-3-7-5/h3-4H,2H2,1H3,(H,7,8)	InChI=1S/C6H8N2O/c1-4-2-5-6(9-4)8-3-7-5/h3-4H,2H2,1H3,(H,7,8)/t4-/m0/s1
