21
gdb 107421	3.0004	1.36621	1.1686	1.8686	81.18	-0.2482	0.0831	0.3313	1156.1284	0.183321	-387.075097	-387.066924	-387.06598	-387.107636	32.555	
C	-0.3203971265	 1.48613004	-0.0243786653	-0.374199
C	 0.1496820692	 0.0303840945	 0.0950772709	-0.291757
C	 0.8225590673	-0.4891328944	-1.1574584191	 0.360996
C	 0.0165361971	-0.925927029	-2.3601948929	-0.324546
C	 0.8053155554	-1.9512128363	-1.5830646316	-0.114351
C	 2.2035583526	-2.3592439767	-2.0588992335	-0.265046
C	 3.0426155918	-1.0894493731	-2.0065724737	 0.041354
O	 2.589354469	-0.031431146	-2.8635308801	-0.256716
C	 2.2212998	 0.0114310245	-1.4768008058	-0.031592
H	 0.5169172896	 2.1624673748	-0.2269322923	 0.117827
H	-1.0383331483	 1.5987511513	-0.8430322357	 0.121516
H	-0.8021893637	 1.8224236076	 0.8989967106	 0.110278
H	 0.8360625919	-0.0657599088	 0.9477563806	 0.094295
H	-0.7086542788	-0.6118931506	 0.3261766479	 0.096064
H	-1.0627617901	-0.9507338474	-2.245054174	 0.101851
H	 0.3693412655	-0.628574078	-3.3397864801	 0.13117
H	 0.2422360623	-2.6760418346	-1.003703738	 0.081863
H	 2.6339805494	-3.096833336	-1.3714077101	 0.103904
H	 2.2067021662	-2.806355157	-3.0591657035	 0.114995
H	 4.1226486623	-1.1500057987	-1.8881873846	 0.09232
H	 2.6328527077	 0.8467870238	-0.9155991098	 0.089775
95.2835	138.353	196.3046	267.5857	283.5953	343.738	366.6553	431.9744	508.0066	619.4573	706.8783	733.6013	784.3528	801.1226	835.6824	858.2281	887.5242	906.8783	933.5739	960.9469	986.5244	1014.1692	1024.4864	1061.7592	1076.663	1098.7891	1099.5444	1116.3387	1129.9876	1213.4495	1236.2599	1256.7418	1267.6109	1296.634	1318.6243	1355.6709	1365.3674	1401.8118	1411.8197	1423.3025	1473.6906	1479.6267	1488.0897	1497.0038	1506.101	3011.1582	3034.5189	3038.0737	3049.7373	3076.4524	3101.736	3107.1536	3129.6414	3130.4763	3145.3321	3155.8776	3228.5098
CCC12CC1CC1OC21	CC[C@]12C[C@H]1C[C@H]1O[C@@H]21	
InChI=1S/C8H12O/c1-2-8-4-5(8)3-6-7(8)9-6/h5-7H,2-4H2,1H3	InChI=1S/C8H12O/c1-2-8-4-5(8)3-6-7(8)9-6/h5-7H,2-4H2,1H3/t5-,6-,7-,8+/m1/s1
