16
gdb 75075	2.24121	1.79992	1.01072	5.7883	74.07	-0.237	-0.0315	0.2055	1122.6739	0.123594	-437.955506	-437.94723	-437.946286	-437.988496	30.422	
C	-0.0273943637	 1.5115362368	 0.0409203482	-0.502522
C	-0.010180434	 0.0201502234	-0.0226847314	 0.38353
C	-0.0267588676	-0.7589890077	-1.1080981262	-0.222779
C	 0.0009939074	-2.2043204176	-0.7168834125	-0.393389
C	 0.037608443	-2.1622341057	 0.8128740359	 0.41691
O	 0.0679809255	-3.0817350148	 1.5780329781	-0.307412
N	 0.0286687435	-0.7730755145	 1.1642185573	-0.201172
C	 0.0538140966	-0.2680574085	 2.4631565197	 0.153746
O	 0.0869647568	-0.9240629554	 3.4692771958	-0.272654
H	 0.8629653503	 1.9113867352	 0.5396393884	 0.146614
H	-0.0570288277	 1.9130896174	-0.9739208464	 0.14209
H	-0.9023334958	 1.8891886659	 0.5824019593	 0.146609
H	-0.056041441	-0.392028512	-2.1234969182	 0.112441
H	-0.8783689459	-2.7737274746	-1.0405505422	 0.153282
H	 0.8776687673	-2.7515790781	-1.0832294708	 0.153292
H	 0.0404822553	 0.83663823	 2.4660210849	 0.091414
78.268	152.8705	218.9532	223.7372	228.3103	277.1594	309.8628	478.6893	516.8694	530.542	600.6908	617.865	703.6217	748.2849	758.8567	961.4814	969.2601	1020.9143	1028.6527	1057.9689	1071.1931	1081.3963	1154.8549	1242.1338	1260.2472	1310.605	1365.435	1421.9584	1440.8417	1461.2341	1479.6712	1492.7799	1720.3208	1804.3696	1888.4576	2971.6995	3031.9332	3041.9066	3071.7705	3083.5491	3131.3902	3240.9919
CC1=CCC(=O)N1C=O	CC1=CCC(=O)N1C=O	
InChI=1S/C6H7NO2/c1-5-2-3-6(9)7(5)4-8/h2,4H,3H2,1H3	InChI=1S/C6H7NO2/c1-5-2-3-6(9)7(5)4-8/h2,4H,3H2,1H3
