20
gdb 12122	3.62611	1.69291	1.65465	0.3743	78.95	-0.1995	0.0935	0.2929	932.8729	0.176346	-311.809874	-311.80202	-311.801076	-311.841243	31.564	
C	 0.0084540136	 1.5138883903	 0.0246526247	-0.490938
C	 0.008250653	 0.0136453176	 0.0028675024	 0.370525
C	-0.9104461069	-0.8376293231	 0.8356054622	-0.357429
C	 0.5837382687	-0.97593484	 1.0048088496	-0.160572
C	 1.3070190749	-1.7365712876	-0.1482856441	 0.370526
C	 2.7276300537	-2.1969300335	-0.0028945407	-0.490938
C	 0.3622231037	-2.2491845443	-1.2002905697	-0.357429
C	 0.6916581761	-0.7761745763	-1.154919203	-0.160571
H	 1.001533283	 1.9169405268	-0.2082606221	 0.114709
H	-0.6938838461	 1.9246717922	-0.7120614153	 0.116911
H	-0.2836743847	 1.893642136	 1.0091450935	 0.114487
H	-1.3906458806	-0.2980180442	 1.6480121973	 0.105165
H	-1.5338497488	-1.6247764002	 0.4256652738	 0.107208
H	 1.0725767391	-0.7669130057	 1.9494111532	 0.079932
H	 2.799606607	-3.06910416	 0.6596012067	 0.116912
H	 3.1509771615	-2.4806004149	-0.9719589938	 0.114487
H	 3.3617160737	-1.4090826267	 0.4215310601	 0.114709
H	 0.8557591109	-2.7790357567	-2.0111276046	 0.105165
H	-0.6248726189	-2.6407591829	-0.9798481114	 0.107208
H	 1.1746886272	-0.2738832266	-1.9851671891	 0.079932
143.098	209.0876	218.6124	270.4651	290.8138	324.1326	394.4537	462.3767	487.5391	570.4798	618.6688	781.6707	792.3457	807.6083	859.4754	901.79	932.6099	943.8718	967.1596	974.6576	1012.3857	1021.7813	1023.5041	1057.8978	1091.6795	1097.6531	1111.0149	1144.46	1188.9955	1216.7446	1266.1123	1310.9669	1361.5098	1399.6144	1419.0529	1422.6274	1483.0452	1484.0733	1488.2129	1500.9963	1502.4309	1518.9926	3012.7969	3013.7993	3067.3337	3068.0568	3093.6723	3093.7627	3115.1704	3126.5673	3173.2901	3174.5296	3192.4254	3200.7872
CC12CC1C1(C)CC21	C[C@]12C[C@H]1[C@@]1(C)C[C@@H]21	
InChI=1S/C8H12/c1-7-3-5(7)8(2)4-6(7)8/h5-6H,3-4H2,1-2H3	InChI=1S/C8H12/c1-7-3-5(7)8(2)4-6(7)8/h5-6H,3-4H2,1-2H3/t5-,6+,7+,8-/m1/s1
