23
gdb 106968	3.01979	1.15236	1.05568	1.4048	86.18	-0.226	0.0852	0.3112	1312.2629	0.203303	-388.272616	-388.262708	-388.261764	-388.306857	38.139	
C	-0.0169495915	 1.4943163672	 0.0559487789	-0.374537
C	-0.0293209761	-0.0272787345	-0.1468057124	-0.289969
C	-1.4049224696	-0.6034547146	-0.0109603648	 0.503246
C	-2.0890997745	-1.0197131932	 1.2564453937	-0.359236
C	-1.9700159359	-2.0002839518	 0.1034181991	-0.243361
C	-2.9014992681	-1.5908694614	-1.0461446919	 0.416295
C	-2.4959277425	-2.2238885736	-2.3718596815	-0.422627
C	-4.4067750832	-1.6339915957	-0.8325743871	-0.437398
O	-2.3837429963	-0.2144721572	-0.9880030043	-0.373843
H	 0.989476418	 1.9002156875	-0.0826975039	 0.10856
H	-0.683571813	 1.9810563306	-0.6616926322	 0.136686
H	-0.3558273157	 1.7594142683	 1.0625323675	 0.117359
H	 0.3638921911	-0.2695535836	-1.1417860403	 0.102925
H	 0.6275850449	-0.5134500947	 0.5842183623	 0.09869
H	-1.4317696609	-1.239326338	 2.0928279587	 0.109523
H	-3.0452286401	-0.5841479268	 1.5306755204	 0.110478
H	-1.4720532735	-2.9580367736	 0.1894559316	 0.090332
H	-2.7888034814	-3.2794616891	-2.401988166	 0.110729
H	-2.9850263755	-1.7075200519	-3.2036126207	 0.121111
H	-1.4139070908	-2.1612792633	-2.5145806255	 0.118717
H	-4.6901716287	-1.2015146794	 0.129217071	 0.118724
H	-4.9149716607	-1.0695606559	-1.6214137467	 0.12281
H	-4.7678819662	-2.6672437153	-0.8674180859	 0.114786
77.1592	115.9616	171.7556	196.1223	229.9962	238.8536	259.401	334.4863	347.9849	394.0245	407.5071	481.0895	508.6952	626.5126	693.2923	782.0795	826.863	846.3978	865.5814	927.2649	932.3668	965.4065	976.5454	989.739	998.333	1005.902	1025.3786	1066.2141	1082.1507	1116.1085	1149.397	1198.6123	1233.4551	1248.8905	1303.2334	1316.7959	1349.6839	1398.4958	1404.4789	1410.8391	1419.0228	1472.6885	1474.0561	1478.0054	1492.361	1496.3705	1497.7898	1502.6152	1511.3192	3026.1388	3032.1519	3039.7783	3040.7128	3064.5038	3100.1083	3107.4802	3109.229	3115.7796	3118.3724	3119.1985	3128.9438	3185.9876	3204.2308
CCC12CC1C(C)(C)O2	CC[C@]12C[C@H]1C(C)(C)O2	
InChI=1S/C8H14O/c1-4-8-5-6(8)7(2,3)9-8/h6H,4-5H2,1-3H3	InChI=1S/C8H14O/c1-4-8-5-6(8)7(2,3)9-8/h6H,4-5H2,1-3H3/t6-,8-/m0/s1
