18
gdb 86888	3.23424	1.14172	0.94324	5.0503	72.93	-0.271	0.0167	0.2876	1247.2444	0.147146	-439.102532	-439.093519	-439.092575	-439.136849	32.948	
C	-0.0243270513	 1.6250300911	 0.0264755331	-0.401821
C	-0.0353055474	 0.1237218727	 0.2486019457	 0.142803
O	 0.3402452671	-0.5315679697	-0.9768038239	-0.280681
C	 1.0808956379	-1.7120631897	-0.6961571352	 0.008942
C	 1.0960331689	-1.8725142485	 0.8430387677	-0.286202
C	 0.9398249487	-0.4169762652	 1.30262408	 0.079635
O	 2.1582294198	 0.3021258664	 1.2019720133	-0.428385
C	 0.4810249062	-2.8686163677	-1.3796306851	 0.269147
N	 0.0243682455	-3.7900308766	-1.9062211795	-0.321983
H	 0.9845741498	 1.968543647	-0.2053543092	 0.14513
H	-0.6898417539	 1.8813758681	-0.8016148473	 0.129908
H	-0.3759162799	 2.1427770701	 0.9243157715	 0.115813
H	-1.0482279728	-0.2041989755	 0.5295685933	 0.08028
H	 2.102376307	-1.586777737	-1.0777484239	 0.12943
H	 0.2450578242	-2.4737614562	 1.1749033513	 0.131764
H	 2.0125610244	-2.3447855844	 1.203606186	 0.115601
H	 0.5145799036	-0.3435384758	 2.312473594	 0.080551
H	 2.7751042422	-0.0564365789	 1.8473170782	 0.29007
37.2275	125.3975	156.7155	217.6302	244.9946	264.7672	277.2934	351.3373	394.0321	493.5723	551.9412	565.965	664.8976	736.0418	815.4423	878.5716	892.5702	910.9398	995.5764	1021.4682	1038.5164	1046.216	1098.1147	1136.5106	1165.9959	1208.5281	1215.3984	1277.1207	1313.8778	1341.065	1351.3946	1375.8278	1390.1052	1412.6553	1426.8631	1481.8323	1486.9271	1496.7295	2359.6293	2981.0531	3018.9706	3025.5835	3052.9011	3069.8788	3121.3425	3121.8283	3152.323	3825.9145
CC1OC(CC1O)C#N	C[C@H]1O[C@@H](C[C@H]1O)C#N	
InChI=1S/C6H9NO2/c1-4-6(8)2-5(3-7)9-4/h4-6,8H,2H2,1H3	InChI=1S/C6H9NO2/c1-4-6(8)2-5(3-7)9-4/h4-6,8H,2H2,1H3/t4-,5+,6-/m1/s1
