19
gdb 76647	3.10154	1.09484	0.94494	1.5204	72.07	-0.2285	0.0498	0.2782	1286.9788	0.158469	-460.1069	-460.097895	-460.096951	-460.141588	33.118	
O	 0.1684240282	 1.3018694993	-0.0556690751	-0.430418
C	-0.0090706342	-0.0798796914	 0.0196943816	 0.078674
C	-0.4350005243	-0.6493168781	 1.3501961644	 0.009496
O	-0.6806256643	 0.3058622356	 2.3543640702	-0.42033
C	-1.4069499465	-0.6626195459	 0.1921153998	-0.114244
C	-2.6229280994	 0.2153012992	 0.1623034245	 0.165768
C	-3.3426517977	 0.4019701221	-1.1943575715	-0.292804
C	-4.5792739168	-0.1316405987	-0.4472191795	-0.063558
O	-3.7938512507	-0.4391538223	 0.7228042222	-0.298618
H	-0.0447615568	 1.6441487866	 0.8243569946	 0.284668
H	 0.702084963	-0.6152530418	-0.6020479976	 0.102161
H	-0.0399378234	-1.5978681705	 1.7064062235	 0.096505
H	 0.1167533912	 0.3788459713	 2.8903020914	 0.298419
H	-1.5685605409	-1.6414636173	-0.252628105	 0.090126
H	-2.4321845803	 1.1599767307	 0.6808933915	 0.077673
H	-3.3949585488	 1.4214737757	-1.5779247782	 0.111787
H	-2.9723117475	-0.2597712203	-1.9801417934	 0.106883
H	-5.3491317905	 0.6225784757	-0.2355988215	 0.097107
H	-5.0649347502	-1.0225281699	-0.8622807419	 0.100706
44.8533	83.8631	112.0337	166.1559	258.5397	281.9008	294.9509	365.7071	505.6663	554.887	569.8504	667.8905	748.2188	773.2326	796.3125	840.8197	887.6006	950.477	971.5932	1016.1995	1023.4808	1039.7449	1052.5766	1093.5076	1116.6992	1152.4235	1163.2668	1179.4165	1211.8525	1234.9415	1251.5582	1260.635	1274.6156	1316.4346	1326.9892	1355.7237	1411.6461	1424.7563	1472.8956	1490.685	1533.4831	3007.4416	3050.9807	3055.1364	3077.9105	3124.7318	3135.1623	3139.9818	3156.5886	3727.9373	3805.7272
OC1C(O)C1C1CCO1	O[C@H]1[C@@H](O)[C@H]1[C@H]1CCO1	
InChI=1S/C6H10O3/c7-5-4(6(5)8)3-1-2-9-3/h3-8H,1-2H2	InChI=1S/C6H10O3/c7-5-4(6(5)8)3-1-2-9-3/h3-8H,1-2H2/t3-,4-,5+,6-/m1/s1
