20
gdb 15842	4.3696	0.95758	0.83499	0.2623	71.61	-0.257	0.0748	0.3317	1386.983	0.175425	-386.117335	-386.107757	-386.106813	-386.152207	34.279	
O	-0.1001541749	 1.4167838508	-0.1413337409	-0.42458
C	 0.016058903	 0.0091435718	 0.018490983	-0.078715
C	-1.3843760097	-0.5845165853	-0.0532791382	-0.182725
C	-1.4052062461	-2.1064017922	 0.128783018	 0.101095
O	-0.8041312806	-2.4927888134	 1.3677975093	-0.434141
C	-2.8012714817	-2.6723189668	-0.0211833127	 0.012266
C	-3.3003449588	-3.1231626815	-1.3720742789	-0.265863
C	-2.9917395412	-4.1385897307	-0.3009885681	-0.273
H	 0.7760365954	 1.800591534	-0.0444923894	 0.2842
H	 0.6446341986	-0.4306535755	-0.7740500449	 0.080749
H	 0.4753573655	-0.2536647142	 0.9812956091	 0.097832
H	-2.0066336051	-0.114138817	 0.7208293855	 0.092107
H	-1.8374429983	-0.3262977299	-1.0173539358	 0.109191
H	-0.7611786173	-2.5674810122	-0.6323804455	 0.078926
H	-1.3798887524	-2.1860041002	 2.0771751524	 0.275114
H	-3.5398975616	-2.2021909695	 0.6266188659	 0.074
H	-4.3372744684	-2.9353569167	-1.6272637511	 0.11215
H	-2.6186020589	-3.048907297	-2.2134394853	 0.112159
H	-2.0990414757	-4.7445058171	-0.4138131055	 0.118905
H	-3.8189590919	-4.6520802472	 0.1761834733	 0.11033
59.9003	89.2411	106.5836	129.843	225.8052	255.8869	272.8864	285.8602	351.5973	397.2415	487.6531	555.5643	771.7925	797.5828	830.0879	861.1084	915.8978	943.7798	977.1023	1023.0369	1056.3468	1069.5388	1076.2015	1090.7803	1105.9885	1134.4513	1150.2923	1195.7033	1210.1517	1225.6505	1245.8143	1282.0319	1303.2051	1321.4324	1365.3784	1410.2484	1431.4492	1460.2481	1470.6755	1484.4443	1506.8406	1531.016	2961.279	3013.3682	3021.6666	3025.6617	3074.0924	3114.7864	3129.7324	3136.1214	3207.8714	3223.2543	3798.5206	3830.1678
OCCC(O)C1CC1	OCC[C@@H](O)C1CC1	
InChI=1S/C6H12O2/c7-4-3-6(8)5-1-2-5/h5-8H,1-4H2	InChI=1S/C6H12O2/c7-4-3-6(8)5-1-2-5/h5-8H,1-4H2/t6-/m1/s1
