21
gdb 106628	2.6019	1.45498	1.28519	1.4744	77.97	-0.2395	0.077	0.3165	1108.6664	0.1832	-424.207106	-424.19843	-424.197485	-424.240143	33.806	
C	-0.0613886617	 1.3332122491	 0.0455977089	-0.260205
O	 0.1117175575	-0.0682028715	 0.0173898336	-0.301597
C	 0.7044849437	-0.563298799	-1.1366442367	 0.43174
C	-0.0027739645	-0.5517718893	-2.5355504096	-0.301911
C	 0.974756477	-1.7292738018	-2.8037727319	-0.089633
C	 2.3518187769	-1.0361948539	-2.7606932468	-0.20509
C	 2.1496824818	-0.139944907	-1.4977240046	-0.273904
C	 0.7594051994	-2.0954901398	-1.3019358522	 0.092231
O	 1.7680726124	-2.7540310008	-0.578658064	-0.442559
H	 0.8969495122	 1.8706616178	 0.0617338062	 0.111531
H	-0.6458467263	 1.6897727034	-0.8153404502	 0.106996
H	-0.6081648796	 1.5674152718	 0.9619870141	 0.126114
H	-1.0488614021	-0.8592758575	-2.4733672504	 0.099637
H	 0.101758512	 0.3384571223	-3.159990517	 0.092466
H	 0.7916675266	-2.4499995765	-3.6001981977	 0.057613
H	 3.1639648721	-1.7533778099	-2.6246801	 0.102739
H	 2.5483968464	-0.4568087601	-3.667035277	 0.090453
H	 2.2250025159	 0.9271678639	-1.7218963325	 0.089764
H	 2.8460485815	-0.3802211669	-0.6923093846	 0.116999
H	-0.2283561031	-2.5377256615	-1.1242937935	 0.071359
H	 1.6921908119	-3.6990644326	-0.739902304	 0.285257
77.542	172.7218	206.0547	225.8557	247.6564	265.6112	312.2575	380.457	460.1005	487.7961	581.1066	630.1396	720.7588	801.0233	821.237	851.7696	884.3883	900.6526	945.0242	965.8681	993.0361	1051.2827	1057.7374	1085.4097	1124.4762	1134.8326	1152.9002	1173.7108	1182.697	1199.4258	1215.9427	1239.5567	1253.0807	1267.4458	1271.2644	1299.3206	1327.0136	1347.3099	1440.2677	1483.1926	1485.4382	1490.9059	1492.3656	1508.3564	1521.8639	2988.2889	3035.087	3039.0754	3058.3988	3065.4122	3070.4511	3106.068	3115.651	3117.741	3125.1846	3127.8642	3829.5835
COC12CC(CC1)C2O	CO[C@@]12C[C@@H](CC1)[C@H]2O	
InChI=1S/C7H12O2/c1-9-7-3-2-5(4-7)6(7)8/h5-6,8H,2-4H2,1H3	InChI=1S/C7H12O2/c1-9-7-3-2-5(4-7)6(7)8/h5-6,8H,2-4H2,1H3/t5-,6-,7-/m1/s1
