16
gdb 44526	4.47547	1.2814	1.14135	5.105	76.67	-0.235	-0.0445	0.1905	1051.8145	0.125961	-400.705431	-400.698699	-400.697755	-400.736578	27.072	
O	 0.0809478149	 0.0299279932	 0.0854422268	-0.32293
C	 0.0144838208	 1.2328417476	 0.0359196754	 0.386872
C	-1.3085797233	 2.0677975206	 0.0565290058	-0.37439
C	-0.8316453133	 3.4348954958	-0.4267378605	-0.042334
C	-0.8784419717	 4.8513644173	 0.2062879798	-0.089602
N	-0.232429561	 4.793567167	 1.5279825515	-0.318265
C	 0.6239168222	 4.8683073084	 0.2903273335	-0.186366
C	 0.6506296763	 3.4211275555	-0.1182320002	 0.353419
C	 1.1612213151	 2.2035797508	 0.0624926002	-0.346314
H	-2.0893591182	 1.5870164417	-0.5353132461	 0.119181
H	-1.6384017781	 2.1110102747	 1.100753993	 0.146057
H	-0.9818332741	 3.5601493278	-1.5063139118	 0.103732
H	-1.5581823235	 5.6547722357	-0.0495633989	 0.101636
H	-0.2524907674	 5.7366234285	 1.9192867205	 0.237467
H	 1.3414297724	 5.667176917	 0.1625599164	 0.114524
H	 2.1690826688	 1.9004924583	 0.3123476947	 0.117313
107.4889	201.8638	247.2288	376.274	487.5563	519.4477	581.7034	598.0456	677.3428	684.9772	773.2676	799.1167	828.1903	860.154	880.9443	891.5959	922.9365	995.536	1010.6974	1047.1396	1084.6655	1102.5575	1111.7558	1121.2524	1165.7487	1181.4429	1226.2343	1236.9122	1274.2351	1298.4094	1351.0682	1357.58	1452.4489	1704.6108	1820.5426	3034.1248	3058.016	3125.1321	3191.8559	3214.5302	3227.5747	3458.2721
O=C1CC2C3NC3C2=C1	O=C1C[C@H]2[C@H]3N[C@H]3[C]2[CH]1	
InChI=1S/C7H7NO/c9-3-1-4-5(2-3)7-6(4)8-7/h1,5-8H,2H2	InChI=1S/C7H7NO/c9-3-1-4-5(2-3)7-6(4)8-7/h1,5-8H,2H2/t5-,6+,7-/m1/s1
