17
gdb 35737	2.88538	1.42313	1.19661	1.4805	73.08	-0.2475	0.0328	0.2802	1078.6407	0.134597	-421.765639	-421.757357	-421.756413	-421.799577	31.105	
C	 0.7849202478	-0.9360185705	 0.1228838149	-0.452567
C	 0.3421880182	 0.1809372548	 0.114888497	 0.354182
C	-0.2240548033	 1.5430794168	 0.0847788078	-0.03911
O	-0.85673309	 1.8737718299	 1.3059861435	-0.246483
C	 0.1233307572	 2.5167442274	 2.1229230213	-0.160206
C	 1.2760154181	 2.8088599743	 1.1615164365	 0.408854
C	 2.2476057743	 3.9303656374	 1.2827979968	-0.343707
C	 2.7119275864	 2.4919438373	 1.4621619782	-0.317516
O	 0.763712888	 2.5281201621	-0.125096295	-0.253825
H	 1.1770403232	-1.9233413593	 0.129904371	 0.201213
H	-0.9628025015	 1.6295129204	-0.7178300216	 0.12001
H	-0.3286606891	 3.4247529719	 2.5355378819	 0.117597
H	 0.4335507068	 1.8631482233	 2.947091052	 0.113877
H	 2.528561625	 4.4368615357	 0.366202321	 0.132223
H	 2.1853818102	 4.5719004125	 2.1557616305	 0.119033
H	 2.9665012117	 2.1499201807	 2.4603755642	 0.1153
H	 3.296965237	 2.0538360551	 0.6621866301	 0.131125
26.3538	85.9112	179.761	256.96	281.7059	317.8007	441.6544	501.7311	528.1612	585.3794	658.9903	665.6764	761.7791	799.6801	809.6983	864.2986	899.9619	924.352	957.2095	975.031	990.6149	1033.1305	1054.8473	1076.5671	1105.47	1122.4923	1187.9245	1211.9719	1246.532	1318.894	1347.8315	1373.2882	1398.593	1452.2773	1500.5185	1523.1979	2232.9353	3025.0723	3070.2959	3072.7975	3130.8253	3133.6605	3217.3745	3231.9019	3500.0388
C#CC1OCC2(CC2)O1	C#C[C@H]1OCC2(CC2)O1	
InChI=1S/C7H8O2/c1-2-6-8-5-7(9-6)3-4-7/h1,6H,3-5H2	InChI=1S/C7H8O2/c1-2-6-8-5-7(9-6)3-4-7/h1,6H,3-5H2/t6-/m0/s1
