20
gdb 74812	3.57958	1.28632	1.10339	1.7356	81.07	-0.2248	0.0242	0.2489	1178.6195	0.171119	-403.165102	-403.156421	-403.155477	-403.197999	33.333	
C	-0.0281086888	 1.480234872	-0.062250705	-0.457056
C	-0.0628796564	-0.0134130396	 0.0467436153	 0.385089
N	-1.1252845317	-0.6864401135	-0.1219895856	-0.29611
C	-1.0374302021	-2.1135749118	-0.0828368412	-0.020252
C	-0.0842123302	-2.8248955949	-1.0322740566	-0.336392
C	 0.2095464142	-2.784407226	 0.4444380044	 0.286893
C	 0.1058156184	-4.0527450598	 1.2616564279	-0.471311
C	 1.2506255612	-1.802722025	 0.939267131	-0.140957
O	 1.1819129365	-0.517302849	 0.3076678498	-0.267372
H	 0.7059272521	 1.7869289977	-0.8148421738	 0.137421
H	-1.0142011056	 1.8507204845	-0.3399012493	 0.143629
H	 0.2818441857	 1.9265942589	 0.888551471	 0.133908
H	-1.9937317676	-2.5934195958	 0.1008371041	 0.087715
H	-0.4028786707	-3.7691102802	-1.4612098405	 0.110907
H	 0.4980341481	-2.1972644411	-1.6986444639	 0.123767
H	-0.7050215449	-4.6878579552	 0.8925224709	 0.122226
H	 1.0319333757	-4.6387388231	 1.2130149902	 0.118346
H	-0.0962421705	-3.8332124075	 2.3166669867	 0.119997
H	 1.1273306933	-1.6636494967	 2.0233334841	 0.10467
H	 2.2702910035	-2.1598172136	 0.7598294105	 0.114882
119.78	144.1222	164.2536	211.0199	246.1122	305.6058	339.0144	373.321	410.1245	491.6603	553.3516	635.7996	675.6404	752.5641	807.7444	862.279	881.6611	928.9945	959.9885	992.5354	1029.3482	1047.4021	1052.3125	1068.1202	1086.8598	1114.7295	1142.1621	1185.7776	1244.2573	1261.9744	1290.5029	1343.4664	1383.6839	1408.0437	1417.6018	1428.3417	1474.9171	1476.6966	1484.8347	1490.7842	1500.1017	1515.683	1741.4666	2997.3678	3020.288	3043.8276	3064.5484	3077.9946	3098.9267	3102.4412	3129.09	3151.3065	3163.8185	3218.4804
CC1=NC2CC2(C)CO1	CC1=N[C@H]2C[C@@]2(C)CO1	
InChI=1S/C7H11NO/c1-5-8-6-3-7(6,2)4-9-5/h6H,3-4H2,1-2H3	InChI=1S/C7H11NO/c1-5-8-6-3-7(6,2)4-9-5/h6H,3-4H2,1-2H3/t6-,7-/m0/s1
