24
gdb 109762	1.85812	1.40739	0.93293	2.6351	86.74	-0.2136	0.0667	0.2803	1380.7855	0.214959	-405.517959	-405.506978	-405.506034	-405.553499	40.686	
C	-4.3293038416	 2.3922838484	-0.3456315913	-0.384316
C	-3.3282887724	 1.8291105424	 0.667885671	 0.076783
C	-3.9246005353	 1.7773120779	 2.0779364706	-0.395865
N	-2.9767537922	 0.4675739125	 0.2589485401	-0.092062
C	-1.9345182705	 0.1975708375	-0.7323602758	-0.019428
C	-1.1061319687	 1.267632358	-1.4183878788	-0.417565
C	-1.7450772375	-0.1886517967	 0.7017591921	-0.006266
C	-0.6959570584	 0.4547488177	 1.5766174995	-0.107028
O	-1.0384583143	 0.1802380197	 2.9326366657	-0.409792
H	-4.6378229049	 3.4031345201	-0.0603545902	 0.1065
H	-3.8983216333	 2.4410729946	-1.3501656217	 0.109158
H	-5.2182565795	 1.7554012616	-0.3902167953	 0.122399
H	-2.4572101003	 2.5049347655	 0.6914619315	 0.049975
H	-3.2037142758	 1.365454335	 2.7884048725	 0.138516
H	-4.2118365973	 2.7809039813	 2.4085336527	 0.099243
H	-4.815724032	 1.1413963882	 2.0860865962	 0.117099
H	-2.209963207	-0.6073709536	-1.4150461408	 0.085169
H	-0.8226098895	 2.0901813359	-0.7597530904	 0.120205
H	-0.1846015109	 0.8265738492	-1.8143454712	 0.120527
H	-1.6524431275	 1.6932072178	-2.2667530794	 0.125193
H	-1.8902512654	-1.2346303627	 0.9733506137	 0.091905
H	 0.2837696878	 0.0146858766	 1.3287902642	 0.093333
H	-0.6224506727	 1.5353187505	 1.4013374682	 0.089462
H	-0.3563662406	 0.5581970926	 3.4958828171	 0.286855
77.0578	115.3393	154.4621	163.1779	179.5378	215.7735	229.4436	256.8892	271.701	282.544	341.4404	379.6855	432.4136	499.6259	546.9709	573.8008	705.6621	785.2188	837.9341	894.9914	938.4222	961.785	986.2705	1001.5089	1047.7048	1063.8614	1074.8636	1110.6071	1144.6147	1160.0618	1185.3227	1191.6817	1199.6454	1252.3735	1262.1835	1344.9008	1361.4112	1366.118	1376.6453	1396.6102	1414.9144	1417.0495	1431.3262	1467.3033	1483.2983	1490.5145	1494.2215	1497.4492	1505.8318	1513.0931	1518.4694	2948.4942	2970.7554	3031.7935	3034.3629	3037.9783	3039.3074	3083.9549	3090.8247	3101.9018	3104.2297	3108.1169	3113.5212	3127.9705	3132.7896	3826.4754
CC(C)N1C(C)C1CO	CC(C)N1[C@@H](C)[C@H]1CO	
InChI=1S/C7H15NO/c1-5(2)8-6(3)7(8)4-9/h5-7,9H,4H2,1-3H3	InChI=1S/C7H15NO/c1-5(2)8-6(3)7(8)4-9/h5-7,9H,4H2,1-3H3/t6-,7+,8?/m0/s1
