16
gdb 18745	3.96809	1.85076	1.41612	3.1072	66.96	-0.2233	0.0198	0.2431	887.6963	0.130958	-379.878052	-379.870964	-379.87002	-379.909365	26.634	
C	-0.0326027483	 1.5406028302	 0.0787626011	-0.329048
N	 0.1026606132	 0.1020987001	 0.1276278602	-0.072789
C	-1.1228874278	-0.7122000525	 0.3053438971	-0.196435
C	-0.420632794	-1.5298772231	 1.4003627864	 0.094917
O	 0.4774141267	-2.5652531437	 0.8996842941	-0.278446
C	 1.5727183992	-1.7066449452	 0.9364073282	 0.477518
N	 2.7849289831	-1.9220297159	 0.7168274031	-0.551643
C	 0.7347327052	-0.503627957	 1.3293580023	-0.147268
H	 0.9586521529	 2.0030733127	 0.0463070851	 0.134287
H	-0.5628556035	 1.8248202819	-0.8360377918	 0.128552
H	-0.5860243093	 1.9650619203	 0.9384263958	 0.090285
H	-1.9651849172	-0.139703667	 0.7244435094	 0.098206
H	-1.4569547059	-1.2519981838	-0.5861713163	 0.12034
H	-0.9605710865	-1.8602599323	 2.2851007922	 0.103736
H	 2.9517554483	-2.8932567768	 0.4472310173	 0.230019
H	 1.0703876838	 0.1675768521	 2.1203719557	 0.097769
114.4865	151.6166	218.6684	276.9956	336.2404	386.1193	446.4489	631.9586	661.445	787.2552	822.5016	849.3857	867.9121	915.4359	960.7131	994.8202	1007.7249	1015.4839	1044.9628	1136.1774	1164.3532	1179.8752	1187.7556	1202.2457	1233.0615	1258.9622	1306.2813	1333.5572	1343.0796	1452.0742	1483.4428	1499.335	1501.6493	1831.7535	2921.2967	2984.7403	3062.3375	3077.3393	3106.0858	3114.4706	3140.1126	3473.6655
CN1CC2OC(=N)C12	CN1C[C@H]2O[C]([NH])[C@@H]12	
InChI=1S/C5H8N2O/c1-7-2-3-4(7)5(6)8-3/h3-4,6H,2H2,1H3	InChI=1S/C5H8N2O/c1-7-2-3-4(7)5(6)8-3/h3-4,6H,2H2,1H3/t3-,4+/m1/s1
