19
gdb 90988	2.68928	1.85938	1.34446	1.6593	73.99	-0.2355	0.0734	0.3089	992.9674	0.158694	-422.96844	-422.960703	-422.959758	-423.000175	31.062	
C	-0.0839822994	 1.548796309	-0.0741465084	-0.403797
C	 0.023538149	 0.034884794	 0.0255319582	 0.068628
O	 0.8643912035	-0.4761522254	-1.0432058422	-0.289544
C	 1.8532214731	-1.1877572833	-0.3536143132	 0.094516
C	 1.2644915923	-1.9387722473	 0.8728113602	-0.029969
O	 2.5047517688	-1.7358692236	 1.6258505506	-0.320017
C	 2.2810284861	-0.4546236654	 0.9494050836	-0.025304
C	 0.741296184	-0.5098670474	 1.2605754178	 0.305658
C	 0.2185770946	-0.2340193878	 2.6462056727	-0.516061
H	 0.8923850184	 2.0225858292	 0.0686112255	 0.119446
H	-0.4597548395	 1.8331258717	-1.0608327911	 0.131106
H	-0.7746613867	 1.9398465188	 0.6798969959	 0.118923
H	-0.9735798104	-0.4161916644	-0.0785677868	 0.081189
H	 2.581111695	-1.6517603294	-1.0151922838	 0.101652
H	 0.7664675704	-2.9057977027	 0.9498512192	 0.089888
H	 3.0013763639	 0.3462702758	 1.1171334818	 0.090705
H	 0.2035940793	 0.839003279	 2.8640894979	 0.121997
H	-0.8024745718	-0.6126848526	 2.7686595857	 0.119028
H	 0.8601732495	-0.7257546881	 3.3825396264	 0.141957
136.2767	217.1933	231.3568	248.2085	283.9021	322.9098	443.3196	482.7649	509.2788	663.6737	677.1121	705.7752	784.2064	811.4941	841.8517	882.9809	887.8821	904.0202	942.6088	1011.4817	1045.2166	1073.642	1083.0904	1105.1284	1119.712	1139.7592	1160.9928	1177.2799	1199.2502	1244.4569	1253.2462	1291.6491	1325.2902	1370.2443	1386.555	1406.3091	1408.9899	1486.7367	1490.0441	1495.5079	1500.1305	3003.1598	3032.1528	3038.6555	3092.9902	3110.0002	3113.3967	3117.3007	3118.1581	3119.3957	3161.9124
CC1OC2C3OC2C13C	C[C@H]1O[C@@H]2[C@H]3O[C@@H]2[C@@]13C	
InChI=1S/C7H10O2/c1-3-7(2)5-4(8-3)6(7)9-5/h3-6H,1-2H3	InChI=1S/C7H10O2/c1-3-7(2)5-4(8-3)6(7)9-5/h3-6H,1-2H3/t3-,4-,5-,6+,7+/m1/s1
