18
gdb 78793	2.10324	1.79309	1.65164	2.9521	75.36	-0.2427	-0.0108	0.2319	978.2446	0.146759	-401.921526	-401.913243	-401.912298	-401.954092	31.422	
C	 0.0367696108	 1.6215751965	 0.0803824635	-0.430718
C	 0.1059806338	 0.1015825327	 0.0357934592	-0.02782
C	 1.1675972084	-0.6391431511	-0.7715190731	-0.04479
C	 2.4356034432	-0.7582659689	 0.0235203786	-0.191977
N	 1.2809600102	-1.7522159095	 0.1995601061	-0.181576
C	 0.6881151732	-0.7010151515	 1.2304481549	 0.177888
C	-0.1120676305	-1.1332750356	 2.4203908607	-0.506636
C	 2.1308832028	-0.1985156278	 1.3705872949	 0.43789
O	 2.7793478862	 0.2204544423	 2.2877979053	-0.343774
H	 1.0040826314	 2.0648658343	 0.3356876673	 0.133086
H	-0.2735378317	 2.0237891467	-0.8896123893	 0.123593
H	-0.6929984076	 1.956923063	 0.8247967746	 0.12624
H	-0.871043013	-0.3224049044	-0.2245869397	 0.090196
H	 1.1859797918	-0.8293506194	-1.8399822564	 0.105832
H	 3.3836076594	-1.0485290175	-0.4104407639	 0.121927
H	 0.4765882931	-1.7875167477	 3.0697556678	 0.142742
H	-0.4076012169	-0.2571381287	 3.0073674339	 0.138747
H	-1.0178164645	-1.6653998436	 2.1150022556	 0.129148
124.5806	145.8154	191.9303	196.7143	221.5959	255.2809	357.8609	455.0833	544.465	634.272	661.0064	692.9119	731.9655	761.1215	821.2335	841.0241	873.1334	908.528	995.7191	1021.9503	1036.6496	1066.6592	1090.3925	1107.6983	1134.6829	1143.6097	1195.8608	1228.084	1294.3143	1336.7272	1351.4225	1394.2744	1410.8375	1418.0253	1477.5101	1487.1921	1495.0767	1497.1805	1883.7491	3035.2049	3039.0132	3041.3319	3101.5343	3109.5436	3110.524	3118.1612	3166.3352	3212.1844
CC1C2C3N2C1(C)C3=O	C[C@H]1[C@H]2[C@@H]3N2[C@@]1(C)C3=O	
InChI=1S/C7H9NO/c1-3-4-5-6(9)7(3,2)8(4)5/h3-5H,1-2H3	InChI=1S/C7H9NO/c1-3-4-5-6(9)7(3,2)8(4)5/h3-5H,1-2H3/t3-,4-,5-,7+,8?/m0/s1
