20
gdb 65115	3.39904	1.1285	0.97199	2.3897	81.85	-0.2219	0.0212	0.2431	1275.2351	0.171215	-403.124822	-403.116049	-403.115104	-403.158718	32.728	
C	-0.1662595179	 1.4580963332	-0.3998637274	-0.478513
C	-0.02420164	-0.0071053626	-0.0256368249	 0.202561
C	 0.8886747056	-0.8533328743	-0.8555253617	-0.265055
N	 1.2642605972	-0.4733983611	 0.5163749757	-0.338434
C	-1.2193046548	-0.6374011039	 0.5948023464	 0.277383
C	-1.2655910466	-1.4350935721	 1.6585007223	-0.21963
C	-2.675388719	-1.878324763	 1.9111029572	-0.104043
O	-3.4543228798	-1.2579452178	 0.8881950776	-0.26829
C	-2.6174919062	-0.4768656496	 0.0444455102	-0.159692
H	 0.7492534297	 1.827402981	-0.8731077291	 0.112472
H	-0.9897529118	 1.6152336382	-1.1044370123	 0.131441
H	-0.3653981078	 2.070688851	 0.486339378	 0.130029
H	 0.6676530897	-1.9081016787	-0.989371863	 0.121501
H	 1.4013972188	-0.3814820634	-1.6906114839	 0.109419
H	 1.9402022709	 0.2865121671	 0.4924805105	 0.228271
H	-0.4160639003	-1.7337297828	 2.2572049978	 0.116189
H	-2.7912222978	-2.9728834238	 1.8543265205	 0.102807
H	-3.0463572519	-1.5684479974	 2.9014728404	 0.102511
H	-2.9573700699	 0.5714274026	 0.0523982975	 0.099283
H	-2.6968442581	-0.8302784326	-0.9973225719	 0.099791
56.5483	110.2598	145.5598	186.4979	230.6328	309.5042	325.3947	365.26	459.552	540.3631	546.2435	771.7276	805.4705	833.2023	864.6072	907.1948	921.7325	930.1073	969.6162	987.2307	994.8657	1030.5584	1052.5777	1066.7927	1095.7611	1114.4584	1136.1806	1163.3974	1174.9995	1227.1378	1258.8017	1278.4115	1324.8636	1351.6064	1391.5522	1396.457	1415.8892	1485.9146	1501.0719	1508.7829	1518.4253	1531.4552	1727.6956	2958.8145	2969.4114	2975.5143	2981.4596	3028.7835	3095.7109	3101.6744	3104.2308	3195.1996	3234.9666	3494.3736
CC1(CN1)C1=CCOC1	C[C@]1(CN1)C1=CCOC1	
InChI=1S/C7H11NO/c1-7(5-8-7)6-2-3-9-4-6/h2,8H,3-5H2,1H3	InChI=1S/C7H11NO/c1-7(5-8-7)6-2-3-9-4-6/h2,8H,3-5H2,1H3/t7-/m0/s1
