19
gdb 95267	2.63744	1.78757	1.38954	0.5283	73.64	-0.2392	0.0689	0.3081	980.2686	0.161911	-422.989117	-422.981892	-422.980948	-423.020564	29.607	
O	 0.000025835	 1.4353568382	 0.0308615717	-0.428526
C	 0.0185590996	 0.0105259741	 0.0139888446	 0.066307
C	 0.9465864334	-0.5265683761	 1.124483735	-0.11838
O	 0.6796308324	-1.8641191077	 1.5108759656	-0.261581
C	-0.6842009292	-2.0920516208	 1.8113770233	 0.104992
C	-1.4468243234	-0.9843312031	 2.6224739308	-0.276488
C	-2.2519819262	-0.6642072564	 1.3655182304	-0.066908
C	-1.6599868101	-1.8784117569	 0.6392373266	-0.105267
C	-1.4036407157	-0.4945875219	 0.1233042328	-0.024037
H	 0.8720853296	 1.7491982324	-0.2301566728	 0.283139
H	 0.3951332665	-0.3473567603	-0.9580054371	 0.070081
H	 1.9871007193	-0.5165649438	 0.7831421566	 0.096108
H	 0.8722828155	 0.1582411484	 1.9798253634	 0.102955
H	-0.7255636509	-3.0816286	 2.2674448635	 0.086179
H	-2.0727644633	-1.4522057426	 3.3869487614	 0.103805
H	-0.8702131017	-0.1854240746	 3.0939051751	 0.106228
H	-3.2811515425	-0.325711467	 1.358907531	 0.086822
H	-2.141740898	-2.6547358643	 0.0579406613	 0.083019
H	-2.0055993302	-0.2249823076	-0.7410504234	 0.091551
97.3227	250.9405	273.9525	323.1471	373.0882	397.165	463.209	505.4084	583.2242	664.1722	727.0806	788.136	813.2634	834.4384	893.2267	924.3462	967.2252	977.9543	1012.1847	1019.8817	1044.6361	1059.6736	1075.3188	1092.2384	1093.1162	1136.0428	1177.5124	1186.6958	1221.6029	1258.5438	1261.5268	1271.8941	1300.0869	1336.3555	1352.7062	1373.3605	1399.1565	1432.3003	1453.293	1486.6356	1519.3897	2962.6935	3013.2665	3063.4276	3071.9248	3103.4903	3113.052	3140.5276	3178.955	3191.4518	3810.3433
OC1COC2CC3C2C13	O[C@H]1CO[C@H]2C[C@@H]3[C@H]2[C@H]13	
InChI=1S/C7H10O2/c8-4-2-9-5-1-3-6(4)7(3)5/h3-8H,1-2H2	InChI=1S/C7H10O2/c8-4-2-9-5-1-3-6(4)7(3)5/h3-8H,1-2H2/t3-,4-,5-,6-,7+/m0/s1
