13
gdb 8252	6.16355	1.13169	1.01454	5.1713	58.76	-0.2935	-0.0082	0.2853	1073.3511	0.095446	-398.639136	-398.631938	-398.630994	-398.671409	25.272	
O	 0.1857377684	 0.121315674	-0.7489509777	-0.299284
C	 0.0332587661	 1.1452769508	-0.1721968033	 0.456629
C	-1.1144895318	 2.0876134256	 0.1990552047	-0.444487
C	 0.0055253212	 2.9223351243	 0.8460816028	 0.139813
C	-0.0377146345	 3.0782342444	 2.3642902319	-0.356196
C	 1.1710695305	 3.6993416941	 2.902504906	 0.269535
N	 2.1217904313	 4.2039890535	 3.3208285915	-0.288292
O	 0.9947890176	 1.9266513377	 0.4305519734	-0.240715
H	-1.6253342796	 2.5370079867	-0.6532392682	 0.15708
H	-1.8486247465	 1.6535210068	 0.8809616054	 0.149485
H	 0.2168471437	 3.8759999253	 0.3578713203	 0.126312
H	-0.9018181524	 3.6965990683	 2.6347635778	 0.164947
H	-0.177260704	 2.0967238684	 2.8308013255	 0.165173
64.3466	106.86	152.0375	311.4256	386.955	396.8928	492.9383	522.1615	551.8224	729.6422	835.7156	872.1176	918.5553	967.7681	986.5226	1041.6417	1091.7172	1113.5218	1152.9793	1226.5446	1238.2474	1287.246	1343.426	1399.6648	1451.5398	1457.34	1954.1685	2370.5749	3044.4911	3084.3927	3089.8801	3102.5547	3150.3463
O=C1CC(CC#N)O1	O=C1C[C@@H](CC#N)O1	
InChI=1S/C5H5NO2/c6-2-1-4-3-5(7)8-4/h4H,1,3H2	InChI=1S/C5H5NO2/c6-2-1-4-3-5(7)8-4/h4H,1,3H2/t4-/m1/s1
