17
gdb 124831	4.38974	0.92552	0.79672	4.765	70.02	-0.2846	-0.0374	0.2472	1397.7385	0.135095	-455.109282	-455.100665	-455.099721	-455.143413	31.283	
C	 0.174404331	 1.4942785733	 0.046734296	-0.409421
C	 0.0412894315	-0.011207126	 0.2631065634	 0.127461
O	 0.1621133881	-0.3520666414	 1.6436141955	-0.424141
C	-1.2716359297	-0.5609023722	-0.3282054001	-0.328333
C	-1.3702866354	-2.0529951071	-0.274786529	 0.338816
N	-1.6964532084	-2.763535555	-1.3234610452	-0.151985
O	-1.6935739506	-4.0681197788	-0.9156037404	-0.150547
N	-1.3581464562	-4.17416898	 0.4052383509	-0.065197
C	-1.1571922514	-2.9531633776	 0.8127479859	-0.101528
H	 1.0966531574	 1.859463718	 0.5057929902	 0.132914
H	 0.1937956045	 1.7422033302	-1.0188139554	 0.128358
H	-0.6710410093	 2.0293939911	 0.4979547656	 0.111893
H	 0.8826841942	-0.5221881491	-0.2187879982	 0.10775
H	-0.4433294659	 0.2113157251	 2.1393453986	 0.280826
H	-2.111038514	-0.1155292669	 0.2243103949	 0.113566
H	-1.3771783815	-0.2471915349	-1.3708703758	 0.133518
H	-0.8570819943	-2.7325421586	 1.8232499929	 0.15605
47.0878	89.3569	133.77	241.3028	291.1106	309.8581	324.2387	334.4302	456.021	480.3613	651.0884	684.3376	758.2071	843.5138	890.9366	900.5086	918.5293	935.1633	946.038	1027.1294	1042.8742	1067.0959	1090.3777	1146.8722	1187.5197	1208.0551	1309.8599	1323.8444	1381.3511	1404.5615	1419.8008	1426.2969	1461.0838	1471.6884	1491.9807	1495.6613	1610.8804	3013.2391	3025.1453	3053.1929	3092.0633	3101.1947	3125.1213	3296.1522	3791.0419
CC(O)CC1=NON=C1	C[C@@H](O)Cc1nonc1	
InChI=1S/C5H8N2O2/c1-4(8)2-5-3-6-9-7-5/h3-4,8H,2H2,1H3	InChI=1S/C5H8N2O2/c1-4(8)2-5-3-6-9-7-5/h3-4,8H,2H2,1H3/t4-/m1/s1
