20
gdb 99973	2.75045	1.13148	0.96528	6.067	75.12	-0.2743	0.0369	0.3111	1282.2391	0.16797	-440.299746	-440.289037	-440.288093	-440.335182	39.03	
C	-0.1135349061	 1.5902540095	 0.0571516489	-0.406319
C	-0.0065944408	 0.0521775439	-0.008478814	-0.1576
C	-1.3535056059	-0.5277785943	 0.0730291276	 0.290871
N	-2.4185192761	-0.9664664848	 0.1664224894	-0.33815
C	 0.7403434264	-0.4846941238	-1.2653702533	 0.362317
C	 0.6923820055	-2.0198221475	-1.3252253545	-0.438923
O	 0.0883319933	 0.0775854306	-2.3940383062	-0.469139
C	 2.2057391055	-0.0098717274	-1.2589105207	-0.123983
O	 2.7504692586	-0.3954557623	-2.5179843257	-0.431674
H	 0.8686222753	 2.0440273086	 0.2074341224	 0.119091
H	-0.5413372994	 1.9720827296	-0.8706218375	 0.159717
H	-0.7514199519	 1.8886669253	 0.8921157014	 0.135383
H	 0.5401341579	-0.3091469954	 0.872153683	 0.12156
H	-0.3377319662	-2.3576749034	-1.4512490425	 0.151728
H	 1.2871899303	-2.3730392468	-2.1705846595	 0.132709
H	 1.0996420531	-2.4676757983	-0.4120304571	 0.109718
H	 0.6990185718	-0.0381943972	-3.1333837186	 0.289115
H	 2.2488319156	 1.0790538353	-1.143297835	 0.099287
H	 2.7566717613	-0.4747525368	-0.4277040754	 0.095347
H	 3.5566711218	 0.103876925	-2.6722159626	 0.298943
47.8047	124.2055	143.1258	182.7183	230.5618	234.7202	240.7407	258.2301	291.4757	349.3775	358.2767	396.6286	427.037	446.3879	487.7115	585.4997	664.8518	763.7792	836.0564	917.1462	937.9664	964.7498	1015.5014	1049.0855	1081.8982	1114.1305	1138.125	1181.0205	1201.6627	1247.5192	1279.4356	1322.8581	1334.8135	1386.8106	1404.9695	1412.3059	1447.6724	1489.5357	1497.5534	1500.3379	1503.5319	1512.8382	2357.9923	2992.2013	3031.7383	3044.0804	3054.9254	3064.3917	3118.056	3130.9927	3145.3386	3156.6013	3774.8136	3848.7305
CC(C#N)C(C)(O)CO	C[C@@H](C#N)[C@@](C)(O)CO	
InChI=1S/C6H11NO2/c1-5(3-7)6(2,9)4-8/h5,8-9H,4H2,1-2H3	InChI=1S/C6H11NO2/c1-5(3-7)6(2,9)4-8/h5,8-9H,4H2,1-2H3/t5-,6-/m0/s1
