22
gdb 106041	2.62481	1.56295	1.15508	1.6099	85.42	-0.2302	0.0821	0.3123	1157.9909	0.194526	-367.154812	-367.146177	-367.145233	-367.187891	33.958	
C	 0.1921023069	 1.5017364546	 0.3269995767	-0.382393
C	-0.1909491067	 0.1260706002	-0.2352168867	-0.298782
C	 0.6925835493	-0.3922845551	-1.336733502	 0.359952
C	 0.7827764989	 0.008000644	-2.7652169853	-0.109952
C	 2.0452806556	-0.9319303276	-2.8592377763	-0.080762
C	 1.0314786392	-2.0679033758	-3.0277379098	-0.161312
N	-0.0218232912	-1.1991445391	-2.4058729535	-0.195055
C	 2.1697420439	-0.8267993215	-1.310421682	-0.042905
C	 3.1586878218	 0.2385713297	-0.8490876284	-0.418479
H	 1.1675532843	 1.4904170917	 0.8204508641	 0.11886
H	 0.2296168176	 2.2546759683	-0.4670735965	 0.115458
H	-0.5463729933	 1.8299013588	 1.065048757	 0.112914
H	-0.2118403429	-0.6133207422	 0.5768630533	 0.099599
H	-1.2105049999	 0.1644484592	-0.63337936	 0.11691
H	 0.3996343323	 0.8405797623	-3.341523051	 0.091748
H	 2.9245930839	-0.8107954613	-3.4912853759	 0.067222
H	 0.7459088688	-2.2588760543	-4.0658283311	 0.104646
H	 1.2252762021	-3.0185237894	-2.5155134684	 0.09207
H	 2.3818847986	-1.7767771738	-0.8007489307	 0.060916
H	 2.9578732049	 1.2035074209	-1.3271849491	 0.117871
H	 3.1215202684	 0.3855995046	 0.234480916	 0.119201
H	 4.1822940977	-0.0574821243	-1.1041760404	 0.11227
63.8713	162.9716	216.3991	221.8787	264.5062	271.0038	333.0031	365.8279	458.9181	527.8928	609.3091	751.236	761.5127	764.7602	802.3029	838.5015	863.5538	916.7579	950.6089	975.1735	977.9229	1004.3694	1030.9809	1051.3574	1063.6497	1084.6367	1094.054	1133.9514	1153.0603	1164.7768	1185.8315	1218.1129	1242.8589	1262.3883	1305.7227	1317.4165	1350.8168	1378.2379	1405.3732	1409.2024	1421.4138	1479.3286	1492.4496	1494.8483	1506.1603	1510.7903	1511.6898	3006.6145	3019.2424	3026.7747	3028.4597	3040.6034	3070.0409	3092.473	3093.3847	3102.8454	3105.1433	3117.3632	3119.9286	3192.975
CCC12C3C(CN13)C2C	CC[C@]12[C@H]3[C@H](CN13)[C@H]2C	
InChI=1S/C8H13N/c1-3-8-5(2)6-4-9(8)7(6)8/h5-7H,3-4H2,1-2H3	InChI=1S/C8H13N/c1-3-8-5(2)6-4-9(8)7(6)8/h5-7H,3-4H2,1-2H3/t5-,6-,7-,8+,9?/m1/s1
