20
gdb 78166	2.05918	1.7774	1.2454	3.301	80.56	-0.2481	0.029	0.2771	1110.1363	0.17185	-403.170135	-403.161625	-403.160681	-403.20302	32.965	
C	-0.0751313186	 1.5444367746	 0.019482544	-0.42395
C	 0.0793788603	 0.0403674954	-0.0516800941	-0.03314
C	 0.7655582016	-0.6911776105	-1.1710210526	-0.084589
C	 1.3885409959	-0.6921824195	 0.2108125088	-0.135705
C	 2.6340078233	 0.1072554776	 0.0924691944	 0.410307
N	 3.5081344728	 0.2579644337	 0.9930693243	-0.555753
O	 2.7038837663	 0.6689898704	-1.1582252677	-0.256379
C	 1.7205365628	 0.0973392418	-2.0559129148	 0.099126
C	 2.4226934414	-0.7620014458	-3.0992740473	-0.398861
H	 0.8033800912	 2.0707044582	-0.3601463595	 0.141347
H	-0.9434205256	 1.8695563568	-0.5641920325	 0.117099
H	-0.2309589689	 1.8635397359	 1.054839698	 0.128312
H	-0.7739832371	-0.5012911996	 0.3493497964	 0.095606
H	 0.312318677	-1.5810127458	-1.5923255771	 0.09541
H	 1.4030633718	-1.5461873407	 0.8737220904	 0.112323
H	 4.2850874793	 0.8202975963	 0.6416335658	 0.218661
H	 1.2265054677	 0.9454979851	-2.5445878329	 0.092459
H	 2.9082158471	-1.6230784321	-2.6294714767	 0.128417
H	 1.7010979667	-1.1293880273	-3.8363972106	 0.119177
H	 3.1837837152	-0.1777401744	-3.6228425964	 0.130133
111.0347	125.2844	199.724	203.7132	240.5129	292.5966	371.663	414.1657	445.3305	541.2391	636.3662	689.6991	743.5004	763.0797	800.5294	845.4035	889.9894	908.9482	930.2622	962.3619	1001.8242	1018.7492	1037.8761	1084.4107	1101.6369	1112.2856	1131.1177	1139.6126	1158.4453	1219.4202	1266.8084	1334.4443	1338.7506	1374.8704	1395.8017	1407.5318	1422.9477	1434.2371	1487.5354	1495.4551	1501.9578	1503.6386	1771.4197	3035.8754	3039.0091	3039.1381	3097.2283	3111.977	3123.6447	3124.3785	3141.8211	3177.9253	3214.2055	3472.1394
CC1C2C1C(=N)OC2C	C[C@H]1[C@@H]2[C@H]1[C]([NH])O[C@H]2C	
InChI=1S/C7H11NO/c1-3-5-4(2)9-7(8)6(3)5/h3-6,8H,1-2H3	InChI=1S/C7H11NO/c1-3-5-4(2)9-7(8)6(3)5/h3-6,8H,1-2H3/t3-,4-,5-,6-/m0/s1
