18
gdb 71165	2.65493	1.85546	1.48133	0.6823	75.04	-0.2378	0.0493	0.2871	944.179	0.148343	-401.860741	-401.853417	-401.852472	-401.891974	30.2	
O	-0.0332630877	 1.4284601066	-0.0335696317	-0.471073
C	 0.0503094192	 0.053566861	 0.0650386378	 0.290411
C	-1.2435861913	-0.7704781642	-0.1013677378	-0.26471
C	-0.5279598068	-1.8451898124	 0.7256153799	-0.076058
C	 0.9575848055	-1.8335885874	 0.3246328779	-0.144019
C	 0.4189902735	-0.8496484562	 1.3406211148	-0.174149
C	 1.0968315129	-0.7585935467	-0.7250875723	 0.34997
C	 1.4081286744	-0.7455539009	-2.1627967805	-0.325443
N	 2.3853285402	-0.2333160365	-1.157432142	-0.398897
H	 0.8109345848	 1.8084036772	 0.235584025	 0.285002
H	-2.0690789665	-0.3260713412	 0.4610988503	 0.104836
H	-1.5597808359	-1.0004420564	-1.1245945231	 0.094537
H	-0.9692741222	-2.7138479958	 1.1962593283	 0.091477
H	 1.6098195102	-2.6781652315	 0.4995151319	 0.095659
H	 0.6985955403	-0.6338285155	 2.3613471223	 0.095373
H	 1.7215671477	-1.6522418808	-2.6730085724	 0.118882
H	 0.8940992501	-0.0221374403	-2.7916129313	 0.114604
H	 2.3589163115	 0.7862194009	-1.171804887	 0.213596
165.9466	213.2151	226.5011	292.1479	360.1074	406.7462	446.5346	534.142	606.4986	663.4289	729.7017	786.9005	802.5195	818.9238	887.5969	907.3297	921.0306	926.8878	962.1236	975.5511	987.2907	999.5184	1019.6816	1041.3448	1074.6392	1099.176	1132.0282	1138.783	1160.8335	1228.3883	1239.2028	1258.0118	1274.9202	1325.3531	1339.3744	1384.7562	1440.3284	1501.3097	1516.0033	3040.721	3102.3261	3105.5956	3188.2914	3199.5188	3211.4458	3227.3226	3451.275	3793.7331
OC12CC3C(C13)C21CN1	O[C@]12C[C@H]3[C@H]([C@@H]13)[C@]12CN1	
InChI=1S/C7H9NO/c9-7-1-3-4(5(3)7)6(7)2-8-6/h3-5,8-9H,1-2H2	InChI=1S/C7H9NO/c9-7-1-3-4(5(3)7)6(7)2-8-6/h3-5,8-9H,1-2H2/t3-,4+,5-,6-,7+/m0/s1
