20
gdb 95910	2.28562	1.49794	1.17083	3.495	78.6	-0.2939	0.021	0.3149	1143.9934	0.17108	-403.183215	-403.173868	-403.172924	-403.217234	34.97	
C	-0.5551476808	 1.3028002854	 0.0806184383	-0.422634
C	 0.0273581915	-0.1036837798	-0.0235877139	 0.027019
C	 1.0137458621	-0.3252525156	-1.1906166275	-0.226674
C	 1.9078959737	-1.5275737165	-0.7787593949	-0.221008
C	 1.5422513998	-1.8442509556	 0.6933954241	-0.250508
C	 0.8599917876	-0.5566029772	 1.2016202973	 0.236583
O	 1.8103819726	 0.4693037638	 1.4634917013	-0.461408
C	 0.030450465	-0.7913545484	 2.399397856	 0.238306
N	-0.6018849854	-0.9777505286	 3.3490297547	-0.345678
H	 0.2380899311	 2.0414420439	 0.218522693	 0.13759
H	-1.1057288786	 1.5543659618	-0.8311122566	 0.114989
H	-1.248218153	 1.3843782152	 0.9238149758	 0.130822
H	-0.7932632178	-0.8265651216	-0.1127511995	 0.089586
H	 0.4812386712	-0.4994691166	-2.1291459282	 0.101832
H	 1.6221052523	 0.5732318177	-1.3260487487	 0.115737
H	 1.7386564478	-2.4018778307	-1.412026022	 0.107261
H	 2.9656048305	-1.2709181803	-0.8700939899	 0.112102
H	 0.8321960231	-2.6747420522	 0.7565368192	 0.121427
H	 2.4037111769	-2.109333355	 1.313639992	 0.102855
H	 2.3774166003	 0.1813531205	 2.1872504497	 0.291802
69.4078	119.4285	137.0853	205.1891	227.1797	257.6574	296.1877	334.2149	379.2051	479.717	493.688	576.2296	592.2689	637.5039	724.4714	777.909	861.0012	889.7938	922.9664	967.6467	998.5325	1032.2822	1044.3401	1064.2853	1095.8534	1132.6709	1169.1421	1207.7963	1236.3022	1266.7912	1292.7226	1328.5981	1331.9331	1343.9346	1359.2126	1389.5066	1413.0034	1482.1714	1488.5407	1496.3678	1503.9089	1511.5347	2349.5095	3029.3884	3042.6666	3052.192	3059.417	3072.1863	3088.2908	3099.4624	3106.8489	3118.4547	3129.3161	3809.6811
CC1CCCC1(O)C#N	C[C@H]1CCC[C@]1(O)C#N	
InChI=1S/C7H11NO/c1-6-3-2-4-7(6,9)5-8/h6,9H,2-4H2,1H3	InChI=1S/C7H11NO/c1-6-3-2-4-7(6,9)5-8/h6,9H,2-4H2,1H3/t6-,7-/m0/s1
