20
gdb 107702	3.33782	1.27643	1.10278	1.9956	79.24	-0.2196	0.0746	0.2941	1172.9336	0.17066	-403.059481	-403.051004	-403.050059	-403.092306	33.217	
C	-0.0888235064	 1.5265222736	 0.0034281616	-0.381096
C	 0.0948498572	 0.0051586629	-0.0544338808	-0.312785
C	 0.8392504786	-0.4599501735	-1.2756175394	 0.383783
C	 2.2774988808	-0.1199344217	-1.7462825303	-0.389066
C	 1.7342579183	-1.0669899508	-2.8350371659	 0.376079
O	 2.3081559319	-1.4736291545	-4.0228615324	-0.469578
C	 0.9198716362	-1.931902417	-1.7985341043	-0.151463
N	-0.3937014043	-1.813252847	-2.5132705004	-0.355078
C	 0.288151537	-0.4976447611	-2.7452835069	-0.100669
H	 0.8755624341	 2.0453063715	 0.0147365102	 0.116415
H	-0.6517126727	 1.8886273998	-0.8632617386	 0.118994
H	-0.636459513	 1.8209045858	 0.9037892685	 0.113186
H	 0.6294041932	-0.3350338167	 0.8423445388	 0.095178
H	-0.8820567854	-0.4921135195	-0.0451724299	 0.121315
H	 2.4665755308	 0.9151024117	-2.0470475777	 0.099099
H	 3.0940186605	-0.4963997291	-1.1200310849	 0.086831
H	 3.128416014	-1.9389975763	-3.8254499302	 0.285726
H	 1.2288942839	-2.8207079702	-1.2440070116	 0.07185
H	-0.3717893368	-2.3681120875	-3.3731066024	 0.212507
H	-0.1510851079	 0.3195746495	-3.3198211631	 0.078772
88.9562	143.665	190.5155	252.7238	279.0274	300.2891	332.4546	428.4296	432.1953	546.9041	594.7618	693.3681	716.3192	772.9808	805.4728	880.5149	896.0005	909.9291	935.8827	965.5243	1012.9621	1024.9816	1054.4418	1058.8758	1092.167	1110.1914	1133.2625	1151.549	1167.8355	1168.4737	1203.8986	1278.3446	1282.8604	1292.5844	1317.5532	1331.8275	1372.4056	1408.125	1416.4743	1480.4276	1500.0347	1506.805	1518.6829	3019.6902	3033.5459	3035.2595	3063.0044	3090.7407	3094.9868	3103.0187	3104.806	3106.7336	3405.7103	3802.8829
CCC12CC3(O)C1NC23	CC[C@@]12C[C@@]3(O)[C@@H]1N[C@@H]23	
InChI=1S/C7H11NO/c1-2-6-3-7(9)4(6)8-5(6)7/h4-5,8-9H,2-3H2,1H3	InChI=1S/C7H11NO/c1-2-6-3-7(9)4(6)8-5(6)7/h4-5,8-9H,2-3H2,1H3/t4-,5+,6-,7-
