23
gdb 99773	1.83248	1.34024	0.92	2.5295	81.16	-0.247	0.0693	0.3164	1376.7904	0.204257	-425.405763	-425.395171	-425.394227	-425.441309	39.459	
C	-0.1875541207	 1.5213527539	 0.1252729601	-0.420057
C	 0.0366168011	 0.0126059064	 0.0298780169	 0.133979
O	 0.6616166612	-0.3357255228	-1.207415261	-0.43939
C	 0.7915929002	-0.5973112705	 1.237106178	-0.026282
C	 0.6531606358	-2.1315889768	 1.1932351803	-0.077998
O	 1.2067570443	-2.7904134517	 2.320071629	-0.429158
C	 2.2524868309	-0.1804673044	 1.290882016	-0.000257
C	 2.6970353789	 1.0936514268	 1.9689836084	-0.280682
C	 3.0294232441	-0.2355707866	 2.5918786501	-0.293771
H	 0.7639871835	 2.0636210623	 0.1439128982	 0.118893
H	-0.7619415075	 1.866766461	-0.739026082	 0.122961
H	-0.73894154	 1.7836770639	 1.033967448	 0.115972
H	-0.944781113	-0.4765898465	-0.0210297889	 0.084229
H	 1.424623368	 0.2410144917	-1.3191947527	 0.28007
H	 0.2972668604	-0.2475025003	 2.1542589204	 0.070413
H	-0.4094061279	-2.3987261652	 1.1881429928	 0.101961
H	 1.085393052	-2.503547866	 0.2525496061	 0.101017
H	 2.1514944327	-2.6097119042	 2.3208786115	 0.286293
H	 2.8203435618	-0.4636323073	 0.4068841011	 0.081668
H	 3.5005463402	 1.6664909701	 1.5188922943	 0.11133
H	 1.9406852541	 1.7000353414	 2.4556514704	 0.116695
H	 2.4880175469	-0.5210586101	 3.48689748	 0.129518
H	 4.061406473	-0.569588415	 2.566914943	 0.112596
59.2698	104.801	119.1749	170.2931	192.4745	238.4086	260.3021	307.246	315.0511	326.9579	338.9362	386.1922	475.7866	506.9618	620.437	768.3897	818.7677	829.6134	860.5174	920.2747	940.5185	949.6463	994.7068	1012.1179	1038.3423	1059.0167	1082.5649	1092.4214	1095.3636	1147.0483	1154.7462	1164.9422	1206.6965	1222.7657	1239.8866	1274.4847	1304.2662	1320.0649	1364.0084	1390.5876	1402.6548	1417.8785	1421.3179	1439.2665	1473.4736	1490.9815	1497.0508	1506.1609	1510.1394	2998.4933	3014.719	3024.1151	3035.0537	3067.8281	3104.5064	3114.5319	3125.738	3130.2817	3135.7702	3209.299	3224.4973	3811.0265	3829.5638
CC(O)C(CO)C1CC1	C[C@@H](O)[C@@H](CO)C1CC1	
InChI=1S/C7H14O2/c1-5(9)7(4-8)6-2-3-6/h5-9H,2-4H2,1H3	InChI=1S/C7H14O2/c1-5(9)7(4-8)6-2-3-6/h5-9H,2-4H2,1H3/t5-,7-/m1/s1
