16
gdb 108898	4.08492	0.92098	0.84502	4.329	70.88	-0.2442	-0.0031	0.241	1345.5031	0.125902	-434.083768	-434.075279	-434.074335	-434.11764	30.51	
O	 0.7479324328	 0.0333991165	 0.5349616143	-0.413908
C	-0.216669789	 0.4010855706	-0.4436765736	-0.165935
C	-1.5392211588	-0.2730442137	-0.1953787171	 0.331609
N	-2.6765126784	 0.3045079361	-0.3269436946	-0.302701
C	-3.6847592818	-0.7403146549	-0.0378165415	-0.110859
C	-2.8951437523	-1.9259725554	 0.6113475217	-0.199105
N	-1.5402047644	-1.6093308935	 0.1570167711	-0.324881
C	-4.7633495461	-0.2414616813	 0.8187441235	 0.285416
N	-5.6160045729	 0.120350734	 1.5090415179	-0.323143
H	 0.5403412355	 0.508533749	 1.3464684023	 0.29653
H	-0.3774016063	 1.4823041129	-0.5031725297	 0.135581
H	 0.1856353393	 0.0618598752	-1.4043510329	 0.141524
H	-4.1366595309	-1.0627755546	-0.985542118	 0.13588
H	-2.9793719233	-1.908039434	 1.7051383118	 0.127516
H	-3.2340525882	-2.8985885929	 0.2491858767	 0.131294
H	-0.7426449253	-1.940399474	 0.6812176381	 0.25518
53.5208	109.4484	157.3553	164.4221	258.1713	310.0245	359.1863	411.6974	504.2059	553.5951	581.6518	652.1296	702.6601	736.4342	862.0063	955.2961	980.5126	1018.5309	1044.1847	1055.2974	1063.2769	1079.398	1196.0843	1200.9081	1265.964	1284.7742	1304.4542	1357.3439	1375.251	1404.3186	1473.6446	1484.226	1526.2025	1699.0134	2364.9517	3015.3122	3028.0808	3047.8472	3096.8369	3104.9406	3606.4435	3814.8714
OCC1=NC(CN1)C#N	OC[C]1[N][C@@H](CN1)C#N	
InChI=1S/C5H7N3O/c6-1-4-2-7-5(3-9)8-4/h4,9H,2-3H2,(H,7,8)	InChI=1S/C5H7N3O/c6-1-4-2-7-5(3-9)8-4/h4,9H,2-3H2,(H,7,8)/t4-/m1/s1
