19
gdb 70192	3.54831	1.29943	1.1088	4.0002	75.88	-0.2292	0.0593	0.2885	1133.2524	0.161825	-419.250966	-419.242806	-419.241862	-419.283303	32.145	
C	-0.113350311	 1.5040996666	 0.0343559102	-0.469152
C	 0.0078191613	-0.0041559769	-0.0031836281	 0.317508
C	-0.8158874356	-0.8334031122	 0.9632139747	-0.346498
C	 0.6901837782	-0.7188822954	 1.1254005819	-0.012619
N	 1.5649857644	-1.8085763268	 0.7907400535	-0.340976
C	 1.4242673444	-2.5619649664	-0.3596077108	 0.412313
O	 1.9502585314	-3.6514401076	-0.5024519402	-0.412046
N	 0.6151708825	-1.9911916742	-1.3232855821	-0.349664
C	 0.3000352195	-0.5722079706	-1.3828288744	-0.217332
H	 0.7949972675	 1.9866773464	-0.3445714449	 0.122296
H	-0.9557472728	 1.8476836321	-0.5778122014	 0.120765
H	-0.2812840766	 1.8597496277	 1.0550585229	 0.119268
H	-1.450587337	-0.3062835465	 1.6678965743	 0.110405
H	-1.2051563377	-1.7839062538	 0.6163147409	 0.130326
H	 1.0710653267	-0.1235296706	 1.9489412392	 0.099166
H	 1.9359579851	-2.355999742	 1.5531698646	 0.249182
H	 0.6558966549	-2.4949563695	-2.1958079904	 0.25008
H	-0.5675257046	-0.4406883879	-2.041257373	 0.112056
H	 1.1273580495	 0.0091169076	-1.8231293468	 0.104919
107.2964	175.1549	205.0319	236.1076	312.5261	343.4824	393.8056	460.9759	489.7145	545.9002	568.6523	610.5235	672.4726	769.3634	784.135	812.1945	882.1119	910.374	945.5788	958.3172	1021.3267	1051.0005	1060.6486	1103.0468	1118.5677	1144.8642	1181.1647	1256.3092	1271.6873	1310.6122	1338.1063	1413.9041	1418.8138	1428.7381	1451.0586	1481.6219	1489.535	1492.4946	1505.3537	1529.7999	1807.8634	2960.3012	3023.665	3037.5614	3083.4527	3104.5433	3132.5244	3157.1162	3225.2134	3616.5355	3632.0185
CC12CC1NC(=O)NC2	C[C@]12C[C@H]1NC(=O)NC2	
InChI=1S/C6H10N2O/c1-6-2-4(6)8-5(9)7-3-6/h4H,2-3H2,1H3,(H2,7,8,9)	InChI=1S/C6H10N2O/c1-6-2-4(6)8-5(9)7-3-6/h4H,2-3H2,1H3,(H2,7,8,9)/t4-,6-/m1/s1
