15
gdb 124002	3.78919	1.63271	1.16145	4.2289	75.8	-0.187	-0.031	0.156	984.407	0.11713	-412.990754	-412.984161	-412.983216	-413.02165	26.069	
C	 0.1381637154	 1.4400032368	 0.3423304745	-0.226949
N	 1.0875169489	 2.1408280356	-0.5325154437	-0.399153
C	 2.169441154	 1.390502956	-0.946530357	 0.332739
C	 2.0906732671	 0.0153890382	-1.0702552846	 0.312143
N	 3.3022617316	-0.3092352385	-1.5930006408	-0.303035
N	 4.0731386429	 0.7772338453	-1.7666026041	-0.130675
N	 3.3749307315	 1.8249302905	-1.374358733	-0.2962
C	 0.8862088404	-0.6985752763	-0.73677027	-0.169489
C	-0.0696792278	 0.0026092507	-0.1043957894	-0.074258
H	 0.4648329853	 1.4394108871	 1.4025771511	 0.102852
H	-0.8145382733	 1.979476137	 0.3142429286	 0.118967
H	 1.3074293305	 3.0877023717	-0.2597755507	 0.248568
H	 3.6780879986	-1.2139382683	-1.8264278265	 0.277445
H	 0.7450760353	-1.7381600177	-1.0115165047	 0.101538
H	-1.0095439905	-0.4636293281	 0.1694884602	 0.105507
137.8639	187.0444	334.8403	395.3659	427.2692	503.057	534.1991	574.5507	609.3618	689.1179	705.7316	769.5001	785.5154	869.9992	910.1565	969.8825	1016.0241	1036.3532	1074.1455	1091.9503	1181.9614	1205.3492	1239.1664	1277.467	1311.99	1336.2645	1370.823	1413.3769	1484.0987	1509.2074	1582.8663	1622.4188	1674.1563	2877.3685	3053.9294	3181.9354	3201.9095	3606.6317	3661.4652
C1NC2=C(NN=N2)C=C1	C1Nc2c([nH]nn2)C=C1	
InChI=1S/C5H6N4/c1-2-4-5(6-3-1)8-9-7-4/h1-2H,3H2,(H2,6,7,8,9)	InChI=1S/C5H6N4/c1-2-4-5(6-3-1)8-9-7-4/h1-2H,3H2,(H2,6,7,8,9)
