21
gdb 58988	3.53558	0.91874	0.88972	2.8457	82.25	-0.2248	0.0175	0.2423	1443.1044	0.180768	-424.233816	-424.223895	-424.222951	-424.269099	36.26	
C	-0.1032947361	 1.515195295	 0.0090427725	-0.407577
C	-0.0101133607	-0.0174442839	-0.0121589054	 0.014826
O	 0.7386353213	-0.4697158596	-1.1414920337	-0.438281
C	 0.6786369747	-0.5574510495	 1.2059955563	 0.348895
C	 0.1356910454	-1.1279802883	 2.2762927736	-0.258268
C	 1.1965013891	-1.4881875555	 3.2817929685	 0.112019
C	 1.2439663551	-2.9703811348	 3.6559845594	-0.386972
O	 2.4252943571	-1.1042452991	 2.6535719833	-0.284492
C	 2.1747305526	-0.4879572303	 1.3947043469	-0.158408
H	 0.8932646741	 1.9637011461	 0.0522575812	 0.130061
H	-0.6049186784	 1.8792384671	-0.8956696942	 0.10623
H	-0.6796586277	 1.8569972614	 0.873609809	 0.125362
H	-1.0317011622	-0.4279197497	-0.045122489	 0.071502
H	 0.3738975201	-0.0468044651	-1.9254430049	 0.283227
H	-0.9177252006	-1.325043171	 2.4368179133	 0.09584
H	 1.0741980714	-0.8993785957	 4.2081535453	 0.075778
H	 1.3362783283	-3.5888701387	 2.7584653325	 0.120156
H	 2.1031342061	-3.1653202311	 4.3040384454	 0.124621
H	 0.3350793834	-3.262538796	 4.1930715013	 0.107362
H	 2.7129965443	-1.0185229995	 0.5982352784	 0.122074
H	 2.5479340526	 0.5494252984	 1.4020239805	 0.096046
44.8161	88.9141	119.0145	178.3737	233.2639	240.7259	255.8343	274.8456	344.1686	370.9586	467.0893	522.4598	550.5178	636.7392	732.0125	841.4861	860.8275	874.8497	914.17	925.0254	996.7135	1021.5258	1041.0206	1070.3677	1092.194	1105.6701	1121.2243	1134.0517	1190.4174	1203.1032	1234.8146	1306.6266	1348.8462	1357.4047	1373.5113	1385.9908	1399.229	1401.1383	1419.8608	1485.7482	1490.183	1494.3804	1497.0503	1524.5285	1735.097	2938.3254	2966.1171	2973.2737	3026.7262	3028.2433	3035.9189	3098.4117	3109.0247	3121.0147	3123.0153	3203.4527	3817.4906
CC(O)C1=CC(C)OC1	C[C@@H](O)C1=C[C@@H](C)OC1	
InChI=1S/C7H12O2/c1-5-3-7(4-9-5)6(2)8/h3,5-6,8H,4H2,1-2H3	InChI=1S/C7H12O2/c1-5-3-7(4-9-5)6(2)8/h3,5-6,8H,4H2,1-2H3/t5-,6-/m1/s1
