16
gdb 48706	4.81617	1.04366	0.99438	4.5282	71.69	-0.2565	-0.0452	0.2113	1191.363	0.122781	-437.814056	-437.806179	-437.805234	-437.846767	29.422	
O	 0.0125083761	 0.1538700079	-0.6701597322	-0.251075
C	 0.1278445799	 1.0556772134	 0.1195407619	 0.053989
C	 1.2871793523	 1.9735729708	 0.1906433876	 0.321942
C	 1.6490941796	 3.0044020336	 1.2794914404	-0.410426
C	 2.137234502	 3.9344894871	 0.1381189712	 0.354202
C	 1.9301402821	 5.3951598184	 0.0461140938	-0.308609
N	 3.2894014448	 4.815474163	 0.0706547488	-0.354633
C	 1.8092544743	 2.8707436196	-0.8905660207	-0.087879
O	 2.4820286611	 1.6762156803	-0.526595769	-0.25303
H	-0.6630365997	 1.2875307563	 0.8683732934	 0.076837
H	 0.7852589456	 3.4018906181	 1.8186977236	 0.121958
H	 2.4056584708	 2.6546898964	 1.9861688646	 0.12422
H	 1.6507765602	 5.8558774767	-0.897856756	 0.12793
H	 1.5553282354	 5.9073544356	 0.9290213774	 0.118224
H	 3.7101394813	 4.9218105876	 0.9905014494	 0.239048
H	 1.4831141242	 2.9705626752	-1.9197067043	 0.127302
77.1061	115.8354	193.6832	261.5718	286.6537	336.2258	395.7404	439.2246	529.8157	644.6828	757.4562	805.7205	839.3147	847.3084	894.812	923.6982	940.8439	973.0906	979.6757	1009.9209	1042.878	1075.071	1118.6686	1127.2645	1183.864	1216.7207	1237.6461	1256.7683	1281.4285	1397.0965	1422.7111	1433.5673	1467.9751	1516.1513	1818.9888	2876.295	3062.0775	3103.0264	3121.3455	3187.8855	3192.7131	3502.3115
O=CC12CC3(CN3)C1O2	O=C[C@]12C[C@]3(CN3)[C@H]1O2	
InChI=1S/C6H7NO2/c8-3-6-1-5(2-7-5)4(6)9-6/h3-4,7H,1-2H2	InChI=1S/C6H7NO2/c8-3-6-1-5(2-7-5)4(6)9-6/h3-4,7H,1-2H2/t4-,5+,6-/m1/s1
