19
gdb 96837	3.29462	1.11798	0.86714	0.8909	80.48	-0.247	-0.0063	0.2406	1350.4589	0.159488	-419.273942	-419.264677	-419.263732	-419.308621	33.494	
C	 0.1332355242	 1.4635268551	 0.182016903	-0.342632
N	 0.0261391446	 0.0149497955	 0.0992611075	-0.304229
C	 0.4503048588	-0.5626910581	-0.9432575654	 0.405852
C	 0.3915442872	-2.0601331582	-1.1927889282	-0.322018
C	 1.2872274404	-2.3043504765	-2.4247453902	-0.112824
C	 0.7605944122	-3.2958612012	-3.4616703095	-0.399709
C	 1.4956413823	-0.9054654664	-3.0170751432	 0.41735
O	 1.9819579303	-0.6197825551	-4.083778728	-0.361878
N	 1.0333566135	 0.0064079405	-2.080101895	-0.375816
H	 1.1425293094	 1.8348088251	-0.0559010478	 0.107833
H	-0.5750077119	 1.9637815858	-0.4949190725	 0.11917
H	-0.1051094038	 1.7859813663	 1.1983196804	 0.131511
H	 0.6959123102	-2.6097331387	-0.301025632	 0.136594
H	-0.6469019004	-2.3384659632	-1.4060623184	 0.133738
H	 2.2830829159	-2.6314001757	-2.0977380802	 0.116084
H	-0.2490505056	-3.0234526877	-3.7868815468	 0.122182
H	 1.4089800197	-3.2989249936	-4.3411644232	 0.144224
H	 0.7224468095	-4.3083386714	-3.0497588534	 0.119535
H	 1.1213302635	 0.9985488476	-2.237155077	 0.265033
54.2599	77.6258	131.9302	200.7974	217.4929	235.3639	252.6852	346.6091	436.6351	537.0225	577.836	609.6093	618.4656	642.6327	728.0922	789.4247	885.2727	918.1993	936.0556	1032.4282	1051.7679	1098.3818	1113.8135	1136.4843	1160.8305	1191.4895	1211.9804	1277.7026	1309.4656	1325.6977	1355.3245	1370.0745	1410.4258	1437.3283	1476.5903	1492.1667	1495.9589	1499.8836	1510.976	1780.8467	1848.2056	2973.9081	3025.5467	3026.4242	3040.9678	3051.1051	3104.1893	3109.1863	3122.7485	3129.1454	3640.0766
CN=C1CC(C)C(=O)N1	CN=C1C[C@@H](C)C(=O)N1	
InChI=1S/C6H10N2O/c1-4-3-5(7-2)8-6(4)9/h4H,3H2,1-2H3,(H,7,8,9)	InChI=1S/C6H10N2O/c1-4-3-5(7-2)8-6(4)9/h4H,3H2,1-2H3,(H,7,8,9)/t4-/m1/s1
