15
gdb 45827	2.59224	1.94554	1.25347	2.5445	66.93	-0.2515	-0.0374	0.2141	954.4301	0.115497	-453.963206	-453.956197	-453.955253	-453.995349	26.176	
O	 0.0194127728	-0.0441758626	-0.1830481953	-0.34128
C	 0.0041587888	 1.156685677	-0.0473094064	 0.427706
N	-1.17585925	 1.8768562242	 0.0206392571	-0.344348
C	-1.2531204464	 3.268286903	 0.060784166	 0.096328
N	-0.2861669723	 4.0883259496	 0.0414406161	-0.238579
C	 1.0597384793	 3.56066082	 0.0170970768	-0.0559
C	 1.7341127633	 3.5387340303	 1.4094169335	-0.073411
O	 1.7027457255	 2.0914378853	 1.4471240696	-0.28528
C	 1.2531362329	 2.0173060853	 0.0774341223	-0.011404
H	-2.0269649275	 1.3344716107	-0.0291480353	 0.263459
H	-2.2752071288	 3.6425489332	 0.1034624085	 0.131576
H	 1.6258400514	 4.074217904	-0.7628933434	 0.101782
H	 2.7608605313	 3.9227263352	 1.4378137795	 0.109694
H	 1.145112682	 3.9887559839	 2.2141160908	 0.119975
H	 2.0242280576	 1.6004422909	-0.5803831699	 0.099682
61.2781	113.287	234.6732	317.4953	429.3428	507.4367	521.7364	554.1883	627.6175	728.1091	790.6134	812.4035	861.6606	916.4726	954.59	980.5015	1000.7001	1034.2441	1058.4604	1090.9887	1132.5655	1166.803	1237.5284	1262.759	1284.7472	1329.1414	1343.9125	1373.3954	1427.373	1458.4529	1517.0998	1743.9712	1824.8056	3026.9371	3046.1459	3082.5338	3093.624	3143.2211	3606.398
O=C1NC=NC2COC12	O=C1NC=N[C@H]2CO[C@@H]12	
InChI=1S/C5H6N2O2/c8-5-4-3(1-9-4)6-2-7-5/h2-4H,1H2,(H,6,7,8)	InChI=1S/C5H6N2O2/c8-5-4-3(1-9-4)6-2-7-5/h2-4H,1H2,(H,6,7,8)/t3-,4+/m0/s1
