25
gdb 123133	4.21104	0.52746	0.48575	2.3067	87.37	-0.2594	0.0784	0.3378	2337.4139	0.226451	-426.624221	-426.61252	-426.611576	-426.662859	41.237	
C	-0.2038318241	 1.5171414067	-0.0467148916	-0.388224
C	-0.0625331762	-0.0104497766	-0.0021278376	 0.039164
C	 0.8790771454	-0.4313423292	 1.1361601694	-0.382088
C	-1.4490135249	-0.6698990855	 0.1036127527	-0.184773
C	-1.4422137646	-2.1869841475	-0.0388977695	-0.060502
O	-2.7827310501	-2.6412993418	-0.036348699	-0.260708
C	-2.9145433811	-4.0441771289	-0.1648322898	-0.069754
C	-4.4021220458	-4.331578174	-0.2972504339	-0.057555
O	-4.9541378214	-3.6698019439	-1.4177187166	-0.422134
H	 0.7718979301	 2.0015376103	-0.1569282788	 0.109902
H	-0.8348100246	 1.8361876283	-0.8827516608	 0.111273
H	-0.6591729801	 1.8947180393	 0.8766484721	 0.113293
H	 0.3901410177	-0.3325921938	-0.9514868296	 0.072625
H	 0.4551080052	-0.1629743076	 2.1114494634	 0.113333
H	 1.0688185231	-1.5087541562	 1.1408103239	 0.113496
H	 1.847462234	 0.0718687437	 1.0467037786	 0.111963
H	-1.9132577225	-0.406492331	 1.0629508693	 0.101066
H	-2.1036426052	-0.2666986625	-0.6787387809	 0.09825
H	-0.9439458541	-2.4832587515	-0.9782878003	 0.087174
H	-0.8885348711	-2.6641302536	 0.7849033036	 0.089876
H	-2.382225254	-4.3968295189	-1.0631605142	 0.09319
H	-2.4906987086	-4.5633835973	 0.7108943515	 0.085478
H	-4.5619388837	-5.4054485982	-0.4397037661	 0.106126
H	-4.9079163858	-4.0347998555	 0.6356944414	 0.091735
H	-4.6411210974	-2.7592683049	-1.3569207374	 0.287796
27.991	46.1123	92.5288	111.0005	119.1632	178.0118	216.6015	239.3486	247.169	293.3504	342.9391	403.7825	423.7134	451.0368	473.4723	561.3224	793.537	827.1609	874.7419	908.6296	926.8263	949.8599	965.7388	995.3394	1047.743	1060.559	1087.9369	1135.1567	1149.7612	1162.0112	1191.4067	1195.8743	1239.5157	1249.1656	1266.2685	1302.3548	1315.8537	1362.7838	1373.2213	1385.0413	1390.6444	1401.5333	1422.5395	1437.921	1448.9085	1483.1217	1489.0563	1496.9043	1499.8506	1503.9988	1505.3167	1510.7327	1532.918	2952.7013	2965.3617	2975.7309	2993.929	2995.0466	3004.4775	3021.661	3023.9718	3029.9255	3065.5286	3078.1034	3088.4978	3095.0027	3099.5125	3103.4695	3790.2906
CC(C)CCOCCO	CC(C)CCOCCO	
InChI=1S/C7H16O2/c1-7(2)3-5-9-6-4-8/h7-8H,3-6H2,1-2H3	InChI=1S/C7H16O2/c1-7(2)3-5-9-6-4-8/h7-8H,3-6H2,1-2H3
