20
gdb 104925	2.02947	1.5436	1.0241	2.6512	76.79	-0.2538	-0.0378	0.216	1221.0348	0.168448	-440.274294	-440.264178	-440.263234	-440.309222	36.986	
C	-0.0132161104	 1.4544810242	-0.0729453925	-0.436983
C	 0.0386186738	-0.0546495831	 0.094670579	 0.270845
C	-1.0816644685	-0.7671853365	-0.6414747063	-0.481226
N	 1.3811881171	-0.6363918506	 0.0953595154	-0.402782
C	 0.6273309041	-0.6483238906	 1.3685986318	 0.145486
C	 1.2286840426	 0.1735764081	 2.4915490605	-0.139075
O	 2.4374419715	-0.4202721668	 2.9360246679	-0.419767
C	 0.1498429569	-1.9899137261	 1.8264184412	 0.113216
O	 0.1532928999	-2.9858975297	 1.1402874128	-0.272543
H	 0.8936996919	 1.9390534484	 0.2881752682	 0.133949
H	-0.1138456253	 1.6954105443	-1.1369893929	 0.125404
H	-0.8779847544	 1.8804077113	 0.4466067345	 0.121834
H	-0.9875767747	-0.5696134686	-1.7153218768	 0.125952
H	-1.0631119203	-1.8462016827	-0.4899562392	 0.154632
H	-2.0573157948	-0.3837359485	-0.3239470943	 0.123344
H	 1.3418196894	-1.5870719923	-0.2777187351	 0.243863
H	 1.3806693808	 1.2142172097	 2.1855094633	 0.097488
H	 0.5547040062	 0.1793853333	 3.3562485807	 0.110838
H	 2.9988505045	-0.4989960656	 2.1549101968	 0.294854
H	-0.2027579504	-2.0226434682	 2.8786206149	 0.090669
56.0376	132.8062	140.1707	165.0743	207.8936	236.3597	250.3431	304.5319	337.442	364.8813	390.7719	451.3499	476.9895	540.2507	660.1216	708.4313	776.1521	852.7293	918.4792	960.1037	989.2117	1001.6041	1021.8688	1059.4944	1096.4034	1114.9824	1142.609	1160.1209	1223.3298	1294.6304	1335.6078	1365.5376	1394.868	1412.3064	1422.9757	1427.7333	1431.8086	1479.4538	1490.0231	1503.5656	1506.4348	1514.9178	1796.8654	2914.5008	3034.5535	3035.8842	3042.0906	3074.6854	3091.2086	3098.3118	3148.571	3154.4003	3443.3177	3785.3578
CC1(C)NC1(CO)C=O	CC1(C)N[C@]1(CO)C=O	
InChI=1S/C6H11NO2/c1-5(2)6(3-8,4-9)7-5/h3,7,9H,4H2,1-2H3	InChI=1S/C6H11NO2/c1-5(2)6(3-8,4-9)7-5/h3,7,9H,4H2,1-2H3/t6-/m0/s1
