20
gdb 117214	3.77473	0.80265	0.72135	1.8735	77.31	-0.2435	0.0128	0.2563	1608.9303	0.168655	-440.283662	-440.273359	-440.272415	-440.320065	36.071	
C	 0.0598544152	 1.3812904415	 0.4738262513	-0.401643
C	 0.0888114843	-0.0570421757	 0.0130604936	 0.018116
C	 1.3889746916	-0.814126475	-0.0801733419	-0.26157
N	 0.4036870744	-1.1251917451	 0.93334196	-0.083254
C	 0.5195230733	-1.0328372985	 2.3122905532	 0.37978
O	-0.3007311497	-0.4473406654	 2.9905364543	-0.358056
C	 1.6906048048	-1.803097263	 2.8996358567	-0.291492
C	 1.5824824783	-1.9569338428	 4.4098627675	-0.070543
O	 2.7455494495	-2.6485479045	 4.843400091	-0.426828
H	 0.9198093409	 1.6148968459	 1.1080557838	 0.121171
H	 0.0779463459	 2.0511503745	-0.391783194	 0.119306
H	-0.8434410899	 1.5827454917	 1.0549212075	 0.151608
H	-0.6838200223	-0.3215120593	-0.7078743731	 0.102148
H	 1.5398836431	-1.5642687012	-0.8525363628	 0.124904
H	 2.2903643094	-0.2879852432	 0.2289162698	 0.124664
H	 1.7645283155	-2.7845742916	 2.4192745271	 0.132584
H	 2.6242642146	-1.2788095404	 2.6568506926	 0.126735
H	 1.4981125056	-0.9653396011	 4.8741524546	 0.105112
H	 0.6646197167	-2.5085745329	 4.6598652937	 0.100558
H	 2.693692519	-2.745500434	 5.7985021053	 0.286701
45.2508	61.7108	109.8061	120.0811	161.5702	193.7459	249.335	269.382	349.2111	374.0569	404.4628	453.0514	583.4474	627.9371	785.7148	812.1278	835.9976	908.9361	915.5027	1032.7436	1044.5401	1060.803	1072.7975	1080.4483	1116.2307	1127.867	1159.8318	1175.1501	1191.901	1208.6172	1252.8539	1303.3006	1332.649	1391.1198	1412.1343	1440.6021	1455.3888	1470.7077	1483.6608	1491.2218	1513.5299	1523.9044	1770.6388	2997.5158	3030.1045	3036.9782	3043.3082	3083.6947	3096.2133	3104.9665	3120.0174	3128.4159	3183.3526	3832.2401
CC1CN1C(=O)CCO	C[C@H]1CN1C(=O)CCO	
InChI=1S/C6H11NO2/c1-5-4-7(5)6(9)2-3-8/h5,8H,2-4H2,1H3	InChI=1S/C6H11NO2/c1-5-4-7(5)6(9)2-3-8/h5,8H,2-4H2,1H3/t5-,7?/m0/s1
