20
gdb 89391	2.77439	1.45348	1.11321	3.8126	78.8	-0.2435	-0.005	0.2385	1159.1429	0.170673	-403.172377	-403.163598	-403.162653	-403.205707	33.534	
C	-0.4819086479	 1.4439410851	 0.0037247655	-0.398939
C	 0.1036621212	 0.0371944429	-0.0485826507	-0.076898
C	 1.0426498272	-0.295449023	-1.2293242499	-0.324252
C	 2.0259068001	-1.3279669554	-0.6458162104	 0.332064
C	 2.1364093044	-2.6724207815	-1.3226666516	-0.475068
C	 3.1339125703	-0.8078831417	 0.1995336744	-0.28891
N	 1.8949626997	-1.3240468981	 0.8251741604	-0.154155
C	 0.9607355412	-0.3043905733	 1.1814883412	 0.372168
O	 0.8733441556	 0.1844126276	 2.2746774876	-0.320731
H	 0.3092302744	 2.1993322905	-0.0487553571	 0.118628
H	-1.1722213455	 1.6175838825	-0.8269540249	 0.113296
H	-1.0197241206	 1.5929712849	 0.9433903149	 0.141224
H	-0.7166440008	-0.6951999369	-0.0437052939	 0.110856
H	 0.5022861781	-0.7089248594	-2.0838901499	 0.111716
H	 1.5625200286	 0.6029982223	-1.5797829421	 0.110784
H	 2.5669122653	-2.5654766135	-2.3244209023	 0.122522
H	 2.7708343643	-3.3493437771	-0.7448600499	 0.131263
H	 1.1505270534	-3.1382942936	-1.4284699956	 0.123152
H	 4.0177692241	-1.412605495	 0.3837203353	 0.125864
H	 3.3049531168	 0.265520643	 0.2387626692	 0.125416
65.0009	145.724	196.5986	213.617	243.2009	298.6007	333.554	381.063	390.9702	511.9012	560.6856	588.6744	690.812	754.3692	782.4167	850.5969	893.3686	900.1761	938.1081	941.7174	1018.3802	1044.5719	1062.7205	1102.0895	1120.3791	1130.9216	1145.2313	1171.0663	1195.3423	1271.4508	1293.3171	1316.5311	1350.4067	1382.4933	1410.4088	1420.4779	1487.1883	1491.9845	1493.7023	1495.7555	1496.6105	1515.6327	1850.2034	3006.5333	3032.3759	3039.8926	3047.7732	3095.2193	3101.5318	3102.4397	3107.0823	3120.6122	3125.4011	3189.8413
CC1CC2(C)CN2C1=O	C[C@H]1C[C@@]2(C)CN2C1=O	
InChI=1S/C7H11NO/c1-5-3-7(2)4-8(7)6(5)9/h5H,3-4H2,1-2H3	InChI=1S/C7H11NO/c1-5-3-7(2)4-8(7)6(5)9/h5H,3-4H2,1-2H3/t5-,7-,8?/m0/s1
