20
gdb 59100	2.14376	1.51781	1.12721	2.0338	76.07	-0.2647	0.0222	0.2869	1177.1029	0.170009	-440.294666	-440.285234	-440.28429	-440.32881	35.371	
C	-0.0731556798	 1.6864095949	-0.0715468368	-0.414989
C	 0.0316603656	 0.1618232865	 0.0170501423	 0.106971
O	 0.7846092736	-0.2364373294	 1.1570766788	-0.43028
C	-1.3617159663	-0.4899449153	 0.0040467753	-0.169208
C	-1.5392959806	-2.0360428853	-0.0550052855	 0.115946
C	-0.3295782833	-2.9429138463	-0.0322732598	-0.416132
O	-2.2176677447	-1.98744122	 1.2588076747	-0.264328
C	-2.0175120716	-0.6381277027	 1.3609514577	 0.428319
N	-2.2411856899	 0.1578496464	 2.3099711332	-0.559406
H	 0.9238289861	 2.1292332171	-0.0031756526	 0.124262
H	-0.530467014	 1.9995647568	-1.0159649372	 0.112315
H	-0.6872826015	 2.0726630814	 0.7489922476	 0.147284
H	 0.602298979	-0.214863991	-0.8403801794	 0.09333
H	 0.3134650926	 0.0958028549	 1.9330186557	 0.292464
H	-2.0050592299	 0.0224615107	-0.7164119054	 0.105048
H	-2.2647416435	-2.3598136415	-0.8074837328	 0.093407
H	 0.4024182941	-2.5996142717	 0.7000497491	 0.158261
H	-0.6354012976	-3.9658879566	 0.2067463843	 0.127262
H	 0.1427881173	-2.9560063501	-1.0206821032	 0.121033
H	-2.6621054355	-0.3227584188	 3.1074194841	 0.22844
78.0496	97.14	154.0038	190.5606	233.957	260.986	281.8525	357.6706	410.5896	458.1156	470.3499	497.9219	534.6873	691.1627	732.3117	803.5696	858.6299	873.9448	885.8924	913.1777	1008.3417	1038.6446	1047.9801	1050.0485	1071.7421	1093.5726	1146.7787	1175.0256	1219.6264	1243.6687	1295.3537	1325.3663	1355.8539	1361.2318	1383.7975	1405.4348	1415.3879	1437.24	1487.0912	1492.9754	1501.6299	1502.4848	1802.672	3034.8733	3039.0946	3042.9396	3059.8315	3080.5943	3106.6941	3107.7134	3123.2321	3153.2327	3470.2089	3760.3036
CC(O)C1C(C)OC1=N	C[C@@H](O)[C@H]1[C@@H](C)O[C]1[NH]	
InChI=1S/C6H11NO2/c1-3(8)5-4(2)9-6(5)7/h3-5,7-8H,1-2H3	InChI=1S/C6H11NO2/c1-3(8)5-4(2)9-6(5)7/h3-5,7-8H,1-2H3/t3-,4-,5+/m1/s1
