17
gdb 44237	4.02037	1.24186	1.1489	4.2505	72.49	-0.2693	0.0093	0.2786	1091.2217	0.136673	-421.821731	-421.81441	-421.813466	-421.85377	28.526	
O	-0.4830005205	 0.3912035926	-0.583711685	-0.324489
C	-0.1351170666	 1.416645086	-0.0941564619	 0.451311
O	-0.921522356	 2.3475826771	 0.5501999057	-0.253627
C	 0.2373368392	 3.2069166354	 0.8295873535	 0.012099
C	 1.157893471	 2.2077421172	 0.0851862791	-0.222108
C	 1.3825239892	 3.2712546919	-1.0422052652	-0.337044
C	 0.4766804197	 4.2423436497	-0.2594086501	 0.369216
C	-0.5163065674	 5.2369240673	-0.7792878755	-0.309609
C	 0.7073166022	 5.710593689	-0.0348062525	-0.329111
H	 0.283363109	 3.4687599159	 1.8857799264	 0.096769
H	 2.0162753269	 1.6919503366	 0.5084038778	 0.111503
H	 2.4235211113	 3.5968454219	-1.1041514158	 0.119148
H	 1.0464801638	 2.9721142396	-2.0378336512	 0.125354
H	-0.5528280721	 5.3915064757	-1.8526056029	 0.122054
H	-1.4803672254	 5.2952898884	-0.2857567147	 0.12984
H	 0.5793652896	 6.0974997207	 0.9712538408	 0.1197
H	 1.5018089259	 6.188130245	-0.5991048385	 0.118996
70.9741	172.3016	216.3476	282.2712	329.9036	448.3921	460.6972	562.365	693.3932	764.1629	773.547	798.1485	858.3687	885.8517	890.0676	900.3497	926.5469	962.6019	983.8067	1006.4668	1050.2181	1057.19	1078.965	1101.637	1141.9411	1166.9075	1187.7416	1215.2842	1236.7092	1266.9174	1273.312	1302.4327	1388.0259	1465.7865	1486.9455	1502.5049	1934.3525	3064.5135	3116.0848	3125.3923	3128.2586	3133.8935	3152.212	3205.9707	3222.5697
O=C1OC2C1CC21CC1	O=C1O[C@H]2[C@@H]1CC12CC1	
InChI=1S/C7H8O2/c8-6-4-3-7(1-2-7)5(4)9-6/h4-5H,1-3H2	InChI=1S/C7H8O2/c8-6-4-3-7(1-2-7)5(4)9-6/h4-5H,1-3H2/t4-,5-/m0/s1
