16
gdb 56735	2.07774	1.46627	1.27095	2.4526	71.03	-0.2563	-0.0418	0.2145	1085.3938	0.121702	-437.821511	-437.812474	-437.81153	-437.855369	33.179	
O	 0.3721770918	 1.5704055338	-0.0868321593	-0.410862
C	 0.1107725234	 0.1856397243	 0.0082956425	-0.167559
C	 0.4836267922	-0.5518404723	-1.2088933586	 0.318453
C	 0.7906258992	-1.1569539735	-2.2005951606	-0.453577
C	 0.7861609458	-0.4281904455	 1.2392111533	 0.216712
C	 0.0101741537	-0.5148191648	 2.518507145	-0.276305
N	 0.3323851859	-1.7258674269	 1.7738028418	-0.341487
C	 2.2611675236	-0.2290746077	 1.3487328423	 0.148132
O	 2.8902158855	 0.5716072134	 0.6958956428	-0.280938
H	 1.3362679899	 1.6528413289	-0.1423484403	 0.302263
H	-0.9756205137	 0.0963951064	 0.1430683594	 0.112867
H	 1.0639701358	-1.6841176536	-3.0814699952	 0.204628
H	 0.517740309	-0.4124441897	 3.4737158432	 0.134711
H	-0.9989507941	-0.1118999068	 2.4917525804	 0.136809
H	-0.4646347262	-2.0558369209	 1.2335762759	 0.249261
H	 2.748737208	-0.883145075	 2.1012344076	 0.106892
65.6668	117.5649	141.6061	213.1704	229.2651	290.2787	316.6383	342.0628	438.7966	512.1935	539.687	571.5965	596.1702	645.4856	674.1457	812.3699	853.2281	901.571	935.8663	972.2696	997.1662	1050.6427	1072.0101	1091.2825	1136.3622	1233.5168	1265.5085	1304.587	1336.6607	1369.0849	1425.1941	1451.2728	1509.1646	1802.0564	2233.9685	2925.9564	3018.6565	3109.591	3197.277	3498.5069	3501.478	3721.551
OC(C#C)C1(CN1)C=O	O[C@@H](C#C)[C@]1(CN1)C=O	
InChI=1S/C6H7NO2/c1-2-5(9)6(4-8)3-7-6/h1,4-5,7,9H,3H2	InChI=1S/C6H7NO2/c1-2-5(9)6(4-8)3-7-6/h1,4-5,7,9H,3H2/t5-,6-/m0/s1
