17
gdb 97780	2.53969	0.93512	0.7387	4.1278	83.19	-0.2539	0.0047	0.2587	1550.4646	0.13513	-380.82897	-380.81942	-380.818476	-380.865476	33.174	
C	 0.4224433806	 0.7810467609	 0.5420253486	-0.367105
C	-0.4980853727	 0.5748908005	-0.6756283717	-0.322199
C	 0.133602482	-0.2089385329	-1.7302049947	 0.144074
C	 0.6934346341	-0.8595267828	-2.5751803427	 0.110738
C	 1.335142143	-1.6624803297	-3.5741131899	-0.255186
N	 2.7764659831	-1.4601141847	-3.8094732048	-0.301601
C	 2.3390140337	-2.7342307622	-3.2204177863	-0.188406
C	 2.7151900163	-2.984971518	-1.8507419349	 0.341668
N	 2.9969836304	-3.2229054979	-0.7554756016	-0.329605
H	 0.7198174634	-0.1796561558	 0.9696645051	 0.143277
H	 1.3306365194	 1.3169453233	 0.2546089777	 0.134657
H	-0.0941690644	 1.3614116753	 1.3118729736	 0.115725
H	-1.4223445342	 0.0742054823	-0.360156022	 0.134356
H	-0.8036189991	 1.5485049325	-1.0796276627	 0.132758
H	 0.7228240604	-1.9054734335	-4.4409577681	 0.122189
H	 2.9966884554	-1.6003951036	-4.7926157377	 0.248962
H	 2.3344918886	-3.6251615636	-3.8430196077	 0.135699
19.8061	50.2541	104.7663	147.8307	215.2872	241.8315	251.5832	340.4547	400.3725	478.5653	551.341	589.8029	624.0784	713.049	786.4784	812.6268	868.4139	905.5641	958.1577	970.8516	1067.0174	1084.4563	1105.0105	1144.5472	1190.6032	1201.9439	1253.0124	1283.6027	1347.4726	1399.6769	1411.0919	1440.4316	1473.6441	1494.1095	1505.3938	2363.7367	2370.5054	3022.388	3048.5141	3050.5991	3119.1847	3123.2684	3131.1064	3147.1503	3505.8097
CCC#CC1NC1C#N	CCC#C[C@H]1N[C@H]1C#N	
InChI=1S/C7H8N2/c1-2-3-4-6-7(5-8)9-6/h6-7,9H,2H2,1H3	InChI=1S/C7H8N2/c1-2-3-4-6-7(5-8)9-6/h6-7,9H,2H2,1H3/t6-,7+/m1/s1
