18
gdb 50914	2.43515	1.15874	0.87662	3.3759	79.49	-0.2455	-0.0172	0.2283	1326.1786	0.144485	-401.884147	-401.874638	-401.873694	-401.919209	34.131	
O	 0.3958571788	-0.4240714041	-0.0916684753	-0.244901
C	 0.2549521975	 0.7699029488	-0.0923541904	 0.174981
C	 1.3927971266	 1.7675529511	-0.2017290653	-0.275939
C	 0.9869886596	 2.978260141	-1.0608178483	-0.159519
C	 2.0540725847	 3.984437336	-1.1063948059	 0.311001
C	 2.9384746421	 4.7971693737	-1.1727010688	-0.446944
N	 0.5281907993	 2.4621842844	-2.3602052785	-0.072436
C	 0.4615796354	 3.358914522	-3.5075166035	-0.228811
C	 1.4959771833	 2.2884225016	-3.4407257098	-0.224177
H	-0.7516753736	 1.233005506	 0.0267726469	 0.074309
H	 1.6456242938	 2.1099306367	 0.8104363768	 0.134036
H	 2.2723868182	 1.2661134547	-0.6133207316	 0.134576
H	 0.1044578783	 3.4433455446	-0.5988921256	 0.118537
H	 3.7135203425	 5.5226618729	-1.2149801636	 0.203734
H	-0.4178343064	 3.2430986058	-4.1340965125	 0.122054
H	 0.8103803727	 4.3807406599	-3.3775961207	 0.126573
H	 2.5192876121	 2.612904025	-3.2682482785	 0.127553
H	 1.386519055	 1.37375371	-4.0150872954	 0.125373
57.5657	100.2004	104.1653	141.3677	161.0538	226.2743	311.1156	341.8975	440.021	451.2782	577.1702	601.5369	632.5202	670.6252	698.4687	794.0262	824.7919	903.9955	932.6448	993.3557	1031.2999	1046.2979	1084.4065	1103.7676	1119.8616	1130.6132	1174.3181	1187.1336	1212.4004	1267.6444	1314.7178	1345.1697	1356.8222	1432.1917	1451.3482	1483.5943	1510.6552	1841.014	2223.1663	2867.0297	3007.3761	3036.6839	3108.1572	3111.8895	3112.5914	3192.1714	3206.1903	3498.8551
O=CCC(C#C)N1CC1	O=CC[C@@H](C#C)N1CC1	
InChI=1S/C7H9NO/c1-2-7(3-6-9)8-4-5-8/h1,6-7H,3-5H2	InChI=1S/C7H9NO/c1-2-7(3-6-9)8-4-5-8/h1,6-7H,3-5H2/t7-/m1/s1
