18
gdb 85746	3.1846	1.26128	1.06628	5.6056	76.45	-0.2359	0.0315	0.2674	1161.6536	0.149418	-398.11429	-398.106142	-398.105198	-398.147032	31.171	
C	 0.2962555663	 1.5217966397	-0.1574790252	-0.392208
C	 0.106588067	 0.0156684366	 0.0059580243	 0.050884
N	 0.7229442258	-0.7136808176	-1.1156186938	-0.312975
C	 1.1348044958	-2.0479096775	-0.6776669116	-0.123181
C	 2.2747882701	-2.5445847904	-1.4658290481	 0.299758
N	 3.1491060321	-2.9773842601	-2.0843869466	-0.328391
C	 1.4430443915	-1.8544056259	 0.8054577022	-0.051283
N	 2.2656872597	-0.6651643966	 1.0734571791	-0.308789
C	 0.798350072	-0.5898913961	 1.21795862	-0.046388
H	 1.3627523877	 1.7565140329	-0.180232574	 0.147616
H	-0.1564553075	 1.8721961315	-1.090502105	 0.11301
H	-0.1766418998	 2.0649620275	 0.6676175596	 0.107849
H	-0.9702606455	-0.2093176098	 0.1109296319	 0.063371
H	 0.1531682427	-0.7302489462	-1.9507570561	 0.232218
H	 0.3401094759	-2.8120289848	-0.7468650077	 0.106252
H	 1.5157003012	-2.7294896109	 1.4402864673	 0.1067
H	 2.6937196725	-0.76036124	 1.9910580082	 0.239139
H	 0.3579737326	-0.4595024123	 2.2004494755	 0.096416
89.4722	132.352	180.6808	236.525	281.4832	338.1067	390.1646	475.1735	524.0439	552.8178	592.4987	637.3177	810.598	822.5893	842.5442	889.1443	896.733	942.7513	958.382	1029.7576	1040.6034	1053.6936	1095.7029	1121.099	1132.2418	1159.4273	1172.9626	1251.5426	1278.7939	1338.8792	1349.12	1365.4718	1375.8554	1405.5027	1434.2724	1443.0584	1493.886	1498.3718	2361.9198	2931.6114	2940.0978	3038.0397	3101.7774	3135.4026	3171.5654	3187.5805	3506.742	3578.4967
CC1NC(C#N)C2NC12	C[C@H]1N[C@@H](C#N)[C@H]2N[C@@H]12	
InChI=1S/C6H9N3/c1-3-5-6(9-5)4(2-7)8-3/h3-6,8-9H,1H3	InChI=1S/C6H9N3/c1-3-5-6(9-5)4(2-7)8-3/h3-6,8-9H,1H3/t3-,4+,5+,6-/m1/s1
