16
gdb 9635	4.23313	1.20522	1.08162	2.3822	66.52	-0.2685	0.0103	0.2787	1097.0117	0.129933	-379.904956	-379.896359	-379.895414	-379.938316	30.598	
C	 0.079295785	 1.5299351478	-0.2043663247	-0.455233
C	 0.0096506652	 0.0423307229	 0.0875361756	 0.152895
N	 1.2905508099	-0.7015430614	 0.1047087896	-0.364823
C	 0.5136626286	-0.6050787654	 1.3476814752	-0.058505
C	 1.1792781738	 0.1436802963	 2.4812115249	-0.076279
O	 2.2189010239	-0.6356015917	 3.0435668636	-0.412657
C	-1.117653597	-0.6280945054	-0.5304727742	 0.239551
N	-2.0113513549	-1.1585146507	-1.0388349426	-0.335038
H	 0.9934584673	 1.9560108606	 0.2090475673	 0.141754
H	 0.0849527571	 1.6983024181	-1.2849903853	 0.144871
H	-0.7841886055	 2.0510133592	 0.2189378925	 0.140316
H	 1.1823137875	-1.6159531592	-0.3267487059	 0.254172
H	-0.0211933611	-1.4985197078	 1.6633167141	 0.116835
H	 1.5493041216	 1.1180690471	 2.1370529778	 0.096896
H	 0.457468759	 0.3225513533	 3.2844529022	 0.121787
H	 2.8566237496	-0.7955389438	 2.3381594199	 0.293457
64.1105	130.8721	152.6448	168.0244	232.2777	278.1449	368.8249	402.2689	430.0059	466.2408	585.5262	607.5146	689.4001	826.2456	857.7198	938.6023	992.5574	1030.487	1060.2073	1098.7511	1104.0923	1115.9276	1188.6547	1262.0755	1283.9465	1330.5581	1371.3987	1416.1936	1417.7259	1456.0546	1485.5186	1492.8076	1501.6293	2347.6185	3021.1361	3053.5591	3085.2139	3119.7324	3137.2986	3154.1074	3511.0645	3797.3099
CC1(NC1CO)C#N	C[C@]1(N[C@H]1CO)C#N	
InChI=1S/C5H8N2O/c1-5(3-6)4(2-8)7-5/h4,7-8H,2H2,1H3	InChI=1S/C5H8N2O/c1-5(3-6)4(2-8)7-5/h4,7-8H,2H2,1H3/t4-,5-/m0/s1
