17
gdb 124649	4.3545	0.9684	0.87705	3.051	71.52	-0.2384	-0.0386	0.1999	1337.7924	0.134164	-455.119431	-455.110733	-455.109789	-455.153759	31.452	
C	-0.0689687091	 1.5365181042	 0.0863360354	-0.394686
C	 0.0192123796	 0.021603327	-0.0180518888	 0.138635
C	 0.7156055781	-0.6259273896	 1.1742610185	-0.399301
O	-1.3569100102	-0.4396825222	-0.1081829669	-0.292055
C	-1.5762422709	-1.6522852126	-0.6176665705	 0.342493
C	-2.7621149512	-2.3134878792	-0.7387974525	-0.075616
O	-2.512895501	-3.4888971413	-1.3308267695	-0.153216
N	-1.1324391823	-3.5471247976	-1.5729904979	-0.011443
N	-0.6110125079	-2.4703945458	-1.1517778569	-0.204837
H	 0.935125213	 1.9675833945	 0.1312669329	 0.123257
H	-0.5888141378	 1.9550256891	-0.7791645323	 0.127781
H	-0.611245548	 1.8291425153	 0.9907712215	 0.127778
H	 0.5291299879	-0.2640364256	-0.9440084139	 0.113475
H	 0.755255408	-1.7118597423	 1.0635436873	 0.142525
H	 1.7426854009	-0.2559408443	 1.251079952	 0.122631
H	 0.1897419282	-0.3817042507	 2.1025774196	 0.123554
H	-3.778429747	-2.0850838488	-0.472279348	 0.169026
40.8801	73.0675	156.2776	214.9909	250.5631	316.3165	324.4836	386.0412	449.1136	492.8477	644.1097	713.1707	726.5037	738.1376	780.4402	849.1927	936.0905	945.7963	951.2568	988.7748	1060.2418	1127.5929	1139.2206	1159.5954	1201.5876	1305.8137	1332.8358	1368.315	1381.431	1404.3968	1420.3303	1432.8493	1481.3138	1485.7006	1496.1331	1510.4973	1654.5799	3042.8956	3047.0003	3059.5575	3113.5426	3122.7984	3126.8691	3132.6608	3305.2849
CC(C)OC1=CON=N1	CC(C)Oc1conn1	
InChI=1S/C5H8N2O2/c1-4(2)9-5-3-8-7-6-5/h3-4H,1-2H3	InChI=1S/C5H8N2O2/c1-4(2)9-5-3-8-7-6-5/h3-4H,1-2H3
