20
gdb 118816	3.42085	0.86517	0.79809	4.8715	77.75	-0.239	-0.0205	0.2184	1481.9272	0.168543	-440.266799	-440.25667	-440.255726	-440.30226	36.454	
C	 0.073230802	 1.8007706234	 0.171138115	-0.45326
C	-0.1603641484	 0.3051106032	 0.0601126364	 0.325512
C	-1.6098135388	-0.0965623867	-0.2073010106	-0.274067
C	-2.0110848589	-0.0089284097	-1.6798049192	-0.069685
O	-1.382525675	-1.0918060529	-2.3612549895	-0.413886
N	 0.9028560244	-0.4591170175	-0.5833240957	-0.363409
C	 0.6698453649	-0.6755593283	 0.8586126172	-0.169406
C	 1.7655065318	-0.2481538974	 1.7696633872	 0.164888
O	 1.8974494606	-0.6609618326	 2.8959593612	-0.264759
H	 1.1381532275	 2.0331007298	 0.2160715657	 0.132695
H	-0.3388601807	 2.3189341644	-0.7022421856	 0.117899
H	-0.4153216074	 2.209347511	 1.0622119696	 0.123802
H	-1.7874737977	-1.1281645515	 0.1151404841	 0.11666
H	-2.2774171584	 0.5417614868	 0.3824044794	 0.107841
H	-3.1057673406	-0.0798602556	-1.7667449651	 0.095481
H	-1.7075445782	 0.9569980316	-2.1090245426	 0.098682
H	-1.4574944005	-0.9470009974	-3.3087218036	 0.293559
H	 0.5046975807	-1.2150770803	-1.1347730785	 0.25148
H	 0.1586198856	-1.5759254041	 1.1920429417	 0.098644
H	 2.4741662471	 0.4851555937	 1.3271272928	 0.081328
52.8143	93.895	128.7881	152.1912	196.35	236.0628	259.9716	265.9259	353.0933	379.5877	413.1009	426.4401	509.395	567.3128	684.7311	819.6921	873.7842	893.0209	964.1006	990.0664	993.8973	1024.354	1044.9889	1080.4297	1089.5719	1094.8021	1136.7553	1186.5533	1224.9348	1261.9711	1273.3636	1291.2092	1352.1622	1378.6098	1394.732	1416.5404	1444.9283	1451.8163	1470.1705	1490.8085	1500.5174	1520.0595	1816.5573	2896.6731	2983.3392	3014.9126	3034.5629	3042.8887	3084.9509	3092.5343	3138.2467	3139.5749	3517.1979	3836.7738
CC1(CCO)NC1C=O	C[C@@]1(CCO)N[C@H]1C=O	
InChI=1S/C6H11NO2/c1-6(2-3-8)5(4-9)7-6/h4-5,7-8H,2-3H2,1H3	InChI=1S/C6H11NO2/c1-6(2-3-8)5(4-9)7-6/h4-5,7-8H,2-3H2,1H3/t5-,6-/m0/s1
