15
gdb 29660	2.44614	1.6837	1.00906	4.3624	64.72	-0.1948	0.0474	0.2422	1106.434	0.112725	-491.129279	-491.120508	-491.119564	-491.162746	31.628	
C	-0.0114772785	 1.451996736	 0.0440682868	-0.34305
N	 0.0080622649	 0.0050539183	 0.0629046495	-0.17905
C	 0.0004810864	-0.7842212831	-1.0782870082	 0.4767
O	-0.0225775987	-0.426644918	-2.2279971905	-0.416184
O	 0.024467782	-2.0850913499	-0.656525578	-0.241133
C	 0.0470365887	-2.098499717	 0.7577342536	 0.122035
N	 0.0746486056	-3.2739491556	 1.4923504676	-0.608671
C	 0.0365535127	-0.8246399101	 1.1737654459	 0.345367
O	 0.0486106298	-0.2786462598	 2.4023277445	-0.430766
H	 0.8805312645	 1.8637806452	 0.5254529087	 0.142041
H	-0.0319602334	 1.7514660964	-1.0044773447	 0.172345
H	-0.8985447476	 1.840108352	 0.5534461156	 0.142041
H	-0.7419723604	-3.8603272647	 1.3457746277	 0.251572
H	 0.9032224559	-3.8366618485	 1.321909895	 0.251557
H	 0.067340088	-1.0107185414	 3.0330082266	 0.315195
89.3453	118.3538	167.8289	225.229	249.7498	266.9876	331.5202	357.1564	361.7135	458.9977	578.438	638.1296	641.2671	678.3175	734.5119	761.0155	802.4614	946.1123	992.766	1095.8185	1160.4265	1188.788	1217.3078	1273.8712	1301.2894	1405.2303	1435.9221	1490.9445	1514.9365	1539.3438	1664.0789	1806.0525	1879.5632	3042.9666	3103.3145	3155.8586	3480.3392	3538.9176	3785.7369
CN1C(=O)OC(N)=C1O	Cn1c(=O)oc(N)c1O	
InChI=1S/C4H6N2O3/c1-6-3(7)2(5)9-4(6)8/h7H,5H2,1H3	InChI=1S/C4H6N2O3/c1-6-3(7)2(5)9-4(6)8/h7H,5H2,1H3
