16
gdb 61007	3.22463	0.9202	0.90101	2.9669	67.49	-0.2639	-0.05	0.2139	1328.9628	0.121667	-475.011872	-475.002837	-475.001893	-475.046728	31.511	
O	 1.7107859299	 0.8107037219	-0.0052651028	-0.431223
C	 0.3479050941	 0.5903926164	 0.2363596533	 0.027756
C	-0.2729210069	-0.169032603	-0.9291406237	 0.147949
O	 0.3768014633	-0.4352611303	-1.9091080589	-0.256493
C	 0.174196661	-0.141518364	 1.557643006	-0.040678
C	-1.1026077505	-0.7836898379	 2.0185908353	-0.255818
N	-0.0013664154	-1.5858827454	 1.5311195427	-0.073639
C	 0.6982191076	-2.4821772765	 2.3344953262	 0.141666
O	 0.1924520038	-3.2027674399	 3.1558223683	-0.27483
H	 1.8811994383	 0.4430024053	-0.8878246728	 0.299362
H	-0.1913748361	 1.5541589392	 0.3072898914	 0.102722
H	-1.3441000775	-0.4341558062	-0.8509815153	 0.108672
H	 0.8192336214	 0.2597711272	 2.3375132612	 0.12705
H	-1.2976585881	-0.8109391882	 3.0871763781	 0.147047
H	-1.9906533178	-0.7589070718	 1.3932650072	 0.129481
H	 1.7746986129	-2.4970300667	 2.0824212038	 0.100975
54.8126	75.4528	123.4976	141.1325	221.4274	273.6609	324.1145	330.1267	419.4366	465.6606	548.0795	628.1306	736.0641	800.8032	848.1277	890.3434	952.0106	1016.5454	1035.702	1084.3554	1097.7574	1129.3626	1134.0483	1156.2078	1185.6231	1253.3741	1319.4501	1332.6011	1395.0957	1409.8131	1429.6958	1450.3213	1517.1587	1808.7011	1819.3069	2931.8604	2961.4064	2971.082	3116.9805	3133.015	3203.385	3680.0937
OC(C=O)C1CN1C=O	O[C@@H](C=O)[C@H]1CN1C=O	
InChI=1S/C5H7NO3/c7-2-5(9)4-1-6(4)3-8/h2-5,9H,1H2	InChI=1S/C5H7NO3/c7-2-5(9)4-1-6(4)3-8/h2-5,9H,1H2/t4-,5+,6?/m1/s1
