13
gdb 27031	3.10492	1.30193	0.9173	3.7265	72.21	-0.1885	0.0008	0.1894	1159.794	0.088644	-452.772239	-452.763796	-452.762851	-452.805142	31.164	
O	 0.3558167124	 1.2957653317	 0.045093327	-0.419652
C	 0.152070948	-0.0283150927	 0.0257329973	 0.30765
C	-0.9928814095	-0.7681995629	-0.0126968441	 0.08724
N	-0.5642527406	-2.1211798803	-0.0155441426	-0.442864
C	 0.807972401	-2.2219846793	 0.0201880065	 0.44343
O	 1.5115472499	-3.2082616261	 0.0289786816	-0.422173
N	 1.2278207205	-0.8770196687	 0.0452458087	-0.38072
C	-2.3164658109	-0.3207924955	-0.0438154693	 0.213934
C	-3.4540068421	 0.0854655793	-0.0704904029	-0.456656
H	-0.506298024	 1.7315900513	 0.0266915922	 0.318198
H	-1.1664238529	-2.9244022797	-0.0401782612	 0.274025
H	 2.195486691	-0.6058903853	 0.0752732198	 0.28257
H	-4.4549199629	 0.4385563482	-0.0937613429	 0.195017
112.726	120.6065	169.7723	247.2312	327.116	360.8523	394.6028	396.3304	437.6528	441.8307	519.867	547.8824	620.2072	671.5836	679.9604	713.3375	750.062	835.5304	989.0039	1103.4702	1210.6206	1250.2405	1288.3065	1324.743	1413.2473	1549.5982	1688.0766	1858.0801	2209.6265	3499.6721	3689.393	3701.9852	3786.9881
OC1=C(NC(=O)N1)C#C	Oc1c([nH]c(=O)[nH]1)C#C	
InChI=1S/C5H4N2O2/c1-2-3-4(8)7-5(9)6-3/h1,8H,(H2,6,7,9)	InChI=1S/C5H4N2O2/c1-2-3-4(8)7-5(9)6-3/h1,8H,(H2,6,7,9)
