18
gdb 69606	3.27756	1.22281	1.16034	4.5751	81.64	-0.2297	0.0174	0.2471	1140.2066	0.147545	-364.766282	-364.758245	-364.757301	-364.798558	31.631	
C	-0.0052328402	 1.5150366408	 0.0295092041	-0.493223
C	 0.0084660028	 0.0149998283	 0.0098464292	 0.352271
C	-0.9023846391	-0.8535774889	 0.8364789917	-0.360068
C	 0.5885815666	-0.969015277	 1.0130745927	-0.150606
C	 1.3034159327	-1.7460725499	-0.1340489574	 0.199882
C	 0.3762285804	-2.2212684659	-1.2354282533	-0.349518
C	 0.6940615584	-0.7636551833	-1.1522545038	-0.15103
C	 2.6549185866	-2.1755453157	-0.0391033168	 0.197906
N	 3.7579582465	-2.5179563018	 0.0552340881	-0.355106
H	 0.9849364428	 1.9258197948	-0.1990123263	 0.126713
H	-0.710442249	 1.9163355593	-0.708578951	 0.125227
H	-0.3039021146	 1.8898666729	 1.013248147	 0.12393
H	-1.3884820784	-0.3207125094	 1.6490435887	 0.121434
H	-1.5159090601	-1.6479267557	 0.4266497366	 0.117091
H	 1.08849582	-0.7666807314	 1.951110706	 0.107256
H	 0.887807567	-2.7461774838	-2.0357787089	 0.141493
H	-0.6003345978	-2.6278962055	-1.0024385846	 0.129491
H	 1.2364949251	-0.253826178	-1.938021852	 0.116857
105.8124	156.6416	210.0054	244.435	296.5752	363.6189	445.6383	465.5056	502.5666	548.263	588.702	618.1957	764.1827	799.9042	813.2883	865.2339	910.7897	949.7988	959.1529	984.7902	986.9305	1025.681	1034.0909	1068.352	1095.1455	1099.7943	1134.7092	1177.6941	1205.0747	1246.1108	1311.0451	1340.1018	1399.495	1423.5515	1480.748	1483.8325	1500.4215	1515.8109	2336.9523	3021.2706	3079.0621	3102.6324	3127.0578	3143.72	3199.4937	3201.6041	3206.5255	3224.6103
CC12CC1C1(CC21)C#N	C[C@]12C[C@H]1[C@]1(C[C@@H]21)C#N	
InChI=1S/C8H9N/c1-7-2-5(7)8(4-9)3-6(7)8/h5-6H,2-3H2,1H3	InChI=1S/C8H9N/c1-7-2-5(7)8(4-9)3-6(7)8/h5-6H,2-3H2,1H3/t5-,6+,7+,8+/m1/s1
