16
gdb 18105	4.50632	2.08363	1.5069	1.4075	74.3	-0.2149	-0.02	0.1949	821.3925	0.133005	-346.611321	-346.605183	-346.604239	-346.641437	24.429	
C	-0.0275373182	 1.4938970382	 0.0841565368	-0.112762
O	 1.3283143085	 1.9339710919	-0.0866404332	-0.27977
C	 2.0186605297	 0.8882855091	-0.745917324	 0.087407
C	 3.4534275219	 0.5346435378	-0.3039990064	-0.307613
C	 3.4230266789	-0.9845016703	-0.4041203304	-0.070051
C	 2.1708933151	-1.476263776	-0.4691855245	-0.189045
C	 1.2348658415	-0.3644549031	-0.4264057754	 0.331951
C	 0.0289462888	-0.0216591318	 0.023707396	-0.28887
H	-0.394879607	 1.867703685	 1.0481679796	 0.112993
H	-0.6721356935	 1.92493304	-0.7023711406	 0.098618
H	 2.0236875823	 1.0658227837	-1.8370865311	 0.075295
H	 4.2338500319	 0.9954061522	-0.916372503	 0.10764
H	 3.6188549142	 0.8499153506	 0.7353463496	 0.125125
H	 4.3231817931	-1.5880677587	-0.3620898767	 0.102383
H	 1.9039885392	-2.525635986	-0.4749012012	 0.104959
H	-0.7708601166	-0.6613161527	 0.3725279546	 0.101742
149.2774	204.7091	327.2775	392.2691	463.8934	625.0871	657.6611	711.2091	745.7481	792.8846	821.756	849.6025	933.0557	934.1134	967.7616	974.9403	1008.4739	1033.0546	1042.9121	1116.8494	1125.0408	1163.705	1193.0572	1204.6081	1254.592	1274.9132	1325.3949	1344.8738	1380.4184	1383.8036	1478.1722	1511.3389	1615.1943	1727.3808	2926.653	2945.7297	3023.3135	3037.7547	3084.2576	3190.3609	3218.0741	3221.4763
C1OC2CC=CC2=C1	C1O[C@H]2CC=C[C]2[CH]1	
InChI=1S/C7H8O/c1-2-6-4-5-8-7(6)3-1/h1-2,4,7H,3,5H2	InChI=1S/C7H8O/c1-2-6-4-5-8-7(6)3-1/h1-2,4,7H,3,5H2/t7-/m0/s1
