23
gdb 118587	1.72876	0.86454	0.60612	1.4867	79.45	-0.254	0.0706	0.3246	1862.772	0.203115	-462.538038	-462.526402	-462.525458	-462.576048	40.225	
C	-1.0216092467	 0.6449618369	-0.5175766856	-0.229095
O	-0.6132474944	-0.6787995805	-0.271112903	-0.235239
C	 0.1986945103	-0.8015400813	 0.8783741062	-0.067246
C	 0.6092477893	-2.265443452	 1.042433956	-0.027102
C	 1.48848617	-2.7067025602	-0.1400691593	-0.078583
O	 1.8095112917	-4.0909397818	-0.1068694953	-0.419716
C	 1.3190127315	-2.5192472935	 2.3827150031	-0.21966
C	 0.387340329	-2.5849501672	 3.5947968538	-0.063219
O	 1.0883960692	-2.789167305	 4.8110586353	-0.418482
H	-0.1627946073	 1.3135671252	-0.6877782976	 0.105167
H	-1.6442285233	 0.6348213232	-1.4155437661	 0.127393
H	-1.6110482812	 1.0528720802	 0.3190080894	 0.105033
H	 1.0984960648	-0.166873148	 0.7824912428	 0.08662
H	-0.348204232	-0.4463319161	 1.7669698004	 0.089921
H	-0.3144731511	-2.8632416519	 1.0067068874	 0.070488
H	 0.9989878767	-2.4297520292	-1.0817016056	 0.108373
H	 2.4500099259	-2.1804569858	-0.097723934	 0.104872
H	 1.003647045	-4.5814888048	-0.297489616	 0.281874
H	 1.85241635	-3.4741804865	 2.298400378	 0.104738
H	 2.0788296581	-1.746997696	 2.561489623	 0.099938
H	-0.1531107664	-1.6419452562	 3.728895509	 0.10942
H	-0.3723208737	-3.3684565044	 3.4340692388	 0.084088
H	 1.5826854444	-3.6111343849	 4.7272766195	 0.280421
64.2787	75.6979	81.5147	94.7956	108.3196	182.4165	200.9009	233.7735	255.4009	305.4632	315.4836	343.8719	361.8349	442.1686	506.9816	567.3646	780.2081	873.0318	909.0762	963.4989	994.326	1019.1032	1060.123	1080.1617	1100.4612	1116.4064	1132.2255	1159.6339	1180.5979	1185.5172	1204.1522	1238.054	1264.7496	1301.1797	1315.7801	1339.7681	1370.5827	1395.5535	1399.8799	1411.0854	1421.0845	1431.0446	1481.7154	1485.7749	1492.083	1502.8182	1509.1244	1516.508	1526.7766	2941.0336	2962.6956	2970.0714	2979.8223	2996.3186	3013.7441	3019.7719	3025.0286	3056.3479	3070.2258	3079.5013	3113.5204	3810.3988	3816.401
COCC(CO)CCO	COC[C@@H](CO)CCO	
InChI=1S/C6H14O3/c1-9-5-6(4-8)2-3-7/h6-8H,2-5H2,1H3	InChI=1S/C6H14O3/c1-9-5-6(4-8)2-3-7/h6-8H,2-5H2,1H3/t6-/m1/s1
