22
gdb 98891	4.05111	0.86092	0.82854	3.2855	84.09	-0.2407	0.0371	0.2779	1519.8566	0.195732	-404.404313	-404.394431	-404.393487	-404.441204	35.098	
C	 0.0239430923	 1.4900376817	-0.278507521	-0.333691
N	-0.0727542958	 0.0440477371	-0.2620011678	-0.318087
C	-1.0763356275	-0.6210247524	 0.3816301098	 0.403522
O	-1.9698769872	-0.0468202882	 0.9834311178	-0.389035
C	-0.9991016572	-2.1423857368	 0.3163399599	-0.076833
C	-0.7882334771	-2.7711851386	 1.7111916408	-0.200977
C	-1.2429950551	-4.2233305058	 1.5169156312	-0.204375
C	-2.497119573	-4.1062264185	 0.6222109956	-0.202264
C	-2.3257228374	-2.7813784848	-0.176259128	-0.211569
H	-0.0207877624	 1.882872791	-1.3006348392	 0.123292
H	-0.8237747323	 1.8754860785	 0.2891770198	 0.171923
H	 0.9538491326	 1.835042482	 0.1878357502	 0.123171
H	 0.6299610011	-0.4941678463	-0.739854078	 0.243416
H	-0.17424638	-2.4525133892	-0.3380636521	 0.050699
H	 0.2415745276	-2.6786111127	 2.069509993	 0.090066
H	-1.4406291471	-2.2540731656	 2.42363384	 0.122971
H	-0.4585117499	-4.7890492876	 0.9990220773	 0.092282
H	-1.4400309232	-4.738853466	 2.4613328045	 0.094744
H	-2.6144678646	-4.9739356015	-0.032720919	 0.094005
H	-3.3983978145	-4.0553188863	 1.2407796492	 0.105339
H	-3.1445339789	-2.091112957	 0.0388441688	 0.128289
H	-2.3094519304	-2.9447814729	-1.2573341931	 0.093111
26.6895	32.24	91.4444	123.9384	163.1836	233.9318	262.2078	325.3068	369.1339	469.3241	539.0638	616.4713	728.9117	755.7561	787.0712	841.9028	876.6703	900.9345	940.1036	945.291	977.988	1004.9377	1045.6556	1075.6147	1082.0824	1154.0397	1166.256	1182.4759	1202.3907	1219.3362	1232.8775	1284.7407	1292.5074	1315.1011	1329.8167	1337.8528	1348.7627	1389.5382	1437.3624	1487.3954	1491.6802	1493.2349	1496.2372	1501.0931	1517.0524	1557.5516	1769.1028	3011.3612	3025.2506	3028.8497	3046.0439	3050.4239	3063.096	3075.8701	3081.5699	3090.4293	3097.872	3116.3463	3153.6221	3653.6063
CNC(=O)C1CCCC1	CNC(=O)C1CCCC1	
InChI=1S/C7H13NO/c1-8-7(9)6-4-2-3-5-6/h6H,2-5H2,1H3,(H,8,9)	InChI=1S/C7H13NO/c1-8-7(9)6-4-2-3-5-6/h6H,2-5H2,1H3,(H,8,9)
