22
gdb 22523	2.05624	1.31145	1.0449	0.6933	86.01	-0.2406	0.0102	0.2508	1299.9855	0.191831	-404.308904	-404.298607	-404.297663	-404.344244	38.273	
C	-0.3103197876	 1.4039693394	 0.1035769841	-0.393422
C	 0.086283853	-0.070639217	-0.0141384629	-0.217423
C	 0.8208407304	-0.4480125514	-1.3173518654	 0.242785
C	 2.1282592599	 0.3245590831	-1.5011784858	-0.44618
C	 0.939776987	-2.0084732972	-1.4969317882	-0.278371
C	-0.1136880084	-1.9713607559	-2.647484233	-0.321758
C	-0.0965443186	-0.4630135367	-2.5381265242	 0.393185
N	-0.5723650126	 0.5045553497	-3.202741453	-0.249589
O	-1.3514518549	 0.0408620566	-4.2836361457	-0.392379
H	 0.5651957369	 2.0566535075	 0.1715515064	 0.115173
H	-0.8973575862	 1.7192825556	-0.7641320071	 0.139139
H	-0.9128691173	 1.5688645833	 1.0023176739	 0.108548
H	 0.730246636	-0.3557917046	 0.8290619021	 0.092951
H	-0.8148768594	-0.691710452	 0.067814378	 0.092557
H	 2.7922868001	 0.1661741179	-0.6433192364	 0.110108
H	 2.654305066	-0.0057494145	-2.402181374	 0.112452
H	 1.9471531078	 1.3979393771	-1.6016562655	 0.131736
H	 1.9310484247	-2.328325373	-1.8256177733	 0.103151
H	 0.6558303919	-2.5933307642	-0.6193555088	 0.100184
H	 0.2008731189	-2.3651766427	-3.617645562	 0.127049
H	-1.0815175388	-2.4198443751	-2.4029413039	 0.125851
H	-1.6257741687	 0.8640993141	-4.7014599154	 0.304254
44.8644	102.6502	127.2296	174.3237	216.2101	244.9882	259.3894	312.8934	323.4178	357.004	390.195	440.1381	506.7345	556.9516	648.8042	750.7794	768.5459	789.3735	872.9137	895.5161	939.7829	962.9262	977.718	1013.5338	1034.5953	1056.9089	1099.8493	1132.4099	1173.6371	1203.3839	1216.7723	1239.1877	1253.2091	1275.38	1332.2727	1363.7163	1398.888	1407.5224	1412.7439	1456.9287	1478.4291	1488.8147	1491.3152	1496.2267	1506.0194	1511.7238	1772.5116	3009.7104	3029.4196	3040.4753	3044.7093	3056.4009	3068.8102	3096.4762	3098.4465	3104.4947	3114.9444	3118.9119	3124.2493	3817.5197
CCC1(C)CCC1=NO	CC[C@@]1(C)CCC1=NO	
InChI=1S/C7H13NO/c1-3-7(2)5-4-6(7)8-9/h9H,3-5H2,1-2H3	InChI=1S/C7H13NO/c1-3-7(2)5-4-6(7)8-9/h9H,3-5H2,1-2H3/t7-/m0/s1
