15
gdb 6421	3.83134	1.55952	1.34912	2.6979	69.28	-0.2657	0.0137	0.2795	941.3807	0.11677	-362.632436	-362.624564	-362.62362	-362.664491	29.576	
C	-0.3076634452	 1.6717341169	-0.0482051389	-0.435559
C	-0.0083341163	 0.1796179396	-0.0782604625	 0.214034
C	 0.851181402	-0.3304476465	-1.274133645	-0.401147
C	 1.9043690803	-0.5763897545	-0.2193579368	 0.436732
N	 3.0774011907	-1.0156570114	-0.2319504427	-0.539992
O	 1.1237244586	-0.1356748442	 0.829554993	-0.273155
C	-1.1722006385	-0.6297672704	 0.243859138	 0.327891
C	-2.1466907815	-1.2865594643	 0.4936555199	-0.465294
H	 0.5970159665	 2.2399413181	-0.2807876152	 0.130164
H	-1.0807795506	 1.9147876936	-0.7827384442	 0.136609
H	-0.6655993426	 1.9655699454	 0.9415525871	 0.14428
H	 0.4792516853	-1.2280481361	-1.7677958675	 0.14828
H	 1.1045302373	 0.4270389851	-2.0175241312	 0.139446
H	 3.476587733	-1.0381944253	 0.7079974538	 0.229692
H	-3.003361579	-1.8725544459	 0.7204139322	 0.208021
79.0092	173.57	184.7943	231.0183	317.1646	382.1173	430.1893	490.369	510.9357	569.2128	614.3518	634.2154	676.355	787.2169	852.0063	866.4514	908.1267	947.5863	972.464	1019.4283	1079.5314	1108.9078	1186.3254	1236.3519	1272.1326	1292.3156	1407.2216	1460.6149	1480.1449	1488.5543	1830.4774	2239.659	3046.722	3092.7286	3125.4088	3131.8268	3153.9608	3477.2084	3499.615
CC1(CC(=N)O1)C#C	C[C@]1(C[C]([NH])O1)C#C	
InChI=1S/C6H7NO/c1-3-6(2)4-5(7)8-6/h1,7H,4H2,2H3	InChI=1S/C6H7NO/c1-3-6(2)4-5(7)8-6/h1,7H,4H2,2H3/t6-/m1/s1
