13
gdb 28991	3.10335	1.56424	1.04002	4.2958	75.05	-0.2579	-0.0684	0.1895	1044.515	0.091679	-415.682652	-415.675675	-415.674731	-415.71416	26.414	
O	 0.0755939782	 1.3420957825	-0.0577559111	-0.421114
C	 0.0515500893	-0.0030610633	-0.0210907039	 0.350947
C	 0.0342997798	-0.7127464913	-1.2234805446	-0.167334
C	 0.0096303817	-2.0957242346	-1.1735150361	-0.100218
C	 0.0027161131	-2.7392107381	 0.0694542464	-0.025433
N	 0.0188113317	-2.0832047696	 1.2226544854	-0.31022
C	 0.0426799818	-0.7452441186	 1.175688569	 0.101241
C	 0.0606036452	-0.0056321062	 2.4062436369	 0.226787
N	 0.0766207141	 0.6963632014	 3.3279166246	-0.346399
H	 0.0853371606	 1.6971231524	 0.843051817	 0.317567
H	 0.0406274908	-0.1660462112	-2.1591377496	 0.131288
H	-0.0042794158	-2.6795055365	-2.087141206	 0.120436
H	-0.0165327506	-3.8231086766	 0.1317514721	 0.122452
129.3251	141.0279	245.735	393.8194	410.2789	470.9212	479.9617	520.2051	564.4737	606.1187	623.0575	737.1663	793.5113	839.2148	872.2033	952.6201	998.8188	1070.3795	1121.6064	1172.8417	1258.2096	1287.956	1328.4908	1358.4346	1469.4714	1499.7013	1605.3945	1637.4521	2330.5892	3173.8775	3197.0596	3212.6055	3739.8896
OC1=CC=CN=C1C#N	Oc1cccnc1C#N	
InChI=1S/C6H4N2O/c7-4-5-6(9)2-1-3-8-5/h1-3,9H	InChI=1S/C6H4N2O/c7-4-5-6(9)2-1-3-8-5/h1-3,9H
