12
gdb 130575	3.74053	1.34764	0.99071	4.9452	69.74	-0.288	-0.0983	0.1897	1076.6789	0.079081	-431.706376	-431.699257	-431.698313	-431.738562	25.322	
O	 0.0437585157	-0.0413074379	 0.0039187077	-0.294371
C	-0.0349478876	 1.1593325076	 0.0076243527	 0.379493
C	 1.1468740004	 2.0274108983	 0.0014124404	 0.2581
N	 2.1494056359	 2.6007979083	-0.004287424	-0.309934
N	-1.2462292999	 1.8459873843	 0.0181350448	-0.044467
C	-2.5020212204	 1.2836028446	 0.0257046372	 0.008096
C	-3.3837877563	 2.3245847597	 0.0346951712	-0.239873
C	-2.5691284722	 3.4972420953	 0.0319958875	 0.022547
N	-1.2848612921	 3.2114363577	 0.0220042862	-0.23439
H	-2.6219349562	 0.2134141289	 0.0237679932	 0.176761
H	-4.4600721416	 2.2674764256	 0.0422289674	 0.134244
H	-2.8862527958	 4.5301325177	 0.0369843358	 0.143795
85.3721	140.454	156.5795	263.9726	321.6133	475.0294	509.6899	608.2415	660.7719	687.3864	764.7916	796.2286	885.1974	922.971	926.9537	933.6949	1036.6014	1060.6223	1114.7984	1237.9232	1281.8599	1382.1	1434.75	1458.6458	1586.5975	1802.1143	2357.9468	3248.7261	3273.4292	3297.4083
O=C(C#N)N1C=CC=N1	O=C(C#N)n1cccn1	
InChI=1S/C5H3N3O/c6-4-5(9)8-3-1-2-7-8/h1-3H	InChI=1S/C5H3N3O/c6-4-5(9)8-3-1-2-7-8/h1-3H
