18
gdb 63997	3.60853	1.00017	0.9412	5.166	80.43	-0.2617	-0.0412	0.2204	1289.2933	0.147167	-401.985678	-401.976912	-401.975967	-402.019089	33.328	
C	-0.1559766994	 1.5401495718	-0.0674669967	-0.440892
C	 0.0037451816	 0.0186230439	-0.0102338339	 0.397379
O	-1.2682840784	-0.6164821127	 0.030533372	-0.473212
C	 0.8932010319	-0.4909067238	-1.1907288886	-0.317596
C	 2.2419507648	-0.7063706502	-0.5699367215	-0.146689
C	 2.1834997163	-0.6619958334	 0.7688437337	 0.20354
C	 0.7748883896	-0.4132339537	 1.2664644532	-0.349481
C	 3.2837154798	-0.8577664757	 1.6474745686	 0.197274
N	 4.1615737584	-1.0089293791	 2.3883392087	-0.335812
H	 0.8187841508	 2.0379051738	-0.0431999163	 0.128672
H	-0.6602327899	 1.8441039242	-0.9930635284	 0.109056
H	-0.7488392029	 1.8919431385	 0.7816647898	 0.130033
H	-1.8134243924	-0.243844183	-0.6706161588	 0.278097
H	 0.4857193344	-1.4363476074	-1.5727712929	 0.128804
H	 0.9216824028	 0.2094098086	-2.0340820774	 0.10871
H	 3.142715774	-0.9010672715	-1.1399355066	 0.121696
H	 0.7304440835	 0.340816646	 2.0579343541	 0.120996
H	 0.332392465	-1.3318408761	 1.6675747811	 0.139423
60.8354	150.9078	161.6604	282.602	287.1032	319.4725	338.7272	382.2322	417.4179	446.362	508.097	570.3426	580.1346	635.2049	778.1128	856.1751	872.4225	916.9943	947.5254	965.6183	968.1872	1004.4527	1092.9047	1120.2782	1142.1676	1178.4945	1203.3479	1270.4189	1286.183	1299.5403	1337.6521	1386.2915	1405.5123	1469.6452	1482.1108	1493.3891	1499.2481	1675.6847	2337.6115	3019.9922	3025.2872	3047.8266	3057.0688	3088.5647	3094.2194	3117.5865	3208.717	3808.4927
CC1(O)CC=C(C1)C#N	C[C@@]1(O)CC=C(C1)C#N	
InChI=1S/C7H9NO/c1-7(9)3-2-6(4-7)5-8/h2,9H,3-4H2,1H3	InChI=1S/C7H9NO/c1-7(9)3-2-6(4-7)5-8/h2,9H,3-4H2,1H3/t7-/m1/s1
