18
gdb 81045	2.51772	1.51558	1.20218	2.3702	73.28	-0.2416	-0.0251	0.2166	1081.2116	0.146989	-439.033812	-439.025414	-439.02447	-439.067117	31.901	
C	 0.1389800338	 0.9517306862	-0.9295596475	-0.495567
C	-0.0911391543	 0.0663522984	 0.2751560089	 0.234304
O	 0.66787845	 0.001624605	 1.2167389355	-0.29786
C	-1.3115882	-0.8053953859	 0.2168857518	 0.231221
C	-1.9846001191	-1.6303225125	 1.33240322	-0.279064
C	-2.8499844118	-1.8104117257	 0.0609383291	-0.084935
N	-2.6787446808	-0.3339553367	-0.2904663681	-0.403774
C	-1.5429539042	-2.0410346846	-0.7493565839	 0.171673
O	-1.5430896638	-1.8266661203	-2.1154192349	-0.439289
H	 1.0892113372	 1.4777746051	-0.8323271061	 0.13873
H	 0.1294517996	 0.3367073142	-1.8371315485	 0.154382
H	-0.6809817772	 1.6709322921	-1.0324774131	 0.145663
H	-1.4471461091	-2.4984394664	 1.7235879201	 0.111549
H	-2.4408269243	-1.0433097815	 2.1326101519	 0.106606
H	-3.8143781429	-2.308316335	-0.0482585079	 0.092476
H	-3.1248996206	 0.2450483811	 0.4268221859	 0.216537
H	-0.9633141532	-2.936888869	-0.5257863978	 0.103078
H	-2.1126012393	-1.0519286745	-2.2463478358	 0.29427
57.9483	135.7923	160.9338	179.9548	311.4493	342.79	353.2404	484.0654	524.2937	570.1706	611.2838	627.7751	688.7375	755.8654	818.8942	881.0182	899.2244	921.186	941.9739	1021.6672	1033.878	1047.0552	1075.2528	1104.1681	1131.7252	1157.9373	1182.9015	1191.9235	1220.1214	1235.9583	1279.1738	1324.738	1349.6986	1386.9634	1450.5128	1462.1041	1469.0575	1511.0713	1799.4858	3035.7068	3058.0315	3097.9281	3108.5543	3126.0196	3130.5933	3155.1575	3401.4623	3705.0505
CC(=O)C12CC(N1)C2O	CC(=O)[C@@]12C[C@@H](N1)[C@H]2O	
InChI=1S/C6H9NO2/c1-3(8)6-2-4(7-6)5(6)9/h4-5,7,9H,2H2,1H3	InChI=1S/C6H9NO2/c1-3(8)6-2-4(7-6)5(6)9/h4-5,7,9H,2H2,1H3/t4-,5-,6-/m1/s1
