21
gdb 119682	4.32462	0.91533	0.90007	1.8289	81.97	-0.2239	0.0793	0.3032	1413.8059	0.182297	-387.02712	-387.018652	-387.017708	-387.060703	32.67	
C	-0.0658973188	 1.5734118176	 0.1112494125	-0.381988
C	-0.03090259	 0.0443368109	 0.16601057	-0.156459
C	-1.3855800945	-0.5990269924	-0.1689769537	-0.321555
C	-1.3565362695	-2.0992499156	-0.1235977595	 0.316939
C	-0.5878885345	-3.0721646691	-1.0271927993	-0.285483
C	-1.4404055698	-4.1744097642	-0.3523170565	 0.068782
O	-0.9579176865	-4.187310988	 1.0230009524	-0.297888
C	-1.5976416111	-2.9194573924	 1.1620610849	 0.057877
C	-2.5215662713	-3.0860540737	 0.0041492357	-0.214652
H	 0.9123347944	 2.0034386526	 0.3474556785	 0.1126
H	-0.3537348125	 1.9281306705	-0.884830668	 0.113706
H	-0.7895204895	 1.9798267243	 0.8269174399	 0.113
H	 0.7276103523	-0.3312100949	-0.5323265693	 0.101617
H	 0.2857565093	-0.2861194262	 1.1629910449	 0.100924
H	-2.1473410639	-0.2303883465	 0.5326239074	 0.093518
H	-1.7094609849	-0.2650921688	-1.165086621	 0.095871
H	-0.8607975804	-2.9330895947	-2.0773561544	 0.0991
H	 0.4977469495	-3.1664219674	-0.9194445438	 0.098513
H	-1.5845304712	-5.167249004	-0.7728633879	 0.08573
H	-1.7285882484	-2.4978384638	 2.1504683561	 0.103821
H	-3.5910890989	-2.9949792943	-0.1281594988	 0.096025
79.9943	82.6348	114.2887	246.313	288.587	311.1993	344.405	456.4149	531.271	674.3443	737.0948	759.2906	772.8539	806.6967	819.2166	868.8591	894.4441	915.2839	920.4728	948.9466	976.555	1001.7311	1038.6962	1040.0786	1048.7183	1078.5212	1116.0753	1148.1079	1158.3426	1172.1037	1203.2039	1235.2505	1257.5987	1294.6115	1310.0239	1314.9308	1336.4345	1383.5704	1412.2596	1415.7289	1480.7931	1488.019	1493.1447	1500.5679	1510.2399	2998.5096	3024.6104	3026.7303	3029.1644	3041.4663	3059.2967	3095.4423	3102.3409	3102.9354	3144.7232	3196.0973	3210.0976
CCCC12CC3OC1C23	CCC[C@@]12C[C@H]3O[C@@H]1[C@@H]23	
InChI=1S/C8H12O/c1-2-3-8-4-5-6(8)7(8)9-5/h5-7H,2-4H2,1H3	InChI=1S/C8H12O/c1-2-3-8-4-5-6(8)7(8)9-5/h5-7H,2-4H2,1H3/t5-,6+,7-,8+/m1/s1
