15
gdb 75649	2.32093	1.6331	1.28	3.0701	69.17	-0.2482	-0.0744	0.1738	1009.96	0.112182	-457.800357	-457.792345	-457.791401	-457.833274	29.572	
O	-0.6103652241	 1.1220739327	 0.7315040897	-0.436786
C	-0.2730798296	-0.0943217911	 0.0630344386	-0.071255
C	 0.3620104406	-1.0342531824	 1.1121627693	 0.343101
O	 1.5644941228	-1.0378086521	 1.2761562495	-0.331782
C	-0.5733884581	-1.8186380078	 1.9365036129	-0.143593
C	-1.8968770244	-1.8105510255	 1.7235115553	-0.052632
C	-2.5748452099	-1.0196327498	 0.6368212992	-0.354852
C	-1.5815301759	-0.6745299012	-0.4635563363	 0.389133
O	-1.7771640627	-0.892945416	-1.631115479	-0.300731
H	 0.1969121482	 1.4548197919	 1.1416251875	 0.303176
H	 0.4279894239	 0.0626205209	-0.7632538556	 0.107674
H	-0.1273500256	-2.4084126144	 2.7305115068	 0.119014
H	-2.5446175289	-2.4098149412	 2.358230486	 0.125592
H	-3.4189418105	-1.564538606	 0.206598391	 0.137699
H	-2.9613716458	-0.082810888	 1.061703565	 0.166241
66.4435	109.2257	209.9651	230.0256	335.1462	359.1168	389.1966	450.7976	508.0505	530.8706	609.537	658.0721	702.2394	806.5197	863.9457	937.1521	955.8102	961.7425	1020.7593	1059.0215	1096.8185	1164.2765	1205.5132	1231.7342	1273.1194	1305.082	1320.6316	1399.297	1402.5185	1440.3052	1671.3911	1773.585	1843.3274	3027.6673	3065.6545	3103.7543	3164.7457	3196.1554	3793.081
OC1C(=O)C2C3CC12O3	O[C@H]1C(=O)C=CCC1=O	
InChI=1S/C6H6O3/c7-4-3-2-1-6(3,9-2)5(4)8/h2-3,5,8H,1H2	InChI=1S/C6H6O3/c7-4-2-1-3-5(8)6(4)9/h1-2,6,9H,3H2/t6-/m0/s1
