16
gdb 24284	4.12027	1.52381	1.21223	0.7412	74.18	-0.2197	0.0123	0.2319	985.1987	0.127861	-400.742489	-400.736227	-400.735283	-400.772991	25.735	
C	 0.0577859945	 1.4807866607	-0.0253417174	-0.23983
C	 1.3177541798	 0.6810126928	 0.0125257358	-0.195381
N	-0.0235154123	 0.0193816477	-0.002622642	-0.102315
C	-0.2315340405	-0.6068422959	-1.3413403259	-0.302282
C	 1.0093284229	-0.2859239808	-2.1321877449	 0.195756
C	 1.6197956128	-0.4663525187	-3.327479384	-0.160031
O	 2.8707948993	 0.0852950504	-3.2911444868	-0.153641
C	 3.0499501517	 0.6296314742	-2.049275275	-0.180885
C	 1.9351226855	 0.4303681007	-1.3064767156	 0.275438
H	-0.3050425591	 1.9696684825	 0.8751096168	 0.118253
H	-0.1660102279	 2.0036681925	-0.9535102499	 0.115014
H	 1.8929124662	 0.5968162736	 0.9289557443	 0.102745
H	-0.3594748632	-1.6853005376	-1.1954693255	 0.125565
H	-1.1565304847	-0.2257266021	-1.7876585564	 0.121716
H	 1.3526405444	-0.9426843211	-4.2559236859	 0.139438
H	 4.0023798808	 1.1038360613	-1.8832970376	 0.14044
156.8039	229.9067	361.2928	433.737	440.7004	600.5513	603.8856	682.9147	694.4689	738.3642	741.7137	766.4597	796.9402	840.4886	927.0508	963.0195	1009.2769	1025.5175	1055.7878	1072.4426	1111.9254	1140.4684	1149.5555	1153.2868	1216.11	1245.6966	1256.8026	1290.8348	1311.6085	1334.5409	1405.7934	1491.503	1501.5041	1602.0988	1671.4112	3035.4549	3069.4996	3093.9293	3160.0575	3183.0861	3276.2372	3281.7025
C1C2N1CC1=COC=C21	C1[C@H]2N1Cc1cocc21	
InChI=1S/C7H7NO/c1-5-3-9-4-6(5)7-2-8(1)7/h3-4,7H,1-2H2	InChI=1S/C7H7NO/c1-5-3-9-4-6(5)7-2-8(1)7/h3-4,7H,1-2H2/t7-,8?/m1/s1
