18
gdb 77281	2.39075	1.14051	0.91414	4.7172	74.59	-0.2535	-0.0382	0.2154	1310.6648	0.144595	-439.08674	-439.076977	-439.076033	-439.122687	33.498	
C	 0.1029122078	 1.4190000711	 0.4538392089	-0.409016
C	-0.1174786869	-0.0377646336	 0.1192287257	-0.015479
C	 0.3123134278	-0.6769428748	-1.1855551059	-0.045728
C	 1.0093034445	 0.0900290165	-2.295674301	-0.306986
C	 1.8308114581	-0.8357860019	-3.1758437943	 0.164197
O	 3.005094834	-0.7020535286	-3.3965131817	-0.227845
N	 0.9833591236	-0.9748743273	 0.0638833189	-0.066091
C	 2.2958383132	-0.76472325	 0.4324770687	 0.134056
O	 2.6411832747	-0.2049568372	 1.4461986267	-0.30267
H	 0.9641040808	 1.8436477206	-0.0648200463	 0.132211
H	-0.7859570663	 1.9995945736	 0.1872351951	 0.122901
H	 0.2821266463	 1.530338283	 1.5260873143	 0.156131
H	-1.0156267075	-0.4604975626	 0.5695680128	 0.107261
H	-0.3119565453	-1.4935309014	-1.5513014761	 0.10602
H	 0.2390579643	 0.5505225654	-2.9314041402	 0.132955
H	 1.664034493	 0.8764571157	-1.9158960995	 0.136424
H	 1.2537523675	-1.680769057	-3.6188006243	 0.081823
H	 3.0052567205	-1.2364207013	-0.2737260017	 0.099837
41.7826	68.3102	117.4351	140.974	152.3029	178.8505	256.9288	277.2746	386.4393	457.1424	500.0665	531.2963	628.3611	752.6563	813.3798	835.5002	930.5561	993.2118	1027.1946	1034.8785	1071.6693	1082.0606	1120.3453	1163.1897	1173.7839	1191.0438	1215.5837	1284.9835	1382.4753	1395.111	1416.6142	1427.5954	1430.8066	1451.4876	1458.1697	1485.4666	1495.1052	1788.8683	1839.3407	2864.1635	2958.8049	3015.8363	3050.6695	3091.2488	3105.9841	3119.7098	3122.8829	3142.3347
CC1C(CC=O)N1C=O	C[C@H]1[C@@H](CC=O)N1C=O	
InChI=1S/C6H9NO2/c1-5-6(2-3-8)7(5)4-9/h3-6H,2H2,1H3	InChI=1S/C6H9NO2/c1-5-6(2-3-8)7(5)4-9/h3-6H,2H2,1H3/t5-,6+,7?/m0/s1
