14
gdb 130978	5.31095	0.84224	0.78022	2.2184	65.38	-0.243	-0.0467	0.1963	1382.5979	0.100594	-470.006548	-469.998319	-469.997375	-470.041699	27.99	
O	-0.2719015455	 0.7299608375	 0.7328806519	-0.218887
C	 0.3352406758	 1.6295325113	 0.2202954045	 0.151502
C	 1.3810717655	 1.4213959917	-0.8767387332	-0.262341
N	 1.5104810331	 2.5531266947	-1.7688073645	-0.399242
C	 2.372819539	 3.573983528	-1.5823960626	 0.556466
N	 2.4829344385	 4.6581524493	-2.309782604	-0.375823
C	 3.5134270641	 5.2925861556	-1.6714808528	 0.056515
N	 4.0226162178	 4.6899310458	-0.633796241	-0.136762
O	 3.2357887275	 3.4997793171	-0.5634381085	-0.221383
H	 0.1833651684	 2.6941388454	 0.5098066274	 0.096747
H	 2.3465073561	 1.2433298005	-0.390237819	 0.177871
H	 1.1268018922	 0.5193294445	-1.4395079447	 0.150508
H	 0.8382266504	 2.6887417606	-2.5059379798	 0.27856
H	 3.9039320573	 6.2480181078	-1.9934709838	 0.146269
27.5092	46.5192	80.4917	221.2783	262.7642	348.9438	409.6354	432.2123	565.7581	629.771	711.8242	761.3429	768.479	876.3854	940.9528	975.131	1003.7074	1032.7377	1070.7345	1137.9365	1204.9596	1263.4703	1279.6208	1333.4752	1385.5089	1409.3286	1439.0847	1465.9835	1576.9446	1682.6404	1844.6173	2884.755	3058.1856	3113.95	3252.1705	3656.8047
O=CCNC1=NC=NO1	O=CCNc1ncno1	
InChI=1S/C4H5N3O2/c8-2-1-5-4-6-3-7-9-4/h2-3H,1H2,(H,5,6,7)	InChI=1S/C4H5N3O2/c8-2-1-5-4-6-3-7-9-4/h2-3H,1H2,(H,5,6,7)
