17
gdb 42817	3.06811	1.50755	1.34195	4.0712	72.11	-0.2385	-0.0092	0.2293	995.4752	0.136888	-421.805463	-421.798415	-421.797471	-421.836921	28.198	
O	 0.0615339615	 0.0117245922	-0.0211589583	-0.316205
C	 0.0151346197	 1.2025406379	-0.0583015747	 0.439123
C	-1.081496146	 2.284884378	 0.0319891711	-0.147706
C	-0.0563777348	 2.9856092504	 0.9879228077	-0.253492
C	 1.0300242179	 2.3687977736	 0.0370040097	-0.229306
C	 0.7046139593	 3.104303483	-1.2593664103	 0.488163
C	 1.5470597279	 4.1222862968	-1.8869834974	-0.280583
O	 1.4341125592	 2.7998177985	-2.437475229	-0.285974
C	-0.8424037393	 3.058858072	-1.2867929844	-0.31378
H	-2.1041162434	 2.0569699277	 0.3232383102	 0.090868
H	-0.0985627401	 4.076628028	 1.0237792034	 0.112007
H	-0.0352082011	 2.5627515376	 1.9930966926	 0.124797
H	 2.0740990644	 2.2367669103	 0.308655578	 0.092433
H	 1.0881562032	 4.9134827996	-2.4793590256	 0.116586
H	 2.5185822528	 4.3672436869	-1.4590436	 0.117521
H	-1.2001193274	 2.5277688124	-2.1724412972	 0.132393
H	-1.2985746938	 4.0528201053	-1.2651040656	 0.113154
103.2008	173.7418	271.9075	350.4636	403.2429	448.1302	477.3854	523.5731	633.2519	731.4653	779.4217	816.5064	824.7084	867.3048	893.4602	935.6248	952.1751	977.7747	1007.0399	1017.9859	1029.8235	1086.8443	1105.8111	1121.9112	1153.5637	1166.4543	1193.0709	1197.1568	1222.7781	1239.6338	1270.4821	1303.7668	1434.5546	1486.6486	1504.0446	1534.786	1909.2484	3057.7087	3072.5694	3076.9919	3111.4686	3141.6003	3151.8456	3161.3953	3164.2906
O=C1C2CC1C1(CO1)C2	O=C1[C@H]2C[C@@H]1[C@]1(CO1)C2	
InChI=1S/C7H8O2/c8-6-4-1-5(6)7(2-4)3-9-7/h4-5H,1-3H2	InChI=1S/C7H8O2/c8-6-4-1-5(6)7(2-4)3-9-7/h4-5H,1-3H2/t4-,5-,7+/m0/s1
