23
gdb 88437	2.57575	1.18958	1.06659	0.7767	86.23	-0.2228	0.076	0.2987	1293.5054	0.204363	-384.413734	-384.403558	-384.402614	-384.448702	38.189	
C	 1.4902083197	 1.8824751159	 1.8489037935	-0.403862
C	 1.1003249821	 0.4255953922	 1.761571507	-0.014431
N	 1.6449428149	-0.4944900879	 2.770008395	-0.385111
C	 0.179137483	-0.2848303628	 2.7083147727	 0.302308
C	-0.379788378	 0.402304954	 3.9399144752	-0.463937
C	-0.6209854452	-1.4212200357	 2.0962830544	-0.067446
C	-2.0009053173	-1.7916834523	 2.5264833244	-0.261621
N	-1.7689618899	-1.2455183991	 1.1962825545	-0.083307
C	-2.2633247648	 0.0926904243	 0.91108819	-0.316983
H	 1.5502701268	 2.2234820568	 2.8839665669	 0.126146
H	 2.472957861	 2.0393370926	 1.3909729488	 0.121375
H	 0.7681007507	 2.511147732	 1.3163487597	 0.115277
H	 1.0617879333	 0.0470729062	 0.7396397774	 0.083548
H	 1.8978332001	-1.3834255024	 2.3445081699	 0.224566
H	 0.3539014535	 1.0947233705	 4.3549376671	 0.129083
H	-1.2973015592	 0.9600931271	 3.7277103931	 0.11729
H	-0.6092892527	-0.3375262095	 4.7137988658	 0.122449
H	 0.0214007573	-2.2360486252	 1.7581456913	 0.083018
H	-2.3075269941	-2.8341270808	 2.5726768812	 0.112223
H	-2.4822812277	-1.1505252849	 3.2629441727	 0.108292
H	-2.2592337861	 0.781293955	 1.769196753	 0.105127
H	-1.6608224104	 0.5396186629	 0.113974342	 0.122607
H	-3.2933157269	 0.0118808412	 0.5490770942	 0.123389
47.2307	122.5744	170.5737	181.3766	193.4791	222.5001	244.343	286.0874	354.0445	362.0329	421.6688	469.2388	485.5439	553.1445	686.0557	751.9145	793.6976	843.7742	888.75	934.0905	970.7522	1001.2319	1029.4589	1039.9497	1079.4023	1093.8555	1105.4	1114.1683	1131.4212	1136.6371	1149.4805	1171.1254	1206.5771	1239.0079	1287.2299	1330.686	1364.6818	1386.304	1411.4715	1423.3249	1451.289	1453.665	1479.9236	1486.9403	1491.2209	1497.1407	1498.3874	1511.9081	1517.8545	2992.0384	3035.7738	3040.6242	3068.8448	3079.0941	3093.1543	3093.7149	3095.3611	3100.1887	3100.4949	3131.5882	3141.9678	3173.0834	3486.3203
CC1NC1(C)C1CN1C	C[C@H]1N[C@]1(C)[C@H]1CN1C	
InChI=1S/C7H14N2/c1-5-7(2,8-5)6-4-9(6)3/h5-6,8H,4H2,1-3H3	InChI=1S/C7H14N2/c1-5-7(2,8-5)6-4-9(6)3/h5-6,8H,4H2,1-3H3/t5-,6-,7+,9?/m1/s1
