15
gdb 42457	7.41461	0.65587	0.60705	1.7759	74.75	-0.2695	0.0036	0.2731	1728.4793	0.108015	-420.581549	-420.571717	-420.570772	-420.618257	33.812	
O	-0.1058748198	-0.2163254586	 0.0025253674	-0.33259
C	-0.0694121081	 0.9833199483	 0.0050845001	 0.475448
C	 1.1803326561	 1.8614427883	 0.0005939737	-0.505511
C	 2.4263924542	 1.1151164972	-0.0151824189	 0.3335
C	 3.4692000947	 0.5214838526	-0.0282155559	-0.432063
O	-1.1622510864	 1.7761691394	 0.0132611623	-0.2432
C	-2.420092609	 1.066347471	 0.0195565343	-0.229965
C	-3.5018981053	 2.0347110861	 0.0300585667	 0.28593
C	-4.419756986	 2.8082622554	 0.0388467211	-0.409771
H	 1.1098315211	 2.5305893653	-0.8657886204	 0.167646
H	 1.1245008109	 2.5175481035	 0.8780455753	 0.167731
H	 4.3849880427	-0.0158036715	-0.0396864081	 0.202284
H	-2.4715313832	 0.4195947274	-0.8628044273	 0.156433
H	-2.4595031295	 0.4137931443	 0.8982448261	 0.156457
H	-5.2306292324	 3.4943210911	 0.0467879835	 0.20767
20.2043	41.8349	89.586	153.8536	156.1616	270.2483	323.3971	327.7472	340.7176	419.1405	538.4603	579.2902	620.5517	633.5185	661.3942	688.5492	728.5655	907.8161	956.8162	968.4958	1002.914	1014.2785	1042.1167	1190.3424	1219.4654	1248.9971	1348.7774	1399.7505	1440.9692	1487.6731	1838.3534	2252.2025	2255.3357	3036.7437	3047.6068	3066.1344	3082.7492	3505.2623	3507.0427
O=C(CC#C)OCC#C	O=C(CC#C)OCC#C	
InChI=1S/C7H6O2/c1-3-5-7(8)9-6-4-2/h1-2H,5-6H2	InChI=1S/C7H6O2/c1-3-5-7(8)9-6-4-2/h1-2H,5-6H2
