12
gdb 133318	2.38664	1.83671	1.03858	2.6829	61.32	-0.2409	-0.0419	0.199	1006.2977	0.077014	-518.065488	-518.058319	-518.057375	-518.097064	27.107	
N	-0.0117737846	 1.3669016073	-0.1423727808	-0.562532
C	-0.0029461193	-0.0002473623	-0.056387589	 0.309066
C	-1.2104386188	-0.7208979901	-0.0328145125	 0.09549
F	-2.3746070677	-0.0722626257	-0.0309772168	-0.056264
C	-1.1314643736	-2.0896116835	-0.0028079855	 0.165445
F	-2.2260625298	-2.8353639841	 0.0236445328	-0.044171
C	 0.1411790829	-2.6701230884	 0.0004526109	-0.107784
N	 1.2498057494	-1.9439748162	-0.013460767	-0.196887
N	 1.184487236	-0.6176382721	-0.03571803	-0.27758
H	 0.8703620047	 1.8054078079	 0.0748043543	 0.270498
H	-0.8375050392	 1.8471829703	 0.1757757595	 0.267054
H	 0.2494812999	-3.7490065131	 0.0209576842	 0.137663
142.5126	244.063	266.0661	292.3379	311.6777	399.3574	483.3634	492.7553	539.0961	580.5855	586.5789	642.3018	708.7679	779.5729	874.4634	894.8783	1032.7574	1127.2448	1173.0637	1249.6815	1292.3179	1348.6695	1429.2362	1527.0882	1594.5857	1624.8913	1674.3949	3195.4849	3587.9315	3709.5526
NC1=C(F)C(F)=CN=N1	Nc1c(F)c(F)cnn1	
InChI=1S/C4H3F2N3/c5-2-1-8-9-4(7)3(2)6/h1H,(H2,7,9)	InChI=1S/C4H3F2N3/c5-2-1-8-9-4(7)3(2)6/h1H,(H2,7,9)
