15
gdb 48640	3.39683	1.5627	1.42843	4.185	68.84	-0.2345	-0.0327	0.2018	929.4175	0.111992	-420.593332	-420.586457	-420.585513	-420.624594	27.429	
O	-0.0250273266	-0.0464155256	-0.0262938799	-0.229838
C	 0.0259100642	 1.1519856399	 0.0096754144	 0.053823
C	 1.2874915562	 1.9678714479	-0.0027473934	 0.236715
O	 2.4877707486	 1.2032583547	-0.0636848394	-0.242971
C	 3.3672029665	 2.3393606463	-0.0539832558	-0.058878
C	 2.8004936499	 3.1314693733	-1.260781593	-0.07689
C	 1.4915104109	 2.9130984994	-1.2303223531	-0.128764
C	 2.8762173055	 3.0515883488	 1.2331679745	-0.076923
C	 1.5674282464	 2.8328572116	 1.2684230674	-0.128728
H	-0.8949042192	 1.7805983182	 0.0571213902	 0.076442
H	 4.4113637004	 2.0357449787	-0.095404134	 0.091158
H	 3.3765072851	 3.7646219091	-1.9198059584	 0.120183
H	 0.7003462593	 3.3110265771	-1.8484423703	 0.122236
H	 3.4923920895	 3.6423856127	 1.8951925764	 0.120186
H	 0.8159577934	 3.1886595479	 1.9576612544	 0.122248
92.7549	189.5382	262.0901	389.1817	446.6237	478.8001	542.8658	621.9315	674.352	709.6091	729.3458	737.4282	823.64	846.2654	848.6704	885.6712	894.9292	903.992	925.1262	993.9363	1035.2168	1055.2199	1074.3705	1110.188	1220.3665	1266.538	1284.7325	1293.0077	1304.1823	1425.3417	1611.2916	1657.4846	1849.7618	2852.133	3145.3819	3230.2877	3231.3359	3256.6353	3258.3737
O=CC12OC(C=C1)C=C2	O=C[C@@]12O[C@@H](C=C1)C=C2	
InChI=1S/C7H6O2/c8-5-7-3-1-6(9-7)2-4-7/h1-6H	InChI=1S/C7H6O2/c8-5-7-3-1-6(9-7)2-4-7/h1-6H/t6-,7+
