18
gdb 90754	2.65886	1.60153	1.35618	2.1784	71.87	-0.2613	0.0164	0.2777	1005.7635	0.14971	-439.090106	-439.08246	-439.081516	-439.122616	29.802	
O	 0.3489913382	 1.2334600376	-0.4460674466	-0.428403
C	 0.094168415	-0.0959313153	-0.0580166512	 0.126609
C	 0.2666768146	-0.4362733393	 1.4510051502	-0.263491
C	-1.2739943251	-0.6388091585	 1.5775538939	-0.110795
C	-1.4166483842	-0.5213270241	 0.0336774574	-0.074774
C	-2.4294804174	 0.5944173087	-0.1804413614	-0.12153
O	-2.4252473736	 1.3591438458	 1.0444566561	-0.253747
C	-1.9872574998	 0.588906917	 2.0963277763	 0.389892
N	-2.1218082346	 0.9024707818	 3.3110565108	-0.536296
H	-0.0947006491	 1.8260415318	 0.1725799786	 0.290753
H	 0.6874110932	-0.7135581215	-0.7357410575	 0.094509
H	 0.8308030076	-1.3558567738	 1.6225351459	 0.112216
H	 0.6964300837	 0.3561698919	 2.0688753308	 0.120125
H	-1.6099424	-1.5388584592	 2.0904920519	 0.103053
H	-1.6608564359	-1.4301406583	-0.5168576597	 0.082374
H	-2.1571451706	 1.2710329757	-0.9934705694	 0.132217
H	-3.4410073952	 0.2086303653	-0.352152471	 0.114509
H	-2.6335584965	 1.7820053344	 3.4020227347	 0.222779
58.8543	121.2255	231.6845	272.4768	379.3318	406.6708	429.908	518.6158	570.4225	681.7244	715.9224	753.297	787.9637	814.739	892.7045	900.3016	924.1096	958.4833	979.1173	1013.0542	1032.9637	1046.6251	1079.4038	1111.9663	1146.4731	1168.8581	1217.7165	1249.4928	1253.5845	1262.0011	1277.8683	1285.7536	1319.0346	1336.4504	1399.8218	1440.8321	1475.8172	1513.49	1773.3683	3037.5387	3065.1209	3085.1982	3108.6985	3111.5598	3119.087	3128.7679	3470.0261	3787.1037
OC1CC2C1COC2=N	O[C@H]1C[C@@H]2[C@H]1CO[C]2[NH]	
InChI=1S/C6H9NO2/c7-6-3-1-5(8)4(3)2-9-6/h3-5,7-8H,1-2H2	InChI=1S/C6H9NO2/c7-6-3-1-5(8)4(3)2-9-6/h3-5,7-8H,1-2H2/t3-,4-,5+/m1/s1
