25
gdb 120736	3.22428	0.76073	0.68564	1.4501	90.14	-0.2566	0.0766	0.3332	1802.3707	0.227387	-389.486355	-389.475358	-389.474414	-389.523096	40.657	
C	 0.1476859017	 1.5374196505	 0.149435799	-0.380385
C	 0.0086258849	 0.0147405693	 0.2262869687	-0.155917
C	-1.3558760083	-0.48765266	-0.2648513128	-0.202598
C	-1.4791927543	-1.9977384034	-0.2133498638	-0.006808
C	-1.8910975421	-2.7078647921	 1.0560492276	-0.30802
C	-2.8087939625	-2.7121651339	-0.1469600099	-0.029621
C	-4.1612450847	-1.9979391812	-0.1396904082	 0.104545
C	-5.3156731168	-3.0023539451	-0.0837310705	-0.403601
O	-4.286866461	-1.0318881286	 0.9022097341	-0.417699
H	 1.1278797655	 1.8697376786	 0.5060733559	 0.10714
H	 0.0295978611	 1.8944326664	-0.879946627	 0.111165
H	-0.6153030255	 2.0350902696	 0.7584127147	 0.114571
H	 0.8050176996	-0.4566157128	-0.3655196354	 0.087823
H	 0.1636181889	-0.3191315405	 1.2603461375	 0.094538
H	-2.1555817101	-0.0341498867	 0.3291007071	 0.121846
H	-1.5099402018	-0.1471607385	-1.2991711111	 0.085828
H	-0.7233603169	-2.514498671	-0.8025436258	 0.074966
H	-1.3949191618	-3.6293812834	 1.3404937958	 0.105423
H	-2.1659043276	-2.0737804498	 1.8933908247	 0.102178
H	-2.8456055631	-3.6500628169	-0.6961173628	 0.078378
H	-4.255792719	-1.4066757607	-1.0592273784	 0.091896
H	-5.2372497907	-3.6314042295	 0.8118607908	 0.109951
H	-6.2732497525	-2.4754709971	-0.0544714897	 0.120948
H	-5.3086402812	-3.6643631327	-0.9555883631	 0.116258
H	-4.305768802	-1.5132218405	 1.7369302125	 0.277194
42.6513	76.3115	85.6431	114.5644	211.8165	244.6418	250.0331	263.9052	294.2987	333.8825	337.4199	414.3487	437.917	563.6358	590.0178	742.2997	753.456	813.1684	855.2825	870.0152	900.0224	911.6391	961.3996	983.8463	1022.3597	1051.283	1058.1526	1067.8398	1074.7928	1108.9198	1126.8233	1146.5326	1177.4458	1200.1647	1241.7644	1273.9274	1296.1672	1306.9753	1328.988	1335.2881	1382.1116	1395.8391	1404.5152	1410.9669	1421.3738	1431.4512	1484.4269	1490.0683	1493.1837	1495.453	1499.3984	1500.5874	1513.3072	3002.9351	3013.4472	3023.9818	3028.1476	3030.8169	3044.2905	3083.7745	3094.8723	3095.4859	3098.9531	3114.4189	3118.1545	3126.7646	3133.9348	3210.3779	3798.8731
CCCC1CC1C(C)O	CCC[C@H]1C[C@H]1[C@@H](C)O	
InChI=1S/C8H16O/c1-3-4-7-5-8(7)6(2)9/h6-9H,3-5H2,1-2H3	InChI=1S/C8H16O/c1-3-4-7-5-8(7)6(2)9/h6-9H,3-5H2,1-2H3/t6-,7+,8+/m1/s1
