21
gdb 92089	2.56831	1.50393	1.23731	1.9797	77.18	-0.2523	0.0611	0.3134	1099.3867	0.184857	-424.225589	-424.217378	-424.216434	-424.257828	33.427	
O	 0.1453941476	 1.3466329619	 0.2594967913	-0.437022
C	 0.007223404	-0.0507824153	 0.0400254763	 0.105562
C	-1.4760767931	-0.4255845055	-0.011861503	-0.24307
C	-2.1689593576	-0.0961988648	-1.3237844277	-0.011633
C	-2.1609995655	 1.2939792234	-1.9016493498	-0.284367
C	-1.3483005487	 0.2034224987	-2.5638010674	-0.041301
C	 0.1766563711	 0.2357679606	-2.4861552181	-0.209424
C	 0.7423090642	-0.4563968882	-1.243526766	 0.078739
O	 2.115567661	-0.0600919587	-1.1507830532	-0.442017
H	 1.0609807881	 1.5544777756	 0.0289482203	 0.284179
H	 0.4691042858	-0.6000582831	 0.8813105109	 0.046784
H	-1.5429762798	-1.5081529406	 0.1574800767	 0.094011
H	-1.9846669903	 0.0540388522	 0.8327099193	 0.111264
H	-3.0783722375	-0.6681983145	-1.486092208	 0.07714
H	-3.0557307084	 1.6453463568	-2.4046842282	 0.098836
H	-1.6124068619	 2.0524024355	-1.3551391143	 0.13273
H	-1.7449085932	-0.1806383448	-3.498203414	 0.077793
H	 0.6104386644	-0.2407986389	-3.3699885718	 0.101824
H	 0.540643555	 1.2681657503	-2.4849047376	 0.11027
H	 0.6640219374	-1.5485102345	-1.3586536699	 0.066513
H	 2.5410770875	-0.610516936	-0.4843198957	 0.283187
120.0185	160.8503	250.1494	291.7509	338.2822	351.3958	366.3566	381.044	454.9442	531.7741	547.9083	629.0776	714.5324	755.4421	811.4693	830.6656	874.0266	892.3356	925.1618	967.9715	1003.7723	1043.5154	1066.1714	1074.2193	1081.1814	1099.5393	1133.9261	1138.6819	1156.3822	1213.3764	1228.5359	1244.1935	1269.1001	1284.5763	1334.6322	1350.2381	1375.1117	1377.2499	1384.3281	1411.7831	1436.4969	1443.7138	1474.919	1485.4167	1498.5249	2919.1953	2984.5166	3023.1109	3051.1859	3060.4992	3088.9322	3131.8087	3136.1311	3152.5656	3227.3027	3757.1602	3805.4878
OC1CC2CC2CC1O	O[C@H]1C[C@H]2C[C@H]2C[C@H]1O	
InChI=1S/C7H12O2/c8-6-2-4-1-5(4)3-7(6)9/h4-9H,1-3H2	InChI=1S/C7H12O2/c8-6-2-4-1-5(4)3-7(6)9/h4-9H,1-3H2/t4-,5+,6+,7-
