19
gdb 70305	3.60546	1.28855	1.17817	2.1811	74.89	-0.2192	0.0753	0.2945	1106.6331	0.158844	-422.992739	-422.984821	-422.983877	-423.024724	32.274	
O	 0.1416872336	 1.2999090756	-0.6164746209	-0.468914
C	 0.0284671342	 0.0505742211	-0.0104248171	 0.363149
C	-0.2448649993	-1.1855875418	-0.8494171011	-0.388208
C	-1.3009654774	-0.6255851688	 0.087853681	 0.058205
O	-1.4680255875	-1.2109438962	 1.3513792179	-0.289586
C	-0.1896571464	-1.2588655792	 1.9678324683	 0.445564
C	-0.1686120599	-1.6637790415	 3.4018181831	-0.343712
C	 0.3434393971	-2.6197117986	 2.3365104177	-0.317709
C	 0.6796489272	-0.1669434989	 1.3508639798	-0.378082
H	 0.9807507682	 1.3273228902	-1.0892991877	 0.282937
H	-0.4188144119	-1.0074647144	-1.9054324629	 0.114384
H	 0.2441357817	-2.1231873711	-0.6086247487	 0.121698
H	-2.2152744403	-0.2004353475	-0.3065293516	 0.111211
H	 0.547301337	-1.1861328788	 4.0621934169	 0.115491
H	-1.1259370113	-1.8916645608	 3.8568031113	 0.127515
H	-0.2821268728	-3.4717725013	 2.0957085514	 0.121875
H	 1.4123726768	-2.7973266642	 2.2707289064	 0.107796
H	 1.7332600347	-0.4601019052	 1.3049990855	 0.100055
H	 0.6056983465	 0.7729500114	 1.9097855608	 0.116331
99.8928	201.2213	259.4876	297.3904	337.5242	386.6949	387.8305	433.049	453.7025	528.9081	618.7004	715.9816	766.9215	780.1828	856.3391	864.7511	904.23	919.2827	924.7914	936.6284	988.8751	1001.5644	1022.1317	1047.779	1052.3286	1075.1877	1081.7843	1154.2255	1179.2611	1190.7082	1212.096	1238.3424	1283.7398	1296.8763	1345.5061	1373.635	1408.9885	1451.267	1472.6922	1496.1727	1504.2149	3037.189	3082.7049	3126.2546	3130.886	3134.4268	3199.0156	3214.8625	3225.5332	3229.1408	3793.7427
OC12CC1OC1(CC1)C2	O[C@]12C[C@H]1OC1(CC1)C2	
InChI=1S/C7H10O2/c8-7-3-5(7)9-6(4-7)1-2-6/h5,8H,1-4H2	InChI=1S/C7H10O2/c8-7-3-5(7)9-6(4-7)1-2-6/h5,8H,1-4H2/t5-,7+/m1/s1
