19
gdb 105678	1.83288	1.54293	1.25519	3.0093	72.53	-0.2419	-0.036	0.2059	1140.7602	0.156508	-460.145713	-460.136114	-460.135169	-460.180271	34.837	
C	-0.1504534405	 1.1312687988	 0.4953942804	-0.258831
O	-0.2017104247	-0.2101999351	 0.0414391777	-0.314272
C	 0.5134021409	-0.4841050506	-1.1487436181	 0.265317
C	 2.0582707879	-0.3976860492	-1.0426388763	-0.289657
C	 2.1037223361	-1.8839222704	-0.6037966085	-0.265335
C	 0.6787491862	-2.0620108549	-1.1937083355	 0.121469
O	-0.2793494352	-2.8138650085	-0.52590542	-0.424093
C	-0.1649586149	 0.1239631564	-2.3524300338	 0.093665
O	 0.3848064714	 0.329583787	-3.4058028144	-0.258325
H	 0.8624206159	 1.425514574	 0.7985358805	 0.121988
H	-0.5024953564	 1.8359814165	-0.2706493643	 0.120957
H	-0.8112308042	 1.1950923083	 1.3625310248	 0.137417
H	 2.4785475665	-0.2291104687	-2.0363604097	 0.135761
H	 2.4638165706	 0.3454088947	-0.354604645	 0.108532
H	 2.8960010067	-2.5172264905	-1.007335923	 0.10728
H	 2.0818972367	-1.9873414269	 0.4841340514	 0.10735
H	 0.7168091135	-2.4078746393	-2.2301625616	 0.108516
H	-0.5073609259	-2.3169212236	 0.2709201844	 0.293448
H	-1.2517553406	 0.3211247319	-2.2073687591	 0.088813
74.1415	112.0895	119.3242	168.5046	204.1429	237.7961	256.2808	324.2315	373.7074	427.202	453.0677	555.2801	574.4241	655.7182	728.3876	775.3791	881.5022	892.5186	946.5783	969.4392	1079.7149	1090.2412	1100.1238	1149.6406	1169.2446	1182.2043	1187.8954	1219.0351	1225.6942	1240.9589	1269.9524	1291.2353	1343.7366	1399.8613	1436.7125	1469.1489	1483.5192	1486.5399	1494.7436	1508.3185	1818.6506	2875.4709	3001.6031	3057.8687	3067.8691	3079.9887	3083.3457	3122.6317	3125.425	3139.4541	3768.4212
COC1(CCC1O)C=O	CO[C@]1(CC[C@H]1O)C=O	
InChI=1S/C6H10O3/c1-9-6(4-7)3-2-5(6)8/h4-5,8H,2-3H2,1H3	InChI=1S/C6H10O3/c1-9-6(4-7)3-2-5(6)8/h4-5,8H,2-3H2,1H3/t5-,6-/m1/s1
