15
gdb 23965	3.59135	1.3615	0.99979	4.7322	83.34	-0.2094	0.0114	0.2208	1129.5807	0.114095	-379.641638	-379.634244	-379.6333	-379.67368	28.012	
C	 0.0141860192	-1.2008100412	-0.0639204059	-0.461274
C	 0.0134931356	 0.0030039901	-0.0353761834	 0.251155
C	-0.014852236	 1.4156491255	 0.0007696842	 0.026276
C	-1.0925303569	 2.2682324424	 0.137239524	 0.233429
C	-2.5295840293	 2.7379601234	 0.3031441318	-0.390713
C	-1.9173111898	 4.189503342	 0.2708440912	-0.171066
N	-0.5956780303	 3.5326445523	 0.1131590551	 0.00104
C	 0.7587154018	 3.4647301935	-0.0349063334	-0.051659
N	 1.129953561	 2.2030860186	-0.1045538653	-0.313301
H	 0.024890619	-2.2618350104	-0.0902539916	 0.184341
H	-3.2042944753	 2.5106421516	-0.5249997713	 0.137941
H	-3.0134523763	 2.4695212261	 1.2447085697	 0.137932
H	-2.1998598829	 4.8051997771	-0.5855084442	 0.139615
H	-2.0079650519	 4.7639384806	 1.1949987041	 0.139605
H	 1.4130282222	 4.3205669183	-0.0855754251	 0.13668
103.4559	138.6673	175.4491	243.5471	395.7769	477.2615	537.8812	564.4636	576.3447	644.3992	656.5267	715.9786	719.878	790.3206	804.0378	855.0063	908.3911	1055.9674	1069.4133	1083.8056	1135.8962	1183.1892	1211.346	1233.3569	1276.939	1284.7984	1391.5828	1394.6254	1466.0619	1483.2011	1513.7861	1581.3978	2236.3129	3072.1784	3076.3193	3119.1263	3136.0373	3264.2755	3505.0367
C#CC1=C2CCN2C=N1	C#Cc1c2CCn2cn1	
InChI=1S/C7H6N2/c1-2-6-7-3-4-9(7)5-8-6/h1,5H,3-4H2	InChI=1S/C7H6N2/c1-2-6-7-3-4-9(7)5-8-6/h1,5H,3-4H2
