18
gdb 28336	3.13564	1.37184	0.96565	3.1198	87.16	-0.2028	-0.0355	0.1673	1221.9597	0.14766	-402.00436	-401.995767	-401.994823	-402.037395	32.445	
C	 0.1066530011	 1.4896067047	 0.0030660914	-0.472826
C	-0.0621491504	 0.0070022707	 0.0197888444	 0.381588
C	-1.2138812591	-0.6773326528	 0.1575556199	-0.242448
C	-1.1755835269	-2.1127983199	 0.1496171243	-0.154
C	-0.0108999316	-2.7878061235	 0.0078268003	 0.201871
C	 0.098974938	-4.2826047499	-0.0081120915	-0.469942
C	 1.228027272	-2.0320537775	-0.1395471059	 0.321185
N	 2.3682904284	-2.5796052169	-0.2771439059	-0.537316
O	 1.1231619087	-0.6414290458	-0.1253253647	-0.272608
H	 0.7724092171	 1.8120641555	 0.8113913192	 0.144932
H	 0.5612716758	 1.8167005808	-0.9386658245	 0.144932
H	-0.857518217	 1.9871733792	 0.1207936826	 0.134728
H	-2.1472107947	-0.1425820268	 0.2717277797	 0.103329
H	-2.1048685021	-2.6636937704	 0.2602625957	 0.10315
H	 0.5545788519	-4.6284377509	-0.9418684852	 0.143544
H	 0.756589799	-4.6321471071	 0.7947551004	 0.143398
H	-0.8832887693	-4.7484813119	 0.1054260646	 0.1099
H	 3.0985926991	-1.8726418375	-0.3636454049	 0.216584
103.8901	148.9532	161.2639	179.3788	282.4316	309.6569	320.3474	406.4551	461.215	515.695	551.0653	606.2795	729.0956	741.6916	752.4719	814.4977	847.4838	933.3654	947.2936	977.0403	1028.6439	1063.7908	1066.8916	1072.2678	1128.3421	1188.8651	1207.6617	1284.7492	1385.1487	1400.1647	1415.6469	1419.014	1466.8585	1468.3687	1485.3828	1487.5385	1638.8416	1685.9838	1730.1732	3035.4319	3037.2908	3089.0344	3092.7426	3121.4597	3138.9776	3175.4583	3221.1338	3489.8524
CC1=CC=C(C)C(=N)O1	CC1=CCC(=C([NH])O1)C	
InChI=1S/C7H9NO/c1-5-3-4-6(2)9-7(5)8/h3-4,8H,1-2H3	InChI=1S/C7H10NO/c1-5-3-4-6(2)9-7(5)8/h4,8H,3H2,1-2H3
