25
gdb 104715	2.05825	1.31935	1.0012	1.3917	88.87	-0.2389	0.0846	0.3234	1377.4687	0.227056	-389.497533	-389.486829	-389.485885	-389.533123	40.093	
C	-1.5544154938	-0.8845260557	-0.5452447569	-0.398185
C	-0.1524451879	-0.3311853102	-0.2781376653	-0.231922
C	 0.8865748332	-0.6103991896	-1.3679726763	 0.448198
C	 2.215305442	 0.1163954051	-1.1053194199	-0.219548
C	 2.1283248735	 1.6438856227	-1.1850148014	-0.39027
C	 1.0918814313	-2.0819041299	-1.8133776874	-0.364257
C	 0.7487044054	-1.5645157737	-3.2255491544	 0.178317
C	-0.3766036564	-2.2229127333	-3.9973157469	-0.406778
O	 0.3830367641	-0.2660443592	-2.6974118687	-0.342269
H	-1.9374913553	-0.505813349	-1.4958463209	 0.135413
H	-1.5688518881	-1.9784892945	-0.5846944566	 0.11049
H	-2.2427808855	-0.5794845306	 0.2487842282	 0.108514
H	-0.2272192807	 0.7538646036	-0.1437647445	 0.105604
H	 0.2412118196	-0.7306784026	 0.6661574725	 0.094952
H	 2.6000495017	-0.1993114969	-0.1263508713	 0.090473
H	 2.9420660279	-0.2340039908	-1.848352314	 0.091594
H	 3.1272983487	 2.0889804629	-1.148891475	 0.107906
H	 1.6542362118	 1.9428024769	-2.1241448355	 0.135921
H	 1.5509821568	 2.0722618084	-0.360395492	 0.114941
H	 2.0947677205	-2.4873035598	-1.6659468896	 0.099722
H	 0.3580010898	-2.7863928354	-1.4168700901	 0.101923
H	 1.634862739	-1.4729094164	-3.870471352	 0.070168
H	-1.2585291778	-2.3603521016	-3.3648757799	 0.121036
H	-0.6620803494	-1.6064705224	-4.8558452169	 0.1249
H	-0.0590655205	-3.2024991981	-4.3719638652	 0.113158
73.7479	75.9457	107.2578	184.527	208.9327	224.4083	242.526	260.9738	318.8705	328.6526	337.8171	444.7291	472.2665	533.5779	615.9846	751.4936	772.7264	785.3391	867.9498	901.1617	913.1828	934.959	941.1926	978.5035	1010.0545	1044.8631	1057.9594	1084.6074	1095.3867	1119.949	1172.1063	1192.572	1209.6	1232.4612	1263.2262	1301.6598	1314.9181	1331.9729	1376.1941	1379.8476	1389.9205	1403.9463	1406.8474	1412.1765	1470.8733	1479.3525	1482.8486	1489.3998	1494.4266	1501.4282	1507.8273	1509.8516	1512.9951	2988.8929	3016.0823	3024.042	3032.999	3041.3691	3042.3004	3052.5766	3065.3893	3073.8761	3102.4149	3102.9446	3106.9649	3114.1696	3121.0694	3126.6603	3128.3891
CCC1(CC)CC(C)O1	CCC1(CC)C[C@@H](C)O1	
InChI=1S/C8H16O/c1-4-8(5-2)6-7(3)9-8/h7H,4-6H2,1-3H3	InChI=1S/C8H16O/c1-4-8(5-2)6-7(3)9-8/h7H,4-6H2,1-3H3/t7-/m1/s1
