18
gdb 51798	4.21931	0.97973	0.86951	4.9193	73.2	-0.238	-0.0132	0.2249	1317.1206	0.147812	-439.067468	-439.059235	-439.058291	-439.101442	30.1	
O	-0.0892837608	-0.0063940004	-0.0168241236	-0.247779
C	 0.0370517273	 1.1926944283	-0.0212278559	 0.152569
C	 1.3651386188	 1.9079970482	-0.1388651973	-0.289074
C	 1.398949868	 2.9032899211	-1.3040392494	 0.121404
O	 0.328765711	 3.8354702985	-1.1263547526	-0.274875
C	 0.7040150896	 5.1239329843	-1.6060078445	-0.076937
C	 2.2163661885	 5.1514040681	-1.5598709322	-0.055175
N	 2.7448699614	 4.7056151889	-0.2543489793	-0.328238
C	 2.6564584206	 3.7514786791	-1.3773005876	-0.080389
H	-0.84102809	 1.8663982983	 0.0651370068	 0.097125
H	 1.5361802503	 2.4850952234	 0.7785436609	 0.140995
H	 2.1554830881	 1.1596304735	-0.2488290857	 0.11105
H	 1.28318531	 2.3664842352	-2.2603209348	 0.080502
H	 0.3602932586	 5.282327318	-2.6403212739	 0.095944
H	 0.2287926364	 5.8674311998	-0.9582780504	 0.118341
H	 2.7699244125	 5.8660276726	-2.1589891206	 0.099366
H	 3.7075194952	 5.0190412449	-0.1565065039	 0.23653
H	 3.5557668445	 3.3495803982	-1.8308533661	 0.098642
49.8801	76.5271	132.4455	179.4168	263.7634	366.0476	420.5049	438.7671	553.1817	663.0964	757.6306	807.5806	833.7213	849.2553	876.8418	883.2343	959.7528	975.3	1017.8584	1028.0787	1076.7197	1095.6099	1104.0924	1114.438	1152.031	1158.2902	1224.8198	1232.4723	1254.2828	1279.3168	1328.8111	1356.519	1383.7049	1392.6997	1422.6072	1434.2256	1454.658	1508.7097	1826.6062	2919.5484	2965.935	2985.6695	3038.1434	3076.5271	3105.9385	3171.1131	3181.4168	3504.2431
O=CCC1OCC2NC12	O=CC[C@H]1OC[C@H]2N[C@@H]12	
InChI=1S/C6H9NO2/c8-2-1-5-6-4(7-6)3-9-5/h2,4-7H,1,3H2	InChI=1S/C6H9NO2/c8-2-1-5-6-4(7-6)3-9-5/h2,4-7H,1,3H2/t4-,5-,6-/m1/s1
