17
gdb 61434	3.2867	0.9522	0.78235	6.788	66.59	-0.2548	0.0072	0.2621	1398.9251	0.135354	-492.330684	-492.321331	-492.320387	-492.365406	34.198	
N	 0.1526724832	 1.2223295695	 0.7452082434	-0.538422
C	 0.1973470678	 0.0958656182	-0.0216579582	 0.365653
N	 1.1826562107	-0.3715653761	-0.6876348139	-0.547773
H	-0.0281989556	-1.6116367209	-1.4035769516	 0.304229
H	 2.0404572683	 0.1700597938	-0.60736071	 0.218145
C	-1.1018104117	-0.705123613	-0.1155292068	 0.062872
O	-0.9853621125	-1.6229130194	-1.1838138304	-0.441824
C	-1.3769469315	-1.447064907	 1.2114303934	-0.349153
C	-2.6219198293	-2.3417932836	 1.1996693947	 0.400651
O	-2.7761493203	-3.0993243271	 0.1045440897	-0.36694
O	-3.3911987149	-2.3903718032	 2.1220487098	-0.326686
H	 1.0081153321	 1.6866429379	 1.0019462496	 0.262897
H	-0.6453167474	 1.4034859278	 1.3305500499	 0.269456
H	-1.9325961477	-0.0193024814	-0.3328822227	 0.109242
H	-2.0870223537	-2.8566120698	-0.549434661	 0.318222
H	-0.5073255314	-2.0802652575	 1.4281402531	 0.139977
H	-1.497705166	-0.7500471683	 2.043315461	 0.119454
64.6609	85.1369	111.8427	166.6791	246.7985	267.935	334.0539	381.7181	439.191	458.843	497.0374	567.9026	598.4103	624.6928	690.7546	715.0633	825.8069	831.1314	868.8632	886.3483	947.9926	1037.7552	1076.2362	1110.8541	1121.8852	1211.666	1256.7193	1284.3995	1313.1115	1366.9906	1416.8384	1449.5126	1455.1985	1483.3242	1644.6563	1733.5498	1863.2283	3014.6932	3043.15	3116.3225	3462.6871	3506.0765	3511.807	3602.616	3719.2138
NC(=[NH2+])C(O)CC([O-])=O	NC(=N)[C@@H](O)CC(=O)O	
InChI=1S/C4H8N2O3/c5-4(6)2(7)1-3(8)9/h2,7H,1H2,(H3,5,6)(H,8,9)	InChI=1S/C4H8N2O3/c5-4(6)2(7)1-3(8)9/h2,7H,1H2,(H3,5,6)(H,8,9)/t2-/m0/s1
