17
gdb 18872	3.20386	2.53305	2.1274	0.5146	66.28	-0.2283	0.0876	0.3159	736.9149	0.144089	-363.813565	-363.807109	-363.806165	-363.843919	25.596	
C	-0.343740022	 1.5605724185	 0.028415363	-0.418809
C	 0.0312059776	 0.0903883047	 0.0462299245	 0.061319
C	 0.998629551	-0.5194956795	-1.0020719792	 0.051487
O	 1.9893541294	 0.4150390262	-1.4090266778	-0.260594
C	 2.7515894911	 0.7572892851	-0.2451574441	-0.112023
C	 2.3346948027	-0.2406978103	 0.8190432593	-0.046583
C	 1.5862565616	-1.328809813	 0.1751187417	-0.063464
N	 0.8968790123	-0.4301633973	 1.1778791948	-0.174573
H	 0.4998838069	 2.2084308355	-0.21369866	 0.129327
H	-1.1234352314	 1.7410979263	-0.7192797607	 0.119559
H	-0.7399008204	 1.8536220121	 1.0062848762	 0.127011
H	-0.8784312326	-0.5190131237	 0.0949033226	 0.084242
H	 0.5956373398	-1.0090728855	-1.8880086994	 0.083612
H	 3.8207357698	 0.6531565703	-0.4721602881	 0.110532
H	 2.5679433123	 1.7986561497	 0.0460850698	 0.107612
H	 2.9989739485	-0.4299102141	 1.654863692	 0.10379
H	 1.7087223734	-2.3966144048	 0.3039011454	 0.097556
131.1458	228.9174	242.9797	296.2969	471.6345	570.5372	636.8799	678.6426	772.8374	794.9292	805.805	845.7232	882.4759	913.848	936.0011	976.3282	1005.3549	1038.6223	1062.6088	1082.9325	1111.0292	1115.6934	1157.7929	1190.6571	1220.6129	1234.1939	1268.4458	1294.3074	1324.0462	1359.6677	1388.5158	1405.983	1408.1778	1485.1041	1493.191	1526.7948	3015.2987	3037.4023	3044.1393	3046.8161	3102.6155	3124.3343	3141.6745	3179.3033	3197.428
CC1C2OCC3C2N13	C[C@H]1[C@H]2OC[C@@H]3[C@H]2N13	
InChI=1S/C6H9NO/c1-3-6-5-4(2-8-6)7(3)5/h3-6H,2H2,1H3	InChI=1S/C6H9NO/c1-3-6-5-4(2-8-6)7(3)5/h3-6H,2H2,1H3/t3-,4+,5+,6+,7?/m0/s1
