19
gdb 38948	3.12664	1.84702	1.58865	2.4223	73.99	-0.2371	0.0839	0.321	907.079	0.163167	-423.005651	-422.999304	-422.99836	-423.036035	26.959	
C	-0.0712202718	 1.597472293	 0.064747419	-0.241992
C	 1.4642435183	 1.4047357202	 0.0064741853	 0.093568
O	 1.7341902862	 0.7755307432	 1.2697835681	-0.278766
C	 0.7812283482	-0.3122394185	 1.2543034222	 0.086204
C	 1.5432711548	-1.6320328957	 1.0978377373	-0.093141
O	 2.5557965783	-1.5327829358	 0.1188698909	-0.237058
C	 2.1392997736	-0.9695884737	-1.1120057352	-0.108377
C	 1.1975822496	 0.2179746576	-0.9741389509	-0.027978
C	-0.0221522395	 0.0466217035	-0.0119615145	-0.084758
H	-0.4640057629	 2.0631952607	 0.9714688368	 0.100541
H	-0.5011124249	 2.0472536244	-0.8324435272	 0.099551
H	 2.1838539533	 2.2019808207	-0.172514188	 0.080597
H	 0.1877554444	-0.3054457771	 2.1753699545	 0.073826
H	 2.0570061666	-1.8930514696	 2.0276002751	 0.114615
H	 0.8248758041	-2.4390768058	 0.8658011248	 0.079672
H	 3.0594736132	-0.6865036657	-1.6349134634	 0.111077
H	 1.6318288139	-1.7328396189	-1.7299629784	 0.084801
H	 0.8917645627	 0.5771686036	-1.9601622621	 0.077256
H	-0.8846683581	-0.5745789759	-0.2519970545	 0.070362
209.8387	237.9504	341.6421	356.0017	443.488	486.5701	615.1856	706.378	731.6509	815.1025	836.2003	846.3455	860.0808	873.8964	919.9885	928.7855	994.594	1001.3593	1008.4757	1029.7078	1053.4044	1070.1217	1089.7423	1111.4815	1116.5943	1178.3506	1190.6558	1221.3134	1245.3489	1260.7884	1274.8086	1278.7339	1311.7917	1334.4091	1353.4976	1371.3861	1387.839	1427.943	1488.8691	1490.3973	1500.2583	2937.9241	2948.8838	3044.4259	3061.945	3066.4144	3082.5243	3085.1888	3121.5411	3133.6239	3138.6793
C1C2OC3COCC2C13	C1[C@H]2O[C@@H]3COC[C@H]2[C@H]13	
InChI=1S/C7H10O2/c1-4-5-2-8-3-7(4)9-6(1)5/h4-7H,1-3H2	InChI=1S/C7H10O2/c1-4-5-2-8-3-7(4)9-6(1)5/h4-7H,1-3H2/t4-,5-,6+,7+/m0/s1
