15
gdb 125070	3.05425	1.37847	0.98683	4.0469	71.54	-0.2275	-0.0316	0.1959	1137.0643	0.112883	-450.111473	-450.103205	-450.102261	-450.145185	29.583	
C	-0.5235365641	 0.8850011262	-1.0637255008	-0.510389
C	-0.2122400824	-0.2528318221	-0.1624658139	 0.356701
C	-0.923342454	-1.1634611169	 0.572295964	 0.240872
N	-2.2763935977	-1.4173076266	 0.7873669483	-0.386593
C	-3.3178512621	-1.2838542172	-0.0952928338	 0.074358
N	-3.2060687568	-0.7626459593	-1.2523492867	-0.450983
N	-0.018324735	-1.9305471439	 1.2652768369	-0.188595
N	 1.1618627983	-1.5644360114	 1.0032642159	-0.01346
O	 1.0871443628	-0.5051216334	 0.0863901521	-0.20013
H	 0.2428568109	 0.9672012151	-1.8390247459	 0.145663
H	-1.502503008	 0.7253922614	-1.5168048628	 0.189969
H	-0.53531726	 1.8281798983	-0.5047038205	 0.142507
H	-2.4447738094	-1.9889042685	 1.6004188776	 0.267724
H	-4.2470807109	-1.6715777685	 0.3369541674	 0.10234
H	-4.1061512016	-0.7550652732	-1.7245924778	 0.230015
38.4784	115.2772	196.0558	211.9236	244.1492	286.3502	371.9181	428.0953	494.7661	601.3357	662.352	694.5663	726.0113	781.122	797.8168	838.4098	995.7802	1034.3028	1040.465	1072.3383	1119.8302	1181.7441	1225.7644	1293.1682	1359.2738	1411.5346	1422.5028	1440.8415	1478.2057	1496.4918	1571.7125	1675.2911	1729.2326	3035.1408	3060.0054	3101.6403	3152.52	3526.0414	3637.6624
CC1=C(NC=N)N=NO1	Cc1c(NC=N)nno1	
InChI=1S/C4H6N4O/c1-3-4(6-2-5)7-8-9-3/h2H,1H3,(H2,5,6)	InChI=1S/C4H6N4O/c1-3-4(6-2-5)7-8-9-3/h2H,1H3,(H2,5,6)
