20
gdb 96667	3.25568	0.83865	0.75823	3.4826	80.03	-0.2504	-0.0249	0.2255	1577.9511	0.166041	-440.304384	-440.293178	-440.292233	-440.342255	37.717	
C	-0.0153699524	 1.5252325435	-0.0046916039	-0.329646
N	 0.0146936831	 0.0788015347	-0.0064284488	-0.282442
C	 0.5030430871	-0.560590426	-0.9807765408	 0.413028
C	 1.1029071961	-0.0379515459	-2.265969571	-0.489523
O	 0.5437746842	-1.9213168972	-0.9685548895	-0.276277
C	 0.0191207644	-2.5948164898	 0.1836781231	 0.046106
C	-1.4731038912	-2.8715646252	 0.0622365307	-0.406646
C	 0.8559155656	-3.8544566998	 0.3378905266	 0.148772
O	 0.4775084497	-4.8526078581	 0.8923827974	-0.247027
H	 0.5121434438	 1.898159232	 0.8810757748	 0.129125
H	 0.4271527501	 2.0043091519	-0.8883670454	 0.103636
H	-1.0533320704	 1.8680532232	 0.0816311393	 0.128712
H	 1.971454722	 0.5940572562	-2.0592176546	 0.147245
H	 1.4154706318	-0.8702640825	-2.8959801278	 0.144806
H	 0.3767369873	 0.5683800779	-2.8147312827	 0.14719
H	 0.2075434236	-1.9643644713	 1.0639705699	 0.134033
H	-1.6907806444	-3.3842558264	-0.8790095696	 0.125407
H	-1.7856536601	-3.5176240166	 0.8858734256	 0.141879
H	-2.0326966435	-1.9356248957	 0.1012860821	 0.134946
H	 1.8782789732	-3.7660477051	-0.0923381653	 0.086678
47.3088	63.3171	72.6643	81.9281	106.831	165.4285	208.9314	244.6232	256.9671	301.4497	371.1947	394.3849	461.6948	580.6738	604.6694	655.0409	811.6711	843.4954	917.1422	945.3253	1017.9981	1053.5326	1098.9254	1126.5177	1135.0035	1139.8488	1156.4406	1158.4367	1275.9229	1318.1499	1351.05	1389.2484	1400.3331	1412.0172	1448.8341	1478.8915	1479.2575	1485.0461	1498.5058	1499.9897	1506.4439	1762.3336	1838.3677	2891.804	3003.6147	3021.8539	3054.2995	3055.3387	3066.7721	3071.7133	3115.705	3131.2086	3148.1629	3157.4472
CN=C(C)OC(C)C=O	CN=C(C)O[C@@H](C)C=O	
InChI=1S/C6H11NO2/c1-5(4-8)9-6(2)7-3/h4-5H,1-3H3	InChI=1S/C6H11NO2/c1-5(4-8)9-6(2)7-3/h4-5H,1-3H3/t5-/m0/s1
