21
gdb 100272	2.14903	1.42187	1.05923	5.5473	74.73	-0.2464	0.0258	0.2722	1229.5616	0.182653	-457.576037	-457.565934	-457.56499	-457.611225	37.754	
C	 0.0225244869	 1.6306997753	-0.2410034051	-0.401181
C	-0.0325852167	 0.128546184	 0.0565008916	-0.198527
C	-1.4407530613	-0.5239811572	 0.0745001986	 0.099346
N	-2.3074823676	-0.1458042965	-1.063474162	-0.548561
C	-1.2571112663	-2.058323552	-0.0118926555	-0.191377
N	-2.5610985528	-2.7366107544	-0.0030691913	-0.526344
H	-2.4608063173	-3.74456578	-0.0296271896	 0.244396
H	-3.0978373574	-1.7885563354	 1.2757421074	 0.324349
H	-3.093161612	-2.4294844762	-0.8124478032	 0.256456
C	-2.2137602952	-0.0984699566	 1.3634737882	 0.41345
O	-2.044823583	 0.9831289084	 1.872525758	-0.342939
O	-3.0845329764	-0.9721903743	 1.8576792931	-0.379547
H	 1.063886498	 1.9661909794	-0.2681888501	 0.109302
H	-0.4166845468	 1.8624507124	-1.2173094039	 0.093177
H	-0.509638352	 2.1972655472	 0.5225508665	 0.16057
H	 0.5612936762	-0.4028775814	-0.7009547488	 0.081164
H	 0.4519046399	-0.0696427278	 1.0196252333	 0.108773
H	-2.6272786389	 0.8115050525	-0.9485463193	 0.249921
H	-1.7591072156	-0.1592458595	-1.9212149363	 0.228192
H	-0.6710596237	-2.2807414069	-0.9166747213	 0.096547
H	-0.6748650479	-2.409837211	 0.8465060898	 0.122833
30.1618	113.162	176.058	208.1154	248.8053	265.4935	293.127	301.7307	321.8565	358.8694	392.2777	403.5149	453.6549	564.7778	609.5306	753.8376	772.725	790.5275	854.0625	899.3369	921.4296	974.1887	1013.4198	1046.313	1049.5666	1080.4816	1096.8207	1115.5316	1161.5832	1226.7648	1254.6338	1294.2983	1308.3399	1368.4167	1394.5202	1403.5892	1418.3697	1477.743	1493.785	1504.2584	1519.958	1535.6808	1617.7968	1652.8326	1832.7552	2979.2106	3004.3063	3040.8631	3051.239	3059.3226	3076.3899	3097.705	3160.7383	3471.5716	3503.8125	3558.8583	3596.8141
CCC(N)(C[NH3+])C([O-])=O	CC[C@@](N)(CN)C(=O)O	
InChI=1S/C5H12N2O2/c1-2-5(7,3-6)4(8)9/h2-3,6-7H2,1H3,(H,8,9)	InChI=1S/C5H12N2O2/c1-2-5(7,3-6)4(8)9/h2-3,6-7H2,1H3,(H,8,9)/t5-/m1/s1
