19
gdb 26393	4.2533	0.98624	0.88543	2.1263	78.21	-0.1978	0.0539	0.2516	1366.9891	0.159672	-419.254649	-419.245661	-419.244717	-419.288748	33.408	
C	-0.1363919302	 1.5336189432	 0.1060258952	-0.394723
C	 0.0092607514	 0.0225474649	 0.0058151414	 0.151454
C	 0.735951816	-0.5968205057	 1.1949873089	-0.39747
O	-1.3430498237	-0.4982363542	-0.0783800802	-0.29642
C	-1.4796204102	-1.707598107	-0.6321032485	 0.483756
N	-0.5569837116	-2.4887030069	-1.1337068745	-0.35937
C	-1.2489149306	-3.6030075562	-1.5843691544	-0.09368
C	-2.5844259763	-3.4789698621	-1.345690438	-0.112632
N	-2.72694275	-2.243493496	-0.7233663505	-0.332578
H	 0.8504175182	 2.0035746271	 0.1485320378	 0.119717
H	-0.6727006092	 1.9307877344	-0.7598464191	 0.12284
H	-0.6877519698	 1.8094713404	 1.0106484624	 0.122171
H	 0.5231380436	-0.253998284	-0.9201224227	 0.113596
H	 0.8026093274	-1.6799514562	 1.0764409317	 0.147229
H	 1.7518828688	-0.194859523	 1.2628565598	 0.115045
H	 0.2115160294	-0.3676213277	 2.1284341609	 0.114832
H	-0.7301022599	-4.4255429564	-2.0518353763	 0.10546
H	-3.4288736209	-4.1172053381	-1.5418224836	 0.125256
H	-3.5761447123	-1.8078821264	-0.4077458303	 0.265517
61.8571	73.2102	159.7698	217.4771	250.8191	286.2761	316.7372	388.164	447.7828	469.6996	498.1058	633.2618	680.4361	741.7281	745.702	837.5208	847.9665	917.7569	934.1243	948.7906	958.2228	1028.875	1081.6046	1136.8988	1143.6297	1159.1247	1192.6886	1207.1151	1287.9036	1361.0524	1372.9364	1388.4631	1401.7664	1416.9779	1479.1406	1486.0827	1493.6164	1501.9481	1512.3313	1552.2521	1611.45	3039.7642	3043.8868	3065.9834	3108.064	3118.7666	3123.1108	3139.2568	3252.1227	3286.9626	3678.5475
CC(C)OC1=NC=CN1	CC(C)Oc1ncc[nH]1	
InChI=1S/C6H10N2O/c1-5(2)9-6-7-3-4-8-6/h3-5H,1-2H3,(H,7,8)	InChI=1S/C6H10N2O/c1-5(2)9-6-7-3-4-8-6/h3-5H,1-2H3,(H,7,8)
