13
gdb 31319	2.23568	1.77286	0.99753	3.5381	67.54	-0.2677	-0.0559	0.2118	1081.1184	0.09007	-452.778611	-452.770789	-452.769845	-452.811793	27.45	
O	 0.5434534253	 0.6318765883	 0.8012431277	-0.397993
C	-0.0773675586	 0.1674478803	-0.3751151445	-0.1853
C	-1.4089197704	-0.4756416401	-0.1329392442	 0.146139
C	-2.1063571535	-0.6331732208	 1.0319588931	 0.180402
O	-3.2814223097	-1.2888041149	 0.731581638	-0.16791
C	-3.2150291987	-1.4852193478	-0.5954800868	 0.079776
N	-2.1449986285	-1.0303106447	-1.1652804687	-0.29772
C	-1.8811938934	-0.2580415296	 2.3711053262	 0.236436
N	-1.7135860692	 0.067212228	 3.4702712793	-0.343658
H	 0.0714909336	 1.4069354707	 1.123016182	 0.300088
H	-0.1979679751	 0.9560092268	-1.1337357118	 0.127842
H	 0.5959857512	-0.5786979183	-0.8121988881	 0.150884
H	-4.048512923	-1.996722428	-1.0517740622	 0.171014
52.6423	132.5021	171.4309	219.1424	246.416	342.263	420.6856	507.3953	544.8405	621.4159	654.4038	706.9407	730.6071	873.3052	959.3163	985.1978	1084.5555	1101.7154	1168.1316	1202.4469	1215.1856	1292.5328	1344.1696	1387.9558	1414.9334	1482.2445	1538.5161	1630.3789	2345.9581	2993.678	3066.6548	3277.2394	3821.3386
OCC1=C(OC=N1)C#N	OCc1c(ocn1)C#N	
InChI=1S/C5H4N2O2/c6-1-5-4(2-8)7-3-9-5/h3,8H,2H2	InChI=1S/C5H4N2O2/c6-1-5-4(2-8)7-3-9-5/h3,8H,2H2
