17
gdb 29344	1.97083	1.85213	0.96626	0.1621	84.77	-0.2105	-0.0001	0.2103	1198.2845	0.133969	-384.707684	-384.698455	-384.697511	-384.741615	33.644	
C	-0.0154876767	 1.4976570465	 0.0402541013	-0.512548
C	-0.0397983257	 0.0038334504	 0.0272958634	 0.161141
C	-0.1434207631	-0.8266973803	-1.0373950955	-0.123703
O	-0.1301286497	-2.1365791588	-0.6442292632	-0.180927
C	-0.015240386	-2.1551581764	 0.7058350739	 0.271275
C	 0.0215628704	-3.4773576418	 1.3777961208	-0.504679
C	 0.0452768736	-0.8701714151	 1.1827747578	-0.039709
C	 0.1666515656	-0.4747957332	 2.5337162235	 0.249242
C	 0.2699580422	-0.1152984291	 3.6795555354	-0.471715
H	 0.9114658814	 1.8757190017	 0.4852611196	 0.137258
H	-0.0958353969	 1.9024874987	-0.9720462966	 0.12324
H	-0.8412388219	 1.9029721223	 0.6352798731	 0.137257
H	-0.2313901663	-0.6577675391	-2.0979981585	 0.136103
H	 0.8692194821	-4.0790734453	 1.0306235422	 0.141378
H	 0.1156392496	-3.333150584	 2.455811583	 0.149735
H	-0.8907320637	-4.0517821823	 1.1806168309	 0.141379
H	 0.3609698552	 0.196028586	 4.6902780587	 0.185273
112.6516	114.4578	123.4301	140.9928	201.888	243.8628	318.0714	359.7395	473.3109	534.4664	534.5096	549.7099	616.6374	648.6705	658.4014	707.1897	738.1666	760.3839	954.9204	1010.6816	1049.3649	1060.3234	1067.491	1153.6085	1188.3397	1259.6501	1309.9558	1397.0771	1419.7881	1422.7074	1473.7495	1479.1634	1482.569	1493.4335	1601.8508	1651.8	2227.3065	3031.1903	3033.5919	3081.8939	3086.0854	3115.5673	3137.8328	3275.4268	3503.6691
CC1=COC(C)=C1C#C	Cc1coc(C)c1C#C	
InChI=1S/C8H8O/c1-4-8-6(2)5-9-7(8)3/h1,5H,2-3H3	InChI=1S/C8H8O/c1-4-8-6(2)5-9-7(8)3/h1,5H,2-3H3
