20
gdb 87237	4.40162	0.73152	0.69055	4.6499	80.64	-0.2741	0.0367	0.3108	1660.3015	0.168473	-403.160056	-403.149808	-403.148864	-403.195939	36.385	
C	 0.0943495534	 1.3681956239	-0.373900147	-0.428571
C	 0.0458956093	-0.0458166341	 0.1445991879	 0.029728
O	 1.2843509209	-0.7656517632	 0.2338967063	-0.301244
C	 0.5593064285	-0.5075067995	 1.4512642088	 0.379276
C	 1.2270320893	 0.4345282455	 2.4305963197	-0.470109
C	-0.0508701824	-1.7634277822	 2.0591976092	-0.263639
C	 1.0367623551	-2.7903614561	 2.4465857484	-0.334907
C	 0.4678320126	-4.0271804164	 2.9738521603	 0.256302
N	-0.0009069643	-4.9973992224	 3.3916956544	-0.306582
H	 0.9110492164	 1.9432291679	 0.0651656612	 0.129022
H	 0.2339916036	 1.3605688029	-1.4598912841	 0.135808
H	-0.8500309784	 1.8814694247	-0.1628580532	 0.126222
H	-0.764819274	-0.6405437371	-0.283373809	 0.088162
H	 1.7179685354	 1.2629090885	 1.9193955884	 0.135361
H	 0.4922491057	 0.8423339352	 3.1330237365	 0.127462
H	 1.9918583142	-0.0869681595	 3.0156989468	 0.127688
H	-0.6471144682	-1.5039587441	 2.9405312176	 0.121196
H	-0.7262468379	-2.2317853401	 1.3381150338	 0.125823
H	 1.6388435131	-3.0206722646	 1.5613763728	 0.172335
H	 1.7176552176	-2.3784683292	 3.1991649113	 0.150668
59.8308	68.0771	109.139	139.704	161.4341	203.9971	268.499	275.2384	356.8603	395.6095	406.7841	477.327	529.5001	563.4344	724.4655	766.4201	791.455	890.448	948.8585	959.0938	975.8627	1007.161	1028.0719	1079.2251	1110.3235	1137.1262	1174.2126	1190.211	1258.3615	1283.5934	1312.2052	1362.5848	1386.5939	1410.8089	1421.0612	1460.2591	1468.6402	1477.3824	1486.2028	1487.9733	1502.2897	1519.4615	2362.0646	3040.6118	3043.1283	3050.052	3057.3905	3076.1694	3088.057	3099.7028	3102.1042	3108.9749	3137.4443	3149.6736
CC1OC1(C)CCC#N	C[C@H]1O[C@]1(C)CCC#N	
InChI=1S/C7H11NO/c1-6-7(2,9-6)4-3-5-8/h6H,3-4H2,1-2H3	InChI=1S/C7H11NO/c1-6-7(2,9-6)4-3-5-8/h6H,3-4H2,1-2H3/t6-,7-/m1/s1
