22
gdb 94804	2.31114	1.62501	1.2361	2.9494	80.64	-0.2415	0.0688	0.3103	1120.9409	0.195747	-404.341659	-404.332885	-404.331941	-404.374862	34.715	
C	 1.0109200707	 1.3374742732	-0.1719597827	-0.397293
C	 0.0306164124	 0.1666443858	-0.0445215886	-0.023368
C	 0.1609339394	-0.8663099784	-1.1838453167	-0.221995
C	 1.3501859705	-1.7779274839	-0.7794365662	-0.308067
C	 1.4415949083	-1.6432149751	 0.7415860179	 0.314214
C	 2.0202353256	-2.6682993748	 1.6367694599	-0.29709
N	 2.7248371856	-1.3873464843	 1.4237578291	-0.368787
C	 0.3108433305	-0.7076435366	 1.2053207717	 0.09718
O	 0.6280680761	-0.0173484542	 2.3859452003	-0.451543
H	 2.0473873845	 0.9980313358	-0.2778308683	 0.108331
H	 0.7712269773	 1.949054497	-1.0476643409	 0.106608
H	 0.9623490737	 1.9710502248	 0.7172670316	 0.130187
H	-0.9865994442	 0.5695081489	 0.000560003	 0.067602
H	-0.7554797448	-1.4635469654	-1.2467426783	 0.100471
H	 0.3068529046	-0.401306723	-2.1626852581	 0.097712
H	 1.1996195733	-2.8134242827	-1.0978452008	 0.105972
H	 2.2808605379	-1.4348869506	-1.2458704039	 0.103438
H	 1.6221016713	-2.8003069948	 2.6396327518	 0.126461
H	 2.4400014623	-3.5654534997	 1.1887405013	 0.112448
H	 3.505942712	-1.504094434	 0.7842716796	 0.231416
H	-0.5861065873	-1.312171316	 1.4052089896	 0.075076
H	 1.5982251503	-0.0460184019	 2.4423121787	 0.291027
63.1592	144.8327	211.3488	242.7956	261.6377	302.6711	351.8144	370.4978	438.6955	527.4581	551.417	584.0035	665.3941	749.37	790.1305	826.4237	854.5625	882.8123	938.3273	953.1386	967.6505	978.3043	992.1624	1042.245	1078.8681	1090.5094	1113.0833	1136.8736	1150.7518	1207.1199	1213.1248	1254.5267	1266.7462	1276.8936	1301.2999	1318.769	1336.9462	1353.5943	1384.5255	1391.5734	1413.5804	1456.5452	1482.6893	1492.7939	1501.6748	1506.7299	1507.716	2992.9173	3032.8095	3036.4212	3038.4386	3053.1267	3079.5314	3094.3704	3097.556	3103.4317	3120.1659	3190.2424	3508.0926	3648.1204
CC1CCC2(CN2)C1O	C[C@H]1CC[C@]2(CN2)[C@H]1O	
InChI=1S/C7H13NO/c1-5-2-3-7(4-8-7)6(5)9/h5-6,8-9H,2-4H2,1H3	InChI=1S/C7H13NO/c1-5-2-3-7(4-8-7)6(5)9/h5-6,8-9H,2-4H2,1H3/t5-,6-,7-/m0/s1
