14
gdb 129990	7.07935	0.87477	0.78211	5.9581	67.79	-0.2278	0.0061	0.234	1369.368	0.102778	-466.205915	-466.197719	-466.196775	-466.23929	29.217	
N	 0.004392626	 1.3108521906	 0.2148082935	-0.597928
C	-0.0331548502	-0.0521059726	 0.0327468642	 0.441708
N	-1.126480021	-0.7977168291	 0.0452807432	-0.381124
C	-0.6183726338	-2.047364808	-0.0967350611	 0.454872
O	-1.469957266	-3.0930468505	-0.1421770282	-0.206508
C	-0.9584553217	-4.3477743899	 0.0389904864	 0.116802
N	-1.7083840313	-5.3340137456	-0.1795669506	-0.426157
N	 0.6897160688	-2.1522406398	-0.2119824255	-0.324296
N	 1.0605689629	-0.8280350752	-0.115228655	-0.261686
H	 0.7004808624	 1.8069017217	-0.3231996745	 0.259864
H	-0.9129717498	 1.7253943842	 0.1278283483	 0.276618
H	 0.0791289359	-4.3427063239	 0.378885326	 0.135072
H	-1.2078549192	-6.1966549275	 0.0266973631	 0.235212
H	 2.0353195769	-0.5823624745	-0.1072541798	 0.277551
62.2991	86.5213	176.3441	241.6317	273.4153	329.0885	358.1403	428.4363	466.8756	546.6536	625.7026	732.0601	741.1742	780.047	827.3422	849.6459	1005.6887	1056.1968	1060.0978	1080.9885	1121.2009	1175.7112	1274.2474	1329.0723	1406.5693	1422.4249	1500.0607	1586.5775	1609.8935	1667.535	1749.9376	3114.805	3514.7895	3566.5754	3667.0298	3679.4156
NC1=NC(OC=N)=NN1	Nc1nc(O[CH][NH])n[nH]1	
InChI=1S/C3H5N5O/c4-1-9-3-6-2(5)7-8-3/h1,4H,(H3,5,6,7,8)	InChI=1S/C3H5N5O/c4-1-9-3-6-2(5)7-8-3/h1,4H,(H3,5,6,7,8)
