22
gdb 113971	3.89383	0.62615	0.576	4.2807	87.95	-0.2812	0.0386	0.3199	1957.254	0.193546	-367.226308	-367.216047	-367.215102	-367.262745	36.755	
C	 0.4322030347	 1.5491820304	 0.1973488336	-0.373423
C	-0.1730591213	 0.1774874759	-0.1246858685	-0.197863
C	 0.5073381158	-0.4865544158	-1.3058872571	 0.000088
C	 1.7567266361	-1.3168206265	-1.1244492939	-0.294935
C	 0.4684837262	-1.9749081066	-1.5699786391	-0.019541
C	-0.2581018671	-2.9556071889	-0.6749249145	-0.211659
C	 0.3436077208	-4.3736356239	-0.7937016046	-0.332308
C	-0.3343969057	-5.3469302619	 0.0590538805	 0.254728
N	-0.8834639783	-6.1006114916	 0.7418430993	-0.306464
H	 1.4960556546	 1.4609759813	 0.4407826062	 0.119186
H	 0.3437874387	 2.2296972403	-0.656626577	 0.115099
H	-0.0726489264	 2.0155622527	 1.0488193556	 0.113198
H	-0.1024852783	-0.4630439388	 0.7616395918	 0.097378
H	-1.2447395904	 0.2908654228	-0.3346462716	 0.100073
H	 0.4877031278	 0.1245016351	-2.2062011231	 0.084051
H	 2.571610839	-1.2174456006	-1.8330019752	 0.112497
H	 2.0795812894	-1.5012687618	-0.1031174716	 0.109925
H	 0.4272290743	-2.2469633351	-2.6230637242	 0.084215
H	-0.2075845468	-2.641656462	 0.3715598654	 0.120453
H	-1.3217246785	-2.9986138896	-0.9364445012	 0.120932
H	 0.2888086588	-4.7228438795	-1.8315193161	 0.149685
H	 1.4062071666	-4.3514396058	-0.5269372546	 0.154684
56.5775	68.0681	82.7712	99.0971	176.9069	214.353	245.8177	280.208	353.9322	399.0358	437.6224	518.5456	572.1003	746.6425	771.4103	798.3616	827.379	867.2262	922.7337	938.611	964.8273	992.2739	1020.889	1046.9497	1061.4459	1076.3465	1117.0531	1146.6992	1151.6739	1200.2026	1227.7507	1251.7205	1282.4572	1298.4812	1317.4119	1344.616	1368.0468	1404.7065	1412.7125	1435.1632	1467.5193	1482.7081	1490.3499	1497.7439	1500.266	1507.7047	2361.1775	3021.6	3032.7409	3038.5812	3046.7131	3058.5926	3075.6342	3095.9022	3101.2621	3107.1607	3116.941	3120.294	3128.7904	3206.4464
CCC1CC1CCC#N	CC[C@H]1C[C@H]1CCC#N	
InChI=1S/C8H13N/c1-2-7-6-8(7)4-3-5-9/h7-8H,2-4,6H2,1H3	InChI=1S/C8H13N/c1-2-7-6-8(7)4-3-5-9/h7-8H,2-4,6H2,1H3/t7-,8+/m0/s1
