21
gdb 126522	5.21139	0.73832	0.69036	2.4242	87.	-0.2265	0.0318	0.2583	1727.7088	0.183199	-383.313965	-383.304155	-383.303211	-383.349823	35.183	
C	-0.0149347273	 1.6035425404	 0.1931985934	-0.380896
C	 0.0075570212	 0.0752974735	 0.1224209827	-0.153501
C	-1.3921874206	-0.5308913519	-0.1060847918	-0.311244
C	-1.3922161081	-2.0249423274	-0.1907610324	 0.395529
C	-1.3924712571	-2.8912786111	-1.2662729414	-0.383511
C	-1.3449916559	-4.1932340332	-0.709124316	 0.355511
C	-1.3286948926	-5.5103552674	-1.4194247837	-0.490394
N	-1.3180087487	-4.1421790286	 0.6211388513	-0.28923
N	-1.3443844195	-2.8223799758	 0.9088081591	-0.257645
H	 0.9890479575	 2.0080316371	 0.3531542987	 0.11642
H	-0.4050694015	 2.0371762519	-0.7343175563	 0.117128
H	-0.6504528093	 1.9550496629	 1.0138366778	 0.114266
H	 0.6701794227	-0.2548056359	-0.6859796451	 0.108935
H	 0.4312506572	-0.3347131816	 1.0475637082	 0.096869
H	-2.0631630873	-0.202322948	 0.6993969874	 0.10289
H	-1.8121425143	-0.1297191658	-1.0347735982	 0.116269
H	-1.426835853	-2.6188871697	-2.3097114312	 0.091503
H	-0.4553012731	-5.6023837512	-2.0746896544	 0.124635
H	-1.2998235564	-6.3242384386	-0.6918169746	 0.137012
H	-2.218021829	-5.6391817103	-2.046341218	 0.124806
H	-1.3433818952	-2.5357660895	 1.8729962545	 0.264649
35.9451	82.0374	93.0961	102.3587	235.1622	238.1986	263.5835	308.4638	380.0773	402.5069	497.9223	628.8233	693.6419	706.3419	743.4436	774.3754	805.7845	870.1373	896.2788	988.5113	1010.0641	1038.7476	1052.3859	1065.8638	1081.3188	1109.488	1168.0979	1184.5212	1245.0797	1301.7362	1310.9534	1333.9841	1381.8676	1406.695	1411.5924	1431.2587	1468.5028	1483.2636	1484.5797	1488.1302	1492.8499	1498.0817	1510.2434	1512.327	1612.8102	3015.406	3028.76	3031.2256	3033.3262	3057.9513	3077.3713	3083.3645	3098.5246	3104.9593	3130.5827	3252.5242	3669.9345
CCCC1=CC(C)=NN1	CCCc1cc(C)n[nH]1	
InChI=1S/C7H12N2/c1-3-4-7-5-6(2)8-9-7/h5H,3-4H2,1-2H3,(H,8,9)	InChI=1S/C7H12N2/c1-3-4-7-5-6(2)8-9-7/h5H,3-4H2,1-2H3,(H,8,9)
