21
gdb 66182	3.38178	1.14022	1.10275	1.6679	83.62	-0.242	0.0193	0.2614	1217.9805	0.182835	-387.081055	-387.072396	-387.071451	-387.114496	33.456	
C	 0.1583106837	 1.362912837	 0.2051148793	-0.457133
C	-0.0979742402	-0.1553740903	 0.1427697554	 0.265592
C	 0.5085708706	-0.7850015097	-1.154527253	-0.258699
C	 1.8644201632	-1.4115460153	-0.74131628	-0.260662
C	 1.735796534	-1.5403516733	 0.7572741776	-0.074671
C	 0.6833830972	-0.8770095088	 1.2295072296	-0.104228
C	-1.5818847115	-0.4835485591	 0.2420390864	 0.058397
C	-2.5966969054	 0.3592945536	 0.888235562	-0.194264
O	-2.4976288616	 0.292035479	-0.5369360015	-0.246002
H	 1.2002121118	 1.5791036163	-0.0473278611	 0.114512
H	-0.4903835297	 1.8886630879	-0.5016123315	 0.134272
H	-0.0236380855	 1.7636536975	 1.2076033617	 0.109124
H	-0.1578911775	-1.5725108525	-1.5205055504	 0.103303
H	 0.6031364248	-0.0496418267	-1.9573020558	 0.103495
H	 2.047088341	-2.3713571178	-1.2377257056	 0.104285
H	 2.7170378788	-0.7691715283	-1.0022135532	 0.107282
H	 2.4550784893	-2.0811693014	 1.3632213927	 0.093478
H	 0.4096169322	-0.7926437196	 2.2764935793	 0.088895
H	-1.7870668338	-1.5561213379	 0.2078276285	 0.087618
H	-3.4844415642	-0.1050828528	 1.3162569455	 0.112179
H	-2.320651287	 1.3153492721	 1.3273407939	 0.113227
72.4432	83.439	194.4742	248.2217	269.1648	286.6092	360.6467	370.505	480.7743	481.6881	629.3086	717.7911	756.2425	788.5684	838.2948	858.3528	882.8474	918.1981	948.8999	960.8179	977.8725	993.5239	1000.355	1036.9254	1103.5092	1112.8046	1133.3299	1154.8596	1171.376	1183.2853	1199.9452	1228.8676	1255.1613	1301.5184	1319.7863	1330.0615	1375.8418	1399.984	1431.2615	1482.3443	1493.473	1501.2486	1507.3157	1530.4491	1687.7942	3011.9408	3036.1993	3045.725	3059.4486	3079.2989	3089.7732	3099.9741	3105.5589	3118.5827	3173.1125	3175.7587	3199.7545
CC1(CCC=C1)C1CO1	C[C@]1(CCC=C1)[C@H]1CO1	
InChI=1S/C8H12O/c1-8(7-6-9-7)4-2-3-5-8/h2,4,7H,3,5-6H2,1H3	InChI=1S/C8H12O/c1-8(7-6-9-7)4-2-3-5-8/h2,4,7H,3,5-6H2,1H3/t7-,8+/m1/s1
