16
gdb 91996	2.85886	1.53211	1.26421	5.75	67.92	-0.2811	0.0298	0.311	1003.2292	0.12555	-437.889069	-437.881604	-437.880659	-437.92102	28.866	
O	-0.095498317	 1.1718257445	 1.1871733544	-0.418746
C	-0.0344177838	 0.1618780933	 0.2134479454	 0.111647
C	 0.965094522	-0.9652366008	 0.5833109943	-0.277239
C	 0.1274808104	-1.9597154612	 1.3586706222	 0.040863
O	-0.7469734365	-1.329361167	 2.3197251184	-0.260886
C	-1.2920291876	-1.7410457425	 1.0595143649	 0.041092
C	-1.4018333433	-0.5995851243	 0.0511360391	-0.227086
C	-2.5763926818	 0.2479709198	 0.2280300295	 0.290439
N	-3.5270192925	 0.8912116772	 0.3584282433	-0.320046
H	-0.3395970911	 0.7413844951	 2.0181727189	 0.295859
H	 0.2360743855	 0.6589782528	-0.7199679948	 0.106704
H	 1.3730481645	-1.4521724702	-0.310527161	 0.114643
H	 1.7990101756	-0.5547237907	 1.1583012045	 0.132423
H	 0.5184616844	-2.9270656662	 1.6599708936	 0.113868
H	-2.0532227937	-2.5138433509	 1.1044507782	 0.123889
H	-1.4528840651	-1.044607529	-0.9515926006	 0.132577
103.1869	148.224	208.9235	312.9538	373.5398	404.2819	423.9521	510.8995	554.666	581.1408	684.2804	795.9281	812.6113	847.032	874.2862	878.9109	927.627	984.8159	1022.411	1038.9771	1060.3148	1096.1232	1127.2325	1205.2902	1209.3329	1239.9005	1263.6753	1304.477	1323.3549	1337.994	1358.4551	1430.8877	1455.5662	1473.6355	2364.7028	3030.5165	3044.9645	3099.9229	3107.991	3160.6634	3173.1933	3753.294
OC1CC2OC2C1C#N	O[C@H]1C[C@H]2O[C@H]2[C@H]1C#N	
InChI=1S/C6H7NO2/c7-2-3-4(8)1-5-6(3)9-5/h3-6,8H,1H2	InChI=1S/C6H7NO2/c7-2-3-4(8)1-5-6(3)9-5/h3-6,8H,1H2/t3-,4-,5+,6-/m0/s1
