14
gdb 29221	3.23093	1.4579	1.00593	4.8734	70.65	-0.2044	-0.0444	0.1599	1090.0247	0.102373	-470.038308	-470.030588	-470.029644	-470.07059	29.419	
N	 0.0761847911	 1.4311842058	 0.1981507012	-0.595914
C	 0.0144202729	 0.0389782655	 0.059589686	 0.110309
C	-1.1055546026	-0.7055357388	-0.0329312224	 0.01317
O	-1.0920680004	-2.05711757	-0.0730031601	-0.23241
C	 0.124486037	-2.7665127407	-0.0199390428	 0.422081
N	 0.1124831523	-4.0327089386	-0.0369690439	-0.536151
N	 1.2866262144	-2.0306781177	 0.0410228502	-0.378243
C	 1.2314867136	-0.7465339137	 0.0815708516	 0.428799
O	 2.3698861192	-0.038833551	 0.1302641351	-0.408736
H	 0.9298024217	 1.8193426394	-0.1800727054	 0.263581
H	-0.7315346475	 1.9150521465	-0.1707013719	 0.249491
H	-2.1112027681	-0.3040726785	-0.0753807283	 0.130817
H	-0.8469005833	-4.3722343552	-0.0851570799	 0.221421
H	 3.0930470396	-0.6846254129	 0.1258563506	 0.311784
74.5876	202.4205	214.2042	300.9662	347.9271	367.5722	376.7985	477.5135	556.7105	592.202	610.0983	689.1646	725.7868	741.5543	773.568	800.9215	832.805	848.7633	867.8546	1060.6116	1125.9595	1186.268	1240.3656	1296.4594	1311.0096	1385.9196	1510.7354	1635.0561	1644.4442	1732.3855	1754.2992	3205.5973	3512.8289	3547.2209	3644.721	3741.2938
NC1=COC(=N)N=C1O	NC1=C(N=C(OC1)[NH])O	
InChI=1S/C4H5N3O2/c5-2-1-9-4(6)7-3(2)8/h1H,5H2,(H2,6,7,8)	InChI=1S/C4H6N3O2/c5-2-1-9-4(6)7-3(2)8/h6H,1,5H2,(H,7,8)
