21
gdb 108104	3.32278	1.39402	1.34725	1.2381	80.73	-0.2266	0.092	0.3185	1083.7079	0.184933	-387.10302	-387.095417	-387.094472	-387.135008	31.008	
C	-0.1929895175	 1.5154607482	-0.0962174283	-0.374907
C	 0.1588920565	 0.0257209778	 0.0051856657	-0.300812
C	 0.7723155507	-0.5179029764	-1.2496789668	 0.492522
O	 2.008510066	 0.0825034232	-1.6235145912	-0.302525
C	 2.2826063955	-0.6541559259	-2.8252427918	 0.052451
C	 2.1786479944	-2.1224075846	-2.354677648	-0.227535
C	 0.8108367391	-1.9608816572	-1.7031117288	-0.16725
C	 0.0514179195	-0.908143161	-2.5239831392	-0.152391
C	 0.9849054992	-0.4668288049	-3.6438416412	-0.226578
H	 0.696670955	 2.1038311706	-0.3352088647	 0.134979
H	-0.932151281	 1.690757109	-0.8847546229	 0.113174
H	-0.6081245997	 1.8855853729	 0.8460030672	 0.106818
H	 0.8557903072	-0.1354475234	 0.837276686	 0.106294
H	-0.7387429647	-0.5610724913	 0.2320969615	 0.098926
H	 3.2206056933	-0.3175622355	-3.2620193782	 0.077043
H	 2.193375131	-2.8343141142	-3.1850909157	 0.09796
H	 2.9650207543	-2.3800841041	-1.6396780967	 0.103204
H	 0.3063670602	-2.7532960187	-1.1662776575	 0.083856
H	-1.0272799373	-0.9052717391	-2.6076720237	 0.083863
H	 0.834161212	 0.5752533322	-3.9393687766	 0.103425
H	 0.9490259162	-1.1059560876	-4.5308913093	 0.097485
90.3002	145.4366	204.5407	307.1007	354.637	416.7968	457.9326	569.6203	604.2613	692.4629	725.0307	779.0362	801.7309	863.0694	889.6888	891.9055	913.7706	943.6421	945.466	956.6276	977.8703	990.151	1012.9781	1038.9718	1053.7423	1085.8399	1105.7842	1143.9597	1167.411	1174.1931	1207.0326	1214.0907	1268.9037	1293.4609	1309.8101	1316.2942	1345.5527	1364.236	1406.6833	1448.2115	1474.731	1476.9357	1495.7392	1496.7898	1510.587	3027.6021	3040.2509	3053.7936	3059.2106	3065.3134	3104.4796	3106.953	3108.9474	3123.8612	3147.3001	3198.32	3206.9884
CCC12OC3CC1C2C3	CC[C@@]12O[C@H]3C[C@@H]1[C@@H]2C3	
InChI=1S/C8H12O/c1-2-8-6-3-5(9-8)4-7(6)8/h5-7H,2-4H2,1H3	InChI=1S/C8H12O/c1-2-8-6-3-5(9-8)4-7(6)8/h5-7H,2-4H2,1H3/t5-,6+,7-,8+
