15
gdb 124715	4.83423	1.05357	0.86959	6.0541	75.27	-0.2294	-0.0299	0.1995	1256.6253	0.113239	-450.149584	-450.141173	-450.140228	-450.183751	29.716	
C	 0.8122368579	 1.3452679753	 0.1974067251	-0.45417
C	-0.0163979662	 0.0982088627	 0.0233198337	 0.414662
N	-0.2910991495	-0.5875894197	 1.1533694305	-0.516302
N	-0.4935903887	-0.389345161	-1.0825522177	-0.404289
C	-0.287027048	 0.205761719	-2.2773308773	 0.500959
N	 0.3605768497	 1.2963912393	-2.6409755524	-0.373929
C	 0.1658273938	 1.3032195016	-3.9915839089	 0.036925
N	-0.5403647098	 0.3151617614	-4.4706935961	-0.132485
O	-0.8498599297	-0.4285544997	-3.3266035516	-0.205569
H	 1.7209654084	 1.2747640536	-0.4039381341	 0.174436
H	 0.268215242	 2.2099315941	-0.1883296871	 0.174437
H	 1.0742182088	 1.5107059887	 1.2452456549	 0.107706
H	 0.0367129612	-0.2844473846	 2.051461321	 0.269982
H	-0.8423194352	-1.4276361897	 1.0837275423	 0.273836
H	 0.5619702254	 2.068957959	-4.6439868622	 0.133801
29.6575	122.2945	151.9381	181.3505	189.571	358.8333	366.8878	415.9167	532.6177	539.3569	651.2931	662.8205	780.0189	794.7492	884.6043	929.4599	945.2323	982.7403	1014.8108	1027.1303	1056.1444	1138.7458	1211.198	1274.2791	1321.8751	1404.8482	1408.0791	1463.0232	1481.2789	1532.2694	1586.8272	1634.1042	1678.4652	3057.6276	3138.8417	3141.629	3247.3341	3611.8958	3756.302
CC(N)=NC1=NC=NO1	CC(=Nc1ncno1)N	
InChI=1S/C4H6N4O/c1-3(5)8-4-6-2-7-9-4/h2H,1H3,(H2,5,6,7,8)	InChI=1S/C4H6N4O/c1-3(5)8-4-6-2-7-9-4/h2H,1H3,(H2,5,6,7,8)
