21
gdb 79892	3.87655	1.34727	1.17238	1.4061	82.22	-0.2348	0.0952	0.33	1123.7548	0.185271	-387.050029	-387.042613	-387.041668	-387.081455	30.557	
C	-0.2344690064	 1.585117722	-0.0488644694	-0.438513
C	 0.0018754905	 0.0830964578	 0.0109251889	 0.043995
C	 1.1983133601	-0.5907245419	-0.7255060192	-0.1046
C	 2.1500153634	-0.0615623195	 0.3942834766	 0.004215
C	 3.4421511662	-0.8477898606	 0.614616334	-0.265652
C	 3.0889771889	-2.2603343053	 1.0803000312	-0.065576
O	 1.9636731063	-2.7672570624	 0.3764846839	-0.284484
C	 0.9475180219	-1.8176521073	 0.2035639915	 0.169796
C	 0.8603514654	-0.5646447369	 1.1392705641	-0.133145
H	 0.6709008348	 2.1774205389	 0.1039529339	 0.119024
H	-0.6518451728	 1.8651681816	-1.0223114153	 0.117563
H	-0.9590332163	 1.8879311366	 0.7151768257	 0.116905
H	-0.9489904003	-0.440251952	-0.1531418563	 0.061484
H	 1.3969505629	-0.6091736008	-1.7993145127	 0.062953
H	 2.3209917403	 1.0158719867	 0.4021021134	 0.061597
H	 4.0181395296	-0.8738829216	-0.3189686752	 0.102831
H	 4.0745095483	-0.3640315817	 1.3678998575	 0.096884
H	 3.9042821571	-2.9717268547	 0.92265764	 0.103637
H	 2.8638903039	-2.2407947512	 2.1582994956	 0.091391
H	 0.0187859386	-2.3694470043	 0.0336055173	 0.073699
H	 0.6554454776	-0.5425445931	 2.2117358644	 0.065994
184.1013	191.1351	244.3882	256.212	276.0495	444.1163	456.4334	530.401	554.2556	682.4235	754.3043	785.0034	797.9362	837.3333	875.5228	898.9219	926.1351	973.898	1009.3584	1020.3635	1041.791	1056.362	1086.9706	1092.879	1105.0394	1112.8572	1145.8903	1169.3317	1177.8843	1193.0386	1233.4254	1240.5975	1266.6455	1272.0163	1283.8536	1345.1017	1370.136	1403.0404	1416.6679	1424.4083	1440.411	1483.4567	1497.02	1503.1688	1511.0161	2978.0981	3017.5307	3024.6039	3034.3686	3064.8155	3071.3783	3084.8492	3085.672	3087.6228	3089.9715	3097.5712	3116.8298
CC1C2C3CCOC2C13	C[C@H]1[C@H]2[C@@H]3CCO[C@H]2[C@H]13	
InChI=1S/C8H12O/c1-4-6-5-2-3-9-8(6)7(4)5/h4-8H,2-3H2,1H3	InChI=1S/C8H12O/c1-4-6-5-2-3-9-8(6)7(4)5/h4-8H,2-3H2,1H3/t4-,5-,6-,7+,8+
