21
gdb 110718	3.00289	1.37339	1.31251	0.0707	85.47	-0.218	-0.0009	0.2171	1110.7027	0.184435	-349.946751	-349.938997	-349.938053	-349.978833	31.921	
C	-0.018244192	 1.5578447208	-0.0496755703	-0.382289
C	 0.0017064528	 0.0350491903	 0.1308521054	-0.210199
C	-1.3803324402	-0.5994822392	-0.0086191221	 0.069497
C	-2.0763881493	-0.6041517003	-1.4205454316	-0.12197
C	-1.1542168052	-1.6005168633	-2.14859843	-0.074006
C	-0.79826576	-2.5282039965	-1.2612645789	-0.073582
C	-1.4776932936	-2.1648265273	 0.0739073262	-0.132093
C	-2.9975221025	-2.3014883221	-0.1405028979	-0.082721
C	-3.3533622605	-1.372889485	-1.0278428029	-0.081347
H	 0.974749204	 1.9871863414	 0.1158099525	 0.110614
H	-0.3336170295	 1.8373354349	-1.0605219169	 0.115725
H	-0.7085495953	 2.0351905276	 0.6550775738	 0.11211
H	 0.7022382942	-0.4139660332	-0.5795748034	 0.100223
H	 0.3818351716	-0.2019565008	 1.1338606235	 0.089558
H	-2.0497661698	-0.1451773655	 0.7302888749	 0.067834
H	-2.2327353222	 0.3542250353	-1.9152900693	 0.056743
H	-0.9070332415	-1.5485775558	-3.2004064955	 0.094711
H	-0.1941458185	-3.4114147636	-1.4194178649	 0.095239
H	-1.0733615885	-2.6473689827	 0.9643595579	 0.054252
H	-3.6159722264	-3.0534168826	 0.3309085901	 0.096122
H	-4.3313336777	-1.1878650325	-1.4515403207	 0.095579
78.449	174.9657	199.3438	292.3811	357.8676	441.014	455.8608	528.9263	561.8759	678.3161	723.4657	731.5933	762.2333	811.6622	824.6354	858.9915	888.4883	911.614	920.3793	925.6697	940.7046	942.3796	956.4333	979.178	1063.7491	1075.7264	1098.8882	1132.6554	1146.8546	1168.0712	1230.0007	1239.5665	1260.418	1267.8249	1290.0065	1295.6699	1327.9027	1355.5837	1397.8045	1411.7935	1488.458	1499.795	1507.3096	1617.2746	1657.5032	3017.806	3030.1105	3044.2133	3076.247	3100.251	3101.7326	3108.6743	3116.6054	3206.4883	3208.2727	3232.7013	3235.3646
CCC1C2C=CC1C=C2	CC[C@H]1[C@H]2C=C[C@@H]1C=C2	
InChI=1S/C9H12/c1-2-9-7-3-4-8(9)6-5-7/h3-9H,2H2,1H3	InChI=1S/C9H12/c1-2-9-7-3-4-8(9)6-5-7/h3-9H,2H2,1H3/t7-,8+,9-
