19
gdb 106604	2.48406	1.58558	1.31826	2.3872	75.33	-0.2239	-0.0172	0.2067	1065.4553	0.159103	-423.022359	-423.014066	-423.013122	-423.055215	31.737	
C	 0.0846750062	 1.5555173373	 0.0920481215	-0.388978
C	-0.0987517665	 0.0395174427	-0.0597741565	-0.299618
C	 0.7114333706	-0.5293418777	-1.189558485	 0.33481
C	 0.8922963292	-2.0435858848	-1.5247868892	-0.305288
C	 2.0444752744	-1.518062443	-2.4501635789	-0.195103
C	 1.2318418383	-0.6272686613	-3.4021015968	-0.082627
O	 0.3252275366	 0.019179801	-2.4699314951	-0.317976
C	 2.2602110877	-0.4992905733	-1.3051338046	 0.415376
O	 3.184063205	-0.0550073584	-0.6936675723	-0.323708
H	 1.1307382514	 1.799243263	 0.298789273	 0.139334
H	-0.2106396313	 2.0729916571	-0.8240066736	 0.135477
H	-0.524513636	 1.9378124054	 0.9158716986	 0.110658
H	 0.2005746077	-0.4717814988	 0.8624980642	 0.108335
H	-1.1552741754	-0.2018246684	-0.2291684069	 0.110133
H	 1.2466372396	-2.6433537359	-0.6843988307	 0.121081
H	 0.0426354148	-2.5119467145	-2.0262500859	 0.116714
H	 2.8340197662	-2.1439737126	-2.8577048616	 0.096042
H	 1.8420668658	 0.1229330351	-3.9179507262	 0.116143
H	 0.6562603656	-1.1928440031	-4.1439582941	 0.109195
86.0821	139.7466	175.4383	199.7509	272.3924	296.2725	396.1672	444.022	488.2252	599.0029	655.2539	716.1842	773.8117	786.4549	851.4744	871.9561	921.2895	934.3713	958.4464	983.6887	994.142	1028.1071	1044.5208	1082.2776	1113.5102	1147.2463	1168.8009	1188.0313	1226.0987	1248.3029	1296.0327	1326.1797	1360.0229	1398.5877	1410.0693	1474.7101	1476.3605	1497.5499	1512.9784	1530.8473	1901.6678	3024.0523	3031.4543	3047.986	3066.5101	3069.1206	3071.3791	3118.6117	3129.4499	3142.5821	3160.9546
CCC12CC(CO1)C2=O	CC[C@@]12C[C@@H](CO1)C2=O	
InChI=1S/C7H10O2/c1-2-7-3-5(4-9-7)6(7)8/h5H,2-4H2,1H3	InChI=1S/C7H10O2/c1-2-7-3-5(4-9-7)6(7)8/h5H,2-4H2,1H3/t5-,7-/m0/s1
