14
gdb 128966	4.09759	1.66216	1.18249	4.4952	77.33	-0.2208	-0.0474	0.1734	950.2815	0.1067	-395.788196	-395.782379	-395.781435	-395.818262	23.66	
N	 0.0095671274	 1.3232368753	 0.0095855343	-0.158018
C	 1.2390404966	 1.8873795906	 0.0007038876	-0.177534
C	 2.1343147703	 0.818661873	-0.0141046519	 0.232341
C	 3.5356226914	 0.6314913963	-0.0289094635	-0.263757
C	 3.9886749013	-0.6627172675	-0.0406577444	 0.00093
N	 3.1918980577	-1.7768658704	-0.0391236216	-0.280751
C	 1.8899789194	-1.624806385	-0.025491648	-0.053432
C	 1.2924089514	-0.3398941128	-0.0123800681	 0.266824
N	-0.0150839734	-0.0144995008	 0.0022958189	-0.324497
H	-0.871380291	 1.8138181114	 0.0209916714	 0.285292
H	 1.3737041064	 2.9566064088	 0.0054110335	 0.148208
H	 4.2286712147	 1.4653572012	-0.0310055626	 0.098704
H	 5.0553835022	-0.8666277517	-0.0522745407	 0.10589
H	 1.2701190655	-2.5189736785	-0.024449505	 0.1198
219.8856	253.3671	409.739	442.5118	562.846	606.5135	625.7482	633.5409	700.7995	731.5039	796.9716	813.7237	836.1912	908.3786	953.3982	960.2733	978.2408	1042.2375	1081.9362	1196.5967	1210.4496	1261.6702	1310.921	1327.8874	1397.9968	1402.4217	1486.2706	1496.1123	1520.7486	1575.0741	1659.5711	3152.4135	3168.1769	3194.8402	3270.7131	3646.0532
N1C=C2C=CN=CC2=N1	[nH]1cc2ccncc2n1	
InChI=1S/C6H5N3/c1-2-7-4-6-5(1)3-8-9-6/h1-4H,(H,8,9)	InChI=1S/C6H5N3/c1-2-7-4-6-5(1)3-8-9-6/h1-4H,(H,8,9)
