19
gdb 31014	2.9933	1.16512	0.87852	3.8792	80.48	-0.2037	0.0298	0.2336	1340.7254	0.159283	-419.260218	-419.250514	-419.24957	-419.295125	34.772	
C	-0.0897441134	 1.4871799455	 0.061155316	-0.500117
C	-0.0242788898	 0.0001259526	-0.0429653661	 0.322123
N	-0.1088663015	-0.70338335	-1.1494075956	-0.342792
C	 0.0047875593	-2.0285091764	-0.7725852434	 0.138576
C	-0.055913683	-3.1289570275	-1.7903649741	-0.173034
O	 0.937083957	-4.1376541343	-1.5985360011	-0.412721
C	 0.1684264459	-2.1303783522	 0.5894800478	 0.236923
C	 0.3236075454	-3.3013271897	 1.5009674777	-0.520329
N	 0.145889319	-0.8224835764	 1.0379843917	-0.329461
H	 0.8264232341	 1.9104665936	 0.4899223887	 0.128112
H	-0.2223028823	 1.8990764069	-0.9399969917	 0.157368
H	-0.9287902842	 1.8184430856	 0.684449911	 0.129537
H	-1.010057446	-3.6670267298	-1.7453140497	 0.112588
H	 0.0127231699	-2.6725331281	-2.7874816162	 0.108832
H	 1.7884621651	-3.6879863452	-1.5708156476	 0.278236
H	 1.1801307178	-3.1839084398	 2.1765330504	 0.119356
H	-0.5643366239	-3.4619226931	 2.1258059816	 0.126519
H	 0.4892589291	-4.1979172807	 0.9015661458	 0.164568
H	 0.2569128615	-0.5305631307	 1.9952865046	 0.255716
60.9573	82.4608	153.82	166.3682	190.1569	232.5641	259.296	302.1334	365.2591	395.6954	470.6231	529.8103	610.8739	654.0115	691.7493	747.9864	783.6231	971.0744	975.6505	1020.6087	1034.544	1059.8228	1063.2102	1068.4044	1175.5952	1205.8481	1221.3754	1282.3706	1364.0839	1400.7955	1409.0608	1421.7988	1429.6113	1442.14	1482.5891	1493.3027	1496.7568	1498.6412	1505.4762	1573.2508	1635.677	3011.9188	3015.2481	3026.4986	3055.843	3059.5687	3073.991	3141.0207	3147.6979	3649.9044	3806.3236
CC1=NC(CO)=C(C)N1	Cc1nc(CO)c(C)[nH]1	
InChI=1S/C6H10N2O/c1-4-6(3-9)8-5(2)7-4/h9H,3H2,1-2H3,(H,7,8)	InChI=1S/C6H10N2O/c1-4-6(3-9)8-5(2)7-4/h9H,3H2,1-2H3,(H,7,8)
