16
gdb 51783	2.37939	1.36906	0.94408	5.943	66.67	-0.2472	-0.0402	0.207	1200.4033	0.122225	-475.014899	-475.005952	-475.005007	-475.050152	30.439	
O	 0.2023019271	 0.1064376168	-0.6068096019	-0.264214
C	 0.2897742507	 1.2941786172	-0.6029302109	 0.178619
O	 1.0531748528	 1.9591093258	 0.2999678647	-0.190254
C	 1.095043389	 3.3738414695	 0.2149255047	 0.109362
C	 1.6365398003	 4.003251961	 1.5154543139	-0.184318
N	 2.9346040448	 4.2701039073	 0.8472513625	-0.322631
C	 2.3707315909	 3.9553738784	-0.4788691583	-0.102637
C	 3.1855450555	 2.9833444827	-1.311423824	 0.163076
O	 2.7554238208	 2.4591219698	-2.3062488949	-0.247977
H	-0.2371227498	 1.9706956855	-1.3008493195	 0.087752
H	 0.1437737565	 3.7597458914	-0.1587419334	 0.102546
H	 1.0744167913	 4.8954600541	 1.8166328555	 0.107759
H	 1.7040222154	 3.3150559641	 2.3629222649	 0.133102
H	 3.2954767672	 5.2096146213	 0.9598987598	 0.229116
H	 2.1140505199	 4.8176684011	-1.1112796339	 0.10179
H	 4.2044041375	 2.781122064	-0.9152746892	 0.098908
46.1723	67.5321	95.959	133.1191	191.0525	234.6187	292.995	384.6809	466.2301	562.5794	638.1831	655.4206	827.2509	895.7348	919.7848	978.47	996.1228	1035.0876	1039.8858	1060.7595	1111.1197	1139.6419	1149.2172	1175.3057	1221.0412	1253.0346	1302.3657	1341.9155	1374.9607	1387.2286	1401.2242	1440.2696	1506.604	1824.0076	1877.0737	2904.729	2970.9031	3000.0167	3026.7415	3079.8667	3090.9086	3550.7939
O=COC1CNC1C=O	O=CO[C@H]1CN[C@H]1C=O	
InChI=1S/C5H7NO3/c7-2-4-5(1-6-4)9-3-8/h2-6H,1H2	InChI=1S/C5H7NO3/c7-2-4-5(1-6-4)9-3-8/h2-6H,1H2/t4-,5-/m0/s1
