19
gdb 18265	4.24558	1.56509	1.29824	1.8345	71.33	-0.2302	0.0772	0.3074	991.5285	0.167159	-365.037174	-365.029597	-365.028653	-365.069085	28.895	
C	 0.0961742093	 1.335168258	 0.1103172967	-0.233445
O	-0.1797440993	-0.024614399	-0.1279882139	-0.247647
C	 0.5592892241	-0.579533295	-1.1948089615	 0.182198
C	 2.0673457674	-0.8020409859	-0.9028549601	-0.256422
C	 2.4786403578	-2.0021588612	-1.7872618941	-0.215124
C	 1.2001459324	-2.8156702942	-1.914452352	-0.027696
N	 0.5262813928	-3.0120568473	-0.6142898423	-0.329585
C	 0.0466589963	-1.9625359227	-1.5413357861	-0.075173
H	 1.1297834569	 1.5011453142	 0.4485217705	 0.106206
H	-0.0726077871	 1.9491396148	-0.7897888862	 0.097712
H	-0.5847193861	 1.6711977271	 0.896459186	 0.124735
H	 0.4422475166	 0.0602252614	-2.0887781611	 0.056009
H	 2.6743903355	 0.0855867936	-1.0948191644	 0.090667
H	 2.1623871546	-1.0626698762	 0.1536642115	 0.130815
H	 2.7919425966	-1.6685477441	-2.7838310247	 0.097038
H	 3.3062839505	-2.5739426959	-1.3555301669	 0.104436
H	 1.1163587172	-3.586807199	-2.6738030732	 0.081617
H	-0.099748232	-3.8107555188	-0.6784099131	 0.229886
H	-0.9311583934	-2.0682431498	-1.9989516651	 0.083772
94.1509	133.2362	201.8849	235.582	306.0946	387.904	419.4035	505.7697	626.2256	660.0919	802.7467	831.3008	866.8488	884.4125	911.6127	942.5424	986.2209	1009.982	1036.2549	1079.8523	1083.3721	1124.1543	1156.7797	1168.4202	1183.0596	1204.0834	1228.5598	1230.2448	1260.355	1305.1793	1326.9245	1353.851	1360.8648	1404.7368	1431.7421	1478.4698	1481.0317	1489.4562	1496.3287	1511.1068	2934.122	2967.7594	3018.6568	3035.6877	3071.2172	3080.143	3109.8674	3122.8665	3157.0237	3171.3066	3505.0475
COC1CCC2NC12	CO[C@H]1CC[C@H]2N[C@@H]12	
InChI=1S/C6H11NO/c1-8-5-3-2-4-6(5)7-4/h4-7H,2-3H2,1H3	InChI=1S/C6H11NO/c1-8-5-3-2-4-6(5)7-4/h4-7H,2-3H2,1H3/t4-,5+,6-/m1/s1
