21
gdb 64150	3.21089	1.04107	0.973	4.2448	79.14	-0.2385	-0.0099	0.2286	1310.0907	0.181367	-424.257999	-424.248546	-424.247602	-424.292496	35.723	
C	-0.4273182543	 1.4505457657	-0.0053054192	-0.448886
C	 0.1487845742	 0.0376029085	 0.040706308	 0.385105
O	-0.8946271362	-0.9159265681	 0.2961557255	-0.46947
C	 0.935034308	-0.375155878	-1.2166256147	-0.241566
C	 1.6867014623	-1.6425001632	-0.7791870006	-0.234969
C	 2.0356241641	-1.4129179883	 0.7265413737	-0.05517
C	 1.1728164953	-0.1910888516	 1.1652461255	-0.252135
C	 1.7045731778	-2.6451153357	 1.5389240942	 0.145931
O	 2.5017675868	-3.3092342223	 2.15046177	-0.258697
H	 0.3579551853	 2.1969245283	-0.1607826214	 0.115957
H	-1.1474122579	 1.5497670339	-0.8263409854	 0.106231
H	-0.9484529063	 1.6808490881	 0.9284305952	 0.126949
H	-1.5092672775	-0.8894013215	-0.4453398365	 0.276353
H	 0.2813313972	-0.5364516346	-2.0811839904	 0.08741
H	 1.6393294312	 0.4214311083	-1.4849941978	 0.100048
H	 1.0281840042	-2.511617668	-0.8803822608	 0.110204
H	 2.5800043956	-1.842559126	-1.3745240723	 0.108131
H	 3.1006117336	-1.2109266859	 0.8607063473	 0.08627
H	 1.8094932665	 0.6906688536	 1.2768333103	 0.105405
H	 0.6584206577	-0.3479529214	 2.1179840034	 0.11658
H	 0.6209935525	-2.905070352	 1.5224333361	 0.09032
48.046	78.8596	178.4457	234.6018	252.4574	301.5661	326.5768	348.0672	358.0023	400.8396	419.0105	463.3377	593.0079	668.6571	777.7517	812.1128	864.2047	900.1228	919.9123	937.2437	979.2548	990.0484	1008.4933	1062.5134	1065.0966	1106.7383	1122.1218	1179.7751	1196.9311	1227.954	1274.773	1286.7787	1298.72	1309.8795	1348.6089	1358.0979	1385.7232	1408.1596	1422.7044	1473.1656	1481.9676	1490.9588	1494.3949	1497.2837	1830.7887	2877.4354	3026.5303	3032.9081	3048.9039	3058.0789	3074.6364	3082.3202	3093.4922	3104.2599	3110.8559	3116.346	3801.3938
CC1(O)CCC(C1)C=O	C[C@@]1(O)CC[C@@H](C1)C=O	
InChI=1S/C7H12O2/c1-7(9)3-2-6(4-7)5-8/h5-6,9H,2-4H2,1H3	InChI=1S/C7H12O2/c1-7(9)3-2-6(4-7)5-8/h5-6,9H,2-4H2,1H3/t6-,7+/m0/s1
