23
gdb 123203	10.52485	0.38907	0.38051	1.4601	90.5	-0.2527	0.0576	0.3103	2813.4495	0.202676	-388.252754	-388.241303	-388.240359	-388.290728	39.662	
C	-0.0346392968	 1.4095566531	 0.0436345892	-0.227096
O	-0.0077194871	 0.0041401095	 0.0205666306	-0.229962
C	 0.6412138106	-0.5154012984	-1.1192177305	-0.04908
C	 0.6148901361	-2.0360671458	-1.0457877021	-0.203197
C	 1.2986327686	-2.7003079474	-2.2446940954	-0.183132
C	 1.2733619059	-4.2299403834	-2.1728709488	-0.17385
C	 1.9637779446	-4.8904983288	-3.3831621525	-0.356733
C	 1.9472763003	-6.3471864005	-3.3267423975	 0.292818
C	 1.9194714386	-7.546866208	-3.2557195146	-0.436857
H	 0.980030148	 1.8397754628	 0.0521940848	 0.101268
H	-0.5721714859	 1.8244338615	-0.8244969573	 0.101267
H	-0.5531724351	 1.7135106685	 0.9563920915	 0.125812
H	 0.1391690931	-0.1659663391	-2.0392569772	 0.081353
H	 1.6829547924	-0.1505880268	-1.1673060046	 0.081352
H	 1.100884927	-2.3487598602	-0.1136883093	 0.107158
H	-0.4294511121	-2.3639854183	-0.9779889477	 0.107157
H	 0.8120907138	-2.3722808034	-3.1740322095	 0.09583
H	 2.3406438789	-2.3570181282	-2.3107375439	 0.095831
H	 1.7651732874	-4.5691896778	-1.2537197675	 0.110706
H	 0.2375387207	-4.5845065248	-2.11675734	 0.110699
H	 1.4762356322	-4.5559669841	-4.3086645796	 0.128104
H	 3.0026416593	-4.5399605709	-3.4466201486	 0.128089
H	 1.9002789696	-8.6068999495	-3.2039275594	 0.192464
43.1482	66.0556	75.1808	99.3968	144.6344	149.7945	150.0081	240.7859	256.8406	286.4481	350.6688	416.3465	493.2964	539.1539	614.3991	634.0883	736.6177	766.746	845.8195	946.0994	967.2974	980.4543	1013.2981	1048.2473	1065.4289	1096.2146	1134.5005	1166.0351	1177.6834	1213.7899	1220.3416	1256.1319	1267.6443	1308.1722	1316.6163	1324.8414	1331.0484	1373.1655	1400.4864	1429.1978	1473.6387	1482.6121	1485.9181	1486.9869	1493.9932	1503.8123	1511.4946	1533.1412	2238.7666	2936.71	2961.3098	2966.1011	3003.4798	3006.7289	3013.3497	3031.0798	3031.48	3038.9376	3040.3991	3072.9735	3085.0335	3111.5451	3508.9985
COCCCCCC#C	COCCCCCC#C	
InChI=1S/C8H14O/c1-3-4-5-6-7-8-9-2/h1H,4-8H2,2H3	InChI=1S/C8H14O/c1-3-4-5-6-7-8-9-2/h1H,4-8H2,2H3
