25
gdb 102498	1.87306	1.36432	1.04038	2.0819	84.97	-0.2475	0.0657	0.3132	1346.4563	0.22575	-426.620699	-426.609159	-426.608214	-426.656981	42.757	
C	 0.4617208688	 1.2533760537	-0.268368586	-0.24395
O	 0.0544802437	 0.21182157	 0.5946436878	-0.262496
C	-1.2847561876	-0.2570848556	 0.3886172152	 0.079364
C	-1.2406126029	-1.3303706986	-0.7123378193	-0.081132
O	-0.2706178111	-2.3277050608	-0.459360204	-0.416081
C	-1.8639165023	-0.6700050727	 1.7702737056	 0.26773
C	-1.9497165506	 0.6012976377	 2.6392138403	-0.412424
C	-3.2823934158	-1.2404787871	 1.5858633085	-0.425116
C	-0.9774072073	-1.7076741684	 2.4858268696	-0.420337
H	 1.4881543996	 1.5126163736	 0.0035443018	 0.129456
H	 0.4452880521	 0.9573300555	-1.3269276601	 0.112864
H	-0.1731427502	 2.1433217244	-0.1483007029	 0.112815
H	-1.9056778635	 0.5733879741	 0.0142826495	 0.061891
H	-2.2086704687	-1.8283383204	-0.8124976629	 0.11092
H	-1.0406471477	-0.8301114064	-1.6749123711	 0.081898
H	 0.4977486832	-1.8536904026	-0.1160860054	 0.28753
H	-2.6293314471	 1.3403299363	 2.1987273499	 0.099355
H	-2.32725133	 0.3585893619	 3.6379704283	 0.106937
H	-0.9662767103	 1.0645587725	 2.749368273	 0.122954
H	-3.2734913924	-2.2142825786	 1.0877953291	 0.121791
H	-3.7593185595	-1.3777951478	 2.5618254509	 0.112494
H	-3.9181643135	-0.5641122357	 1.0020269514	 0.104418
H	 0.031035394	-1.314595824	 2.6414734965	 0.11772
H	-1.4013150254	-1.9444115781	 3.4679421112	 0.099029
H	-0.8963454155	-2.631657353	 1.9102164933	 0.13237
59.1026	70.8417	131.1082	172.5557	200.8497	231.4574	254.9492	275.1804	285.3522	291.5628	334.7224	351.3312	358.0311	399.567	452.9304	491.8279	510.68	667.1004	772.2915	855.8935	897.8843	935.283	941.2388	961.5326	986.6377	1028.0444	1063.2767	1072.1906	1105.5217	1125.9622	1184.3494	1205.4532	1223.6642	1233.0604	1252.428	1285.7379	1338.1627	1369.3532	1389.9847	1392.1546	1399.8119	1431.3681	1435.0751	1477.3791	1481.342	1486.814	1488.926	1495.374	1502.1919	1504.9489	1509.5594	1522.3627	1527.9058	2954.7938	2970.8747	2989.0854	3024.098	3029.1168	3038.3886	3039.4511	3087.8905	3091.3308	3093.1592	3105.5241	3108.0388	3111.9548	3121.2327	3135.1559	3770.189
COC(CO)C(C)(C)C	CO[C@@H](CO)C(C)(C)C	
InChI=1S/C7H16O2/c1-7(2,3)6(5-8)9-4/h6,8H,5H2,1-4H3	InChI=1S/C7H16O2/c1-7(2,3)6(5-8)9-4/h6,8H,5H2,1-4H3/t6-/m0/s1
