23
gdb 59382	4.03935	0.7631	0.69474	3.139	87.27	-0.2439	-0.0177	0.2263	1685.3835	0.203694	-388.300637	-388.290387	-388.289443	-388.336539	37.466	
C	 0.0486279956	 1.4863940046	 0.2188224397	-0.391546
C	-0.0652598746	-0.0335028672	 0.0398933523	 0.015624
C	-1.5307397162	-0.4873409728	 0.0783597082	-0.391549
C	 0.6206690074	-0.4907815578	-1.2471065081	 0.081252
C	 2.1608927607	-0.3190450436	-1.3721737512	-0.271889
C	 2.2694274788	-1.7580521567	-1.9777634717	-0.091086
C	 0.8037747039	-2.0150868994	-1.4928553476	-0.271876
C	 2.390476221	-1.7484594497	-3.4754798207	 0.172618
O	 3.2110319969	-2.3604521045	-4.1105722149	-0.259082
H	 1.0923750919	 1.8166233384	 0.211758103	 0.115624
H	-0.4741047068	 2.0148261621	-0.5874643451	 0.112699
H	-0.3962147543	 1.8063174581	 1.1666608984	 0.112638
H	 0.4615645659	-0.514716812	 0.8782004153	 0.066091
H	-2.1047945219	-0.0230599466	-0.7324999425	 0.1127
H	-1.6200662372	-1.5731146049	-0.0294591512	 0.115624
H	-2.0061466421	-0.2055953252	 1.0234740109	 0.112639
H	 0.1164118512	-0.0262969905	-2.1041796739	 0.069287
H	 2.5314324061	 0.5050366909	-1.9877700747	 0.10757
H	 2.6538113154	-0.2681083625	-0.3969436229	 0.110212
H	 3.0449821601	-2.407723753	-1.5693142712	 0.089337
H	 0.7960471999	-2.5898683966	-0.5621546112	 0.110216
H	 0.1269955696	-2.4998948808	-2.2015845764	 0.107579
H	 1.6347845786	-1.1065832703	-3.9914872744	 0.065317
49.6142	67.4508	93.0965	161.0162	227.1312	230.6005	255.737	311.2028	318.9281	342.6624	425.2746	433.2541	500.5545	670.967	812.2026	842.9397	877.7106	895.7126	896.8836	928.769	957.2374	976.1443	985.64	1004.9792	1039.2568	1090.6863	1100.8297	1150.9018	1185.1142	1200.5495	1213.4231	1236.2717	1259.3886	1273.0347	1285.4459	1304.4402	1329.6608	1349.6313	1390.8135	1399.6557	1421.375	1435.6182	1471.6322	1486.5431	1492.376	1492.9436	1505.1611	1509.7684	1829.9803	2831.1049	2983.568	3020.6466	3024.4367	3029.5944	3050.7002	3053.5718	3089.3834	3094.6891	3097.7288	3100.1723	3102.4782	3103.5686	3109.6305
CC(C)C1CC(C1)C=O	CC(C)[C@H]1C[C@@H](C1)C=O	
InChI=1S/C8H14O/c1-6(2)8-3-7(4-8)5-9/h5-8H,3-4H2,1-2H3	InChI=1S/C8H14O/c1-6(2)8-3-7(4-8)5-9/h5-8H,3-4H2,1-2H3/t7-,8-
