17
gdb 11027	4.20165	1.81725	1.48949	2.7975	68.66	-0.2329	0.0046	0.2374	875.452	0.143162	-363.843179	-363.835954	-363.83501	-363.874168	28.57	
C	-0.1205770324	 1.5059011811	 0.0511975227	-0.498648
C	 0.1117906007	 0.0198710151	-0.0108155904	 0.312966
N	-0.7045937443	-0.9033154471	 0.8442761631	-0.383627
C	 0.7614156241	-0.7829771262	 1.0498318059	-0.130098
C	 1.4965610981	-1.9620151203	 0.4003471693	 0.100883
O	 1.0034028729	-3.2188790291	 0.8332661114	-0.438415
C	 1.2500404706	-1.7193530861	-1.0852125628	-0.119054
C	 0.4840140347	-0.6513335144	-1.3039752332	-0.108603
H	 0.7354987994	 2.0522029369	-0.3588040848	 0.131456
H	-1.005715522	 1.7913184785	-0.5288792843	 0.128167
H	-0.2713776611	 1.8407408827	 1.0826364873	 0.116509
H	-1.1765894453	-0.3562567392	 1.5635098848	 0.22588
H	 1.1267697507	-0.3466595573	 1.9729856667	 0.087367
H	 2.5640266507	-1.9585162101	 0.6486494988	 0.085645
H	 0.0402851728	-3.1274670732	 0.7975045437	 0.287592
H	 1.6033860032	-2.4181341042	-1.8347254965	 0.103473
H	 0.1280097071	-0.3030723571	-2.2674387518	 0.098507
138.9074	209.9651	221.8187	275.7833	360.216	420.5594	496.647	524.5683	551.8295	631.9603	714.3865	768.1264	828.0583	848.6119	880.6283	918.4356	959.2824	983.1494	997.2868	1033.2061	1058.0045	1077.7214	1112.4353	1125.6786	1157.1176	1268.3251	1280.1852	1319.2737	1322.6835	1368.9739	1414.3859	1429.5497	1447.4149	1484.6823	1500.7034	1673.0562	3026.9898	3046.9413	3090.5064	3101.3638	3171.2765	3183.8685	3211.9904	3466.8218	3737.5827
CC12NC1C(O)C=C2	C[C@]12N[C@H]1[C@@H](O)C=C2	
InChI=1S/C6H9NO/c1-6-3-2-4(8)5(6)7-6/h2-5,7-8H,1H3	InChI=1S/C6H9NO/c1-6-3-2-4(8)5(6)7-6/h2-5,7-8H,1H3/t4-,5-,6+/m0/s1
