22
gdb 9846	3.20391	1.31366	1.22727	1.2529	77.96	-0.235	0.0673	0.3023	1151.1779	0.197694	-350.196132	-350.186153	-350.185208	-350.230627	36.819	
C	-0.1708823859	 1.5347722492	-0.0759037938	-0.394413
C	-0.0849271687	 0.0070723214	-0.1447171226	-0.165868
C	 0.8706987587	-0.5308287463	-1.2285113319	 0.008599
C	 2.3378388222	-0.1526324164	-0.9742501945	-0.398875
C	 0.7256149244	-2.0381847831	-1.3683914021	 0.454767
O	 1.0864097722	-2.6675376932	-0.161758136	-0.482382
C	-0.3920236992	-2.6125787049	-2.1964947488	-0.339107
C	 1.0518643182	-2.7053096224	-2.6764495574	-0.343943
H	 0.784341269	 1.988887877	 0.2049475604	 0.117425
H	-0.468794112	 1.9608793061	-1.0412947639	 0.107775
H	-0.9117830329	 1.8495941637	 0.6659413719	 0.109955
H	 0.2225465353	-0.3954836743	 0.8268804143	 0.110471
H	-1.085926713	-0.3985468428	-0.3377534016	 0.090627
H	 0.5648277776	-0.0997044039	-2.1922648306	 0.063357
H	 2.6817411217	-0.5714535004	-0.0242477361	 0.129557
H	 2.982958124	-0.5465010053	-1.7662066518	 0.108452
H	 2.4737816467	 0.9317610974	-0.9427962673	 0.107777
H	 1.0273857814	-3.6203536803	-0.2772128496	 0.279272
H	-0.8641786889	-3.5259954447	-1.846939669	 0.104356
H	-1.066832577	-1.9375521572	-2.7131117425	 0.1141
H	 1.3586439247	-2.0919679261	-3.5175984915	 0.114549
H	 1.5301592114	-3.6800281837	-2.6448199156	 0.103548
76.3035	84.4665	136.8546	173.4917	211.0235	216.9499	274.4429	289.1565	320.3755	356.2411	431.5381	499.0676	538.4355	731.2269	763.8465	781.1793	836.5627	880.8412	918.3462	950.4572	970.4784	978.0089	993.5016	1038.2131	1047.1593	1064.1974	1074.8216	1148.7044	1182.9449	1184.9384	1192.8156	1262.945	1292.722	1343.4605	1354.4008	1377.6117	1406.3144	1412.6489	1437.5251	1462.2508	1485.4865	1493.5192	1500.3952	1502.6997	1509.2893	1511.6967	3004.3409	3027.5897	3028.6697	3042.1114	3068.1503	3095.1705	3102.276	3108.4789	3117.3593	3121.7681	3122.509	3196.0842	3211.3825	3832.3147
CCC(C)C1(O)CC1	CC[C@@H](C)C1(O)CC1	
InChI=1S/C7H14O/c1-3-6(2)7(8)4-5-7/h6,8H,3-5H2,1-2H3	InChI=1S/C7H14O/c1-3-6(2)7(8)4-5-7/h6,8H,3-5H2,1-2H3/t6-/m1/s1
