12
gdb 129128	2.64015	1.88496	1.23485	2.3794	66.88	-0.2694	-0.1087	0.1607	930.6266	0.078497	-464.947275	-464.940209	-464.939265	-464.979195	25.72	
N	-0.0044541162	 1.1453133499	-0.6794367848	-0.444351
C	-0.0141450432	 0.0417548563	-0.0560484289	 0.233796
N	 1.0907334512	-0.5972918421	 0.5030908238	-0.226195
C	 1.3355206802	-1.8319794443	 0.3112282786	 0.082649
N	 0.6982585523	-2.7705871938	-0.524420624	-0.141635
N	-0.54537476	-2.8580206307	-0.6478219506	-0.0475
N	-1.3912272069	-2.0169525813	 0.0334373659	-0.270927
C	-1.3602257074	-0.6056741204	 0.2083112899	 0.418651
O	-2.363061266	-0.0244087098	 0.5067830157	-0.287802
H	 0.9574449912	 1.4847860255	-0.7686752362	 0.241976
H	 2.224214536	-2.2626283564	 0.7710660287	 0.155352
H	-2.3445672911	-2.3542255229	-0.0448837681	 0.285988
79.9894	132.6565	283.6083	298.2471	355.6288	392.2303	454.7355	581.5373	618.5737	682.3995	701.8395	808.9971	828.6863	899.9932	945.4064	951.6084	1001.6618	1027.6933	1091.1013	1165.2996	1329.1819	1398.0835	1435.942	1582.5812	1681.4573	1715.319	1844.9798	3150.6632	3448.5044	3567.6641
N=C1N=CN=NNC1=O	[NH][C]1N=CN=NNC1=O	
InChI=1S/C3H3N5O/c4-2-3(9)7-8-6-1-5-2/h1H,(H2,4,5,6,7,9)	InChI=1S/C3H3N5O/c4-2-3(9)7-8-6-1-5-2/h1H,(H2,4,5,6,7,9)
