19
gdb 110496	5.08984	1.14559	1.09342	1.0352	80.15	-0.2179	0.0077	0.2256	1162.0837	0.160072	-385.819726	-385.812298	-385.811354	-385.851676	29.564	
C	 0.0204870207	 1.2920839282	-0.2457460558	-0.240947
O	-0.060264302	 0.0336875429	 0.3850735211	-0.255758
C	-1.3068002714	-0.5881439117	 0.2240851869	 0.154714
C	-1.5860514861	-1.3989317068	-1.0679755898	-0.094436
C	-0.5707308248	-2.5071878998	-0.5834558798	-0.053332
C	-1.1562571733	-3.8467253805	-1.001626717	-0.113201
C	-2.4654497029	-3.7039017966	-0.788769673	-0.106256
C	-2.5983994153	-2.2858971473	-0.2529315911	-0.069705
C	-1.3682384893	-2.0448407205	 0.6995030232	-0.092726
H	 1.0088981278	 1.7035602021	-0.027458725	 0.126148
H	-0.0991817107	 1.2162401649	-1.3369410895	 0.10615
H	-0.7444257397	 1.9868739816	 0.1355550336	 0.10379
H	-2.1179902198	 0.075965611	 0.5596849519	 0.056653
H	-1.7209584052	-1.0409747997	-2.0920817491	 0.066658
H	 0.4987139075	-2.3219936003	-0.6446772078	 0.076569
H	-0.6055431839	-4.6968331904	-1.3787886303	 0.10113
H	-3.2756696175	-4.402101913	-0.9444594659	 0.102549
H	-3.5785807403	-1.8885275401	 0.013960463	 0.060645
H	-1.2451069138	-2.4232483239	 1.7171525743	 0.071355
84.1343	167.9109	178.1745	277.2476	351.2948	457.0099	506.3711	544.1884	677.3789	721.3361	776.8849	780.9552	812.2389	871.3594	909.3503	921.7133	929.6719	940.0571	960.2284	991.3305	1026.2222	1034.1057	1082.4551	1124.6271	1134.5946	1141.8783	1157.566	1174.9522	1183.7997	1190.0435	1221.5243	1243.0117	1251.6139	1275.3707	1315.7972	1327.0125	1405.4427	1483.9202	1488.5782	1510.0839	1635.0136	2973.1398	2987.9248	3022.0508	3078.6581	3087.7833	3110.6623	3114.1997	3155.2851	3220.0498	3247.357
COC1C2C3C=CC2C13	CO[C@H]1[C@H]2[C@@H]3C=C[C@H]2[C@H]13	
InChI=1S/C8H10O/c1-9-8-6-4-2-3-5(6)7(4)8/h2-8H,1H3	InChI=1S/C8H10O/c1-9-8-6-4-2-3-5(6)7(4)8/h2-8H,1H3/t4-,5+,6-,7+,8-
