19
gdb 37928	2.84416	2.10972	1.9898	1.5579	75.97	-0.2361	0.0699	0.3061	832.2163	0.163447	-385.85274	-385.846813	-385.845869	-385.882728	25.94	
C	-0.0370081718	 1.5493097677	 0.0297047174	-0.218388
C	 1.4522127864	 2.0214460862	 0.0164912757	-0.218388
C	 2.2881157319	 0.7343410603	-0.012469079	-0.034645
C	 2.3715614006	-0.0414079658	 1.3496266302	 0.083651
O	 1.2206862776	 0.2274277694	 2.1829683707	-0.291532
C	 0.4216337491	-0.6596064041	 1.3669227146	 0.083651
C	 0.0209459683	 0.0155669841	 0.0076417503	-0.034645
C	 1.399416267	-0.4134369832	-0.5732179037	-0.080103
C	 1.6841007521	-1.2757192927	 0.7018326654	-0.092665
H	-0.5652976606	 1.9121567257	 0.9160303382	 0.107619
H	-0.5726834404	 1.9255260475	-0.8478544647	 0.091535
H	 1.6590767212	 2.6330688959	-0.8676593199	 0.091535
H	 1.6891817841	 2.6269131799	 0.8960231988	 0.107618
H	 3.2711492663	 0.8357670004	-0.4790463575	 0.064105
H	 3.3044422447	-0.023247386	 1.9160134745	 0.073551
H	-0.3420554535	-1.1793198541	 1.9483582883	 0.073551
H	-0.8483487043	-0.4702629881	-0.4425054617	 0.064105
H	 1.495416801	-0.7451515604	-1.6062541952	 0.059811
H	 2.0124896102	-2.3098093927	 0.7633617076	 0.069632
161.2247	284.5743	406.4055	509.1436	611.7782	644.7325	732.3716	734.1276	779.9606	800.2847	816.0715	849.3823	852.6117	883.366	896.1749	926.396	950.1152	959.8601	1003.2768	1007.0065	1041.7949	1067.061	1069.8103	1114.0272	1142.583	1161.6601	1167.5917	1189.6719	1193.393	1244.2838	1245.8424	1260.805	1277.3751	1281.4432	1297.9776	1300.6326	1338.8786	1339.9027	1347.0724	1473.1655	1495.7976	3040.9418	3051.9448	3076.6269	3077.5698	3082.5575	3092.1085	3095.0147	3102.3768	3115.0725	3150.8825
C1CC2C3OC4C1C2C34	C1C[C@H]2[C@H]3O[C@H]4[C@@H]1[C@@H]2[C@@H]34	
InChI=1S/C8H10O/c1-2-4-5-3(1)7-6(5)8(4)9-7/h3-8H,1-2H2	InChI=1S/C8H10O/c1-2-4-5-3(1)7-6(5)8(4)9-7/h3-8H,1-2H2/t3-,4+,5-,6+,7-,8+
