20
gdb 126144	3.66229	0.98642	0.83383	3.9019	80.84	-0.2481	0.003	0.2511	1419.1409	0.171856	-399.341446	-399.332323	-399.331379	-399.376094	33.521	
C	 0.0941218852	 1.5875711389	-0.1041351794	-0.394139
C	-0.0021592034	 0.0621713383	-0.0141592892	-0.164755
C	 0.6288166883	-0.5433631647	 1.2623320942	-0.069855
C	-0.1010068582	-0.121136952	 2.5441298573	-0.406764
C	 0.7087237528	-2.0389931841	 1.1384440218	 0.318754
C	 0.0676155245	-3.0375726142	 1.8364005584	-0.179411
N	 0.5233265439	-4.1820071206	 1.2713666646	-0.158344
N	 1.3968434535	-3.9289403146	 0.2817111967	-0.114872
N	 1.5082888932	-2.6356976524	 0.2007757651	-0.25553
H	 1.1360139737	 1.9214019419	-0.0395212531	 0.116397
H	-0.3081101403	 1.9441763492	-1.057436755	 0.114335
H	-0.4654293219	 2.08736441	 0.6929197977	 0.114362
H	-1.0534207762	-0.251183767	-0.0701064265	 0.089431
H	 0.4989762284	-0.3855807616	-0.8783392255	 0.123776
H	 1.6624831447	-0.1745733961	 1.3161016791	 0.093918
H	-1.1528066188	-0.4301702896	 2.518632593	 0.112194
H	 0.3622093141	-0.5679518797	 3.4295542525	 0.115237
H	-0.0795787924	 0.9637632546	 2.6715679356	 0.120637
H	-0.6363892117	-3.0337266134	 2.6503893902	 0.144243
H	 0.2997265207	-5.1370538329	 1.5005578123	 0.280387
38.5308	95.8957	131.7963	201.3631	231.5375	280.2111	287.8245	349.0952	413.7251	470.187	564.886	670.7478	709.206	754.5659	785.0257	797.3176	848.0708	965.1724	984.3524	992.6475	1019.3801	1040.1421	1056.9684	1100.5148	1133.4444	1134.6128	1181.7965	1248.9201	1288.4866	1292.7256	1331.5445	1338.6888	1366.0697	1382.5367	1411.7278	1416.2745	1485.9017	1487.4977	1495.79	1503.6736	1507.5033	1511.6809	1585.6306	3008.2336	3023.6166	3032.1534	3033.3019	3074.7031	3095.6115	3099.7187	3105.3103	3120.2771	3290.0304	3659.649
CCC(C)C1=CNN=N1	CC[C@@H](C)c1c[nH]nn1	
InChI=1S/C6H11N3/c1-3-5(2)6-4-7-9-8-6/h4-5H,3H2,1-2H3,(H,7,8,9)	InChI=1S/C6H11N3/c1-3-5(2)6-4-7-9-8-6/h4-5H,3H2,1-2H3,(H,7,8,9)/t5-/m1/s1
