19
gdb 69269	2.5847	1.6404	1.21712	3.5647	76.03	-0.2209	0.0011	0.2221	1068.3224	0.161019	-419.20861	-419.200488	-419.199544	-419.241039	31.66	
C	-0.1624978646	 1.4754438287	 0.0543348834	-0.453456
C	 0.0515051076	-0.0203776072	-0.054630697	 0.300851
C	 1.4587560444	-0.5420747325	-0.0940917898	-0.286796
N	 0.6532531007	-0.6529699255	 1.1190013485	-0.115633
C	 0.241636062	-1.922383071	 1.562454939	 0.347892
O	 1.0033438328	-2.70114506	 2.086426824	-0.328067
C	-1.1977913417	-2.242383967	 1.1933802981	-0.261387
N	-1.3154784467	-2.1429505903	-0.2715303445	-0.293253
C	-1.0954824087	-0.7778099948	-0.7413282236	-0.248004
H	 0.6740104078	 1.9547317281	 0.5681638755	 0.131962
H	-0.2596930352	 1.9232638573	-0.9411166758	 0.122617
H	-1.078344668	 1.6974734313	 0.6128846031	 0.124118
H	 1.6618455263	-1.466156762	-0.6313581868	 0.119081
H	 2.294250663	 0.1518136322	-0.0555627401	 0.124168
H	-1.4388464726	-3.2536356248	 1.5249798857	 0.131841
H	-1.9062015965	-1.5403622961	 1.6479242976	 0.122326
H	-0.6620617099	-2.787373119	-0.7057931609	 0.230429
H	-2.0179758383	-0.2111503326	-0.5532162585	 0.113457
H	-0.9530987924	-0.7936053648	-1.8267876079	 0.117853
97.5402	151.3446	209.4924	265.2985	303.1334	361.8127	378.2196	435.0237	442.3335	540.2387	582.241	701.0172	707.2464	768.2517	825.7946	894.7816	908.0674	941.2538	955.8955	981.5453	1024.8477	1062.7347	1118.4373	1128.6894	1134.7189	1136.7866	1181.7382	1241.6152	1289.3554	1322.1163	1334.5638	1365.7187	1409.3214	1418.9765	1467.5984	1478.8934	1485.6668	1491.672	1494.9639	1513.2927	1808.1241	3010.2001	3033.0766	3046.2229	3075.9466	3095.3131	3100.1817	3124.3097	3127.8706	3186.6865	3519.0089
CC12CN1C(=O)CNC2	C[C@@]12CN1C(=O)CNC2	
InChI=1S/C6H10N2O/c1-6-3-7-2-5(9)8(6)4-6/h7H,2-4H2,1H3	InChI=1S/C6H10N2O/c1-6-3-7-2-5(9)8(6)4-6/h7H,2-4H2,1H3/t6-,8?/m1/s1
