18
gdb 37209	3.18839	1.98522	1.64936	1.189	80.31	-0.2225	-0.0099	0.2126	869.866	0.15116	-364.721252	-364.715145	-364.714201	-364.751294	26.612	
C	 0.0623923507	 1.5474141256	 0.2126214137	-0.26354
C	 1.5366863232	 1.8145664807	 0.0124066236	-0.053533
C	 2.1601976546	 0.7799645941	-0.5746209195	 0.062684
C	 3.264054372	 0.0837487412	 0.193578317	-0.1178
N	 2.9739204253	 0.1888963002	 1.6596047686	-0.336321
C	 2.45717492	-0.9630060872	 0.8853536082	-0.015662
C	 1.0494169355	-1.0305418485	 0.2572772482	-0.050109
C	-0.0121830797	 0.0589252855	-0.127987775	-0.057723
C	 1.1343171617	-0.2609164031	-1.0326838912	-0.125842
H	-0.203042519	 1.7878239888	 1.249616985	 0.117893
H	-0.6251380234	 2.115466734	-0.4309433896	 0.105149
H	 2.0557401058	 2.5480081003	 0.6187626364	 0.105509
H	 4.2792644798	-0.0890477216	-0.1461708965	 0.088819
H	 3.7898189945	-0.1334876895	 2.1820645929	 0.220641
H	 2.8869541757	-1.9368507494	 1.1044753862	 0.085098
H	 0.6107390775	-2.0249701377	 0.2732503321	 0.078635
H	-0.9932241797	-0.3700099414	-0.3197310526	 0.077385
H	 1.0819666853	-0.6693622018	-2.0360913474	 0.078717
198.9957	262.2418	362.4698	481.6871	555.4172	597.6847	654.4757	690.3234	751.6444	772.2559	792.254	815.2965	852.2176	855.6493	869.8532	898.9637	930.8591	954.4581	975.8749	1012.6606	1026.864	1042.8147	1069.4167	1089.66	1097.7317	1129.1884	1152.7467	1177.9441	1198.9291	1232.3634	1255.194	1294.688	1307.6181	1333.1143	1349.9256	1369.3593	1401.2696	1468.4841	1632.1137	3000.954	3049.0175	3128.4546	3136.7161	3146.4334	3162.7239	3168.6814	3197.4262	3446.4345
C1C=C2C3NC3C3C1C23	C1[CH][C]2[C@H]3N[C@H]3[C@H]3[C@@H]1[C@@H]23	
InChI=1S/C8H9N/c1-2-4-5-3(1)6(5)8-7(4)9-8/h2-3,5-9H,1H2	InChI=1S/C8H9N/c1-2-4-5-3(1)6(5)8-7(4)9-8/h2-3,5-9H,1H2/t3-,5-,6-,7+,8-/m0/s1
