15
gdb 25938	2.86151	1.58961	1.02849	6.1652	69.17	-0.214	-0.0202	0.1938	1089.4003	0.112677	-454.025707	-454.017518	-454.016574	-454.058885	30.031	
C	-0.05108657	 1.5315508943	 0.0092480168	-0.507056
C	 0.0794108148	 0.0183881528	 0.0019141577	 0.414248
O	 1.1410455466	-0.547421835	-0.0092680921	-0.289327
N	-1.1447923221	-0.6841153041	 0.0088707301	-0.19304
C	-2.4360122109	-0.1184113836	 0.0213939064	-0.095165
C	-3.3311861363	-1.1183799029	 0.0243456322	-0.088979
N	-2.631015704	-2.3171933164	 0.0140001873	-0.375458
C	-1.2581728149	-2.1122436609	 0.0039969689	 0.493122
O	-0.3919908189	-2.9478225179	-0.0063051182	-0.378474
H	 0.9552312776	 1.9480495432	 0.0031676946	 0.156119
H	-0.5962729438	 1.8889236124	-0.8701893136	 0.14633
H	-0.582611057	 1.8816054276	 0.8999086246	 0.146304
H	-2.5947033013	 0.9435235	 0.0269459596	 0.146855
H	-4.4069725578	-1.0821463175	 0.0329427964	 0.150502
H	-3.0169823819	-3.244711122	 0.0131186191	 0.274019
60.0543	116.6439	194.1675	217.6081	231.7773	356.3193	432.6707	465.8706	535.847	577.0011	600.6188	652.8835	669.3517	760.6456	769.9249	797.3446	876.7619	944.3272	1052.9465	1056.8094	1098.2971	1151.8931	1175.1957	1236.8631	1303.2829	1385.942	1392.7699	1428.9541	1474.1717	1484.0407	1653.0504	1800.9259	1884.0009	3044.9154	3109.7757	3166.953	3284.7352	3319.8018	3694.3082
CC(=O)N1C=CNC1=O	CC(=O)n1cc[nH]c1=O	
InChI=1S/C5H6N2O2/c1-4(8)7-3-2-6-5(7)9/h2-3H,1H3,(H,6,9)	InChI=1S/C5H6N2O2/c1-4(8)7-3-2-6-5(7)9/h2-3H,1H3,(H,6,9)
