17
gdb 33979	2.28914	1.77539	1.22191	3.8082	78.08	-0.2496	0.008	0.2576	1040.7123	0.137145	-380.829304	-380.8216	-380.820656	-380.861501	29.863	
N	-0.0584264122	-1.1489967486	 0.0143821348	-0.360318
C	-0.018410286	 0.0087258984	 0.0010973963	 0.189209
C	-0.0141427857	 1.4315108297	 0.037206997	 0.158077
C	 0.2880011127	 2.3074876279	-1.1640033489	-0.321151
C	 1.1668547804	 2.4338266386	 0.0374283604	-0.103028
C	 0.4821603926	 3.2614163627	 1.1377256755	-0.303932
C	-0.6943425973	 2.265204174	 1.1208916717	 0.285381
C	-2.1459531129	 2.4172653158	 1.3529905625	-0.306804
N	-1.2760281502	 1.7314639177	 2.336609326	-0.365756
H	 0.7164447592	 1.7866775324	-2.0135837515	 0.141426
H	-0.4174281841	 3.0937579022	-1.4196472681	 0.127602
H	 2.2192174063	 2.18464211	 0.0016228752	 0.120317
H	 1.0044413949	 3.2215358956	 2.0953836917	 0.132802
H	 0.2654947413	 4.3027683171	 0.8821707805	 0.110826
H	-2.5506847272	 3.3671389402	 1.691653698	 0.125194
H	-2.8237466446	 1.8206695422	 0.7472502651	 0.123067
H	-1.3871941874	 0.721097064	 2.2686229836	 0.247086
103.7368	132.4703	180.4952	290.3856	330.7797	393.5335	451.9819	493.102	567.3124	581.7886	611.5482	799.2895	827.2901	838.5295	870.691	901.7757	926.6304	956.4115	981.5116	1022.8674	1037.8456	1048.0291	1088.0717	1098.2756	1134.6888	1151.7053	1198.9271	1239.714	1259.331	1272.4389	1289.1769	1374.8093	1414.4724	1476.6151	1494.0186	1513.1982	2338.4201	3059.9366	3105.005	3119.4743	3124.9569	3191.8844	3204.9673	3217.6361	3483.9564
N#CC12CC1CC21CN1	N#C[C@]12C[C@H]1C[C@]12CN1	
InChI=1S/C7H8N2/c8-3-6-1-5(6)2-7(6)4-9-7/h5,9H,1-2,4H2	InChI=1S/C7H8N2/c8-3-6-1-5(6)2-7(6)4-9-7/h5,9H,1-2,4H2/t5-,6+,7+/m0/s1
