16
gdb 21990	3.88987	1.10957	0.86796	1.6399	81.14	-0.193	-0.015	0.1779	1279.5471	0.124331	-437.879025	-437.870831	-437.869887	-437.911675	30.924	
C	 0.0273619333	 1.4823352579	-0.0089938099	-0.470759
C	-0.0628765227	-0.0061405853	 0.043943884	 0.377174
C	-1.1536612398	-0.7530206842	-0.1884987333	-0.271436
C	-1.1162966921	-2.2017506735	-0.1059701332	 0.357119
C	 0.1866537988	-2.749251913	 0.2451173594	-0.242248
C	 1.2171931943	-1.9222756739	 0.4585380777	 0.054035
O	 1.1479048771	-0.5680326581	 0.3722566254	-0.244646
N	-2.2008043366	-2.865585993	-0.3415082734	-0.261554
O	-1.9773442958	-4.2536527593	-0.2158230626	-0.403949
H	 0.7689326033	 1.7991343912	-0.7507979742	 0.143085
H	-0.9393894412	 1.9151169178	-0.2704570108	 0.138448
H	 0.3452438742	 1.8856079067	 0.9589539653	 0.143078
H	-2.0889070563	-0.2714479915	-0.4444927649	 0.111394
H	 0.321114161	-3.8169975523	 0.33303207	 0.131634
H	 2.2178862177	-2.2404358162	 0.7229585469	 0.135286
H	-2.8479474352	-4.6117757834	-0.4136110265	 0.303339
116.082	163.4744	171.3443	220.1714	302.8378	337.3012	376.4782	415.0361	442.7415	526.7545	559.6975	647.0513	712.031	774.8433	834.729	875.9319	887.6854	939.1561	955.7753	977.9049	1031.8214	1067.8692	1088.2366	1191.5774	1265.8333	1280.7241	1341.8905	1415.3871	1421.4204	1425.3399	1468.797	1488.3954	1650.1394	1670.569	1741.0625	3036.1121	3089.1428	3143.2575	3215.3814	3217.3338	3253.6096	3834.0709
CC1=CC(C=CO1)=NO	Cc1cc(=NO)cco1	
InChI=1S/C6H7NO2/c1-5-4-6(7-8)2-3-9-5/h2-4,8H,1H3	InChI=1S/C6H7NO2/c1-5-4-6(7-8)2-3-9-5/h2-4,8H,1H3
