17
gdb 51175	4.25962	1.00848	0.92114	1.934	68.18	-0.2358	-0.0249	0.2109	1254.9088	0.134494	-458.94199	-458.933703	-458.932759	-458.975999	30.054	
O	 0.1896934564	-0.2221579691	-0.1859700018	-0.238344
C	 0.0937759446	 0.9770928842	-0.217212248	 0.163414
C	 1.2501910915	 1.9321294235	 0.0289601288	-0.369748
C	 1.3051910544	 3.0359341288	-0.99353081	 0.393964
C	 1.8796422897	 2.8649087193	-2.3924844706	-0.394095
C	 2.4929431117	 3.8437489685	-1.4061623379	 0.022011
O	 2.0808272768	 5.1859876873	-1.4540768361	-0.253353
C	 0.6654283603	 5.1681037777	-1.463424111	 0.006982
O	 0.2444092771	 3.9604141497	-0.8522872996	-0.296324
H	-0.8766364987	 1.4764685382	-0.4296469611	 0.096512
H	 1.1078762246	 2.384724615	 1.020266669	 0.136049
H	 2.1793056286	 1.3567531305	 0.0411180011	 0.126509
H	 2.4403744285	 1.9541651837	-2.5761221555	 0.129983
H	 1.3320508952	 3.2368546809	-3.2509808314	 0.130221
H	 3.4988030887	 3.7296136204	-1.022683623	 0.119458
H	 0.2867126864	 6.0179706407	-0.8876472712	 0.127104
H	 0.2902806142	 5.2197800309	-2.4981250616	 0.099655
50.878	63.8354	138.5851	222.4713	263.291	336.6568	372.6255	452.1507	485.0668	668.4946	733.0003	742.2822	796.102	855.81	872.5404	937.9444	967.2804	980.5432	1020.8575	1033.1016	1071.0875	1076.6205	1096.729	1154.1154	1159.1084	1191.6962	1222.0172	1256.0516	1280.5728	1322.2627	1398.1074	1423.7856	1436.5192	1442.7632	1476.2116	1551.4819	1835.4616	2900.5644	2970.9861	3022.7946	3080.8863	3110.1155	3136.651	3199.0616	3226.7239
O=CCC12CC1OCO2	O=CC[C@]12C[C@H]1OCO2	
InChI=1S/C6H8O3/c7-2-1-6-3-5(6)8-4-9-6/h2,5H,1,3-4H2	InChI=1S/C6H8O3/c7-2-1-6-3-5(6)8-4-9-6/h2,5H,1,3-4H2/t5-,6+/m1/s1
