16
gdb 51447	3.01086	1.1589	0.96458	4.3123	71.98	-0.244	-0.0265	0.2175	1214.9383	0.124219	-437.895488	-437.887321	-437.886377	-437.929467	29.62	
O	-0.0484326794	 0.1068475842	-0.7698312782	-0.313942
C	-0.0668528055	 1.1884051712	-0.2256723978	 0.158145
N	 1.0333700797	 1.8403737098	 0.2534616193	-0.291634
C	 2.3467343329	 1.2575419036	 0.2241306725	-0.089277
C	 3.482435999	 1.887012492	-0.6024101646	-0.052374
C	 3.891219995	 3.1946550065	-0.0258679427	-0.293307
C	 4.4036776455	 1.9211677862	 0.6421867641	-0.173878
C	 3.2873932632	 1.3566560927	 1.4707116728	 0.384184
O	 3.1710550885	 1.0082407055	 2.6090524428	-0.306179
H	-0.9940888625	 1.7707176027	-0.0615404929	 0.082868
H	 0.8926867876	 2.719202341	 0.7255449361	 0.253406
H	 2.2167337092	 0.2008901912	-0.0287589449	 0.152544
H	 3.7584560705	 1.5742236409	-1.6004496096	 0.115991
H	 4.6528048771	 3.7444212903	-0.5687583962	 0.135975
H	 3.1786152159	 3.8341938741	 0.4882413072	 0.116111
H	 5.4615108732	 1.718241608	 0.7411107823	 0.121367
32.3894	117.8789	153.1098	183.5875	242.7757	310.3407	500.8703	505.993	521.8192	618.0801	670.9238	741.4206	788.1874	851.1272	877.4239	916.4875	963.6547	994.7055	1016.7113	1032.0209	1063.4694	1084.5769	1100.8571	1113.4046	1163.9938	1197.2923	1223.5622	1283.2059	1328.4528	1355.6866	1428.9799	1499.7636	1521.9822	1807.8495	1891.3465	2948.8861	3087.6647	3118.4882	3202.9938	3207.7927	3218.607	3637.2639
O=CNC1C2CC2C1=O	O=CN[C@H]1[C@H]2C[C@H]2C1=O	
InChI=1S/C6H7NO2/c8-2-7-5-3-1-4(3)6(5)9/h2-5H,1H2,(H,7,8)	InChI=1S/C6H7NO2/c8-2-7-5-3-1-4(3)6(5)9/h2-5H,1H2,(H,7,8)/t3-,4+,5-/m0/s1
