16
gdb 25909	4.18826	1.07854	0.86229	3.9741	75.23	-0.2058	-0.0279	0.1779	1277.5326	0.123909	-437.946083	-437.937598	-437.936654	-437.9793	31.484	
C	-0.0329331391	 1.5211541126	 0.0369225319	-0.505801
C	 0.0605545718	 0.0089168922	 0.0170067087	 0.425698
O	 1.1105819456	-0.589067552	 0.0210318858	-0.323057
N	-1.1579011971	-0.6881764074	-0.0063849879	-0.074879
C	-2.4402724239	-0.1604650502	-0.0128321395	-0.05302
C	-3.3309395041	-1.1944834487	-0.0361220896	-0.31016
C	-2.5654527006	-2.409649333	-0.0451308024	 0.300444
O	-3.0426763925	-3.6825559823	-0.0677177404	-0.438114
C	-1.2402588587	-2.0817344056	-0.0268469196	-0.165626
H	 0.9817231389	 1.9168660732	 0.0491063502	 0.15459
H	-0.5585474527	 1.8977266015	-0.8456051584	 0.150075
H	-0.5695522854	 1.8727479911	 0.9232306188	 0.150291
H	-2.6079063906	 0.9022049144	 0.0003862981	 0.133397
H	-4.4078352913	-1.1082569828	-0.046045619	 0.103783
H	-4.0035318994	-3.6532984134	-0.0780214662	 0.299828
H	-0.3472315507	-2.6788568096	-0.0258645805	 0.152551
87.408	133.7438	150.2115	198.3057	233.6279	336.7538	357.5213	430.2364	537.489	564.5488	613.7945	632.3443	647.8646	679.9785	704.4264	786.8734	804.0279	937.0007	989.5963	1000.1782	1052.7716	1085.1114	1108.1985	1178.828	1267.1529	1294.6615	1360.4434	1380.3586	1392.8259	1460.0376	1474.1587	1481.4703	1529.1513	1670.8887	1805.5131	3051.1682	3116.5056	3167.3691	3235.8323	3292.9005	3312.8984	3845.5858
CC(=O)N1C=CC(O)=C1	CC(=O)n1ccc(O)c1	
InChI=1S/C6H7NO2/c1-5(8)7-3-2-6(9)4-7/h2-4,9H,1H3	InChI=1S/C6H7NO2/c1-5(8)7-3-2-6(9)4-7/h2-4,9H,1H3
