19
gdb 6905	4.72178	1.0044	0.9372	1.3718	82.72	-0.2283	0.0461	0.2743	1333.5213	0.163079	-327.889086	-327.879386	-327.878442	-327.924449	34.292	
C	 0.1244501477	 1.5013108414	 0.0416166382	-0.500479
C	 0.047728128	 0.0479119666	 0.0491549699	 0.10455
C	-0.0163227227	-1.1551710684	 0.0671448032	 0.129175
C	-0.0707510771	-2.5908042864	 0.0486001003	-0.314217
N	-0.63143637	-3.2892224987	 1.2397265893	-0.354598
C	-1.3486945872	-3.3763200927	-0.0405491877	 0.337341
C	-2.6774338748	-2.6528282164	-0.0682634503	-0.436309
C	-1.3140377	-4.687626367	-0.7992618737	-0.456533
H	 1.0929038758	 1.8455359879	-0.3382174077	 0.147387
H	-0.6545160096	 1.9414875012	-0.5910875104	 0.146326
H	 0.0015994883	 1.909712272	 1.0509396881	 0.150508
H	 0.790523061	-3.061499942	-0.4235254152	 0.096972
H	-0.0954616322	-4.1396733196	 1.4022830365	 0.225478
H	-2.6234702699	-1.7258675667	 0.5044127714	 0.138215
H	-2.9668604083	-2.411031129	-1.096753668	 0.112956
H	-3.4621690603	-3.2824230459	 0.3658260558	 0.113671
H	-2.0196193963	-5.4040482961	-0.361989037	 0.122292
H	-1.5962664687	-4.5453366006	-1.8480944136	 0.125688
H	-0.3161477137	-5.1382528196	-0.7771485792	 0.111579
23.4517	89.7623	99.6394	183.502	222.2653	245.7657	272.829	343.3797	364.6866	394.7687	405.734	505.3589	554.7832	704.4987	764.8259	846.6529	903.9094	960.8363	973.7046	1013.9893	1052.5566	1052.9638	1059.3329	1084.1735	1151.0696	1171.4651	1230.6994	1304.67	1350.9681	1412.0183	1414.8269	1422.6515	1438.0652	1476.9403	1477.6913	1478.6394	1487.6657	1497.0052	1509.3259	2369.0336	3023.1991	3025.119	3034.7327	3084.4912	3086.7753	3087.0739	3094.4489	3098.869	3109.6621	3141.3811	3481.595
CC#CC1NC1(C)C	CC#C[C@H]1NC1(C)C	
InChI=1S/C7H11N/c1-4-5-6-7(2,3)8-6/h6,8H,1-3H3	InChI=1S/C7H11N/c1-4-5-6-7(2,3)8-6/h6,8H,1-3H3/t6-/m1/s1
