19
gdb 117247	4.2796	0.74909	0.70311	1.9778	73.94	-0.2426	-0.0234	0.2192	1621.0215	0.157098	-460.161339	-460.15166	-460.150716	-460.196813	35.052	
O	-0.1285486374	 1.4162333872	 0.0656086333	-0.424072
C	 0.0330210824	 0.0061594198	 0.0209044008	-0.078396
C	-1.3621509823	-0.5999026157	 0.0006590687	-0.291891
C	-1.3673086855	-2.1127615872	-0.0568225583	 0.406829
O	-0.3209860915	-2.7523892122	-0.0955878967	-0.380687
C	-2.680153732	-2.7848074449	-0.0285068272	-0.1938
C	-2.8252488448	-4.1144672276	-0.784952991	-0.324427
C	-2.7276196417	-4.1604951247	 0.6927072443	 0.157954
O	-1.622121569	-4.6505041562	 1.3519550706	-0.418071
H	 0.7457488212	 1.8158237932	 0.0837337344	 0.28848
H	 0.5874507324	-0.3135771789	-0.8726805258	 0.103129
H	 0.585858503	-0.3697896153	 0.8933546036	 0.103881
H	-1.925055723	-0.2784525228	 0.8871418197	 0.137348
H	-1.9275168459	-0.2112260478	-0.8570220243	 0.135924
H	-3.5536152404	-2.1466408919	 0.0416411738	 0.095505
H	-3.7799280962	-4.2969520015	-1.2656045964	 0.123156
H	-1.949757917	-4.4230446432	-1.3469252379	 0.13713
H	-3.6326824617	-4.3456897849	 1.2622313884	 0.117139
H	-0.8398085705	-4.2932056955	 0.8956037501	 0.30487
47.2849	72.2814	116.5174	133.7741	215.5099	265.0374	270.6662	323.1642	405.1915	447.0206	465.8482	570.5687	609.147	712.7726	727.6452	799.7257	811.9449	860.7714	922.5151	983.7908	1037.5382	1050.2822	1068.2077	1077.697	1086.6676	1109.9635	1131.7966	1143.3144	1208.4287	1235.0686	1254.3075	1301.5012	1333.8655	1360.6762	1412.7867	1446.2925	1450.74	1470.3703	1488.4675	1522.9158	1728.7928	2997.8187	3025.3528	3027.7148	3062.3275	3132.6829	3167.6404	3176.6649	3228.8731	3624.8362	3833.1602
OCCC(=O)C1CC1O	OCCC(=O)[C@H]1C[C@H]1O	
InChI=1S/C6H10O3/c7-2-1-5(8)4-3-6(4)9/h4,6-7,9H,1-3H2	InChI=1S/C6H10O3/c7-2-1-5(8)4-3-6(4)9/h4,6-7,9H,1-3H2/t4-,6-/m1/s1
