18
gdb 7357	3.40616	1.26618	1.02628	3.7066	65.51	-0.2617	-0.029	0.2327	1176.4243	0.150397	-422.080484	-422.070859	-422.069915	-422.115399	33.307	
C	-0.8814449939	 1.2561543068	-0.4343532499	-0.230839
O	-1.3979583919	-0.0519424445	-0.3145926975	-0.22809
C	-0.5984434718	-0.8850557668	 0.4847614011	-0.15324
C	-1.1960747242	-2.2799667932	 0.5940896846	 0.327022
O	-0.7792153982	-3.0504234651	 1.4330321899	-0.330285
C	-2.2991468016	-2.7189932978	-0.3637232461	 0.067822
C	-1.7685535621	-2.7916253087	-1.8075428432	-0.407716
O	-2.8064205798	-3.9617536631	 0.0487131111	-0.442388
H	-1.57055584	 1.8197068514	-1.0665524752	 0.137324
H	-0.8063902437	 1.7514078625	 0.5454610965	 0.11478
H	 0.1160077199	 1.2569267605	-0.8998090131	 0.112729
H	 0.4200489834	-0.9875744627	 0.0696706232	 0.124439
H	-0.4855702117	-0.4895355096	 1.5065596011	 0.128879
H	-3.0925529911	-1.9589151025	-0.3230996754	 0.10569
H	-0.9287663875	-3.4908572139	-1.8702370818	 0.120365
H	-2.5676306707	-3.1629815033	-2.4536012514	 0.134349
H	-1.4542783772	-1.8072400371	-2.1609462946	 0.128823
H	-2.2107311679	-4.2627115026	 0.7532541309	 0.290334
60.1719	81.186	100.3694	149.3744	224.1652	229.612	247.806	326.2473	354.6638	409.8187	437.8243	481.1952	598.6376	663.3509	763.0178	918.2684	951.1031	1011.4591	1056.7153	1102.9169	1126.6894	1162.5023	1184.5707	1199.5972	1232.019	1245.4729	1291.1376	1345.6546	1385.3421	1388.5072	1438.8146	1468.1387	1486.5789	1488.3719	1496.717	1499.1978	1513.7675	1794.3193	2955.5766	2980.9243	3002.2488	3010.4307	3029.7736	3045.9416	3121.7036	3126.4046	3141.0238	3687.2921
COCC(=O)C(C)O	COCC(=O)[C@@H](C)O	
InChI=1S/C5H10O3/c1-4(6)5(7)3-8-2/h4,6H,3H2,1-2H3	InChI=1S/C5H10O3/c1-4(6)5(7)3-8-2/h4,6H,3H2,1-2H3/t4-/m1/s1
