21
gdb 92831	2.23929	1.66904	1.53395	1.3167	83.65	-0.2334	0.0075	0.2408	1045.2124	0.182336	-387.068214	-387.059626	-387.058682	-387.100761	33.87	
C	-0.0301153242	 1.5021332672	 0.0469660835	-0.383013
C	 0.0349548872	-0.0254488163	-0.0129271395	-0.076489
C	 0.9791583283	-0.5207279494	-1.1701381038	-0.257364
C	 2.3466041906	-0.614056475	-0.4925614946	-0.207208
C	 2.1597476369	-0.7419494522	 0.8147475697	 0.159367
C	 2.5538510217	-0.2141107087	 2.1691899135	-0.168644
O	 1.1672132674	 0.2016190786	 2.3626508541	-0.345394
C	 0.723975926	-0.6514582309	 1.2310106482	 0.428141
C	 0.0145975692	-1.8817173318	 1.7757592736	-0.449458
H	 0.9705245968	 1.9359000632	 0.1337584623	 0.12022
H	-0.498646654	 1.9000522369	-0.8590486314	 0.105048
H	-0.6096043088	 1.8387514346	 0.9108691443	 0.12343
H	-0.978927967	-0.4211040854	-0.1400696479	 0.061926
H	 0.6420082889	-1.4791569391	-1.5872874192	 0.104874
H	 0.9957875773	 0.1901241452	-2.0039827218	 0.103505
H	 3.2828571025	-0.4610593828	-1.016404025	 0.097782
H	 2.8512196354	-0.9567489308	 2.9210445609	 0.106678
H	 3.2554491102	 0.6264549159	 2.1896438732	 0.117135
H	-0.9200898237	-1.5845332905	 2.2634225484	 0.125408
H	-0.2292353438	-2.5800831354	 0.968078851	 0.117704
H	 0.6309773132	-2.4055246134	 2.5118560106	 0.116353
109.5099	207.379	226.3312	230.6021	245.3609	249.476	313.4502	374.993	426.6234	487.528	596.9717	663.2757	704.9565	793.3736	808.2879	856.976	875.2625	891.7462	914.5266	946.4327	966.5726	1008.0753	1029.9672	1040.4081	1067.4419	1100.3783	1134.4879	1141.333	1181.9886	1210.0102	1233.9753	1246.0849	1300.5704	1320.5697	1348.6983	1365.7467	1402.8568	1407.8751	1482.0545	1484.2779	1487.7533	1493.2187	1494.9261	1510.3398	1745.5714	3011.9026	3013.5118	3031.2314	3038.3648	3043.5329	3061.5873	3071.2052	3101.0768	3107.6792	3111.0386	3117.3851	3199.487
CC1CC=C2COC12C	C[C@H]1C[CH][C]2CO[C@@]12C	
InChI=1S/C8H12O/c1-6-3-4-7-5-9-8(6,7)2/h4,6H,3,5H2,1-2H3	InChI=1S/C8H12O/c1-6-3-4-7-5-9-8(6,7)2/h4,6H,3,5H2,1-2H3/t6-,8-/m0/s1
