14
gdb 130171	3.59955	1.61241	1.11536	1.4518	69.25	-0.1966	0.0206	0.2171	999.2945	0.104177	-432.879831	-432.872649	-432.871704	-432.911351	27.471	
N	-0.0634557774	 1.389461834	 0.1642152041	-0.588021
C	 0.0594275866	 0.0072220719	 0.0462540941	 0.207801
N	-1.0208664296	-0.7699228428	 0.0250117575	-0.306479
N	-0.5557890936	-2.0731203475	-0.0039767682	-0.374304
C	 0.785361659	-2.0620363744	-0.0241904272	 0.476105
C	 1.2549118081	-0.7676932983	 0.011891563	 0.171436
C	 2.690204215	-0.9127409711	 0.0100095853	-0.376751
C	 2.9291611205	-2.2484712611	-0.0288735286	-0.015325
O	 1.7467055148	-2.996200385	-0.0495728595	-0.224515
H	 0.5889907158	 1.9001027684	-0.4155887023	 0.246465
H	-1.0127881797	 1.6924499114	-0.0147705502	 0.250934
H	-1.2094321371	-2.8334870338	-0.0244181855	 0.277138
H	 3.4498143886	-0.1471906957	 0.0374465539	 0.117193
H	 3.8285156089	-2.8399869959	-0.0463192564	 0.138322
120.5063	191.3705	243.0533	264.9259	307.3361	444.1376	536.9467	585.6675	636.7418	641.3595	686.4964	697.9031	739.5203	783.0383	818.5452	834.8515	913.9708	1004.2847	1038.7662	1106.588	1164.2529	1172.3918	1234.377	1337.0258	1361.4637	1470.3101	1533.6593	1552.1447	1594.7766	1626.1576	1649.5771	3255.4239	3294.1732	3539.292	3636.3774	3710.9985
NC1=NNC2=C1C=CO2	Nc1n[nH]c2c1cco2	
InChI=1S/C5H5N3O/c6-4-3-1-2-9-5(3)8-7-4/h1-2H,(H3,6,7,8)	InChI=1S/C5H5N3O/c6-4-3-1-2-9-5(3)8-7-4/h1-2H,(H3,6,7,8)
