23
gdb 122267	2.65807	0.84221	0.71472	2.787	87.6	-0.2477	-0.0148	0.2329	1700.5184	0.203814	-388.304246	-388.293823	-388.292879	-388.340341	37.872	
C	 0.1958300074	 1.5052445685	 0.3501685013	-0.381951
C	-0.0846842036	 0.0421016609	-0.0024926988	-0.161217
C	 0.7983164028	-0.4804102412	-1.1406256971	-0.163443
C	 0.5136430699	-1.9479894379	-1.4904544347	-0.293254
C	 1.3871142605	-2.496800655	-2.6037854096	 0.269414
C	 2.8358871823	-2.878186241	-2.3144613835	-0.298445
C	 1.8399816198	-3.9573594586	-2.5654409023	-0.316888
C	 1.1302573561	-1.9867228596	-3.9729750839	 0.120049
O	 0.2629837673	-1.2022059337	-4.2726874265	-0.274129
H	 1.2351440108	 1.6440570328	 0.6690008692	 0.110748
H	 0.0264507221	 2.1583578411	-0.5129316212	 0.117592
H	-0.4501301404	 1.8525266209	 1.1627123104	 0.109725
H	 0.0593137098	-0.5844003704	 0.8884945228	 0.088312
H	-1.1397277327	-0.0709768682	-0.2845304359	 0.098494
H	 0.6449846782	 0.134363367	-2.0340601122	 0.120881
H	 1.8552124346	-0.3698921227	-0.8612145717	 0.085378
H	 0.6478552793	-2.5693193845	-0.5958212265	 0.087492
H	-0.536349067	-2.0501169867	-1.7897627218	 0.113399
H	 3.5802435443	-2.6747265057	-3.0775402636	 0.123377
H	 3.1777398179	-2.7090421991	-1.2995075005	 0.128621
H	 1.478193932	-4.542900363	-1.7280483633	 0.129081
H	 1.8919890962	-4.4995837359	-3.5038803519	 0.123912
H	 1.8168061921	-2.404469498	-4.7485865787	 0.062852
60.7188	73.5238	115.7062	136.7344	147.4631	221.0829	238.2946	291.8687	297.9064	348.8232	398.9488	486.0294	545.4321	732.678	770.2376	788.315	815.162	836.4843	902.3593	916.7273	931.2941	955.3753	993.3224	1031.5455	1048.0096	1059.9718	1068.1895	1086.7826	1126.9284	1134.8198	1195.752	1237.4235	1277.354	1295.7661	1323.863	1332.7288	1359.4982	1373.7394	1399.287	1412.6484	1443.568	1465.9589	1474.401	1486.8466	1497.6553	1498.0133	1498.9909	1512.6342	1812.5623	2840.7306	3009.2369	3013.7612	3021.8688	3028.649	3041.4761	3060.1061	3083.1858	3095.8495	3100.9555	3132.7609	3135.2244	3213.2646	3227.5951
CCCCC1(CC1)C=O	CCCCC1(CC1)C=O	
InChI=1S/C8H14O/c1-2-3-4-8(7-9)5-6-8/h7H,2-6H2,1H3	InChI=1S/C8H14O/c1-2-3-4-8(7-9)5-6-8/h7H,2-6H2,1H3
