25
gdb 107406	2.91808	1.12631	0.99524	0.268	92.04	-0.2525	0.0813	0.3337	1373.0476	0.229947	-352.370777	-352.36121	-352.360266	-352.404806	37.41	
C	 0.0087082754	 1.5268367698	 0.4349323731	-0.374854
C	-0.002409959	 0.0269896331	 0.1118533189	-0.276033
C	-1.3763984738	-0.5096327774	-0.2331748721	 0.396546
C	-2.3108878019	-0.9111301535	 0.8865190626	-0.337265
C	-1.7500412206	-1.9642188715	-0.0413302288	-0.084829
C	-2.6083648806	-2.4253724777	-1.2077290002	-0.237902
C	-3.0274652837	-1.1427483138	-1.989383205	 0.022862
C	-4.5048299181	-0.7671991067	-1.8098361806	-0.397472
C	-2.0378142438	-0.0312544525	-1.5248314469	-0.292256
H	 1.0155927084	 1.8676564574	 0.6960523698	 0.107496
H	-0.3316446588	 2.1215288763	-0.4191756653	 0.116589
H	-0.6528900647	 1.7504670542	 1.2785567672	 0.116031
H	 0.683657758	-0.170098991	-0.7239226837	 0.089391
H	 0.3935402058	-0.5300526343	 0.9703662442	 0.08962
H	-1.9075071025	-0.8814452702	 1.8943863491	 0.102301
H	-3.3637817416	-0.6563793511	 0.8337855794	 0.105908
H	-1.0315636849	-2.6648691877	 0.3732699294	 0.073175
H	-2.0144623587	-3.0848612532	-1.8508669354	 0.093511
H	-3.4833353971	-3.0042168536	-0.8881933374	 0.092824
H	-2.8794654292	-1.3189109855	-3.0600204333	 0.072074
H	-4.7623497304	-0.572097944	-0.7640007619	 0.118836
H	-4.7505408558	 0.1339570223	-2.3823185986	 0.110247
H	-5.1572392573	-1.5734200168	-2.1626899422	 0.110397
H	-2.5476865001	 0.9323596618	-1.408161216	 0.093114
H	-1.2568133952	 0.1198380355	-2.2806350362	 0.089688
92.9695	109.6268	133.6339	204.9738	212.6022	263.9078	315.3832	367.2382	376.5379	388.6895	425.4601	592.9398	664.9878	708.8204	781.2517	797.241	826.3468	891.2274	894.2211	915.3596	930.9786	951.4589	978.6224	983.1201	1040.6487	1054.0418	1058.0684	1085.5703	1092.9953	1104.9075	1136.6143	1152.1071	1207.9212	1228.8874	1258.3433	1267.0652	1292.3068	1320.2363	1331.3633	1357.99	1366.5271	1372.6326	1402.4274	1408.7144	1422.7173	1478.109	1484.2459	1491.5766	1497.4532	1498.5819	1504.1525	1507.0651	1509.4236	3005.5567	3017.1259	3024.2401	3029.0321	3032.7362	3040.6531	3043.0999	3056.6132	3063.209	3093.3046	3101.962	3102.2107	3103.3554	3124.7599	3150.5961	3206.1095
CCC12CC1CC(C)C2	CC[C@]12C[C@H]1C[C@@H](C)C2	
InChI=1S/C9H16/c1-3-9-5-7(2)4-8(9)6-9/h7-8H,3-6H2,1-2H3	InChI=1S/C9H16/c1-3-9-5-7(2)4-8(9)6-9/h7-8H,3-6H2,1-2H3/t7-,8-,9+/m1/s1
