15
gdb 128663	3.29743	1.19297	0.88089	3.1734	73.19	-0.2421	-0.04	0.2021	1244.084	0.113159	-453.974553	-453.966579	-453.965635	-454.007515	28.603	
C	-0.0723334554	 1.3978280224	 0.0084510089	-0.239094
O	-0.0256869732	-0.0321089902	 0.003885698	-0.260877
C	-1.2055154661	-0.6519982895	 0.0103405568	 0.498116
N	-2.360553067	-0.0180470272	 0.0204253016	-0.340982
N	-3.2871268456	-1.0270066938	 0.0239130135	-0.032232
C	-4.6606304585	-0.7875141542	 0.0343543571	 0.184727
O	-5.1776164321	 0.2931694671	 0.0413392736	-0.269368
C	-2.6942749476	-2.2699197066	 0.0159308291	 0.025617
C	-1.3472446607	-2.0765292449	 0.0070078757	-0.363986
H	 0.9666258397	 1.7278236167	 0.0019076433	 0.132689
H	-0.5985710557	 1.7701486896	-0.8753924562	 0.144492
H	-0.5856929114	 1.7648914411	 0.9020167766	 0.144482
H	-5.2113109674	-1.7472274664	 0.0353803745	 0.093074
H	-3.2902083539	-3.1692725506	 0.0173984517	 0.154384
H	-0.5627476752	-2.8141175736	-0.0007816443	 0.12896
113.476	130.3636	156.2382	173.6452	258.1763	290.2145	391.4178	485.4449	540.5846	615.4637	684.5586	721.5427	778.108	836.219	854.8642	968.846	1015.9625	1019.4325	1054.6552	1084.078	1180.3644	1212.4356	1240.281	1323.0154	1384.9859	1444.0703	1452.6615	1457.3199	1479.9707	1499.0671	1538.1812	1622.477	1844.9315	2959.6662	3042.954	3114.5032	3155.3608	3259.2988	3286.1026
COC1=NN(C=O)C=C1	COc1nn(C=O)cc1	
InChI=1S/C5H6N2O2/c1-9-5-2-3-7(4-8)6-5/h2-4H,1H3	InChI=1S/C5H6N2O2/c1-9-5-2-3-7(4-8)6-5/h2-4H,1H3
