23
gdb 93818	2.28102	1.3444	0.99237	1.5064	88.61	-0.238	0.0196	0.2576	1315.3812	0.206094	-388.32046	-388.310852	-388.309908	-388.354354	37.243	
C	-0.0836056673	 1.5621764872	 0.0009980828	-0.398877
C	 0.0177526256	 0.0293830389	-0.0164264089	-0.005181
C	 0.7062593849	-0.4839432571	-1.2890731659	-0.212063
C	 1.0289925689	-1.97532284	-1.1717622101	-0.235121
C	 1.9800618208	-2.250052161	 0.0000542372	 0.059806
O	 3.3472766597	-1.9684091107	-0.336999092	-0.440166
C	 1.5841858757	-1.5013349122	 1.2580495	 0.256784
C	 2.2647388362	-1.9491677369	 2.5236329373	-0.477041
C	 0.7130566408	-0.4878121995	 1.2206967041	-0.136582
H	 0.9120587273	 2.0199432485	 0.0056227554	 0.113197
H	-0.6192359209	 1.9288563485	-0.8809235487	 0.111605
H	-0.6170880563	 1.9159644366	 0.8895385951	 0.11204
H	-1.0127766244	-0.3635105652	-0.0091289406	 0.081815
H	 0.0771809664	-0.2883748505	-2.1642674054	 0.092293
H	 1.6354387244	 0.0826305233	-1.4484703086	 0.08296
H	 0.099258984	-2.5376858689	-1.0134417753	 0.093558
H	 1.4893772549	-2.3576208544	-2.08806573	 0.100234
H	 1.9839624367	-3.3269129292	 0.2096639843	 0.080183
H	 3.4412664159	-1.0100458355	-0.3622506539	 0.276187
H	 3.3521960838	-1.9540459923	 2.3906963186	 0.135309
H	 2.0173815849	-1.3028378865	 3.3699733879	 0.113997
H	 1.9776409438	-2.9765362152	 2.7837257482	 0.120979
H	 0.4641953742	 0.0228008122	 2.1513266486	 0.074084
76.284	152.0243	196.1751	219.886	239.5542	250.582	292.7796	322.5124	343.3655	405.2225	430.9995	461.1019	564.1026	602.8796	641.6216	779.689	833.3273	875.7192	886.1788	925.2174	962.9151	1001.1283	1008.9234	1013.2226	1065.5052	1074.3281	1085.1069	1122.8988	1158.2045	1181.4552	1203.5155	1235.8783	1270.6793	1315.4826	1330.8767	1351.8932	1366.9396	1384.4918	1395.5154	1406.9264	1412.2451	1421.7603	1476.3147	1476.9811	1492.9876	1496.857	1498.4067	1500.7002	1729.5652	2959.8717	3004.5656	3018.108	3020.5266	3026.7632	3035.8542	3064.0884	3075.6237	3082.2568	3095.4088	3099.3982	3113.0338	3120.5163	3807.675
CC1CCC(O)C(C)=C1	C[C@H]1CC[C@@H](O)C(=C1)C	
InChI=1S/C8H14O/c1-6-3-4-8(9)7(2)5-6/h5-6,8-9H,3-4H2,1-2H3	InChI=1S/C8H14O/c1-6-3-4-8(9)7(2)5-6/h5-6,8-9H,3-4H2,1-2H3/t6-,8+/m0/s1
