17
gdb 55729	2.45995	1.27522	1.03959	3.9855	69.85	-0.254	-0.0308	0.2232	1210.7541	0.131385	-458.969829	-458.960186	-458.959242	-459.005321	33.463	
C	 0.288220046	 1.5836756905	-0.1566570896	-0.477046
C	 0.2223500175	 0.0803652191	 0.0194044809	 0.407158
O	 0.5191623339	-0.4670334362	 1.0543261213	-0.284259
C	-0.2518617814	-0.7201711908	-1.1968346382	-0.422086
C	-0.1142802083	-2.20347628	-0.9689684929	 0.343583
C	 0.3328131821	-3.1197090346	-2.0437964912	-0.230025
O	 1.2079109251	-2.7487092196	-0.9919647773	-0.257936
C	-1.0086497376	-2.8090725474	 0.074195483	 0.128404
O	-2.0638488797	-2.3340595546	 0.4055393174	-0.264692
H	 1.0376736665	 1.839053244	-0.91486417	 0.143002
H	-0.6716551869	 1.9727469219	-0.5137409876	 0.141625
H	 0.5524180041	 2.0568430506	 0.7894502549	 0.148765
H	-1.3067226715	-0.4753446831	-1.3725112907	 0.151551
H	 0.3038087754	-0.4046375662	-2.0861267981	 0.124406
H	 0.0099413889	-4.1603449434	-2.04393964	 0.127127
H	 0.5518302834	-2.6994657263	-3.0245996006	 0.126161
H	-0.6154795375	-3.762201344	 0.4897153684	 0.094264
43.4623	83.2263	119.1307	133.1186	140.4469	226.3141	303.9063	335.6622	383.8234	416.3474	459.8968	544.8804	601.2278	788.8644	819.5441	850.982	879.7742	891.8071	964.3628	973.2073	1042.7395	1055.8314	1133.5961	1161.7916	1180.7088	1203.3655	1309.7953	1330.6908	1364.6166	1386.3827	1414.5531	1439.3471	1463.3601	1476.1213	1526.0659	1814.7223	1829.3113	2907.0672	3035.2996	3045.1941	3080.7203	3087.2157	3098.5544	3155.2429	3168.9875
CC(=O)CC1(CO1)C=O	CC(=O)C[C@]1(CO1)C=O	
InChI=1S/C6H8O3/c1-5(8)2-6(3-7)4-9-6/h3H,2,4H2,1H3	InChI=1S/C6H8O3/c1-5(8)2-6(3-7)4-9-6/h3H,2,4H2,1H3/t6-/m1/s1
