17
gdb 40616	3.74495	1.30788	1.18279	2.9639	70.54	-0.2365	0.047	0.2835	1061.0068	0.135183	-421.706987	-421.699699	-421.698755	-421.739446	28.453	
C	-0.2821692777	 1.2034247516	-0.3104362792	-0.165678
O	 0.9453023038	 1.168244889	 0.4199025088	-0.252857
C	 0.3411324145	-0.0773752281	 0.0337803405	 0.05849
C	-0.1489176809	-0.9077320208	 1.1931026725	-0.035981
C	-1.5166400998	-1.515935457	 1.4070902095	-0.124855
C	-2.0965650953	-2.1833224688	 0.1246584555	 0.021066
O	-1.1818187827	-1.9912863652	-0.9655047441	-0.238304
C	-0.9189020398	-3.0305112554	-0.0101924399	 0.019979
C	-0.2765854071	-2.4066375061	 1.2679568801	-0.141894
H	-1.1516933514	 1.5390802963	 0.2538650587	 0.105778
H	-0.2156751594	 1.5841438646	-1.3289481068	 0.111789
H	 0.8839811294	-0.6049384375	-0.7452950601	 0.105328
H	 0.2345981059	-0.5055545053	 2.129465101	 0.116098
H	-2.1071720056	-1.3270526372	 2.2941954238	 0.096966
H	-3.1396946992	-2.345338672	-0.1167931435	 0.112878
H	-0.786674184	-4.0380561464	-0.3843009873	 0.112833
H	 0.2097495491	-3.0010208717	 2.0305299505	 0.098366
41.4678	158.7255	189.2841	335.9771	349.8783	429.2562	567.5003	666.905	724.7754	730.2345	770.5393	818.8061	838.5265	852.4741	874.6909	903.5049	939.082	960.2035	974.5458	1002.119	1025.8524	1046.3703	1052.1989	1085.0019	1090.6432	1154.1536	1162.2327	1195.8978	1232.0525	1239.203	1276.6857	1297.5306	1307.5563	1349.518	1404.3068	1451.0483	1527.6272	3078.7522	3130.5691	3147.3618	3166.3371	3185.9511	3195.9568	3198.5769	3208.4475
C1OC1C1C2C3OC3C12	C1O[C@H]1[C@H]1[C@H]2[C@H]3O[C@H]3[C@@H]12	
InChI=1S/C7H8O2/c1-2(8-1)3-4-5(3)7-6(4)9-7/h2-7H,1H2	InChI=1S/C7H8O2/c1-2(8-1)3-4-5(3)7-6(4)9-7/h2-7H,1H2/t2-,3-,4+,5-,6+,7-/m1/s1
