17
gdb 75321	2.41821	1.6982	1.17852	2.4549	75.17	-0.2466	-0.0387	0.2079	1064.9343	0.13455	-421.832531	-421.82435	-421.823406	-421.865161	30.759	
C	-0.4181309851	 1.4573510713	 0.0109992119	-0.506445
C	-0.1747470433	-0.0183507685	 0.0102774228	 0.265287
C	-0.1773495931	-0.8549790666	-1.0340759942	-0.17139
C	 0.1109073998	-2.2906250884	-0.6550229044	-0.295968
C	 0.3930051599	-2.2064210079	 0.8399199313	-0.013771
O	 1.4960400753	-1.4004143966	 1.2066480568	-0.287058
C	 0.1753858971	-0.789366301	 1.2516634141	 0.224141
C	-0.2858311246	-0.4625777329	 2.6243044672	 0.085353
O	-1.1406280962	 0.3475064318	 2.8863624061	-0.262909
H	 0.4702435171	 2.0025265559	 0.3533280643	 0.132799
H	-0.670541653	 1.8117689136	-0.9917185057	 0.121158
H	-1.2289222682	 1.7165862313	 0.6976594657	 0.158476
H	-0.3307874092	-0.5494923834	-2.0635017587	 0.100908
H	-0.7420662678	-2.9527970554	-0.8503906937	 0.12046
H	 0.9689478014	-2.7069238186	-1.1970645842	 0.131368
H	 0.1919151988	-3.0493817909	 1.497156523	 0.107066
H	 0.2371052111	-1.0509277636	 3.4097082876	 0.090523
100.8316	169.0409	193.9701	199.7111	262.6916	294.0623	354.211	436.8314	472.8835	591.7632	605.561	706.6306	752.8771	809.539	842.1326	856.8835	948.1642	964.0818	987.7494	1033.7041	1043.5918	1072.5527	1075.2675	1151.2289	1185.7837	1250.8356	1282.638	1314.0145	1355.6995	1386.4621	1413.5177	1424.9075	1462.2803	1474.0586	1493.2567	1703.097	1814.2822	2900.3929	3028.7815	3030.2633	3062.7317	3092.2191	3125.3648	3142.0691	3192.179
CC1=CCC2OC12C=O	CC1=CC[C@H]2O[C@@]12C=O	
InChI=1S/C7H8O2/c1-5-2-3-6-7(5,4-8)9-6/h2,4,6H,3H2,1H3	InChI=1S/C7H8O2/c1-5-2-3-6-7(5,4-8)9-6/h2,4,6H,3H2,1H3/t6-,7+/m1/s1
