25
gdb 95164	2.45868	1.36286	1.03064	0.2013	92.33	-0.2509	0.0805	0.3314	1305.8413	0.230617	-352.375231	-352.366072	-352.365128	-352.408393	36.999	
C	-0.0160367258	 1.5675496614	 0.0045566747	-0.403407
C	 0.0026139875	 0.036842447	-0.0346306268	 0.054936
C	 0.682852024	-0.501705046	-1.3003095252	-0.199795
C	 0.5038594472	-2.021682539	-1.417912553	-0.233383
C	 0.8692949944	-2.7688922878	-0.1470206779	-0.038391
C	 2.1935351012	-2.5511578647	 0.5440743863	-0.328999
C	 0.9171575193	-2.0568396379	 1.1924310723	 0.358071
C	 0.418308812	-2.8049118639	 2.413905239	-0.470274
C	 0.6744306189	-0.5406010806	 1.2255032016	-0.280922
H	 1.0031631212	 1.9722349248	-0.0090849031	 0.110403
H	-0.5489715813	 1.9813531888	-0.8582329685	 0.107368
H	-0.5063394124	 1.9385603167	 0.9113179312	 0.108094
H	-1.0396118897	-0.3167591409	-0.0508743241	 0.065751
H	 0.264867573	-0.0167602536	-2.1902246036	 0.088027
H	 1.7494445851	-0.2369190082	-1.2812913991	 0.091282
H	-0.5502482287	-2.2264779726	-1.6500606654	 0.093208
H	 1.0852184218	-2.4105457855	-2.2637677992	 0.091424
H	 0.4974910968	-3.7906391161	-0.1168160132	 0.072251
H	 2.6928892627	-3.4125029859	 0.9767321663	 0.099288
H	 2.8725923671	-1.8089378165	 0.1346116453	 0.101729
H	 0.6328510351	-3.8763528576	 2.3426557489	 0.10839
H	 0.8943033335	-2.4310524803	 3.3287921027	 0.111985
H	-0.6656725846	-2.6891949227	 2.5355845131	 0.110753
H	 1.6275739161	-0.0175308436	 1.3857451088	 0.092077
H	 0.0534005857	-0.2988227754	 2.0961045487	 0.090133
94.9829	166.7613	229.6967	238.0919	247.9243	283.572	348.6655	363.7932	380.3967	414.2969	449.4126	493.4541	592.3033	718.994	764.0956	805.3028	873.2813	882.5378	915.5502	919.0968	937.9647	950.9541	987.4842	998.3332	1040.1016	1050.9895	1067.5796	1093.5503	1121.6931	1138.3812	1153.4154	1169.8854	1183.9304	1245.302	1263.3028	1298.037	1323.5476	1330.7006	1335.8182	1376.5236	1378.9705	1399.2264	1411.5646	1415.0199	1422.5962	1483.5353	1488.1403	1490.1722	1493.2155	1497.2224	1499.7796	1501.6319	1510.7134	2983.845	3005.7498	3007.3758	3012.4116	3015.0884	3022.8971	3041.6882	3050.9351	3058.5258	3073.0074	3087.4976	3091.841	3094.0357	3117.2008	3125.7409	3199.6338
CC1CCC2CC2(C)C1	C[C@H]1CC[C@H]2C[C@@]2(C)C1	
InChI=1S/C9H16/c1-7-3-4-8-6-9(8,2)5-7/h7-8H,3-6H2,1-2H3	InChI=1S/C9H16/c1-7-3-4-8-6-9(8,2)5-7/h7-8H,3-6H2,1-2H3/t7-,8-,9+/m0/s1
