19
gdb 41339	3.06844	1.84936	1.53848	2.4884	73.24	-0.2463	0.084	0.3303	918.3078	0.162924	-423.008547	-423.002139	-423.001195	-423.03892	27.565	
C	-0.045754493	 1.5174537559	-0.1667197043	-0.282912
C	 1.509184224	 1.5186190593	 0.0656867005	-0.346671
C	 1.3425545019	 0.1745853089	 0.8058368201	 0.266265
C	 2.0735592614	-1.1597374964	 0.8196415646	-0.161066
O	 1.092958896	-1.9828326025	 1.5192257592	-0.284535
C	 0.0846455738	-1.1045651931	 2.0205701238	 0.217153
C	 0.8433840552	 0.1931493989	 2.2734350421	-0.296189
O	-0.8432839292	-0.7346014297	 0.992680837	-0.281622
C	-0.003459152	-0.0196271098	 0.0853555806	 0.141159
H	-0.5854211817	 2.0583045804	 0.6124230561	 0.117637
H	-0.4048925576	 1.847516812	-1.1429387823	 0.103931
H	 2.052362437	 1.4083461739	-0.8770950219	 0.111352
H	 1.9418084119	 2.3505698949	 0.6245934122	 0.107779
H	 2.2342178391	-1.5803833737	-0.1787467624	 0.105151
H	 3.0231594038	-1.1653809253	 1.3710907956	 0.095975
H	-0.4597995477	-1.6113921391	 2.8146614702	 0.09152
H	 1.6518934437	 0.1018486193	 3.002835853	 0.105255
H	 0.1890693794	 1.0249221972	 2.5320267915	 0.109872
H	 0.0752382641	-0.5713633512	-0.8581711356	 0.079945
211.6979	269.2413	328.7451	387.9332	464.0114	496.6365	539.8216	651.2928	669.1784	777.9108	793.8223	802.4444	869.9521	885.6423	898.2508	916.3083	937.4076	977.1433	993.6047	997.1022	1031.3585	1078.8903	1093.1105	1120.8156	1151.6558	1169.9501	1179.9677	1215.994	1224.8394	1251.5696	1257.4616	1271.6669	1289.3251	1324.2886	1333.3805	1376.7915	1380.2815	1478.5837	1490.7813	1501.5511	1527.4647	3010.0538	3038.2202	3063.2612	3069.0909	3076.663	3082.2548	3115.0258	3138.8488	3148.3866	3155.6567
C1CC23COC(C2)OC13	C1C[C@@]23CO[C@@H](C2)O[C@@H]13	
InChI=1S/C7H10O2/c1-2-7-3-6(8-4-7)9-5(1)7/h5-6H,1-4H2	InChI=1S/C7H10O2/c1-2-7-3-6(8-4-7)9-5(1)7/h5-6H,1-4H2/t5-,6+,7-/m0/s1
