18
gdb 107361	3.31548	1.22911	1.01609	5.0601	71.68	-0.2504	0.0474	0.2978	1197.867	0.147995	-439.124845	-439.11657	-439.115626	-439.15785	31.544	
C	-0.2482843756	 1.5287915201	 0.0022558038	-0.382952
C	 0.0746806653	 0.0307661274	 0.0718634242	-0.259125
C	 0.7746517824	-0.4875215133	-1.1615940191	 0.33185
C	 0.020861035	-0.9373251987	-2.4102580797	-0.367478
C	 0.8227384159	-1.9242365669	-1.5976123413	 0.038273
O	 2.1342513395	-2.2160931021	-2.0290209524	-0.240763
C	 2.8955699129	-1.0686160548	-1.9737185889	 0.466667
O	 4.0173488169	-0.9975534694	-2.3865395079	-0.384196
N	 2.1345456512	-0.0797143906	-1.3814524476	-0.422237
H	 0.6631164745	 2.1319972686	-0.0722324906	 0.117296
H	-0.8748728431	 1.7581754361	-0.8656602059	 0.123963
H	-0.7812412813	 1.8544564285	 0.9000038511	 0.122911
H	 0.7032615604	-0.1765571491	 0.9459867273	 0.113986
H	-0.8530670221	-0.5376205802	 0.2056722021	 0.104547
H	-1.0583106779	-1.0188805655	-2.3348760921	 0.123576
H	 0.3989938109	-0.6466758347	-3.3843813503	 0.129877
H	 0.3608422691	-2.7422874168	-1.0595472376	 0.121167
H	 2.4124603359	 0.8769380515	-1.5266350351	 0.262635
79.5063	131.2912	162.0125	222.7072	294.2273	347.4745	403.0312	443.3038	478.5311	510.6666	642.1081	704.3689	759.9654	770.783	808.9161	856.6037	895.2057	927.0657	966.6076	984.8926	1023.3293	1035.2851	1059.5115	1089.9112	1129.3651	1148.6854	1209.6737	1264.1806	1272.3487	1341.2526	1372.4946	1377.0085	1413.0123	1419.8075	1472.3777	1477.494	1501.3604	1506.4399	1896.7804	3030.9858	3035.878	3068.5581	3103.5041	3113.5242	3131.1399	3195.1303	3226.5469	3657.4067
CCC12CC1OC(=O)N2	CC[C@]12C[C@H]1OC(=O)N2	
InChI=1S/C6H9NO2/c1-2-6-3-4(6)9-5(8)7-6/h4H,2-3H2,1H3,(H,7,8)	InChI=1S/C6H9NO2/c1-2-6-3-4(6)9-5(8)7-6/h4H,2-3H2,1H3,(H,7,8)/t4-,6+/m1/s1
