15
gdb 69296	3.10546	1.38608	1.07937	4.0874	71.86	-0.2665	-0.0483	0.2183	1092.4221	0.111504	-416.793214	-416.784948	-416.784003	-416.826276	29.919	
C	 0.1009496916	 1.5809916003	 0.0808300472	-0.498234
C	-0.0360417259	 0.0950608408	-0.0430435014	 0.201657
C	-0.9237591086	-0.755569145	 0.8076612826	-0.282497
N	 0.517182861	-0.9453372445	 0.9598991479	-0.146671
C	 0.9217698978	-1.8476361844	-0.1804665378	-0.242008
C	 0.3201122362	-3.1671485858	-0.2162014535	 0.303921
N	-0.1868382774	-4.2057982797	-0.2563148284	-0.323121
C	 0.4540677614	-0.7332799994	-1.1870167934	 0.367674
O	 0.674211964	-0.5274261107	-2.3394668665	-0.283441
H	 1.0839704809	 1.9159903385	-0.2617338446	 0.144505
H	-0.6590283806	 2.0803849223	-0.5285793399	 0.14989
H	-0.0333288796	 1.8932892452	 1.1195987842	 0.143995
H	-1.3802189423	-0.2494023802	 1.6528262934	 0.147396
H	-1.5264263035	-1.5503932161	 0.3759359082	 0.153686
H	 2.0122104449	-1.9248690513	-0.2210235779	 0.163249
96.9133	128.5177	137.2481	175.7876	258.3032	300.4744	400.8164	442.6083	491.1385	566.0361	624.0991	665.8573	731.6074	791.938	838.569	891.4026	969.2119	973.2524	1046.6244	1068.3293	1084.9797	1130.6769	1138.967	1180.5006	1288.4744	1308.9184	1365.8164	1415.519	1479.9986	1489.0012	1509.1793	1904.6389	2350.7072	3045.3373	3084.7318	3114.2133	3117.5455	3128.0541	3208.4534
CC12CN1C(C#N)C2=O	C[C@]12CN1[C@@H](C#N)C2=O	
InChI=1S/C6H6N2O/c1-6-3-8(6)4(2-7)5(6)9/h4H,3H2,1H3	InChI=1S/C6H6N2O/c1-6-3-8(6)4(2-7)5(6)9/h4H,3H2,1H3/t4-,6+,8?/m0/s1
