20
gdb 69268	2.52973	1.62116	1.2004	4.0415	79.2	-0.2377	0.0066	0.2442	1097.754	0.172221	-403.173223	-403.165	-403.164056	-403.205726	32.297	
C	-0.1784924783	 1.4701616573	 0.0488423832	-0.45116
C	 0.0489352624	-0.0252323461	-0.0617111493	 0.314252
C	 1.4688549929	-0.5142113516	-0.0634610585	-0.283713
N	 0.6382515359	-0.6372241665	 1.1313186141	-0.119907
C	 0.2613745523	-1.9158454447	 1.5783812127	 0.361425
O	 1.0454062064	-2.6637550021	 2.1121832845	-0.327725
C	-1.1731742755	-2.2737805912	 1.2440877192	-0.295828
C	-1.2765750208	-2.2174600571	-0.2967192408	-0.225825
C	-1.0634123383	-0.7784095233	-0.7936515393	-0.273401
H	 0.6423541808	 1.9526878132	 0.5848606787	 0.129273
H	-0.2561266201	 1.9211941764	-0.9467447165	 0.120225
H	-1.1083785045	 1.6832897756	 0.5873880787	 0.121381
H	 1.7090264168	-1.4361722249	-0.5878111714	 0.125802
H	 2.2855218173	 0.2013201275	-0.0111185637	 0.121213
H	-1.3874880395	-3.2687794023	 1.636642254	 0.12428
H	-1.8713477867	-1.5567427432	 1.6920108636	 0.115523
H	-0.5296487861	-2.8964956464	-0.7258709329	 0.116176
H	-2.2520656008	-2.5822163263	-0.6320242404	 0.108973
H	-1.9933176027	-0.2202954695	-0.6285958341	 0.107596
H	-0.8845535917	-0.7582554249	-1.8746995017	 0.111439
96.3174	151.5937	218.3454	237.4205	307.1034	362.9548	380.7347	427.7965	430.2547	529.2312	573.7525	697.0594	709.5133	726.9077	871.1156	876.9253	915.0439	920.2652	950.7867	965.7085	1021.6729	1047.7071	1063.3836	1113.0596	1117.8144	1138.1014	1147.25	1196.1364	1233.8502	1280.4995	1293.3075	1332.614	1355.6933	1378.7904	1405.3709	1419.2486	1474.5466	1482.8887	1491.7822	1496.4666	1502.7316	1517.9598	1812.1792	3026.5792	3032.6604	3033.4643	3045.1737	3066.1484	3084.3513	3095.1983	3102.2763	3122.438	3128.4261	3187.8637
CC12CN1C(=O)CCC2	C[C@@]12CN1C(=O)CCC2	
InChI=1S/C7H11NO/c1-7-4-2-3-6(9)8(7)5-7/h2-5H2,1H3	InChI=1S/C7H11NO/c1-7-4-2-3-6(9)8(7)5-7/h2-5H2,1H3/t7-,8?/m1/s1
