18
gdb 75273	2.35224	1.60026	1.4612	1.9742	79.18	-0.226	-0.0302	0.1958	1022.9572	0.147147	-401.939542	-401.931347	-401.930403	-401.972171	30.911	
C	 0.0690635595	 1.4586998447	-0.0300747024	-0.502362
C	-0.0063808604	-0.034140903	-0.0622939038	 0.343686
C	-0.1098398566	-0.8489036119	-1.1158881749	-0.161712
C	-0.1489208382	-2.2935963249	-0.6903492011	-0.206582
N	-0.0543691199	-2.2741847203	 0.7955459186	-0.124481
C	 1.2152145319	-1.8120976724	 1.3833386024	-0.097482
C	 2.5106998864	-1.6426434622	 0.6838302524	 0.145081
O	 2.7075306997	-1.6736552761	-0.5093985327	-0.27542
C	 0.0352944482	-0.8666007464	 1.1744256738	-0.148833
H	 1.0260045291	 1.7993534135	 0.3848346454	 0.132267
H	-0.0359840884	 1.8843114983	-1.0309038853	 0.131222
H	-0.7181209796	 1.8838100112	 0.6050506093	 0.127347
H	-0.1292049829	-0.5384848022	-2.1540167961	 0.100838
H	-1.0952374381	-2.7824605178	-0.9560319705	 0.114264
H	 0.6643472513	-2.8789317836	-1.1268190871	 0.143013
H	 1.346922053	-2.1660941232	 2.4052400444	 0.103975
H	 3.3542189059	-1.4830337628	 1.3946333383	 0.076289
H	-0.4914722009	-0.5393369313	 2.0691938493	 0.098891
106.0624	159.5115	167.6375	200.0655	261.7104	299.3937	331.657	398.4016	566.3648	601.7883	717.4177	735.02	753.2268	811.6315	851.5487	884.2746	940.3789	950.2088	987.2601	1022.8803	1031.7988	1044.2764	1069.4334	1092.9303	1108.0048	1196.6906	1219.3398	1272.0649	1281.4076	1339.2038	1370.5435	1385.6962	1415.6738	1432.4988	1478.836	1479.6426	1489.0463	1710.1015	1796.3829	2862.5413	3020.404	3021.0381	3066.7358	3097.5916	3113.3691	3118.5799	3125.1185	3204.8452
CC1=CCN2C(C=O)C12	CC1=CCN2[C@@H](C=O)[C@@H]12	
InChI=1S/C7H9NO/c1-5-2-3-8-6(4-9)7(5)8/h2,4,6-7H,3H2,1H3	InChI=1S/C7H9NO/c1-5-2-3-8-6(4-9)7(5)8/h2,4,6-7H,3H2,1H3/t6-,7+,8?/m0/s1
