12
gdb 25343	3.32279	1.36155	0.9658	5.1084	66.47	-0.2771	-0.1192	0.1579	1098.8082	0.077495	-468.828022	-468.820696	-468.819752	-468.86078	25.691	
N	 0.0199753189	 1.3315828467	 0.0096844066	-0.494585
C	-0.028125441	 0.0749704871	 0.0035001054	 0.440208
O	 1.1966201059	-0.6792318542	-0.0072807659	-0.205699
C	 1.1249426097	-2.0065205051	-0.0145961269	 0.155035
N	 0.0508799632	-2.7048426643	-0.0128090928	-0.311885
C	-1.1136291139	-1.9401893471	-0.002542092	 0.233673
C	-2.3834021009	-2.7686024211	-0.0006559578	 0.125821
O	-3.4867228979	-2.2994578752	 0.0077218497	-0.209773
N	-1.1969683112	-0.6548729372	 0.0051160023	-0.249389
H	 0.9830081108	 1.6649313994	 0.0064643386	 0.2414
H	 2.1090880224	-2.4696235138	-0.0219995953	 0.165322
H	-2.182468096	-3.8586451753	-0.0077862818	 0.109874
63.629	112.2459	177.4656	195.2622	388.337	426.4518	487.5009	571.1319	622.857	682.0369	714.607	780.593	857.5726	866.8933	944.5044	992.8622	1043.4304	1077.0818	1136.8033	1267.1731	1280.876	1400.6713	1414.5452	1591.3177	1678.0982	1763.831	1839.8655	2944.6667	3177.5251	3516.4768
N=C1OC=NC(C=O)=N1	[NH]C1=N[C@@H](N=CO1)C=O	
InChI=1S/C4H3N3O2/c5-4-7-3(1-8)6-2-9-4/h1-2,5H	InChI=1S/C4H4N3O2/c5-4-7-3(1-8)6-2-9-4/h1-3,5H/t3-/m1/s1
