18
gdb 24117	4.68362	0.91508	0.87875	1.7314	78.62	-0.2177	0.0178	0.2354	1363.6008	0.149323	-401.947699	-401.939741	-401.938796	-401.981523	29.676	
C	-0.064174931	 1.5572854416	 0.1733497286	-0.363944
C	-0.1353690112	 0.0498031413	 0.3627431389	 0.04357
C	-1.3286052058	-0.7017067945	-0.094193718	-0.247331
N	-0.0383772542	-0.8494265099	-0.7942284488	-0.307952
C	 1.3168453634	 2.0588262457	-0.0843874152	 0.386459
C	 1.9213467139	 2.6364889577	-1.1582617204	-0.277686
C	 3.2862360487	 2.8707714721	-0.7839300368	-0.167464
C	 3.406815774	 2.4163262962	 0.4883550515	-0.018577
O	 2.2187344871	 1.9202818021	 0.9310655252	-0.180468
H	-0.6965834435	 1.8511518221	-0.6721636503	 0.107812
H	-0.4777341038	 2.0478732491	 1.0650467893	 0.122606
H	 0.4048674212	-0.3140946639	 1.2339334644	 0.104741
H	-1.6631054082	-1.5856071966	 0.4415023137	 0.119554
H	-2.12514841	-0.1402415127	-0.5774544138	 0.107418
H	-0.0431810112	-0.3041702228	-1.6538934748	 0.225535
H	 1.4527704054	 2.8723303445	-2.1012232951	 0.103596
H	 4.0639451254	 3.3170670126	-1.3834124102	 0.11035
H	 4.2217952297	 2.3730724857	 1.1916506019	 0.131781
50.4159	58.6682	114.4064	261.8295	322.6035	362.4619	441.8564	614.7424	648.0857	738.1637	751.6915	788.1215	806.4457	827.5783	846.4364	901.3767	915.1939	933.2243	959.237	974.8676	1032.4217	1048.0182	1097.2121	1125.2102	1140.3039	1164.8774	1184.4048	1236.5049	1239.1945	1252.9772	1278.8936	1311.1181	1329.6056	1413.2882	1425.0107	1460.6061	1513.4481	1542.339	1637.5725	3014.9196	3069.7964	3103.5311	3135.6685	3188.2598	3249.1624	3261.1125	3286.542	3485.8003
C(C1CN1)C1=CC=CO1	C([C@H]1CN1)c1ccco1	
InChI=1S/C7H9NO/c1-2-7(9-3-1)4-6-5-8-6/h1-3,6,8H,4-5H2	InChI=1S/C7H9NO/c1-2-7(9-3-1)4-6-5-8-6/h1-3,6,8H,4-5H2/t6-/m0/s1
