16
gdb 33815	2.26101	1.56527	1.11107	1.9001	85.01	-0.2363	0.0032	0.2395	1118.3862	0.122371	-363.502664	-363.49427	-363.493326	-363.535442	32.529	
C	 0.0145311119	-1.2106686023	 0.0352245276	-0.394819
C	 0.0287535424	-0.0080457361	 0.0231068251	 0.279077
C	 0.0224312521	 1.4132537357	-0.0511869298	 0.052683
C	-0.7370330303	 2.2553610489	-1.0951710442	-0.290284
C	 0.433502997	 3.2865915691	-1.1007604342	-0.290241
C	 1.1787997588	 2.431902737	-0.0567980906	 0.052598
N	 0.350395266	 2.213122131	 1.125984528	-0.372855
C	 2.5883377598	 2.2466906833	 0.0106668624	 0.27923
C	 3.7832636246	 2.1097253454	 0.0179664587	-0.39489
H	 0.0099482048	-2.2721174313	 0.0640251669	 0.192434
H	-0.8455667136	 1.7428160214	-2.0521320194	 0.125454
H	-1.7196715513	 2.6087635941	-0.7675160388	 0.106111
H	 0.9504605219	 3.3251475071	-2.0607202467	 0.125445
H	 0.2085494527	 4.3074730083	-0.7766724844	 0.106117
H	-0.3159822134	 2.970372923	 1.2773135644	 0.231512
H	 4.8369484165	 1.9803534954	 0.0411192648	 0.192429
87.6261	148.3851	173.4519	197.1103	293.4523	410.2622	431.2244	494.0492	552.5564	560.9724	597.7588	606.6992	630.0954	656.686	657.8764	659.1084	767.0017	774.961	806.0153	951.5214	997.519	1054.036	1083.8373	1113.211	1129.7613	1162.211	1205.9084	1240.6829	1253.134	1324.0422	1425.2469	1477.9837	1497.8177	2235.7012	2240.9086	3052.8213	3060.2485	3117.4721	3133.4487	3446.6874	3502.3948	3502.913
C#CC12CCC1(N2)C#C	C#C[C@]12CC[C@]1(N2)C#C	
InChI=1S/C8H7N/c1-3-7-5-6-8(7,4-2)9-7/h1-2,9H,5-6H2	InChI=1S/C8H7N/c1-3-7-5-6-8(7,4-2)9-7/h1-2,9H,5-6H2/t7-,8+
