16
gdb 43821	3.05618	1.59464	1.21584	3.4479	71.28	-0.253	0.0031	0.256	1017.1176	0.124693	-437.861072	-437.853917	-437.852973	-437.89268	28.228	
N	-0.0864661877	 1.2243367785	 0.4141248867	-0.547236
C	-0.0316126711	 0.0247497861	 0.0292607903	 0.418093
O	 1.1004713178	-0.6321654952	-0.3820263197	-0.279681
C	 0.7687498195	-1.8759321461	-0.9996332714	 0.434817
C	 1.4147389216	-2.1904128474	-2.3162946455	-0.331678
C	 1.840094216	-2.914327244	-1.0509392232	-0.3232
C	-0.6755263436	-2.1299995388	-0.7109840635	-0.073788
O	-0.9608928303	-2.1207023919	 0.6877759642	-0.244182
C	-1.188086659	-0.9148424128	-0.0659838786	-0.054142
H	 0.8327050526	 1.6667386975	 0.3577463733	 0.227217
H	 0.8364152741	-2.7288444085	-3.0600212465	 0.123135
H	 2.0901977351	-1.4424090936	-2.7147790603	 0.135232
H	 2.7961386861	-2.641622726	-0.6194876221	 0.139018
H	 1.5566652604	-3.9520937415	-0.9159954658	 0.130111
H	-1.2688784466	-2.79277254	-1.3329726058	 0.118108
H	-2.203852075	-0.542010766	-0.1108582622	 0.128177
105.0898	174.6829	256.3979	276.1352	380.5502	433.2403	498.3795	556.3934	639.8295	717.8956	761.2833	835.8262	861.8905	870.1983	885.8309	907.2978	908.6067	951.038	972.2079	990.3841	1020.3304	1060.2831	1076.6366	1083.4322	1108.0837	1187.4553	1231.0958	1242.1413	1273.2319	1348.6	1365.7267	1425.8562	1452.6568	1501.2785	1786.2074	3135.0858	3142.7411	3169.5359	3206.0216	3223.2672	3237.4305	3473.6045
N=C1OC2(CC2)C2OC12	[NH][C]1OC2(CC2)[C@H]2O[C@@H]12	
InChI=1S/C6H7NO2/c7-5-3-4(8-3)6(9-5)1-2-6/h3-4,7H,1-2H2	InChI=1S/C6H7NO2/c7-5-3-4(8-3)6(9-5)1-2-6/h3-4,7H,1-2H2/t3-,4+/m1/s1
