17
gdb 56412	3.8718	0.63123	0.58129	0.4268	88.69	-0.2527	0.0309	0.2836	1897.8819	0.131614	-347.453295	-347.442827	-347.441883	-347.491247	36.904	
C	 0.0257517541	 1.15969358	-0.5014290317	-0.377809
C	 0.0826984207	-0.1877015644	 0.2617744721	-0.322192
C	 0.7681356141	-0.0356968298	 1.5505176326	 0.345197
C	 1.3459578557	 0.1121187282	 2.5930089041	-0.469031
C	-1.2565465028	-0.7642326173	 0.4297276947	 0.120395
C	-2.3604434422	-1.2260777823	 0.5448905105	 0.065308
C	-3.7018898898	-1.7925643349	 0.7009036344	-0.491761
C	-4.0532420946	-2.7630601475	-0.3378665847	 0.317317
C	-4.3534231957	-3.5599323145	-1.1840069266	-0.444215
H	 1.0364915722	 1.5477728136	-0.6497066441	 0.127599
H	-0.4503141425	 1.0155971128	-1.474343696	 0.128423
H	-0.5512145339	 1.89247437	 0.0668937575	 0.136933
H	 0.6730862053	-0.8877295458	-0.3473464063	 0.139011
H	 1.85165332	 0.2312084363	 3.5190954805	 0.198987
H	-3.7827175468	-2.2718424563	 1.6863503555	 0.163959
H	-4.4446501221	-0.9828585366	 0.7053692518	 0.161262
H	-4.6141033315	-4.2636795814	-1.9351232342	 0.200618
6.3417	66.7283	96.1737	142.2192	199.3471	232.8848	282.5788	290.8306	322.8087	364.7576	455.6768	507.7185	559.2484	580.0275	622.7237	631.2818	645.21	649.8593	753.8251	864.8373	934.2551	942.9407	1001.8897	1071.5594	1089.4969	1179.9486	1230.4875	1300.091	1322.3125	1336.577	1402.9893	1452.7316	1488.9789	1497.1895	2241.6096	2247.6189	2380.1131	2999.4176	3009.0046	3033.3155	3051.6609	3132.7439	3138.0644	3504.7826	3507.2037
CC(C#C)C#CCC#C	C[C@@H](C#C)C#CCC#C	
InChI=1S/C9H8/c1-4-6-7-8-9(3)5-2/h1-2,9H,6H2,3H3	InChI=1S/C9H8/c1-4-6-7-8-9(3)5-2/h1-2,9H,6H2,3H3/t9-/m0/s1
