19
gdb 90631	3.59655	1.08118	1.00723	3.3775	81.4	-0.2682	0.0287	0.2969	1253.3482	0.159886	-382.054462	-382.045712	-382.044768	-382.087452	33.664	
C	-0.0793361456	 1.4904229637	-0.0291589102	-0.412129
C	 0.0091838879	-0.0281584409	 0.0586089048	 0.021161
C	 1.0624192744	-0.6756054294	-0.9020754763	-0.259212
C	 1.8618156122	-1.1524488404	 0.3149770035	-0.079382
C	 0.8360928646	-0.5316389905	 1.255258077	-0.081901
C	 0.9981425425	-2.0417345768	 1.1961909192	 0.136607
N	-0.0290987922	-2.8742378281	 0.6246042788	-0.560056
C	 1.7081441138	-2.5946503013	 2.3357998343	 0.22937
N	 2.2406686481	-3.0814476499	 3.2411589805	-0.345394
H	 0.9108577729	 1.9522564377	 0.0550546187	 0.117085
H	-0.5138883768	 1.7978147372	-0.9862323602	 0.118877
H	-0.7069710142	 1.8979495789	 0.7709521216	 0.117382
H	-0.9863662568	-0.4738163577	-0.0095717234	 0.083692
H	 0.7006930463	-1.4542377775	-1.5762435751	 0.109999
H	 1.6067484843	 0.0787893395	-1.4755177564	 0.106425
H	 2.9405628884	-1.1948152385	 0.4019486621	 0.106944
H	 0.985093585	-0.0053034438	 2.191058393	 0.10385
H	 0.361046198	-3.7572495693	 0.3094399572	 0.24333
H	-0.7416309629	-3.0885018431	 1.315709721	 0.243353
119.6371	142.1336	166.6432	244.4737	258.0422	272.3638	316.8192	361.1342	441.8348	459.6803	561.7262	596.2777	681.4676	720.6117	825.5357	853.735	854.7319	889.1787	905.2309	941.6008	990.6988	1034.2102	1038.5464	1051.2076	1105.5932	1124.955	1140.902	1208.3928	1244.3422	1256.2515	1268.9468	1274.4535	1292.228	1350.1147	1385.0369	1411.0532	1475.7443	1494.9674	1500.7175	1659.2509	2337.397	3026.1499	3066.9173	3070.8321	3096.0044	3099.8671	3123.224	3178.4962	3192.2812	3496.0952	3573.898
CC1CC2C1C2(N)C#N	C[C@H]1C[C@H]2[C@@H]1[C@]2(N)C#N	
InChI=1S/C7H10N2/c1-4-2-5-6(4)7(5,9)3-8/h4-6H,2,9H2,1H3	InChI=1S/C7H10N2/c1-4-2-5-6(4)7(5,9)3-8/h4-6H,2,9H2,1H3/t4-,5-,6+,7-/m0/s1
