18
gdb 62143	4.61079	0.71988	0.68123	5.8752	73.96	-0.2478	0.0078	0.2556	1608.5584	0.147522	-435.299723	-435.289607	-435.288663	-435.335839	34.987	
N	 0.335523508	 1.3479731787	-0.3354713453	-0.495118
C	 0.0318295194	-0.0526887519	-0.073165712	 0.013241
C	 0.4570319687	-1.0280903394	-1.1965074667	-0.180763
N	-0.0788398921	-0.6758597168	-2.5000461035	-0.273862
C	 0.6150581937	 0.0783142076	-3.3942653475	 0.145423
O	 1.7048335487	 0.5725583816	-3.1880675166	-0.324045
C	 0.7171646086	-0.488889971	 1.2439284065	-0.33204
C	 0.1806238521	 0.2046613216	 2.4111993878	 0.279952
N	-0.2624291032	 0.7259915694	 3.3419893725	-0.307287
H	 1.2346877041	 1.4324646802	-0.8035712545	 0.247808
H	-0.3473951168	 1.7435358979	-0.9715734065	 0.236386
H	-1.0524583732	-0.1337139581	 0.0692332076	 0.097561
H	 1.5482465635	-1.018507034	-1.2882686848	 0.142088
H	 0.1462815996	-2.050511034	-0.9537961111	 0.111409
H	-0.9754049066	-1.0406832396	-2.7789320744	 0.25413
H	 0.0714819075	 0.192798417	-4.3519439882	 0.087656
H	 0.6033564302	-1.5680603423	 1.4008036649	 0.143242
H	 1.7927264676	-0.2870241469	 1.1748579517	 0.154219
52.0469	62.1571	92.2149	128.8936	186.4477	206.7711	254.6438	305.7956	346.8635	393.3962	425.2795	453.0331	515.1294	606.6731	749.2413	849.3397	879.3279	900.989	939.1933	991.276	1019.1952	1032.652	1065.3156	1151.0453	1182.47	1205.7107	1260.512	1289.0461	1342.5606	1359.223	1400.4552	1422.3033	1428.192	1457.4725	1469.2341	1529.0299	1674.3496	1795.8629	2367.2922	2950.6851	3034.0808	3037.8653	3044.219	3078.7006	3096.258	3498.9008	3583.5321	3639.7097
NC(CNC=O)CC#N	N[C@@H](CNC=O)CC#N	
InChI=1S/C5H9N3O/c6-2-1-5(7)3-8-4-9/h4-5H,1,3,7H2,(H,8,9)	InChI=1S/C5H9N3O/c6-2-1-5(7)3-8-4-9/h4-5H,1,3,7H2,(H,8,9)/t5-/m1/s1
