14
gdb 124345	2.86287	1.63811	1.04863	5.5568	65.4	-0.2453	-0.0296	0.2157	1058.2726	0.101226	-470.072037	-470.064071	-470.063127	-470.10505	28.57	
C	-0.0271683922	 1.524313035	-0.096953224	-0.483531
C	-0.020318241	 0.0224165998	 0.0714949711	 0.418932
O	-0.0316326255	-0.5514347086	 1.127455713	-0.285377
N	 0.0008833605	-0.7029290949	-1.1465450308	-0.156389
N	 0.0137818658	-0.0411024828	-2.3691190028	-0.238786
C	 0.0317016975	-0.9828897418	-3.2521744094	 0.075649
N	 0.031584282	-2.2303516312	-2.6932669603	-0.376379
C	 0.0114154783	-2.1107625294	-1.2963139624	 0.508544
O	 0.0055663934	-2.9921278583	-0.4810591951	-0.370318
H	 0.8554834046	 1.8568781583	-0.6492529659	 0.155644
H	-0.8985475002	 1.8461512192	-0.673016667	 0.155652
H	-0.0433992372	 1.9693603048	 0.8972471549	 0.14585
H	 0.0453929515	-0.8056775404	-4.3167696938	 0.16439
H	 0.0435847025	-3.1203861097	-3.1609364576	 0.28612
72.0094	124.4057	154.6116	205.0333	251.6769	351.0105	465.7286	488.7269	541.9146	582.0044	653.7548	656.5564	756.094	756.4806	867.1466	920.3845	953.1197	1057.2411	1068.1588	1102.3372	1163.4818	1179.7439	1324.3589	1334.6069	1395.2945	1426.5979	1460.2729	1471.329	1636.3693	1813.2272	1891.816	3062.0843	3128.8937	3170.7804	3261.5327	3684.3058
CC(=O)N1N=CNC1=O	CC(=O)n1nc[nH]c1=O	
InChI=1S/C4H5N3O2/c1-3(8)7-4(9)5-2-6-7/h2H,1H3,(H,5,6,9)	InChI=1S/C4H5N3O2/c1-3(8)7-4(9)5-2-6-7/h2H,1H3,(H,5,6,9)
