15
gdb 24309	3.0936	2.33637	1.53361	3.814	69.49	-0.2068	-0.035	0.1718	822.1685	0.115806	-416.733579	-416.727541	-416.726597	-416.763862	24.256	
C	-0.1198078832	 1.5179904633	-0.0774937183	-0.191183
C	 1.4261856861	 1.7076188274	 0.0537176101	-0.104503
C	 2.139509507	 2.1275579755	 1.3850122088	-0.099529
O	 2.2420700344	 0.9209313792	 2.2264362855	-0.256172
C	 1.5494537823	-0.0267161687	 1.5464264375	 0.317139
C	 1.3902528501	 0.2189650702	 0.2229770259	-0.033376
N	-0.0018279362	-0.0504238036	-0.0513624156	-0.139991
C	-0.3845560657	-0.7408345853	 1.1127851818	 0.007417
N	 0.5216608112	-0.7930617429	 2.0640897056	-0.263062
H	-0.7062604219	 1.8650971238	 0.7737137113	 0.143385
H	-0.5553831844	 1.8496551031	-1.0189918597	 0.140537
H	 1.8922887773	 2.1646841991	-0.8210745769	 0.093187
H	 3.1547116415	 2.4728790331	 1.1726537933	 0.132271
H	 1.6198686808	 2.8961208196	 1.9689205955	 0.121271
H	-1.3391206494	-1.2503263338	 1.1781476951	 0.132608
141.4166	282.5236	322.8505	363.1443	517.6703	649.2427	677.2927	714.3349	728.0511	756.6471	828.8384	850.8135	873.3879	887.8335	942.2327	966.3282	1012.0882	1065.4434	1096.5662	1118.0291	1135.5144	1166.7163	1204.1503	1223.7534	1266.3961	1293.8144	1315.8777	1334.2077	1384.5273	1455.21	1477.6931	1504.0201	1590.1623	3038.2794	3080.8101	3087.7974	3103.6872	3164.8553	3210.6921
C1C2COC3=C2N1C=N3	C1[C@H]2CO[C]3[C]2N1[CH][N]3	
InChI=1S/C6H6N2O/c1-4-2-9-6-5(4)8(1)3-7-6/h3-4H,1-2H2	InChI=1S/C6H6N2O/c1-4-2-9-6-5(4)8(1)3-7-6/h3-4H,1-2H2/t4-/m0/s1
