18
gdb 98987	4.01098	0.82915	0.69305	1.1633	73.25	-0.2266	-0.0164	0.2103	1586.4316	0.146516	-472.442448	-472.432055	-472.431111	-472.479339	35.798	
C	-2.3611596567	 1.4736504896	-0.0297062761	-0.309017
N	-2.3470957694	 0.0272123322	 0.0095044666	-0.311853
C	-1.1789675209	-0.6530874567	-0.0234114322	 0.470506
N	-0.0432175146	-0.0662022914	-0.0915989013	-0.57504
N	-1.3154096878	-2.0761124516	 0.0237206018	-0.407354
C	-2.4385608013	-2.8432100294	 0.0971022635	 0.41348
O	-3.5846226658	-2.4140750332	 0.1379404097	-0.395629
C	-2.2026607084	-4.3560410926	 0.1290504158	-0.145135
O	-3.4172241858	-5.0355066741	 0.2037053978	-0.415535
H	-3.3990486141	 1.8101692235	 0.006070765	 0.121979
H	-1.8157701464	 1.899822773	 0.8192014287	 0.138993
H	-1.8925274062	 1.8507375646	-0.9450050982	 0.139236
H	-3.2006805649	-0.5068286009	 0.0656521866	 0.278121
H	 0.7325344046	-0.7225968988	-0.108022713	 0.202457
H	-0.4345389606	-2.5674862218	-0.0030600057	 0.2575
H	-1.6411727458	-4.6421669296	-0.7753574762	 0.119317
H	-1.5603095225	-4.5920480249	 0.9932447401	 0.119303
H	-4.0960858036	-4.3411237377	 0.2158061173	 0.298671
34.3489	66.7421	75.3988	118.8604	153.2464	162.6436	262.3111	337.1702	375.7898	398.2506	431.5676	432.6111	522.7449	615.7891	666.3029	720.3216	741.9532	745.3419	895.121	970.8902	1033.0313	1079.1967	1145.198	1165.2485	1173.9011	1201.5575	1243.1554	1251.3456	1312.868	1316.5131	1450.1542	1460.8167	1473.9663	1503.6106	1516.7532	1519.1681	1585.1929	1742.7107	1769.5436	2971.8372	2991.1793	3033.2872	3085.1451	3133.3184	3523.1804	3601.9649	3621.0654	3680.7575
CNC(=N)NC(=O)CO	CNC(=N)NC(=O)CO	
InChI=1S/C4H9N3O2/c1-6-4(5)7-3(9)2-8/h8H,2H2,1H3,(H3,5,6,7,9)	InChI=1S/C4H9N3O2/c1-6-4(5)7-3(9)2-8/h8H,2H2,1H3,(H3,5,6,7,9)
