21
gdb 119593	4.08823	0.99468	0.90852	0.8691	84.74	-0.2265	0.0208	0.2472	1385.4815	0.182163	-387.081337	-387.072509	-387.071565	-387.115264	33.773	
C	-0.1484527469	 1.5508377803	-0.093882002	-0.386243
C	-0.0767627028	 0.0407822328	-0.2413042065	-0.056177
O	-1.2526548469	-0.5166200818	 0.3310802622	-0.298987
C	-1.3483607246	-1.897990071	 0.2110501393	 0.435531
C	-1.6946754654	-2.5226032839	-1.1260123273	-0.338106
C	-2.6914499981	-2.5658861449	 0.0163769834	-0.120367
C	-2.7272914512	-3.8060578692	 0.9063424569	-0.278358
C	-1.342769895	-3.837941091	 1.523559566	-0.073111
C	-0.6054250968	-2.786715939	 1.1613077685	-0.151291
H	 0.7424492951	 2.0186332853	-0.523654509	 0.113318
H	-1.0304886463	 1.9444514871	-0.60719627	 0.124923
H	-0.2139852766	 1.8317357897	 0.9611012276	 0.127213
H	-0.0030393436	-0.246977736	-1.3010609488	 0.090744
H	 0.8193161818	-0.3521822797	 0.2640695429	 0.088743
H	-1.9406214439	-1.8384721576	-1.9321315905	 0.111437
H	-1.1841296175	-3.4309540417	-1.4308040161	 0.108639
H	-3.5790065042	-1.953554658	-0.0851096745	 0.095186
H	-3.5070533651	-3.7347691611	 1.6762669001	 0.109944
H	-2.9412504964	-4.7188828441	 0.3350995459	 0.109889
H	-1.008274361	-4.6499391741	 2.1596273607	 0.093571
H	 0.4119652452	-2.586232892	 1.4766483513	 0.093501
55.0345	90.0937	134.3573	243.5151	264.332	296.8745	345.5692	383.6353	437.1984	495.099	670.8164	725.0588	740.1934	773.7105	817.6033	840.3949	898.4191	914.6227	933.6702	945.8366	952.3893	986.6798	1023.7685	1042.6406	1057.7295	1084.4747	1097.467	1129.0952	1149.2003	1187.0983	1189.9638	1248.063	1262.468	1294.1549	1311.4386	1350.1486	1392.046	1402.6718	1427.7527	1466.7827	1480.1514	1483.1559	1499.7687	1527.2658	1668.8275	2976.1236	3006.1211	3016.2829	3043.3519	3044.1193	3118.3941	3118.6123	3120.9263	3184.9632	3188.475	3210.1956	3211.3119
CCOC12CC1CC=C2	CCO[C@]12C[C@H]1CC=C2	
InChI=1S/C8H12O/c1-2-9-8-5-3-4-7(8)6-8/h3,5,7H,2,4,6H2,1H3	InChI=1S/C8H12O/c1-2-9-8-5-3-4-7(8)6-8/h3,5,7H,2,4,6H2,1H3/t7-,8-/m1/s1
