19
gdb 53707	10.21666	0.44093	0.42718	1.1894	88.77	-0.2463	0.0366	0.2829	2497.3589	0.154901	-385.819792	-385.808582	-385.807638	-385.858913	37.334	
C	-0.0500239515	 1.4715716083	 0.0105855046	-0.498757
C	-0.0409995337	 0.0163505372	 0.0026058271	 0.137736
C	-0.0382575133	-1.1867185296	-0.0039082785	-0.000813
C	-0.0071115601	-2.642120246	-0.0118621391	-0.208201
O	-1.3269777447	-3.1597813826	-0.0025338588	-0.242773
C	-1.354562456	-4.5692454315	-0.0095410663	-0.035701
C	-2.8259498488	-4.9971008776	 0.0018031987	-0.352157
C	-2.9781460743	-6.4455278472	-0.0042204432	 0.285915
C	-3.073473027	-7.6434973217	-0.0096325284	-0.447571
H	 0.9701688489	 1.8708432285	 0.0030879477	 0.150335
H	-0.5687889286	 1.8717928602	-0.8672721311	 0.150882
H	-0.5520360553	 1.8622030169	 0.9023916411	 0.150881
H	 0.5353539758	-3.0029694814	-0.9029978656	 0.114784
H	 0.5515157856	-3.0123102469	 0.86534939	 0.114789
H	-0.8513974927	-4.9707960972	-0.9039213903	 0.099908
H	-0.8350522378	-4.9799346154	 0.8712407601	 0.099908
H	-3.3078952272	-4.5658105419	 0.8869800976	 0.142327
H	-3.3240704887	-4.5567629221	-0.8698643952	 0.142334
H	-3.1728717208	-8.70049229	-0.0146884805	 0.196173
18.6131	34.5435	58.4569	94.5164	125.3757	126.3429	210.6538	238.7156	329.6507	354.4832	372.4311	377.6216	492.4932	556.2939	622.8449	649.0573	796.0856	799.4729	959.2397	1023.2964	1027.7229	1052.631	1053.8932	1077.3435	1092.1854	1136.4594	1181.5173	1226.2344	1256.4013	1301.2631	1306.0958	1385.6616	1414.4466	1445.9072	1475.9782	1477.0169	1479.3676	1499.3971	1528.8682	2242.1931	2381.0678	2946.8744	2964.444	2969.9664	2999.6379	3028.9142	3037.8028	3075.3837	3090.7032	3090.918	3507.2825
CC#CCOCCC#C	CC#CCOCCC#C	
InChI=1S/C8H10O/c1-3-5-7-9-8-6-4-2/h1H,5,7-8H2,2H3	InChI=1S/C8H10O/c1-3-5-7-9-8-6-4-2/h1H,5,7-8H2,2H3
