18
gdb 124616	2.55522	1.39879	1.12687	4.3854	73.9	-0.2304	0.0161	0.2465	1151.339	0.147417	-435.270385	-435.261338	-435.260394	-435.304691	33.01	
C	-0.0464844035	 1.5541325905	 0.0433913389	-0.381899
C	-0.0140418723	 0.0223345681	 0.0311089336	 0.026254
C	 0.7326501331	-0.5606378277	 1.2353282543	-0.381918
N	-1.3790269845	-0.5114408799	-0.0236050359	 0.004864
N	-2.2704491768	-0.2782970254	 0.978532394	-0.165345
N	-3.3840830577	-0.8671750464	 0.6592503272	-0.177693
C	-3.2428958874	-1.4885770224	-0.5444571595	-0.202007
C	-1.9578108153	-1.262132563	-0.9848104307	 0.372158
O	-1.2502909257	-1.6140946869	-2.079316236	-0.429379
H	 0.9741108276	 1.947617309	 0.0453220269	 0.118605
H	-0.5647748233	 1.9415889891	-0.8380151367	 0.124655
H	-0.5644304726	 1.9159905226	 0.9348429849	 0.15025
H	 0.4614917907	-0.322586945	-0.8916934177	 0.115446
H	 0.2402476648	-0.267884004	 2.1657482361	 0.150338
H	 0.7593894936	-1.6527207255	 1.1878667511	 0.124649
H	 1.7615597152	-0.1897218348	 1.2498567323	 0.11857
H	-4.0434652275	-2.0422007952	-1.0072280165	 0.114474
H	-1.8112085686	-2.1440010933	-2.6544226761	 0.317976
33.7603	121.3229	185.9438	220.6108	251.0109	254.8189	292.9773	299.2962	402.2886	441.7603	540.9507	630.0002	699.9397	718.0233	734.0387	779.3636	890.9478	937.028	953.9018	987.2673	1048.7471	1113.3392	1144.2483	1149.6653	1193.2616	1223.717	1274.8465	1306.5891	1349.7783	1362.1483	1398.9596	1417.2061	1424.7417	1481.7578	1489.8579	1496.1792	1512.2366	1541.1284	1616.3111	3045.6944	3049.6385	3075.3391	3118.1883	3121.949	3132.6874	3138.4524	3265.1765	3841.5131
CC(C)N1N=NC=C1O	CC(C)n1nncc1O	
InChI=1S/C5H9N3O/c1-4(2)8-5(9)3-6-7-8/h3-4,9H,1-2H3	InChI=1S/C5H9N3O/c1-4(2)8-5(9)3-6-7-8/h3-4,9H,1-2H3
