16
gdb 71198	2.69214	1.71301	1.39453	1.8036	67.37	-0.235	-0.0395	0.1956	946.5361	0.123156	-437.814272	-437.80666	-437.805716	-437.846614	29.074	
O	 0.0030013846	 1.3996513704	 0.3128116759	-0.481754
C	-0.0139775594	 0.033083414	 0.1391498575	 0.35436
C	 0.5731806494	-0.6871541405	-1.094140358	-0.215154
N	-0.4419218428	-1.7782570569	-0.9064371241	-0.142182
C	-0.5770429596	-1.9396650045	 0.5847424631	-0.073888
C	-1.2975878073	-0.8514044847	-0.121954284	-0.100419
C	 0.3333713508	-0.9391500278	 1.3057230236	-0.158276
C	 1.7827697977	-1.1877823357	 1.62680993	 0.1244
O	 2.6457452903	-0.3745902297	 1.3907195702	-0.256984
H	 0.8978914902	 1.6417066962	 0.5835811268	 0.295441
H	 0.340850417	-0.1601636366	-2.0222715649	 0.118725
H	 1.6209732053	-1.0026686773	-1.0851307007	 0.111636
H	-0.9460539683	-2.8937314795	 0.9367738688	 0.107384
H	-2.3425620203	-0.6487467826	-0.31217082	 0.10923
H	-0.1675459575	-0.609589398	 2.2261579625	 0.118911
H	 2.0281084001	-2.1532522668	 2.1242516532	 0.088571
66.2296	136.188	204.5827	305.3949	324.8466	369.2757	437.9526	507.9384	600.6217	654.5576	711.3301	778.7335	795.8788	813.3345	881.7135	922.3988	946.1932	978.8518	997.2254	1040.5799	1057.3409	1083.8956	1124.1738	1138.1389	1162.0489	1165.2327	1225.115	1261.4846	1279.028	1320.8379	1352.8813	1394.5494	1416.306	1511.3803	1803.5278	2878.0525	3029.8	3055.7206	3122.007	3202.7158	3218.2118	3782.8109
OC12CN3C(C13)C2C=O	O[C@]12CN3[C@H]([C@@H]13)[C@H]2C=O	
InChI=1S/C6H7NO2/c8-1-3-4-5-6(3,9)2-7(4)5/h1,3-5,9H,2H2	InChI=1S/C6H7NO2/c8-1-3-4-5-6(3,9)2-7(4)5/h1,3-5,9H,2H2/t3-,4+,5+,6+,7?/m1/s1
