19
gdb 96227	2.58832	1.5634	1.02598	5.7623	81.15	-0.2054	-0.0005	0.2049	1159.6926	0.161513	-419.245006	-419.236095	-419.235151	-419.278942	32.616	
C	-0.114488931	 1.5012267723	-0.1442590011	-0.349262
N	 0.0406635812	 0.060164308	-0.0280798191	-0.112619
C	-1.1601878013	-0.7244156679	 0.180579147	-0.170853
C	-1.3598023128	-1.8579729922	-0.8385099617	-0.160556
N	-0.5756354097	-3.0235470685	-0.4971429138	-0.301426
C	 0.7215762329	-2.9731608968	-0.085782929	 0.004022
C	 1.5118493861	-1.9132629296	 0.1990344355	-0.196605
C	 1.3212902188	-0.4571058921	 0.0912733203	 0.375308
O	 2.3002835146	 0.2825623349	 0.1060165492	-0.410684
H	 0.8709179301	 1.9300778602	-0.3178801259	 0.169953
H	-0.7799664415	 1.750959442	-0.979808195	 0.109212
H	-0.5329668511	 1.9396162081	 0.7721318035	 0.114285
H	-1.1976384598	-1.1498749923	 1.1929363453	 0.123005
H	-2.0078253694	-0.0411170526	 0.0891791082	 0.115531
H	-2.4127400454	-2.1586137182	-0.8448758212	 0.108502
H	-1.1136845785	-1.4733185128	-1.8396038539	 0.116422
H	-0.9283358234	-3.9183682637	-0.7871843152	 0.249733
H	 1.1546057619	-3.9625675208	 0.0387964739	 0.112661
H	 2.5267554383	-2.1473561681	 0.495220893	 0.103372
65.3041	100.0903	140.2802	169.3853	260.876	276.2212	350.1325	393.9225	405.1001	486.8603	520.8787	603.4912	691.1452	726.6972	818.6941	836.9762	873.8056	968.9388	976.4322	994.0423	1053.5284	1073.3889	1113.4342	1154.9521	1211.6509	1257.0643	1290.3177	1306.9515	1328.848	1355.2599	1390.3108	1416.6486	1432.8632	1452.2166	1488.8843	1493.5649	1503.5836	1522.6466	1547.6	1690.7348	1719.1075	2989.8849	3002.7095	3015.1737	3051.8778	3068.9187	3099.093	3160.3383	3168.4576	3209.7423	3667.1763
CN1CCNC=CC1=O	CN1CCNC=CC1=O	
InChI=1S/C6H10N2O/c1-8-5-4-7-3-2-6(8)9/h2-3,7H,4-5H2,1H3	InChI=1S/C6H10N2O/c1-8-5-4-7-3-2-6(8)9/h2-3,7H,4-5H2,1H3
