16
gdb 67257	3.1293	1.57876	1.30865	1.6037	68.42	-0.2258	0.0624	0.2882	978.3206	0.124253	-437.763676	-437.756583	-437.755639	-437.794938	28.657	
O	-0.1017171577	 1.4527245837	-0.0224645316	-0.442281
C	 0.0161297768	 0.0952425503	 0.0131644053	 0.326491
C	 0.075743721	-1.0199617681	-0.9746673244	-0.016458
O	 1.1876044205	-1.6878726711	-0.3792639617	-0.277382
C	 0.8871688799	-0.9710755128	 0.8478938977	-0.149744
C	-0.4410285855	-1.5858642064	 1.3069553281	 0.442852
C	-0.6847193305	-2.8073224813	 2.0874524166	-0.317807
N	-1.0158598935	-1.4635105152	 2.6389345477	-0.378182
C	-1.0704688053	-0.9609419679	 0.0851612479	-0.260947
H	 0.6740130559	 1.8181415779	-0.4649255063	 0.297089
H	-0.0830083394	-1.0932899678	-2.042334947	 0.117092
H	 1.7442442943	-0.8300441151	 1.5057901686	 0.085043
H	-1.5488312021	-3.4313140261	 1.8770085518	 0.122447
H	 0.1733793738	-3.3407189217	 2.4890514546	 0.114749
H	-0.303645525	-1.1808591314	 3.3095385894	 0.229763
H	-2.1134955531	-0.876476157	-0.188014827	 0.107275
126.5083	231.6811	298.4826	301.443	351.7659	390.2524	489.1769	556.2568	598.5874	644.9518	758.1256	803.2028	868.1173	872.9733	896.0504	905.0275	937.44	942.7399	974.9142	994.7103	1024.872	1041.993	1075.3067	1098.916	1124.7278	1138.7537	1176.0098	1209.8899	1256.0361	1263.2733	1296.4545	1319.2615	1443.6648	1489.379	1522.861	3106.4361	3130.0225	3191.5313	3210.6819	3220.8163	3479.3745	3778.1276
OC12C3OC1C1(CN1)C23	O[C@@]12[C@H]3O[C@@H]1[C@]1(CN1)[C@@H]23	
InChI=1S/C6H7NO2/c8-6-2-3(6)9-4(6)5(2)1-7-5/h2-4,7-8H,1H2	InChI=1S/C6H7NO2/c8-6-2-3(6)9-4(6)5(2)1-7-5/h2-4,7-8H,1H2/t2-,3-,4+,5-,6-/m0/s1
