18
gdb 30276	3.04934	1.56656	1.08325	1.4588	78.51	-0.1761	0.0364	0.2124	1104.4757	0.150335	-401.968601	-401.961017	-401.960073	-402.000627	29.686	
C	-0.2121857825	 1.5773202947	-0.0796595099	-0.392771
C	 0.0214831297	 0.0676987243	 0.0280904595	-0.123071
C	 0.956001253	-0.4834988392	-1.1138667707	-0.176945
N	 1.7624213714	-1.59721562	-0.5216416361	-0.411416
C	 1.70548838	-1.3085736795	 0.837822162	 0.364859
C	 0.7681754726	-0.4215291066	 1.2422228776	 0.218902
C	 0.8186271672	-0.4548123606	 2.6752172648	-0.358357
C	 1.8012314233	-1.3435619029	 2.9941957562	-0.030413
O	 2.3606976964	-1.8962809729	 1.8478379921	-0.207262
H	 0.7329657786	 2.1247620665	-0.0018724779	 0.115403
H	-0.6826422183	 1.8383166459	-1.0343101943	 0.110858
H	-0.8709983046	 1.9280176168	 0.7210304059	 0.117759
H	-0.9551110726	-0.4338360179	-0.0431084148	 0.085185
H	 0.3917196302	-0.8459509245	-1.9763320012	 0.112327
H	 1.6177742885	 0.3263196689	-1.4511869556	 0.101165
H	 2.6963304075	-1.6669964233	-0.9102942635	 0.238242
H	 0.2322776064	 0.1074528593	 3.3861009139	 0.106825
H	 2.2388975533	-1.6761599992	 3.9193079921	 0.128711
101.459	158.5267	222.9944	265.065	283.7937	425.7441	476.6964	569.9136	603.0317	628.8046	652.8609	690.0757	731.616	804.7911	820.7615	903.3908	914.1298	939.4745	993.3901	1026.085	1041.9881	1094.9578	1121.2571	1128.8222	1165.6234	1226.8249	1258.3542	1305.1884	1310.6116	1337.8231	1376.0124	1407.567	1413.6181	1491.5927	1495.6814	1500.4719	1511.292	1539.883	1665.1142	2981.9713	3005.114	3028.3523	3093.6916	3096.5502	3105.0916	3247.0343	3295.5609	3530.9478
CC1CNC2=C1C=CO2	C[C@H]1CNc2c1cco2	
InChI=1S/C7H9NO/c1-5-4-8-7-6(5)2-3-9-7/h2-3,5,8H,4H2,1H3	InChI=1S/C7H9NO/c1-5-4-8-7-6(5)2-3-9-7/h2-3,5,8H,4H2,1H3/t5-/m0/s1
