18
gdb 88653	3.41989	1.08132	0.97907	4.4853	72.72	-0.2419	0.0427	0.2846	1237.3238	0.147557	-439.086131	-439.077617	-439.076673	-439.119791	32.225	
O	-0.2052274537	 1.4496176798	 0.4893038055	-0.424802
C	-0.0316590233	 0.1032912497	 0.1321104135	 0.089298
C	-0.5095274282	-0.9862850426	 1.0609791831	-0.337155
C	-1.2674528112	-0.6747932249	-0.2133274026	-0.041223
C	-2.6412856608	-0.038780129	-0.1830102447	 0.040111
C	-3.8380434558	-0.9473571489	 0.2444101684	-0.403142
C	-4.0408572775	 0.0620916526	 1.4030502336	 0.425898
O	-4.8106587858	 0.1922769682	 2.3166795771	-0.363755
N	-2.9616093507	 0.7959850587	 0.9766631508	-0.310463
H	 0.4429434661	 1.6597778864	 1.1698637507	 0.292639
H	 0.8631079842	-0.0882948368	-0.4592625487	 0.093647
H	 0.0569057928	-1.9083196305	 1.1289998647	 0.115005
H	-0.9709348934	-0.6582472392	 1.9864780289	 0.127625
H	-1.1563627998	-1.3819353323	-1.0315516793	 0.097199
H	-2.8197311428	 0.4805088047	-1.1325771044	 0.08866
H	-4.6698794589	-1.0067439944	-0.4592251356	 0.12815
H	-3.5558238551	-1.9487002274	 0.5751339029	 0.129268
H	-2.508477666	 1.6306768959	 1.3153045362	 0.25304
55.6895	91.3808	163.9544	233.1527	278.4034	322.9399	408.8859	457.353	480.5243	516.6854	570.4719	624.7692	716.5392	770.2191	810.142	845.7052	905.1851	956.8855	976.7767	989.3376	1032.9119	1049.0838	1072.9039	1115.5559	1124.3182	1139.7945	1171.5356	1182.3746	1192.0778	1232.0217	1276.4297	1296.0259	1367.2534	1384.4308	1391.4602	1423.1065	1457.9031	1491.3339	1893.0118	3026.1252	3085.7875	3103.6221	3134.3652	3141.7325	3146.0564	3225.4944	3632.1569	3806.1376
OC1CC1C1CC(=O)N1	O[C@H]1C[C@H]1[C@H]1CC(=O)N1	
InChI=1S/C6H9NO2/c8-5-1-3(5)4-2-6(9)7-4/h3-5,8H,1-2H2,(H,7,9)	InChI=1S/C6H9NO2/c8-5-1-3(5)4-2-6(9)7-4/h3-5,8H,1-2H2,(H,7,9)/t3-,4+,5-/m0/s1
