17
gdb 123484	4.96681	0.89315	0.85901	3.8651	74.28	-0.2455	-0.0087	0.2368	1357.8663	0.137027	-417.962035	-417.954265	-417.953321	-417.995716	28.46	
C	-0.1191631451	 0.9526074445	-0.466784323	-0.213339
C	 1.2341816461	 0.9251949895	 0.1552492128	-0.219225
N	 0.3665204811	-0.2456611157	 0.208718849	-0.061527
C	-0.2344184096	-0.5446941007	 1.5076678506	-0.298067
C	-1.4671468665	-1.3775073518	 1.34103183	 0.168002
C	-2.7083661563	-1.2014514979	 1.8644088258	-0.01811
O	-3.5373943297	-2.1824030688	 1.477602454	-0.165275
N	-2.8383867133	-3.0591408284	 0.650883771	-0.132176
C	-1.6252924218	-2.5744300124	 0.5804709696	-0.027337
H	-0.8845169583	 1.5451347437	 0.0323318955	 0.111423
H	-0.2359319679	 0.8743960678	-1.5434616637	 0.122955
H	 2.1248293059	 0.825669385	-0.458237665	 0.121722
H	 1.372222979	 1.5014403075	 1.0690684924	 0.110723
H	 0.5160415714	-1.0902066827	 2.0938298947	 0.121639
H	-0.4815868401	 0.3680226111	 2.0789107535	 0.088861
H	-3.136826629	-0.4513220286	 2.5116047878	 0.148163
H	-0.8845787758	-3.0817063822	-0.0208714949	 0.141569
42.7774	73.1284	123.3552	278.8704	321.6765	366.2475	422.1491	614.275	654.673	740.8186	767.9551	832.9301	849.7138	894.6427	908.542	919.3785	938.0768	996.4684	1017.056	1035.795	1052.5954	1113.709	1119.6074	1151.4381	1171.1649	1175.7318	1202.7404	1264.7336	1286.5613	1322.115	1380.8333	1404.0615	1482.5826	1488.5125	1496.9612	1521.208	1656.5753	2941.5653	3035.8519	3094.5268	3099.4494	3179.7721	3193.9885	3252.109	3260.7717
C1CN1CC1=CON=C1	C1CN1Cc1conc1	
InChI=1S/C6H8N2O/c1-2-8(1)4-6-3-7-9-5-6/h3,5H,1-2,4H2	InChI=1S/C6H8N2O/c1-2-8(1)4-6-3-7-9-5-6/h3,5H,1-2,4H2
