18
gdb 69993	3.09673	1.72385	1.61069	2.8823	69.61	-0.2387	0.0707	0.3094	916.5543	0.149932	-439.050007	-439.043174	-439.04223	-439.080836	28.282	
C	-0.0026523099	 1.5096276935	 0.0119761307	-0.507255
C	 0.0267640159	 0.0063518319	 0.0345467581	 0.338223
N	-0.8282789288	-0.7776476136	 0.9560840484	-0.361567
C	 0.6438215417	-0.8339347027	 1.0879658555	-0.111763
C	 1.3167738523	-1.9565439095	 0.2583348062	 0.17553
O	 0.3499921854	-2.8631662246	-0.2368823884	-0.259096
C	-0.3064784829	-2.1372467124	-1.2962756737	-0.083717
C	 0.4251053908	-0.7829452359	-1.2414196715	-0.030578
O	 1.7547372077	-1.2403022113	-0.8916261774	-0.256724
H	 0.9011917343	 1.9087730167	-0.4603430206	 0.137424
H	-0.8676412056	 1.8861883549	-0.546270144	 0.127031
H	-0.0574334965	 1.9146387588	 1.028150518	 0.117333
H	-1.2005999385	-0.1548452037	 1.6727368298	 0.22644
H	 1.133252624	-0.4266241864	 1.9667050576	 0.091041
H	 2.1391568417	-2.495577592	 0.726336886	 0.091883
H	-0.1284627589	-2.6457591177	-2.2498653835	 0.099606
H	-1.3749529647	-2.0630198041	-1.088466706	 0.122489
H	 0.4549525218	-0.208804322	-2.1658149251	 0.0837
184.5568	217.3356	276.1555	318.4656	378.8621	448.0435	535.954	614.8159	649.5109	696.9385	782.3136	819.5729	851.1889	871.7954	894.1004	916.1037	945.6812	966.2509	971.4155	1002.4984	1028.607	1031.0255	1067.4176	1087.5721	1124.3121	1167.213	1196.0543	1240.5065	1255.2446	1281.5686	1314.3365	1325.8165	1346.3366	1378.3713	1412.6131	1435.5925	1485.4274	1497.5972	1501.1852	3025.1272	3043.8087	3088.7416	3100.081	3121.9731	3139.5166	3143.4024	3166.158	3465.5753
CC12NC1C1OCC2O1	C[C@]12N[C@H]1[C@H]1OC[C@@H]2O1	
InChI=1S/C6H9NO2/c1-6-3-2-8-5(9-3)4(6)7-6/h3-5,7H,2H2,1H3	InChI=1S/C6H9NO2/c1-6-3-2-8-5(9-3)4(6)7-6/h3-5,7H,2H2,1H3/t3-,4-,5-,6+/m0/s1
