17
gdb 79954	2.68056	1.59406	1.30548	1.6726	78.22	-0.2256	0.0018	0.2274	1013.8114	0.135351	-384.639079	-384.630896	-384.629952	-384.671749	31.679	
O	 0.2737312696	 1.3354661087	 0.0558335132	-0.417764
C	 0.0399033316	-0.0318476966	 0.0584236081	 0.136091
C	-0.4440003179	-0.8175082945	 1.2689677412	-0.157597
C	-1.1338242099	-0.0026006299	 2.3053879085	-0.076087
C	-2.2506960772	 0.5680396066	 1.8481546465	-0.117789
C	-2.5546345049	 0.1516578743	 0.4090732401	-0.227804
C	-2.846519652	 1.2835810083	-0.4715872487	 0.330722
C	-3.1099950721	 2.2216894808	-1.1756330122	-0.472828
C	-1.3177578576	-0.6767737905	 0.0102716954	-0.119207
H	-0.4078909467	 1.7687553679	 0.5833133351	 0.288751
H	 0.8060330707	-0.5240655004	-0.5321436809	 0.110713
H	 0.0550554695	-1.7403463457	 1.5440534718	 0.090617
H	-0.7320203625	 0.1330649515	 3.3032835471	 0.108216
H	-2.8930091313	 1.2535243871	 2.3873154252	 0.111448
H	-3.4369484862	-0.5057007661	 0.406029454	 0.119108
H	-3.3268766117	 3.0453384968	-1.8097564238	 0.198065
H	-1.4720790512	-1.5046670583	-0.6714404907	 0.095345
78.0931	130.3935	182.372	231.8904	251.3716	373.5564	454.7338	500.9992	581.803	603.384	629.8691	637.6521	733.13	737.3493	762.6673	788.4405	829.1819	889.7929	941.0287	968.5142	1004.288	1029.1157	1045.722	1054.8205	1070.8444	1106.7079	1138.3706	1200.5814	1250.7034	1288.6934	1299.4953	1335.1045	1356.4554	1374.105	1456.5562	1663.7705	2233.321	2987.7248	3161.2645	3166.662	3180.9553	3191.2875	3219.2623	3504.2409	3785.7323
OC1C2C=CC(C#C)C12	O[C@H]1[C@H]2C=C[C@@H](C#C)[C@@H]12	
InChI=1S/C8H8O/c1-2-5-3-4-6-7(5)8(6)9/h1,3-9H	InChI=1S/C8H8O/c1-2-5-3-4-6-7(5)8(6)9/h1,3-9H/t5-,6+,7-,8+/m1/s1
