23
gdb 87116	2.05976	1.46735	1.22132	1.2093	81.38	-0.2465	0.0684	0.3148	1192.8518	0.202099	-425.408766	-425.398073	-425.397129	-425.443287	41.641	
C	 0.0494668858	 1.5188571154	 0.2550827793	-0.432008
C	 0.0123622589	 0.0024641915	-0.0162797024	 0.196868
C	 0.6245673893	-0.7353442298	 1.1941853523	-0.419162
C	-1.4613064221	-0.4179670167	-0.1920275889	-0.394549
C	 0.7929740147	-0.4160361021	-1.2791603102	 0.388122
O	 0.5293121126	-1.7397530274	-1.6978845692	-0.469146
C	 1.0315367699	 0.4946601495	-2.4573759196	-0.38215
C	 2.197493113	 0.0246773265	-1.6078531466	 0.03132
O	 2.880502637	 0.9057512055	-0.7622814613	-0.419365
H	 1.0695872581	 1.8926360669	 0.3452641696	 0.134857
H	-0.4597802942	 2.0781334494	-0.5364464344	 0.1059
H	-0.4812169498	 1.7295746811	 1.1898135688	 0.104167
H	 0.0592550079	-0.5162093418	 2.1059779364	 0.109435
H	 0.6014078605	-1.8236094688	 1.0612355203	 0.091693
H	 1.6629104852	-0.4297124832	 1.3526057784	 0.13311
H	-1.9120612927	 0.0907187087	-1.0508140689	 0.109626
H	-1.5559842545	-1.4928495456	-0.3574460456	 0.115396
H	-2.0374351498	-0.149223844	 0.6998064777	 0.100117
H	 0.9383477367	-2.3363591872	-1.0611108505	 0.280446
H	 0.9144928118	 0.0675021808	-3.44675697	 0.120109
H	 0.7417702307	 1.534095172	-2.3589316419	 0.117008
H	 2.819665357	-0.7580933292	-2.0422459128	 0.088712
H	 3.3696728338	 1.5273369784	-1.3119132803	 0.289496
58.7782	177.0246	223.4862	227.4812	260.2344	265.0012	274.6223	292.2892	304.3226	328.6245	357.708	369.6539	385.7926	448.9434	474.3394	484.7558	593.965	617.4001	813.8088	832.4078	919.5137	933.5149	940.645	943.2698	962.1809	979.7269	1040.2166	1044.6099	1055.4393	1100.9713	1171.7229	1191.171	1228.1715	1239.4143	1261.8645	1280.8386	1322.2346	1348.614	1392.8869	1394.0649	1414.0084	1427.6231	1478.8733	1484.739	1490.3406	1497.05	1503.2553	1510.0518	1528.5393	3023.9249	3033.2689	3040.1598	3084.7358	3092.2712	3097.7937	3099.2883	3113.6933	3128.5439	3140.5875	3151.0116	3234.3307	3796.3367	3799.0364
CC(C)(C)C1(O)CC1O	CC(C)(C)[C@@]1(O)C[C@H]1O	
InChI=1S/C7H14O2/c1-6(2,3)7(9)4-5(7)8/h5,8-9H,4H2,1-3H3	InChI=1S/C7H14O2/c1-6(2,3)7(9)4-5(7)8/h5,8-9H,4H2,1-3H3/t5-,7-/m1/s1
