20
gdb 40417	3.41461	1.33688	1.18336	0.9775	84.88	-0.2237	0.0171	0.2408	1124.6033	0.172169	-365.97282	-365.965118	-365.964174	-366.004919	31.138	
C	 0.0145212955	 1.4547900542	-0.1732378053	-0.232551
C	 1.3049639951	 0.7106364406	-0.1290130233	-0.233682
N	 0.0353910914	 0.0144502489	 0.0643488052	-0.142001
C	-0.2906863144	-0.4686190381	 1.3785742982	 0.366018
C	-0.2700262965	-1.9688021382	 1.5757594299	-0.323562
C	-1.5885226005	-1.2320217409	 1.6084187186	-0.092829
C	-2.1520660791	-0.8041123759	 2.9609929361	-0.278019
C	-1.0901843062	 0.1296155431	 3.5061853291	-0.078292
C	-0.0957493227	 0.3265082103	 2.6376970721	-0.160551
H	-0.2128448151	 2.1090912441	 0.6656394304	 0.116666
H	-0.4093472724	 1.7671169253	-1.1237150506	 0.114018
H	 1.8361450448	 0.4696977146	-1.0458159861	 0.114499
H	 1.9461680057	 0.8724048102	 0.7347458092	 0.112335
H	-0.0791858698	-2.5614605518	 0.6877414479	 0.114894
H	 0.1460499553	-2.3617196929	 2.4980625432	 0.106298
H	-2.2625294502	-1.3883323778	 0.7754319701	 0.092143
H	-3.119963409	-0.2950149983	 2.8588980316	 0.107344
H	-2.3237525898	-1.6576320321	 3.6301270148	 0.110441
H	-1.1373211963	 0.5441579142	 4.5073069222	 0.093289
H	 0.7754980344	 0.9456192807	 2.8211384967	 0.093543
82.8194	172.2423	196.9395	282.2223	354.806	375.2855	453.9121	507.0738	577.7821	713.2269	740.3166	767.7946	801.6803	826.4492	883.8443	887.9715	914.4043	926.7032	941.3681	962.5143	984.4122	1022.8382	1045.1768	1059.5701	1071.0334	1085.1154	1112.4038	1118.0733	1133.094	1161.8943	1174.62	1192.5724	1219.3689	1258.6387	1307.0468	1337.8317	1350.2713	1404.7189	1467.1236	1480.052	1491.4404	1518.4883	1666.4193	3013.6381	3040.2457	3099.64	3102.6368	3124.86	3176.9012	3179.1683	3189.4048	3192.0481	3203.8234	3219.519
C1CN1C12CC1CC=C2	C1CN1[C@]12C[C@H]1CC=C2	
InChI=1S/C8H11N/c1-2-7-6-8(7,3-1)9-4-5-9/h1,3,7H,2,4-6H2	InChI=1S/C8H11N/c1-2-7-6-8(7,3-1)9-4-5-9/h1,3,7H,2,4-6H2/t7-,8-/m1/s1
