21
gdb 91490	2.47078	1.8216	1.46055	1.7772	82.26	-0.2433	0.0568	0.3001	1008.8205	0.184338	-386.985965	-386.978538	-386.977594	-387.017271	31.154	
C	 0.0100027066	 1.5338783954	 0.1212156089	-0.421712
C	 0.1094183665	 0.0115881619	 0.0349662921	 0.04655
C	 0.9992758991	-0.5449732676	-1.1176600585	-0.234777
C	 1.9300295642	-1.4290211668	-0.2907502653	-0.097203
C	 2.3269000421	-0.4394969532	 0.9259905128	-0.333813
C	 0.8055697099	-0.6475336253	 1.2691043567	 0.224667
C	-0.2672133157	-1.3065485345	 2.1834048145	-0.204219
O	-0.3523923488	-2.4173540878	 1.2019313144	-0.325081
C	 1.0351349851	-2.0540545145	 0.8421802377	 0.142002
H	 0.9921469397	 2.0084848133	 0.2194214569	 0.112228
H	-0.4633587402	 1.9436485445	-0.7776049137	 0.113919
H	-0.5946235652	 1.8419139924	 0.9818250717	 0.111215
H	-0.8979200917	-0.3998280526	-0.0594519991	 0.087711
H	 0.4266128255	-1.1129655451	-1.8558509033	 0.10437
H	 1.5483768044	 0.2393314811	-1.6493772707	 0.092886
H	 2.6958268658	-2.0087119733	-0.80982349	 0.068123
H	 3.0171772503	-0.8942640173	 1.6367305353	 0.112072
H	 2.6768687487	 0.5547157623	 0.6385420624	 0.104784
H	 0.0953620397	-1.6776216608	 3.1486611579	 0.107072
H	-1.2299853297	-0.8006891271	 2.2986828769	 0.11177
H	 1.6847495439	-2.6263068248	 1.5161259723	 0.077438
163.1584	217.9729	253.2705	280.14	345.405	407.8097	442.0998	514.5481	587.0435	626.5398	726.4937	769.7986	797.3863	806.4833	868.5803	881.8413	915.0849	922.28	954.9618	981.1899	986.5972	1017.9288	1035.1984	1066.4066	1085.1182	1119.9727	1130.2222	1149.7798	1155.9217	1188.739	1222.7349	1233.2879	1244.1081	1265.9795	1300.7413	1316.6833	1342.1636	1367.8673	1410.1943	1415.9249	1487.3553	1496.2086	1500.6428	1506.1257	1510.4638	3015.231	3026.6399	3033.432	3045.6327	3071.2243	3074.6876	3089.1557	3092.8302	3099.4025	3099.9653	3104.4701	3143.8234
CC1CC2CC11COC21	C[C@H]1C[C@H]2C[C@]31CO[C@@H]23	
InChI=1S/C8H12O/c1-5-2-6-3-8(5)4-9-7(6)8/h5-7H,2-4H2,1H3	InChI=1S/C8H12O/c1-5-2-6-3-8(5)4-9-7(6)8/h5-7H,2-4H2,1H3/t5-,6-,7-,8+/m0/s1
