16
gdb 37275	3.74467	2.01895	1.91675	0.51	68.41	-0.2286	0.0617	0.2903	772.6739	0.127453	-400.648271	-400.642888	-400.641944	-400.67768	23.698	
O	-0.0097977202	 1.4353628969	 0.056497372	-0.242068
C	 1.2770348239	 0.8078907672	 0.0345751458	 0.031302
C	 0.0400963887	 0.0044396834	 0.0458976228	 0.031302
C	-0.0317264739	-0.625388635	-1.3390955282	-0.041661
C	-0.2319815014	 0.3237425993	-2.517942149	-0.070601
C	 1.062904958	 1.1648387478	-2.5297938397	-0.070601
C	 1.0185569788	-0.1931313791	-3.1585362834	-0.060567
N	 1.4224761979	-0.7959259082	-1.8065726461	-0.184121
C	 1.8637880103	 0.605842225	-1.3564474956	-0.04166
H	 1.9004746311	 0.9792822824	 0.9070676613	 0.102915
H	-0.3586602739	-0.4881330358	 0.9277482597	 0.102915
H	-0.577990701	-1.5679758628	-1.3925020443	 0.07586
H	-1.1430378669	 0.6903933474	-2.9725136628	 0.094433
H	 1.0924066677	 2.1424320073	-2.9929707342	 0.094433
H	 1.2670919678	-0.5894577616	-4.1315326056	 0.102258
H	 2.946262633	 0.7212031457	-1.4247710028	 0.07586
286.5323	299.599	536.7384	537.0973	698.5727	699.9801	765.672	766.8494	818.5881	821.6713	848.1569	875.028	875.348	894.0805	928.5562	947.5045	978.129	996.7363	1007.6549	1019.0008	1023.5758	1035.0226	1066.7476	1100.0453	1101.3192	1177.0171	1196.5823	1231.2516	1247.7893	1257.6565	1314.2282	1319.1512	1332.6883	1367.5566	1414.675	3104.1607	3105.9519	3153.8867	3165.3532	3195.432	3201.4181	3232.4711
O1C2C1C1C3C4C3N1C24	O1[C@H]2[C@@H]1[C@H]1[C@H]3[C@@H]4[C@H]3N1[C@H]24	
InChI=1S/C7H7NO/c9-6-4-1-2-3(1)8(4)5(2)7(6)9/h1-7H	InChI=1S/C7H7NO/c9-6-4-1-2-3(1)8(4)5(2)7(6)9/h1-7H/t1-,2+,3-,4+,5-,6-,7+
