20
gdb 106451	2.8339	1.21759	1.04154	3.8342	80.35	-0.2353	-0.0348	0.2005	1236.7546	0.170186	-403.076655	-403.067879	-403.066935	-403.110458	32.809	
C	 0.0475149167	 1.5233188352	 0.0108256409	-0.3824
C	-0.0567917464	-0.0021076433	-0.1116400739	-0.321067
C	-1.4820488174	-0.4991681284	-0.0417083204	 0.304692
C	-2.5266553319	-0.3596720949	 1.0914109562	-0.203085
N	-3.3066313819	-1.1871422527	 0.0519425021	-0.146526
C	-2.6893755041	-0.2079005243	-0.9701526401	-0.218539
C	-2.0029266057	-1.984300364	-0.0820494925	-0.095713
C	-1.7788747454	-2.8539625841	-1.2867754997	 0.127773
O	-2.45805839	-2.8937993228	-2.2821867938	-0.243071
H	 1.0897951165	 1.8500737059	-0.0423182288	 0.120124
H	-0.5010007479	 2.0240671103	-0.7936290285	 0.124411
H	-0.3642540438	 1.8734080395	 0.9630566153	 0.12188
H	 0.389839535	-0.3291089369	-1.0594281139	 0.106944
H	 0.5265113233	-0.4799416066	 0.6863422758	 0.102368
H	-2.3480788593	-0.8886620866	 2.0324199763	 0.100167
H	-2.9657730286	 0.6263155183	 1.2637323608	 0.104835
H	-3.1300339462	 0.7909420198	-0.9157565672	 0.101337
H	-2.6840686197	-0.5899983322	-1.9890403888	 0.136496
H	-1.7691671906	-2.5727272168	 0.8150810288	 0.083131
H	-0.8759408825	-3.5022796054	-1.1866225186	 0.076246
71.3353	99.6917	148.7115	202.1147	223.745	256.6804	318.4714	389.6754	477.637	589.8896	604.1452	714.3404	755.6887	802.104	814.3804	856.9281	903.1755	949.3339	952.3509	982.9314	985.5606	1043.4433	1064.4669	1080.4163	1095.5421	1146.5515	1153.8658	1178.3908	1194.8937	1200.6823	1251.8581	1305.9544	1311.8521	1368.639	1393.0363	1413.1159	1426.8533	1480.5095	1500.3717	1505.739	1514.6583	1554.156	1821.5092	2848.0994	3017.9978	3025.6054	3037.5356	3047.63	3051.7705	3070.1461	3105.7843	3111.9091	3116.1885	3165.1373
CCC12CN(C1)C2C=O	CC[C@@]12CN(C1)[C@H]2C=O	
InChI=1S/C7H11NO/c1-2-7-4-8(5-7)6(7)3-9/h3,6H,2,4-5H2,1H3	InChI=1S/C7H11NO/c1-2-7-4-8(5-7)6(7)3-9/h3,6H,2,4-5H2,1H3/t6-/m0/s1
