20
gdb 40832	3.67356	1.09526	0.9447	1.6089	75.43	-0.2328	0.0713	0.3041	1281.4059	0.173096	-440.245705	-440.237579	-440.236634	-440.279037	31.082	
C	 1.067545015	 0.9095916541	-0.193875979	-0.231526
N	 0.1166542068	 0.1130943961	-0.9885132737	-0.32284
C	-0.2201315788	 0.4647189142	 0.3970787377	-0.046079
C	-0.380715005	-0.6798711166	 1.3714380161	 0.133446
C	 0.682688777	-1.7754263391	 1.2939166022	-0.10429
O	 0.4296942367	-2.7705712212	 2.2756383672	-0.252014
C	 0.4178462594	-2.2081371542	 3.5771132207	-0.077594
C	-0.6262502909	-1.1004604427	 3.6705910699	-0.07756
O	-0.3940579067	-0.1111965559	 2.6802207765	-0.272434
H	 1.9975573196	 0.404064399	 0.0448465091	 0.123587
H	 1.1772814571	 1.9684054301	-0.4134105422	 0.113542
H	-0.3896759168	 0.7052644192	-1.6401748747	 0.235814
H	-0.9626849071	 1.2445236556	 0.558494109	 0.092492
H	-1.3576418834	-1.16028407	 1.1826811176	 0.072735
H	 0.6619967886	-2.2660929855	 0.3190993514	 0.129219
H	 1.6800432506	-1.3372217615	 1.4566288193	 0.087813
H	 0.1905530357	-3.0208975389	 4.2739305883	 0.106146
H	 1.4112651514	-1.7980904531	 3.8246750895	 0.091086
H	-1.6320645179	-1.5344482876	 3.5456496408	 0.093071
H	-0.5799470513	-0.5961514018	 4.6409010844	 0.105386
44.6857	136.3978	176.4897	256.5463	277.6885	364.4073	403.5	448.9731	500.1221	549.6609	606.6013	811.0068	861.6293	876.9461	891.5853	908.8702	932.6326	963.8864	999.8592	1026.372	1058.5734	1093.3834	1122.0546	1131.5309	1141.6834	1146.6013	1153.5491	1202.3297	1245.5735	1266.3245	1286.5445	1291.8813	1323.6471	1337.7659	1367.9058	1394.5852	1408.6584	1429.5651	1445.8334	1481.1345	1485.8427	1495.2535	1519.2794	2944.4041	2966.9355	2977.534	2984.3807	3082.649	3084.0854	3115.0996	3119.7295	3122.3221	3201.3994	3514.2871
C1NC1C1COCCO1	C1N[C@H]1[C@H]1COCCO1	
InChI=1S/C6H11NO2/c1-2-9-6(4-8-1)5-3-7-5/h5-7H,1-4H2	InChI=1S/C6H11NO2/c1-2-9-6(4-8-1)5-3-7-5/h5-7H,1-4H2/t5-,6-/m1/s1
