25
gdb 78222	2.17798	1.44069	1.19063	0.1665	92.77	-0.243	0.0829	0.3259	1249.0928	0.227537	-352.336819	-352.326693	-352.325749	-352.370696	39.785	
C	-0.5962312554	 0.8706122613	 0.3217617699	-0.423539
C	 0.0737225808	-0.3692712376	 0.8825312443	-0.019286
C	 1.371793138	-0.9695274776	 0.4200874087	-0.081546
C	 1.2140426303	-0.4785603262	 1.865792944	-0.097662
C	 2.3913581629	 0.5067036322	 1.6868294328	 0.313213
C	 2.1643210774	 1.9861921383	 2.0080892328	-0.452086
C	 3.5910463318	-0.0005259728	 2.4971625435	-0.429185
C	 2.4509776395	 0.0999444633	 0.1577896869	-0.022506
C	 3.7645160525	-0.4158090327	-0.4193493396	-0.419787
H	 0.1100278248	 1.5867262111	-0.1019894969	 0.122722
H	-1.2873701071	 0.5881812205	-0.4804667984	 0.111129
H	-1.1780815726	 1.3907613962	 1.0907018172	 0.115556
H	-0.6554966754	-1.1508921148	 1.0971466724	 0.081937
H	 1.4384745206	-1.989049314	 0.0548049601	 0.074252
H	 1.094545975	-1.0778592156	 2.76395141	 0.070508
H	 1.9611599067	 2.1241170734	 3.0766111984	 0.108748
H	 3.0570269173	 2.5762481107	 1.7665807333	 0.106522
H	 1.3254734175	 2.4128805553	 1.455525089	 0.1124
H	 3.7609900241	-1.0715977374	 2.355666869	 0.112516
H	 4.5113546849	 0.5300746173	 2.2308812123	 0.108376
H	 3.4129321633	 0.1631383596	 3.5664305701	 0.107189
H	 2.0978435515	 0.9100623565	-0.4919561836	 0.061629
H	 4.1560920705	-1.2744239122	 0.1335302341	 0.115508
H	 3.6160504777	-0.7362189392	-1.4567929812	 0.111483
H	 4.5354827036	 0.3622048742	-0.4232588194	 0.111912
120.827	175.6321	180.7861	184.1287	223.2336	239.031	252.5598	306.0618	317.7513	343.6741	378.5614	404.5009	528.993	596.6657	613.035	708.7629	751.3574	794.7769	868.8515	905.2874	915.5675	946.3471	973.7165	992.8452	998.9519	1012.534	1041.9554	1065.6197	1080.6763	1101.2252	1124.0725	1152.1197	1188.3672	1209.7287	1222.8286	1239.5241	1273.5266	1303.9495	1346.6862	1377.6944	1398.4007	1407.4714	1414.8187	1423.1614	1443.8757	1480.1419	1483.9091	1490.3853	1497.1152	1499.5924	1504.4286	1506.9257	1517.8476	3014.8544	3022.537	3026.7525	3031.7581	3033.4527	3078.5186	3085.4867	3086.956	3090.9839	3100.2698	3102.6327	3113.0849	3122.4311	3132.9221	3141.8966	3162.3436
CC1C2C1C(C)(C)C2C	C[C@H]1[C@@H]2[C@H]1C(C)(C)[C@H]2C	
InChI=1S/C9H16/c1-5-7-6(2)9(3,4)8(5)7/h5-8H,1-4H3	InChI=1S/C9H16/c1-5-7-6(2)9(3,4)8(5)7/h5-8H,1-4H3/t5-,6-,7-,8-/m0/s1
