22
gdb 76555	2.41144	1.22375	1.17363	1.2235	83.15	-0.2139	0.0715	0.2855	1242.0368	0.192444	-404.307021	-404.297059	-404.296115	-404.341494	37.231	
C	-0.1229046306	 1.5478171966	 0.3078366178	-0.419514
C	 0.0204650139	 0.044577255	 0.2219336294	-0.059105
N	 1.25087976	-0.6296155317	-0.2345244154	-0.176941
C	 2.4239538389	 0.1561787619	-0.5919804234	-0.319667
C	 0.8740914116	-0.7313965956	 1.1608069418	 0.322714
C	 1.5481642066	-0.2088946661	 2.4413236787	-0.32227
C	 0.7574850711	-1.3058414293	 3.2168822466	-0.238449
C	 0.4927734685	-2.0325941584	 1.8789852754	 0.070885
O	-0.810668903	-2.5443681407	 1.7333287159	-0.43231
H	 0.7399081803	 2.0333872687	 0.7690784959	 0.120347
H	-0.264591442	 1.9856419969	-0.6866462766	 0.122282
H	-1.0045648027	 1.8010445005	 0.9063879411	 0.125314
H	-0.8783146737	-0.4549305371	-0.1392864752	 0.082876
H	 2.6286906875	 1.0139758118	 0.0646653452	 0.104335
H	 3.3024742526	-0.4973012967	-0.5693102	 0.120704
H	 2.3126199866	 0.5286075972	-1.6154845082	 0.120694
H	 2.6283173165	-0.3869502452	 2.4494690658	 0.105302
H	 1.3665641847	 0.8282962136	 2.7306649734	 0.105163
H	 1.2832066357	-1.8592935919	 3.9966140595	 0.09957
H	-0.1810980825	-0.9162599863	 3.6182880408	 0.116497
H	 1.2498940249	-2.8082481772	 1.6875755523	 0.064809
H	-0.8501943046	-3.0211032161	 0.8979500293	 0.286761
91.2087	132.9737	151.4209	159.6825	180.9055	222.4754	250.3454	280.6093	302.6718	413.44	469.6697	518.3905	556.3503	579.9998	693.0005	773.6065	800.2793	806.8667	926.5179	938.0099	976.7707	1017.0902	1051.7465	1067.9213	1097.1773	1115.2374	1139.9878	1160.9016	1162.4548	1186.7887	1201.1897	1217.4118	1240.206	1251.6968	1270.8254	1311.0748	1369.684	1407.6878	1428.3679	1439.1648	1468.5563	1478.2991	1488.9654	1489.6962	1498.2851	1505.4541	1509.215	2983.8212	2993.668	3035.3232	3053.058	3066.0832	3073.2529	3091.6378	3096.1449	3099.0876	3105.5798	3124.8455	3132.7043	3817.6344
CC1N(C)C11CCC1O	C[C@H]1N(C)[C@]21CC[C@H]2O	
InChI=1S/C7H13NO/c1-5-7(8(5)2)4-3-6(7)9/h5-6,9H,3-4H2,1-2H3	InChI=1S/C7H13NO/c1-5-7(8(5)2)4-3-6(7)9/h5-6,9H,3-4H2,1-2H3/t5-,6-,7+,8?/m1/s1
