15
gdb 132908	3.0649	1.40897	0.97101	2.9784	74.29	-0.2038	-0.0524	0.1514	1130.1222	0.113061	-458.13315	-458.125223	-458.124278	-458.165861	29.619	
C	-0.0310733926	 1.500968142	 0.004744016	-0.482078
C	-0.0027324629	-0.0005883219	-0.0192705136	 0.223753
N	-0.0223103898	-0.6185903516	-1.1656613631	-0.359801
C	 0.0027758888	-2.0113307772	-1.227897816	 0.415093
N	-0.0127218143	-2.718377802	-2.2923360162	-0.573813
N	 0.049738993	-2.6942924118	 0.0029469645	-0.317383
C	 0.0705865491	-2.0641470416	 1.2027725317	-0.065488
C	 0.0451301733	-0.7122334256	 1.2238925826	 0.151092
F	 0.0637386673	-0.0302426554	 2.3788555995	-0.078903
H	 0.8536912011	 1.894655358	 0.5167256422	 0.145224
H	-0.0654922005	 1.8813528978	-1.0157327175	 0.148081
H	-0.9021285816	 1.8606927163	 0.5631503756	 0.145249
H	-0.0467462998	-2.0943971406	-3.0959057185	 0.221899
H	 0.0674695035	-3.7011482405	-0.0580524903	 0.274857
H	 0.1068954153	-2.671028906	 2.0984937632	 0.152219
81.8696	117.6147	206.681	268.2488	326.7175	357.4311	392.9524	473.2164	520.0761	578.7071	580.445	664.8402	737.6265	760.2155	789.26	831.7108	896.6494	913.9084	1009.5582	1052.6837	1099.0394	1180.6765	1224.3665	1280.184	1348.7171	1397.0293	1422.0459	1466.199	1475.2876	1493.7208	1577.5976	1704.9926	1727.6542	3042.0791	3096.8682	3161.1929	3221.5634	3519.3771	3628.9088
CC1=NC(=N)NC=C1F	CC1=C(CNC(=N1)[NH])F	
InChI=1S/C5H6FN3/c1-3-4(6)2-8-5(7)9-3/h2H,1H3,(H2,7,8,9)	InChI=1S/C5H7FN3/c1-3-4(6)2-8-5(7)9-3/h7H,2H2,1H3,(H,8,9)
