17
gdb 88748	3.35384	1.03351	0.89492	3.8606	70.92	-0.256	-0.0402	0.2158	1296.0359	0.133468	-458.919793	-458.910952	-458.910008	-458.953994	32.033	
O	-0.0494500065	 1.3512848071	 0.0096607095	-0.414931
C	-0.0489839815	-0.0449184421	-0.0628743252	 0.094752
C	-0.4799297255	-0.8381175948	 1.1409034333	-0.33966
C	-1.3945257027	-0.7184589736	-0.0687612457	-0.060107
C	-2.6259383923	 0.1113688135	 0.0283216462	 0.059839
O	-3.4579063607	 0.1744233778	-1.1192626756	-0.228874
C	-4.0016123671	-0.4710671719	 0.0281270742	-0.059966
C	-4.2174474545	-1.9490738001	-0.0337063652	 0.147037
O	-3.6844157851	-2.6972183439	-0.813952539	-0.253611
H	 0.7013446278	 1.6214008693	 0.5484273781	 0.291922
H	 0.7153813874	-0.4703198191	-0.7120245453	 0.097224
H	-0.0195605099	-1.7982151061	 1.3450548939	 0.122089
H	-0.7503591003	-0.2631323458	 2.0211749429	 0.116002
H	-1.5053493863	-1.5919245174	-0.6992199144	 0.133151
H	-2.5096466569	 1.0592929624	 0.5522157399	 0.112923
H	-4.787748416	 0.0814708852	 0.5456596117	 0.102295
H	-4.9247095199	-2.3250780905	 0.7400119306	 0.079915
53.5777	113.0018	131.0563	193.3514	223.514	267.3962	313.0311	399.2275	415.4559	461.5712	591.6681	745.9991	780.8979	790.7182	851.4924	866.8894	914.8816	939.261	983.3973	1015.9124	1018.9146	1056.9683	1094.792	1134.9954	1140.613	1175.5696	1197.4641	1234.5945	1269.2366	1292.7572	1323.4665	1393.8887	1418.9838	1425.1933	1465.9292	1494.6841	1822.9943	2875.8114	3099.0212	3109.332	3127.1584	3130.8328	3198.5842	3221.4853	3810.0817
OC1CC1C1OC1C=O	O[C@H]1C[C@H]1[C@H]1O[C@H]1C=O	
InChI=1S/C6H8O3/c7-2-5-6(9-5)3-1-4(3)8/h2-6,8H,1H2	InChI=1S/C6H8O3/c7-2-5-6(9-5)3-1-4(3)8/h2-6,8H,1H2/t3-,4+,5+,6-/m1/s1
