19
gdb 73540	2.51416	1.95952	1.56281	2.4933	74.79	-0.2388	0.0838	0.3226	937.9996	0.159733	-422.938129	-422.930657	-422.929713	-422.969654	30.262	
C	-0.169982171	 1.5937706414	-0.1352741474	-0.492995
C	-0.042967535	 0.0801677296	-0.0465734354	 0.297175
C	-1.3813116045	-0.6186693612	 0.2194400849	-0.136053
O	-1.4336505689	-0.7499250624	 1.6660134121	-0.288413
C	-0.1184354075	-0.842117551	 2.2387567188	-0.18766
C	 0.7818467356	-0.6312426408	 1.057505678	 0.361673
C	 2.1154337664	-0.1350966538	 0.4577544227	-0.323396
C	 1.1802350184	-0.6696464063	-0.6833188363	-0.025569
O	 0.8945782299	-1.8300515204	 0.1651062412	-0.338175
H	 0.7897961267	 2.1146878561	-0.1402655808	 0.117533
H	-0.6934268535	 1.8690742328	-1.057935023	 0.124843
H	-0.7621406983	 1.9785241272	 0.7018973478	 0.13502
H	-2.245989374	-0.0128419993	-0.0628986791	 0.099186
H	-1.4487637682	-1.6021544376	-0.2514954116	 0.114271
H	 0.0012959504	-0.0655190092	 3.0040282723	 0.109014
H	 0.0303231755	-1.8262690287	 2.6987372526	 0.116984
H	 2.3572325198	 0.9264115615	 0.5145008546	 0.106237
H	 2.9751640337	-0.774914253	 0.6552739945	 0.116133
H	 1.4293465743	-0.8561356546	-1.7295150357	 0.094193
128.3836	196.2651	200.5769	320.8817	344.1078	391.9902	454.618	515.79	588.2062	622.2915	703.3641	753.2099	780.9782	810.3858	879.6407	880.6673	923.3308	964.2038	972.9187	978.7056	1020.0714	1027.7414	1080.5432	1106.5842	1124.3518	1170.937	1186.6187	1190.8052	1210.1515	1235.4842	1245.8612	1269.6892	1325.6793	1359.0269	1381.1183	1413.2185	1485.867	1492.9149	1500.3392	1506.4013	1512.0174	3022.2356	3035.0277	3060.6891	3063.8462	3085.2763	3092.4523	3102.1479	3109.5253	3123.7791	3163.6865
CC12COCC11CC2O1	C[C@]12COC[C@@]31C[C@H]2O3	
InChI=1S/C7H10O2/c1-6-3-8-4-7(6)2-5(6)9-7/h5H,2-4H2,1H3	InChI=1S/C7H10O2/c1-6-3-8-4-7(6)2-5(6)9-7/h5H,2-4H2,1H3/t5-,6-,7-/m1/s1
