13
gdb 129164	6.39091	0.90497	0.79661	4.7815	66.1	-0.2424	-0.0152	0.2272	1314.2645	0.089573	-448.927263	-448.919334	-448.91839	-448.960695	28.127	
N	-0.208145168	 1.3339038851	 0.0099749186	-0.59863
C	-0.0375081842	 0.0849836263	 0.0016264044	 0.498524
N	-1.0343191513	-0.8831476634	 0.0019938527	-0.39446
C	-0.4288675181	-2.1084577755	-0.0087756569	 0.451499
C	-1.2026170149	-3.3917139937	-0.0116318689	-0.481303
C	-0.3598020154	-4.5851124637	-0.0224659364	 0.311319
N	 0.2560731738	-5.5605474802	-0.0309104957	-0.287078
N	 0.856629085	-2.0276731084	-0.0162923735	-0.162057
O	 1.1346030681	-0.6319196117	-0.0096580541	-0.240654
H	 0.6800038587	 1.8285269377	 0.0075263625	 0.241521
H	-2.0155190063	-0.6664314306	 0.0091277436	 0.290625
H	-1.8545501647	-3.4269366432	 0.8707561773	 0.185327
H	-1.8637406726	-3.4174676387	-0.8874889736	 0.185366
38.8464	115.7238	144.3358	284.5127	287.4878	379.4153	386.0225	431.4479	489.7673	630.4543	713.1063	721.3385	764.9571	767.0827	914.3943	953.0737	957.0476	965.9711	1032.637	1076.5068	1218.5369	1234.9309	1306.62	1351.4817	1455.518	1505.5461	1673.1629	1803.2894	2384.2477	3030.7785	3062.7442	3545.3286	3691.4782
N=C1NC(CC#N)=NO1	[NH][C@@H]1NC(=NO1)CC#N	
InChI=1S/C4H4N4O/c5-2-1-3-7-4(6)9-8-3/h1H2,(H2,6,7,8)	InChI=1S/C4H5N4O/c5-2-1-3-7-4(6)9-8-3/h4,6H,1H2,(H,7,8)/t4-/m1/s1
