14
gdb 94501	3.79986	0.81799	0.72746	6.5202	76.83	-0.2765	-0.052	0.2245	1483.5789	0.099576	-436.635543	-436.626604	-436.62566	-436.67092	30.151	
O	 0.1857358621	 1.3462682196	-0.3100104596	-0.411021
C	 0.1130497062	 0.0079836434	 0.0777662981	 0.07839
C	-0.1638352496	-0.318520787	 1.5627685919	-0.105477
O	-1.3156757737	-1.119249166	 1.2039731592	-0.264397
C	-1.2726284735	-0.6698342203	-0.1685778662	-0.159864
C	-2.363188377	 0.2249834566	-0.516132197	 0.229424
C	-3.2822291031	 0.9522391772	-0.8088620932	-0.004059
C	-4.3168700319	 1.7787021166	-1.1393647237	 0.212165
N	-5.1975215562	 2.481208065	-1.423364776	-0.33459
H	 1.1076786567	 1.5980102417	-0.4131015864	 0.300139
H	 0.9235199864	-0.5931626959	-0.3480769269	 0.098096
H	 0.5845713956	-0.9042928165	 2.1055389375	 0.113575
H	-0.4438594841	 0.5696005849	 2.1418325741	 0.122527
H	-1.2608028479	-1.5178164992	-0.8641155819	 0.125092
56.4408	64.4779	71.2373	122.1085	195.1272	258.6185	355.2068	417.8135	455.5242	554.2976	575.5302	609.975	708.3475	779.4331	883.3006	933.5808	988.3447	1009.7243	1069.709	1152.8167	1169.3048	1173.207	1203.3458	1256.8972	1293.0707	1331.8046	1349.6674	1448.153	1512.982	2263.4898	2398.1073	3028.7624	3033.8613	3049.9408	3092.1325	3842.5502
OC1COC1C#CC#N	O[C@H]1CO[C@H]1C#CC#N	
InChI=1S/C6H5NO2/c7-3-1-2-6-5(8)4-9-6/h5-6,8H,4H2	InChI=1S/C6H5NO2/c7-3-1-2-6-5(8)4-9-6/h5-6,8H,4H2/t5-,6-/m0/s1
