20
gdb 10395	2.43629	1.83701	1.3121	3.3165	70.52	-0.2352	0.0698	0.305	1025.2455	0.176048	-386.113493	-386.10441	-386.103466	-386.147248	32.852	
C	 0.0760721034	 1.5789865654	-0.0786563545	-0.394475
C	-0.0361129497	 0.0649806599	 0.1401091756	-0.252248
C	-1.45554095	-0.5105412782	 0.050741423	 0.296743
C	-2.382203997	 0.0806722416	 1.1054561252	-0.154196
O	-3.6501840095	-0.5520967348	 1.0118620807	-0.417764
C	-2.0245130896	-0.5750088063	-1.3917615606	-0.10782
O	-1.8400944099	-2.0027052539	-1.4497219008	-0.276691
C	-1.4700138632	-2.0581296325	-0.0576181534	-0.115316
H	 1.1258866985	 1.8854894533	-0.1126093564	 0.117494
H	-0.3856379263	 1.8814013187	-1.0250206926	 0.120807
H	-0.4033922427	 2.1496596274	 0.7224447427	 0.118071
H	 0.578243577	-0.450785935	-0.6076883061	 0.109554
H	 0.3926053903	-0.1968807893	 1.117300708	 0.094865
H	-1.9367047913	-0.0695278162	 2.1035885062	 0.086443
H	-2.4779058264	 1.1660002694	 0.9503210891	 0.091003
H	-4.2438961985	-0.1370233723	 1.6435092851	 0.290431
H	-3.0813578454	-0.2965209757	-1.4740263817	 0.106217
H	-1.4459190142	-0.0544213042	-2.1656717729	 0.089354
H	-0.5037672445	-2.5564581438	 0.0930947856	 0.08805
H	-2.2385371412	-2.5485766633	 0.5495504077	 0.109478
80.2805	101.2227	125.4617	203.1997	224.5501	246.8126	288.9508	318.4792	363.4404	426.2911	531.997	643.2826	784.3654	836.5144	887.8879	890.8207	971.8137	986.7361	1011.3363	1039.6179	1043.1612	1076.4848	1093.0321	1152.4175	1167.2949	1171.5589	1186.7927	1256.7161	1277.3742	1291.0559	1314.2858	1333.5595	1374.7108	1392.9685	1413.4005	1456.2116	1484.1692	1500.8511	1504.9937	1508.4511	1515.3281	1531.6945	2956.2008	2998.58	3007.2437	3012.2765	3019.5589	3036.7183	3052.9262	3063.6348	3070.3531	3102.0277	3108.0472	3839.1413
CCC1(CO)COC1	CCC1(CO)COC1	
InChI=1S/C6H12O2/c1-2-6(3-7)4-8-5-6/h7H,2-5H2,1H3	InChI=1S/C6H12O2/c1-2-6(3-7)4-8-5-6/h7H,2-5H2,1H3
