19
gdb 79158	4.27116	1.20523	1.12335	1.9203	75.08	-0.2575	0.0793	0.3368	1118.5628	0.160754	-422.98198	-422.974424	-422.973479	-423.013696	30.629	
O	-0.0249963058	 1.430602226	-0.1037348536	-0.44394
C	 0.0095119621	 0.0266729132	 0.0012615296	 0.135796
C	-0.0104958459	-0.6312740598	 1.4065535734	-0.130466
C	-1.4974669332	-0.1651777969	 1.5744942719	 0.000661
C	-2.2432809498	-1.2272199878	 2.37923944	-0.286557
C	-1.6425586944	-2.5123861916	 1.7397190046	 0.105225
O	-2.5789098103	-3.2940524432	 1.008624077	-0.443579
C	-0.6686110531	-1.8845643304	 0.7521718838	-0.010635
C	-1.3662755176	-0.6503375383	 0.0902038336	-0.075549
H	 0.8739877932	 1.7603912908	-0.0110615038	 0.281989
H	 0.7141624527	-0.4107942719	-0.7196346933	 0.059545
H	 0.7726724824	-0.6266897614	 2.1687713124	 0.059998
H	-1.6989390588	 0.8869547883	 1.7637828334	 0.078206
H	-2.0454594556	-1.151919355	 3.4539495521	 0.09162
H	-3.3270662182	-1.1914865101	 2.2267848937	 0.0961
H	-1.1220794389	-3.1380450833	 2.4800035463	 0.059434
H	-3.2041100857	-3.6721870747	 1.6345675168	 0.280921
H	-0.0687916123	-2.5578908612	 0.1377569888	 0.064544
H	-2.1487843708	-0.6742650429	-0.6681515469	 0.076687
117.3832	213.8649	259.205	284.9438	295.8158	339.4567	430.4014	486.3088	561.0336	697.678	729.8819	768.9945	804.3545	860.9205	865.5927	923.2693	925.26	952.8206	982.661	999.7242	1021.0183	1036.6922	1079.1101	1100.721	1119.3817	1126.7823	1138.3631	1169.1714	1197.4148	1216.4087	1222.0213	1237.863	1254.4858	1270.8877	1290.8272	1315.5126	1333.5479	1372.7552	1424.4076	1443.7677	1484.7992	2985.1351	3004.6747	3040.5966	3078.9278	3085.5292	3106.2392	3118.0446	3145.3279	3820.7706	3822.2466
OC1C2C3CC(O)C2C13	O[C@H]1[C@H]2[C@@H]3C[C@@H](O)[C@H]2[C@H]13	
InChI=1S/C7H10O2/c8-3-1-2-4-6(3)5(2)7(4)9/h2-9H,1H2	InChI=1S/C7H10O2/c8-3-1-2-4-6(3)5(2)7(4)9/h2-9H,1H2/t2-,3-,4-,5+,6+,7-/m1/s1
