20
gdb 11062	3.23294	2.22935	1.8881	1.4775	73.51	-0.2336	0.0805	0.3141	827.2977	0.179544	-349.030187	-349.023218	-349.022274	-349.060763	28.659	
C	 0.0234813197	 1.478031378	 0.0757956167	-0.471306
C	-0.0273362001	-0.0288402	-0.0393248893	 0.424521
C	 0.6380873425	-0.6490443244	-1.2925090433	-0.232503
C	 0.103831923	-2.1168360337	-1.2689429718	-0.218379
C	-0.7579707241	-2.139744103	 0.0159980808	-0.040782
C	 0.1847676662	-1.963091728	 1.216416031	-0.069614
O	 0.6317822858	-0.6009605915	 1.1137632625	-0.311782
C	-1.3952075014	-0.7362259954	-0.0157232194	-0.254847
H	 1.0603532034	 1.8282009189	 0.0850509462	 0.12343
H	-0.4889159645	 1.9468379707	-0.7698009272	 0.111828
H	-0.4536977103	 1.8088363764	 1.0026614434	 0.120337
H	 0.3440127913	-0.1207372814	-2.2051529254	 0.091186
H	 1.7255795848	-0.5898002332	-1.2046539475	 0.103639
H	-0.5098851608	-2.3317806087	-2.1490042398	 0.094615
H	 0.9054425865	-2.8604612438	-1.2405104597	 0.096458
H	-1.4321937053	-2.9931433217	 0.1024700656	 0.062189
H	-0.3292854396	-2.107844069	 2.1767877426	 0.090599
H	 1.0458266019	-2.6432788413	 1.1830651068	 0.091783
H	-1.9778985122	-0.4902716884	 0.8764740455	 0.096461
H	-1.9965421968	-0.5521260307	-0.9105421479	 0.092168
169.5379	210.3762	269.3249	317.2869	367.0434	421.2048	477.4567	574.3395	609.921	769.3146	788.8596	827.3207	854.9206	870.5192	892.89	934.3326	953.207	970.7164	972.9034	995.4331	1033.589	1053.2548	1108.0556	1140.6526	1152.672	1200.6949	1210.6023	1226.0367	1252.6581	1263.2885	1284.0989	1309.6168	1333.4173	1356.7347	1379.2721	1413.0837	1476.7829	1483.1208	1486.8706	1496.8281	1504.2728	1532.4931	2998.7171	3035.2929	3039.0225	3044.4743	3052.9459	3058.6512	3085.3095	3105.6469	3106.9927	3109.6312	3111.6181	3117.1865
CC12CCC(CO1)C2	C[C@@]12CC[C@@H](CO1)C2	
InChI=1S/C7H12O/c1-7-3-2-6(4-7)5-8-7/h6H,2-5H2,1H3	InChI=1S/C7H12O/c1-7-3-2-6(4-7)5-8-7/h6H,2-5H2,1H3/t6-,7+/m1/s1
