18
gdb 86970	2.46025	1.44472	1.19284	3.4383	77.38	-0.2612	0.0038	0.2649	1117.9544	0.148159	-401.970863	-401.962464	-401.96152	-402.00393	31.598	
C	 0.0707450944	 1.5691594685	-0.0469957002	-0.398576
C	 0.0096231355	 0.0487200094	 0.0694275045	 0.083655
O	 0.5514433547	-0.466134158	-1.1540056063	-0.266483
C	 0.8756568873	-1.8395185949	-1.1296218514	-0.034125
C	 1.9681742849	-2.1411841333	-0.0874425909	-0.27193
C	 1.6480821377	-1.4451604493	 1.2074214907	-0.081532
C	 0.7462924906	-0.4698853757	 1.275074828	-0.044924
C	-0.326550131	-2.6779076231	-0.9047420838	 0.267747
N	-1.2695165491	-3.3247665396	-0.7383359781	-0.328053
H	 1.1093515482	 1.9064454935	-0.1044327757	 0.12823
H	-0.4552789753	 1.8964453732	-0.9473540862	 0.13174
H	-0.4026821071	 2.0346957073	 0.822216705	 0.120556
H	-1.0482091901	-0.2577143519	 0.1401516851	 0.103394
H	 1.2413511623	-2.0694394132	-2.1356119035	 0.134435
H	 2.0534922174	-3.2235721016	 0.0604522024	 0.129394
H	 2.9319589257	-1.8014055861	-0.4871233313	 0.125991
H	 2.1724599809	-1.7771575409	 2.0985951594	 0.10111
H	 0.4955856528	-0.0036434541	 2.2239300823	 0.099371
85.2775	108.5972	188.1978	229.624	280.0812	297.8656	358.8983	427.2546	450.3864	533.2957	610.5099	658.8857	705.2869	782.541	818.295	887.9612	904.432	935.6909	996.0467	1003.7158	1037.378	1056.535	1103.3079	1120.392	1151.7469	1212.2186	1224.2398	1298.7283	1342.1886	1360.5958	1363.9874	1383.1661	1402.7997	1417.4175	1470.4622	1484.583	1497.6714	1727.8813	2352.8383	2959.1573	3028.1747	3046.4334	3065.5264	3070.1295	3123.323	3128.9374	3159.9203	3181.5289
CC1OC(CC=C1)C#N	C[C@H]1O[C@@H](CC=C1)C#N	
InChI=1S/C7H9NO/c1-6-3-2-4-7(5-8)9-6/h2-3,6-7H,4H2,1H3	InChI=1S/C7H9NO/c1-6-3-2-4-7(5-8)9-6/h2-3,6-7H,4H2,1H3/t6-,7+/m1/s1
