16
gdb 28039	4.10135	0.96855	0.85057	2.8233	77.74	-0.1859	0.0229	0.2088	1337.2242	0.125019	-396.92092	-396.912315	-396.911371	-396.954947	31.81	
N	-0.0601750994	 1.4070444937	 0.066902764	-0.594982
C	-0.0563457094	 0.0104174339	 0.0495708927	 0.290885
C	-1.1005752344	-0.8621412065	-0.1505555348	-0.208909
N	-0.5488611974	-2.1271126668	 0.0112216647	 0.035378
C	-1.249164559	-3.3957200305	-0.0919711681	-0.328997
C	-1.765383962	-3.6742215111	-1.4313755107	 0.322236
C	-2.2033729688	-3.9080571243	-2.5245797458	-0.446405
C	 0.7655798165	-1.9488175137	 0.2955893486	 0.004511
N	 1.1002265695	-0.676254568	 0.3272370088	-0.32341
H	 0.8796490296	 1.7652639893	-0.0444910131	 0.248332
H	-0.6778402559	 1.8195830514	-0.6189431897	 0.2409
H	-2.1402737684	-0.7237621213	-0.3919613059	 0.120539
H	-0.5483644225	-4.1812025925	 0.2099678933	 0.15263
H	-2.074740709	-3.415822726	 0.6310221736	 0.15289
H	-2.5833041864	-4.1144308621	-3.4947897776	 0.208575
H	 1.4300721569	-2.7824445954	 0.47041155	 0.125826
37.5083	80.0643	205.3161	229.1422	273.996	323.2633	336.119	433.5084	460.4653	615.9818	629.2607	634.3463	668.9772	676.1903	696.6566	766.3805	793.5603	805.5486	952.9587	974.9438	1005.5085	1048.8926	1100.8891	1202.706	1223.1968	1267.3237	1348.7772	1387.589	1411.6008	1451.6257	1469.6437	1539.132	1617.3915	1648.8425	2245.4293	3024.5405	3075.6404	3243.7205	3280.9865	3504.3126	3544.3066	3640.5761
NC1=CN(CC#C)C=N1	Nc1cn(CC#C)cn1	
InChI=1S/C6H7N3/c1-2-3-9-4-6(7)8-5-9/h1,4-5H,3,7H2	InChI=1S/C6H7N3/c1-2-3-9-4-6(7)8-5-9/h1,4-5H,3,7H2
