20
gdb 107843	3.57094	1.35498	1.31434	1.622	77.71	-0.2289	0.0774	0.3063	1072.0551	0.172701	-403.101608	-403.09409	-403.093146	-403.133608	30.424	
C	-0.0059415225	 1.5445029932	-0.1796113781	-0.383212
C	-0.0331442663	 0.025804188	 0.0355250886	-0.307154
C	-1.4228807721	-0.5434994172	 0.1136269943	 0.424184
C	-2.4470350902	-0.1131715164	 1.1869485119	-0.255517
C	-3.4113685322	-1.2758044396	 0.8646568375	-0.066357
N	-2.633216706	-2.5065423333	 1.1911417355	-0.311634
C	-1.7697621754	-2.1186072412	 0.0728870675	-0.115553
C	-2.9587791827	-1.492682565	-0.659904338	 0.119132
O	-2.2304141112	-0.3531360483	-1.1009016499	-0.330669
H	 1.0214055863	 1.9033629049	-0.2913184769	 0.111914
H	-0.5619133494	 1.8132767121	-1.0820530073	 0.140209
H	-0.4564868215	 2.0769218596	 0.6640648858	 0.117235
H	 0.4996568115	-0.471900269	-0.7836098609	 0.106896
H	 0.4964748235	-0.2380395777	 0.9602737647	 0.098415
H	-2.0857740041	-0.1572668623	 2.2192747185	 0.08884
H	-2.8411300553	 0.8821662121	 0.9722163433	 0.111037
H	-4.4475670303	-1.2309929447	 1.19627236	 0.073961
H	-2.1923605834	-2.4832647662	 2.1109831283	 0.207899
H	-1.0416549709	-2.8169120213	-0.3389373146	 0.078551
H	-3.6212496578	-1.9589472376	-1.3850400301	 0.091824
78.5688	163.6189	206.0825	294.6403	334.1003	453.57	523.3087	534.4053	629.8229	698.182	752.4372	770.1406	787.6451	840.8365	848.7463	870.0954	931.8875	946.1065	960.1077	975.2696	1011.9652	1026.4816	1038.46	1057.4374	1071.1042	1118.8994	1126.8511	1171.992	1173.2707	1203.2092	1225.8551	1265.789	1271.4615	1306.1224	1317.4208	1336.5191	1349.8762	1390.881	1410.0472	1472.7617	1473.8056	1499.1723	1507.9106	3023.3154	3041.0158	3054.2848	3059.3994	3107.7414	3119.8826	3121.0046	3122.4215	3130.5602	3156.7786	3443.9136
CCC12CC3NC1C3O2	CC[C@]12C[C@@H]3N[C@H]1[C@@H]3O2	
InChI=1S/C7H11NO/c1-2-7-3-4-5(9-7)6(7)8-4/h4-6,8H,2-3H2,1H3	InChI=1S/C7H11NO/c1-2-7-3-4-5(9-7)6(7)8-4/h4-6,8H,2-3H2,1H3/t4-,5+,6-,7-/m0/s1
