16
gdb 74586	2.67192	1.89753	1.37361	4.1436	73.16	-0.2344	-0.0245	0.2098	950.3453	0.12473	-400.733199	-400.726049	-400.725105	-400.764679	28.089	
C	-0.1034169196	 1.4910251821	 0.0833835267	-0.499424
C	 0.0652366946	 0.0124590694	-0.0252330414	 0.3094
C	-0.0313637429	-0.7782849051	-1.101687429	-0.192523
C	 0.1035885711	-2.2086071939	-0.6911780781	-0.050102
C	 0.6624961296	-2.2566101694	 0.6611334662	-0.048199
C	 0.1896135372	-0.8838744909	 1.2020511621	-0.283333
C	-1.1716803443	-1.6212591494	 1.2796017279	 0.442223
O	-2.1643802243	-1.4768995822	 1.9219995047	-0.31461
N	-0.7886845352	-2.7409340925	 0.4491488292	-0.222401
H	 0.7717038366	 1.95491208	 0.5548832117	 0.132255
H	-0.2485531853	 1.9482297207	-0.8985349058	 0.132789
H	-0.9685821333	 1.7424958193	 0.7090000363	 0.149857
H	-0.2264923488	-0.4674068811	-2.1192888346	 0.108994
H	 0.2781605427	-2.9975675606	-1.4124831617	 0.114502
H	 1.405794682	-2.9259849227	 1.0744044665	 0.123236
H	 0.5880539401	-0.4489715136	 2.1163712894	 0.097335
127.0304	159.8784	189.795	305.7224	425.8423	448.2588	513.4555	578.156	625.0728	705.6294	724.3968	768.5808	831.7367	840.2278	855.0064	889.7113	925.1926	961.4708	981.1324	1009.4644	1053.0253	1062.531	1071.4057	1141.9734	1168.6044	1232.6719	1254.1968	1260.3891	1323.5868	1364.3786	1413.711	1476.4715	1485.5537	1691.8394	1902.1537	3023.237	3072.5037	3119.0333	3143.9356	3192.5242	3205.7494	3224.8699
CC1=CC2C3C1C(=O)N23	CC1=C[C@H]2[C@H]3[C@@H]1C(=O)N23	
InChI=1S/C7H7NO/c1-3-2-4-6-5(3)7(9)8(4)6/h2,4-6H,1H3	InChI=1S/C7H7NO/c1-3-2-4-6-5(3)7(9)8(4)6/h2,4-6H,1H3/t4-,5+,6-,8?/m0/s1
