17
gdb 14767	8.12955	0.6805	0.6519	2.5829	66.49	-0.2742	0.0272	0.3014	1639.3467	0.140966	-400.999494	-400.990275	-400.989331	-401.034744	31.123	
O	-0.0537773003	 1.4439960844	-0.1189287214	-0.417686
C	 0.0026297649	 0.0355457479	-0.0238771777	-0.060568
C	-1.3874496816	-0.5761345127	 0.0436305437	-0.076124
O	-2.0531389304	-0.215092342	-1.1582869929	-0.260955
C	-3.4049412488	-0.602308169	-1.1971781656	-0.048928
C	-3.9644128833	-0.1340970264	-2.5464755913	-0.341295
C	-5.3701472876	-0.4902567222	-2.7088832318	 0.248613
N	-6.4826611112	-0.7811410633	-2.8196351663	-0.29809
H	-0.6508509498	 1.636771691	-0.8507710657	 0.287723
H	 0.5471937239	-0.4070598631	-0.8731080235	 0.096599
H	 0.5532242451	-0.206009643	 0.8908744369	 0.114381
H	-1.3308748694	-1.6718682385	 0.142705958	 0.095539
H	-1.9336075319	-0.176301566	 0.9119192822	 0.103797
H	-3.5061880264	-1.694496532	-1.105680938	 0.114931
H	-3.9728608495	-0.1464165893	-0.3717585124	 0.116346
H	-3.8535183063	 0.9521637987	-2.6297133127	 0.161225
H	-3.3796028675	-0.5820230747	-3.3565837415	 0.164492
44.2618	69.7459	101.4569	122.1067	166.9218	226.3962	340.0029	380.2757	399.4025	430.7666	502.2592	582.9034	796.6319	862.0716	906.8816	960.0168	1040.7622	1070.8198	1089.3274	1093.6128	1137.5025	1162.1566	1229.0959	1236.7775	1266.8652	1302.3254	1305.6841	1384.7253	1389.3186	1433.7881	1446.6005	1471.826	1497.8874	1502.8517	1532.693	2367.6603	2973.5902	2981.9599	2985.718	3016.6987	3021.0206	3056.039	3084.1128	3099.3759	3804.1224
OCCOCCC#N	OCCOCCC#N	
InChI=1S/C5H9NO2/c6-2-1-4-8-5-3-7/h7H,1,3-5H2	InChI=1S/C5H9NO2/c6-2-1-4-8-5-3-7/h7H,1,3-5H2
