16
gdb 5726	4.71135	2.11276	1.50967	3.8377	70.03	-0.2107	0.0405	0.2512	817.529	0.135316	-342.837633	-342.831537	-342.830593	-342.867819	23.76	
C	 0.1169296758	 1.4385256757	-0.3300997251	-0.213756
C	 1.4418557474	 1.9765981878	 0.278796934	-0.182357
N	 2.1267308982	 0.7451790184	 0.6307055058	 0.018127
C	 3.3739401042	 0.350062516	 1.0533244316	-0.163169
C	 3.2451862355	-0.9986308267	 1.2919025393	-0.094323
N	 1.95900725	-1.4341112501	 1.0410883366	-0.362093
C	 1.3231727725	-0.3537086313	 0.6511493147	 0.380221
C	-0.0772645409	 0.0143472968	 0.2660459112	-0.343469
H	-0.7230707126	 2.10462457	-0.1244811842	 0.11281
H	 0.2253907623	 1.3681650306	-1.4159046404	 0.122727
H	 2.0212068099	 2.5717685402	-0.4326490342	 0.123685
H	 1.2676386798	 2.5902131714	 1.1715032513	 0.121537
H	 4.2078104073	 1.027663452	 1.1277265646	 0.12234
H	 4.012369726	-1.6829854882	 1.6225848433	 0.102732
H	-0.7328055018	 0.0315520566	 1.145482568	 0.124492
H	-0.5193050037	-0.6819870391	-0.4503369064	 0.130495
139.6422	197.8059	243.665	440.6295	584.0059	630.1225	683.4975	718.8251	732.9307	735.2421	845.3746	858.6422	903.5617	916.2365	950.4092	1007.2988	1082.7054	1090.5133	1125.0822	1170.9297	1187.7984	1228.9908	1233.9635	1297.0755	1306.5264	1317.2242	1340.9093	1422.7404	1454.4334	1488.4789	1497.8723	1504.5907	1535.6137	1575.6069	3025.5605	3032.5225	3065.2637	3084.0691	3097.7037	3121.276	3242.213	3279.1104	139.6425	197.8061	243.6649	440.6297	584.0059	630.1213	683.4975	718.8247	732.9308	735.2421	845.374	858.6423	903.5617	916.2365	950.409	1007.2987	1082.705	1090.5134	1125.0819	1170.9296	1187.7985	1228.9908	1233.9634	1297.0752	1306.5265	1317.224	1340.9092	1422.7404	1454.4334	1488.479	1497.8723	1504.5906	1535.6135	1575.6067	3025.5605	3032.5225	3065.2636	3084.0692	3097.7037	3121.276	3242.2129	3279.1102
C1CN2C=CN=C2C1	C1Cn2ccnc2C1	
InChI=1S/C6H8N2/c1-2-6-7-3-5-8(6)4-1/h3,5H,1-2,4H2	InChI=1S/C6H8N2/c1-2-6-7-3-5-8(6)4-1/h3,5H,1-2,4H2
