14
gdb 29670	3.22809	1.41744	0.99107	2.5685	67.74	-0.2368	-0.071	0.1658	1094.5678	0.100734	-473.8886	-473.880531	-473.879587	-473.921739	28.372	
C	-0.0057869387	 1.4684027296	 0.0024161109	-0.337201
N	 0.0066549763	 0.0136553315	 0.0304952698	-0.215211
C	-0.0212360976	-0.7463532001	-1.1133505611	 0.490932
O	-0.0580697085	-0.4220595908	-2.2651332004	-0.390343
O	 0.0022841848	-2.0854965201	-0.6832991093	-0.198266
C	 0.0424875958	-2.0923670235	 0.667383956	-0.073308
C	 0.046588066	-0.8278705411	 1.147898799	 0.189378
C	 0.0847730918	-0.4182404058	 2.5399531394	 0.08069
O	 0.0872871937	 0.7298423836	 2.9304525949	-0.29309
H	 0.8916798337	 1.8715635453	 0.4751614968	 0.155055
H	-0.0392236067	 1.7609613119	-1.0477002948	 0.166911
H	-0.8800366321	 1.8574173218	 0.5276140755	 0.155044
H	 0.0648156039	-3.0486798062	 1.1632217789	 0.178528
H	 0.1125216077	-1.2768352261	 3.2436725343	 0.09088
84.1066	113.3271	183.7741	188.0262	205.4945	308.6369	382.5925	448.2509	547.0954	606.5486	679.6541	731.9768	748.4846	780.2556	822.8519	959.8789	1012.1091	1016.0561	1160.9043	1173.0952	1219.4942	1270.0183	1358.9851	1416.4506	1432.5419	1485.3287	1489.4493	1507.2242	1649.6362	1777.3471	1901.9802	2909.1624	3064.3396	3136.5334	3162.2423	3283.2733
CN1C(=O)OC=C1C=O	Cn1c(=O)occ1C=O	
InChI=1S/C5H5NO3/c1-6-4(2-7)3-9-5(6)8/h2-3H,1H3	InChI=1S/C5H5NO3/c1-6-4(2-7)3-9-5(6)8/h2-3H,1H3
