20
gdb 94232	2.99563	1.03313	0.96246	2.4173	77.52	-0.2555	0.0246	0.2802	1322.0468	0.168973	-440.274052	-440.264355	-440.26341	-440.308598	35.873	
C	-0.0033234352	 1.6496884375	 0.1044534204	-0.420891
C	-0.0214393884	 0.130286095	 0.0230658801	 0.335791
C	 1.0562470383	-0.4871059758	-0.9185805185	-0.282527
C	 1.9570111869	-0.7082001662	 0.3286740532	-0.258802
C	 0.7005716474	-0.5711111107	 1.2101621566	 0.105099
O	 0.893566799	 0.1255219579	 2.4127671072	-0.42625
O	-1.3661189492	-0.3519258168	-0.1058197225	-0.238266
C	-1.9648657439	-0.2260843028	-1.3038680421	 0.113405
N	-3.1803267642	-0.5439528717	-1.4405327668	-0.44691
H	 1.0093874054	 2.0199436765	 0.2818717416	 0.131257
H	-0.373518363	 2.0930900606	-0.8255485985	 0.114204
H	-0.6361353868	 1.9907584951	 0.9278078918	 0.128431
H	 0.7128080593	-1.4312963586	-1.3478503343	 0.117199
H	 1.4454480544	 0.1498586187	-1.7154744031	 0.105701
H	 2.5166436858	-1.641911315	 0.3950635512	 0.109787
H	 2.6384804355	 0.1283596352	 0.5004295986	 0.120488
H	 0.224203566	-1.5471910759	 1.3710931489	 0.086446
H	 0.0889815796	 0.0591944285	 2.9371605281	 0.291247
H	-1.3013789076	 0.1464433455	-2.0952097736	 0.088835
H	-3.4640555892	-0.408835627	-2.4089020883	 0.225755
72.9386	122.2401	130.8045	164.7771	208.9918	247.4006	295.8859	312.5077	333.2232	392.8704	465.2278	487.7904	585.9144	678.8284	756.4743	813.194	822.0941	897.5046	911.5737	938.2183	950.9641	986.2339	1047.2615	1071.8524	1095.1901	1136.0441	1166.5078	1183.3611	1199.734	1245.3379	1254.8023	1270.8637	1277.8992	1301.2337	1321.45	1407.0649	1422.9605	1435.958	1474.0403	1482.3172	1487.563	1498.3349	1739.4148	3021.3697	3032.123	3043.6819	3068.3477	3077.6254	3114.4496	3120.5046	3128.8684	3137.8693	3513.1023	3817.9798
CC1(CCC1O)OC=N	C[C@]1(CC[C@H]1O)O[CH][NH]	
InChI=1S/C6H11NO2/c1-6(9-4-7)3-2-5(6)8/h4-5,7-8H,2-3H2,1H3	InChI=1S/C6H11NO2/c1-6(9-4-7)3-2-5(6)8/h4-5,7-8H,2-3H2,1H3/t5-,6-/m1/s1
