13
gdb 23926	3.71367	1.64669	1.5031	2.6748	46.49	-0.2692	0.0618	0.3309	834.045	0.092242	-530.087513	-530.080383	-530.079439	-530.11977	25.087	
F	-0.1847979667	 0.0459629923	 0.1094473546	-0.082023
C	-0.0523075456	 1.3788005292	 0.0627887485	 0.268966
F	 1.2524281405	 1.6628708886	 0.1013834533	-0.069578
F	-0.5347761358	 1.7981198827	-1.1196397174	-0.080726
C	-0.8028855629	 2.0577890315	 1.1986934466	 0.005149
C	-2.2403206177	 1.5514674375	 1.4343415946	-0.298747
C	-1.6622441538	 0.9937930789	 2.7523161385	-0.061293
O	-0.3629142848	 1.573302053	 2.4724033976	-0.28129
H	-0.6659137134	 3.1396767103	 1.0875683352	 0.107567
H	-2.9796449777	 2.3433959862	 1.5505115897	 0.124296
H	-2.6018755273	 0.8137769774	 0.7185866461	 0.133733
H	-2.0902469711	 1.3957272211	 3.6763281689	 0.113755
H	-1.6095265539	-0.0979576987	 2.8196781337	 0.12019
75.0266	88.6632	191.7225	249.6631	355.4754	414.1969	524.4911	574.3259	653.825	772.4846	806.143	857.5516	948.4883	964.8627	1027.3688	1064.4106	1097.6993	1161.7328	1178.775	1209.5133	1221.007	1264.4199	1273.8755	1301.9972	1360.0198	1406.2295	1486.9983	1529.4708	3037.3888	3049.9979	3084.3991	3099.5888	3157.6861
FC(F)(F)C1CCO1	FC(F)(F)[C@H]1CCO1	
InChI=1S/C4H5F3O/c5-4(6,7)3-1-2-8-3/h3H,1-2H2	InChI=1S/C4H5F3O/c5-4(6,7)3-1-2-8-3/h3H,1-2H2/t3-/m1/s1
