18
gdb 72293	2.73822	2.40555	1.63948	0.8855	81.08	-0.2072	-0.0454	0.1618	859.4126	0.147628	-364.674914	-364.668065	-364.667121	-364.705413	29.004	
C	-0.03852637	 1.480587031	-0.0801574009	-0.467583
C	-0.0474639274	-0.009636483	 0.172437221	 0.363936
C	-1.4591728894	-0.681435814	 0.2972783046	-0.297237
C	-1.0324409546	-2.1204471662	 0.5565248472	-0.106573
C	 0.2691809755	-2.07460234	 0.9088719046	 0.041458
C	 1.3656400031	-2.0595391742	-0.1191517646	-0.084537
C	 1.9591235984	-0.8106119247	 0.382949152	-0.049628
C	 0.7417211972	-0.6424767516	 1.321515265	-0.160691
N	 1.0170381659	-0.6731829469	-0.7787663661	-0.206605
H	 0.9723405232	 1.8926275848	-0.0152138849	 0.123651
H	-0.4254068018	 1.7011931727	-1.0810213816	 0.127051
H	-0.6698104889	 1.9969005098	 0.651770047	 0.111675
H	-2.0292888532	-0.1538629304	 1.0762460738	 0.111943
H	-2.0674895091	-0.6496091066	-0.614736505	 0.117972
H	-1.4675668219	-2.9407924659	-0.0059795385	 0.103858
H	 1.7386135736	-2.8030907632	-0.811569658	 0.106509
H	 2.9704061633	-0.4253128162	 0.3837183366	 0.095819
H	 0.7203692961	-0.3139824556	 2.3602918978	 0.068981
218.5807	239.6867	280.7984	336.8332	351.2869	498.7533	530.3742	600.734	634.5776	672.872	758.4818	771.8898	797.7798	826.2062	863.6833	879.3653	894.4994	924.2808	938.6143	995.8295	1016.8815	1026.5256	1046.141	1084.8883	1106.3676	1148.3355	1155.3587	1187.5773	1208.1985	1240.2045	1250.6875	1280.6475	1312.4237	1329.0424	1407.6124	1450.9228	1483.3028	1489.0232	1582.9999	2997.6717	3030.1603	3060.2754	3094.9352	3110.306	3114.1675	3170.6656	3192.7926	3208.1627
CC12CC=C3C4C(C13)N24	C[C@]12C[CH][C]3[C@@H]4[C@H]([C@@H]13)N24	
InChI=1S/C8H9N/c1-8-3-2-4-5(8)7-6(4)9(7)8/h2,5-7H,3H2,1H3	InChI=1S/C8H9N/c1-8-3-2-4-5(8)7-6(4)9(7)8/h2,5-7H,3H2,1H3/t5-,6+,7-,8-,9?/m0/s1
