20
gdb 116062	3.54318	1.05891	0.85783	2.2701	77.3	-0.2619	0.0169	0.2788	1369.7418	0.171774	-440.308126	-440.299274	-440.29833	-440.342011	32.962	
C	-0.102353496	 1.5639905656	 0.0080560285	-0.390491
C	 0.0261986614	 0.0389026108	-0.0084138184	-0.194314
C	 0.7245789039	-0.4929703645	-1.2527556533	 0.109504
C	 0.9126887481	-2.0132585221	-1.2461816398	-0.27157
C	 1.3526112498	-2.5403296772	-2.5926599298	 0.362896
N	 2.0973534487	-3.5562829028	-2.7014065341	-0.501651
O	 0.8129138716	-1.9121635211	-3.6845390779	-0.250706
C	 0.557587653	-0.5079268663	-3.5698431344	 0.011235
O	-0.0763914291	-0.1546469459	-2.3911314711	-0.23504
H	 0.8823574947	 2.044390279	 0.00270453	 0.113632
H	-0.6525107188	 1.9146793151	-0.8687261062	 0.135253
H	-0.6328516632	 1.9020208817	 0.9027906483	 0.116035
H	 0.5875157208	-0.3058052293	 0.8683704164	 0.104131
H	-0.9660956204	-0.4249369039	 0.0491901046	 0.109888
H	 1.7072728807	-0.0010767416	-1.3628739862	 0.073994
H	 1.6337484785	-2.335208769	-0.4929052644	 0.131981
H	-0.0538326725	-2.4759205115	-1.0086157012	 0.132092
H	 2.2468286778	-3.7739572983	-3.6894316567	 0.219631
H	 1.5204907003	 0.0209454269	-3.6721168958	 0.095031
H	-0.1046173092	-0.2562409356	-4.3996349183	 0.12847
77.6981	117.9923	119.7922	181.3969	228.7216	301.2235	345.962	414.3938	446.0958	485.1102	522.7292	599.3186	737.2387	767.7394	823.1171	865.4543	925.7971	940.8555	976.1123	987.1432	1036.2363	1065.3597	1089.3192	1124.3565	1134.9221	1168.8939	1200.9029	1227.9351	1282.9145	1290.2644	1316.9734	1327.4103	1359.2574	1385.6069	1408.5683	1416.251	1459.1304	1459.7106	1476.6906	1497.7783	1509.0163	1518.3349	1756.4209	2949.6698	2960.9942	3030.5096	3037.3338	3039.1982	3069.5233	3105.4895	3121.6451	3124.7758	3126.4326	3458.3128
CCC1CC(=N)OCO1	CC[C@H]1C[C]([NH])OCO1	
InChI=1S/C6H11NO2/c1-2-5-3-6(7)9-4-8-5/h5,7H,2-4H2,1H3	InChI=1S/C6H11NO2/c1-2-5-3-6(7)9-4-8-5/h5,7H,2-4H2,1H3/t5-/m0/s1
