13
gdb 123984	3.85027	1.65436	1.16541	2.0588	64.31	-0.2479	-0.0249	0.223	945.0574	0.092079	-452.737141	-452.73097	-452.730026	-452.767951	23.741	
C	 0.0130248368	 1.494060512	-0.0463065341	-0.269371
N	 1.3693524209	 2.0246341977	 0.1094493734	-0.25343
C	 2.3683226428	 1.2734100777	 0.2508188045	 0.111983
O	 2.4358137368	-0.1061480927	 0.2913850379	-0.243854
C	 1.2229193739	-0.7098283381	 0.1551049927	 0.198004
C	 0.8720784612	-2.0186439522	 0.1421455555	-0.045219
O	-0.4631960402	-2.101604634	-0.0215236311	-0.168683
N	-1.0075002968	-0.8192933913	-0.1188229703	-0.213397
C	 0.0081295703	-0.0026505321	-0.0119942594	 0.275336
H	-0.6147406547	 1.9137159063	 0.7485883838	 0.15117
H	-0.3993747076	 1.8731820938	-0.9887783092	 0.15117
H	 3.3706840248	 1.6749268511	 0.3657078115	 0.141973
H	 1.4116912918	-2.9464384781	 0.2306820449	 0.164318
100.3978	236.4505	353.5617	423.8199	488.0775	512.2687	599.4566	625.5926	688.693	730.8109	809.9797	881.751	899.8912	939.6748	941.2189	974.7955	1016.7567	1086.4963	1128.8158	1210.6528	1243.6776	1294.9248	1345.9767	1404.4416	1460.6894	1480.7536	1540.3407	1677.8098	1747.3206	3035.1706	3059.163	3193.3485	3285.2505
C1N=COC2=CON=C12	C1N=COc2conc12	
InChI=1S/C5H4N2O2/c1-4-5(2-9-7-4)8-3-6-1/h2-3H,1H2	InChI=1S/C5H4N2O2/c1-4-5(2-9-7-4)8-3-6-1/h2-3H,1H2
