18
gdb 77169	3.41259	1.07241	0.86517	3.3617	74.19	-0.2472	0.0326	0.2798	1312.2999	0.146739	-439.082549	-439.073591	-439.072646	-439.117088	31.721	
C	 0.1322545282	 1.4661693628	 0.0689992445	-0.350537
N	 0.0612139029	 0.0276789247	 0.1064433332	-0.072746
C	-1.0691579017	-0.9100998606	 0.0907142021	 0.003554
C	-0.0186533537	-2.0581958717	-0.0112907421	-0.409431
C	 1.0398508845	-0.9326452119	-0.0192749253	 0.411216
O	 2.2361646138	-0.8506091791	-0.1100564082	-0.369484
C	-1.9270061965	-0.8795807944	 1.3296198857	 0.077073
C	-3.2157246791	-0.1739353494	 1.3640385987	-0.183652
O	-3.1585424422	-1.5958384394	 1.2490782294	-0.227082
H	 1.1889544424	 1.7401086779	 0.0215394202	 0.165127
H	-0.3773443621	 1.8722161139	-0.8140900076	 0.127685
H	-0.3097766668	 1.9185524808	 0.9638901233	 0.13047
H	-1.7085727428	-0.8127185148	-0.7960716547	 0.086147
H	 0.0288335499	-2.7250391276	 0.8520520508	 0.135449
H	-0.0581026855	-2.6483065381	-0.9279680003	 0.137201
H	-1.3841432137	-1.0090981915	 2.2681547863	 0.100165
H	-3.5982100673	 0.2052709833	 2.310241613	 0.122462
H	-3.5650308904	 0.3514820051	 0.4756967408	 0.116382
67.7058	81.536	118.1613	145.1408	212.052	239.7136	319.2162	371.3236	400.9748	543.1819	571.1269	719.3569	801.5701	807.4702	874.6388	917.3673	951.3371	988.4608	1019.8063	1067.6015	1083.2291	1108.0766	1147.6444	1156.6764	1170.8619	1190.2787	1202.1047	1233.4459	1282.9619	1292.35	1319.819	1404.0927	1444.8474	1454.1641	1467.755	1483.0188	1517.4417	1528.6489	1882.181	3015.3213	3026.4959	3069.7664	3083.0212	3087.1062	3094.5658	3130.2732	3145.6277	3171.6163
CN1C(CC1=O)C1CO1	CN1[C@@H](CC1=O)[C@H]1CO1	
InChI=1S/C6H9NO2/c1-7-4(2-6(7)8)5-3-9-5/h4-5H,2-3H2,1H3	InChI=1S/C6H9NO2/c1-7-4(2-6(7)8)5-3-9-5/h4-5H,2-3H2,1H3/t4-,5+/m0/s1
