14
gdb 48462	1.89517	1.67312	1.30216	4.4818	65.29	-0.2619	-0.0524	0.2094	1025.5602	0.098568	-473.851486	-473.842763	-473.841819	-473.885742	29.794	
O	-0.6327431887	 0.6645537362	 0.7536424891	-0.25145
C	 0.057491517	 1.0012723524	-0.1736422306	 0.120244
C	 1.2263070012	 1.9581017977	-0.0384597464	-0.056012
C	 1.4297496777	 2.5979437171	 1.3529632235	-0.218516
N	 2.6817257309	 1.8385865626	 1.4797427735	-0.320552
C	 2.5840086337	 1.1601063419	 0.3047765971	 0.406907
O	 3.2235007343	 0.3180843678	-0.2472728533	-0.31774
C	 1.4097583558	 2.8376363623	-1.251114699	 0.105056
O	 1.1197833332	 2.5010748567	-2.3695630494	-0.242655
H	-0.0993233022	 0.6292663544	-1.2022576067	 0.132472
H	 1.5715547669	 3.6827879978	 1.3506597275	 0.124403
H	 0.6549294116	 2.3079176098	 2.0647424896	 0.154737
H	 3.2904500539	 1.6716076501	 2.2680500837	 0.268231
H	 1.8624034147	 3.8310657131	-1.0375088286	 0.094875
67.077	89.5812	108.2454	171.5034	217.5961	232.598	284.2432	420.8617	476.4716	500.4104	641.0574	688.9319	733.9577	768.7517	843.3946	937.2874	994.7826	1012.8746	1066.6442	1131.6735	1167.5488	1226.0687	1239.0601	1296.0044	1387.5254	1408.9729	1424.331	1515.9413	1805.1624	1820.7707	1925.7761	2885.794	2981.0661	3057.7008	3127.2199	3609.2595
O=CC1(CNC1=O)C=O	O=CC1(CNC1=O)C=O	
InChI=1S/C5H5NO3/c7-2-5(3-8)1-6-4(5)9/h2-3H,1H2,(H,6,9)	InChI=1S/C5H5NO3/c7-2-5(3-8)1-6-4(5)9/h2-3H,1H2,(H,6,9)
