17
gdb 73748	2.64972	1.50668	1.12118	1.8667	84.73	-0.2168	-0.028	0.1888	1111.207	0.135	-384.622249	-384.614178	-384.613233	-384.654746	31.142	
C	-0.0227813192	 1.4739148993	 0.0961085939	-0.526113
C	 0.0139737911	-0.007850433	 0.0176447218	 0.218489
C	 0.0081557396	-0.8548452672	-1.0322440547	 0.182342
C	-0.0403459501	-0.6286127656	-2.4152717265	 0.098493
C	-0.0839622817	-0.4689882059	-3.6107005926	-0.380591
C	 0.066652885	-2.2258809383	-0.3062540972	-0.050959
C	-1.0202290957	-2.0411395329	 0.7907497547	-0.223386
C	 0.0706647537	-1.0038815015	 1.1937789774	-0.025173
O	 1.0720849174	-1.966038499	 0.7234604941	-0.280379
H	 0.8637267413	 1.864447634	 0.6122122769	 0.139058
H	-0.06517136	 1.9188638502	-0.9011605469	 0.143467
H	-0.8939054712	 1.8226477301	 0.6659252502	 0.133188
H	-0.1182073598	-0.319323483	-4.6611042928	 0.183708
H	 0.2194490743	-3.1334511456	-0.8871056973	 0.089961
H	-2.0100587544	-1.6843443488	 0.4987910835	 0.103094
H	-1.0700520909	-2.8856046673	 1.4819073497	 0.111404
H	 0.2271165104	-0.6370475455	 2.2077155659	 0.083399
129.4647	133.1659	159.0424	188.9001	287.0515	407.4187	468.7679	508.1787	557.6416	569.9308	604.8535	639.4696	675.9493	697.7462	832.1618	845.4684	858.9069	910.6057	928.2273	1005.5876	1029.2711	1047.7371	1065.8202	1109.4813	1157.7988	1188.0614	1208.398	1236.6104	1254.3698	1295.0933	1326.7783	1411.7966	1477.299	1479.5254	1486.4078	1681.5921	2214.5352	3015.3248	3059.9975	3065.2556	3118.1956	3131.7379	3138.0237	3147.8853	3502.7503
CC1=C(C#C)C2CC1O2	CC1=C(C#C)[C@@H]2C[C@H]1O2	
InChI=1S/C8H8O/c1-3-6-5(2)7-4-8(6)9-7/h1,7-8H,4H2,2H3	InChI=1S/C8H8O/c1-3-6-5(2)7-4-8(6)9-7/h1,7-8H,4H2,2H3/t7-,8+/m1/s1
