19
gdb 43723	4.28353	1.06566	1.0218	2.9344	80.18	-0.2384	-0.0186	0.2199	1211.3445	0.159165	-385.911263	-385.903371	-385.902427	-385.944327	30.974	
O	 0.4959671004	 0.5260604628	-1.1570835011	-0.291194
C	 0.2310410008	 1.3629883758	-0.3439039652	 0.410666
C	-1.0806558318	 1.8807838929	 0.2636802109	-0.41687
C	-0.2834069785	 3.0851821824	 0.857647342	 0.351111
C	 1.0610710684	 2.3899139281	 0.4386889962	-0.395084
C	-0.4935995731	 4.4515821011	 0.1554673545	-0.321739
C	-0.1429747518	 5.4478081512	 1.235023025	-0.05936
C	-0.1088402809	 4.8772993485	 2.4383768628	-0.057785
C	-0.4271775794	 3.4027320351	 2.3639660728	-0.335749
H	-1.8849782944	 2.1011954298	-0.4441976249	 0.124877
H	-1.4688595912	 1.1946792599	 1.0252356692	 0.126762
H	 1.5918705347	 1.9214315729	 1.2752587958	 0.125362
H	 1.7798276299	 2.9743230125	-0.1421283969	 0.127931
H	 0.1142614828	 4.5540193484	-0.7513771914	 0.10558
H	-1.5394962632	 4.5811802964	-0.1607451609	 0.107551
H	 0.0103522022	 6.5018415967	 1.0326959407	 0.094225
H	 0.0769046905	 5.3914914581	 3.374612352	 0.094392
H	-1.4523021076	 3.2125999465	 2.7163657251	 0.108007
H	 0.2296471422	 2.7800513611	 2.9830993634	 0.101318
40.7693	90.429	261.5583	342.6284	350.5324	393.2562	413.7716	441.741	509.2593	670.9892	678.7806	712.3591	766.1506	775.46	873.5099	886.6042	917.161	944.3539	973.3512	976.467	980.2453	1031.4196	1048.2073	1096.5265	1114.7988	1127.9217	1137.8711	1164.9653	1192.4839	1234.0939	1255.8232	1269.1839	1294.4208	1341.9149	1366.4006	1424.8743	1443.1889	1481.8244	1492.1589	1684.6277	1892.9493	2993.6719	2996.0202	3041.2281	3045.2063	3046.6156	3048.5111	3100.2712	3105.17	3184.2691	3209.4383
O=C1CC2(C1)CC=CC2	O=C1CC2(C1)CC=CC2	
InChI=1S/C8H10O/c9-7-5-8(6-7)3-1-2-4-8/h1-2H,3-6H2	InChI=1S/C8H10O/c9-7-5-8(6-7)3-1-2-4-8/h1-2H,3-6H2
