25
gdb 122162	2.8512	0.7538	0.67141	1.6867	90.32	-0.2539	0.0885	0.3423	1847.2764	0.225938	-389.494383	-389.482983	-389.482039	-389.531719	41.093	
C	 0.1367553658	 1.4242570396	-0.5276033022	-0.381382
C	-0.0122314703	 0.064296716	 0.1597383004	-0.164672
C	-1.3860633589	-0.575378451	-0.0666776403	-0.154456
C	-1.5306016768	-1.9422101183	 0.6200744323	-0.275134
C	-2.8604354572	-2.6207995416	 0.3338614048	 0.397489
C	-4.0728299442	-1.9952378205	 0.9969770181	-0.460957
O	-3.073368293	-2.9925019224	-1.0434447359	-0.303765
C	-2.95009489	-4.0395887385	-0.0726482294	 0.027084
C	-1.8004908045	-5.0025263328	-0.226543082	-0.425922
H	 1.1265176012	 1.8565578843	-0.3499440388	 0.109996
H	 0.0008551404	 1.3362593075	-1.611195679	 0.115921
H	-0.6090977634	 2.1376416653	-0.1594568021	 0.112688
H	 0.7684810159	-0.6173704661	-0.2034267327	 0.094103
H	 0.163560397	 0.1772456096	 1.2381430271	 0.091585
H	-2.1633670071	 0.1119836056	 0.2909687452	 0.0925
H	-1.5611878329	-0.7068343161	-1.141574206	 0.112872
H	-0.7071738831	-2.5838100564	 0.2934823607	 0.097384
H	-1.4227302237	-1.825951686	 1.706971042	 0.093316
H	-4.1889017156	-0.9479717067	 0.7009896471	 0.127144
H	-4.9835969032	-2.5271531225	 0.7112385478	 0.124421
H	-3.9782888286	-2.0263462649	 2.0881165153	 0.116498
H	-3.9007962806	-4.5328263864	 0.1490057377	 0.076804
H	-0.8668390437	-4.4950009217	-0.4748544832	 0.128512
H	-1.6551285578	-5.5765619923	 0.6953241568	 0.119772
H	-2.0175707358	-5.7138220939	-1.0306819137	 0.128198
40.4289	72.0023	105.7972	123.4478	155.1677	168.108	238.1766	241.5177	248.791	278.19	368.7558	386.4709	461.9278	481.8637	536.354	720.3122	734.4777	773.8632	796.6386	892.2236	907.4396	925.5283	958.6766	991.2093	1020.2463	1036.7245	1065.6346	1089.0739	1109.3143	1139.2613	1142.5979	1184.0582	1236.7298	1270.3822	1279.3843	1321.3507	1333.6116	1345.6521	1378.4489	1398.1484	1406.9139	1412.2848	1413.6236	1460.0799	1475.7797	1482.248	1485.6565	1490.9827	1495.622	1499.5706	1500.1206	1512.804	1515.7483	3010.0048	3019.6437	3025.3451	3029.7572	3036.4744	3036.885	3037.6449	3063.493	3065.138	3089.2886	3096.2602	3096.726	3100.7654	3101.0408	3121.7107	3135.7465
CCCCC1(C)OC1C	CCCC[C@@]1(C)O[C@H]1C	
InChI=1S/C8H16O/c1-4-5-6-8(3)7(2)9-8/h7H,4-6H2,1-3H3	InChI=1S/C8H16O/c1-4-5-6-8(3)7(2)9-8/h7H,4-6H2,1-3H3/t7-,8+/m0/s1
