17
gdb 63609	3.19766	1.10397	0.97903	5.1809	76.36	-0.2801	-0.0623	0.2178	1249.1893	0.133664	-418.02143	-418.011957	-418.011013	-418.055882	33.748	
C	-0.248538273	 1.5425443827	-0.1894677961	-0.445929
C	 0.1161450323	 0.0798680089	-0.0404414077	 0.296871
C	-0.8567672362	-0.7608439118	 0.7607080487	-0.446634
C	 0.9195769783	-0.5887282472	-1.1329274696	-0.288417
N	 1.5396126615	-0.1879585944	 0.1156635579	-0.103723
C	 2.1543491371	-0.9701393578	 1.0554063191	 0.309061
O	 1.9524203851	-0.9389506485	 2.2471398804	-0.324292
C	 3.2028191495	-1.8384273198	 0.4765152056	 0.229813
N	 4.0082483748	-2.5480433478	 0.048257979	-0.320192
H	 0.5208224818	 2.0843535325	-0.7443287356	 0.132965
H	-1.200821757	 1.6434660837	-0.7197674201	 0.128997
H	-0.3564008791	 2.0114653829	 0.7936407881	 0.139869
H	-1.8598299955	-0.6747730151	 0.3317372356	 0.128346
H	-0.5732664757	-1.8162860272	 0.7638715405	 0.130047
H	-0.8950293153	-0.4211881257	 1.7993976262	 0.152906
H	 0.7724442776	-1.6528438457	-1.3008741325	 0.1433
H	 1.2191223841	-0.0200685195	-2.0089480994	 0.137013
64.4955	109.6812	135.6051	188.4977	191.9684	237.0468	299.3693	343.1058	376.3601	392.2143	411.8318	539.9057	567.425	683.947	755.709	777.857	883.0219	912.9103	966.7863	1000.3768	1028.635	1082.4894	1116.3211	1140.3691	1148.8827	1286.2295	1291.291	1412.6046	1420.8726	1432.5617	1475.153	1483.9311	1494.6001	1503.5011	1516.0523	1773.7868	2346.0101	3041.3352	3047.1165	3108.6494	3109.9005	3118.2833	3125.8988	3129.1118	3200.2048
CC1(C)CN1C(=O)C#N	CC1(C)CN1C(=O)C#N	
InChI=1S/C6H8N2O/c1-6(2)4-8(6)5(9)3-7/h4H2,1-2H3	InChI=1S/C6H8N2O/c1-6(2)4-8(6)5(9)3-7/h4H2,1-2H3
