20
gdb 77157	3.22806	1.03048	0.84548	3.841	80.62	-0.2398	0.0392	0.279	1395.4715	0.170756	-403.164949	-403.155784	-403.15484	-403.199431	33.962	
C	-0.0574343057	 1.5626789194	-0.0440437057	-0.408786
C	 0.0111571387	 0.0424410203	-0.013032907	-0.170886
C	 0.7598862389	-0.6988159668	-1.1733134476	 0.039161
N	 1.6703018765	-1.2235032262	-0.1423836886	-0.338507
C	 1.0905262072	-0.5702895858	 0.9168936347	 0.428737
O	 1.3597088721	-0.5044609166	 2.087166304	-0.369739
C	 0.0027706783	-1.734258744	-1.9576848824	 0.01667
C	-0.6285254274	-1.3640533952	-3.2769327206	-0.268524
C	 0.571218655	-2.2751078687	-3.2485409314	-0.276514
H	 0.9228531766	 1.9994048712	-0.2619936742	 0.121786
H	-0.7641655788	 1.9146381111	-0.8022107507	 0.118993
H	-0.3823785462	 1.9444966556	 0.9283086083	 0.139053
H	-0.9752254171	-0.3918332002	 0.1771042682	 0.098833
H	 1.2603557532	-0.0012945239	-1.858884489	 0.073903
H	 2.4933283731	-1.8056048396	-0.2021860751	 0.245682
H	-0.5427085817	-2.4422177373	-1.3389825791	 0.087979
H	-1.5963655333	-1.7887089681	-3.5174116271	 0.117831
H	-0.4867264462	-0.3517152669	-3.6415457937	 0.114808
H	 1.5182410418	-1.8724824334	-3.5941656144	 0.112071
H	 0.4283279449	-3.3263926049	-3.4712411785	 0.117447
59.3718	77.0658	149.5119	197.7748	214.2703	243.2205	321.6553	355.0115	396.3277	473.5948	540.6826	700.3853	735.8521	777.2764	822.0917	831.3926	865.5528	894.4914	931.5838	968.8177	1021.9415	1061.0755	1069.5278	1077.272	1084.3583	1118.8006	1138.0302	1179.5328	1187.9876	1198.8671	1220.4144	1231.1153	1272.2856	1320.3884	1350.6165	1379.9073	1410.3937	1442.137	1470.4649	1495.9263	1496.5074	1507.5409	1890.2327	3008.2402	3035.4292	3066.9545	3104.532	3112.7431	3130.163	3135.2362	3141.8215	3209.753	3224.5614	3602.4134
CC1C(NC1=O)C1CC1	C[C@H]1[C@@H](NC1=O)C1CC1	
InChI=1S/C7H11NO/c1-4-6(5-2-3-5)8-7(4)9/h4-6H,2-3H2,1H3,(H,8,9)	InChI=1S/C7H11NO/c1-4-6(5-2-3-5)8-7(4)9/h4-6H,2-3H2,1H3,(H,8,9)/t4-,6+/m0/s1
