21
gdb 94171	2.31823	1.3778	1.17819	1.7858	78.24	-0.2305	-0.013	0.2175	1194.448	0.178986	-424.238879	-424.228481	-424.227537	-424.27551	37.202	
C	-0.4564995882	 1.2831917633	-0.1407266758	-0.420584
C	 0.1498569176	-0.1092938972	-0.0779294921	-0.061196
C	 1.5398534889	-0.3448265083	-0.7043865819	-0.08949
O	 2.0537282454	-0.918337506	 0.5169714167	-0.325301
C	 0.8311718142	-0.612182763	 1.2369946526	 0.314851
C	 1.0757736128	 0.3985715987	 2.3534894916	-0.437097
C	 0.1646872835	-1.8580720443	 1.827448567	 0.326699
C	 0.9873307944	-3.1251464517	 1.8900370031	-0.475096
O	-0.9784589442	-1.7885442245	 2.2211469094	-0.320341
H	 0.2516836211	 2.0560803597	 0.1728106812	 0.118991
H	-0.7662603279	 1.5157713326	-1.1653868812	 0.120033
H	-1.342749646	 1.3525086174	 0.4974687851	 0.135377
H	-0.5852614549	-0.839092684	-0.4270696972	 0.09217
H	 1.5926620223	-1.0493771904	-1.5422957731	 0.103683
H	 2.0787513965	 0.57241087	-0.9771933739	 0.099501
H	 1.5359000751	 1.3086287176	 1.9617428918	 0.121254
H	 0.1343788367	 0.6507005237	 2.8483734024	 0.141882
H	 1.7559567761	-0.026661046	 3.0989038965	 0.125197
H	 1.9359693749	-2.9399235913	 2.4050755844	 0.14661
H	 0.4210200252	-3.9060731582	 2.3985920772	 0.134206
H	 1.2554441062	-3.4449882082	 0.8782674762	 0.148651
16.7348	61.1352	125.2452	169.5242	211.6598	226.8236	229.996	272.8199	298.0551	356.4728	401.6392	489.6107	519.7725	594.6329	635.2142	741.2189	852.8136	891.6767	908.0501	920.3624	967.5081	1011.7164	1017.8473	1034.0589	1109.146	1133.3621	1144.3794	1158.6423	1189.7697	1207.4951	1258.0464	1292.5415	1341.6827	1378.7814	1387.8922	1396.2339	1412.4038	1449.8226	1464.1378	1479.8233	1485.6824	1500.4696	1504.6696	1527.8941	1801.8755	3009.1287	3035.5791	3043.1543	3045.8444	3053.6284	3073.4181	3100.622	3106.7004	3111.3994	3115.0894	3135.2961	3156.4354
CC1COC1(C)C(C)=O	C[C@H]1CO[C@]1(C)C(=O)C	
InChI=1S/C7H12O2/c1-5-4-9-7(5,3)6(2)8/h5H,4H2,1-3H3	InChI=1S/C7H12O2/c1-5-4-9-7(5,3)6(2)8/h5H,4H2,1-3H3/t5-,7-/m0/s1
