22
gdb 115529	2.32002	1.12709	1.00139	4.1675	86.64	-0.2944	0.0335	0.3278	1353.7927	0.193713	-367.232768	-367.222882	-367.221938	-367.267376	36.889	
C	 0.0026005689	 1.6945179918	-0.2469051876	-0.384502
C	-0.3022082897	 0.2072198285	-0.4604308972	-0.208563
C	 0.8446015041	-0.5265618735	-1.1418943199	 0.028176
C	 2.1800129777	-0.7708723239	-0.3867234537	-0.244822
C	 2.2814683118	-2.1590335325	-1.0676055444	-0.254541
C	 0.7500739031	-2.083988881	-1.3959987568	 0.129156
C	-0.10693859	-2.8566341555	-0.3824806165	-0.444559
C	 0.3770743621	-2.4560098404	-2.7561445498	 0.232857
N	 0.087851272	-2.7350137432	-3.8410511723	-0.351201
H	 0.8911889263	 1.8332734306	 0.3782219943	 0.120212
H	 0.1851747811	 2.2015977248	-1.2005462252	 0.120751
H	-0.8326076123	 2.2007990333	 0.2459517438	 0.117512
H	-0.5236542966	-0.2606098098	 0.5064011696	 0.096468
H	-1.2091352767	 0.103375033	-1.0700744145	 0.108345
H	 1.059733957	-0.0439131294	-2.1014709037	 0.091401
H	 2.993245893	-0.0667285179	-0.5701881215	 0.108575
H	 2.0298850648	-0.850055174	 0.6943794303	 0.105855
H	 2.8905717248	-2.1340014893	-1.9731608431	 0.124319
H	 2.5906463626	-3.0095632009	-0.4560052073	 0.109958
H	 0.1900182922	-2.6077548819	 0.6400266186	 0.123835
H	-1.1693605554	-2.6265901552	-0.498158064	 0.13631
H	 0.0251153191	-3.9335698336	-0.5207837091	 0.134457
80.5079	107.6111	157.9319	164.8787	201.1604	230.4304	263.7595	288.4924	338.3089	382.5718	444.087	534.3496	588.6378	591.6654	718.3614	768.7478	814.3213	894.108	915.8156	933.5965	944.4502	953.524	981.028	1017.0364	1070.371	1114.5775	1155.5677	1174.3515	1182.0647	1220.4819	1234.1733	1265.1144	1268.3525	1295.2747	1320.4842	1346.5708	1397.6555	1411.3972	1414.7149	1482.2097	1485.1032	1492.483	1498.3762	1500.1096	1502.386	1508.788	2344.4683	3022.2054	3033.3071	3041.9758	3045.2314	3057.5237	3063.008	3071.6583	3101.1093	3107.4923	3113.5622	3117.5664	3122.6071	3132.4121
CCC1CCC1(C)C#N	CC[C@H]1CC[C@]1(C)C#N	
InChI=1S/C8H13N/c1-3-7-4-5-8(7,2)6-9/h7H,3-5H2,1-2H3	InChI=1S/C8H13N/c1-3-7-4-5-8(7,2)6-9/h7H,3-5H2,1-2H3/t7-,8+/m0/s1
