18
gdb 116589	4.40998	0.86559	0.73387	1.5394	77.47	-0.2428	0.0047	0.2475	1525.852	0.148405	-435.333365	-435.324188	-435.323243	-435.368373	32.763	
C	-0.3685487247	 1.592668142	-0.1365276845	-0.373149
C	 0.5113256194	 0.3748661226	 0.1308986991	-0.136517
N	 1.2387527805	-0.0087785782	-1.0739353558	-0.326767
C	 2.0322192565	-0.990882851	-1.0029566298	 0.428427
C	 2.8577053094	-1.5142086322	-2.1746281514	-0.257457
N	 3.6694606465	-2.5422301348	-1.5487578339	-0.355127
C	 3.314052951	-2.7866550494	-0.2440432373	 0.460972
O	 3.7297823326	-3.6412584135	 0.4999000128	-0.396131
N	 2.3531519265	-1.8115904109	 0.0685907199	-0.409015
H	 0.2413637791	 2.4397272569	-0.4634718993	 0.123329
H	-1.0909725298	 1.375038045	-0.9284169297	 0.123329
H	-0.9167819685	 1.8854968064	 0.764399715	 0.106122
H	 1.213413269	 0.6023928696	 0.9506185166	 0.094032
H	-0.1159454408	-0.4605230304	 0.484018162	 0.095205
H	 2.1969063555	-1.9098506443	-2.9558430034	 0.140141
H	 3.4571517567	-0.7092966107	-2.611795539	 0.144549
H	 4.1837569729	-3.2399720729	-2.057343506	 0.264876
H	 1.9777872584	-1.7380699343	 0.9981418147	 0.273179
35.0701	106.8536	129.589	135.7857	182.4638	278.4223	334.2775	378.1569	420.0482	486.5011	539.3278	611.2822	669.7733	730.9149	765.8946	801.0347	887.8402	927.4551	983.5526	1019.8676	1069.5103	1085.1744	1119.1181	1137.1773	1193.4	1208.5967	1303.6891	1306.0027	1352.8129	1384.1997	1388.6248	1412.7786	1432.3847	1483.0964	1487.0301	1504.3248	1511.5295	1784.5125	1872.2041	2952.7499	2981.4552	3029.8145	3041.337	3073.0842	3114.1057	3118.9286	3683.0688	3687.5274
CCN=C1CNC(=O)N1	CCN=C1CNC(=O)N1	
InChI=1S/C5H9N3O/c1-2-6-4-3-7-5(9)8-4/h2-3H2,1H3,(H2,6,7,8,9)	InChI=1S/C5H9N3O/c1-2-6-4-3-7-5(9)8-4/h2-3H2,1H3,(H2,6,7,8,9)
