21
gdb 59715	3.05939	1.21422	0.97619	3.0254	77.58	-0.254	0.0705	0.3245	1262.7941	0.182602	-424.224327	-424.215464	-424.214519	-424.25781	34.184	
C	 0.0771850628	 1.5213990328	-0.0143255388	-0.411746
C	-0.0036986838	-0.0037231264	 0.0384500352	 0.130014
O	 0.7017542588	-0.5132511881	 1.1708112072	-0.437247
C	-1.4429978446	-0.5374488309	 0.0140027811	-0.016895
C	-2.2634208645	-0.1376068823	-1.2424280258	-0.242624
C	-3.285901682	-1.2786242888	-1.4648741126	-0.249813
C	-2.603623322	-2.494082995	-0.8697771359	 0.049236
O	-1.2328623148	-2.6319224501	-1.2734548543	-0.267158
C	-1.5176588889	-2.055881203	 0.0126989361	 0.046068
H	 1.1204788451	 1.8430429324	 0.0455140434	 0.124907
H	-0.3550662611	 1.918406709	-0.9375331782	 0.122968
H	-0.4677220238	 1.9685740025	 0.8277509612	 0.102473
H	 0.5239880492	-0.4272581603	-0.8245171152	 0.104136
H	 0.3450966366	-0.0804044798	 1.954674281	 0.273238
H	-1.9548947253	-0.1811630064	 0.922609489	 0.057292
H	-2.7448777777	 0.8366613193	-1.1338715922	 0.099074
H	-1.5930013991	-0.0779114473	-2.1042498907	 0.118355
H	-4.2191070505	-1.0932792119	-0.9182301284	 0.101403
H	-3.5453565334	-1.4090394059	-2.5201074966	 0.109017
H	-3.1421914362	-3.427651965	-0.7257925815	 0.090041
H	-1.1669350547	-2.6275249446	 0.866173696	 0.09726
83.9517	112.4025	165.7601	238.7633	262.4405	287.6714	338.1885	370.0888	398.2668	464.8934	529.7986	659.8432	675.1436	823.3353	828.8423	860.4956	873.5719	909.0676	931.6333	951.0482	986.5851	1004.8063	1036.2012	1068.7735	1082.2492	1095.5508	1128.2677	1163.8518	1184.9921	1217.9658	1249.4117	1265.4629	1302.6089	1315.2981	1323.3968	1331.0378	1356.1582	1389.7753	1402.6308	1422.6931	1435.6545	1481.7125	1491.2976	1493.6749	1496.9075	2977.8672	3020.0839	3033.4602	3048.4516	3063.8263	3082.8521	3094.9508	3112.1197	3120.4412	3142.9824	3169.2251	3794.7332
CC(O)C1CCC2OC12	C[C@@H](O)[C@H]1CC[C@H]2O[C@@H]12	
InChI=1S/C7H12O2/c1-4(8)5-2-3-6-7(5)9-6/h4-8H,2-3H2,1H3	InChI=1S/C7H12O2/c1-4(8)5-2-3-6-7(5)9-6/h4-8H,2-3H2,1H3/t4-,5-,6-,7+/m1/s1
