19
gdb 94006	2.75294	1.35077	1.11006	4.6851	71.44	-0.2354	-0.0118	0.2237	1150.6501	0.158049	-460.1686	-460.159481	-460.158537	-460.203242	33.414	
C	-0.2929903096	 1.5188323013	 0.0478461475	-0.438796
C	 0.2114991377	 0.0797167255	-0.0105283467	 0.01302
C	 1.3343608391	-0.1836746894	-1.0202042214	-0.096325
O	 1.8617721732	-1.4466352487	-0.6344375045	-0.24226
C	 1.8674697137	-1.5068091118	 0.7758412016	-0.008519
C	 3.2645541846	-1.2813418511	 1.3594583999	 0.172119
O	 4.2205578378	-0.9572038472	 0.7107612137	-0.243527
C	 0.8540208296	-0.4436548299	 1.299498717	 0.049981
O	 1.5956904156	 0.5483758921	 1.9996622556	-0.423009
H	 0.5183827633	 2.2089160272	 0.2960836766	 0.131844
H	-0.70667718	 1.8235775452	-0.9182981506	 0.126963
H	-1.0888036665	 1.6384629975	 0.7921611991	 0.11287
H	-0.6191614235	-0.5933134212	-0.2559006852	 0.08344
H	 0.9896159552	-0.2675249196	-2.0538908998	 0.109956
H	 2.1054591331	 0.5989203036	-0.9648890038	 0.112051
H	 1.5583655544	-2.5189668898	 1.0740116373	 0.099812
H	 3.330901829	-1.481442533	 2.4519181529	 0.075031
H	 0.1069108077	-0.8951993841	 1.9640620668	 0.073379
H	 0.9792994954	 1.1781938236	 2.3853669538	 0.291971
25.9569	114.2688	164.9408	224.5766	253.9731	283.4429	293.8029	324.6943	328.5119	436.0006	540.9602	619.3717	694.3808	752.5073	807.8081	830.8554	910.2188	950.5685	981.4664	987.4501	1015.6869	1034.1973	1104.8891	1147.0506	1153.3013	1180.5133	1214.1106	1238.469	1281.7381	1307.1363	1328.6056	1345.128	1357.2758	1395.3448	1402.381	1418.3181	1423.9667	1501.1396	1511.2125	1516.6977	1847.5471	2882.5095	3001.4023	3005.0283	3021.9875	3032.9593	3039.3993	3096.5619	3098.814	3117.3086	3828.9217
CC1COC(C=O)C1O	C[C@H]1CO[C@@H](C=O)[C@H]1O	
InChI=1S/C6H10O3/c1-4-3-9-5(2-7)6(4)8/h2,4-6,8H,3H2,1H3	InChI=1S/C6H10O3/c1-4-3-9-5(2-7)6(4)8/h2,4-6,8H,3H2,1H3/t4-,5-,6-/m0/s1
