19
gdb 51774	2.49587	1.10818	0.84361	3.4938	76.77	-0.2468	-0.0301	0.2167	1360.7737	0.157017	-423.031276	-423.021906	-423.020962	-423.06697	32.815	
O	-0.7464294136	 1.1238386069	 0.6145510695	-0.24302
C	 0.1957695504	 1.0816189014	-0.1351502438	 0.159786
C	 1.4010716496	 1.9881014621	-0.0669292516	-0.287456
C	 1.4456270178	 2.8980156487	-1.3066776835	-0.026882
C	 0.4004634632	 4.0555445289	-1.2656075763	-0.223883
C	 1.5181318873	 5.0428833104	-0.8321942898	-0.246004
C	 2.563053795	 3.988082347	-1.3098460441	-0.08545
C	 3.8386755228	 3.8361300819	-0.5310064551	 0.140295
O	 4.3220995487	 2.7921800155	-0.1682031044	-0.248248
H	 0.2217562239	 0.3480701456	-0.9761766276	 0.071818
H	 1.3458624559	 2.5718531286	 0.8571193717	 0.113999
H	 2.3100698839	 1.3777844526	-0.0368771304	 0.14493
H	 1.4207414389	 2.2790973996	-2.2085246853	 0.080335
H	 0.008858162	 4.2919166573	-2.258159709	 0.108285
H	-0.4387587426	 3.9248494256	-0.579178477	 0.124242
H	 1.542263603	 6.0224578543	-1.312782414	 0.109712
H	 1.5471248111	 5.1874517512	 0.251606446	 0.11712
H	 2.8612608661	 4.2174775665	-2.3422857183	 0.110756
H	 4.3433758767	 4.8055651059	-0.3043785071	 0.079666
42.0437	80.4224	86.5939	123.5871	152.6559	230.3095	310.3457	360.6174	380.6389	509.6207	621.3936	681.6804	771.0568	789.3184	877.3233	897.0505	917.6126	933.0281	958.1595	990.0761	1040.3097	1047.5162	1099.2219	1133.3349	1152.0752	1202.7398	1220.705	1237.8327	1258.777	1266.2467	1278.271	1298.0626	1334.7085	1375.6869	1421.5311	1428.4637	1470.3004	1487.2475	1503.5511	1817.8767	1830.4604	2848.0355	2849.9032	3018.1448	3049.7298	3056.8821	3063.277	3069.4145	3107.4228	3113.2133	3128.1464
O=CCC1CCC1C=O	O=CC[C@H]1CC[C@H]1C=O	
InChI=1S/C7H10O2/c8-4-3-6-1-2-7(6)5-9/h4-7H,1-3H2	InChI=1S/C7H10O2/c8-4-3-6-1-2-7(6)5-9/h4-7H,1-3H2/t6-,7+/m1/s1
