15
gdb 20258	3.75558	3.06938	2.50187	1.7812	61.9	-0.2238	0.0625	0.2863	621.4116	0.122161	-362.594273	-362.589371	-362.588426	-362.622936	21.2	
C	 0.0180285342	 1.4960036156	-0.0141247175	-0.157776
C	 1.4749819586	 1.9398795909	 0.0016582756	 0.069527
O	 2.0255469411	 1.6822911047	-1.3256450022	-0.307456
C	 2.3779009475	 0.3610303297	-0.8817129262	 0.105759
C	 1.178363232	-0.6132495782	-0.7211384664	-0.070181
C	 1.1939344453	-0.4261981085	 0.7748157933	-0.077261
C	 2.2372059697	 0.7116698401	 0.6110816792	-0.116011
N	 0.054307488	 0.01855989	-0.0080200441	-0.114245
H	-0.5273369124	 1.8185886588	 0.8801368163	 0.104146
H	-0.4973312909	 1.8663383039	-0.9036636635	 0.122205
H	 1.679312928	 2.957359695	 0.341280745	 0.081848
H	 3.276333373	-0.0464061833	-1.3486287949	 0.084352
H	 0.9544605204	-1.4825765212	-1.3291531276	 0.095048
H	 1.0745324698	-1.1276759248	 1.591066535	 0.097115
H	 3.0770285657	 0.8516128771	 1.284458188	 0.082931
334.4771	418.3562	535.3017	667.0462	700.3785	733.5543	763.9285	812.9325	846.0281	856.982	895.8302	901.7393	920.7985	942.354	968.7866	994.2274	1011.9276	1038.2437	1053.0121	1070.7218	1133.197	1187.9061	1201.2433	1209.8863	1231.4768	1244.2312	1276.3607	1297.6679	1314.653	1336.719	1364.8278	1478.8359	3042.8791	3091.712	3099.3799	3111.8883	3167.2493	3172.1736	3193.629
C1C2OC3C4C(C23)N14	C1[C@@H]2O[C@@H]3[C@H]4[C@@H]([C@H]23)N14	
InChI=1S/C6H7NO/c1-2-3-4-5(7(1)4)6(3)8-2/h2-6H,1H2	InChI=1S/C6H7NO/c1-2-3-4-5(7(1)4)6(3)8-2/h2-6H,1H2/t2-,3-,4+,5+,6-,7?/m0/s1
