16
gdb 37328	2.42581	2.38261	1.52771	4.3921	66.81	-0.2514	0.0553	0.3067	867.7196	0.126479	-437.811155	-437.80485	-437.803906	-437.841655	25.949	
N	-0.0128985921	 1.49536677	-0.0047224075	-0.304935
C	 1.2738575421	 0.7942825096	-0.0207903865	-0.077021
C	-0.0195279239	 0.0301201139	-0.0276918894	-0.077021
C	-0.4710458603	-0.660486111	-1.2826127998	 0.051588
O	-0.8377744287	 0.1290920738	-2.4048258648	-0.217281
C	 0.3720655217	-0.6123853391	-2.5030333033	 0.010617
C	 1.6672587829	 0.152846189	-2.4961221018	 0.01062
O	 1.6007519802	 1.5698297404	-2.3918136391	-0.217282
C	 2.1065136425	 0.8623944407	-1.2688596731	 0.051587
H	-0.2160070227	 1.8306759492	 0.9327218762	 0.238145
H	 1.8558770212	 0.7629814122	 0.897342123	 0.083848
H	-0.2801815587	-0.4990521525	 0.8859438847	 0.083848
H	-1.0941296869	-1.5409305649	-1.1243378401	 0.090807
H	 0.3393448215	-1.4522177319	-3.1970203339	 0.090836
H	 2.4241264789	-0.2204786611	-3.1858954136	 0.090836
H	 3.1770426221	 0.9825700416	-1.101550231	 0.090807
187.8173	191.0207	321.7384	455.5019	464.5801	503.7181	625.1625	638.8591	760.5045	771.3673	793.9242	839.0102	861.9874	879.5909	888.5272	924.548	956.1015	1015.9224	1037.0237	1064.9103	1066.1844	1089.997	1129.2559	1132.5349	1172.0531	1190.4539	1236.0593	1271.4428	1299.2228	1358.622	1394.7432	1418.4837	1434.3851	1465.5525	1469.9402	3096.3426	3101.7391	3106.0443	3120.0051	3130.7277	3139.6693	3512.6486
N1C2C1C1OC1C1OC21	N1[C@H]2[C@@H]1[C@H]1O[C@H]1[C@H]1O[C@@H]21	
InChI=1S/C6H7NO2/c7-1-2(7)4-6(9-4)5-3(1)8-5/h1-7H	InChI=1S/C6H7NO2/c7-1-2(7)4-6(9-4)5-3(1)8-5/h1-7H/t1-,2+,3-,4+,5-,6+
