15
gdb 10808	5.25743	1.52995	1.21821	4.6334	65.1	-0.2198	0.0038	0.2236	956.1229	0.119915	-399.85579	-399.848363	-399.847419	-399.887684	27.063	
C	-0.0539208854	 1.5383047667	 0.0471122307	-0.484816
C	-0.0068188719	 0.0435469396	-0.0275078101	 0.229367
C	 0.0220502057	-0.661008675	-1.1575761992	-0.070704
N	 0.0635792302	-2.0585575358	-1.1221457951	-0.383601
C	-0.3146200461	-2.7949596364	-0.0144001051	 0.47246
O	-0.510803922	-3.9817045255	-0.0455714684	-0.381493
O	-0.4935101777	-2.0797679738	 1.1188589944	-0.242871
C	 0.0473648859	-0.7500436947	 1.2490131424	-0.158133
H	 0.7985155016	 1.9416356509	 0.6099233444	 0.12836
H	-0.0345772987	 1.9857833687	-0.9503787805	 0.127666
H	-0.9605063074	 1.8888141872	 0.5573088855	 0.130812
H	 0.0119478186	-0.2180015177	-2.1465416563	 0.116773
H	 0.0680682556	-2.5867105494	-1.978929991	 0.266781
H	 1.0799768688	-0.8323611302	 1.6241382662	 0.120638
H	-0.5478260873	-0.2807209945	 2.038396952	 0.128761
78.0334	138.2171	190.7739	283.4404	294.9436	428.8171	469.6599	479.033	541.3726	604.6757	765.1974	769.0849	834.5016	867.2192	935.3893	983.6665	1022.342	1082.1715	1089.1553	1154.937	1228.2071	1243.5334	1266.3345	1383.2981	1419.2687	1436.1781	1462.3205	1475.6963	1496.1713	1504.8723	1764.8818	1854.5103	2977.0491	3011.0335	3053.9503	3074.2609	3109.4004	3200.5843	3662.6041
CC1=CNC(=O)OC1	CC1=CNC(=O)OC1	
InChI=1S/C5H7NO2/c1-4-2-6-5(7)8-3-4/h2H,3H2,1H3,(H,6,7)	InChI=1S/C5H7NO2/c1-4-2-6-5(7)8-3-4/h2H,3H2,1H3,(H,6,7)
