23
gdb 94723	2.54429	1.43359	1.211	1.571	83.96	-0.2502	0.0687	0.3189	1161.9708	0.207015	-388.300621	-388.291817	-388.290873	-388.333537	35.363	
C	-0.3451912326	 1.5048929676	 0.156258974	-0.479625
C	 0.0568357105	 0.0475905102	-0.0152411989	 0.372829
C	-1.100161848	-0.9831044644	 0.1892652329	-0.267607
C	-0.3188751464	-1.6528978682	 1.3520844199	-0.235302
C	 0.8464564588	-0.6403549115	 1.1612152971	-0.066937
C	 2.1373058213	-1.2059656757	 0.5380274468	 0.136757
O	 2.702312231	-2.3206381688	 1.2012420567	-0.439324
C	 1.7771516018	-1.4302669328	-0.9442243616	-0.256404
C	 0.9036428518	-0.2119354186	-1.2827370733	-0.268204
H	 0.5338345346	 2.1585189394	 0.1997039452	 0.111075
H	-0.9685020983	 1.8424808167	-0.6809678361	 0.112442
H	-0.9195504827	 1.6564189781	 1.0769203273	 0.109661
H	-2.0476933948	-0.5271272872	 0.4884024345	 0.096175
H	-1.2943588051	-1.6288109638	-0.6725797228	 0.093439
H	-0.8085410655	-1.5905213511	 2.3260985143	 0.104179
H	-0.0634787468	-2.705338894	 1.185192218	 0.077803
H	 1.0529095376	-0.0243893057	 2.0391489849	 0.061212
H	 2.9130066756	-0.4322824892	 0.5950980621	 0.085646
H	 2.0458790748	-3.0254046063	 1.2035153566	 0.275838
H	 2.6609086654	-1.530231925	-1.5794400955	 0.100693
H	 1.2016734904	-2.3611120574	-1.0431795551	 0.088766
H	 0.2820931754	-0.3569970155	-2.1728386959	 0.093073
H	 1.5452084809	 0.6566155929	-1.478819601	 0.093818
84.3596	186.278	223.1915	244.1575	249.3144	283.4772	336.6701	363.3388	415.2536	508.5755	559.2884	571.3246	620.2069	743.1103	802.0534	814.1489	863.3595	892.1436	925.3085	950.6725	965.0638	973.694	997.5747	1009.2154	1057.057	1092.9905	1106.4172	1128.854	1157.2582	1197.2383	1225.4853	1230.3404	1234.6094	1255.2634	1272.0321	1279.7122	1288.2271	1320.7805	1335.6468	1351.1556	1362.3322	1412.615	1429.7926	1476.2602	1486.1609	1489.1482	1495.3596	1497.2463	1505.6962	3015.7452	3017.1989	3024.204	3034.6507	3035.9397	3048.8659	3071.5385	3077.7131	3081.0221	3087.8764	3091.3421	3097.8474	3109.1656	3806.3882
CC12CCC1C(O)CC2	C[C@]12CC[C@H]1[C@@H](O)CC2	
InChI=1S/C8H14O/c1-8-4-2-6(8)7(9)3-5-8/h6-7,9H,2-5H2,1H3	InChI=1S/C8H14O/c1-8-4-2-6(8)7(9)3-5-8/h6-7,9H,2-5H2,1H3/t6-,7-,8+/m0/s1
