22
gdb 86138	1.98145	1.70147	1.09398	3.5917	83.03	-0.2327	0.0376	0.2703	1212.1216	0.194519	-404.411709	-404.401854	-404.40091	-404.446768	36.136	
C	 0.4913432458	 1.5460404721	-0.1745939675	-0.397568
C	 0.0346799179	 0.0964998132	 0.0315917675	 0.038654
C	 0.3918425646	-0.8396664315	-1.1583433095	-0.261691
C	 1.5191443529	-1.7665637259	-0.65704648	-0.095251
C	 2.9112976045	-1.4800045631	-1.2365376307	-0.397522
C	 1.525463424	-1.5747678082	 0.8613068088	 0.402887
O	 2.1819058345	-2.2143454118	 1.6607497394	-0.408173
N	 0.6809230845	-0.5435183135	 1.1700631336	-0.066165
C	 0.4609773972	-0.1194053137	 2.5333961607	-0.350304
H	 1.5697905483	 1.593265601	-0.3581264382	 0.124559
H	-0.0234795318	 1.9815776277	-1.0369785749	 0.120394
H	 0.2657511599	 2.1694203355	 0.6961184202	 0.119731
H	-1.0518059552	 0.1028153182	 0.1983864865	 0.077253
H	-0.4861855545	-1.4217957988	-1.4486226732	 0.109267
H	 0.6951767864	-0.2574692211	-2.0326232318	 0.105124
H	 1.2804959158	-2.8174537168	-0.8479587736	 0.100129
H	 3.1971361985	-0.4326862035	-1.0886604246	 0.1164
H	 3.6583329137	-2.1064419273	-0.7421119843	 0.141601
H	 2.9352861144	-1.6869428147	-2.3108764961	 0.113064
H	 1.0014398712	-0.8120814724	 3.1809697457	 0.165087
H	 0.8327037004	 0.8965227203	 2.7129288025	 0.123597
H	-0.607446573	-0.1432993657	 2.7821724494	 0.118927
41.9744	87.7069	143.9625	175.1684	236.1283	242.743	266.4856	306.3682	346.1606	350.361	431.1817	503.2387	614.2642	655.5606	703.7956	744.9838	849.8552	876.3596	916.9248	965.3012	1021.3274	1032.9299	1062.9987	1104.3577	1124.5074	1136.0524	1162.0584	1169.1047	1248.846	1251.7091	1287.5907	1310.9268	1341.0174	1348.5392	1384.1195	1401.6551	1406.9504	1429.1954	1452.4706	1487.8593	1492.2795	1494.3931	1499.5607	1504.1176	1504.5311	1524.6761	1795.0635	2992.6821	3015.3832	3033.277	3034.873	3054.3568	3064.0779	3065.5713	3100.4824	3103.4853	3108.315	3110.6414	3122.6673	3140.8428
CC1CC(C)C(=O)N1C	C[C@H]1C[C@@H](C)C(=O)N1C	
InChI=1S/C7H13NO/c1-5-4-6(2)8(3)7(5)9/h5-6H,4H2,1-3H3	InChI=1S/C7H13NO/c1-5-4-6(2)8(3)7(5)9/h5-6H,4H2,1-3H3/t5-,6+/m1/s1
