17
gdb 96614	2.54335	0.97074	0.70928	1.5786	84.9	-0.2382	-0.0673	0.1709	1583.1878	0.132913	-418.005207	-417.994568	-417.993624	-418.042723	36.049	
C	 0.031261208	 1.4539255457	 0.0040800537	-0.342921
N	 0.055167833	 0.0042073821	-0.0099577826	-0.286201
C	-1.0702993764	-0.5968543948	-0.0989994835	 0.302426
N	-2.3229220651	-0.0593805788	-0.2126953784	-0.561564
C	-1.0851681755	-2.1098588603	-0.1137482004	 0.144134
O	-2.1475633682	-2.7082775665	-0.1262466613	-0.326741
C	 0.1860269792	-2.7803437857	-0.1042699535	 0.07905
C	 1.2121159297	-3.4151039846	-0.1055910259	 0.128082
C	 2.4600599175	-4.1556638889	-0.1029382318	-0.507143
H	 1.0531546771	 1.8388735738	 0.0340421528	 0.127409
H	-0.4656023969	 1.8682820552	-0.8874594943	 0.118829
H	-0.4983671855	 1.8515790713	 0.8859556874	 0.110652
H	-2.4835407005	 0.8896477938	 0.0772860324	 0.257728
H	-3.0816230652	-0.7168249317	-0.1049951871	 0.270518
H	 2.302572043	-5.2111693147	-0.3474488465	 0.158798
H	 3.164633322	-3.7351858657	-0.8285205715	 0.163153
H	 2.9332264438	-4.1041545802	 0.8840641605	 0.16379
20.0731	64.8343	74.5337	140.4643	147.985	209.5917	215.325	302.6841	337.2908	358.72	401.8808	421.958	457.8798	551.8558	598.0159	644.4235	732.7242	822.1336	952.0429	1012.9483	1042.9455	1054.0712	1096.6018	1105.4509	1202.282	1229.5764	1379.0089	1408.2016	1431.6285	1468.2586	1472.9684	1489.5874	1502.2028	1597.4051	1724.5364	1732.3434	2344.3423	2960.6598	3007.9521	3031.3036	3094.2608	3099.7008	3105.1254	3579.8119	3714.46
CN=C(N)C(=O)C#CC	CN=C(N)C(=O)C#CC	
InChI=1S/C6H8N2O/c1-3-4-5(9)6(7)8-2/h1-2H3,(H2,7,8)	InChI=1S/C6H8N2O/c1-3-4-5(9)6(7)8-2/h1-2H3,(H2,7,8)
