16
gdb 29302	4.1089	1.12785	0.95011	1.7222	72.93	-0.1919	0.0339	0.2258	1208.5685	0.126084	-434.074571	-434.066739	-434.065794	-434.107972	29.619	
O	 0.2069810523	 1.3561689395	-0.1172398919	-0.439557
C	 0.106577442	 0.0075676259	-0.1026789283	 0.339784
C	-0.2450433695	-0.8037683852	-1.1491849844	-0.212777
N	-0.1948797207	-2.0842622679	-0.6082596803	-0.291922
C	 0.171121186	-1.9747047668	 0.6875543405	 0.420515
N	 0.3636826129	-0.7118837223	 1.030934385	-0.398168
N	 0.298486525	-3.1296241216	 1.4732678222	-0.206421
C	 1.3553848583	-3.1007841353	 2.5032186563	-0.217263
C	-0.0676888981	-2.9902811206	 2.8963345908	-0.217255
H	 0.4727908129	 1.6142287003	 0.7732397329	 0.298198
H	-0.5119337034	-0.6074166597	-2.1714411339	 0.129532
H	-0.3905645764	-2.9544914536	-1.0731855594	 0.268011
H	 1.8900012829	-4.037640164	 2.6276062755	 0.120762
H	 1.9544751439	-2.1971342001	 2.5556517327	 0.142892
H	-0.4192000453	-2.0128188161	 3.2113706324	 0.142907
H	-0.5918816926	-3.8449247523	 3.3132187396	 0.120761
24.4823	157.8544	173.2142	312.9917	357.5853	387.3678	418.3193	477.8201	553.3649	606.5421	636.2971	704.0764	726.0453	754.3563	825.2257	837.9874	916.0524	1023.4482	1038.3966	1044.2277	1096.6689	1114.4336	1138.0173	1162.7062	1188.4573	1194.2727	1254.8699	1298.6786	1344.0673	1419.5826	1478.4875	1495.813	1505.686	1560.9541	1660.4828	3118.2642	3121.007	3209.1399	3223.5991	3299.6826	3674.0612	3810.0935
OC1=CNC(=N1)N1CC1	Oc1c[nH]c(n1)N1CC1	
InChI=1S/C5H7N3O/c9-4-3-6-5(7-4)8-1-2-8/h3,9H,1-2H2,(H,6,7)	InChI=1S/C5H7N3O/c9-4-3-6-5(7-4)8-1-2-8/h3,9H,1-2H2,(H,6,7)
