20
gdb 80552	2.84993	1.33161	1.19014	1.777	80.54	-0.2113	0.0097	0.221	1137.0559	0.17173	-403.122022	-403.113568	-403.112624	-403.154822	33.147	
C	-0.3261023735	 1.4889745569	 0.0864284518	-0.4208
C	-0.0225794557	 0.0121823536	-0.0088944167	 0.011932
C	 0.6221923004	-0.6041162196	-1.2131977543	-0.079853
C	 1.1285795458	 0.2048827735	-2.3483961807	-0.073067
C	 2.3675566821	 0.6938832306	-2.3281554182	-0.10223
C	 3.2854684452	 0.4726461387	-1.1474602632	 0.072171
O	 4.1952475815	 1.5532154754	-0.961728446	-0.429042
C	 2.4843924043	 0.3743769923	 0.1567879144	-0.165936
N	 1.3401187133	-0.5451852366	 0.0649930159	-0.132624
H	 0.2700650174	 2.0868668275	-0.6060966821	 0.131957
H	-1.382419242	 1.658291501	-0.1477990141	 0.119159
H	-0.1517642754	 1.8620819726	 1.1022345	 0.124959
H	-0.7405255661	-0.6100033755	 0.5254646266	 0.086041
H	 0.3018415121	-1.6105770258	-1.4889850944	 0.092331
H	 0.4777647599	 0.3437364204	-3.2083675353	 0.093574
H	 2.7678458889	 1.2594534448	-3.166513246	 0.086114
H	 3.8451233207	-0.4658809976	-1.2984465958	 0.083209
H	 4.8249315471	 1.5436416585	-1.6891988088	 0.283296
H	 3.1416024932	 0.0188922287	 0.9572998221	 0.106954
H	 2.1860355009	 1.3956913706	 0.4191211048	 0.111853
76.6554	167.4062	215.8341	239.2556	282.5507	323.7857	348.6287	437.2835	464.156	497.8845	521.1244	614.6785	722.208	733.6285	783.71	818.0369	869.6482	931.3303	977.5585	986.8706	1038.6328	1048.0893	1061.8476	1087.5151	1103.8769	1111.7709	1149.3625	1180.8329	1189.4817	1217.1827	1273.8067	1326.5243	1340.4916	1343.9786	1380.5779	1404.4043	1416.2067	1424.1417	1429.095	1495.7048	1497.4945	1521.6159	1706.7592	2952.3453	3032.9341	3036.1122	3070.724	3077.1172	3091.4609	3099.1628	3128.8615	3143.6499	3166.5802	3820.154
CC1C2C=CC(O)CN12	C[C@H]1[C@H]2C=C[C@@H](O)CN12	
InChI=1S/C7H11NO/c1-5-7-3-2-6(9)4-8(5)7/h2-3,5-7,9H,4H2,1H3	InChI=1S/C7H11NO/c1-5-7-3-2-6(9)4-8(5)7/h2-3,5-7,9H,4H2,1H3/t5-,6+,7+,8?/m0/s1
