14
gdb 25203	2.50343	1.81234	1.12391	5.1246	76.67	-0.2381	-0.0829	0.1552	1022.1082	0.101736	-436.704017	-436.696568	-436.695624	-436.736845	27.43	
N	-0.0136071396	 1.3579486522	-0.1611598309	-0.433052
C	-0.0359179959	 0.1178753486	 0.0381233678	 0.264654
O	 1.1642472022	-0.59903095	 0.0665205634	-0.225893
C	 1.5144475832	-1.5483309387	 0.955842856	 0.062119
C	 0.7475467248	-2.258248694	 1.8013653248	-0.161093
C	-0.6882760461	-2.2915309316	 1.8825277382	-0.066936
C	-1.6013410892	-1.6370275073	 1.1314837474	-0.192077
C	-1.3740304825	-0.6209597128	 0.1058202724	 0.31977
O	-2.2531532446	-0.2720136062	-0.6548216109	-0.300303
H	 0.9476558253	 1.7030702381	-0.2004572246	 0.236691
H	 2.587062425	-1.7044550196	 0.9116647358	 0.140697
H	 1.2905316052	-2.9403347323	 2.4459607968	 0.113984
H	-1.0801642118	-2.9966411006	 2.6114989801	 0.11836
H	-2.6548923661	-1.8583853557	 1.2695254636	 0.123077
50.1942	76.7775	277.9498	323.5355	338.3533	397.7622	438.5634	516.0535	590.9876	650.9696	738.6273	770.5868	806.4902	867.5023	885.0104	934.4942	940.9487	952.6192	954.4174	1024.3827	1142.3628	1167.8742	1237.2036	1308.8293	1350.7555	1418.4246	1466.3776	1625.2708	1686.8653	1747.2911	1756.3223	3157.8413	3186.0692	3190.9886	3206.0504	3472.0306
N=C1OC=CC=CC1=O	[NH][C]1OC=CC=CC1=O	
InChI=1S/C6H5NO2/c7-6-5(8)3-1-2-4-9-6/h1-4,7H	InChI=1S/C6H5NO2/c7-6-5(8)3-1-2-4-9-6/h1-4,7H
