19
gdb 57869	2.60659	1.11702	0.88505	0.7973	74.72	-0.2538	-0.0346	0.2192	1348.5892	0.157929	-456.393283	-456.382831	-456.381887	-456.429205	36.41	
C	 0.1070896614	 1.5355272738	 0.3715643432	-0.373448
C	 0.0791473285	 0.0382282729	 0.017420109	-0.100132
N	 0.993170502	-0.6825189102	 0.8956120654	-0.496928
C	-1.3698083959	-0.4854648878	 0.149043699	 0.408706
O	-1.7312892202	-1.0376162522	 1.1667986282	-0.346791
N	-2.2913834654	-0.3003423979	-0.8907517322	-0.143029
C	-3.6536672895	-0.7976299255	-0.6640296841	-0.346236
C	-2.0043192856	 0.3157580267	-2.1020334413	 0.170155
O	-2.8049146381	 0.4703234738	-2.9920572089	-0.307757
H	 1.1352942861	 1.8981876211	 0.3128784879	 0.140001
H	-0.5214946828	 2.1323386642	-0.2955768319	 0.120156
H	-0.252111642	 1.6838099353	 1.3951601993	 0.133923
H	 0.4406134963	-0.0954624443	-1.0063903322	 0.096848
H	 0.5534063709	-0.7584107274	 1.8106858052	 0.240993
H	 1.088955404	-1.6413956888	 0.5717188751	 0.230537
H	-4.0849603456	-0.3124311012	 0.2134623388	 0.149374
H	-4.2371064041	-0.5708963759	-1.5535917007	 0.165985
H	-3.6318839361	-1.8739712461	-0.4831638526	 0.148609
H	-0.9635724138	 0.6592351292	-2.1811132671	 0.109033
61.8399	75.7198	101.5346	155.0365	187.6583	214.6833	229.2275	279.9921	323.8879	336.0323	365.622	373.4907	468.5187	520.9392	718.3333	752.3724	815.1456	901.3866	921.4517	955.2647	1020.4165	1027.8452	1075.7187	1099.8241	1158.2407	1165.1068	1264.7549	1290.7666	1325.0258	1352.804	1400.9734	1414.5142	1443.6422	1464.8631	1485.7367	1492.5416	1497.3428	1505.6395	1675.264	1761.7423	1815.9346	3036.8096	3044.0523	3066.304	3070.9938	3113.7612	3135.7501	3136.9462	3188.1833	3481.0758	3551.9207
CC(N)C(=O)N(C)C=O	C[C@@H](N)C(=O)N(C)C=O	
InChI=1S/C5H10N2O2/c1-4(6)5(9)7(2)3-8/h3-4H,6H2,1-2H3	InChI=1S/C5H10N2O2/c1-4(6)5(9)7(2)3-8/h3-4H,6H2,1-2H3/t4-/m1/s1
