23
gdb 115009	2.26269	1.45546	0.98914	0.1985	91.71	-0.2179	0.0295	0.2474	1292.7529	0.206515	-351.161403	-351.152421	-351.151477	-351.195024	35.326	
C	-0.2361235416	 1.6624601903	 0.2330155053	-0.387972
C	-0.1864149761	 0.1398023946	 0.4003865901	-0.196069
C	-1.4205403535	-0.5722834357	-0.1585560183	-0.047434
C	-1.6142803697	-0.4172796128	-1.6959005282	-0.277415
C	-2.2136784737	-1.7378422472	-2.1170941932	-0.098154
C	-2.1322967268	-2.6482918526	-1.1475995311	-0.125797
C	-1.4952715658	-2.0989215996	 0.0781343281	 0.338823
C	-0.4218441106	-2.9042917573	 0.7906475283	-0.313688
C	-1.7620503469	-2.6885544216	 1.441601713	-0.313093
H	 0.6512847795	 2.1365232965	 0.6637649759	 0.109955
H	-0.2855316781	 1.9493535685	-0.8223782791	 0.119616
H	-1.1153753786	 2.0856935074	 0.731860888	 0.113151
H	 0.7126054852	-0.255774023	-0.0899125965	 0.097494
H	-0.0815949858	-0.094323636	 1.4681918955	 0.092625
H	-2.3065099523	-0.137459063	 0.3252124856	 0.073692
H	-2.2466071889	 0.4409381619	-1.9494086955	 0.101316
H	-0.6531587737	-0.2495781886	-2.2061832955	 0.100445
H	-2.6161622795	-1.9114466524	-3.1087085106	 0.088846
H	-2.4566834985	-3.6816032568	-1.2169219235	 0.088858
H	-0.1900128924	-3.8898327452	 0.4002478352	 0.107001
H	 0.4341026501	-2.3775729834	 1.1971359125	 0.112844
H	-1.8104727154	-2.0021889405	 2.282244793	 0.107446
H	-2.446317277	-3.5277928136	 1.5158420909	 0.10751
69.4581	114.2938	181.0282	219.6897	253.384	271.0357	301.237	416.1619	446.6241	485.5332	541.5169	691.0423	745.4979	775.883	785.5232	795.8926	875.6046	895.0133	937.5701	942.417	955.9857	966.3363	969.2745	975.4224	1013.2918	1057.8047	1066.8101	1077.1053	1111.4256	1133.1414	1139.5388	1191.0769	1198.8879	1269.3589	1286.8839	1306.438	1310.3631	1323.6935	1346.444	1388.262	1398.567	1411.0293	1465.5386	1483.1701	1491.8713	1500.0888	1500.8156	1507.9687	1681.7045	2986.1283	2998.3174	3011.8997	3031.3295	3046.6111	3055.4682	3097.8088	3104.2116	3116.5041	3132.1132	3176.0662	3197.4139	3203.8137	3219.3699
CCC1CC=CC11CC1	CC[C@H]1CC=CC21CC2	
InChI=1S/C9H14/c1-2-8-4-3-5-9(8)6-7-9/h3,5,8H,2,4,6-7H2,1H3	InChI=1S/C9H14/c1-2-8-4-3-5-9(8)6-7-9/h3,5,8H,2,4,6-7H2,1H3/t8-/m0/s1
