20
gdb 84915	2.52231	1.67594	1.195	2.0955	79.68	-0.2396	0.0234	0.2631	1092.2601	0.172674	-403.141001	-403.132861	-403.131917	-403.173635	31.795	
C	 0.2469354976	 1.5721250611	-0.0523279299	-0.374084
C	-0.0325868816	 0.0632227293	 0.0336107973	 0.014898
N	 0.2499101552	-0.4987815847	-1.2842674253	-0.264656
C	 0.5436722483	-1.6799920311	-1.6013562794	 0.115622
O	 0.7012521789	-2.8366696018	-0.9056232105	-0.222109
C	 0.1995080506	-2.9679466212	 0.4298945169	-0.10541
C	 0.7916952713	-2.0177755953	 1.4433942392	-0.055051
C	 2.0351028762	-1.2158291385	 1.1419293573	-0.307895
C	 0.6904519416	-0.5326839055	 1.2370452924	 0.002091
H	 1.3144788763	 1.7507195162	-0.215641028	 0.119334
H	-0.3024812873	 2.0080711214	-0.8898279562	 0.119875
H	-0.0514506946	 2.0805711131	 0.8702773138	 0.101244
H	-1.1139128511	-0.0559873527	 0.2059732517	 0.088739
H	 0.7561803331	-1.9025761712	-2.6484718125	 0.119177
H	-0.8952620103	-2.875413452	 0.4055402184	 0.111484
H	 0.4382065224	-4.0011906559	 0.6974422475	 0.119889
H	 0.6716019554	-2.3773330404	 2.4622967989	 0.088462
H	 2.7486609911	-1.0576881925	 1.9426281436	 0.11082
H	 2.4833406696	-1.332480106	 0.1624533057	 0.134646
H	 0.5286351571	 0.0535821175	 2.1385060891	 0.082924
69.8969	170.7951	231.0738	244.0537	282.7844	303.509	368.4879	446.7177	476.4991	605.8388	632.8813	731.326	760.2807	812.436	853.9833	865.6126	911.3706	949.7614	967.0062	993.1368	1031.6582	1061.1396	1074.5692	1087.4554	1118.8533	1129.6322	1138.5484	1159.1343	1186.6785	1230.0039	1303.1147	1326.8462	1345.3271	1383.1284	1404.7219	1405.9163	1429.5895	1439.7623	1487.6357	1496.9827	1499.7665	1501.8404	1767.2233	2973.0354	3010.3586	3037.7664	3084.6282	3107.6072	3123.1514	3126.0578	3129.0319	3139.1603	3146.4673	3231.0765
CC1N=COCC2CC12	C[C@H]1N=COC[C@H]2C[C@@H]12	
InChI=1S/C7H11NO/c1-5-7-2-6(7)3-9-4-8-5/h4-7H,2-3H2,1H3	InChI=1S/C7H11NO/c1-5-7-2-6(7)3-9-4-8-5/h4-7H,2-3H2,1H3/t5-,6-,7+/m1/s1
