21
gdb 115931	3.62457	1.11171	0.94317	0.7608	78.16	-0.2236	0.0788	0.3023	1300.8421	0.183423	-424.198336	-424.189696	-424.188752	-424.231798	33.025	
C	 0.071858129	 1.3612082379	-0.0742719551	-0.240526
O	-0.0038062201	-0.0403517136	 0.0646954174	-0.242649
C	-1.3192658038	-0.5678343155	 0.0533410059	 0.118024
C	-1.8415526175	-0.7465788067	-1.3784317667	-0.109921
O	-3.1874194517	-1.1936078948	-1.3861705396	-0.252458
C	-3.4529218014	-2.3262879482	-0.605992868	 0.135927
C	-2.6623042866	-3.5998475685	-0.7153210696	-0.32899
C	-2.5507125065	-2.7304439221	 0.5319901771	-0.076823
C	-1.2792059217	-1.9174403894	 0.7737771122	-0.2537
H	 1.1272025382	 1.6341359003	 0.0040920933	 0.128178
H	-0.3061340994	 1.7154613783	-1.0442583299	 0.108187
H	-0.4877367744	 1.8773550806	 0.7210397535	 0.107139
H	-2.0078774367	 0.112613155	 0.580047388	 0.070097
H	-1.8469084263	 0.2027879192	-1.9200191795	 0.107225
H	-1.1782515824	-1.4365274728	-1.9234966606	 0.096992
H	-4.52598771	-2.4086932558	-0.4704041843	 0.099227
H	-3.1978215369	-4.5410412763	-0.6535931547	 0.110238
H	-1.801942674	-3.6216313555	-1.3760565102	 0.117212
H	-3.0395348277	-3.104501632	 1.4256372597	 0.088225
H	-0.3918096953	-2.4559189347	 0.4213746963	 0.112951
H	-1.1345840747	-1.7476068656	 1.8443959049	 0.105445
77.7996	100.2886	177.2943	197.0773	272.7339	321.5268	369.9659	400.4561	462.419	486.1761	505.5747	681.9667	754.3436	800.5261	842.6183	867.7128	918.5363	966.0654	998.5012	1017.2347	1035.546	1052.9037	1096.2898	1126.7799	1128.7994	1147.7596	1163.7046	1183.4556	1189.5792	1213.2189	1234.8115	1250.4863	1290.587	1318.3093	1340.1523	1366.3904	1385.425	1404.2285	1424.0687	1479.3464	1481.6021	1491.5203	1494.5065	1509.7631	1514.4527	2969.5972	2981.3031	2989.413	3028.3848	3040.9232	3087.2291	3092.3165	3112.654	3131.9653	3151.9219	3167.8275	3217.3797
COC1COC2CC2C1	CO[C@H]1CO[C@H]2C[C@H]2C1	
InChI=1S/C7H12O2/c1-8-6-2-5-3-7(5)9-4-6/h5-7H,2-4H2,1H3	InChI=1S/C7H12O2/c1-8-6-2-5-3-7(5)9-4-6/h5-7H,2-4H2,1H3/t5-,6-,7+/m1/s1
