23
gdb 91489	2.40147	1.79614	1.44103	0.1209	89.93	-0.2298	0.0826	0.3124	1053.5515	0.208543	-351.076876	-351.069278	-351.068333	-351.108227	32.584	
C	 0.0472599305	 1.5558637502	 0.1334160796	-0.423697
C	 0.1249482832	 0.0351148456	-0.0105269826	 0.04225
C	 1.0540997576	-0.4958372661	-1.1460386064	-0.228706
C	 1.9658948084	-1.3957244477	-0.3060055104	-0.082219
C	 2.2967392063	-0.4412493601	 0.9385821714	-0.332049
C	 0.7688654057	-0.6866845811	 1.215595444	 0.306903
C	-0.2981525395	-1.2517267853	 2.2046586209	-0.326765
C	-0.4559593832	-2.4587399524	 1.1700186936	-0.302141
C	 1.0099260545	-2.0974014459	 0.733267563	 0.039272
H	 1.0328562538	 2.0103524191	 0.2760970267	 0.114261
H	-0.3967727239	 2.0095120038	-0.7594811191	 0.109609
H	-0.5748499763	 1.8374643609	 0.990748157	 0.11087
H	-0.8955129961	-0.3251984715	-0.1673061344	 0.062257
H	 0.5079465433	-1.0493078311	-1.9158188917	 0.092352
H	 1.6132104912	 0.3037974755	-1.6437934944	 0.090291
H	 2.7622922106	-1.936404296	-0.8220815322	 0.05818
H	 2.9518816764	-0.9196218471	 1.6684029909	 0.100101
H	 2.660410609	 0.564938045	 0.7088112699	 0.088495
H	 0.1222602907	-1.6067796559	 3.1491432841	 0.104584
H	-1.1805459493	-0.6391377387	 2.4135328986	 0.09421
H	-0.5964652836	-3.4553412078	 1.5949471697	 0.09518
H	-1.2407598231	-2.2796520725	 0.4346417775	 0.113802
H	 1.6564211838	-2.6140399809	 1.4517643047	 0.072958
168.8726	216.2338	247.0931	288.3364	334.972	401.3944	443.3869	531.5451	568.3531	633.969	648.2972	743.9094	772.1808	798.5502	833.4416	848.9515	874.109	916.8203	925.5515	945.5845	984.8534	1014.4634	1028.722	1045.59	1064.8436	1071.1267	1097.4558	1123.1953	1144.3793	1155.6697	1167.4401	1195.2821	1199.2223	1214.2837	1232.9301	1240.6776	1250.2735	1278.8101	1313.6864	1327.8352	1385.5995	1410.6453	1415.5684	1480.7108	1489.452	1495.0751	1499.9357	1502.4234	1512.6013	3025.523	3025.8873	3040.56	3048.1836	3050.3762	3055.1523	3075.4734	3083.871	3089.1867	3091.1183	3100.1466	3106.2809	3125.9329	3137.7772
CC1CC2CC11CCC21	C[C@H]1C[C@H]2C[C@]31CC[C@@H]23	
InChI=1S/C9H14/c1-6-4-7-5-9(6)3-2-8(7)9/h6-8H,2-5H2,1H3	InChI=1S/C9H14/c1-6-4-7-5-9(6)3-2-8(7)9/h6-8H,2-5H2,1H3/t6-,7-,8-,9-/m0/s1
