16
gdb 7071	2.13366	1.86017	1.052	4.4189	67.5	-0.2695	0.0123	0.2818	1094.9253	0.128991	-379.937717	-379.928844	-379.927899	-379.971983	30.522	
C	 0.1178727148	 1.7432115783	 0.1187510835	-0.399651
C	-0.0746985733	 0.2452885997	-0.0802453552	 0.103366
C	 0.4918488944	-0.5584580122	 1.1130405918	-0.330143
C	 0.4749108829	-1.9997494536	 0.879111359	 0.261052
N	 0.4639860636	-3.1342736867	 0.6600505928	-0.303082
O	-1.4740224816	 0.0045530008	-0.1947112491	-0.193171
C	-1.8968099478	-0.9396163243	-1.0696146171	 0.129754
N	-3.1263285346	-1.1980375728	-1.1556918592	-0.438882
H	 1.1803299342	 1.9909460036	 0.1968496683	 0.124514
H	-0.3072811256	 2.2882598967	-0.7269013429	 0.140666
H	-0.3886957185	 2.0764744276	 1.0292866924	 0.140284
H	 0.4319977528	-0.0793485079	-0.9986779091	 0.104212
H	 1.523469514	-0.2473230657	 1.3097155198	 0.154629
H	-0.0998329306	-0.3289634705	 2.0055022877	 0.168801
H	-1.0837772298	-1.3975956361	-1.6470307345	 0.102548
H	-3.2820933249	-1.9166493569	-1.8593192481	 0.2351
57.3241	76.98	142.5554	145.7978	212.1716	259.5444	310.4087	385.9159	392.6334	489.9247	558.1793	593.7775	818.0806	860.5042	895.649	922.2411	967.7979	1040.6072	1063.955	1112.8524	1136.9947	1149.4911	1242.2522	1289.095	1303.5833	1372.1885	1381.2396	1414.4948	1431.7559	1452.7611	1485.6966	1497.1125	1747.4339	2363.0718	3021.5661	3042.6847	3047.7914	3054.108	3098.8396	3123.8629	3134.4363	3523.1193
CC(CC#N)OC=N	C[C@@H](CC#N)O[CH][NH]	
InChI=1S/C5H8N2O/c1-5(2-3-6)8-4-7/h4-5,7H,2H2,1H3	InChI=1S/C5H8N2O/c1-5(2-3-6)8-4-7/h4-5,7H,2H2,1H3/t5-/m0/s1
