21
gdb 113590	3.99056	0.90119	0.83153	2.2517	78.87	-0.249	0.0722	0.3212	1433.3501	0.183019	-424.205847	-424.196748	-424.195804	-424.240544	33.756	
O	-0.1539947757	 1.3983925433	-0.6198688554	-0.417551
C	-0.0248546604	 0.1512441813	 0.0507131086	-0.102673
C	-1.3743497709	-0.5149054922	 0.0578503239	-0.042398
C	-1.8229978468	-1.3452699803	-1.121204772	-0.329432
C	-1.5290822893	-2.007413759	 0.1997506082	 0.321407
C	-0.3667611611	-2.9979287141	 0.3775983146	-0.32201
C	-0.9452653118	-4.0177489398	 1.380820777	-0.0762
O	-2.3549915658	-3.9526859609	 1.2280308978	-0.241184
C	-2.6623424746	-2.5793797137	 1.0572289695	-0.149765
H	 0.6888595503	 1.8578922383	-0.55910944	 0.284591
H	 0.7092736909	-0.4967143289	-0.4543777918	 0.082222
H	 0.3276675842	 0.296841699	 1.0854406354	 0.083998
H	-2.1419914221	 0.0876702838	 0.5396312914	 0.087247
H	-2.8557958893	-1.2692724881	-1.4466038777	 0.110319
H	-1.110179111	-1.4877575972	-1.9285806553	 0.110083
H	-0.1218238502	-3.4834673517	-0.5715415812	 0.110851
H	 0.5471265399	-2.5357709635	 0.7607473085	 0.102326
H	-0.6325164531	-5.0479390574	 1.1941474432	 0.108693
H	-0.6575538038	-3.7497498998	 2.4112361402	 0.086569
H	-2.703247568	-2.068925782	 2.0356965317	 0.084346
H	-3.6481205416	-2.5064834971	 0.5891652733	 0.10856
38.5934	89.4632	136.7024	180.5092	257.7538	270.928	308.6738	348.5131	420.6585	437.2016	580.9096	669.8047	758.2476	829.0889	868.4652	885.1709	925.1341	931.2977	971.32	982.9065	1012.0629	1040.2597	1068.838	1084.5569	1092.5139	1106.8376	1133.0355	1167.6829	1210.7501	1222.3051	1241.8299	1255.4753	1275.774	1282.9	1293.0305	1321.4396	1357.7006	1400.9821	1418.2138	1468.3229	1491.563	1495.4103	1508.6744	1520.9171	1522.957	2945.3476	2957.3792	2964.1619	2986.4538	3052.3551	3081.9907	3090.4597	3102.291	3116.8784	3126.6794	3202.2012	3824.3791
OCC1CC11CCOC1	OC[C@H]1C[C@]21CCOC2	
InChI=1S/C7H12O2/c8-4-6-3-7(6)1-2-9-5-7/h6,8H,1-5H2	InChI=1S/C7H12O2/c8-4-6-3-7(6)1-2-9-5-7/h6,8H,1-5H2/t6-,7-/m1/s1
