17
gdb 38142	2.84609	1.882	1.37019	2.6212	71.75	-0.2458	-0.0138	0.232	940.4834	0.13834	-421.791536	-421.784739	-421.783794	-421.82309	26.835	
C	 0.1946717258	 1.5794379407	 0.1827180306	-0.081855
O	 1.4418612864	 1.5100497842	-0.5418940016	-0.291266
C	 1.3483910329	 0.0664471279	-0.6662511698	 0.076446
C	 2.4901777065	-0.6567730809	-0.022286784	-0.07828
C	 2.3748398983	-1.3492369193	 1.1116638704	-0.059164
C	 1.0988840256	-1.4438201818	 1.8641142625	-0.007855
O	 0.6285919763	-0.2272140468	 2.488424606	-0.248762
C	-0.0933588163	-0.7351617909	 1.3677011528	 0.030311
C	-0.0143728138	 0.0508953515	 0.0769710474	-0.119358
H	 0.3377310797	 1.9432805967	 1.204941419	 0.12383
H	-0.5450735523	 2.2009847734	-0.3348232213	 0.099118
H	 1.2836256331	-0.2112564061	-1.7277530713	 0.078142
H	 3.4482297783	-0.5960225242	-0.5322536902	 0.105909
H	 3.2339837442	-1.8653345493	 1.5309534089	 0.101411
H	 0.9650931939	-2.3264725755	 2.4870959716	 0.095865
H	-1.0748693301	-1.1359460371	 1.6224215524	 0.092404
H	-0.8439227286	-0.2377277325	-0.5713124835	 0.083102
64.2339	186.6546	265.4017	351.965	454.4875	500.2653	539.055	628.9765	709.2048	755.802	784.8497	834.0572	854.1869	877.4305	960.7723	974.0229	991.7337	998.0236	1011.5957	1024.2546	1070.1326	1082.334	1126.1259	1151.1237	1170.9813	1193.0622	1247.0418	1282.1837	1293.9452	1340.8902	1353.9209	1370.415	1398.5042	1424.546	1461.3799	1517.9082	1712.8499	2995.9553	3028.4933	3079.9674	3090.6123	3105.5369	3126.4334	3155.6789	3177.4405
C1OC2C=CC3OC3C12	C1O[C@H]2C=C[C@H]3O[C@H]3[C@@H]12	
InChI=1S/C7H8O2/c1-2-6-7(9-6)4-3-8-5(1)4/h1-2,4-7H,3H2	InChI=1S/C7H8O2/c1-2-6-7(9-6)4-3-8-5(1)4/h1-2,4-7H,3H2/t4-,5-,6+,7-/m0/s1
