20
gdb 90365	2.2787	1.52299	1.28696	3.9537	79.14	-0.2386	0.0326	0.2711	1110.7097	0.170649	-403.170402	-403.1616	-403.160655	-403.203569	33.971	
C	-0.1449911331	 1.546169966	 0.0264148218	-0.419216
C	 0.0556224516	 0.0382767808	-0.0058756763	-0.000436
C	 1.1554541814	-0.5463705996	-0.9456174905	-0.257445
C	 1.8071085989	-1.2920096864	 0.2594246691	-0.255105
C	 2.8333937286	-0.3967770413	 0.9771221279	 0.431367
O	 4.0040131759	-0.1494742895	 0.8619038127	-0.368477
N	 1.8534835391	 0.105114288	 1.8136510256	-0.36666
C	 0.7413736892	-0.6563889153	 1.2228898933	 0.356063
C	-0.1150102394	-1.4187945919	 2.2074676328	-0.477506
H	 0.7967547934	 2.0693440382	 0.2218838807	 0.119019
H	-0.5280390362	 1.9076867928	-0.9337728646	 0.122272
H	-0.8636999078	 1.8396465041	 0.8003491649	 0.11336
H	-0.9039477485	-0.4533552635	-0.1984281359	 0.073329
H	 0.7671535067	-1.215374444	-1.7156976636	 0.108832
H	 1.8089704182	 0.1862452559	-1.4264350042	 0.116734
H	 2.0050470099	-2.3594646487	 0.18330678	 0.093334
H	 1.8531586062	 0.9567550544	 2.3594579252	 0.240634
H	-0.7354918315	-0.7353048067	 2.800047702	 0.119906
H	-0.78825426	-2.106207453	 1.6860657144	 0.122449
H	 0.5052135977	-1.9960348704	 2.8996827946	 0.127548
73.9629	165.4474	203.9281	224.8683	245.4057	275.258	306.4688	391.4825	436.6002	486.0739	523.7143	615.105	639.0911	729.3037	781.848	806.2814	873.0852	884.9421	913.7158	947.5218	993.4511	1018.2473	1075.6284	1098.7571	1117.2302	1127.7205	1162.2237	1177.7722	1222.8197	1237.6371	1254.0967	1275.5569	1311.4161	1358.4176	1379.0316	1406.5552	1413.4503	1488.6471	1489.6744	1492.8194	1493.7955	1502.6088	1886.3381	3026.5755	3027.4944	3043.9057	3065.9319	3091.1139	3092.2809	3101.3786	3113.4463	3117.6131	3139.3487	3579.0534
CC1CC2C(=O)NC12C	C[C@H]1C[C@H]2C(=O)N[C@@]12C	
InChI=1S/C7H11NO/c1-4-3-5-6(9)8-7(4,5)2/h4-5H,3H2,1-2H3,(H,8,9)	InChI=1S/C7H11NO/c1-4-3-5-6(9)8-7(4,5)2/h4-5H,3H2,1-2H3,(H,8,9)/t4-,5-,7-/m0/s1
