17
gdb 125671	2.93509	1.22316	0.97284	2.0684	79.52	-0.236	0.0249	0.2609	1220.8882	0.135825	-380.865546	-380.856625	-380.855681	-380.899793	32.606	
C	-0.2202378877	 1.4320613579	 0.0083492248	-0.502534
C	-0.0526480475	-0.0538647099	 0.0287741997	 0.286124
N	 0.029717071	-0.7480517734	-1.10418035	-0.28393
N	 0.1710579491	-2.0300311531	-0.7115255313	-0.189945
C	 0.1808549814	-2.1724133949	 0.6347067518	-0.120974
C	 0.0382367158	-0.9073826082	 1.1625713709	 0.15989
C	-0.0056385947	-0.5214795653	 2.618676867	-0.481631
C	-1.3023574279	 0.0043116387	 3.0493473584	 0.319904
C	-2.3672159754	 0.4418226374	 3.3946059847	-0.464577
H	 0.6317253652	 1.939012607	 0.477159298	 0.123478
H	-0.3013701377	 1.782610349	-1.0224789678	 0.138456
H	-1.1170536999	 1.735558355	 0.5582394262	 0.141333
H	 0.2547670533	-2.7477904511	-1.4101974931	 0.273141
H	 0.2840442654	-3.1368049825	 1.1078481151	 0.132181
H	 0.2508923531	-1.3919450025	 3.2344421532	 0.133872
H	 0.7662953635	 0.230701743	 2.8324189408	 0.138777
H	-3.309304747	 0.822901353	 3.7019352715	 0.196434
44.0868	101.133	111.2965	219.8149	251.5902	303.6767	329.8934	401.4207	454.4201	482.1264	617.4378	630.1189	649.8001	679.3876	705.9786	754.8328	800.5227	919.9214	951.3638	955.6353	1008.6488	1068.3295	1081.3829	1148.1121	1205.8034	1242.0511	1306.6477	1346.3446	1402.3094	1412.3011	1460.6819	1478.6238	1481.6912	1492.5334	1514.4974	1611.5402	2237.2486	3010.309	3031.4698	3051.4082	3085.7928	3134.7283	3254.1706	3506.624	3682.7104
CC1=NNC=C1CC#C	Cc1n[nH]cc1CC#C	
InChI=1S/C7H8N2/c1-3-4-7-5-8-9-6(7)2/h1,5H,4H2,2H3,(H,8,9)	InChI=1S/C7H8N2/c1-3-4-7-5-8-9-6(7)2/h1,5H,4H2,2H3,(H,8,9)
