15
gdb 125327	5.43038	1.29677	1.05368	6.6256	73.66	-0.2102	0.0098	0.22	1081.6467	0.115276	-413.017041	-413.009798	-413.008854	-413.048568	27.535	
C	 0.0470756892	 1.5015510668	-0.0062360485	-0.500132
C	-0.0508103791	 0.0154441555	-0.0051462425	 0.33045
C	-1.1376485424	-0.7893727799	-0.1592919431	-0.238964
N	-0.6806519305	-2.1081614602	-0.0772871142	-0.020764
C	-0.9926497469	-3.4479841299	-0.1083451665	-0.024541
N	 0.0982991346	-4.1592078037	 0.0633965336	-0.221826
N	 1.1845569073	-3.3112628718	 0.2164771838	-0.367179
C	 0.6751883267	-2.1061638074	 0.1260941164	 0.512364
N	 1.0722348335	-0.7946440351	 0.1706686323	-0.471115
H	 0.7041888151	 1.8618141739	-0.8063194039	 0.143028
H	-0.9402506263	 1.9421527708	-0.1580083068	 0.147498
H	 0.4434423072	 1.8803179241	 0.943068167	 0.142892
H	-2.1699630694	-0.5328593813	-0.3173948033	 0.149637
H	-1.987254477	-3.8345308492	-0.2534207906	 0.13949
H	 2.015314008	-0.4816508024	 0.3136038563	 0.279162
135.2138	147.3082	272.2198	274.0512	305.0864	353.5578	503.2952	566.2254	619.4963	652.9158	694.4005	747.2825	764.6141	800.4614	837.6265	986.8138	993.4326	1021.708	1031.9139	1065.2058	1169.1435	1226.5167	1229.9325	1276.9024	1375.4493	1406.6348	1424.5775	1437.3316	1475.9949	1476.2396	1501.2855	1645.1862	1657.4633	3029.6088	3079.6996	3132.9402	3285.0508	3294.9767	3702.6928
CC1=CN2C=NN=C2N1	Cc1cn2cnnc2[nH]1	
InChI=1S/C5H6N4/c1-4-2-9-3-6-8-5(9)7-4/h2-3H,1H3,(H,7,8)	InChI=1S/C5H6N4/c1-4-2-9-3-6-8-5(9)7-4/h2-3H,1H3,(H,7,8)
