23
gdb 58739	3.33965	1.12893	1.03257	1.5898	86.51	-0.2273	0.087	0.3143	1312.6957	0.203448	-388.248484	-388.238688	-388.237744	-388.282718	37.716	
C	 0.0056829711	 1.5312751389	-0.1075196339	-0.391508
C	 0.0078537281	-0.0044835755	-0.0789076478	-0.114746
C	-1.4194380285	-0.5718346349	-0.0971451951	-0.391504
C	 0.8177844961	-0.5589649347	-1.2230330492	 0.459899
C	 2.2638288019	-0.2233788134	-1.676889812	-0.312618
C	 1.5847608897	-1.0863744821	-2.7707851289	 0.406162
C	 2.0412106869	-1.4025721365	-4.1606277516	-0.508635
C	 1.0402107122	-2.0294550812	-1.6678021533	-0.312621
O	 0.3595488535	-0.2555079575	-2.6126224299	-0.384078
H	 1.0190820326	 1.9348355519	-0.0207741477	 0.112994
H	-0.4212013124	 1.8947222998	-1.0471800998	 0.134856
H	-0.5891467579	 1.9326519465	 0.7186691706	 0.107635
H	 0.5057747669	-0.3373421187	 0.8432172365	 0.077456
H	-1.9195305924	-0.3163897523	-1.0362611946	 0.13486
H	-1.4182379049	-1.6620227915	-0.0030606398	 0.112994
H	-2.008896353	-0.1625712221	 0.7290241821	 0.107633
H	 2.437163992	 0.8175292899	-1.9542552263	 0.100727
H	 3.0949718963	-0.6605699403	-1.1159917666	 0.086628
H	 2.9476824376	-2.0154897772	-4.1323693003	 0.124054
H	 1.2670212058	-1.9539802563	-4.7028749025	 0.131218
H	 2.2620739249	-0.4827340203	-4.7106941134	 0.13124
H	 1.7570357349	-2.6353698275	-1.1060469178	 0.086628
H	 0.1365054185	-2.5782859947	-1.9371887086	 0.100727
62.5476	150.1811	150.2606	194.1472	208.5538	240.0793	294.8837	302.2777	347.6698	427.6482	462.3427	525.769	598.1756	606.3801	646.4075	704.9928	793.4305	876.5813	895.2432	929.6839	945.2632	951.7397	969.8812	990.625	1045.086	1070.9096	1080.4164	1104.5093	1139.8859	1140.0951	1164.6192	1185.7262	1193.538	1215.9626	1268.8598	1337.1818	1337.6541	1388.4503	1396.8237	1412.462	1420.6751	1465.306	1476.8433	1488.0421	1489.1474	1491.2026	1501.2497	1513.7313	1525.9318	3006.5702	3036.062	3038.2182	3039.7738	3048.9137	3059.9876	3104.6726	3107.6578	3112.4679	3112.8315	3113.5344	3117.1307	3135.8596	3140.5534
CC(C)C12CC(C)(C1)O2	CC(C)[C@@]12C[C@@](C)(C1)O2	
InChI=1S/C8H14O/c1-6(2)8-4-7(3,5-8)9-8/h6H,4-5H2,1-3H3	InChI=1S/C8H14O/c1-6(2)8-4-7(3,5-8)9-8/h6H,4-5H2,1-3H3/t7-,8+
