20
gdb 109817	3.47779	0.91615	0.85776	3.3532	79.63	-0.2645	0.0348	0.2993	1427.2543	0.169961	-403.150288	-403.14035	-403.139406	-403.186043	35.802	
C	-0.0392686162	 1.5108372589	-0.5259243093	-0.380644
C	 0.0222989257	 0.1227681853	 0.1241221426	-0.198641
C	-1.3513335669	-0.5116823349	 0.2241304143	-0.048888
C	-1.8961354407	-1.3705033659	-0.8840470731	 0.091435
O	-1.0298734084	-1.6255408822	-1.9503191863	-0.422738
C	-1.5860700338	-1.9967708073	 0.4608590106	-0.094539
C	-0.4338656266	-2.9884703542	 0.5687943945	-0.360872
C	-0.6981773694	-4.197150419	-0.2172876424	 0.261313
N	-0.9353161078	-5.1225174881	-0.8687781881	-0.321852
H	 0.9550444253	 1.9645886277	-0.5779162365	 0.112947
H	-0.4343639337	 1.4428799096	-1.543993944	 0.133671
H	-0.68634062	 2.1883585372	 0.0420781149	 0.112347
H	 0.6855178299	-0.5114091188	-0.4699964256	 0.117784
H	 0.4625457534	 0.2018988448	 1.1264508822	 0.094725
H	-2.0875722644	 0.1286124726	 0.7049327723	 0.091346
H	-2.9431123439	-1.2562575382	-1.1619999277	 0.091771
H	-1.1992627524	-2.5200059753	-2.2693174808	 0.30496
H	-2.4411568117	-2.2592585513	 1.0763440818	 0.101141
H	 0.502067893	-2.5559464864	 0.2078506397	 0.162058
H	-0.2685577113	-3.2743069944	 1.612970571	 0.152677
39.5021	64.1635	98.1353	170.9668	204.3935	235.6663	282.5994	293.2609	374.0817	387.6747	457.8495	552.8597	561.1896	632.9235	750.3517	799.7925	815.925	868.9198	920.1689	937.4034	986.485	1018.9247	1041.5417	1072.8251	1111.4098	1137.6831	1149.8319	1189.6987	1244.6165	1254.4306	1291.8945	1311.7037	1320.0593	1338.0074	1386.2781	1403.1202	1413.094	1458.8857	1465.9777	1486.535	1498.9485	1506.1409	2354.0791	3025.4666	3034.6176	3059.8305	3084.6009	3104.2905	3105.6302	3111.1673	3114.7546	3131.2455	3154.3728	3788.1706
CCC1C(O)C1CC#N	CC[C@H]1[C@@H](O)[C@H]1CC#N	
InChI=1S/C7H11NO/c1-2-5-6(3-4-8)7(5)9/h5-7,9H,2-3H2,1H3	InChI=1S/C7H11NO/c1-2-5-6(3-4-8)7(5)9/h5-7,9H,2-3H2,1H3/t5-,6+,7-/m1/s1
