17
gdb 6113	2.82202	1.87819	1.49787	3.3092	64.14	-0.2428	0.0066	0.2494	916.7426	0.141002	-401.031639	-401.023037	-401.022093	-401.064332	31.547	
C	 0.1949877572	 1.4034161309	-0.2376157555	-0.426423
C	-0.0633626137	-0.0700777206	 0.020008952	 0.420942
C	-1.5317516812	-0.4450620471	-0.0546938687	-0.439818
O	 0.7244047294	-0.8986711117	-0.9308885286	-0.284548
C	 1.5404844772	-1.3776305288	 0.0571641792	 0.416101
O	 2.5176233788	-2.048334056	-0.0613082497	-0.333956
C	 0.7506483663	-0.6990248781	 1.1935746848	-0.215016
N	 1.3926937609	 0.165374697	 2.15493073	-0.51577
H	 1.2659801837	 1.6196704176	-0.2807769803	 0.119516
H	-0.2478448738	 1.7064145893	-1.1907541923	 0.129946
H	-0.2432519351	 2.0061648104	 0.5625220591	 0.13775
H	-1.9514601605	-0.1784553663	-1.0294119462	 0.132305
H	-1.6687155772	-1.5199726603	 0.0943225917	 0.1258
H	-2.0959470426	 0.0876144569	 0.717571554	 0.130467
H	 0.1491316735	-1.4386012999	 1.7300598635	 0.113436
H	 1.7288100133	-0.3735989767	 2.9450487255	 0.247039
H	 2.2022708839	 0.6268895234	 1.7534309817	 0.24223
89.5075	180.2379	184.0987	225.272	227.7224	250.5125	319.2062	338.6087	400.209	466.8026	579.6125	624.5149	715.0299	783.2053	815.8761	854.8959	929.1412	942.7183	986.3204	1006.8731	1083.66	1134.1067	1183.9114	1205.9602	1246.7433	1281.6489	1293.3768	1405.2694	1415.7313	1430.6717	1472.1558	1483.4873	1494.0638	1506.4881	1670.8217	1923.1793	3038.5279	3046.8553	3075.5893	3112.4925	3115.6191	3118.7577	3126.7982	3514.2255	3592.2042
CC1(C)OC(=O)C1N	CC1(C)OC(=O)[C@H]1N	
InChI=1S/C5H9NO2/c1-5(2)3(6)4(7)8-5/h3H,6H2,1-2H3	InChI=1S/C5H9NO2/c1-5(2)3(6)4(7)8-5/h3H,6H2,1-2H3/t3-/m1/s1
