16
gdb 124716	4.72811	1.04743	0.8674	1.7847	78.64	-0.2028	0.0056	0.2085	1278.5333	0.126267	-430.287244	-430.278806	-430.277862	-430.321486	30.752	
C	-0.6551734288	 1.3889874724	 0.2774192452	-0.447139
C	-0.0064174241	 0.0536614334	-0.0118162163	 0.37468
N	 0.1901936647	-0.7353883282	 1.0901340401	-0.522783
N	 0.3465534523	-0.4368571888	-1.1486513414	-0.374341
C	 0.1125701253	 0.181467859	-2.3491906125	 0.409751
N	 0.7002127294	-0.2973013031	-3.4488696353	-0.287371
N	 0.2287813811	 0.5306427699	-4.4118892634	-0.177642
C	-0.6053279817	 1.4452108293	-3.8861373998	 0.007107
N	-0.7107612626	 1.2653754836	-2.587297335	-0.331659
H	-0.1348984276	 2.1881429878	-0.2518118791	 0.156109
H	-1.6814539067	 1.3958557147	-0.0962822405	 0.165357
H	-0.6651412328	 1.6016681334	 1.3501124484	 0.0981
H	 0.2327755141	-0.3126833324	 2.0010251316	 0.253506
H	 0.7411374894	-1.5672506109	 0.9432468109	 0.258704
H	 0.5114178477	 0.3952611952	-5.3678237945	 0.278084
H	-1.1036307298	 2.2023069347	-4.4740054184	 0.139536
22.4778	125.8614	136.2184	183.2837	342.0173	359.6576	396.7264	417.407	513.0395	515.9469	553.7728	636.191	676.5715	761.9931	797.6269	839.9161	884.782	984.5654	996.3681	1015.4474	1050.9939	1102.4561	1156.5445	1180.4695	1304.7483	1315.3958	1373.4656	1407.492	1462.411	1468.1151	1476.8378	1510.0276	1552.6914	1629.0739	1709.0722	3053.289	3130.5472	3147.3224	3246.6879	3590.8123	3672.7282	3723.9647
CC(N)=NC1=NNC=N1	CC(=Nc1n[nH]cn1)N	
InChI=1S/C4H7N5/c1-3(5)8-4-6-2-7-9-4/h2H,1H3,(H3,5,6,7,8,9)	InChI=1S/C4H7N5/c1-3(5)8-4-6-2-7-9-4/h2H,1H3,(H3,5,6,7,8,9)
