19
gdb 104066	2.97313	1.26914	1.18227	2.2187	70.67	-0.2419	0.0565	0.2984	1120.2854	0.15856	-460.114383	-460.105804	-460.104859	-460.147664	32.908	
O	-0.1006848696	 1.3899274152	-0.1910980002	-0.437594
C	-0.0201912979	-0.0345935891	-0.1712847932	-0.156736
C	-1.4498995831	-0.5216924997	 0.0229946162	 0.435807
O	-1.987439298	 0.0694087828	 1.1878960287	-0.491362
C	-2.3895115905	-0.4138678701	-1.2326149327	-0.296968
C	-2.5524162181	-1.944042586	-1.2207967076	 0.12184
O	-1.5254834402	-2.6289794768	-1.9819512412	-0.298566
C	-0.7817457794	-2.9403555072	-0.781509443	-0.091808
C	-1.6994928451	-2.058395372	 0.0744644587	-0.141618
H	 0.7892547963	 1.7513159525	-0.1625634695	 0.295876
H	 0.3998064341	-0.4182922432	-1.1102420098	 0.103554
H	 0.6029105621	-0.3838684041	 0.6658012766	 0.094132
H	-1.7243302232	 0.9990506258	 1.151103719	 0.284785
H	-3.310048747	 0.1158355206	-0.9760053771	 0.107165
H	-1.9617169756	 0.0003069403	-2.1480056791	 0.107446
H	-3.5417797219	-2.3824016865	-1.3728449169	 0.076885
H	-0.8550661746	-4.0079560835	-0.5346431837	 0.1001
H	 0.2785616351	-2.6729574778	-0.8613656819	 0.099196
H	-2.0541360635	-2.4244304612	 1.035770377	 0.087865
64.9285	120.719	199.8134	240.3761	284.2562	312.5127	349.6701	399.648	444.0441	483.0178	491.4623	661.9988	744.72	805.3968	838.5794	905.7664	908.6889	947.4283	977.5176	985.1071	1014.0198	1049.2497	1053.6129	1074.8596	1102.8986	1153.8263	1156.0399	1185.5398	1208.5265	1226.1516	1246.0726	1261.6207	1273.0828	1303.7774	1328.2772	1358.7321	1403.5749	1448.8428	1451.456	1510.0043	1526.3234	2986.4426	3006.7826	3037.1994	3052.2556	3065.0893	3078.4916	3132.1018	3137.9927	3757.9076	3843.3457
OCC1(O)CC2OCC12	OC[C@@]1(O)C[C@H]2OC[C@@H]12	
InChI=1S/C6H10O3/c7-3-6(8)1-5-4(6)2-9-5/h4-5,7-8H,1-3H2	InChI=1S/C6H10O3/c7-3-6(8)1-5-4(6)2-9-5/h4-5,7-8H,1-3H2/t4-,5-,6+/m1/s1
