21
gdb 113567	4.30028	0.94798	0.86471	1.8288	86.16	-0.2368	0.0139	0.2507	1429.8309	0.182268	-387.09558	-387.086513	-387.085569	-387.130402	33.814	
C	-0.0129842374	 1.4733800526	-0.3223168976	-0.375472
C	 0.0130551297	 0.1013736904	 0.3630568179	-0.213183
C	-1.3579240502	-0.529709961	 0.4143025032	-0.013442
O	-1.8727347285	-1.064258794	-0.811834064	-0.307617
C	-1.6028878213	-1.9763836184	 0.2752255564	 0.415757
C	-0.5133294736	-3.0426079663	 0.08731058	-0.313105
C	-1.1376683297	-4.3691321276	 0.6026892803	-0.272655
C	-2.5193782111	-3.970421414	 1.0626324396	-0.072478
C	-2.7649946745	-2.6732536228	 0.8851671274	-0.137879
H	 0.987126583	 1.9150573905	-0.3609322182	 0.111984
H	-0.3864698747	 1.3815157748	-1.3464944618	 0.134449
H	-0.6670730921	 2.1709549948	 0.2121185413	 0.114571
H	 0.6997669194	-0.5655063808	-0.1679480272	 0.103677
H	 0.3914364292	 0.2008798786	 1.3891770692	 0.098001
H	-2.0964441762	 0.0485157646	 0.9783683263	 0.07656
H	-0.2407510373	-3.0986275534	-0.9691586375	 0.122379
H	 0.3934311691	-2.7893401776	 0.6432343192	 0.10931
H	-1.1831784293	-5.1412508699	-0.1752942371	 0.112676
H	-0.5527518601	-4.802542393	 1.4230742031	 0.109883
H	-3.215617834	-4.6854381173	 1.4871936688	 0.097973
H	-3.6842697705	-2.1522066601	 1.1249117305	 0.098612
31.7515	78.1644	132.6606	165.7839	236.918	269.0201	355.7937	389.426	462.2353	520.7448	581.5481	729.6632	763.1433	766.0159	813.2442	822.788	843.8883	917.7645	923.2053	947.052	976.0094	1001.1458	1040.1088	1052.7729	1059.3499	1121.7183	1131.1917	1158.518	1176.2138	1232.8952	1246.9192	1269.4907	1292.7823	1321.1876	1334.5715	1347.543	1389.8294	1407.2082	1474.2444	1476.8592	1486.9346	1497.8935	1499.0104	1508.9047	1682.9843	3024.3202	3025.9861	3035.8812	3048.7809	3055.6298	3065.4425	3079.3789	3105.7982	3110.2303	3116.3207	3187.179	3214.4808
CCC1OC11CCC=C1	CC[C@H]1O[C@]21CCC=C2	
InChI=1S/C8H12O/c1-2-7-8(9-7)5-3-4-6-8/h3,5,7H,2,4,6H2,1H3	InChI=1S/C8H12O/c1-2-7-8(9-7)5-3-4-6-8/h3,5,7H,2,4,6H2,1H3/t7-,8+/m1/s1
