18
gdb 18374	3.11231	2.28855	1.45322	0.0926	79.87	-0.2293	0.0255	0.2548	887.9802	0.156537	-310.663317	-310.656505	-310.655561	-310.694267	27.186	
C	 0.0815928058	 1.4772857089	-0.3684198473	-0.281199
C	 1.3097567159	 0.6524638976	-0.0162071086	-0.064875
C	 2.1562952538	 0.9996738195	 1.1456187219	-0.067934
C	 2.0141650896	 0.7058551317	 2.4379126313	-0.059576
C	 0.955666649	-0.0737317717	 3.1661988573	-0.307694
C	-0.3711399091	-0.4022694953	 2.5415208704	-0.059577
C	-0.7788298921	-0.3638758085	 1.2731089523	-0.067934
C	-0.0529452711	 0.0194047071	 0.0429834333	-0.064874
H	-0.2293206478	 2.2149020995	 0.3627225716	 0.120966
H	-0.090722047	 1.7513787193	-1.4039940686	 0.109179
H	 1.8962344044	 0.3570287569	-0.8841206101	 0.088267
H	 3.0323440509	 1.5893443979	 0.8758162825	 0.081236
H	 2.7902898033	 1.0777525655	 3.10579029	 0.082192
H	 1.4093648732	-1.0175290733	 3.5171762159	 0.125507
H	 0.7471693461	 0.4628141513	 4.1046325118	 0.114618
H	-1.1058644217	-0.7322562043	 3.2750237559	 0.082192
H	-1.8108079242	-0.6606018412	 1.0861833863	 0.081236
H	-0.2662183691	-0.6475597911	-0.7901940158	 0.088267
80.8193	217.9897	266.1029	390.9378	391.933	466.6793	473.4599	720.0016	725.5721	744.8434	749.115	818.1126	838.5256	860.9547	883.9997	962.6004	963.0654	1005.9858	1010.5841	1028.0035	1028.904	1058.753	1100.7348	1139.164	1160.6764	1229.2073	1230.814	1271.4333	1285.9848	1379.8491	1406.5625	1427.6365	1437.9383	1450.9119	1457.2777	1492.333	1746.6952	1751.8944	2960.3034	2995.3619	3107.9728	3111.9939	3117.5949	3123.9725	3131.1823	3138.7771	3142.1533	3226.3317
C1C2C=CCC=CC12	C1[C@H]2C=CCC=C[C@@H]12	
InChI=1S/C8H10/c1-2-4-7-6-8(7)5-3-1/h2-5,7-8H,1,6H2	InChI=1S/C8H10/c1-2-4-7-6-8(7)5-3-1/h2-5,7-8H,1,6H2/t7-,8+
