19
gdb 76451	2.14433	1.31932	1.20235	2.0865	84.51	-0.248	-0.0294	0.2186	1188.8487	0.155566	-385.862894	-385.852852	-385.851908	-385.897167	36.991	
C	-0.1921149718	 1.5070869033	 0.2142927457	-0.428757
C	 0.0060128489	 0.0244023588	-0.0043560407	-0.047856
C	 0.7460402458	-0.5596425708	-1.1524799775	-0.047852
C	 1.3953152356	 0.2542344303	-2.2485941776	-0.428758
C	 1.3693474086	-0.6845046455	 0.2739106638	-0.005532
C	 2.5731319714	 0.1185139642	 0.641423716	 0.096084
O	 2.8400691322	 1.2309359965	 0.2477070167	-0.276966
C	 1.314967802	-1.9782698636	 0.8969852691	 0.236958
C	 1.2862696875	-3.0578726261	 1.4276855991	-0.418324
H	 0.6902696084	 2.0876882869	-0.0506196908	 0.160931
H	-1.0371932306	 1.8550311159	-0.3902275363	 0.121322
H	-0.4283946425	 1.7111191609	 1.2633664943	 0.124758
H	-0.817853093	-0.5839021873	 0.3587405011	 0.109827
H	 0.3723517971	-1.5232419034	-1.4878335835	 0.109828
H	 1.8632064788	 1.1619665045	-1.8704761399	 0.160922
H	 2.1639786729	-0.3348483628	-2.7586440883	 0.12476
H	 0.6404476382	 0.530945971	-2.9930895032	 0.121327
H	 3.2482837937	-0.4111099786	 1.3459406922	 0.092465
H	 1.2570626368	-4.0113657443	 1.8939292598	 0.194864
130.1584	144.3338	150.0604	164.7921	183.6074	211.691	220.4723	253.2956	356.0666	362.1264	503.1728	507.6453	541.0715	542.5478	572.7207	661.0275	710.785	722.2603	804.4538	937.4571	1009.1648	1024.3457	1027.2477	1057.1429	1097.6697	1107.1899	1133.8595	1191.7572	1239.2229	1302.614	1377.5513	1410.6732	1417.2815	1423.2573	1446.201	1484.5189	1499.1938	1503.9855	1517.6813	1792.4202	2231.5457	2911.2978	3039.7091	3041.871	3096.4342	3097.5926	3138.6007	3149.3727	3163.3767	3170.7808	3502.373
CC1C(C)C1(C=O)C#C	C[C@H]1[C@@H](C)[C@]1(C=O)C#C	
InChI=1S/C8H10O/c1-4-8(5-9)6(2)7(8)3/h1,5-7H,2-3H3	InChI=1S/C8H10O/c1-4-8(5-9)6(2)7(8)3/h1,5-7H,2-3H3/t6-,7+,8-
