18
gdb 66504	3.42096	1.91876	1.72988	2.259	79.74	-0.202	-0.0833	0.1188	862.5102	0.148324	-364.655532	-364.648866	-364.647921	-364.685972	28.232	
C	 0.0213087297	 1.4829993364	 0.0622502574	-0.519707
C	-0.0310112708	-0.0060045243	-0.071868068	 0.379675
C	 0.6716177831	-0.8542953843	-1.0633049513	-0.111155
N	 1.0582145539	-0.9250188285	 0.3884279323	-0.186902
C	 0.0433845735	-1.953676038	 0.7952387955	-0.033674
C	-0.106642907	-2.9289329149	-0.3318424043	-0.063663
C	-0.2276077152	-2.0543895293	-1.3916871034	-0.0434
C	-1.6739491038	-1.5511624201	-1.0838971665	-0.25112
C	-1.1914144423	-0.9509792495	 0.3193280505	-0.121796
H	 1.0052515547	 1.8568141409	-0.2375376461	 0.132843
H	-0.7320770513	 1.9596149759	-0.5757359219	 0.122164
H	-0.161370158	 1.7993458606	 1.094998755	 0.123779
H	 1.4249676298	-0.4732340865	-1.742012162	 0.089344
H	 0.1083510854	-2.2719146019	 1.8346734684	 0.082795
H	-0.7921783652	-3.7672213129	-0.2143335761	 0.111394
H	-2.0502509365	-0.7607527	-1.7428268411	 0.106192
H	-2.419618119	-2.3434846838	-0.9950965533	 0.111019
H	-1.9366966211	-0.5716105794	 1.0233495651	 0.07221
188.3749	218.9394	269.972	402.017	425.8115	545.5382	576.4819	619.9597	675.1331	712.4586	727.8149	780.2321	806.6355	845.7878	885.0002	893.8268	918.3491	948.379	971.1267	981.7825	1018.3351	1038.9698	1055.946	1090.2477	1103.8673	1127.5605	1165.8432	1197.4925	1221.6606	1239.2458	1261.9521	1269.977	1284.8556	1395.5067	1423.5467	1450.8646	1480.7325	1485.7658	1492.312	3026.4024	3041.8613	3085.704	3089.1693	3106.436	3116.5098	3123.3851	3134.1921	3184.6134
CC12C3N1C1C=C3CC21	C[C@@]12[C@H]3N1[C@@H]1[CH][C]3C[C@H]21	
InChI=1S/C8H9N/c1-8-5-2-4-3-6(5)9(8)7(4)8/h3,5-7H,2H2,1H3	InChI=1S/C8H9N/c1-8-5-2-4-3-6(5)9(8)7(4)8/h3,5-7H,2H2,1H3/t5-,6+,7-,8+,9?/m0/s1
