14
gdb 43513	2.65416	1.47906	1.03966	0.5897	72.52	-0.2527	-0.003	0.2497	1102.8107	0.101189	-432.858103	-432.850127	-432.849183	-432.891137	29.688	
N	-0.0656365973	 1.3055808856	 0.0073515792	-0.579338
C	-0.0161956348	 0.0470439123	 0.0077863418	 0.474609
N	-1.1271110591	-0.7845866108	 0.0116118075	-0.37612
C	-0.810189892	-2.1250091822	-0.0027397198	 0.385291
N	-1.5177426352	-3.171757134	-0.0460839774	-0.532797
C	 0.7258984063	-2.1374563561	 0.0304713978	-0.139436
O	 1.0978480604	-0.7395987585	-0.0079403536	-0.242949
C	 1.2762707359	-2.789777753	 1.207714846	 0.3648
C	 1.7397700052	-3.3293222815	 2.1741668431	-0.456762
H	 0.8708775758	 1.7032241282	 0.0052284327	 0.236362
H	-2.058095886	-0.4020129028	 0.0056411238	 0.278511
H	-2.5166563084	-2.9649373115	-0.0684938961	 0.220253
H	 1.1064266367	-2.6119415141	-0.8806230365	 0.154081
H	 2.1444105126	-3.8109167216	 3.0303812414	 0.213495
63.1514	117.4775	140.1027	243.6373	349.3539	414.7445	469.3589	485.5303	544.218	639.527	645.9574	657.4802	686.4253	712.0724	728.6969	805.4175	852.2444	896.0211	957.4429	996.4225	1051.2513	1092.0948	1105.9119	1247.4332	1322.8181	1333.3385	1364.4375	1416.4678	1780.6954	1810.7848	2249.8209	3055.5896	3477.4239	3501.5607	3533.943	3667.8171
N=C1NC(=N)C(O1)C#C	[NH][C]1N[C]([NH])[C@@H](O1)C#C	
InChI=1S/C5H5N3O/c1-2-3-4(6)8-5(7)9-3/h1,3H,(H3,6,7,8)	InChI=1S/C5H5N3O/c1-2-3-4(6)8-5(7)9-3/h1,3H,(H3,6,7,8)/t3-/m0/s1
