18
gdb 72875	2.89257	1.27289	1.0929	3.4243	72.46	-0.2308	-0.0279	0.2029	1157.3613	0.146026	-439.04543	-439.036828	-439.035884	-439.07945	31.55	
C	-0.6652527565	 1.5838164003	 0.3136011553	-0.467782
C	-0.1413363558	 0.1864432252	 0.0903996177	 0.289785
C	-1.0863307855	-1.0169181698	 0.3261462718	-0.119178
O	-0.0990594641	-1.6988496272	 1.1345232512	-0.290062
C	 0.8400681929	-0.6246108075	 0.9902588639	 0.051108
C	 1.7403549155	-0.7883418021	-0.2547411009	-0.087184
N	 0.7956380826	 0.0363084233	-1.0541127994	-0.383878
C	 3.113692692	-0.1484558297	-0.1890534905	 0.160096
O	 3.8324363715	-0.1950722526	 0.7757196976	-0.248487
H	 0.1530418925	 2.3086246637	 0.3080205851	 0.131116
H	-1.3628678465	 1.8634680009	-0.4852035655	 0.122228
H	-1.1977372	 1.6582124519	 1.2669202081	 0.123316
H	-1.9877086493	-0.7914566297	 0.9103977016	 0.106188
H	-1.3715987013	-1.5877475177	-0.5676127372	 0.095063
H	 1.2993599928	-0.3144624829	 1.929526395	 0.102973
H	 1.8481759329	-1.8412985445	-0.5481995496	 0.111888
H	 0.4052706513	-0.4057447289	-1.8802711685	 0.220622
H	 3.397672195	 0.4004832873	-1.1157370359	 0.082187
40.0925	103.4625	168.0282	205.9198	220.3934	308.8399	340.1683	389.5156	460.0219	567.3674	618.5068	672.4569	797.0004	818.0433	872.1331	921.1354	942.9443	978.563	998.5428	1007.4471	1039.4132	1052.4957	1078.0699	1142.3862	1157.3715	1174.1928	1198.0552	1232.5013	1274.2389	1290.7044	1310.223	1367.4245	1382.3359	1405.899	1413.0859	1484.59	1490.2685	1516.3251	1826.8081	2878.6187	3002.8885	3020.2732	3030.3764	3049.9237	3095.6946	3114.6413	3121.071	3517.5174
CC12COC1C(N2)C=O	C[C@]12CO[C@H]1[C@@H](N2)C=O	
InChI=1S/C6H9NO2/c1-6-3-9-5(6)4(2-8)7-6/h2,4-5,7H,3H2,1H3	InChI=1S/C6H9NO2/c1-6-3-9-5(6)4(2-8)7-6/h2,4-5,7H,3H2,1H3/t4-,5-,6-/m0/s1
