20
gdb 11081	2.51897	2.10136	2.00763	1.7137	74.24	-0.2354	0.0775	0.3129	872.3359	0.175943	-348.987352	-348.979044	-348.9781	-349.019708	31.673	
C	-0.2560753613	 1.5606239963	-0.0008106236	-0.499495
C	 0.0098814196	 0.0729667785	 0.0026333569	 0.254825
C	 1.0718327769	-0.4987087513	-0.9814097114	-0.281705
C	 1.7507493393	-1.2854551341	 0.1821413945	-0.263406
C	 0.6836743856	-0.742039056	 1.1662503489	 0.418935
C	 1.0935243477	-0.2253320414	 2.520234378	-0.47521
O	-0.4598979433	-1.6321990303	 1.2361586526	-0.3339
C	-1.1722142314	-0.8889097734	 0.2232583238	-0.119951
H	 0.6760627134	 2.1342195376	 0.0489330106	 0.115503
H	-0.7759009189	 1.8621907554	-0.918811483	 0.119922
H	-0.8820308851	 1.8609936901	 0.8466956748	 0.118077
H	 0.6718898287	-1.1008214001	-1.8020372361	 0.09774
H	 1.7134461343	 0.2758876895	-1.4098700975	 0.098269
H	 1.7452456644	-2.3742896202	 0.1000572837	 0.107632
H	 2.7689322035	-0.9510009538	 0.4003291202	 0.095707
H	 1.912171798	 0.4965801959	 2.4347676502	 0.113533
H	 0.2527338318	 0.255813363	 3.0290790013	 0.120101
H	 1.4377230612	-1.0547666578	 3.1489949891	 0.128546
H	-2.0736409126	-0.4152108015	 0.6367271942	 0.091775
H	-1.4630228419	-1.5155990765	-0.6303346973	 0.093104
74.887	177.4703	180.8267	195.5175	279.354	327.3123	339.727	385.8998	459.0582	579.8421	659.8407	688.7724	742.9252	847.1342	866.4586	903.8025	932.8918	949.8155	963.6066	993.4217	1012.3523	1045.543	1135.3218	1153.5122	1181.8131	1188.2768	1215.5501	1230.8315	1239.8342	1262.257	1298.6218	1316.9491	1372.6825	1405.1625	1412.6139	1465.4663	1478.4023	1484.4327	1488.6241	1492.6778	1492.8668	1524.335	2992.5372	3018.738	3029.298	3035.8873	3050.9191	3059.4844	3079.7228	3091.0011	3096.3868	3098.1269	3108.9342	3122.2476
CC12CCC1(C)OC2	C[C@@]12CC[C@]1(C)OC2	
InChI=1S/C7H12O/c1-6-3-4-7(6,2)8-5-6/h3-5H2,1-2H3	InChI=1S/C7H12O/c1-6-3-4-7(6,2)8-5-6/h3-5H2,1-2H3/t6-,7-/m0/s1
