12
gdb 133433	3.2573	1.44717	1.002	1.2377	61.24	-0.2591	-0.0647	0.1944	1040.5831	0.079293	-510.129844	-510.122781	-510.121837	-510.161667	26.411	
F	 0.0497947798	 0.0709062999	 0.0038277557	-0.052444
C	 0.0082565641	 1.3942175924	 0.0110568671	 0.282839
N	-1.1281085151	 1.9609294269	 0.0283981808	-0.213265
N	-1.1335029783	 3.3178319701	 0.0353612358	-0.320052
C	-0.025232382	 4.1514252291	 0.025446628	 0.515124
O	-0.1067906138	 5.3571886415	 0.0324455996	-0.379577
N	 1.1694637798	 3.450773008	 0.0066298453	-0.415094
C	 1.3166254371	 2.0683775151	-0.0022198045	 0.288227
N	 2.4685371298	 1.5291663194	-0.0196319254	-0.521756
H	-2.0419416713	 3.7525506036	 0.0490343466	 0.291047
H	 2.0129972957	 4.0078959023	-0.0013495917	 0.283952
H	 2.3813750643	 0.5145204217	-0.0236418372	 0.240998
100.495	138.7838	321.472	344.1018	393.4531	413.1967	480.9267	533.0063	543.1591	622.5923	659.8604	729.5417	748.2618	755.0316	814.1751	860.5999	988.41	1116.8466	1208.6194	1317.8774	1322.1573	1399.2502	1441.5545	1486.1188	1703.5898	1728.4412	1841.0364	3517.9742	3615.7874	3659.4068
FC1=NNC(=O)NC1=N	FC1=NNC(=O)N[C]1[NH]	
InChI=1S/C3H3FN4O/c4-1-2(5)6-3(9)8-7-1/h(H3,5,6,8,9)	InChI=1S/C3H3FN4O/c4-1-2(5)6-3(9)8-7-1/h(H3,5,6,8,9)
