12
gdb 129571	3.31645	1.22797	0.99574	3.5921	59.52	-0.2947	-0.0931	0.2016	1109.2439	0.077449	-464.919785	-464.911991	-464.911046	-464.953309	26.937	
N	-0.1563523486	 1.526371018	 0.0509976996	-0.485786
C	 0.0183854595	 0.0850580598	-0.0368839006	-0.219572
C	-1.2717873881	-0.5905322087	 0.1983560107	 0.309168
N	-2.2839945039	-1.1190128318	 0.3666177407	-0.297568
C	 0.6194193015	-0.4268953076	-1.3313601461	 0.407213
N	 0.8104671597	 0.2988059433	-2.3924970488	-0.144551
O	 1.3801471662	-0.5434269758	-3.2821027513	-0.13164
N	 1.5174131062	-1.7986666251	-2.6886695701	 0.060459
N	 1.0619998071	-1.7233064766	-1.5211409688	-0.187798
H	 0.7432302121	 1.9845896536	-0.0576283338	 0.255206
H	-0.7492493575	 1.8553575663	-0.7053117038	 0.261811
H	 0.6911661158	-0.2307268552	 0.7712391722	 0.173057
37.3253	108.7757	190.649	219.389	250.388	333.0076	411.9323	485.6868	595.2851	672.1249	682.4394	702.9047	811.9621	879.3604	925.2371	969.8941	1060.5394	1107.2037	1131.9145	1194.9042	1264.9104	1333.6036	1394.532	1476.3062	1586.9135	1665.4169	2373.1811	3038.8997	3505.2537	3586.3888
NC(C#N)C1=NON=N1	N[C@@H](C#N)c1nonn1	
InChI=1S/C3H3N5O/c4-1-2(5)3-6-8-9-7-3/h2H,5H2	InChI=1S/C3H3N5O/c4-1-2(5)3-6-8-9-7-3/h2H,5H2/t2-/m0/s1
