16
gdb 126091	3.19149	1.58615	1.12791	3.8404	70.66	-0.2436	-0.0081	0.2355	1040.6039	0.126629	-434.053551	-434.04617	-434.045225	-434.085744	27.607	
C	 0.0928209643	 1.5815122394	-0.1245734981	-0.390182
C	-0.0596258308	 0.0752054202	 0.0711412499	 0.029568
O	 0.5246260151	-0.6210830467	-1.0531652205	-0.297842
C	 1.4798210655	-1.6353853201	-0.671514738	-0.179866
C	 1.56429901	-1.4771671266	 0.8115316193	 0.260245
C	 0.6912519491	-0.5149952705	 1.2198755609	 0.311838
N	 0.8455756235	-0.473848802	 2.5560221476	-0.340631
N	 1.786332984	-1.3810606672	 2.9502854533	-0.120218
N	 2.2202840353	-1.991399013	 1.8799440583	-0.282998
H	 1.1494911376	 1.8605258398	-0.1476960466	 0.13043
H	-0.3687284118	 1.8774590742	-1.070012086	 0.137331
H	-0.4015761298	 2.1283688303	 0.6856411958	 0.111687
H	-1.1306416671	-0.177428461	 0.1179528265	 0.098885
H	 1.1113133464	-2.622399531	-0.982151268	 0.12318
H	 2.4255378449	-1.4465190042	-1.1940425995	 0.126925
H	 0.3992576638	 0.0943803285	 3.2575543951	 0.281649
76.1019	149.1623	229.3195	237.4489	299.1512	447.0991	462.9167	556.4596	598.6808	677.4561	710.8618	736.2688	795.4418	854.412	989.6987	1001.0083	1035.9348	1042.1066	1053.6776	1083.149	1112.2709	1181.8323	1188.3005	1233.5718	1304.8814	1328.8514	1361.5922	1379.3447	1403.7885	1427.2713	1483.7768	1493.5253	1523.9175	1534.897	1608.8478	2974.6849	3010.6222	3040.2376	3045.0425	3114.2549	3132.2737	3663.7355
CC1OCC2=C1NN=N2	C[C@H]1OCc2c1[nH]nn2	
InChI=1S/C5H7N3O/c1-3-5-4(2-9-3)6-8-7-5/h3H,2H2,1H3,(H,6,7,8)	InChI=1S/C5H7N3O/c1-3-5-4(2-9-3)6-8-7-5/h3H,2H2,1H3,(H,6,7,8)/t3-/m1/s1
