13
gdb 131374	3.62471	1.65021	1.13396	1.9719	65.54	-0.2101	0.0027	0.2128	964.0854	0.093295	-448.952003	-448.945178	-448.944234	-448.983029	26.184	
O	 0.1030414511	 1.3780519596	 0.0039880294	-0.437253
C	 0.0729127938	 0.0287243423	 0.055989735	 0.292979
N	 0.0633047745	-0.7208305306	-1.038496334	-0.329088
N	 0.032533208	-2.0269666359	-0.6153987895	-0.360031
C	 0.0220963485	-2.0856914925	 0.7387140173	 0.418972
C	 0.0481177017	-0.7804053046	 1.2073100541	 0.205186
N	 0.0346966258	-0.9142803493	 2.5846119263	-0.42997
C	 0.0029161204	-2.2658313164	 2.8282973343	 0.007284
N	-0.0060539466	-3.0147889235	 1.7396309295	-0.358661
H	 0.1138533597	 1.6202993075	-0.9309522825	 0.304096
H	 0.0186891233	-2.7641176332	-1.2958430355	 0.274736
H	 0.0470425853	-0.1859862076	 3.276828836	 0.27498
H	-0.0127463754	-2.651055106	 3.8375827195	 0.136768
181.7131	210.7733	269.1063	295.1253	388.0062	407.5517	484.0355	560.7478	644.0944	645.7563	656.7311	706.8715	768.9828	828.3617	849.258	963.5804	1083.4668	1091.1529	1159.1078	1206.5689	1260.5024	1333.5559	1363.4338	1412.0658	1450.9377	1486.7012	1563.5906	1595.9492	1651.693	3249.3856	3686.1775	3705.8329	3790.9917
OC1=NNC2=C1NC=N2	Oc1n[nH]c2c1[nH]cn2	
InChI=1S/C4H4N4O/c9-4-2-3(7-8-4)6-1-5-2/h1H,(H3,5,6,7,8,9)	InChI=1S/C4H4N4O/c9-4-2-3(7-8-4)6-1-5-2/h1H,(H3,5,6,7,8,9)
