20
gdb 101278	2.25624	1.18676	0.87182	1.4503	81.75	-0.2467	0.0303	0.277	1373.6082	0.168648	-403.082911	-403.072759	-403.071814	-403.118998	37.272	
C	 0.2406212207	 1.6145966621	-0.626324171	-0.384488
C	 0.2041831998	 0.1735772202	-1.1429008147	-0.201587
C	 1.4317051423	-0.6304512816	-0.7083224291	 0.107956
O	 1.5504942691	-0.6705822037	 0.7178802642	-0.430559
C	 1.5016870956	-2.0611479283	-1.2290010992	-0.038853
N	 0.2663960991	-2.750637813	-1.6139518755	-0.330916
C	 1.3096465508	-2.5250302123	-2.6422764406	-0.254688
C	 1.0123750739	-1.6809075322	-3.767616576	 0.376368
C	 0.8170400018	-1.0229353817	-4.7551993911	-0.427618
H	 0.3346247224	 1.6389135541	 0.4625454338	 0.122156
H	 1.0935397883	 2.1619565547	-1.0434507485	 0.111869
H	-0.66940909	 2.1536282268	-0.9062556331	 0.107733
H	-0.6932024405	-0.3446886767	-0.7825805392	 0.100691
H	 0.1362996036	 0.1644931259	-2.2340552461	 0.121243
H	 2.3419197395	-0.1121524906	-1.037355422	 0.093405
H	 0.728478685	-1.0422515919	 1.0587236179	 0.279145
H	 2.2402433843	-2.636985196	-0.6718299241	 0.097059
H	 0.2813606109	-3.7241014597	-1.3219545606	 0.238706
H	 1.9182865145	-3.3869494148	-2.9124960204	 0.112609
H	 0.6303053588	-0.4293951114	-5.6157676644	 0.19977
20.4236	87.7971	129.3909	182.1329	199.0204	224.442	268.5688	310.8444	336.5937	381.7632	461.542	530.6972	587.0171	610.4038	639.7366	660.44	770.3288	804.9652	823.5462	874.1024	921.7261	978.2311	985.3993	1019.7295	1065.7967	1076.0384	1112.5737	1138.8004	1194.2183	1225.9736	1250.9583	1260.4653	1313.4453	1337.2353	1392.0968	1394.513	1407.4028	1423.1561	1452.0098	1484.0982	1496.0798	1509.5937	2237.0331	3027.2631	3035.3585	3042.7819	3093.6605	3103.6792	3106.7672	3116.82	3122.1245	3502.8758	3505.3118	3791.0209
CCC(O)C1NC1C#C	CC[C@@H](O)[C@H]1N[C@H]1C#C	
InChI=1S/C7H11NO/c1-3-5-7(8-5)6(9)4-2/h1,5-9H,4H2,2H3	InChI=1S/C7H11NO/c1-3-5-7(8-5)6(9)4-2/h1,5-9H,4H2,2H3/t5-,6+,7-/m0/s1
