20
gdb 64125	3.44969	1.00222	0.96831	3.4281	79.55	-0.2657	0.0305	0.2962	1312.8013	0.170623	-403.183385	-403.174189	-403.173244	-403.217618	34.522	
C	-0.1814462602	 1.5084453527	 0.1281189739	-0.419854
C	 0.0483723989	 0.0070113612	-0.0430767253	 0.390031
C	-1.2759446671	-0.7622758138	-0.0456814286	-0.423193
C	 0.9120781922	-0.32513971	-1.2968274928	-0.292393
C	 2.2841846746	-0.7241582819	-0.7037082338	-0.154555
C	 1.8543927735	-1.2967261542	 0.664949582	-0.094507
O	 0.839183969	-0.4204508066	 1.0921688744	-0.284954
C	 3.0497768187	-1.6498652735	-1.5272340335	 0.262313
N	 3.6527482452	-2.3966317712	-2.1715013896	-0.321988
H	 0.7671802159	 2.0526414869	 0.0948722401	 0.115287
H	-0.8325555691	 1.8952647964	-0.6619842928	 0.117089
H	-0.6535129935	 1.7084123962	 1.0941218194	 0.12937
H	-1.8846266013	-0.4882592563	-0.9138209552	 0.11806
H	-1.0981585728	-1.8414057969	-0.0834979569	 0.119505
H	-1.8468136431	-0.5403626499	 0.8603336415	 0.12598
H	 0.4894593624	-1.1672123925	-1.8507834608	 0.125076
H	 0.9908443274	 0.5202545822	-1.9827044878	 0.123611
H	 2.8911944639	 0.1706978977	-0.5303991309	 0.131111
H	 1.4946309136	-2.3306331121	 0.5441433632	 0.107048
H	 2.6554240422	-1.2918475443	 1.4079247233	 0.126964
38.9496	141.8716	147.2586	228.4531	262.3738	264.9254	328.525	347.0933	386.846	454.8936	499.4043	541.5938	556.8189	620.5745	774.53	867.1849	881.0807	900.0527	933.9878	966.7233	1003.9446	1036.8577	1044.8812	1068.6941	1105.0741	1166.477	1181.0979	1225.8547	1261.1424	1284.3064	1303.0918	1304.7838	1341.9874	1393.0882	1400.6796	1418.9692	1476.1562	1483.7882	1494.8465	1498.5106	1505.4945	1521.066	2358.3429	2983.8361	3034.9331	3040.2065	3058.2864	3072.8624	3103.0719	3106.1224	3112.8076	3114.8101	3120.9344	3124.9119
CC1(C)CC(CO1)C#N	CC1(C)C[C@@H](CO1)C#N	
InChI=1S/C7H11NO/c1-7(2)3-6(4-8)5-9-7/h6H,3,5H2,1-2H3	InChI=1S/C7H11NO/c1-7(2)3-6(4-8)5-9-7/h6H,3,5H2,1-2H3/t6-/m1/s1
