20
gdb 95491	2.16516	1.58243	0.97407	3.7003	83.86	-0.2186	-0.0482	0.1705	1232.4564	0.171816	-403.160433	-403.15177	-403.150826	-403.19419	32.658	
C	-0.3730038587	 1.3159299692	-0.0325098141	-0.318823
N	 0.0299666228	-0.0839662845	-0.0426977196	-0.069038
C	 0.8389353112	-0.4366949962	-1.2063409044	-0.170206
C	 0.4775282736	-1.8130784464	-1.7612407143	-0.242716
C	 0.5962969895	-2.9745729134	-0.825581527	-0.034915
C	 0.7811510519	-3.0108376318	 0.5003731261	-0.13177
C	 0.9296217069	-1.9273162887	 1.4969379424	 0.334113
O	 1.2780086866	-2.2176737433	 2.6273360279	-0.326535
C	 0.6623624808	-0.4469628085	 1.2116375898	-0.25436
H	 0.4760328644	 2.01991558	 0.0576474935	 0.0955
H	-0.9148439614	 1.5528428701	-0.9527755377	 0.118766
H	-1.0474068378	 1.4983008845	 0.8100496994	 0.123234
H	 0.6668398961	 0.3018197525	-1.9953919669	 0.101476
H	 1.918484436	-0.3965353069	-0.9732618104	 0.09188
H	-0.5578062971	-1.786419175	-2.1321179673	 0.126129
H	 1.0979877517	-2.0195036653	-2.6450160375	 0.108773
H	 0.5189768089	-3.9417225963	-1.3220295791	 0.105485
H	 0.8725021406	-3.9823369611	 0.9798248266	 0.105414
H	 1.6374091605	 0.0638610052	 1.3534042354	 0.10557
H	 0.0288558635	-0.1107978843	 2.038625637	 0.132023
47.7651	108.4673	172.8775	236.0859	312.0669	336.3227	358.7862	368.5103	400.7007	509.8642	521.3438	595.3745	687.8839	758.3498	820.5303	831.2833	890.5319	967.4304	990.2656	1020.6736	1041.5099	1069.3582	1085.0997	1147.0681	1154.7716	1215.5631	1228.7253	1262.6049	1294.7023	1303.1573	1344.9612	1376.015	1398.6536	1407.533	1428.0285	1449.2657	1450.2677	1468.7701	1491.2745	1502.063	1508.4868	1703.2086	1745.5974	2894.2428	2926.8553	2942.7663	3002.4345	3030.9411	3061.8636	3070.619	3075.8046	3106.6757	3127.6901	3166.9665
CN1CCC=CC(=O)C1	CN1CCC=CC(=O)C1	
InChI=1S/C7H11NO/c1-8-5-3-2-4-7(9)6-8/h2,4H,3,5-6H2,1H3	InChI=1S/C7H11NO/c1-8-5-3-2-4-7(9)6-8/h2,4H,3,5-6H2,1H3
