16
gdb 73762	2.37591	1.61006	0.97136	7.8793	78.09	-0.2158	-0.0613	0.1546	1155.5568	0.123105	-437.950619	-437.941409	-437.940465	-437.984891	32.718	
C	-0.005110969	 1.5486974584	 0.0150919972	-0.536274
C	-0.0029147872	 0.0515627907	 0.0057984719	 0.113362
C	-1.093564052	-0.7749512333	 0.0133128225	 0.284126
N	-2.3876005664	-0.3914613903	 0.0457190462	-0.57455
C	-0.7447169296	-2.2403454645	 0.0027231981	-0.440817
C	 0.7881194607	-2.2169983975	-0.0181125612	 0.31621
O	 1.5142847368	-3.1718940033	-0.0350323199	-0.284699
C	 1.2195773598	-0.7297661567	-0.0137872938	 0.235777
O	 2.3712906245	-0.3447759443	-0.0273319076	-0.34988
H	 1.0287993842	 1.9016348754	-0.0203785503	 0.161823
H	-0.5361969292	 1.9705365529	-0.8480811698	 0.120775
H	-0.4712185465	 1.958672123	 0.9201269309	 0.12491
H	-2.6373492389	 0.5812218788	-0.0144833771	 0.271608
H	-3.1280570764	-1.0653113003	-0.0397186092	 0.269988
H	-1.1168037429	-2.7696232676	 0.888561654	 0.145303
H	-1.1401681279	-2.7639249414	-0.8766299619	 0.142337
81.9115	90.9655	129.6127	141.8967	235.4939	249.033	316.953	323.4686	444.7353	481.4496	535.7254	564.7906	606.5923	625.2672	688.1375	743.8751	874.3673	960.518	981.6601	1024.4187	1055.2173	1084.3089	1144.0673	1222.6148	1249.321	1322.2956	1395.1886	1438.7762	1453.0589	1491.796	1494.8603	1635.807	1672.125	1790.9064	1857.6626	3011.3292	3029.8777	3057.9094	3065.5622	3118.3705	3611.874	3732.8938
CC1=C(N)CC(=O)C1=O	CC1=C(N)CC(=O)C1=O	
InChI=1S/C6H7NO2/c1-3-4(7)2-5(8)6(3)9/h2,7H2,1H3	InChI=1S/C6H7NO2/c1-3-4(7)2-5(8)6(3)9/h2,7H2,1H3
