18
gdb 22073	2.30754	1.3612	1.06618	1.9301	71.73	-0.2479	-0.0121	0.2358	1183.8373	0.144308	-476.162019	-476.152266	-476.151322	-476.196294	36.386	
C	-0.5892818301	 1.4817125562	 0.3376317222	-0.450813
C	-0.0388733754	 0.1061288504	 0.0008031227	 0.295954
O	-1.07562053	-0.8584064198	-0.1609812024	-0.467276
C	 0.9319710595	-0.0398244492	-1.2120293743	-0.268428
C	 1.8985784508	-0.902725827	-0.3459825864	 0.049113
O	 3.2479304444	-0.5134156527	-0.3921407506	-0.438066
C	 1.0977856777	-0.4453159689	 0.8613955519	 0.34542
N	 1.3196901692	-0.3370135867	 2.1018557318	-0.2567
O	 2.5611370468	-0.9422511957	 2.4299523404	-0.404508
H	 0.2123288841	 2.2220308157	 0.4080583345	 0.12521
H	-1.2974393614	 1.7961178617	-0.4349562673	 0.127141
H	-1.1112207186	 1.4627647432	 1.3008613972	 0.120261
H	-1.5213421437	-0.9518395224	 0.688839275	 0.28246
H	 0.4947892411	-0.5166353895	-2.089103267	 0.117126
H	 1.4047773842	 0.9062143826	-1.4813543476	 0.119647
H	 1.7706947697	-1.9781222544	-0.5384279803	 0.095332
H	 3.6317818117	-0.752283708	 0.4605264825	 0.297005
H	 2.6510384201	-0.7384372456	 3.3669755079	 0.311122
65.2286	124.514	160.2706	219.4948	258.2896	280.541	318.9482	334.8097	365.0803	368.5048	388.6123	431.196	441.0061	538.9856	605.828	704.8248	799.9716	830.5698	925.7361	932.8507	937.7581	958.4424	1016.0161	1104.1334	1117.8432	1162.9652	1199.5387	1215.5916	1242.0443	1280.5384	1341.5799	1358.3088	1390.2759	1399.0952	1406.8629	1463.0809	1486.1245	1489.6037	1776.0744	2992.573	3034.6265	3086.7169	3104.3692	3121.4739	3155.7121	3788.4415	3797.0556	3821.8642
CC1(O)CC(O)C1=NO	C[C@@]1(O)C[C@@H](O)C1=NO	
InChI=1S/C5H9NO3/c1-5(8)2-3(7)4(5)6-9/h3,7-9H,2H2,1H3	InChI=1S/C5H9NO3/c1-5(8)2-3(7)4(5)6-9/h3,7-9H,2H2,1H3/t3-,5-/m1/s1
