24
gdb 10218	2.15308	1.15398	0.81374	1.3365	82.04	-0.2609	0.0809	0.3418	1496.4433	0.221579	-351.410757	-351.399876	-351.398931	-351.447203	38.566	
C	 0.6733091562	 1.5703375413	-0.0136563746	-0.388267
C	 0.3851253934	 0.0652607861	-0.0157372025	-0.181043
C	 0.8268710786	-0.6763519662	 1.2647290814	 0.053648
C	-0.1114214091	-0.3533623887	 2.4465592023	-0.180554
C	 0.4614329355	-0.6884029826	 3.8275010075	-0.388817
C	 0.9101708035	-2.1969994594	 1.0254436749	-0.182524
C	 2.1476487095	-2.6459807621	 0.2566484046	-0.080193
O	 2.0735078144	-4.056912964	 0.1038461321	-0.421119
H	 1.747391922	 1.7643626328	 0.0850059384	 0.11231
H	 0.3370649029	 2.0354502207	-0.945786472	 0.111216
H	 0.1689166533	 2.087038074	 0.8089148713	 0.118366
H	-0.6897842164	-0.1062829069	-0.1659209768	 0.093566
H	 0.8818672351	-0.3807083042	-0.8852299224	 0.091825
H	 1.8334758046	-0.3160681366	 1.5310653405	 0.059071
H	-0.3641174451	 0.7129348235	 2.4269753792	 0.091893
H	-1.0588367403	-0.8896663653	 2.2978270806	 0.09344
H	-0.2521908602	-0.4385874652	 4.6190815699	 0.111194
H	 0.7020020744	-1.7513917574	 3.9291547526	 0.120018
H	 1.3802087924	-0.1225882484	 4.0191330008	 0.112378
H	 0.9093481831	-2.7367141372	 1.9784553543	 0.10212
H	 0.0185761996	-2.5340779998	 0.4808440175	 0.100608
H	 2.1998990668	-2.1478503177	-0.7241604206	 0.084863
H	 3.0521860478	-2.3543061494	 0.816120297	 0.082254
H	 2.846514918	-4.3462644371	-0.3893174258	 0.283748
65.1426	81.0612	89.6912	95.3222	173.2894	203.9876	244.6607	261.221	272.4935	278.9052	352.4819	424.6351	447.96	517.812	755.7474	780.5293	781.5836	862.2411	911.353	970.4042	1011.9316	1022.0979	1032.2048	1053.3847	1056.2535	1071.7055	1144.8512	1168.2741	1180.8524	1231.2723	1244.7359	1279.0711	1298.6162	1316.066	1328.5077	1336.4155	1364.9845	1388.6614	1392.6718	1412.8329	1414.2835	1461.2973	1482.5569	1489.0996	1490.6611	1500.7276	1503.9576	1506.6023	1509.7656	1527.703	2958.8397	2975.5368	2988.7063	3013.3663	3018.2912	3030.8273	3031.7815	3032.4905	3054.4201	3057.3762	3076.2956	3096.8572	3097.3885	3102.7307	3105.0752	3829.2958
CCC(CC)CCO	CCC(CC)CCO	
InChI=1S/C7H16O/c1-3-7(4-2)5-6-8/h7-8H,3-6H2,1-2H3	InChI=1S/C7H16O/c1-3-7(4-2)5-6-8/h7-8H,3-6H2,1-2H3
