19
gdb 112932	2.80181	0.85257	0.74485	2.8304	81.01	-0.2461	0.0225	0.2686	1597.5663	0.157606	-422.979344	-422.969395	-422.968451	-423.01647	34.631	
C	-0.6270741551	 1.1634506446	 0.2766514205	-0.497796
C	-0.3489680996	-0.254967571	 0.1096137899	 0.048839
C	-0.1236172167	-1.429863515	-0.0326033012	 0.111847
C	 0.154538413	-2.8449761401	-0.1976904671	-0.044807
C	 0.710330011	-3.6149879847	 1.0335057071	-0.325234
C	-0.6018023106	-4.4172385255	 0.9619096455	 0.130708
C	-1.607582946	-4.223997266	 2.0850677475	-0.063201
O	-2.8941970516	-4.6313270824	 1.6672535482	-0.421942
O	-1.0407774628	-3.6808035706	-0.2131391557	-0.309538
H	-0.3299155836	 1.5147844858	 1.2707866837	 0.150705
H	-0.0905109003	 1.7647473863	-0.4652514866	 0.15194
H	-1.6968020941	 1.3682442131	 0.1587553199	 0.155801
H	 0.7321895046	-3.0097157955	-1.1156034913	 0.105072
H	 1.6210672151	-4.18108774	 0.8379523736	 0.116451
H	 0.8387514323	-3.008285356	 1.9308770996	 0.119938
H	-0.4990050101	-5.4830284179	 0.7257891021	 0.084527
H	-1.3354671864	-4.83703086	 2.9521980587	 0.104992
H	-1.5989141221	-3.1671605916	 2.3988709464	 0.088083
H	-3.0560370069	-4.1654411036	 0.8369281393	 0.293613
27.9363	31.5353	98.6682	123.9054	146.5777	229.1857	305.5694	324.4013	388.3057	460.8085	478.1922	504.213	522.4972	702.1928	789.5955	875.823	890.3632	948.655	970.7246	1028.3443	1050.3027	1052.361	1060.9897	1084.2661	1098.3215	1163.817	1188.0327	1222.0026	1251.6288	1263.1109	1306.5342	1344.603	1364.7526	1402.8642	1414.005	1437.0499	1475.7939	1477.7194	1488.9062	1498.3806	2365.8579	2971.5731	3023.1134	3029.1955	3037.2623	3066.8139	3087.4269	3090.8989	3092.1082	3146.5526	3777.3429
CC#CC1CC(CO)O1	CC#C[C@H]1C[C@@H](CO)O1	
InChI=1S/C7H10O2/c1-2-3-6-4-7(5-8)9-6/h6-8H,4-5H2,1H3	InChI=1S/C7H10O2/c1-2-3-6-4-7(5-8)9-6/h6-8H,4-5H2,1H3/t6-,7-/m0/s1
