20
gdb 55746	3.94311	1.03979	0.95413	3.4617	79.91	-0.2444	0.0325	0.2769	1292.0314	0.171245	-403.138883	-403.12998	-403.129036	-403.174389	33.315	
N	-0.1281204642	 1.3596870579	 0.0941768033	-0.526159
C	 0.0837760215	 0.0131652502	-0.0113969448	 0.422316
O	 1.2013870214	-0.4593055018	-0.0855773059	-0.354173
C	-1.1971244031	-0.8255311689	-0.0149902893	-0.502894
C	-0.9467544974	-2.3126429566	-0.0102273123	 0.40733
C	-0.1815532233	-3.1494654863	 1.0620119883	-0.241959
C	-0.6663007909	-4.1737695119	-0.0026065604	-0.049458
C	-2.0330737503	-3.4314563944	 0.0063225174	-0.276407
C	-0.2022034161	-3.1613449023	-1.0874711441	-0.240157
H	 0.6685256671	 1.9717564461	 0.0286773794	 0.259306
H	-1.0486549181	 1.7616276227	 0.0690752187	 0.257296
H	-1.8053521028	-0.541720271	 0.8545721031	 0.118179
H	-1.7871708237	-0.5478637337	-0.8997666459	 0.120108
H	 0.8923928194	-2.9703239803	 1.1302370508	 0.110702
H	-0.6478405898	-3.2159914893	 2.0504619495	 0.077228
H	-0.5074691067	-5.2523542567	 0.0022391389	 0.067064
H	-2.6350508738	-3.5169302288	 0.916783994	 0.08144
H	-2.6521584759	-3.5270888377	-0.8915298698	 0.081499
H	-0.6881728303	-3.2385980989	-2.0656553042	 0.076733
H	 0.8696210371	-2.9818462084	-1.1788856567	 0.112006
11.9133	83.2024	128.4627	139.554	287.7249	307.9151	351.4135	498.6099	542.1924	544.5334	586.9081	639.1106	720.8084	776.1828	807.0693	844.3784	890.2698	898.5173	952.3224	964.6587	980.0001	991.3319	995.1447	1078.1288	1098.6743	1105.191	1127.1173	1143.9548	1148.6848	1157.9267	1221.6376	1224.7205	1238.7054	1274.593	1276.0268	1328.9068	1393.6185	1454.6378	1497.7541	1500.5415	1556.5912	1616.3875	1794.9475	3009.6094	3032.3991	3043.5045	3044.5803	3049.0527	3096.1016	3107.5107	3129.6522	3134.7071	3601.5233	3738.044
NC(=O)CC12CC(C1)C2	NC(=O)C[C@@]12C[C@@H](C1)C2	
InChI=1S/C7H11NO/c8-6(9)4-7-1-5(2-7)3-7/h5H,1-4H2,(H2,8,9)	InChI=1S/C7H11NO/c8-6(9)4-7-1-5(2-7)3-7/h5H,1-4H2,(H2,8,9)/t5-,7-
