21
gdb 107948	2.80341	1.55326	1.31447	0.2751	86.49	-0.2162	0.0092	0.2254	1081.0267	0.183728	-349.908974	-349.90121	-349.900266	-349.941075	31.654	
C	-0.0689723925	 1.5486570971	 0.0376655978	-0.379773
C	 0.0773904852	 0.0229292716	-0.0096537189	-0.317918
C	 0.766830085	-0.474604259	-1.2536650246	 0.370143
C	 2.2042642315	-0.169764224	-1.7517191355	-0.295747
C	 1.6152661842	-1.1196828752	-2.816671542	-0.048954
C	 0.9497283395	-1.9874086226	-1.6898623409	-0.104914
C	-0.3917469474	-2.4588459739	-2.2239983997	-0.111995
C	-0.8503750474	-1.4076411092	-2.9097435373	-0.111938
C	 0.2408384507	-0.3634361266	-2.748273753	-0.090805
H	 0.9072545522	 2.0435900592	 0.0054562256	 0.118006
H	-0.6551129292	 1.9150580315	-0.8117268452	 0.11719
H	-0.5750365133	 1.8673184366	 0.9539775811	 0.111803
H	 0.6378963063	-0.3225938171	 0.8692120556	 0.095911
H	-0.9124690603	-0.4485338789	 0.0483714284	 0.102453
H	 2.4107856873	 0.8568150756	-2.0693543009	 0.086786
H	 3.025837052	-0.5604717676	-1.14291095	 0.084856
H	 2.0962622477	-1.4986724851	-3.7224036819	 0.065088
H	 1.5675327123	-2.6494525899	-1.0804076693	 0.055714
H	-0.8434257634	-3.4278758302	-2.0636194283	 0.09865
H	-1.776114691	-1.2918429746	-3.4560043736	 0.098206
H	 0.1422099905	 0.6178628323	-3.2152757077	 0.05724
85.1943	167.976	186.0305	264.803	333.8816	426.1418	457.5871	534.0894	611.1796	689.9022	714.794	761.0956	789.7474	807.4899	825.5245	900.3036	903.8329	910.1073	941.5746	948.7545	953.8302	989.5484	998.857	1042.442	1060.0612	1070.2954	1119.3131	1128.6728	1140.3738	1160.0058	1201.5518	1210.9007	1215.1528	1253.7054	1283.4349	1308.143	1318.6011	1334.0503	1374.9307	1409.7893	1478.4754	1498.7157	1505.9507	1517.897	1628.5481	3014.3956	3034.1235	3038.7094	3047.6528	3077.2217	3095.0466	3100.9338	3102.9738	3105.3854	3107.5077	3216.4252	3243.5448
CCC12CC3C1C=CC23	CC[C@@]12C[C@H]3[C@@H]1C=C[C@@H]23	
InChI=1S/C9H12/c1-2-9-5-6-7(9)3-4-8(6)9/h3-4,6-8H,2,5H2,1H3	InChI=1S/C9H12/c1-2-9-5-6-7(9)3-4-8(6)9/h3-4,6-8H,2,5H2,1H3/t6-,7-,8+,9+
