20
gdb 72416	2.69851	1.63382	1.349	3.9608	78.12	-0.2307	0.0344	0.2651	1034.2947	0.173821	-403.212887	-403.205233	-403.204289	-403.244466	31.446	
C	-0.0426576396	 1.5066000785	 0.017506239	-0.482168
C	 0.0306932115	-0.0070305107	 0.0184829248	 0.305282
C	 0.7435388606	-0.6642607841	-1.2011101216	-0.231137
C	 0.9801453216	-2.1266406238	-0.7117055216	-0.225784
C	 0.3739928588	-2.1197281578	 0.7277609584	-0.140417
C	 0.7493965883	-0.7028889041	 1.1981013746	-0.241541
C	-1.1374029784	-1.9753417963	 0.5022807695	 0.409982
O	-1.9991320594	-2.8238100063	 0.5335119056	-0.390415
N	-1.2931031554	-0.6443059628	 0.1622349853	-0.323004
H	 0.963408833	 1.9365676719	-0.0029280669	 0.123329
H	-0.5789169006	 1.8788551954	-0.8629426525	 0.117323
H	-0.5583372772	 1.8740540756	 0.9096051593	 0.127963
H	 0.1185737824	-0.6100145321	-2.0966767575	 0.098554
H	 1.6854021616	-0.1535456474	-1.4244810375	 0.099913
H	 0.505718369	-2.8760261717	-1.3492849442	 0.119215
H	 2.0470747182	-2.3612996779	-0.6631794	 0.104198
H	 0.643105125	-2.9716891417	 1.3483625884	 0.083836
H	 1.8274983346	-0.5168070947	 1.20306938	 0.096613
H	 0.3208056561	-0.427973479	 2.1649252199	 0.107692
H	-2.0919275101	-0.359549301	-0.386419313	 0.240566
148.231	223.3364	239.1473	274.3639	293.0704	420.7926	467.961	488.3092	498.6114	592.209	597.9103	697.5955	771.2527	811.8996	831.2672	859.1113	888.3782	901.1584	946.9644	962.1245	973.105	1012.4224	1030.9932	1097.7506	1112.8039	1149.4377	1188.4858	1205.0269	1227.1166	1250.7632	1263.0965	1291.9012	1304.9087	1314.9161	1340.6053	1397.709	1416.5061	1483.8367	1490.9489	1492.0964	1498.0036	1512.3494	1840.8916	3032.5926	3048.8095	3057.1595	3064.334	3091.1625	3097.7479	3112.8129	3113.7576	3117.6497	3144.862	3608.228
CC12CCC(C1)C(=O)N2	C[C@@]12CC[C@@H](C1)C(=O)N2	
InChI=1S/C7H11NO/c1-7-3-2-5(4-7)6(9)8-7/h5H,2-4H2,1H3,(H,8,9)	InChI=1S/C7H11NO/c1-7-3-2-5(4-7)6(9)8-7/h5H,2-4H2,1H3,(H,8,9)/t5-,7+/m0/s1
