20
gdb 85882	2.0802	1.55502	1.14432	3.0067	79.28	-0.2625	0.0199	0.2824	1172.2434	0.168564	-403.166794	-403.156978	-403.156033	-403.201394	36.211	
C	-0.2431894334	 1.1772870592	-1.3273734676	-0.410794
C	 0.313679145	-0.1219081376	-0.7858594768	 0.153366
O	 1.6899118588	-0.3400037538	-1.15239414	-0.329583
C	 2.1215167146	-0.5133204129	 0.2251554423	 0.41354
C	 2.5760765399	-1.9461398381	 0.4722427424	-0.428287
C	 3.1884523949	 0.5050030457	 0.591481503	-0.429451
C	 0.6604488471	-0.2297815087	 0.7330835119	-0.305075
C	 0.4452382926	 0.946937754	 1.5533765773	 0.301378
N	 0.2765237138	 1.8886247541	 2.2033814328	-0.344032
H	 0.3341645735	 2.0360459423	-0.9757884441	 0.139208
H	-0.2077051811	 1.1584903846	-2.4207548993	 0.132116
H	-1.2852301711	 1.3085454928	-1.0180681378	 0.12804
H	-0.3107810599	-0.9649613561	-1.1099437555	 0.08688
H	 3.4705495528	-2.1594265029	-0.1207185773	 0.132363
H	 2.8173639235	-2.1025640352	 1.5288548412	 0.123868
H	 1.7986065763	-2.6587150437	 0.1819599098	 0.12052
H	 2.8434006093	 1.5250152327	 0.4099862038	 0.137251
H	 3.4674695038	 0.4177584783	 1.6462605812	 0.127539
H	 4.0801750905	 0.3291392653	-0.0180612829	 0.127794
H	 0.2040375891	-1.0909456498	 1.2254779453	 0.12336
46.1953	134.5079	160.0093	200.2187	215.0415	232.1137	266.8279	329.3406	347.3586	381.8508	401.5704	463.4865	532.8304	574.8515	675.3507	801.9354	821.243	873.6206	926.3535	936.6727	978.2531	998.9969	1004.61	1085.7011	1096.5479	1149.5526	1167.8287	1186.8625	1243.9016	1263.6278	1309.9011	1346.8282	1389.598	1402.0949	1414.6969	1417.6002	1471.4745	1479.5639	1481.1381	1490.1665	1493.5076	1502.3369	2351.3264	3011.4587	3035.8789	3042.9221	3044.6493	3090.679	3109.4494	3114.6858	3114.8035	3117.8858	3128.9914	3132.2948
CC1OC(C)(C)C1C#N	C[C@H]1OC(C)(C)[C@H]1C#N	
InChI=1S/C7H11NO/c1-5-6(4-8)7(2,3)9-5/h5-6H,1-3H3	InChI=1S/C7H11NO/c1-5-6(4-8)7(2,3)9-5/h5-6H,1-3H3/t5-,6+/m1/s1
