22
gdb 6796	5.96965	0.67573	0.63319	2.2754	76.35	-0.2471	0.0788	0.3259	1808.8003	0.197212	-387.335469	-387.324732	-387.323788	-387.372385	37.049	
C	 0.0605518644	 1.4820819702	 0.1282501665	-0.392581
C	-0.0209761641	-0.0414976507	-0.0136248125	 0.161638
C	-1.4575413868	-0.5220826262	-0.1897960711	-0.386597
O	 0.6995597626	-0.513299468	-1.1463336493	-0.257726
C	 2.1048843961	-0.5034998748	-1.0194447989	-0.062138
C	 2.6949521733	-1.2088643483	-2.2338970064	-0.178389
C	 4.2170773846	-1.2432036067	-2.2111434676	-0.072387
O	 4.6525290051	-1.916256899	-3.3826232555	-0.419614
H	 1.088679619	 1.8243220592	 0.2767730338	 0.114477
H	-0.3362993126	 1.9661342187	-0.7701126175	 0.121434
H	-0.5264225715	 1.8167839906	 0.9895458996	 0.112988
H	 0.4038484379	-0.5052367523	 0.8939038807	 0.060205
H	-1.8951040748	-0.0839016383	-1.0925501285	 0.122424
H	-1.4857430542	-1.6101068785	-0.2907106237	 0.119968
H	-2.0716520858	-0.2324074243	 0.6680464106	 0.109802
H	 2.4942476142	 0.5258849251	-0.9561025071	 0.084671
H	 2.4067177691	-1.017555803	-0.0897055963	 0.080154
H	 2.3114041067	-2.2334198075	-2.2810007172	 0.113823
H	 2.3613908639	-0.699879887	-3.1444206838	 0.115541
H	 4.6147744569	-0.215353708	-2.1720957552	 0.083853
H	 4.5676708632	-1.760194948	-1.3022726602	 0.083572
H	 5.6136797028	-1.9406221434	-3.3748501105	 0.284883
35.6237	58.5309	103.4262	111.997	138.7179	208.038	240.831	265.167	272.5884	286.0419	400.5741	417.9207	493.6797	530.1056	777.5537	829.5199	888.667	925.5203	929.8325	943.9196	1029.8146	1055.8654	1087.0874	1120.1714	1153.7446	1169.7505	1180.6898	1200.0875	1230.0814	1246.4055	1302.469	1305.3729	1317.9522	1364.9572	1372.6166	1396.419	1412.9306	1442.6495	1466.7235	1480.4992	1485.4366	1495.123	1498.4831	1509.947	1523.8568	1534.9927	2942.416	2949.9102	2957.025	2974.5	2981.9513	3036.7483	3042.5788	3051.6307	3097.7386	3106.9295	3112.7205	3116.0382	3122.7016	3830.9204
CC(C)OCCCO	CC(C)OCCCO	
InChI=1S/C6H14O2/c1-6(2)8-5-3-4-7/h6-7H,3-5H2,1-2H3	InChI=1S/C6H14O2/c1-6(2)8-5-3-4-7/h6-7H,3-5H2,1-2H3
