18
gdb 40859	3.97777	1.45385	1.34168	2.846	74.04	-0.2425	0.0765	0.3191	986.8883	0.149003	-401.851863	-401.844953	-401.844009	-401.883403	27.495	
C	 0.0218329513	 1.5060943188	-0.1617982183	-0.251295
C	 1.5333588345	 1.3916543739	 0.0312105979	-0.038466
C	 1.40025054	 0.1603220171	 0.8398100653	-0.052376
C	-0.0134060654	-0.0134365896	 0.1587608537	-0.169529
C	 0.779910591	-0.6108647579	-1.0080336304	 0.34366
C	 0.9068665744	-2.1308067216	-1.2032826314	-0.141337
O	 0.4220154093	-2.0302644531	-2.5594502483	-0.276625
C	 0.3669678653	-0.5905852223	-2.4870953523	-0.144651
N	 2.0162560087	 0.0727085307	-0.520288226	-0.183727
H	-0.4264351463	 2.1009192889	 0.6379305489	 0.110314
H	-0.3715172684	 1.8323656002	-1.1309669638	 0.101192
H	 2.2763847758	 2.1755960513	 0.09182163	 0.10282
H	 1.8677089238	-0.1969664039	 1.7470104009	 0.102953
H	-0.9052937696	-0.4895756225	 0.5619992823	 0.07977
H	 1.938904758	-2.498980171	-1.1561553742	 0.111641
H	 0.2610099086	-2.7621133067	-0.5801173384	 0.09885
H	-0.6366142314	-0.2024290825	-2.7057627703	 0.097759
H	 1.0956803403	-0.1115343698	-3.1533833957	 0.109048
77.7127	170.2806	220.2649	333.5656	426.4197	470.2854	552.149	735.7752	779.3127	788.298	832.8194	844.7871	876.8717	913.0646	921.1293	955.5179	966.4348	984.3752	997.6077	1004.8127	1033.433	1062.9516	1105.0804	1132.3749	1145.6591	1156.9046	1163.3489	1170.3625	1178.1535	1208.7166	1242.844	1262.1813	1302.1278	1313.3853	1332.5792	1388.3807	1496.9608	1499.4299	1524.0222	3002.9179	3016.055	3040.8067	3052.4052	3062.0395	3106.079	3133.5253	3203.2369	3217.4781
C1C2C3C1C1(COC1)N23	C1[C@H]2[C@H]3[C@@H]1C1(COC1)N23	
InChI=1S/C7H9NO/c1-4-6-5(1)8(6)7(4)2-9-3-7/h4-6H,1-3H2	InChI=1S/C7H9NO/c1-4-6-5(1)8(6)7(4)2-9-3-7/h4-6H,1-3H2/t4-,5+,6-,8?/m1/s1
