19
gdb 108216	3.13644	1.4172	1.30937	2.116	69.93	-0.2465	0.0783	0.3248	1038.6217	0.16111	-460.15866	-460.151027	-460.150082	-460.190679	30.359	
O	-0.025338165	 1.3974792985	-0.091385262	-0.421583
C	-0.0035788368	-0.0156130048	 0.0029851158	-0.15174
C	-1.4015998923	-0.580462625	 0.1132418625	 0.357576
C	-2.2555038667	-0.1222601539	 1.3093141934	-0.09633
O	-3.3800305675	-1.0283270093	 1.2758969941	-0.284396
C	-3.1587552169	-1.87712662	 0.143121026	 0.069783
C	-3.3095108887	-1.017923799	-1.1187486906	-0.082881
O	-2.1245180609	-0.1953294667	-1.0816367763	-0.332466
C	-1.6374945181	-2.0981145809	 0.1646515784	-0.290696
H	-0.6211495788	 1.6067105752	-0.8205645102	 0.294927
H	 0.4979224459	-0.4715479905	-0.8645106425	 0.09487
H	 0.574335193	-0.2655281214	 0.8985811755	 0.110584
H	-1.7317526097	-0.217390691	 2.2689631583	 0.099637
H	-2.5931474304	 0.9101163871	 1.1847636299	 0.112949
H	-3.816486942	-2.7428853215	 0.2131150861	 0.086262
H	-3.3242004783	-1.6055334705	-2.0457861791	 0.099781
H	-4.2075240199	-0.3934349688	-1.069907448	 0.112183
H	-1.2419464923	-2.6172226689	-0.7107915663	 0.10911
H	-1.2979135245	-2.5749882685	 1.085673755	 0.11243
99.6549	168.1785	201.2367	314.2131	352.6301	415.4084	440.5629	455.5288	488.5011	606.0869	667.8316	792.1886	818.2097	865.5691	873.9621	921.2462	927.0888	961.8054	989.6488	996.3494	1034.1111	1060.7425	1069.9928	1112.4589	1135.3596	1169.3813	1193.8893	1200.7508	1218.1261	1262.1259	1284.6269	1290.1149	1324.6157	1366.4759	1384.7749	1387.6835	1439.3364	1480.8998	1494.6432	1511.452	1519.1918	2988.3512	3017.8146	3022.8979	3075.698	3078.4261	3080.0871	3090.4923	3131.3713	3141.1353	3796.2037
OCC12COC(CO1)C2	OC[C@@]12CO[C@@H](CO1)C2	
InChI=1S/C6H10O3/c7-3-6-1-5(2-9-6)8-4-6/h5,7H,1-4H2	InChI=1S/C6H10O3/c7-3-6-1-5(2-9-6)8-4-6/h5,7H,1-4H2/t5-,6+/m1/s1
