20
gdb 111329	2.47656	1.41463	1.06938	1.9164	78.7	-0.2415	0.075	0.3165	1200.6153	0.170469	-403.078527	-403.06994	-403.068996	-403.111857	32.829	
C	-0.1181532398	 1.6072471583	 0.0745459505	-0.384964
C	 0.0325804019	 0.087187861	-0.0461215905	-0.190608
C	 0.7406339395	-0.54024537	 1.1487054282	-0.118301
C	-0.0388942863	-0.6301969492	 2.4830834563	 0.022503
O	-1.1619216464	-1.4920498709	 2.2680506226	-0.245546
C	 0.1155062559	-2.0929376454	 2.5414219404	-0.061325
C	 0.8776699571	-2.0902286901	 1.2297886294	 0.338877
C	 0.9284239093	-3.1005621824	 0.1562711404	-0.302057
N	 2.1000829181	-2.8575182576	 1.0305419666	-0.377224
H	 0.8570605185	 2.1007415896	 0.1559463868	 0.111601
H	-0.6300888366	 2.0241502684	-0.7979409917	 0.115917
H	-0.702059908	 1.8783552531	 0.960632	 0.121656
H	-0.9515895323	-0.3825343456	-0.1472203888	 0.117763
H	 0.5899062498	-0.1538550214	-0.9609717542	 0.09026
H	 1.7212766984	-0.075466996	 1.3171355423	 0.076337
H	-0.1149281872	 0.0997014916	 3.2803050013	 0.104996
H	 0.1910892987	-2.7750270684	 3.3796043342	 0.111864
H	 0.4512220026	-4.0678174095	 0.2869212218	 0.122932
H	 0.9653108229	-2.7480978023	-0.8715748332	 0.114351
H	 2.7927665337	-2.2966918433	 0.5391488776	 0.230968
85.534	122.097	157.2964	205.1757	261.5581	272.7513	300.0937	430.7737	501.1246	558.9689	622.6909	754.4244	801.4074	846.124	857.9209	873.109	894.6847	912.3442	937.1807	969.7879	981.2397	986.7555	1039.6779	1050.4486	1068.8359	1098.7742	1119.7135	1162.6468	1200.0796	1210.4734	1236.6914	1261.0404	1280.2256	1293.8425	1340.6291	1371.276	1385.531	1412.5194	1428.5723	1486.9509	1500.5484	1505.2936	1516.8163	3020.4057	3024.1298	3030.6425	3071.8278	3099.3718	3105.2176	3106.686	3184.6815	3191.3663	3201.4723	3487.6678
CCC1C2OC2C11CN1	CC[C@H]1[C@H]2O[C@H]2[C@]21CN2	
InChI=1S/C7H11NO/c1-2-4-5-6(9-5)7(4)3-8-7/h4-6,8H,2-3H2,1H3	InChI=1S/C7H11NO/c1-2-4-5-6(9-5)7(4)3-8-7/h4-6,8H,2-3H2,1H3/t4-,5+,6+,7+/m0/s1
