15
gdb 47885	2.37627	1.69644	1.25675	3.666	61.77	-0.2372	-0.0689	0.1683	1000.5398	0.111874	-494.910012	-494.902129	-494.901185	-494.943087	28.582	
O	-0.0175090102	 1.4135483788	 1.6479915836	-0.281886
C	-0.0727884819	 1.5953232828	 0.4610864214	 0.297965
C	-1.3823896026	 1.7288374887	-0.3125096563	-0.18839
O	-1.1477243842	 2.0153780814	-1.6795581978	-0.232634
C	-0.7895451273	 3.3528209407	-1.916840325	-0.006236
O	 0.2911743144	 3.7747999636	-1.1248026941	-0.232632
C	 1.4215974298	 2.9263460885	-1.2157210598	-0.188394
C	 1.2256862397	 1.648930968	-0.4025984163	 0.297972
O	 2.0232693342	 0.7500944504	-0.3743858704	-0.281881
H	-1.9043951135	 0.7672772428	-0.2748975728	 0.156206
H	-2.0164744257	 2.4833792235	 0.1740970791	 0.136037
H	-0.5484858322	 3.3997908522	-2.9869487111	 0.115816
H	-1.6100968455	 4.0400668084	-1.6722368414	 0.115813
H	 1.6685524245	 2.6620192738	-2.2536650547	 0.136041
H	 2.2672470505	 3.4779477064	-0.7925056347	 0.156203
62.7113	81.2694	217.7432	298.5761	319.4618	350.7747	387.0014	392.8279	531.8414	570.7421	637.7489	657.0852	698.7024	927.8715	955.2479	977.1933	1031.9039	1035.3691	1123.0485	1152.5474	1170.0142	1189.6366	1255.3122	1274.7512	1321.1515	1343.1014	1349.7989	1432.9227	1446.8783	1455.303	1505.8655	1829.7029	1835.8549	3009.5585	3014.7036	3015.1151	3064.363	3091.5131	3091.7806
O=C1COCOCC1=O	O=C1COCOCC1=O	
InChI=1S/C5H6O4/c6-4-1-8-3-9-2-5(4)7/h1-3H2	InChI=1S/C5H6O4/c6-4-1-8-3-9-2-5(4)7/h1-3H2
