19
gdb 119543	3.03708	1.14928	0.92862	2.7053	77.64	-0.2304	-0.0104	0.22	1314.8303	0.157362	-423.009589	-423.000533	-422.999589	-423.044169	33.181	
C	-0.0690768277	 1.5407708739	 0.1148518258	-0.389557
C	-0.144323345	 0.0258364106	 0.1349466831	-0.06768
O	 0.8735217205	-0.4562757706	 1.0218986732	-0.288815
C	 0.9140139658	-1.8180666164	 1.1257253709	 0.34516
C	-0.0553154843	-2.5928470009	 2.0226686946	-0.340591
C	 1.407677693	-2.6938449303	 2.3033187289	-0.14105
C	 2.0263411191	-3.7131965933	 1.3345193014	-0.354274
C	 1.5975954836	-2.7646557726	 0.1773075399	 0.346063
O	 1.8928804205	-2.6977607612	-0.9825521195	-0.324384
H	 0.9111629687	 1.8717877099	-0.2388401972	 0.133713
H	-0.8345152626	 1.9472398022	-0.552770409	 0.11898
H	-0.2295284986	 1.9488754503	 1.1169283973	 0.12513
H	-1.1285360931	-0.3168168173	 0.4878724677	 0.093229
H	 0.0188880471	-0.391949145	-0.866529393	 0.124067
H	-0.6169687931	-1.9284422613	 2.6720192371	 0.129675
H	-0.6099593471	-3.4542837508	 1.6598064213	 0.119261
H	 1.8626844214	-2.338740527	 3.2176925807	 0.116465
H	 3.1171586646	-3.7792977684	 1.3769958154	 0.134721
H	 1.6000454175	-4.7204164218	 1.3469817714	 0.119887
56.1799	71.3039	119.2883	164.2841	237.5474	280.4396	344.9183	368.2705	429.185	507.9452	568.4698	659.89	711.932	820.3119	822.3407	835.9394	890.5885	916.2776	955.1774	977.2449	1016.081	1019.2663	1059.4771	1079.2275	1086.4185	1138.735	1144.8324	1185.0772	1197.6853	1250.8179	1287.8757	1295.3147	1366.7061	1404.1305	1434.5744	1456.705	1483.3125	1492.7708	1500.4327	1525.1444	1875.3173	2993.5473	3045.8022	3047.3052	3056.9545	3112.0385	3113.3926	3120.6965	3124.824	3204.6984	3217.2722
CCOC12CC1CC2=O	CCO[C@]12C[C@H]1CC2=O	
InChI=1S/C7H10O2/c1-2-9-7-4-5(7)3-6(7)8/h5H,2-4H2,1H3	InChI=1S/C7H10O2/c1-2-9-7-4-5(7)3-6(7)8/h5H,2-4H2,1H3/t5-,7-/m1/s1
