13
gdb 123531	4.09994	1.83445	1.26738	3.472	73.52	-0.26	-0.0699	0.1901	890.7443	0.094549	-411.82839	-411.822854	-411.82191	-411.858259	22.083	
C	 0.0990969102	 1.2838859063	 0.0083863844	 0.038625
N	 1.3494606605	 1.7522602157	-0.0008162619	-0.232591
N	 2.0651268822	 0.6169081157	-0.0139298674	 0.046714
N	 3.3959316987	 0.6045212205	-0.0265883136	-0.189086
C	 3.9219499136	-0.6006750075	-0.0382754969	 0.014134
C	 3.1793781224	-1.8092234028	-0.0379779562	-0.114707
C	 1.8098076221	-1.7587071486	-0.0247401309	-0.205526
C	 1.2119506136	-0.4858671505	-0.0119972057	 0.443424
N	-0.0483348687	-0.0584837253	 0.0022935074	-0.348503
H	-0.7401901261	 1.9640309058	 0.0201186956	 0.137422
H	 5.0062624757	-0.6168688847	-0.0486207577	 0.13961
H	 3.7064432933	-2.7554426981	-0.0482326057	 0.126668
H	 1.1829176824	-2.6416434665	-0.0237294513	 0.143818
232.4519	251.0323	436.8351	467.3401	579.5153	614.8747	655.5751	679.5923	783.4677	785.5352	830.1681	915.9175	933.3427	956.5591	964.7977	997.5246	1047.8589	1142.7767	1202.6817	1216.4727	1284.8194	1312.5328	1328.9354	1365.4085	1407.9908	1452.9897	1534.0517	1569.0284	1665.2567	3195.2087	3209.8717	3224.2918	3257.7196
C1=NN2N=CC=CC2=N1	c1nn2ncccc2n1	
InChI=1S/C5H4N4/c1-2-5-6-4-8-9(5)7-3-1/h1-4H	InChI=1S/C5H4N4/c1-2-5-6-4-8-9(5)7-3-1/h1-4H
