12
gdb 131632	2.28189	1.73659	0.99702	3.7151	63.62	-0.2926	-0.0723	0.2202	1065.7356	0.076472	-468.783037	-468.775083	-468.774139	-468.816401	27.626	
O	 0.2879388001	 1.0102105545	-0.7245493898	-0.389479
C	-0.1278961906	 0.2464852051	 0.3758382933	-0.1872
C	-1.4427807973	-0.4438131097	 0.1491729175	 0.313494
C	-2.173975844	-0.6853784039	-0.9884712641	 0.096544
N	-3.3034091597	-1.3800137651	-0.5931370501	-0.14552
N	-3.3136522928	-1.5688314946	 0.6340484048	 0.00849
O	-2.0821949266	-0.9587069111	 1.1773576706	-0.2146
C	-1.889264527	-0.3624489403	-2.336079555	 0.233945
N	-1.6284332587	-0.1158729087	-3.4364045845	-0.335673
H	 0.5725327774	 0.4288470353	-1.4381078244	 0.30957
H	 0.6120389371	-0.5086662538	 0.6836748501	 0.144459
H	-0.2441303278	 0.9339217822	 1.2203940216	 0.16597
47.5133	127.904	177.3524	213.1284	246.1074	348.4029	393.7046	499.5601	528.2248	549.426	623.171	654.0588	720.3576	735.9796	983.9328	992.3538	1105.2704	1150.8441	1211.2363	1259.2402	1349.6323	1395.112	1424.5728	1474.9952	1516.383	1589.952	2357.8452	2993.3689	3080.3541	3817.5172
OCC1=C(N=NO1)C#N	OCc1c(nno1)C#N	
InChI=1S/C4H3N3O2/c5-1-3-4(2-8)9-7-6-3/h8H,2H2	InChI=1S/C4H3N3O2/c5-1-3-4(2-8)9-7-6-3/h8H,2H2
