21
gdb 87162	3.34591	1.08677	0.96591	0.696	78.29	-0.2464	0.062	0.3083	1303.2354	0.181167	-424.185314	-424.175808	-424.174863	-424.219911	35.299	
C	-0.0513301615	 1.3610836844	-0.3044796425	-0.405989
C	 0.2129903102	-0.1085719697	-0.0661720057	-0.040399
C	 1.6325745015	-0.6287901147	 0.0888469189	-0.366467
C	 0.6892698686	-0.612814647	 1.2683735285	 0.385372
O	 0.8968881322	 0.3847998902	 2.2406343313	-0.467523
C	 0.142754787	-1.8875725086	 1.8723878384	-0.094466
C	-0.0352439562	-3.1286501466	 0.9689572369	-0.098146
O	 1.0482415164	-3.8203057092	 1.6210384818	-0.27213
C	 1.1779115306	-2.7771207161	 2.6067452776	-0.081593
H	 0.610499669	 1.9779049171	 0.306754466	 0.130368
H	 0.1049579843	 1.6192827327	-1.3573412341	 0.112963
H	-1.0825603812	 1.6233784416	-0.0444597156	 0.117013
H	-0.4660077949	-0.7775700811	-0.5903575967	 0.084594
H	 1.9087626169	-1.5747594132	-0.3651197929	 0.122517
H	 2.4241234645	 0.1137956985	 0.1013611529	 0.109395
H	 1.7069644744	 0.1705796276	 2.7158206779	 0.283586
H	-0.7353560353	-1.6337323361	 2.4711456968	 0.088247
H	-0.9914755835	-3.6514450744	 1.099935331	 0.099718
H	 0.1469652183	-2.9979606058	-0.1041071589	 0.103302
H	 2.2028819406	-2.3854512989	 2.6541316014	 0.090792
H	 0.8794238682	-3.1182494709	 3.6063705867	 0.098848
65.1565	77.5697	148.656	179.3302	214.0048	258.395	283.179	298.4022	377.6038	445.6491	455.0837	578.6968	658.481	793.0047	833.2738	876.4462	887.2439	894.1366	933.3592	955.278	1011.6488	1012.8201	1036.5426	1048.6077	1058.4502	1093.5994	1130.2781	1142.0925	1165.6122	1171.8667	1188.1732	1228.1345	1252.1136	1285.5105	1310.303	1337.4704	1365.1816	1386.3187	1405.408	1426.2711	1486.1423	1494.4011	1504.3361	1511.8203	1537.4811	2999.9429	3015.2559	3035.281	3042.4593	3056.054	3081.3696	3092.0738	3121.4121	3125.1943	3138.3078	3212.26	3800.0314
CC1CC1(O)C1COC1	C[C@H]1C[C@]1(O)C1COC1	
InChI=1S/C7H12O2/c1-5-2-7(5,8)6-3-9-4-6/h5-6,8H,2-4H2,1H3	InChI=1S/C7H12O2/c1-5-2-7(5,8)6-3-9-4-6/h5-6,8H,2-4H2,1H3/t5-,7+/m0/s1
