17
gdb 70770	3.86372	1.34142	1.13343	1.1451	80.95	-0.2277	0.0184	0.2461	1089.4613	0.135206	-380.726176	-380.718264	-380.717319	-380.758231	31.226	
C	 0.0152353354	 1.4356170949	-0.085990131	-0.534073
C	 0.010557446	-0.0589587892	-0.0465169717	 0.358139
N	 0.6083121514	-0.9364121866	-1.1110484097	-0.408914
C	 0.0705813036	-1.9224446703	-0.1105402857	 0.291265
C	 0.1438278137	-3.3432717617	-0.2408087595	 0.066091
C	 0.1795261649	-4.5428193634	-0.331382088	-0.384034
C	 0.5063649724	-1.0037434914	 1.092624765	-0.102997
N	-0.8241592612	-0.9846292659	 1.7728376191	-0.345885
C	-1.1647537139	-1.0309348083	 0.3185251947	-0.134872
H	 1.0360063168	 1.8143237366	-0.1958374269	 0.135364
H	-0.5798615155	 1.8115779971	-0.9253094773	 0.12231
H	-0.4103034749	 1.8308964126	 0.8411607982	 0.145762
H	 0.0154203015	-0.9343926524	-1.9466378211	 0.208275
H	 0.2206439395	-5.6006934562	-0.4163317753	 0.184507
H	 1.4642317957	-0.9996434672	 1.6127713129	 0.096083
H	-1.0104837304	-1.8903650965	 2.2106708285	 0.217722
H	-2.1860152051	-1.0608526621	-0.068335492	 0.08526
126.6687	134.3015	213.5187	246.6902	295.7712	402.5949	463.0639	520.6648	528.4448	580.5327	614.4613	668.2854	675.4688	734.9784	782.9248	843.2144	862.6381	887.0007	919.8846	981.8778	1031.4248	1049.2806	1090.5689	1092.5908	1139.6512	1147.177	1175.7271	1219.8181	1246.383	1281.6933	1286.2257	1303.5595	1391.2115	1430.1651	1483.4363	1489.2457	2228.4369	3035.8117	3093.7719	3102.1668	3119.1381	3124.6088	3391.8769	3411.6293	3500.044
CC12NC3(C#C)C1NC23	C[C@@]12N[C@@]3(C#C)[C@@H]1N[C@@H]23	
InChI=1S/C7H8N2/c1-3-7-4-6(2,9-7)5(7)8-4/h1,4-5,8-9H,2H3	InChI=1S/C7H8N2/c1-3-7-4-6(2,9-7)5(7)8-4/h1,4-5,8-9H,2H3/t4-,5+,6-,7+
