19
gdb 13599	4.13078	1.30702	1.10758	3.0974	73.28	-0.2407	0.0159	0.2566	1140.8805	0.163654	-365.075094	-365.065881	-365.064937	-365.109748	32.483	
C	-0.3394690334	 1.410181452	-0.1820473687	-0.37027
C	-0.0418922274	-0.0875246243	-0.156875162	-0.283827
C	 0.7051040065	-0.5595709789	-1.3987572955	 0.386123
O	 0.8382691391	 0.1166746787	-2.3971762438	-0.352315
N	 1.3038432118	-1.8062063097	-1.2689585256	-0.082131
C	 0.695836892	-3.0645415948	-0.892292108	-0.262617
C	 1.3223283791	-2.8671133185	-2.248962469	 0.019463
C	 0.4699446438	-2.7903362883	-3.4936848453	-0.401165
H	 0.5861523525	 1.9920797892	-0.1917474894	 0.128771
H	-0.9001851622	 1.677462118	-1.0804072977	 0.135393
H	-0.9215377885	 1.7030232711	 0.6963827526	 0.106165
H	 0.538093286	-0.3706111292	 0.7288095968	 0.122481
H	-0.9763398221	-0.6625740021	-0.0920856649	 0.117354
H	 1.2080647155	-3.6371853669	-0.1228221956	 0.122927
H	-0.3908496075	-3.1162661153	-0.8527458706	 0.122186
H	 2.3105395587	-3.3004692681	-2.3986830237	 0.100996
H	-0.5416283175	-2.4433602958	-3.2643839613	 0.120622
H	 0.901995571	-2.0924411296	-4.2151186767	 0.151477
H	 0.3985513925	-3.7785617975	-3.9592462317	 0.118365
33.6725	85.6643	136.3312	168.5748	200.4947	211.5356	285.5537	369.5209	387.9404	460.6666	569.7134	616.7146	731.8188	810.7807	835.5854	891.9038	909.2988	1002.8023	1041.6736	1063.2109	1081.1828	1096.2125	1120.0269	1130.8605	1161.026	1180.2188	1191.9192	1280.8849	1346.1308	1392.895	1411.9347	1412.9403	1438.9449	1459.6091	1484.9486	1490.6843	1491.9496	1500.2675	1514.1376	1779.2823	3018.7732	3043.2023	3050.7853	3066.2927	3093.0263	3104.5893	3119.3595	3119.562	3128.1902	3132.7728	3179.8021
CCC(=O)N1CC1C	CCC(=O)N1C[C@H]1C	
InChI=1S/C6H11NO/c1-3-6(8)7-4-5(7)2/h5H,3-4H2,1-2H3	InChI=1S/C6H11NO/c1-3-6(8)7-4-5(7)2/h5H,3-4H2,1-2H3/t5-,7?/m1/s1
