19
gdb 108382	2.49999	1.3375	1.09729	3.6648	80.03	-0.252	0.0112	0.2632	1190.5328	0.15947	-382.046829	-382.038054	-382.03711	-382.080485	32.682	
C	 0.0918429608	 1.5020217168	-0.2112506693	-0.38205
C	-0.0369718674	 0.0139252049	 0.1410594409	-0.290521
C	-1.459558655	-0.4678854925	 0.0850627545	 0.351148
C	-2.5458264159	-0.175023698	 1.1249051877	-0.317127
C	-2.9670622802	-1.6571682443	 0.9572172313	-0.163906
N	-1.8497684974	-1.9272871913	-0.0226765225	-0.186166
C	-2.0625005221	-1.0012610449	-1.1718495667	-0.211299
C	-3.3764656741	-0.6304357905	-1.6289384949	 0.308955
N	-4.4333062033	-0.3314613706	-1.9933986966	-0.349476
H	 1.133669017	 1.8276091346	-0.1459593224	 0.123155
H	-0.2613017815	 1.7002283827	-1.2282767175	 0.126167
H	-0.4955713851	 2.1244083375	 0.4716645529	 0.125984
H	 0.5704384283	-0.5932835404	-0.5398226842	 0.113999
H	 0.3546808294	-0.1665100635	 1.1500507869	 0.109368
H	-2.1293241932	 0.0411984616	 2.1105726221	 0.116616
H	-3.2765197205	 0.5956336068	 0.8691496864	 0.129762
H	-2.8077064185	-2.2673375593	 1.8469066579	 0.121614
H	-3.9640331535	-1.8542053947	 0.5560629634	 0.136482
H	-1.3673845577	-1.211536605	-1.97950093	 0.137296
73.6462	112.7998	147.1036	198.5395	214.7097	287.9307	347.1271	392.171	427.1371	548.3159	577.5515	658.789	768.8394	786.6485	789.7996	806.6275	868.0421	948.3239	966.8353	988.6874	997.5529	1044.4831	1070.2205	1082.6226	1138.7687	1173.9318	1219.3358	1233.1476	1251.1427	1285.3689	1306.185	1343.313	1351.2706	1411.1862	1426.1363	1481.3387	1487.8215	1500.0151	1507.7479	1509.65	2346.6964	3028.9149	3039.3358	3067.1834	3070.073	3076.7421	3108.2508	3115.4252	3119.1852	3138.371	3158.1235
CCC12CCN1C2C#N	CC[C@]12CCN1[C@H]2C#N	
InChI=1S/C7H10N2/c1-2-7-3-4-9(7)6(7)5-8/h6H,2-4H2,1H3	InChI=1S/C7H10N2/c1-2-7-3-4-9(7)6(7)5-8/h6H,2-4H2,1H3/t6-,7+,9?/m0/s1
