14
gdb 124033	3.80485	1.66426	1.17242	4.3919	70.84	-0.2073	-0.0198	0.1874	962.3705	0.104152	-432.863405	-432.856874	-432.85593	-432.894589	25.129	
C	 0.0250286458	 1.4809593858	 0.1723122474	-0.139425
O	 1.3095634394	 2.1371083434	-0.0675025161	-0.283779
C	 2.1086247586	 1.4520867504	-0.8847485428	 0.432678
C	 2.0265004343	 0.1234109788	-1.2404531056	 0.18765
C	 0.9649007324	-0.6766996143	-0.6753128473	-0.139417
C	 0.0365022204	-0.0264413972	 0.0400574939	-0.127288
N	 3.0878675194	-0.1670884801	-2.0436297484	-0.271323
N	 3.8161742802	 0.8970791275	-2.2021693722	-0.133235
N	 3.2188132041	 1.9084279338	-1.4824377208	-0.304142
H	-0.2603488622	 1.7895943641	 1.1815741278	 0.136766
H	-0.697636959	 1.9279623079	-0.5284025156	 0.12753
H	 0.9607313171	-1.7536968651	-0.7944621317	 0.119702
H	-0.7776303304	-0.5473896866	 0.531826022	 0.110061
H	 3.6283392298	 2.8282082216	-1.4667789304	 0.28422
85.6158	183.3335	315.6043	410.9853	457.0248	513.6778	536.4449	615.4806	679.5451	701.6283	727.9879	785.7131	848.8417	912.5709	959.7702	979.9708	1005.9257	1014.228	1030.5697	1172.2253	1238.7361	1253.0873	1280.2003	1316.8219	1367.6995	1407.0971	1420.9837	1499.5113	1553.4943	1632.78	1684.0749	2975.7149	3085.2486	3187.6908	3210.9735	3666.2095
C1OC2=C(C=C1)N=NN2	C1Oc2c(C=C1)nn[nH]2	
InChI=1S/C5H5N3O/c1-2-4-5(9-3-1)7-8-6-4/h1-2H,3H2,(H,6,7,8)	InChI=1S/C5H5N3O/c1-2-4-5(9-3-1)7-8-6-4/h1-2H,3H2,(H,6,7,8)
