14
gdb 54501	2.67207	1.64075	1.11585	2.4945	63.31	-0.252	-0.0464	0.2056	1029.4601	0.099546	-473.826905	-473.818867	-473.817923	-473.859873	29.49	
N	-0.0253482654	 1.2911061683	-0.079524484	-0.553992
C	 0.0869684733	-0.0511738027	 0.1039058018	 0.302954
O	 1.1134099527	-0.6427368224	 0.36077146	-0.356528
C	-1.2293079094	-0.7506931455	-0.0780930387	 0.224675
O	-1.5577174535	-1.8683508734	 0.7704790811	-0.254527
C	-1.5577530606	-2.1072102052	-0.6194079293	-0.042477
C	-2.9406600754	-1.6702883304	-1.1358877587	-0.365326
C	-2.5529304082	-0.2486986007	-0.6360668346	 0.372015
O	-2.9854878976	 0.8535803245	-0.8235329465	-0.317766
H	 0.7994001857	 1.8617158702	 0.0107818943	 0.26797
H	-0.9210764022	 1.7215125848	-0.2581090977	 0.282952
H	-0.8542953499	-2.8238226422	-1.0238864585	 0.14792
H	-3.0642108434	-1.674276517	-2.2225296627	 0.144125
H	-3.7880708961	-2.1624113784	-0.6559532665	 0.148005
68.2045	124.6822	170.0041	200.1635	341.4888	362.3047	397.586	440.9855	559.9596	579.5776	621.5217	672.2704	696.5972	759.4548	834.5793	869.2676	916.8072	964.1379	997.8436	1028.6699	1112.1274	1130.5655	1184.7449	1211.2721	1241.2132	1316.662	1430.2189	1446.5818	1627.3636	1813.1284	1874.5694	3074.7009	3138.9095	3215.4352	3561.3373	3710.6286
NC(=O)C12OC1CC2=O	NC(=O)[C@]12O[C@H]1CC2=O	
InChI=1S/C5H5NO3/c6-4(8)5-2(7)1-3(5)9-5/h3H,1H2,(H2,6,8)	InChI=1S/C5H5NO3/c6-4(8)5-2(7)1-3(5)9-5/h3H,1H2,(H2,6,8)/t3-,5+/m0/s1
