23
gdb 101442	2.64981	1.08807	0.86145	2.9484	81.66	-0.2415	0.0596	0.3011	1433.7047	0.204904	-425.418815	-425.408694	-425.40775	-425.454678	37.999	
C	-0.1367415883	 1.5572077139	 0.2156897843	-0.384949
C	-0.0813713101	 0.040724693	 0.014680856	-0.184232
C	-1.4562477125	-0.6298638336	 0.0832482509	 0.113859
O	-2.3357004337	-0.0939264011	-0.9277242358	-0.436054
C	-1.3845066128	-2.1553563686	-0.0219982347	-0.082877
C	-0.9301734977	-2.8550450122	 1.2957589116	-0.239241
C	-2.419470425	-3.1196343068	 1.6431173895	-0.245029
C	-2.7603925241	-2.8814080508	 0.1475620927	 0.161449
O	-3.9538355462	-2.2213210618	-0.1744605692	-0.454999
H	 0.854384888	 2.0068940871	 0.1058340499	 0.112299
H	-0.8079065188	 2.0200187294	-0.5125006652	 0.129145
H	-0.508433452	 1.8075972075	 1.2153551832	 0.11697
H	 0.369684335	-0.1947168973	-0.9605634837	 0.086732
H	 0.5714532424	-0.4170015073	 0.7672192284	 0.106784
H	-1.9456933881	-0.3478459161	 1.0236406189	 0.095867
H	-1.9743966189	-0.339875531	-1.7878682543	 0.283575
H	-0.8228552751	-2.4184748997	-0.9275691407	 0.053973
H	-0.374711923	-3.7746463574	 1.0974138871	 0.105172
H	-0.352034869	-2.2519293282	 2.0003210182	 0.099097
H	-2.6833907446	-4.0867090335	 2.0762650053	 0.096593
H	-2.8446519097	-2.3269181985	 2.2646371903	 0.106221
H	-2.726857013	-3.8403029413	-0.3892034233	 0.06775
H	-3.7155340726	-1.3463554159	-0.5146598595	 0.291895
24.2116	93.1154	125.9808	164.3452	219.0961	262.1462	276.8919	291.3385	359.6326	417.3381	425.3477	487.7499	555.1616	613.8714	658.4088	756.654	775.044	853.1896	893.8972	930.8519	935.8979	961.6321	971.7709	1011.9839	1055.9906	1068.6269	1097.2257	1123.1687	1147.3189	1172.0332	1196.4755	1230.2707	1234.1436	1261.6329	1264.6803	1270.1245	1303.5983	1326.5692	1373.9418	1387.6354	1398.1926	1407.6935	1419.72	1441.5002	1479.6353	1484.8885	1496.1464	1501.0064	1509.4889	2991.462	3003.3209	3017.4159	3038.7481	3043.5191	3059.6901	3062.5576	3067.9723	3104.0375	3106.2078	3122.7141	3124.4885	3694.4913	3788.6697
CCC(O)C1CCC1O	CC[C@@H](O)[C@H]1CC[C@H]1O	
InChI=1S/C7H14O2/c1-2-6(8)5-3-4-7(5)9/h5-9H,2-4H2,1H3	InChI=1S/C7H14O2/c1-2-6(8)5-3-4-7(5)9/h5-9H,2-4H2,1H3/t5-,6-,7-/m1/s1
