20
gdb 106185	3.15391	1.35687	1.32441	1.8819	77.26	-0.2276	0.0767	0.3043	1074.2294	0.173441	-403.111868	-403.10412	-403.103176	-403.144194	30.785	
O	 0.0270836598	 1.2844645592	-0.6072368613	-0.417381
C	 0.030463829	 0.0756611652	 0.1386125372	-0.198113
C	-1.3464569726	-0.4843647365	 0.2932590435	 0.327849
C	-1.7987125588	-1.8878991664	 0.2241473037	-0.073842
C	-2.8481228373	-2.1936146269	 1.2882000131	-0.245283
C	-3.1037327389	-0.8178770288	 1.9635924928	-0.210435
C	-2.6053349961	 0.1827773583	 0.9138026861	-0.102795
C	-3.2824495245	-0.0981042059	-0.4481265489	-0.159165
N	-2.1395343062	-0.9632713097	-0.9068694271	-0.206742
H	-0.3780167603	 1.0728071299	-1.4564180825	 0.290492
H	 0.681453557	-0.6815324613	-0.3258043976	 0.093137
H	 0.4576969493	 0.3236456154	 1.1171854742	 0.110832
H	-1.1168903731	-2.6685661118	-0.0972055895	 0.093577
H	-3.7575923648	-2.611045201	 0.8427535013	 0.111301
H	-2.4723091429	-2.9396338843	 1.9943074244	 0.105118
H	-4.1560858768	-0.6621807494	 2.2229450177	 0.097591
H	-2.5166247411	-0.7263240078	 2.8845516835	 0.100482
H	-2.5409217279	 1.220239255	 1.2393361521	 0.080333
H	-4.2623072932	-0.5901639336	-0.4381795738	 0.095248
H	-3.3315142506	 0.7751369903	-1.1025571487	 0.107794
71.8163	141.7106	225.385	272.3503	337.4787	384.7799	438.2783	478.904	606.2821	658.6847	680.0821	748.9061	819.3263	831.6163	866.9309	894.4415	922.6087	935.2638	974.4195	999.2645	1017.1338	1046.5246	1053.3964	1094.5804	1111.6642	1152.5576	1165.3489	1184.9906	1216.3986	1248.3689	1263.3254	1273.5675	1291.0377	1309.8944	1326.374	1339.8936	1378.2399	1417.0966	1452.4054	1484.3079	1488.3961	1494.4954	1515.1089	2982.9773	3031.9302	3035.7559	3049.2166	3062.8689	3076.8882	3092.9993	3099.7741	3124.3817	3166.7222	3794.7014
OCC12C3CCC1CN23	OC[C@@]12[C@H]3CC[C@@H]1CN23	
InChI=1S/C7H11NO/c9-4-7-5-1-2-6(7)8(7)3-5/h5-6,9H,1-4H2	InChI=1S/C7H11NO/c9-4-7-5-1-2-6(7)8(7)3-5/h5-6,9H,1-4H2/t5-,6-,7+,8?/m1/s1
