17
gdb 83060	2.71673	1.49402	1.25383	5.2678	78.83	-0.249	-0.0199	0.2292	1053.0576	0.136491	-380.861473	-380.853534	-380.85259	-380.893706	30.415	
C	-0.169477933	 1.4505398381	 0.153778428	-0.327754
N	 0.080751937	 0.033655283	-0.061723028	-0.120253
C	 0.6862262169	-0.4688660634	-1.275706841	-0.079261
C	 1.4858653816	 0.4573380633	-2.1943955176	-0.296561
C	 2.6279208694	 0.9383521626	-1.3269119271	-0.077283
C	 2.6213448451	 0.3663658381	-0.1211244013	-0.140522
C	 1.4391906643	-0.5383660676	 0.0436883652	 0.156642
C	 1.5599028253	-1.7261290893	 0.8528497777	 0.237133
N	 1.6875685444	-2.6728968906	 1.5041133588	-0.344597
H	 0.6289717743	 2.1225754586	-0.1865913973	 0.115269
H	-1.0942498382	 1.7103546531	-0.370190926	 0.132386
H	-0.3277216619	 1.6149856287	 1.2232896777	 0.137693
H	 0.2065021519	-1.3462880118	-1.6987495854	 0.117029
H	 1.8469227557	-0.0918987722	-3.0719014171	 0.129937
H	 0.877810525	 1.2869191994	-2.5777145362	 0.126784
H	 3.3378488462	 1.6871989108	-1.6593423889	 0.113317
H	 3.333912196	 0.5352430691	 0.6759939986	 0.12004
136.6005	158.0708	169.4334	227.3678	250.5853	361.124	441.0185	488.4703	537.6186	570.3991	594.2687	708.1395	732.3683	766.7409	840.6462	879.9669	931.1097	962.408	977.5401	1005.8276	1056.2815	1081.8772	1140.542	1149.6102	1168.8823	1188.483	1213.6638	1299.3881	1321.1108	1343.1559	1397.316	1447.4567	1465.7618	1484.6939	1507.731	1664.2137	2357.3801	3011.8292	3031.6363	3061.9811	3085.2099	3114.4505	3157.5469	3196.3792	3226.3682
CN1C2CC=CC12C#N	CN1[C@H]2CC=C[C@@]12C#N	
InChI=1S/C7H8N2/c1-9-6-3-2-4-7(6,9)5-8/h2,4,6H,3H2,1H3	InChI=1S/C7H8N2/c1-9-6-3-2-4-7(6,9)5-8/h2,4,6H,3H2,1H3/t6-,7-,9?/m0/s1
