21
gdb 57961	3.69998	0.81024	0.728	2.8403	79.3	-0.2584	-0.0232	0.2352	1617.4223	0.180104	-424.234825	-424.224716	-424.223771	-424.271627	36.639	
C	-0.5267733928	 1.4146022789	 0.1484195154	-0.402735
C	 0.1353710642	 0.0409552474	-0.0305264307	 0.06732
O	 1.0223736631	 0.069173807	-1.1159205768	-0.439638
C	 0.8791221741	-0.4226778344	 1.2296647539	 0.354389
O	 2.0597947404	-0.6898728489	 1.1433330256	-0.322266
C	 0.1008884979	-0.5605866589	 2.5264759123	-0.33497
C	 0.8921965187	-1.186285352	 3.6501648238	 0.051546
C	 1.7105731139	-0.326183817	 4.5757858862	-0.246021
C	 0.4541304635	-0.9926628338	 5.0800099677	-0.288431
H	 0.2158026406	 2.1651593108	 0.4364353355	 0.126613
H	-0.9654226383	 1.7200873921	-0.8045486435	 0.137971
H	-1.3210607626	 1.389312404	 0.9002442109	 0.114289
H	-0.6598221531	-0.704678364	-0.2131078684	 0.086618
H	 1.8707542504	-0.2383402175	-0.7558611523	 0.291457
H	-0.2520346893	 0.4386167183	 2.8165214229	 0.129936
H	-0.8133048528	-1.1324647675	 2.3107233799	 0.125432
H	 1.3203416259	-2.1525475123	 3.4031178982	 0.09682
H	 2.6693407335	-0.7036470029	 4.9117993311	 0.118615
H	 1.688851393	 0.7480008379	 4.4227350344	 0.109582
H	-0.4129624731	-0.367308538	 5.2679175158	 0.108337
H	 0.5508323929	-1.8283371891	 5.7640056682	 0.115137
19.0745	60.4037	82.8244	130.8743	218.7432	244.2453	303.8882	323.1437	371.784	395.3036	439.9432	472.8541	576.0883	688.0789	772.3438	786.0662	809.126	853.4651	889.2941	927.4256	957.2007	982.6829	1026.7982	1059.849	1079.1611	1081.6909	1095.9062	1132.2298	1153.6173	1191.401	1195.8763	1231.8311	1252.5888	1286.0124	1343.967	1358.1009	1399.2017	1415.582	1435.6005	1445.5808	1472.571	1490.4209	1498.819	1509.0989	1789.2901	2939.7057	3011.6627	3040.9332	3044.4049	3117.9586	3127.0159	3129.5495	3136.0839	3159.4487	3208.485	3224.4735	3666.6186
CC(O)C(=O)CC1CC1	C[C@@H](O)C(=O)CC1CC1	
InChI=1S/C7H12O2/c1-5(8)7(9)4-6-2-3-6/h5-6,8H,2-4H2,1H3	InChI=1S/C7H12O2/c1-5(8)7(9)4-6-2-3-6/h5-6,8H,2-4H2,1H3/t5-/m1/s1
