19
gdb 74205	2.22142	1.57021	0.96022	3.7512	88.17	-0.2346	-0.0632	0.1713	1231.902	0.160124	-385.934233	-385.925766	-385.924822	-385.967497	32.135	
C	-0.2943347337	 1.5486863293	 0.0581242422	-0.477152
C	 0.0836500803	 0.0877940548	-0.0391410324	 0.295637
C	 0.2788443579	-0.4543302377	-1.2639451854	-0.252606
C	 0.572441206	-1.8411835005	-1.6683163545	 0.357685
O	 0.7099730446	-2.0964604478	-2.8528188412	-0.330272
C	 0.6647562338	-2.9581093921	-0.6372014252	-0.30594
C	 1.525471675	-2.6242550989	 0.5907538152	-0.278125
C	 0.8430276699	-1.709897884	 1.5668608928	-0.071841
C	 0.203321071	-0.5718775799	 1.2633003472	-0.106673
H	 0.4368158738	 2.1013621132	 0.6603125606	 0.136202
H	-0.361405398	 2.0192957587	-0.9242241119	 0.132297
H	-1.2622252195	 1.6606819324	 0.5624820654	 0.135206
H	 0.1783170214	 0.1943077965	-2.1303591444	 0.096191
H	-0.3541077039	-3.2050199051	-0.3085753367	 0.120602
H	 1.0577874336	-3.8306460917	-1.1646451393	 0.12151
H	 1.7983484547	-3.5542364686	 1.0982959127	 0.112588
H	 2.4726162276	-2.1709459788	 0.2600510355	 0.125858
H	 0.8798263669	-1.9997309492	 2.6141908197	 0.100667
H	-0.2313627413	-0.0111215007	 2.0882366497	 0.088167
64.1942	147.7906	176.936	207.6767	282.5935	333.4106	346.5629	386.5137	496.931	539.6891	582.7602	626.9095	710.7668	761.4559	804.2936	859.7991	904.8103	921.277	952.5944	1007.2526	1034.5936	1051.974	1066.5261	1068.4659	1137.2254	1173.0312	1234.2836	1275.8693	1291.9103	1343.1367	1355.9006	1380.1937	1409.2847	1449.0342	1465.4792	1475.1689	1478.306	1488.1036	1645.6048	1702.9079	1743.8914	2996.6945	3024.606	3024.9476	3074.5946	3075.8474	3104.1654	3131.8765	3139.1574	3163.5798	3165.549
CC1=CC(=O)CCC=C1	CC1=CC(=O)CCC=C1	
InChI=1S/C8H10O/c1-7-4-2-3-5-8(9)6-7/h2,4,6H,3,5H2,1H3	InChI=1S/C8H10O/c1-7-4-2-3-5-8(9)6-7/h2,4,6H,3,5H2,1H3
