16
gdb 106953	4.29616	1.12279	1.00012	2.1275	66.58	-0.2674	0.0001	0.2676	1166.4476	0.124566	-475.009112	-475.00112	-475.000176	-475.042089	29.665	
O	 0.0006969367	 1.3725001062	-0.3792655878	-0.411677
C	 0.0434978524	 0.0372195795	 0.0960083708	-0.16938
C	-1.3391787664	-0.5335419377	 0.240923528	 0.373222
C	-2.3585665735	 0.0854365002	 1.1804034072	-0.13904
O	-3.3453115101	-0.9359999692	 1.4175562904	-0.254532
C	-2.9333255945	-2.1487495782	 0.9367901463	 0.457845
N	-3.4758115201	-3.2615898938	 1.1775798472	-0.546521
C	-1.7251965576	-1.9416070191	 0.0858582017	-0.162997
O	-1.9746145991	-0.9860779265	-0.9643669169	-0.291617
H	-0.3769308368	 1.3494436117	-1.2657471707	 0.297445
H	 0.6346466316	-0.6164989616	-0.5602828886	 0.109278
H	 0.5386330715	 0.0772648123	 1.0719235094	 0.122918
H	-1.9008678449	 0.3715555794	 2.1343978351	 0.122451
H	-2.8569108691	 0.9549610301	 0.7454803111	 0.137679
H	-4.2681535661	-3.1475281754	 1.81286309	 0.228721
H	-1.061576154	-2.7663269481	-0.1447791432	 0.126208
65.7741	119.6036	172.839	234.3702	309.4443	384.0673	403.903	418.8483	465.233	632.8896	686.4529	724.6976	775.3192	860.6419	882.6958	909.6333	935.2314	971.9969	1014.2404	1039.7967	1064.5669	1101.4798	1103.7461	1184.1191	1227.8605	1246.1059	1261.7848	1321.0776	1375.9733	1401.0339	1418.4485	1464.944	1486.8725	1503.1063	1784.8034	3011.5993	3044.2844	3082.271	3108.8562	3201.1008	3470.793	3805.5808
OCC12COC(=N)C1O2	OC[C@]12CO[C]([NH])[C@H]1O2	
InChI=1S/C5H7NO3/c6-4-3-5(1-7,9-3)2-8-4/h3,6-7H,1-2H2	InChI=1S/C5H7NO3/c6-4-3-5(1-7,9-3)2-8-4/h3,6-7H,1-2H2/t3-,5+/m1/s1
