16
gdb 109292	2.83331	1.27141	0.91592	5.0835	68.4	-0.229	-0.0078	0.2212	1218.877	0.125385	-475.067414	-475.059138	-475.058194	-475.100879	30.251	
O	 0.029549255	 1.3646570394	 0.4299697351	-0.4094
C	 0.0222697667	 0.0247380172	-0.0452962675	-0.167121
C	-1.3718885775	-0.5379609016	-0.1308411717	 0.337229
C	-1.8516542838	-1.3135892182	-1.1030214933	-0.232048
C	-3.2654708503	-1.7941303943	-0.9749110491	-0.120246
O	-3.6872478769	-1.9055238207	 0.4008625937	-0.243999
C	-3.305087607	-0.9768969183	 1.3088203799	 0.467069
O	-3.8768778948	-0.8528124643	 2.3591743158	-0.377621
N	-2.1959700981	-0.230268591	 0.953985222	-0.426678
H	-0.4101601416	 1.9158606027	-0.2268769266	 0.293554
H	 0.520071337	-0.0776757899	-1.0181459981	 0.112198
H	 0.6072597016	-0.539169967	 0.6908459149	 0.136807
H	-1.2520549348	-1.6030415289	-1.9557859354	 0.103284
H	-3.9701534593	-1.1259219258	-1.4943687292	 0.121773
H	-3.3974831317	-2.7956678477	-1.3922849933	 0.134014
H	-1.8563754543	 0.4151512684	 1.6504866528	 0.271183
83.8188	98.0629	149.8733	172.6205	265.5544	348.5279	406.6952	512.6689	528.7527	549.5392	594.5437	629.2782	734.0311	769.5756	776.1962	869.0663	949.0021	995.3668	1013.1973	1063.1242	1068.6904	1109.888	1198.071	1200.7485	1236.6406	1260.8128	1327.3734	1376.8621	1411.9376	1432.0632	1476.4357	1492.5977	1505.1398	1752.9059	1856.1022	2980.1566	3021.1195	3067.6036	3089.8275	3219.2593	3639.4973	3804.6235
OCC1=CCOC(=O)N1	OCC1=CCOC(=O)N1	
InChI=1S/C5H7NO3/c7-3-4-1-2-9-5(8)6-4/h1,7H,2-3H2,(H,6,8)	InChI=1S/C5H7NO3/c7-3-4-1-2-9-5(8)6-4/h1,7H,2-3H2,(H,6,8)
