22
gdb 110505	2.65712	1.37847	1.15551	1.7551	85.05	-0.2366	0.0807	0.3172	1200.0584	0.194494	-367.16977	-367.161009	-367.160065	-367.20304	34.087	
C	 0.0714516118	 1.5484045693	 0.1365446431	-0.379535
C	-0.1264551425	 0.0342808666	-0.0040576081	-0.217923
C	 0.6602697979	-0.5539369099	-1.1714497417	 0.007768
C	 2.1725624086	-0.7025026496	-1.135223032	-0.063711
C	 2.5168328042	-2.0374638935	-0.5553800785	-0.040003
C	 1.2367920713	-2.7716594287	-0.2123935611	-0.284864
C	 0.6801010324	-2.0777050237	-1.4773816506	 0.30987
C	-0.3627710792	-2.7239644362	-2.3426287983	-0.500996
N	 2.1537179053	-1.9240120394	-2.0104894049	-0.195964
H	 1.1245490598	 1.7955825007	 0.3089543796	 0.119137
H	-0.2476799829	 2.0758501299	-0.7692225202	 0.115539
H	-0.5050806712	 1.9487441151	 0.9760039331	 0.112759
H	 0.1652466823	-0.4563429353	 0.93129214	 0.098471
H	-1.1936883775	-0.1821673714	-0.1473621005	 0.095032
H	 0.390036151	-0.0336483195	-2.0998353944	 0.075302
H	 2.9250858935	 0.0654386245	-1.2787449385	 0.088291
H	 3.5287752577	-2.2843354211	-0.2535118498	 0.091163
H	 1.3506047938	-3.8458928752	-0.3850472351	 0.105875
H	 0.7459367763	-2.6063388935	 0.7518268457	 0.094291
H	-1.3301112756	-2.7493095643	-1.826945354	 0.119876
H	-0.4903084687	-2.1724601895	-3.2796593193	 0.124883
H	-0.0834132084	-3.7531702152	-2.5898129646	 0.124739
74.8808	159.5969	171.4006	196.6157	243.312	268.7186	312.2086	362.5482	499.622	548.8413	618.5888	698.353	767.6525	782.4282	801.1528	816.0735	834.8164	900.5278	947.6993	971.0986	991.0376	1011.866	1032.0647	1036.8205	1066.1712	1101.6077	1112.2672	1115.7311	1135.4593	1163.0352	1205.3597	1241.543	1246.9293	1284.7172	1324.1105	1338.0649	1353.8067	1377.1913	1406.7466	1413.0768	1419.9819	1480.0643	1485.656	1491.2882	1500.2796	1502.7293	1507.2747	3018.4955	3020.5835	3027.6597	3031.5676	3044.4226	3062.7979	3094.4	3096.4489	3099.5233	3103.9921	3105.0967	3167.1747	3179.807
CCC1C2C3CC1(C)N23	CC[C@H]1[C@H]2[C@H]3C[C@]1(C)N23	
InChI=1S/C8H13N/c1-3-5-7-6-4-8(5,2)9(6)7/h5-7H,3-4H2,1-2H3	InChI=1S/C8H13N/c1-3-5-7-6-4-8(5,2)9(6)7/h5-7H,3-4H2,1-2H3/t5-,6+,7-,8-,9?/m0/s1
