21
gdb 85887	1.81684	1.67873	1.16203	2.4186	78.59	-0.2433	-0.0202	0.2231	1173.8635	0.179204	-424.226123	-424.216023	-424.215079	-424.261074	37.367	
C	-0.3155475159	 1.501508719	 0.1360540278	-0.43444
C	-0.0449303836	-0.0041431344	 0.0361669082	 0.306204
C	-1.3425792678	-0.7546223066	-0.2544617061	-0.453312
C	 1.1475754472	-0.3277188057	-0.9277704868	-0.295988
C	 2.0857672278	-0.5839118818	 0.2795861833	 0.112557
O	 3.0303166598	 0.4269302563	 0.5669190741	-0.426861
C	 0.8147999366	-0.6106628382	 1.2000214527	-0.156491
C	 0.949566336	 0.0201210628	 2.5574536272	 0.146837
O	 0.2552026943	 0.8985816458	 3.0063151075	-0.257311
H	 0.5877221311	 2.0791254493	 0.3599744991	 0.0948
H	-0.7089326516	 1.8658714651	-0.8201503833	 0.108272
H	-1.0350459791	 1.7271899439	 0.9249240751	 0.143295
H	-1.799428904	-0.3998838246	-1.1855123197	 0.115666
H	-1.1681584377	-1.8313272672	-0.357652736	 0.10702
H	-2.0706320944	-0.6068545352	 0.5508431425	 0.125034
H	 0.9809000608	-1.228304154	-1.5255167156	 0.103698
H	 1.4681906504	 0.4769542164	-1.5970740288	 0.100282
H	 2.6605162755	-1.5120285291	 0.2545003948	 0.093089
H	 2.626171802	 1.2868908168	 0.411512892	 0.287307
H	 0.5336912427	-1.6584717767	 1.3775661041	 0.096311
H	 1.78133115	-0.4102805818	 3.1610921978	 0.084031
49.9236	92.7963	175.4722	201.3117	221.4849	234.0256	266.8701	282.0788	332.7458	340.7536	384.8349	423.0334	501.911	637.4345	690.8316	728.128	833.3493	843.7935	912.6434	937.5426	954.0528	963.3296	991.3423	1031.1233	1051.3245	1078.5903	1135.0986	1157.5172	1186.7676	1232.1661	1246.4435	1272.0162	1278.7768	1317.6091	1345.4136	1402.6066	1417.9231	1430.4	1436.1148	1471.8949	1477.1011	1484.6397	1499.3269	1502.1836	1818.4924	2869.0073	3012.2534	3020.7817	3029.2509	3047.5979	3084.3754	3086.6034	3089.6476	3093.5614	3104.5127	3134.9587	3815.6617
CC1(C)CC(O)C1C=O	CC1(C)C[C@@H](O)[C@H]1C=O	
InChI=1S/C7H12O2/c1-7(2)3-6(9)5(7)4-8/h4-6,9H,3H2,1-2H3	InChI=1S/C7H12O2/c1-7(2)3-6(9)5(7)4-8/h4-6,9H,3H2,1-2H3/t5-,6-/m1/s1
