20
gdb 97109	3.18338	1.15433	0.99091	2.0226	82.6	-0.2448	0.0276	0.2724	1287.9245	0.170838	-403.133817	-403.124753	-403.123809	-403.168389	32.746	
C	-0.2868709726	 1.6090842559	 0.0175333883	-0.340401
N	-0.1499352481	 0.1761804216	 0.2371518918	-0.340387
C	-1.1118351112	-0.5808514284	-0.0179187677	 0.419288
O	-2.3826644561	-0.3040324846	-0.5067995726	-0.279589
C	-2.7379094943	-1.7202711476	-0.4654250481	-0.13716
C	-1.3360819668	-2.0687007946	 0.0786196107	 0.183458
C	-0.4244179465	-3.1051410124	-0.6309999022	-0.284249
C	-0.6055801414	-4.063227881	 0.5776510946	-0.213096
C	-1.1520996236	-2.863792724	 1.3987840686	-0.284262
H	 0.4838765672	 1.9392567855	-0.687907648	 0.125676
H	-1.2676579382	 1.9124346087	-0.3670259571	 0.126398
H	-0.1014078484	 2.1358341101	 0.9602901589	 0.125638
H	-3.5778128158	-1.8920665395	 0.2141561006	 0.11547
H	-2.9753559055	-2.0922613345	-1.4664336193	 0.115467
H	-0.750766101	-3.4540460804	-1.6142344833	 0.101733
H	 0.5962609813	-2.7229628812	-0.7125849927	 0.12753
H	-1.3717219446	-4.8211295903	 0.393105234	 0.103894
H	 0.2885629332	-4.5612926784	 0.9574248472	 0.105327
H	-0.3837087343	-2.3979263114	 2.0209139153	 0.127534
H	-2.0480265133	-3.0237889436	 2.004345991	 0.10173
74.6807	80.2168	109.2474	121.7963	192.7689	263.439	294.1344	369.1866	430.4705	616.9277	684.2391	688.0409	756.735	789.7335	870.3984	888.5751	904.7935	942.4323	960.9405	972.9073	1037.7753	1052.6484	1094.2482	1130.0717	1144.5387	1158.3277	1163.8918	1190.5287	1212.2499	1228.979	1255.5172	1274.5886	1278.915	1296.0757	1358.4593	1439.9404	1468.3217	1480.1227	1495.2617	1497.0327	1500.6564	1514.6234	1843.7471	3016.1267	3046.1992	3057.1105	3059.0645	3066.2779	3080.0751	3085.8538	3103.5378	3104.2969	3115.0229	3127.2925
CN=C1OCC11CCC1	CN=C1OCC21CCC2	
InChI=1S/C7H11NO/c1-8-6-7(5-9-6)3-2-4-7/h2-5H2,1H3	InChI=1S/C7H11NO/c1-8-6-7(5-9-6)3-2-4-7/h2-5H2,1H3
