16
gdb 123929	3.50718	1.61492	1.14852	5.9744	70.16	-0.2193	0.	0.2193	1012.2367	0.128573	-434.072811	-434.066143	-434.065199	-434.103873	26.278	
C	-0.0125962292	 1.5262329865	-0.0170446693	-0.221444
C	 1.4278345857	 2.0516953152	 0.054672796	-0.078746
O	 2.1081532368	 1.6662859969	 1.257978404	-0.258795
C	 1.920577976	 0.3597930882	 1.536269187	 0.360363
C	 0.9638448646	-0.456848437	 0.9785440848	 0.247162
C	-0.05633773	-0.0205449175	-0.0170987293	-0.346581
N	 1.1949829876	-1.6424230794	 1.5992690904	-0.28781
N	 2.2140156914	-1.555009956	 2.4761183902	-0.119865
N	 2.6616545619	-0.324751049	 2.4368370672	-0.28481
H	-0.5684309691	 1.9084182387	 0.8458686914	 0.126371
H	-0.4890605113	 1.9249833118	-0.9176697842	 0.111528
H	 2.0052119525	 1.6888252287	-0.8083621259	 0.109066
H	 1.445672337	 3.1432883186	 0.0474765436	 0.12379
H	-1.0619895757	-0.3721960187	 0.2403802407	 0.120257
H	 0.1666673777	-0.4117982083	-1.0185676142	 0.12275
H	 0.721476774	-2.5247220787	 1.4897146276	 0.276764
123.4582	216.8899	304.0496	367.0352	401.5139	459.6818	528.6202	532.2103	686.9854	702.0091	725.4398	745.5007	867.2905	882.9061	926.0594	1006.3363	1021.1609	1065.5282	1087.9407	1098.9039	1191.9484	1209.5249	1233.0085	1256.3157	1299.4898	1329.9592	1349.5642	1369.7372	1389.8716	1410.1735	1476.5997	1483.3637	1500.652	1547.021	1642.7926	3003.3691	3015.6736	3047.681	3060.6076	3099.8204	3113.3576	3657.1598
C1COC2=C(C1)NN=N2	C1COc2c(C1)[nH]nn2	
InChI=1S/C5H7N3O/c1-2-4-5(9-3-1)7-8-6-4/h1-3H2,(H,6,7,8)	InChI=1S/C5H7N3O/c1-2-4-5(9-3-1)7-8-6-4/h1-3H2,(H,6,7,8)
