18
gdb 110732	2.43127	1.31419	1.11278	2.8785	72.88	-0.2409	0.0097	0.2506	1170.8807	0.146726	-439.073989	-439.064876	-439.063932	-439.108258	33.23	
C	 0.067415808	 1.5881805155	 0.0097914343	-0.500896
C	 0.0573125807	 0.0883955861	 0.0330122569	 0.132589
C	-0.9435971601	-0.7669155897	 0.824952746	-0.052635
C	-1.830134772	-1.8283337422	 0.2245958726	-0.127683
O	-2.0955690127	-2.7879475494	 1.2398297883	-0.418281
C	 0.528982735	-0.9317450571	 1.0632259589	-0.048042
N	 1.1882694074	-1.7003053271	 0.0049180371	-0.340354
C	 0.708935561	-0.8368629271	-0.9975839959	 0.357082
O	 0.8047756476	-0.8660227523	-2.1924420209	-0.346014
H	 1.0780271768	 1.974202911	-0.1573630591	 0.134728
H	-0.5701533395	 1.966988807	-0.796028476	 0.138988
H	-0.3036844999	 2.00203086	 0.9523027522	 0.123161
H	-1.4383173567	-0.189810145	 1.6053890419	 0.101095
H	-2.7577048063	-1.3581499539	-0.1361189877	 0.096944
H	-1.3460244956	-2.2920375722	-0.646727463	 0.102137
H	-2.753508322	-3.4041829077	 0.9038089599	 0.28966
H	 1.0268966432	-0.7566883953	 2.0078466732	 0.112543
H	 1.1404811051	-2.7107547004	-0.0691604687	 0.24498
50.2774	119.6575	154.2003	179.834	230.2814	254.1075	272.381	315.3726	425.6776	491.7008	556.0123	646.9071	687.4606	743.7937	756.4104	812.8484	889.293	918.916	950.211	987.6158	1046.4613	1072.6209	1085.2782	1103.6327	1128.4644	1146.7337	1232.9511	1241.2872	1271.9316	1295.9282	1322.415	1347.9871	1416.5134	1437.3113	1481.5857	1487.7962	1496.5056	1518.5892	1889.08	2984.9981	3016.2497	3034.7166	3099.2718	3106.9242	3125.7463	3204.8064	3541.3683	3825.0796
CC12C(CO)C1NC2=O	C[C@]12[C@@H](CO)[C@H]1NC2=O	
InChI=1S/C6H9NO2/c1-6-3(2-8)4(6)7-5(6)9/h3-4,8H,2H2,1H3,(H,7,9)	InChI=1S/C6H9NO2/c1-6-3(2-8)4(6)7-5(6)9/h3-4,8H,2H2,1H3,(H,7,9)/t3-,4+,6-/m0/s1
