19
gdb 69061	3.13513	1.04155	0.91415	2.9328	77.04	-0.2354	-0.0174	0.218	1313.0532	0.157049	-423.003387	-422.994163	-422.993218	-423.038448	33.726	
O	-0.2762421264	 1.3989075615	 0.099636697	-0.462452
C	-0.0935703791	 0.0343504152	-0.0276199013	 0.349448
C	-0.334704208	-0.9225255349	 1.1053562656	-0.390071
C	-1.1821810457	-1.0295129727	-0.151266495	 0.285529
C	-2.683319523	-0.8748593345	-0.1203397034	-0.387934
C	-3.36141415	-2.1012897446	 0.4565398441	 0.1671
O	-4.093155479	-2.0967257956	 1.4126131176	-0.240327
C	-0.3609481414	-1.7445882755	-1.236980973	-0.285464
C	 0.7297066911	-0.6248508194	-1.1381780461	-0.281476
H	 0.3129588184	 1.7270916576	 0.7872839708	 0.288924
H	 0.3869849231	-1.6959161454	 1.3620056707	 0.104771
H	-0.8530244311	-0.4858785326	 1.9540673418	 0.121685
H	-2.9738408387	-0.0043175733	 0.4751578226	 0.129189
H	-3.0566030129	-0.7281981221	-1.1445435322	 0.115804
H	-3.1188336431	-3.0528340278	-0.0721854048	 0.07233
H	-0.0334670392	-2.7608334602	-0.9959672891	 0.100357
H	-0.8568967676	-1.7585012198	-2.211020079	 0.105118
H	 0.7608833571	-0.0069647411	-2.0380818122	 0.11356
H	 1.7485053755	-0.9334473247	-0.880435264	 0.093907
42.4054	53.0623	129.5846	195.3854	224.8595	263.6597	321.9984	375.8507	437.8691	460.2267	550.8394	600.8168	702.8534	739.3336	789.1711	838.3083	865.2602	929.765	935.0396	978.3888	993.3841	1029.6241	1060.2564	1077.2821	1115.1681	1144.7453	1198.7939	1211.2506	1232.502	1241.2224	1267.0015	1299.2175	1314.2007	1345.4876	1410.1031	1429.8951	1456.784	1480.0638	1481.3555	1520.3619	1833.4753	2856.9815	3008.2394	3042.0811	3050.3662	3095.0826	3095.8081	3097.8718	3117.4981	3195.4098	3800.4053
OC12CC1(CC=O)CC2	O[C@@]12C[C@]1(CC=O)CC2	
InChI=1S/C7H10O2/c8-4-3-6-1-2-7(6,9)5-6/h4,9H,1-3,5H2	InChI=1S/C7H10O2/c8-4-3-6-1-2-7(6,9)5-6/h4,9H,1-3,5H2/t6-,7+/m1/s1
