18
gdb 35976	3.12228	1.19581	0.92392	3.2768	72.34	-0.277	0.0284	0.3055	1229.0313	0.149605	-439.093617	-439.085408	-439.084464	-439.126761	30.404	
N	 0.1430008371	-1.1677166939	 0.0790275207	-0.317751
C	 0.0588069322	-0.0151831547	 0.0527571441	 0.266673
C	-0.0242165647	 1.4466225806	 0.0402088364	-0.163541
C	-0.8225119444	 1.9452223787	 1.2696718927	-0.246578
C	-1.3809341621	 3.3689220402	 1.1110333038	-0.088141
O	-0.5846632649	 4.2602145472	 0.342056783	-0.231169
C	 0.7965957421	 4.2571333078	 0.5665381817	 0.008529
O	 1.4803893574	 3.3926909744	-0.3049762886	-0.226181
C	 1.4200014028	 2.0224473446	 0.0082141643	-0.083252
H	-0.5288747622	 1.7517155332	-0.8840039055	 0.145536
H	-1.6652855823	 1.2754008834	 1.4662333538	 0.132474
H	-0.1700279751	 1.8759114897	 2.1467235765	 0.122335
H	-2.3386868828	 3.3362005904	 0.5830370712	 0.124409
H	-1.5715114304	 3.7903338185	 2.1093270911	 0.106193
H	 1.1565920433	 5.258754174	 0.3214646312	 0.124931
H	 1.0335048004	 4.0200742212	 1.6180600952	 0.082442
H	 1.8958786399	 1.8174647591	 0.9807419896	 0.107916
H	 2.000105974	 1.5139645757	-0.7653158611	 0.135175
83.6901	129.9357	163.7167	188.2822	305.9505	321.6377	371.52	437.2633	516.5969	542.3284	555.8685	621.7667	811.6774	859.9708	914.9346	956.0657	962.0654	1009.5871	1018.5898	1083.8094	1095.113	1133.0552	1153.6648	1209.4914	1242.8585	1266.8081	1294.9278	1299.0483	1332.9513	1345.5634	1377.6353	1411.162	1421.4813	1443.6853	1488.7141	1496.1102	1506.0125	1516.1703	2356.2863	2957.9776	2981.5261	2996.6271	3045.4867	3057.1704	3074.4545	3095.7871	3105.1627	3108.6314
N#CC1CCOCOC1	N#C[C@H]1CCOCOC1	
InChI=1S/C6H9NO2/c7-3-6-1-2-8-5-9-4-6/h6H,1-2,4-5H2	InChI=1S/C6H9NO2/c7-3-6-1-2-8-5-9-4-6/h6H,1-2,4-5H2/t6-/m1/s1
