18
gdb 69565	2.85636	1.48254	1.17576	4.3412	78.26	-0.2296	-0.0137	0.216	1096.9789	0.147118	-401.91349	-401.905097	-401.904153	-401.946371	31.784	
C	-0.0810986375	 1.5488416811	 0.0255545617	-0.493401
C	 0.0573510251	 0.0546260927	-0.003097953	 0.213041
C	-0.8015644209	-0.8873126575	 0.8304173947	-0.33161
C	 0.6804443037	-0.9490915398	 1.0163376935	-0.222683
C	 1.279851371	-1.752505098	-0.1225024396	 0.259055
C	 2.6090463731	-2.3998271772	-0.2044938147	-0.312749
N	 1.3761289398	-3.2018299311	-0.2978200911	-0.361746
C	 0.6987243321	-0.7426713693	-1.1138024783	 0.320864
O	 0.8702344956	-0.5362035762	-2.2822899696	-0.321098
H	 0.8502230558	 2.0382321058	-0.2761421098	 0.13295
H	-0.8655289879	 1.8763512262	-0.6649578014	 0.14047
H	-0.3476974491	 1.9035195344	 1.0259987224	 0.120815
H	-1.3637161415	-0.3828222476	 1.6109148816	 0.123296
H	-1.3288519483	-1.7168569009	 0.3680986537	 0.131565
H	 1.1792970754	-0.6954844315	 1.9431940372	 0.107611
H	 3.1762379697	-2.3267842013	-1.1279847069	 0.141149
H	 3.2041822604	-2.44898992	 0.7042364509	 0.118028
H	 1.1920652634	-3.6631795496	 0.5913205189	 0.234447
90.0615	151.4862	178.6154	219.6115	227.8687	280.1822	321.4335	445.7601	519.547	527.19	658.7969	709.2091	765.06	830.6581	837.4338	910.5082	917.6285	931.9467	958.2658	982.4712	984.5973	991.285	1058.6111	1086.5495	1106.0294	1114.3433	1131.5556	1214.8421	1257.4559	1273.6816	1281.3967	1375.2562	1417.6982	1419.6236	1482.3696	1493.3329	1496.5459	1506.3534	1878.8454	3034.3641	3099.4471	3106.4432	3107.1601	3116.3962	3194.4539	3197.7502	3203.4946	3483.5207
CC12CC1C1(CN1)C2=O	C[C@]12C[C@H]1[C@]1(CN1)C2=O	
InChI=1S/C7H9NO/c1-6-2-4(6)7(3-8-7)5(6)9/h4,8H,2-3H2,1H3	InChI=1S/C7H9NO/c1-6-2-4(6)7(3-8-7)5(6)9/h4,8H,2-3H2,1H3/t4-,6+,7-/m1/s1
