18
gdb 22646	2.93322	1.07155	1.00577	0.8417	80.43	-0.24	0.0066	0.2467	1259.1039	0.146884	-401.892509	-401.88375	-401.882806	-401.926165	33.4	
O	-0.1875240941	 1.2833805289	 0.3346798397	-0.396867
N	-0.0348326347	-0.1146399381	 0.2554835872	-0.229468
C	-1.1418736045	-0.6786663983	-0.0141146245	 0.424326
C	-2.4977392743	-0.0322936115	-0.2046720571	-0.291682
C	-3.4167869775	-1.1979567995	-0.6163891376	-0.230182
C	-2.7668254097	-2.4553303033	 0.0299477971	-0.1841
C	-1.2482824225	-2.1814694617	-0.1577692472	-0.2977
C	-3.1253780806	-2.587295773	 1.4388431614	 0.34953
C	-3.4188571113	-2.6813251565	 2.6011080757	-0.489088
H	 0.7047455621	 1.5712713786	 0.554272425	 0.305387
H	-2.8138975	 0.4176233695	 0.7435904623	 0.139752
H	-2.4593920384	 0.7796962346	-0.9356311495	 0.127967
H	-4.4545099298	-1.0622051787	-0.3072723217	 0.114569
H	-3.4038511722	-1.3230132888	-1.7046375208	 0.104288
H	-3.0675328911	-3.3659655028	-0.4982232953	 0.103672
H	-0.958627727	-2.4803813572	-1.173467318	 0.118063
H	-0.6122767429	-2.7216959048	 0.5442001228	 0.133033
H	-3.6775889414	-2.7735948773	 3.6267835106	 0.198499
53.0488	121.8835	178.8621	229.6735	251.5985	307.9156	387.3799	414.1536	476.7221	503.7245	558.4256	629.3999	631.5196	648.273	721.5366	785.5278	822.3656	847.3354	913.3617	952.564	979.3303	990.5245	1021.1638	1060.06	1156.3282	1174.633	1197.896	1221.7462	1256.3011	1290.5664	1317.1192	1335.1707	1365.4982	1402.9079	1464.6095	1469.3332	1496.7692	1757.4799	2233.3556	3026.9929	3045.2329	3050.6107	3059.1653	3096.4617	3119.055	3126.7502	3503.9165	3820.5821
ON=C1CCC(C1)C#C	ON=C1CC[C@@H](C1)C#C	
InChI=1S/C7H9NO/c1-2-6-3-4-7(5-6)8-9/h1,6,9H,3-5H2	InChI=1S/C7H9NO/c1-2-6-3-4-7(5-6)8-9/h1,6,9H,3-5H2/t6-/m0/s1
