16
gdb 123783	5.47879	0.96825	0.86566	1.019	73.37	-0.2135	-0.0208	0.1927	1298.2513	0.125167	-430.193614	-430.18548	-430.184536	-430.227644	29.555	
C	 0.3147854605	 1.4911482281	 0.2689001615	-0.268971
C	 1.2381159801	 0.3574764398	-0.1207682419	-0.288542
C	-0.2509710197	 0.1177464579	 0.0841853969	 0.035819
N	-0.725168164	-0.5877312047	 1.2415120608	-0.375666
C	-0.6813253059	-1.8581754651	 1.1705623955	 0.554066
N	-0.2378434921	-2.7444474234	 0.1983026502	-0.305975
N	-0.3553078935	-4.0464275995	 0.6002272	-0.083691
N	-0.8874853629	-4.0527084691	 1.7480314138	-0.061591
N	-1.1126542106	-2.7661258708	 2.1218236613	-0.322268
H	 0.3753256813	 1.8486077616	 1.2905933924	 0.121373
H	 0.0897242833	 2.2526525794	-0.469357707	 0.108724
H	 1.6420916092	 0.3401134045	-1.1280274805	 0.104986
H	 1.9075402012	-0.0212285795	 0.6437011977	 0.115189
H	-0.8349329277	-0.0390231532	-0.8253713201	 0.081541
H	 0.2754495608	-2.5194897483	-0.6353937718	 0.292721
H	-1.50767369	-2.5547642276	 3.0213927612	 0.292286
25.1799	120.5116	130.7205	176.0673	354.6718	366.5342	383.0244	448.0401	507.7114	704.4507	720.5958	741.6662	781.6598	804.9913	855.3551	948.0735	983.6969	1000.8335	1020.6694	1045.2861	1051.9747	1074.6775	1104.257	1126.0091	1169.9066	1198.4246	1229.149	1308.573	1362.8044	1374.3401	1400.0313	1456.9945	1494.412	1518.9046	1773.9672	3067.9999	3126.5556	3138.2464	3212.7497	3230.5624	3698.4121	3703.381
C1CC1N=C1NN=NN1	C1CC1N=c1[nH]nn[nH]1	
InChI=1S/C4H7N5/c1-2-3(1)5-4-6-8-9-7-4/h3H,1-2H2,(H2,5,6,7,8,9)	InChI=1S/C4H7N5/c1-2-3(1)5-4-6-8-9-7-4/h3H,1-2H2,(H2,5,6,7,8,9)
