14
gdb 9996	2.76139	1.35879	0.94905	2.9901	65.42	-0.2616	-0.0521	0.2095	1143.474	0.102481	-382.514963	-382.505971	-382.505027	-382.550239	29.885	
O	 0.0111863135	-0.0877173561	 0.0854101475	-0.236522
C	 0.011758681	 1.0768754742	-0.2161680896	 0.151652
C	 1.2394851185	 1.9650036578	-0.1138563125	-0.297439
C	 1.351361604	 2.9898450669	-1.2804488669	-0.267858
C	 0.2668194076	 4.0654957678	-1.1206412127	 0.164067
O	-0.7445082157	 4.1010282376	-1.7660181162	-0.235507
C	 2.6611968639	 3.6264118636	-1.2960892912	 0.291545
C	 3.724449504	 4.1864249243	-1.2828883259	-0.416123
H	-0.9099192484	 1.5773320513	-0.5851497264	 0.104544
H	 1.1871913912	 2.5118821397	 0.8387043285	 0.141951
H	 2.1292691829	 1.3330255087	-0.0715146667	 0.150113
H	 1.1617645065	 2.4815010768	-2.2328333423	 0.138445
H	 0.4905129102	 4.8116821147	-0.3267368576	 0.101498
H	 4.6708264308	 4.6691348626	-1.288096978	 0.209633
45.1537	54.588	78.2009	131.8002	182.9431	258.8708	327.4427	431.8051	447.4807	505.6787	575.2989	644.7884	661.0232	753.476	909.1469	958.3133	981.1307	1068.102	1073.2153	1110.1629	1196.8255	1262.4983	1283.957	1337.4254	1412.5081	1438.0925	1456.0301	1835.3276	1837.2516	2237.3855	2896.0485	2903.652	3020.1158	3052.1764	3114.4556	3501.4949
O=CCC(C=O)C#C	O=CC[C@@H](C=O)C#C	
InChI=1S/C6H6O2/c1-2-6(5-8)3-4-7/h1,4-6H,3H2	InChI=1S/C6H6O2/c1-2-6(5-8)3-4-7/h1,4-6H,3H2/t6-/m0/s1
