19
gdb 61419	2.57835	1.12109	0.90786	3.004	73.63	-0.2361	0.0127	0.2488	1343.1872	0.157837	-456.426195	-456.415771	-456.414827	-456.462561	36.927	
C	-0.4337387165	 2.036827331	 0.650189282	-0.41297
C	-0.0413256125	 0.6351107769	 0.2021358483	-0.054101
N	 0.8831299722	 0.0346972989	 1.1676122857	-0.308541
C	 1.7777946961	-0.9313639139	 0.8376041618	 0.418382
C	 2.703634723	-1.3880304284	 1.9501009021	-0.478686
O	 1.844085241	-1.4069792846	-0.2913349307	-0.397182
C	-1.2931185311	-0.2628329846	 0.0194434054	 0.388928
N	-1.0400209183	-1.397028225	-0.6819176632	-0.521389
O	-2.3843957378	 0.0434193178	 0.4615806933	-0.367413
H	 0.4555548907	 2.656205461	 0.7968133733	 0.113051
H	-1.0703663619	 2.5067115763	-0.1020548145	 0.141173
H	-1.012018903	 1.9959078847	 1.5773796817	 0.137719
H	 0.495123406	 0.6669626575	-0.7515835357	 0.119855
H	 0.8207679269	 0.344163221	 2.1241657298	 0.252052
H	 2.558768181	-2.4593632395	 2.1129529629	 0.156358
H	 3.7369379942	-1.2451540158	 1.6233762944	 0.158428
H	 2.5514352185	-0.8587791035	 2.8938222014	 0.117099
H	-0.0809354675	-1.6557386456	-0.8848533526	 0.283821
H	-1.7749592812	-2.082830424	-0.7494166052	 0.253414
43.6216	57.1202	88.4308	131.2325	192.7488	217.0052	255.1707	306.4143	331.4362	413.3014	438.7362	485.8627	495.5652	574.9513	629.1389	640.9891	681.6172	763.5293	822.6272	908.855	972.6854	1015.6659	1047.2596	1054.7868	1117.9576	1158.2478	1172.3408	1268.9119	1294.517	1352.2986	1392.7404	1398.6294	1411.2129	1469.4178	1482.9484	1484.7028	1493.4423	1531.0857	1624.6613	1740.4905	1802.1964	3051.0618	3052.1155	3064.1919	3126.379	3128.7527	3133.474	3136.8784	3502.2626	3640.0347	3682.5924
CC(NC(C)=O)C(N)=O	C[C@@H](NC(=O)C)C(=O)N	
InChI=1S/C5H10N2O2/c1-3(5(6)9)7-4(2)8/h3H,1-2H3,(H2,6,9)(H,7,8)	InChI=1S/C5H10N2O2/c1-3(5(6)9)7-4(2)8/h3H,1-2H3,(H2,6,9)(H,7,8)/t3-/m1/s1
