21
gdb 63538	3.02975	1.31361	1.16509	1.6465	82.69	-0.244	0.0853	0.3292	1172.4633	0.180667	-387.054608	-387.045649	-387.044705	-387.087775	34.912	
C	-0.0789779988	 1.5277765421	-0.009767932	-0.455764
C	-0.1017094168	 0.0184032622	 0.0887331252	 0.280101
C	-1.20991449	-0.6740103604	-0.6723506496	-0.454032
O	 1.2014861126	-0.6077084098	-0.0408011281	-0.339471
C	 0.5517849488	-0.6583153424	 1.2184728458	 0.419893
C	 1.2417787438	-0.1177018832	 2.4903323241	-0.33365
C	 0.9063592056	-1.4500966536	 3.1822976275	-0.049669
C	-0.5726268247	-1.6992680227	 3.1471279388	-0.279736
C	 0.2390260756	-1.9742930952	 1.9047676605	-0.14497
H	 0.761913504	 1.9449431823	 0.5485077196	 0.127257
H	 0.0167854748	 1.8415444938	-1.0553814248	 0.122945
H	-1.0070777801	 1.95701535	 0.383626289	 0.116804
H	-1.1313633718	-0.4582192768	-1.7437824991	 0.122716
H	-1.1625062682	-1.75648139	-0.5365862096	 0.126071
H	-2.19069063	-0.3239256095	-0.332164707	 0.117345
H	 2.3111809757	 0.0122634591	 2.3069848669	 0.12031
H	 0.8399863382	 0.7910693829	 2.9511555552	 0.0965
H	 1.5618748733	-1.9795531809	 3.8616886174	 0.091023
H	-0.9144011306	-2.581999	 3.6782011646	 0.114209
H	-1.2727699018	-0.866996301	 3.1722477923	 0.106257
H	 0.2992427403	-2.9527413971	 1.4453511633	 0.095861
107.4324	158.5469	167.5446	172.8445	207.5568	304.1619	358.6481	390.0559	436.2917	469.3666	489.3909	567.2544	707.7913	750.6564	786.0463	827.9741	893.9736	923.0743	938.22	947.599	956.2035	965.8353	993.3573	1023.6	1061.1376	1083.0274	1094.2857	1117.3915	1130.4747	1157.2104	1174.3116	1213.3943	1242.241	1251.6052	1296.2847	1341.7006	1406.8245	1416.0395	1463.5582	1473.6685	1476.8661	1483.8439	1492.9172	1498.4714	1532.3938	3030.516	3035.5105	3042.5053	3090.7366	3095.7993	3105.9288	3109.2842	3126.8175	3129.1789	3189.0665	3192.3243	3205.0946
CC1(C)OC11CC2CC12	CC1(C)O[C@]21C[C@H]1C[C@@H]21	
InChI=1S/C8H12O/c1-7(2)8(9-7)4-5-3-6(5)8/h5-6H,3-4H2,1-2H3	InChI=1S/C8H12O/c1-7(2)8(9-7)4-5-3-6(5)8/h5-6H,3-4H2,1-2H3/t5-,6-,8-/m1/s1
