19
gdb 79645	2.57712	1.50161	1.17001	0.9318	87.4	-0.2028	0.034	0.2367	1124.0302	0.158067	-348.644403	-348.635929	-348.634985	-348.677049	33.659	
C	-0.2116817201	 1.5881881502	-0.0553079344	-0.438776
C	 0.1065110061	 0.0958570923	 0.0363107496	-0.067835
C	 1.3518844781	-0.6672846568	-0.3144943695	-0.135104
C	 2.7066098743	-0.1185653436	 0.1955164039	-0.052495
C	 2.6388643066	 1.1629516799	 0.9836317562	-0.30996
C	 2.1876235246	-0.1209840125	 1.6212129178	-0.102133
C	 0.8117835547	-0.684448769	 1.1395278233	 0.117182
C	 0.1779740202	-1.7482761886	 1.8349289426	 0.216775
C	-0.3442721108	-2.6462455951	 2.4459716296	-0.421448
H	 0.4434150286	 2.1089703714	-0.7588718467	 0.132394
H	-1.2375864948	 1.7174505983	-0.4124630428	 0.116292
H	-0.144200976	 2.088779078	 0.9138267246	 0.135818
H	-0.7463048012	-0.50567871	-0.2740552096	 0.104789
H	 1.3172528935	-1.4990614042	-1.0072602208	 0.101382
H	 3.6444910122	-0.516314304	-0.168490273	 0.093656
H	 3.6103103483	 1.4933929419	 1.3425910119	 0.114284
H	 1.97422729	 1.9777437586	 0.7419606225	 0.116344
H	 2.6606626353	-0.5297314153	 2.5038261817	 0.095919
H	-0.8093084694	-3.4387830014	 2.9770402631	 0.182915
116.6171	130.3117	153.4503	243.9711	272.4296	386.5955	403.8326	468.9078	501.7601	532.5632	561.1979	644.1927	654.5429	691.8502	720.5883	766.7063	833.9091	877.4865	897.5207	923.9584	964.8061	995.9847	1026.1072	1060.1118	1065.9827	1077.6912	1088.4835	1099.3419	1117.4471	1184.9676	1205.0626	1258.6756	1290.9289	1325.4191	1356.2569	1414.0963	1457.8897	1489.1528	1505.707	1514.9133	2221.6309	3043.3035	3100.8614	3118.0071	3125.0942	3138.5565	3186.0581	3197.3763	3207.4358	3259.0785	3504.6192
CC1C2C3CC3C12C#C	C[C@H]1[C@H]2[C@H]3C[C@H]3[C@@]12C#C	
InChI=1S/C9H10/c1-3-9-5(2)8(9)6-4-7(6)9/h1,5-8H,4H2,2H3	InChI=1S/C9H10/c1-3-9-5(2)8(9)6-4-7(6)9/h1,5-8H,4H2,2H3/t5-,6-,7+,8-,9+/m0/s1
