17
gdb 28436	3.1255	1.38458	0.96595	1.8345	81.53	-0.1959	0.0007	0.1966	1187.1523	0.137791	-418.096716	-418.088429	-418.087485	-418.12928	32.116	
C	-0.0007785256	 1.5517808628	-0.0095626952	-0.490844
C	-0.0032074437	 0.0480427289	-0.0386658749	 0.164562
C	-0.1093782065	-0.7038804528	-1.2050400102	-0.13079
C	-0.1075971737	-2.0932142706	-1.1768294088	-0.205752
C	 0.0078332393	-2.7239165952	 0.0670816896	 0.368315
N	-0.0373284829	-4.1018744189	 0.1978754763	-0.568728
N	 0.1190678184	-2.0280329885	 1.2074808666	-0.432756
C	 0.1071808108	-0.7036628539	 1.1395369138	 0.367238
O	 0.2179713762	-0.0358492502	 2.3123899366	-0.417305
H	 0.9204778752	 1.9456077459	 0.4343176528	 0.131934
H	-0.0921498955	 1.9593922291	-1.0202137859	 0.113551
H	-0.8281484644	 1.9449474038	 0.5918626991	 0.132725
H	-0.1962022138	-0.1887091428	-2.1578202485	 0.095346
H	-0.1997087914	-2.6757569302	-2.0860904224	 0.081182
H	 0.2698479139	-4.6346544675	-0.6008020515	 0.248897
H	 0.32850788	-4.4371481341	 1.0766216974	 0.250462
H	 0.2781637237	-0.7163059659	 2.9967263352	 0.291963
105.8248	128.2566	238.769	275.4636	316.5741	326.389	376.3431	456.0729	481.3274	525.0971	542.2088	561.3661	593.1676	707.6539	758.0582	770.2764	787.2306	815.4161	959.1504	977.8769	1016.8268	1066.7532	1098.3455	1141.1965	1218.3048	1246.1231	1307.8871	1366.285	1377.7705	1417.2958	1461.7276	1477.9547	1501.5867	1532.0061	1630.4565	1636.5915	1668.3117	3028.6338	3079.0866	3109.7031	3166.4961	3194.44	3576.992	3689.1511	3770.9393
CC1=CC=C(N)N=C1O	Cc1ccc(N)nc1O	
InChI=1S/C6H8N2O/c1-4-2-3-5(7)8-6(4)9/h2-3H,1H3,(H3,7,8,9)	InChI=1S/C6H8N2O/c1-4-2-3-5(7)8-6(4)9/h2-3H,1H3,(H3,7,8,9)
