19
gdb 93728	3.18921	1.06461	1.02124	2.4094	77.36	-0.2606	0.0384	0.299	1250.5385	0.157686	-422.998049	-422.988762	-422.987817	-423.032194	35.726	
O	-0.1122831911	 1.4833382462	 0.1295076763	-0.437065
C	 0.0434414384	 0.0751730301	 0.0777854114	 0.139852
C	 0.6211753743	-0.5623675837	 1.3543162043	-0.253069
C	 0.1167831857	-2.0049212088	 1.2670020644	-0.239093
C	-1.3670675541	-1.8286487436	 0.8366989343	 0.203578
O	-2.1648229604	-1.4600142734	 1.9698321799	-0.462914
C	-1.3447266596	-0.5792406408	-0.0908977479	-0.241582
C	-1.9136703525	-3.0310346995	 0.203921017	 0.262317
C	-2.35561969	-4.0395661345	-0.2796356886	-0.448158
H	 0.763333876	 1.8773165112	 0.194994115	 0.280454
H	 0.6822735383	-0.2012517791	-0.7765259731	 0.063021
H	 1.7105179934	-0.4843997643	 1.4218347282	 0.082941
H	 0.1802828847	-0.0621905306	 2.2224913283	 0.120075
H	 0.6588914625	-2.5608021603	 0.493592127	 0.107892
H	 0.1954486353	-2.5704057586	 2.1997335203	 0.0968
H	-2.264877176	-2.2447061235	 2.520681782	 0.279625
H	-2.1168480559	 0.1134803811	 0.2494546223	 0.138629
H	-1.5539036301	-0.8435749605	-1.1279163395	 0.112184
H	-2.7539195787	-4.9210676775	-0.7182198713	 0.194514
37.9495	139.7558	163.4363	210.0511	279.7853	316.9668	356.9963	390.8458	399.0073	444.1119	491.9027	544.2532	566.6959	593.9812	627.2607	662.2313	751.7713	820.0916	878.775	892.6601	971.8988	1004.7543	1025.2294	1036.5379	1066.3517	1081.4278	1131.8342	1198.8399	1209.6651	1240.7837	1278.4501	1291.0363	1316.5975	1331.5213	1364.0944	1386.9595	1430.3172	1473.9623	1479.0224	1495.8362	2230.1497	2962.8912	3043.9522	3050.9962	3086.2851	3093.5109	3105.2355	3139.8442	3500.2099	3801.1628	3818.2035
OC1CCC(O)(C1)C#C	O[C@H]1CC[C@@](O)(C1)C#C	
InChI=1S/C7H10O2/c1-2-7(9)4-3-6(8)5-7/h1,6,8-9H,3-5H2	InChI=1S/C7H10O2/c1-2-7(9)4-3-6(8)5-7/h1,6,8-9H,3-5H2/t6-,7+/m0/s1
