23
gdb 84369	2.23029	1.57432	1.23786	1.1976	86.67	-0.243	0.0162	0.2593	1164.6678	0.204274	-388.312086	-388.302122	-388.301177	-388.345849	38.86	
C	 0.9266621869	 1.5633717793	-0.2329004972	-0.392269
C	 0.0704332525	 0.2949988308	-0.0604578893	-0.053937
C	 0.2431818042	-0.6401381919	-1.2365655582	-0.076379
C	 0.9711568623	-1.710808421	-0.9287849477	-0.121594
C	 1.4227007766	-1.6907137499	 0.5197760191	 0.341694
C	 1.3514123269	-3.0538442196	 1.2103572506	-0.440563
O	 2.7673038529	-1.1782076014	 0.6197463301	-0.468749
C	 0.4721851134	-0.6246591829	 1.1358346102	 0.002086
C	 1.0045576903	 0.0733990802	 2.385488441	-0.411821
H	 1.9861398322	 1.3019118861	-0.2962805711	 0.134492
H	 0.6486615079	 2.0941277602	-1.1499414541	 0.103909
H	 0.7881602388	 2.2543590201	 0.604398049	 0.111049
H	-0.9771663034	 0.6060737003	 0.0464018582	 0.065818
H	-0.1454829334	-0.4084165375	-2.2235345995	 0.091335
H	 1.2657936635	-2.5002245909	-1.614240239	 0.083103
H	 2.0328090135	-3.7660428282	 0.7291766873	 0.099638
H	 1.644923914	-2.9699705915	 2.2609924804	 0.123132
H	 0.3417349753	-3.4734466737	 1.1588019954	 0.116339
H	 3.3355731142	-1.7404725083	 0.0828302283	 0.271662
H	-0.4377648381	-1.171628044	 1.4117875065	 0.071571
H	 1.9411121079	 0.5968505899	 2.1868780575	 0.13729
H	 0.2747482362	 0.7975477576	 2.763593568	 0.103391
H	 1.1937702757	-0.6495850437	 3.1856636644	 0.108804
90.3238	181.8753	219.9212	224.8399	235.85	246.8235	267.437	272.2239	291.8177	360.1625	374.6895	450.5779	532.7053	568.0687	624.0774	713.671	754.2787	787.2252	808.6651	891.5659	927.2279	939.5769	976.2947	988.1272	1020.3142	1048.1221	1078.4408	1090.6604	1123.2899	1143.7326	1161.0561	1176.6909	1205.8274	1300.2706	1317.6412	1332.1236	1355.2589	1368.8237	1386.0044	1400.9025	1405.1856	1412.0291	1486.4678	1490.1215	1491.9643	1496.6698	1504.3651	1510.0207	1683.4844	3008.0574	3024.235	3028.8363	3033.8679	3039.578	3089.5996	3093.5459	3097.6388	3112.8287	3124.1498	3135.6553	3161.9041	3189.086	3809.4897
CC1C=CC(C)(O)C1C	C[C@H]1C=C[C@@](C)(O)[C@H]1C	
InChI=1S/C8H14O/c1-6-4-5-8(3,9)7(6)2/h4-7,9H,1-3H3	InChI=1S/C8H14O/c1-6-4-5-8(3,9)7(6)2/h4-7,9H,1-3H3/t6-,7-,8+/m0/s1
