19
gdb 66113	2.569	1.47153	1.31655	2.9104	78.65	-0.2646	0.0306	0.2952	1065.0426	0.161642	-382.081812	-382.073612	-382.072668	-382.114248	32.275	
N	-0.0440982225	 1.4529336736	 0.0601343798	-0.532842
C	-0.0122218905	-0.0133004492	 0.0084986403	 0.113801
C	 0.6612899646	-0.5925202227	 1.2889277038	-0.262209
C	-0.0127150864	-1.9565603521	 1.5387866017	-0.226868
C	-1.4136591655	-1.8090804832	 0.9615346105	-0.019998
C	-2.1838569248	-0.5588502601	 1.3035375449	-0.311158
C	-1.4129462121	-0.6325129588	 0.0108942011	-0.028075
C	 0.7048989864	-0.5011496485	-1.1953558154	 0.243653
N	 1.2715320151	-0.840504579	-2.1453169135	-0.349255
H	 0.9043860782	 1.8193765096	 0.0343609995	 0.238136
H	-0.510375324	 1.8177870627	-0.7663298764	 0.238772
H	 1.7459928444	-0.6664322631	 1.1854945398	 0.117347
H	 0.4550431732	 0.1111535166	 2.0991364109	 0.124091
H	 0.5181020519	-2.7496748696	 1.0006608463	 0.119242
H	-0.0063570286	-2.2242508055	 2.6004805655	 0.106077
H	-1.9709006368	-2.7077595996	 0.7229051933	 0.090001
H	-3.2639645487	-0.6052362545	 1.220845824	 0.116271
H	-1.8309514911	 0.0991243771	 2.0896810328	 0.125558
H	-1.9512752427	-0.6556879534	-0.9295890488	 0.097456
104.1843	147.5051	207.6601	250.4872	268.083	345.0121	390.8775	451.6857	481.4188	559.2641	638.7827	650.8416	704.9079	806.011	825.5868	842.3565	890.3794	916.828	938.3753	960.5985	981.4064	1025.9796	1056.9784	1075.112	1094.2047	1114.5155	1133.8315	1155.7306	1207.2139	1217.1399	1233.5937	1309.9244	1315.2381	1336.1871	1367.8002	1393.6143	1485.9899	1492.9164	1510.1386	1658.4793	2336.4072	3042.465	3069.7843	3081.5916	3119.2313	3140.2731	3171.2929	3179.8034	3222.8954	3481.9245	3560.3
NC1(CCC2CC12)C#N	N[C@]1(CC[C@H]2C[C@@H]12)C#N	
InChI=1S/C7H10N2/c8-4-7(9)2-1-5-3-6(5)7/h5-6H,1-3,9H2	InChI=1S/C7H10N2/c8-4-7(9)2-1-5-3-6(5)7/h5-6H,1-3,9H2/t5-,6+,7+/m0/s1
