19
gdb 107417	3.15395	1.21829	1.1029	2.483	70.35	-0.2578	0.0694	0.3272	1161.7274	0.159753	-460.155989	-460.147668	-460.146724	-460.188931	32.506	
O	-0.0218360894	 1.3432836036	-0.4246546019	-0.413412
C	 0.005688985	 0.0348870461	 0.1215163853	-0.158292
C	-1.3772095189	-0.5438284339	 0.2492844295	 0.378422
C	-2.4283971803	 0.0732504639	 1.1547570996	-0.301956
C	-3.6244120041	-0.9130788978	 1.0763587331	 0.12113
O	-4.5320822307	-0.563246173	 0.0474026357	-0.440547
C	-2.9690393828	-2.2977642667	 0.8168110118	-0.271677
C	-1.716157339	-1.9590495517	 0.0361898227	-0.0147
O	-1.9507605545	-0.9929457246	-1.0124970746	-0.321563
H	-0.4200984592	 1.2729065258	-1.2995411554	 0.292997
H	 0.6290169159	-0.6428647587	-0.4801848059	 0.095253
H	 0.4650884141	 0.1281928562	 1.1115465429	 0.114326
H	-2.0288011756	 0.1406641293	 2.1742104944	 0.103143
H	-2.7269506605	 1.0767515932	 0.8431977385	 0.124831
H	-4.2094720871	-0.9107892622	 1.9988471593	 0.085004
H	-4.0113846741	-0.5647788272	-0.7670629082	 0.283936
H	-2.6871823457	-2.7953710433	 1.7528819831	 0.105732
H	-3.6561630726	-2.9539936785	 0.2758352634	 0.120265
H	-0.9705547505	-2.7141159405	-0.2010658033	 0.097109
73.7939	127.7995	189.3791	281.7267	300.0136	390.8835	400.6533	423.1129	442.9596	489.883	553.8647	662.1238	693.7853	789.8531	824.8599	855.6048	869.7169	914.6165	954.8253	967.7672	985.6057	1023.521	1052.1769	1074.7775	1121.8598	1165.8637	1184.027	1213.803	1236.3197	1262.8393	1293.0807	1299.7256	1335.7698	1346.0137	1386.4123	1421.5818	1454.9127	1456.1898	1467.0847	1487.5115	1488.6805	2997.1876	3038.6957	3040.6898	3075.4965	3087.846	3101.564	3112.5923	3146.0941	3754.6062	3803.6396
OCC12CC(O)CC1O2	OC[C@]12C[C@@H](O)C[C@H]1O2	
InChI=1S/C6H10O3/c7-3-6-2-4(8)1-5(6)9-6/h4-5,7-8H,1-3H2	InChI=1S/C6H10O3/c7-3-6-2-4(8)1-5(6)9-6/h4-5,7-8H,1-3H2/t4-,5+,6+/m0/s1
