14
gdb 43527	2.93107	1.30739	0.95957	1.4538	68.94	-0.2629	-0.0269	0.236	1150.8858	0.100864	-436.732449	-436.724516	-436.723571	-436.765692	29.188	
O	-0.0170259224	-0.0458830537	-0.3496463519	-0.334846
C	-0.0340455495	 1.1389467875	-0.1446654596	 0.418225
C	-1.244087475	 2.027969644	 0.1265751526	-0.357473
C	-0.6982646514	 3.4773500704	 0.1374440819	-0.306764
C	-1.1607439292	 4.3039784659	 1.2390780193	 0.327002
C	-1.5563063566	 4.9632253652	 2.1614000228	-0.437864
C	 0.8439583679	 3.30836386	 0.1207301884	 0.425147
O	 1.6762196521	 4.1652592735	 0.2337640105	-0.329447
N	 1.0892625556	 1.9599409228	-0.0933962462	-0.356176
H	-2.012829706	 1.8540095572	-0.6280554408	 0.152967
H	-1.6652052943	 1.7505654569	 1.0963308992	 0.163042
H	-0.9411016773	 3.9748301087	-0.810697509	 0.15039
H	-1.8974282608	 5.558081524	 2.972503949	 0.207745
H	 2.0267560869	 1.5964887279	-0.1967156762	 0.278052
48.1616	134.3942	136.2998	220.1854	366.5192	426.0269	462.3504	523.4174	564.8556	625.7095	630.9876	642.4533	654.2888	680.9632	716.903	818.935	879.9598	955.3671	1024.1695	1074.0966	1167.9066	1175.156	1237.5791	1280.0405	1316.7615	1341.5144	1362.93	1464.4356	1843.7768	1886.1157	2247.3166	3027.8966	3084.0672	3133.4129	3503.6482	3615.3901
O=C1CC(C#C)C(=O)N1	O=C1C[C@@H](C#C)C(=O)N1	
InChI=1S/C6H5NO2/c1-2-4-3-5(8)7-6(4)9/h1,4H,3H2,(H,7,8,9)	InChI=1S/C6H5NO2/c1-2-4-3-5(8)7-6(4)9/h1,4H,3H2,(H,7,8,9)/t4-/m1/s1
