21
gdb 96125	2.13719	1.81376	1.22258	0.5497	78.01	-0.2374	0.0724	0.3098	1101.9104	0.182973	-424.221965	-424.213309	-424.212365	-424.254645	34.4	
C	-0.10697084	 1.516178319	-0.0345409729	-0.417313
C	 0.0520086908	 0.002085895	 0.0060564752	 0.069489
O	 0.7389015482	-0.3874727069	-1.1752761473	-0.258178
C	 0.8760380713	-1.7974749734	-1.2702284158	-0.071472
C	 1.8760315524	-2.3420218579	-0.2439183779	-0.237401
C	 1.6865744439	-1.6836492559	 1.1195201887	-0.0757
C	 2.2668261156	-0.3003716086	 1.3728490375	-0.349244
C	 0.7795318624	-0.4919874455	 1.252653995	 0.383497
O	 0.0020692368	-0.4528968991	 2.4206778501	-0.47292
H	 0.8712019927	 2.0059359576	-0.0365185526	 0.124142
H	-0.6466925257	 1.81684198	-0.9362676601	 0.125064
H	-0.6738854538	 1.8652293153	 0.8345193024	 0.106245
H	-0.9471770329	-0.4682268292	 0.0181742395	 0.069967
H	-0.108693074	-2.2717581075	-1.1272660138	 0.09014
H	 1.2045154324	-2.0073557911	-2.292372652	 0.103188
H	 1.743753818	-3.4263629132	-0.1615512772	 0.100977
H	 2.8992759203	-2.1761648431	-0.6003709564	 0.105813
H	 1.6840434789	-2.3437114586	 1.9803224365	 0.095714
H	 2.6641943553	-0.0947566189	 2.3606341895	 0.106526
H	 2.7865500759	 0.1791274396	 0.5491289565	 0.118775
H	-0.0075478784	 0.4558337323	 2.740572615	 0.282693
98.8139	198.5764	226.9765	242.9713	274.8807	296.3397	344.4394	376.0967	415.0604	478.5539	497.2695	549.4187	646.1384	697.8314	791.4421	849.9138	876.0138	903.4909	931.0341	943.9422	965.1463	1038.8058	1054.6937	1069.3635	1103.2318	1122.1372	1136.6773	1140.9489	1161.0358	1213.7586	1259.5301	1289.2632	1311.758	1328.6325	1353.3506	1369.8298	1382.808	1400.9746	1407.7985	1418.1187	1473.9611	1487.2786	1490.4209	1497.0163	1502.7651	2948.7471	2972.3631	3032.0826	3041.7215	3071.8772	3084.7199	3112.8538	3123.6683	3126.0359	3165.4229	3219.9119	3798.0729
CC1OCCC2CC12O	C[C@H]1OCC[C@H]2C[C@@]12O	
InChI=1S/C7H12O2/c1-5-7(8)4-6(7)2-3-9-5/h5-6,8H,2-4H2,1H3	InChI=1S/C7H12O2/c1-5-7(8)4-6(7)2-3-9-5/h5-6,8H,2-4H2,1H3/t5-,6+,7-/m1/s1
