18
gdb 8086	3.57067	2.21287	1.78602	1.6212	66.96	-0.2412	0.0874	0.3287	803.0027	0.155083	-384.923926	-384.917153	-384.916209	-384.954277	27.633	
C	-0.1147957205	 1.5157574706	-0.0048022569	-0.466713
C	 0.0889891182	 0.0243215071	-0.1047658559	 0.423438
C	 1.3116070163	-0.5885461091	-0.8542438528	-0.255104
C	 1.0760953227	-1.8185638018	 0.0622336204	 0.111427
C	 0.5243278057	-0.8304924264	 1.1268912536	-0.31104
O	 0.0273473411	-2.6073888293	-0.502812397	-0.274725
C	-1.2095526743	-1.9290309118	-0.455440591	 0.024107
O	-1.0925976649	-0.5442448885	-0.6982074572	-0.310576
H	 0.7862892706	 1.9999814128	 0.382746352	 0.112094
H	-0.3388845009	 1.9346898967	-0.9906574382	 0.129432
H	-0.9522591623	 1.7475836718	 0.6605554598	 0.123285
H	 1.2006997349	-0.7467911942	-1.9282028492	 0.10383
H	 2.2457693887	-0.0672392578	-0.6271155745	 0.093542
H	 1.8941694862	-2.4972364503	 0.3061144622	 0.080134
H	 1.342021402	-0.3429207778	 1.6619199265	 0.106396
H	-0.2255716917	-1.1682630681	 1.844603813	 0.107338
H	-1.8453427644	-2.3481346485	-1.2399916729	 0.117295
H	-1.6862237775	-2.0961813653	 0.5239036683	 0.085839
219.4899	231.9355	280.0589	317.5505	387.176	443.9157	476.0348	492.7584	612.3118	683.4144	815.5125	844.5448	854.2088	862.0622	901.5925	961.9132	974.2713	1001.0258	1019.2542	1060.6901	1098.2639	1136.7781	1157.151	1185.385	1201.5173	1237.1921	1240.2686	1263.2099	1268.5647	1323.2017	1364.2666	1413.0417	1443.5011	1461.2132	1480.4602	1493.4006	1495.199	1542.1789	2962.7034	3038.9757	3060.6503	3076.6429	3088.5275	3107.2547	3111.4108	3116.9902	3131.037	3134.8465
CC12CC(C1)OCO2	C[C@@]12C[C@@H](C1)OCO2	
InChI=1S/C6H10O2/c1-6-2-5(3-6)7-4-8-6/h5H,2-4H2,1H3	InChI=1S/C6H10O2/c1-6-2-5(3-6)7-4-8-6/h5H,2-4H2,1H3/t5-,6+
