13
gdb 26800	3.75833	1.16372	0.89334	5.992	74.22	-0.2181	-0.0468	0.1712	1197.3243	0.090626	-448.96154	-448.953407	-448.952463	-448.994263	29.484	
N	 0.1660368914	 1.3473030962	 0.1230560354	-0.600039
C	-0.0051485228	-0.0067106388	 0.0345628889	 0.363056
C	-1.1265740441	-0.8003238222	 0.0015216436	 0.133615
N	-2.4526154467	-0.3257761248	-0.0368550619	-0.617157
N	-0.7249293907	-2.1178422145	-0.0087753981	-0.313947
C	 0.5727990813	-2.0806222994	 0.0136963582	 0.262732
O	 1.0851942825	-0.7995492012	 0.0545254611	-0.19313
C	 1.4933715567	-3.149089307	-0.012577086	 0.25072
N	 2.2528848483	-4.0240029192	-0.0318842237	-0.337246
H	 0.998151433	 1.7081809719	-0.3230292534	 0.271031
H	-0.6739612812	 1.8525699131	-0.126656801	 0.276013
H	-2.9119158108	-0.4205936447	 0.8649937473	 0.251278
H	-3.0032316271	-0.8561767993	-0.7049072504	 0.253074
121.1691	146.6307	152.8375	250.9006	261.2175	314.1469	335.9965	442.0751	507.4444	546.8702	616.2644	626.4016	677.0341	709.0675	735.721	833.18	863.2547	977.7199	1070.9408	1175.6361	1217.4971	1254.0745	1346.1432	1467.9976	1562.1567	1614.1054	1653.2875	1700.0314	2340.7416	3489.8496	3551.2588	3561.0577	3657.585
NC1=C(N)N=C(O1)C#N	Nc1c(N)nc(o1)C#N	
InChI=1S/C4H4N4O/c5-1-2-8-3(6)4(7)9-2/h6-7H2	InChI=1S/C4H4N4O/c5-1-2-8-3(6)4(7)9-2/h6-7H2
