17
gdb 45198	3.39766	1.58111	1.33597	1.9032	72.94	-0.2441	-0.0269	0.2172	962.4965	0.137402	-421.77485	-421.768258	-421.767314	-421.80565	27.409	
O	-0.1168934161	-0.0070966573	 0.2607658606	-0.29058
C	-0.0738828895	 1.1712864187	 0.0822213107	 0.300684
C	-1.1635320616	 2.2701895747	-0.219308494	-0.416455
C	 0.0105179356	 3.0646894586	-0.8776623268	 0.140698
O	 0.4758110008	 4.4014057559	-0.6672529266	-0.295727
C	 1.6914791568	 4.12826322	 0.0781362305	 0.100921
C	 1.169875577	 3.2042362793	 1.1878546728	-0.250314
C	 1.0103130035	 2.2473474494	-0.0603172231	 0.140638
C	 2.3564777339	 2.8433256854	-0.5590618172	-0.346523
H	-1.9800211066	 1.9537023597	-0.8702631868	 0.130561
H	-1.5722399413	 2.7110988205	 0.6914361244	 0.140579
H	 0.0367636063	 2.8431319832	-1.950233276	 0.091719
H	 2.2333491788	 5.056209519	 0.2540282349	 0.09328
H	 1.9346265198	 2.8265679747	 1.8681965256	 0.116015
H	 0.2845671046	 3.5373890402	 1.7297258986	 0.113087
H	 2.5300101446	 2.8316800349	-1.6367062198	 0.11408
H	 3.2485638533	 2.5400932333	-0.010063758	 0.117337
129.1121	274.0587	278.0828	441.8175	463.0813	510.9283	525.1176	603.9526	632.4471	660.6415	767.6543	811.1317	863.0019	869.1699	909.1628	926.8323	949.4776	973.415	1001.6582	1013.0157	1038.388	1087.4713	1110.3327	1119.5923	1149.8563	1160.1746	1188.9374	1211.3334	1221.6307	1241.9538	1267.1883	1309.6602	1391.2206	1448.168	1476.4974	1508.6223	1892.5807	3040.9597	3078.5802	3084.5242	3088.8368	3140.6088	3146.0336	3149.8747	3155.6004
O=C1CC2OC3CC12C3	O=C1C[C@H]2O[C@H]3C[C@@]12C3	
InChI=1S/C7H8O2/c8-5-1-6-7(5)2-4(3-7)9-6/h4,6H,1-3H2	InChI=1S/C7H8O2/c8-5-1-6-7(5)2-4(3-7)9-6/h4,6H,1-3H2/t4-,6-,7+/m1/s1
