15
gdb 75080	2.30312	1.79417	1.0213	4.0793	69.19	-0.2588	-0.0448	0.214	1096.2025	0.1121	-454.01634	-454.008171	-454.007226	-454.04932	29.367	
C	-0.0282546378	 1.4900225689	 0.0054683375	-0.496826
C	-0.0114294203	-0.0034370761	-0.0230369432	 0.394768
N	-0.0310579394	-0.6901988401	-1.0981699636	-0.282626
C	-0.0045480084	-2.0983029208	-0.7248723716	-0.299759
C	 0.0347289094	-2.1518952833	 0.8008466137	 0.403329
O	 0.0659709525	-3.0925332515	 1.5372686444	-0.304799
N	 0.0287624713	-0.7671089015	 1.1738776396	-0.206088
C	 0.0568531417	-0.2579301047	 2.4767795879	 0.161605
O	 0.0901606925	-0.9208639442	 3.4752425715	-0.258553
H	 0.8640599971	 1.8922339855	 0.4966434474	 0.15158
H	-0.0588324718	 1.8456944171	-1.0243370743	 0.165616
H	-0.9034846851	 1.8714249147	 0.5419051834	 0.151583
H	-0.8880564172	-2.6251259036	-1.1021605122	 0.159455
H	 0.8711037917	-2.6038810333	-1.1468986179	 0.159543
H	 0.0438091239	 0.8465566129	 2.4813413972	 0.101173
82.3821	146.9485	212.4963	213.0238	227.1832	271.0059	313.2513	479.0142	510.529	535.7602	616.135	641.2604	710.4163	760.9098	963.9675	979.9173	1025.0095	1039.3293	1067.28	1081.5518	1104.7221	1186.2353	1257.3089	1322.4115	1339.0865	1415.7681	1440.8831	1454.1239	1477.6823	1482.827	1715.4272	1813.9267	1898.2436	2976.5475	3044.0222	3052.3235	3086.0226	3101.6141	3159.4829
CC1=NCC(=O)N1C=O	CC1=NCC(=O)N1C=O	
InChI=1S/C5H6N2O2/c1-4-6-2-5(9)7(4)3-8/h3H,2H2,1H3	InChI=1S/C5H6N2O2/c1-4-6-2-5(9)7(4)3-8/h3H,2H2,1H3
