17
gdb 31865	4.89774	0.98265	0.82333	1.5198	80.75	-0.2039	-0.0107	0.1932	1349.5025	0.137584	-418.060472	-418.051947	-418.051003	-418.094153	31.778	
N	-0.0444532231	 1.4158867528	 0.1318106972	-0.592997
C	 0.0195914599	 0.0242718144	 0.0435869439	 0.275354
C	-1.1474064716	-0.7556064351	 0.0228980065	-0.064566
N	-1.1556727575	-2.0831413746	-0.0013243859	-0.313188
C	 0.0156145877	-2.7293337629	-0.0065876541	 0.275699
C	-0.0748336543	-4.2370409257	-0.0295983602	-0.153345
O	 1.2280779806	-4.7927193918	-0.0869707067	-0.420701
C	 1.233311024	-2.0531807755	 0.0091536772	-0.138952
C	 1.2351250269	-0.6648642139	 0.0336365874	-0.158422
H	 0.7571884167	 1.8999973281	-0.2464189257	 0.247084
H	-0.9061998242	 1.8181368886	-0.2089152676	 0.248039
H	-2.1198759756	-0.2633657764	 0.0270704594	 0.088168
H	-0.6171530635	-4.5711125356	 0.8692905629	 0.105274
H	-0.6836514347	-4.5390998513	-0.8962398511	 0.105166
H	 1.1448876108	-5.7495554061	-0.0692766592	 0.290987
H	 2.158108712	-2.6148475756	-0.0005316538	 0.117363
H	 2.1720994659	-0.1148870794	 0.0482119599	 0.089035
37.2611	127.4449	202.5537	216.0728	278.9502	333.9756	359.4952	426.8807	433.9606	518.9237	550.1185	625.9348	656.4483	752.2985	756.4293	858.5141	865.5319	928.1124	974.4489	1035.1538	1044.1417	1084.7289	1103.8726	1158.1609	1196.5054	1238.63	1261.0364	1308.9294	1328.3536	1336.3037	1447.6243	1455.9794	1506.9059	1529.339	1614.8482	1640.7597	1659.9287	2971.1319	2994.7357	3122.3752	3164.5805	3224.8903	3558.0598	3654.7712	3847.3459
NC1=CN=C(CO)C=C1	Nc1cnc(CO)cc1	
InChI=1S/C6H8N2O/c7-5-1-2-6(4-9)8-3-5/h1-3,9H,4,7H2	InChI=1S/C6H8N2O/c7-5-1-2-6(4-9)8-3-5/h1-3,9H,4,7H2
