17
gdb 111380	2.35111	1.44939	1.07669	2.8859	71.56	-0.2652	0.0122	0.2774	1128.5018	0.136656	-417.961551	-417.953238	-417.952294	-417.994849	30.795	
O	 0.8425552268	-0.7590922572	-1.1105777934	-0.416064
C	 0.2031410794	-0.0566077708	-0.0618844281	-0.085877
C	-1.2708121027	-0.4173951695	-0.0135002614	 0.023472
C	-2.2765934906	 0.2973240683	 0.9588692756	-0.222543
C	-1.8008543454	 1.3829973344	 1.8046479322	 0.288952
N	-1.4003244816	 2.2492548283	 2.4578006419	-0.332324
C	-3.0526609267	 0.6833777068	-0.310024253	-0.023776
C	-2.2027205625	 1.4415367912	-1.2393411026	-0.255293
N	-2.085040961	-0.0342842304	-1.2285265697	-0.150444
H	 0.3480862819	-0.5822732775	-1.9192320367	 0.297308
H	 0.6873210174	-0.3669837959	 0.8702250589	 0.126751
H	 0.3492500819	 1.0298964239	-0.1501520998	 0.104854
H	-1.3564798045	-1.5004935507	 0.0973505775	 0.111963
H	-2.8075883311	-0.429606174	 1.5758668825	 0.136976
H	-4.1276269037	 0.5903363773	-0.4143776317	 0.117714
H	-2.6655889913	 1.8067611438	-2.1499792689	 0.137576
H	-1.4005345565	 2.0660201519	-0.8570557531	 0.140754
91.0804	104.2504	124.5024	218.2373	266.3171	353.2897	388.2529	397.5596	519.4495	549.6095	601.6739	737.6104	767.7274	778.3815	828.2394	899.5187	963.9063	999.7075	1040.1565	1061.0582	1071.8018	1093.0249	1114.1864	1123.969	1156.7405	1185.4995	1215.542	1238.5468	1283.7831	1328.2413	1340.9231	1367.6371	1394.9734	1431.989	1496.0487	1512.0432	2350.8276	3001.5306	3073.3762	3088.9751	3103.3916	3126.8733	3179.8003	3215.5425	3799.4276
OCC1C(C#N)C2CN12	OC[C@H]1[C@@H](C#N)[C@H]2CN12	
InChI=1S/C6H8N2O/c7-1-4-5-2-8(5)6(4)3-9/h4-6,9H,2-3H2	InChI=1S/C6H8N2O/c7-1-4-5-2-8(5)6(4)3-9/h4-6,9H,2-3H2/t4-,5+,6-,8?/m0/s1
