20
gdb 53517	2.66796	0.81275	0.65357	3.8838	85.47	-0.2462	0.0296	0.2758	1737.9429	0.16852	-403.160538	-403.149568	-403.148624	-403.198464	37.562	
C	-0.0256451105	 1.4648827269	 0.146270799	-0.498988
C	-0.0061864678	 0.010054224	 0.0823528185	 0.11458
C	 0.0254830526	-1.1923942643	 0.0127968733	 0.004366
C	 0.0270255209	-2.6507661289	-0.0462099014	-0.378997
C	-1.3840011164	-3.2781760633	-0.0654155181	 0.077671
C	-1.3007574168	-4.8070998548	-0.0488970906	-0.397992
N	-2.1437318161	-2.7676806042	 1.0771696463	-0.277453
C	-3.4813625219	-2.9604517406	 1.215406749	 0.154633
O	-4.1639324858	-3.6821951984	 0.5170491045	-0.32691
H	 0.6107564629	 1.9026665062	-0.6305011347	 0.152936
H	-1.0388297238	 1.8556683767	 0.0020705216	 0.151662
H	 0.3361349383	 1.827980538	 1.1144745599	 0.148951
H	 0.5593318566	-2.9933451056	-0.941054858	 0.137224
H	 0.5807661205	-3.0554907708	 0.8123005246	 0.130743
H	-1.893480964	-2.9640309481	-0.9854861051	 0.10644
H	-2.3039253299	-5.2328770483	-0.0824885945	 0.158013
H	-0.7365081984	-5.1642410276	-0.9166440734	 0.110727
H	-0.7988940049	-5.1568162135	 0.8595661489	 0.112269
H	-1.7369183084	-1.9954899497	 1.5848293855	 0.247328
H	-3.893594187	-2.3839661638	 2.0686727347	 0.072799
29.3518	50.2707	64.5257	93.6803	200.7336	220.6263	237.866	241.2707	276.7703	331.6111	373.0383	389.963	464.3502	511.0457	531.1695	770.1707	775.8241	852.846	916.043	947.3639	1032.5617	1051.4865	1053.8482	1095.8927	1112.5985	1143.637	1167.3803	1215.2181	1265.3575	1312.245	1362.6007	1385.6348	1402.2766	1415.4905	1431.728	1468.1309	1478.2368	1478.6194	1480.0252	1510.7432	1522.0458	1801.1998	2368.8612	2924.6163	3012.4768	3026.9026	3028.7951	3039.1739	3062.3917	3089.7742	3090.8797	3105.2661	3152.877	3604.3639
CC#CCC(C)NC=O	CC#CC[C@@H](C)NC=O	
InChI=1S/C7H11NO/c1-3-4-5-7(2)8-6-9/h6-7H,5H2,1-2H3,(H,8,9)	InChI=1S/C7H11NO/c1-3-4-5-7(2)8-6-9/h6-7H,5H2,1-2H3,(H,8,9)/t7-/m1/s1
