16
gdb 47147	3.44826	1.35217	1.05024	4.3361	73.6	-0.2412	-0.0468	0.1944	1112.5748	0.126327	-437.907749	-437.900326	-437.899382	-437.940005	27.894	
O	 0.0100837294	 0.0399051859	 0.4325414377	-0.366089
C	 0.0432644822	 1.2308934502	 0.2595346296	 0.40763
O	-1.087530872	 1.9884829815	 0.1749929174	-0.219866
C	-0.7352272382	 3.352600537	-0.0604728161	-0.12972
C	 0.7609719546	 3.3634155684	-0.1087764588	-0.2334
C	 1.2257553985	 2.1250698044	 0.0913642107	 0.205962
C	 2.6157930123	 1.6429129345	 0.1334053828	-0.118623
C	 3.0365370813	 0.5979865392	 1.1174521968	-0.242226
N	 2.9632485367	 0.2744508625	-0.3066606818	-0.321613
H	-1.1983380429	 3.6792147475	-1.0001132654	 0.140983
H	-1.1442714373	 3.9697817528	 0.7494111789	 0.140215
H	 1.3388986535	 4.2623998608	-0.2801529913	 0.127654
H	 3.3522059913	 2.3895657252	-0.1537116189	 0.094965
H	 4.0383415976	 0.6541619371	 1.5341224776	 0.121951
H	 2.2762762866	 0.187845785	 1.7743090245	 0.136418
H	 2.1014383863	-0.2453984922	-0.4655103237	 0.255757
83.3512	161.5724	193.693	222.4298	329.7266	379.2895	501.4471	504.2172	650.5115	745.6116	793.8223	798.0603	825.3256	846.4756	886.5457	959.0056	974.6658	995.9262	1024.4772	1072.6295	1088.2731	1121.0671	1146.11	1188.07	1198.8462	1230.3892	1284.6903	1318.9993	1352.0802	1372.0271	1408.4418	1493.7881	1499.7127	1698.9841	1837.2348	3026.1858	3058.1108	3117.0718	3134.7853	3212.211	3221.9077	3493.5115
O=C1OCC=C1C1CN1	O=C1OCC=C1[C@H]1CN1	
InChI=1S/C6H7NO2/c8-6-4(1-2-9-6)5-3-7-5/h1,5,7H,2-3H2	InChI=1S/C6H7NO2/c8-6-4(1-2-9-6)5-3-7-5/h1,5,7H,2-3H2/t5-/m1/s1
