12
gdb 132843	3.16203	1.53166	1.03184	1.6851	65.11	-0.2661	-0.0998	0.1664	1026.1921	0.077951	-476.819906	-476.812991	-476.812047	-476.85175	24.85	
F	 0.2499890271	 0.1627071625	-0.4893570026	-0.032097
C	 0.1229705626	 1.4463487136	-0.2052228282	 0.210975
C	-1.1415926591	 2.0271135815	-0.1900950165	-0.068301
N	-1.3122392069	 3.3158452472	 0.0910723161	-0.235027
C	-0.204804729	 4.017097635	 0.3567997151	 0.065475
N	 1.0401022828	 3.5546623979	 0.3669941356	-0.28475
C	 1.2207743519	 2.2568600617	 0.0847498558	 0.087273
C	 2.6403215072	 1.7844303429	 0.1091313377	 0.110846
O	 2.998138222	 0.657217124	-0.1164891756	-0.24237
H	-2.0189329732	 1.424526089	-0.4115229	 0.145719
H	-0.3390310379	 5.0699755362	 0.5869483758	 0.135341
H	 3.3415796325	 2.6056128285	 0.3637919669	 0.106916
90.9962	179.1073	197.1542	286.9299	403.9596	426.8833	465.5602	575.1194	599.5916	667.4673	776.437	780.6916	903.8716	950.5895	1001.578	1049.9112	1161.2034	1193.0606	1246.5847	1292.8608	1328.3067	1399.4163	1448.6293	1474.2245	1593.5069	1613.9452	1819.9992	2934.118	3170.3383	3184.4047
FC1=CN=CN=C1C=O	Fc1cncnc1C=O	
InChI=1S/C5H3FN2O/c6-4-1-7-3-8-5(4)2-9/h1-3H	InChI=1S/C5H3FN2O/c6-4-1-7-3-8-5(4)2-9/h1-3H
