16
gdb 34159	3.89525	1.61192	1.40891	1.9112	78.25	-0.2284	0.022	0.2504	926.7864	0.124933	-363.484213	-363.47764	-363.476696	-363.514887	27.416	
C	 0.0248403391	-1.1418932077	-0.0389883414	-0.34687
C	-0.0136370152	 0.0600107394	-0.0139490849	 0.104123
C	-0.0540247842	 1.4929689062	 0.0377879767	 0.252038
C	-1.0834678577	 2.2786796535	 0.8829403683	-0.287751
C	-0.8069369278	 3.3815872625	-0.1475918586	-0.029398
C	 0.6883708836	 3.7237788445	-0.1210955152	-0.098446
C	 0.9331942271	 2.8710325224	-1.3296661538	-0.023273
C	 1.2632138513	 2.3015201217	 0.0129491704	-0.150948
N	-0.4816650918	 2.3177629369	-1.2223127037	-0.210411
H	 0.0564607801	-2.2028963185	-0.068088651	 0.185021
H	-2.0837629365	 1.8554295164	 0.7649273222	 0.124755
H	-0.8568160308	 2.46153498	 1.9353151228	 0.105906
H	-1.5353851105	 4.1518396158	-0.3974539023	 0.083846
H	 1.2080087732	 4.6032275442	 0.2356908506	 0.094631
H	 1.4955870516	 3.0025045518	-2.2445525209	 0.099259
H	 2.2173404484	 2.0761803509	 0.4692184107	 0.097518
144.3642	158.7776	387.1616	441.9002	507.6904	524.8945	567.5547	622.2465	654.128	742.2784	785.0208	798.1057	809.339	831.6949	843.2012	882.69	921.4974	933.8562	969.0538	999.5038	1017.4777	1027.5849	1040.1791	1056.2092	1086.3581	1137.9435	1186.2049	1200.0318	1222.1692	1235.5545	1285.3455	1305.0025	1361.1697	1475.0218	2234.7593	3069.464	3124.6049	3135.1805	3193.8104	3201.1821	3216.5175	3502.4057
C#CC12CC3C4C(C14)N23	C#C[C@@]12C[C@H]3[C@@H]4[C@@H]([C@H]14)N23	
InChI=1S/C8H7N/c1-2-8-3-4-5-6(8)7(5)9(4)8/h1,4-7H,3H2	InChI=1S/C8H7N/c1-2-8-3-4-5-6(8)7(5)9(4)8/h1,4-7H,3H2/t4-,5-,6+,7-,8+/m0/s1
