17
gdb 128504	2.23909	1.42348	0.92765	3.4383	72.44	-0.2119	0.0397	0.2516	1249.4293	0.136293	-455.138241	-455.129046	-455.128102	-455.173472	32.168	
C	-0.2693568801	 1.3011925351	-0.1379833587	-0.265506
O	-0.0839023195	-0.1034095254	-0.0661895282	-0.255365
C	 0.6542484289	-0.6761691985	-1.0328068936	 0.438856
C	 0.967099295	-2.0173452364	-1.1692332291	 0.06135
C	 0.5214744574	-3.1398207618	-0.2985275569	-0.212392
O	-0.6504717644	-3.7396859336	-0.8565542669	-0.419399
C	 1.7596030602	-2.0486802097	-2.3407138659	-0.051111
N	 1.9371952325	-0.8535947347	-2.8853782324	-0.257835
N	 1.243755046	-0.016748662	-2.0617290348	-0.29487
H	 0.6873521479	 1.8359886132	-0.0686108133	 0.127731
H	-0.7846044643	 1.5889923477	-1.0637653089	 0.131152
H	-0.891491273	 1.5728567345	 0.715059981	 0.1512
H	 1.3306231646	-3.8817720072	-0.2135968997	 0.088715
H	 0.3195795041	-2.7578178579	 0.7132891351	 0.092944
H	-0.9099159874	-4.4621405845	-0.2750306185	 0.280149
H	 2.2092189041	-2.9165814909	-2.8028381674	 0.112554
H	 1.2352418078	 0.9667448321	-2.2641930619	 0.271828
34.2484	60.2934	153.2275	186.1769	208.659	266.5156	296.0274	299.7631	413.7806	436.6492	532.9567	632.4027	676.503	719.4788	761.0614	900.2431	945.2169	994.6437	1035.3251	1064.4873	1104.4887	1175.9126	1204.7286	1219.9963	1226.3603	1257.2964	1279.6039	1309.0894	1395.0219	1439.8397	1463.1342	1482.2299	1492.5303	1508.5993	1514.1574	1559.3136	1648.9927	2974.4545	3001.6257	3006.2587	3061.986	3146.7802	3235.5818	3694.0084	3806.2418
COC1=C(CO)C=NN1	COc1c(CO)cn[nH]1	
InChI=1S/C5H8N2O2/c1-9-5-4(3-8)2-6-7-5/h2,8H,3H2,1H3,(H,6,7)	InChI=1S/C5H8N2O2/c1-9-5-4(3-8)2-6-7-5/h2,8H,3H2,1H3,(H,6,7)
