17
gdb 28790	3.17239	1.64363	1.10863	5.0348	74.35	-0.1945	0.0441	0.2386	1067.0711	0.138847	-418.047512	-418.039895	-418.038951	-418.079793	28.236	
C	 0.0079325264	 1.5079153928	 0.0768182823	-0.49967
C	-0.0161024186	 0.0217584906	-0.001847982	 0.236717
C	-0.1147831256	-0.8519437204	-1.0540111876	-0.165918
N	-0.0798278544	-2.1883290167	-0.6492584958	-0.393043
C	 0.0427169296	-2.0878712626	 0.6367961794	 0.477077
O	 0.0566196627	-3.0099106161	 1.6268109255	-0.26803
C	 0.3605417944	-2.2890181339	 2.8395357747	-0.099207
C	 0.0628018484	-0.7864675101	 2.5518812096	-0.208344
N	 0.1139694963	-0.8159563673	 1.1071364202	-0.099914
H	 0.9434642629	 1.8877164689	 0.5070938022	 0.126105
H	-0.0876143734	 1.9274203434	-0.927623125	 0.141725
H	-0.8150441123	 1.9099095666	 0.6815371299	 0.12516
H	-0.1954761345	-0.5982359266	-2.1006049109	 0.105233
H	-0.2495229108	-2.7016664776	 3.644015028	 0.133946
H	 1.4201611098	-2.4353531007	 3.0764457771	 0.128491
H	-0.9246409679	-0.4771515693	 2.9169412223	 0.128531
H	 0.8188413371	-0.132529741	 2.99465987	 0.131139
131.2531	133.4606	172.4905	193.8404	236.0957	338.1894	523.9495	609.6781	621.4156	654.2583	723.0838	773.8069	788.6929	817.598	880.8282	943.7915	1005.7796	1031.4822	1064.938	1071.3242	1136.576	1167.2713	1213.2724	1217.2006	1251.2575	1277.2364	1311.6636	1379.3154	1402.2349	1421.1782	1477.7787	1478.4808	1496.7338	1517.581	1534.748	1595.8877	1639.2165	3012.2968	3022.7475	3044.8509	3054.5727	3086.7199	3119.2504	3127.7524	3244.7958
CC1=CN=C2OCCN12	Cc1cnc2OCCn12	
InChI=1S/C6H8N2O/c1-5-4-7-6-8(5)2-3-9-6/h4H,2-3H2,1H3	InChI=1S/C6H8N2O/c1-5-4-7-6-8(5)2-3-9-6/h4H,2-3H2,1H3
