18
gdb 97138	4.2359	1.1095	0.99385	3.1278	76.33	-0.2467	0.0095	0.2563	1246.4919	0.146561	-439.084329	-439.07557	-439.074626	-439.117928	31.99	
C	-0.0017254142	 1.4086319183	-0.2193014522	-0.331978
N	-0.0400915766	-0.0448154879	-0.253741487	-0.338818
C	-1.1029467853	-0.6403313874	 0.0618690581	 0.492656
O	-2.2863364301	-0.0396552234	 0.4248900475	-0.265448
C	-3.1877076396	-0.992192877	 1.009570662	-0.14015
C	-2.5969042399	-2.3657250526	 0.7340062198	 0.397949
C	-2.9891922532	-3.5596645784	 1.5554673768	-0.493255
O	-2.4068215843	-2.5543235321	-0.6710810314	-0.285823
C	-1.2830390311	-2.1160224586	 0.1234134077	-0.181076
H	 0.9855480053	 1.7283321599	 0.1278601734	 0.122353
H	-0.12784671	 1.8014238999	-1.2357486846	 0.131262
H	-0.7733853886	 1.8580946178	 0.4164738836	 0.121852
H	-3.2662963339	-0.8013572179	 2.0869437563	 0.114365
H	-4.1717416241	-0.8619731267	 0.5486163931	 0.12833
H	-4.0610284396	-3.7627062021	 1.455303118	 0.135971
H	-2.4442993781	-4.4445966785	 1.2193758583	 0.143141
H	-2.7733795979	-3.3932140855	 2.6155056619	 0.131284
H	-0.4255176387	-2.7765869176	 0.1696808687	 0.117385
82.3442	97.8523	181.6968	186.3148	215.1868	262.8216	322.8747	375.5188	431.2116	472.5309	596.7993	690.3743	713.9462	771.9733	846.9671	877.5193	914.9818	985.3937	1005.2681	1023.72	1051.136	1091.8102	1121.8329	1129.0354	1153.9823	1208.4256	1231.5214	1255.7855	1291.3093	1379.1469	1413.0849	1437.6115	1458.8459	1486.8233	1490.2855	1494.2071	1497.5722	1503.1548	1804.2602	3016.0177	3030.1013	3040.261	3075.2378	3086.6861	3095.6623	3103.214	3131.5876	3198.957
CN=C1OCC2(C)OC12	CN=C1OC[C@@]2(C)O[C@@H]12	
InChI=1S/C6H9NO2/c1-6-3-8-5(7-2)4(6)9-6/h4H,3H2,1-2H3	InChI=1S/C6H9NO2/c1-6-3-8-5(7-2)4(6)9-6/h4H,3H2,1-2H3/t4-,6+/m0/s1
