14
gdb 27630	2.96382	1.30451	0.91098	6.3711	71.87	-0.225	-0.0128	0.2122	1187.6197	0.102215	-432.93748	-432.929354	-432.928409	-432.970194	29.706	
C	-0.0551165094	 1.5227375566	 0.0828883769	-0.516456
C	 0.0074894219	 0.0395807479	-0.0063589286	 0.240322
C	 0.0215644041	-0.8219575905	-1.0787825919	 0.106345
N	 0.0885640534	-2.1521184126	-0.6643917473	-0.41602
C	 0.1137741001	-2.0756103099	 0.6325778154	 0.441529
O	 0.1770724221	-3.0877028015	 1.506561458	-0.421801
N	 0.0681577104	-0.7939064904	 1.0972202576	-0.350874
C	-0.0248890316	-0.4458588991	-2.4448201328	 0.217105
N	-0.0642179316	-0.103472245	-3.5509990447	-0.356198
H	 0.8247693332	 1.9381081482	 0.5882373334	 0.141511
H	-0.0970274479	 1.9449857773	-0.9231429089	 0.170361
H	-0.9432774375	 1.8609739247	 0.6295678538	 0.141453
H	 0.2010769168	-3.9016188472	 0.9865495656	 0.322675
H	 0.0773750459	-0.5168475283	 2.0649864137	 0.280048
138.8968	141.5896	151.6247	203.5636	275.5743	345.2646	419.5381	433.5284	497.4919	535.4974	545.0325	598.5837	647.4044	708.6917	733.7838	810.0637	1002.1891	1050.109	1063.7359	1154.5447	1187.1413	1263.5243	1303.0664	1411.4711	1422.0012	1480.0298	1489.5359	1542.6722	1618.745	1647.9337	2342.9583	3026.6993	3076.4603	3135.0711	3663.5972	3799.5075
CC1=C(N=C(O)N1)C#N	Cc1c(nc(O)[nH]1)C#N	
InChI=1S/C5H5N3O/c1-3-4(2-6)8-5(9)7-3/h1H3,(H2,7,8,9)	InChI=1S/C5H5N3O/c1-3-4(2-6)8-5(9)7-3/h1H3,(H2,7,8,9)
