13
gdb 28651	5.92369	1.04557	0.88893	6.9355	79.27	-0.2436	-0.0638	0.1798	1197.5213	0.091799	-411.857444	-411.850092	-411.849148	-411.889289	27.431	
N	 0.0033380095	 1.3649373394	 0.1053045703	-0.563182
C	-0.0014390148	 0.0061943161	 0.0402384194	 0.403414
C	-1.210949625	-0.7353987533	 0.0282693369	-0.074802
N	-1.2228095054	-2.0498366234	 0.0009343114	-0.279987
C	-0.0273416509	-2.6734513881	-0.0128009919	 0.177858
C	 1.1632846456	-1.9439424575	-0.0031260276	-0.045007
N	 1.1842222811	-0.6151179976	 0.0199378478	-0.313969
C	-0.005162626	-4.10483263	-0.041179492	 0.229486
N	 0.0536517378	-5.2607121253	-0.0644664538	-0.330858
H	 0.884374207	 1.8260668679	-0.0550604004	 0.272417
H	-0.8339457944	 1.8803571216	-0.104519877	 0.269617
H	-2.1724993155	-0.2262629131	 0.041733984	 0.115721
H	 2.1224952109	-2.4536986468	-0.0186565069	 0.139292
94.3686	156.8619	251.9404	306.7518	379.1797	430.2532	451.3818	470.5003	515.5221	567.4296	602.1025	666.9469	739.4219	810.6165	886.6438	919.7388	975.2669	1030.3109	1051.2623	1247.5534	1278.4324	1328.3056	1362.5047	1424.0966	1519.6259	1570.3069	1611.0942	1646.9262	2344.6839	3145.8307	3174.4005	3604.4514	3730.5159
NC1=CN=C(C=N1)C#N	Nc1cnc(cn1)C#N	
InChI=1S/C5H4N4/c6-1-4-2-9-5(7)3-8-4/h2-3H,(H2,7,9)	InChI=1S/C5H4N4/c6-1-4-2-9-5(7)3-8-4/h2-3H,(H2,7,9)
