17
gdb 51317	3.87778	1.0907	0.87921	4.7765	72.86	-0.2374	-0.0019	0.2355	1285.2582	0.137675	-455.186555	-455.178316	-455.177372	-455.220276	29.807	
O	-0.5234275284	 0.1246484543	 0.0280122327	-0.264465
C	-0.1481368289	 1.2626098479	 0.1096811617	 0.160809
N	 1.1571557697	 1.7155285782	 0.1598036045	-0.380326
C	 2.3487258108	 0.9856325315	 0.1074419818	 0.500016
N	 2.4099132279	-0.2707637958	 0.1819340155	-0.306659
C	 3.7071198432	-0.9181017079	 0.0403977421	-0.148535
C	 4.7849130554	-0.0048069082	-0.5538244133	-0.233114
C	 4.6840939254	 1.3556944043	 0.1211504971	-0.073399
O	 3.3618846075	 1.8947327086	-0.0304805433	-0.280442
H	-0.8391842998	 2.1299660401	 0.1566697307	 0.077083
H	 1.2900603849	 2.71505354	 0.189236682	 0.259471
H	 4.0211618311	-1.2838176686	 1.0279663295	 0.111358
H	 3.5726164576	-1.8097340415	-0.5816915486	 0.118041
H	 5.7868315884	-0.4222625482	-0.4113005983	 0.107021
H	 4.6259425086	 0.1181022612	-1.6310358017	 0.11771
H	 4.9089198238	 1.2777029622	 1.1932449915	 0.1149
H	 5.3527948227	 2.0983664319	-0.3193431339	 0.120532
43.3983	126.4865	155.9494	183.9599	262.6289	323.8099	358.3316	479.1613	503.594	592.0932	633.1593	720.8365	806.6071	851.6073	883.9344	895.2242	946.1753	986.9483	1024.4711	1078.591	1108.8149	1139.2262	1180.3078	1223.7279	1240.7132	1260.2356	1305.4887	1367.2317	1370.8572	1412.9741	1451.4621	1478.3281	1491.9529	1509.796	1535.1903	1767.4278	1853.4169	2915.1131	3010.6418	3021.6741	3041.9193	3059.8063	3092.0661	3106.9497	3630.1774
O=CNC1=NCCCO1	O=CNC1=NCCCO1	
InChI=1S/C5H8N2O2/c8-4-7-5-6-2-1-3-9-5/h4H,1-3H2,(H,6,7,8)	InChI=1S/C5H8N2O2/c8-4-7-5-6-2-1-3-9-5/h4H,1-3H2,(H,6,7,8)
