13
gdb 11695	4.48595	1.54447	1.32084	1.8882	60.67	-0.2586	-0.0593	0.1993	886.3872	0.094662	-398.579243	-398.572387	-398.571442	-398.610628	24.986	
O	-0.5499813959	 0.7548323251	 0.6850047814	-0.252967
C	 0.2008358889	 0.9786839777	-0.2314346137	 0.090937
C	 1.3800162888	 1.8643955043	-0.121707854	 0.226814
C	 1.8572053871	 2.6232623442	 1.1231709242	-0.432164
C	 2.0898525988	 3.8422059743	 0.1884451237	 0.420237
O	 2.3408157318	 4.9939819369	 0.3822352086	-0.289854
C	 1.6707289252	 3.066984094	-1.0490473044	-0.201879
N	 2.4070036156	 1.810391415	-1.1419946773	-0.339314
H	 0.0614752875	 0.5434520899	-1.2434044916	 0.095743
H	 1.0619930401	 2.8422077823	 1.8406445443	 0.164561
H	 2.712514298	 2.1926872017	 1.6509622364	 0.13142
H	 1.1444933898	 3.4242276717	-1.9266920659	 0.132894
H	 3.3450151244	 1.8577100628	-0.7485505716	 0.253572
87.4085	162.4646	193.3389	313.6009	409.3278	460.248	509.3225	573.4793	635.469	725.4527	746.3645	859.7725	949.4461	971.6881	1012.9599	1038.2131	1070.4681	1085.4297	1108.2733	1137.3097	1204.2143	1243.4548	1286.6792	1388.0607	1433.6025	1459.2239	1813.7817	1893.2541	2918.8253	3066.4229	3124.7368	3193.5218	3476.0028
O=CC12CC(=O)C1N2	O=C[C@]12CC(=O)[C@H]1N2	
InChI=1S/C5H5NO2/c7-2-5-1-3(8)4(5)6-5/h2,4,6H,1H2	InChI=1S/C5H5NO2/c7-2-5-1-3(8)4(5)6-5/h2,4,6H,1H2/t4-,5-/m1/s1
