19
gdb 32636	3.17507	1.26874	0.9844	3.2448	78.88	-0.186	0.0387	0.2246	1247.0621	0.159665	-419.272228	-419.262872	-419.261928	-419.307164	33.516	
C	-0.1036699509	 1.563606988	 0.018709641	-0.374285
C	 0.080951571	 0.0448002796	-0.0233187869	-0.15717
N	 0.7075798683	-0.4208345285	-1.2463462186	-0.110551
C	 0.1113810016	-0.5821405676	-2.4941607194	-0.121022
C	 1.0638820193	-0.9971301504	-3.3547784738	-0.122743
N	 2.2602300711	-1.0897995291	-2.6486550451	-0.114329
C	 3.5499448139	-1.4960542921	-3.1560657453	-0.346557
C	 2.0609723047	-0.7278541052	-1.3211763762	 0.479592
O	 2.8869850333	-0.6899134813	-0.42204808	-0.465198
H	 0.8639890988	 2.0680089177	-0.0511796328	 0.139838
H	-0.7328848831	 1.9106824324	-0.807073007	 0.117726
H	-0.5805236837	 1.8609474157	 0.9579246538	 0.119051
H	 0.7340180366	-0.2801368417	 0.7906995002	 0.146803
H	-0.8825419379	-0.4645880688	 0.0919271938	 0.10877
H	-0.9376168231	-0.3977079496	-2.6508082448	 0.134908
H	 1.0022079052	-1.2386496921	-4.4019599724	 0.134415
H	 3.5206641996	-2.519777028	-3.5449558389	 0.130003
H	 3.8946941865	-0.8253525815	-3.9506842498	 0.129851
H	 4.2494693686	-1.4501244176	-2.3194927678	 0.170896
40.5674	83.0465	117.6143	166.5142	210.0565	253.6939	286.6656	319.8841	386.9322	551.4039	578.6942	599.592	641.7204	745.1573	754.3059	756.5286	787.4041	819.7896	951.5369	1032.524	1062.0737	1084.1843	1106.2978	1124.3244	1159.4322	1245.5578	1261.5086	1321.7243	1357.5967	1381.9466	1402.6362	1411.5017	1438.8138	1474.4006	1490.9696	1493.0834	1496.124	1502.9768	1514.2387	1630.2841	1797.6145	3027.8313	3039.3596	3041.3793	3082.9209	3099.7956	3115.4659	3126.4452	3144.3038	3272.6096	3293.9452
CCN1C=CN(C)C1=O	CCn1ccn(C)c1=O	
InChI=1S/C6H10N2O/c1-3-8-5-4-7(2)6(8)9/h4-5H,3H2,1-2H3	InChI=1S/C6H10N2O/c1-3-8-5-4-7(2)6(8)9/h4-5H,3H2,1-2H3
