19
gdb 104671	2.21206	1.30594	1.14605	3.1254	67.25	-0.2427	0.0362	0.2789	1167.4677	0.157949	-497.258655	-497.248952	-497.248008	-497.292851	36.39	
O	 0.1680323724	 1.2136421551	-0.3393803485	-0.428704
C	 0.0144584635	-0.04316047	 0.3324254515	-0.139309
C	-1.4069230718	-0.5564092132	 0.2163364765	 0.188305
C	-2.4252662466	 0.2528404698	 0.998419826	-0.122718
O	-2.5986408353	 1.5520378451	 0.461625693	-0.432051
C	-1.8607418566	-1.0438448189	-1.1382078353	-0.011969
O	-0.8679150749	-1.0372100149	-2.1449357578	-0.437854
C	-1.65438233	-2.0428690742	-0.0265666562	 0.027431
O	-0.5875255091	-2.9313689569	-0.1426322206	-0.434425
H	 0.0425875557	 1.0299895694	-1.2785941595	 0.297595
H	 0.7365329985	-0.7771258248	-0.0373258334	 0.104196
H	 0.2522887818	 0.151726595	 1.3831712749	 0.117329
H	-3.4083774967	-0.2332450861	 0.9718794935	 0.092889
H	-2.1147386847	 0.2917234752	 2.0566108075	 0.087961
H	-1.7132710092	 1.8742860215	 0.238170546	 0.288441
H	-2.8572623788	-0.7730716722	-1.4774968093	 0.108217
H	-1.2114138655	-1.5064622743	-2.9127373698	 0.302986
H	-2.5161043931	-2.5006856195	 0.4517429626	 0.105234
H	-0.1598286396	-2.7338332961	-0.9873402711	 0.286446
105.5875	107.3406	142.9656	194.6885	219.1777	267.7191	287.8959	332.2241	361.7551	385.4344	450.416	485.2643	534.2192	599.0791	616.8161	670.1735	770.9276	834.6875	929.2021	950.2422	989.9334	1016.5722	1031.0032	1068.3118	1079.5181	1128.1351	1142.1661	1191.7205	1221.5453	1231.7296	1278.8596	1328.8036	1332.6478	1364.4392	1394.3265	1404.9158	1425.5165	1469.361	1473.9405	1502.6176	1519.2725	2958.4781	3041.7228	3050.0366	3092.7924	3136.2061	3146.4438	3719.2374	3742.1755	3792.1644	3811.304
OCC1(CO)C(O)C1O	OCC1(CO)[C@@H](O)[C@H]1O	
InChI=1S/C5H10O4/c6-1-5(2-7)3(8)4(5)9/h3-4,6-9H,1-2H2	InChI=1S/C5H10O4/c6-1-5(2-7)3(8)4(5)9/h3-4,6-9H,1-2H2/t3-,4+
