21
gdb 101014	2.63579	0.96586	0.94501	1.8297	73.88	-0.2649	0.0671	0.332	1384.5424	0.180394	-461.332625	-461.322334	-461.32139	-461.368045	37.685	
C	-0.3456979348	 1.6623574393	-0.1935698527	-0.40468
C	-0.0670728638	 0.1545664372	-0.1270246017	-0.073991
C	-1.3569710297	-0.6470862647	 0.1330921425	-0.075452
O	-1.9551703912	-0.3133541264	 1.3766271809	-0.419183
C	 0.6769769633	-0.3583540716	-1.352153521	 0.368698
C	 0.0187534334	-0.1986294237	-2.7220073603	-0.139293
O	 0.7173628682	-0.9032121669	-3.7231536024	-0.418588
C	 2.1363647735	-0.5159815244	-1.303725885	-0.230966
O	 1.2733727426	-1.6628270825	-1.186625566	-0.300608
H	 0.5798630805	 2.2387180543	-0.2875282902	 0.114113
H	-0.9887258709	 1.9141589045	-1.0438314165	 0.121432
H	-0.8642939386	 1.9783894778	 0.7143785019	 0.134582
H	 0.592841733	-0.0392009657	 0.7306086166	 0.068558
H	-2.1149788078	-0.4149892391	-0.6225427118	 0.111122
H	-1.1380612713	-1.7222812843	 0.0673527525	 0.106854
H	-1.3779672488	-0.635975933	 2.0763032877	 0.283454
H	-1.030724727	-0.5293157374	-2.6617083195	 0.097542
H	 0.0107590764	 0.8570587141	-3.0123432903	 0.119909
H	 0.9235469159	-1.7647867928	-3.3353696249	 0.291942
H	 2.7087280516	-0.4708147908	-2.2264373886	 0.131022
H	 2.6736334057	-0.2526974439	-0.394324321	 0.113535
55.6693	101.1463	113.7423	187.3081	211.1561	224.7059	275.439	284.8008	316.0065	348.1052	375.7499	476.2118	496.8999	510.4687	608.7976	719.3847	837.5761	861.829	908.0876	916.6196	946.151	1014.6871	1047.8361	1071.5791	1101.4006	1116.8017	1123.7704	1139.1607	1170.6627	1228.7766	1235.9671	1265.2671	1291.7528	1353.0292	1368.2902	1387.5016	1407.6144	1420.0223	1428.2604	1445.1159	1492.9722	1503.4972	1506.6064	1510.2291	1518.2453	2974.4347	2999.9573	3006.562	3038.5141	3073.1225	3076.6243	3097.3331	3103.3923	3127.6694	3193.6573	3754.4745	3813.2295
CC(CO)C1(CO)CO1	C[C@@H](CO)[C@@]1(CO)CO1	
InChI=1S/C6H12O3/c1-5(2-7)6(3-8)4-9-6/h5,7-8H,2-4H2,1H3	InChI=1S/C6H12O3/c1-5(2-7)6(3-8)4-9-6/h5,7-8H,2-4H2,1H3/t5-,6+/m0/s1
