17
gdb 52153	4.54022	0.81368	0.79304	3.9342	69.96	-0.2513	0.0024	0.2537	1435.786	0.135012	-458.899931	-458.891828	-458.890884	-458.934419	29.232	
O	 0.2636964336	 0.0980821902	-0.5713109551	-0.27018
C	 0.2510394274	 1.2876951291	-0.4804842152	 0.175551
O	 0.9614041693	 1.9568301422	 0.4468423303	-0.173385
C	 0.8963506199	 3.3919299035	 0.45144727	-0.14385
C	 2.26889372	 3.9541968843	 0.1379397683	 0.034226
C	 2.8294471603	 4.1018594349	-1.3073788375	 0.039338
C	 1.8810192659	 5.2936892905	-1.5842691778	-0.232638
C	 2.5140472973	 5.4574044525	-0.1808889918	 0.025588
O	 3.816079474	 5.0672219685	-0.7670053117	-0.302081
H	-0.340324736	 1.9594439714	-1.1347264982	 0.075112
H	 0.1250603961	 3.73002093	-0.2493836072	 0.110669
H	 0.5871969543	 3.6880124675	 1.4592640409	 0.130008
H	 3.0178678404	 3.5534338947	 0.8243154117	 0.106328
H	 3.1987041111	 3.3326436837	-1.9852475482	 0.108331
H	 2.2487731916	 5.9986527667	-2.3297380415	 0.119615
H	 0.8067385801	 5.1183081237	-1.6724036246	 0.095736
H	 2.5022377848	 6.3148971665	 0.4924363476	 0.101632
37.2409	50.2637	137.4125	198.8398	296.1482	359.8235	380.9549	549.6693	619.605	669.2974	727.7331	788.2023	841.9485	879.9623	916.3013	932.6202	1000.4133	1014.7282	1030.7734	1045.157	1074.1791	1099.7432	1107.135	1157.8541	1173.0084	1184.5383	1201.8046	1218.0781	1262.1535	1282.9525	1304.8388	1371.1344	1409.9433	1438.8625	1492.3506	1507.5293	1869.4514	2935.2442	3037.4925	3072.2863	3083.0458	3104.3116	3117.781	3127.1942	3153.4005
O=COCC1C2CC1O2	O=COC[C@H]1[C@H]2C[C@@H]1O2	
InChI=1S/C6H8O3/c7-3-8-2-4-5-1-6(4)9-5/h3-6H,1-2H2	InChI=1S/C6H8O3/c7-3-8-2-4-5-1-6(4)9-5/h3-6H,1-2H2/t4-,5+,6-
