15
gdb 27300	3.22009	1.35088	0.9573	5.0021	72.56	-0.2279	-0.0319	0.196	1163.3375	0.112284	-457.810323	-457.802273	-457.801329	-457.842871	30.147	
C	 0.0696510728	 1.501056863	 0.0313482335	-0.472395
C	-0.0416068711	 0.0111951239	 0.0020172091	 0.3872
C	-1.1741323635	-0.7069606498	-0.1510500104	-0.326547
C	-1.1918585324	-2.1649293257	-0.1681582968	 0.345205
O	-2.1955367297	-2.846177705	-0.3043034424	-0.37064
C	 0.1582459284	-2.7480412084	-0.0002543272	 0.160619
O	 0.2145647973	-4.1003292593	-0.0067038067	-0.4055
C	 1.231506794	-1.9448043084	 0.1460856992	-0.076476
O	 1.1637885162	-0.5853342642	 0.1511423462	-0.222329
H	 0.7275062956	 1.8541590564	-0.7699050655	 0.148189
H	-0.9122926805	 1.959565318	-0.0906697331	 0.144348
H	 0.5018997296	 1.8365101987	 0.9800743057	 0.148188
H	-2.1221076352	-0.1965509271	-0.2678557707	 0.117072
H	 1.1265337216	-4.3911459374	 0.1077564651	 0.299574
H	 2.2508073068	-2.2900934147	 0.273844794	 0.123491
116.2546	127.5307	184.4072	300.4231	312.125	340.8639	380.8773	429.0913	444.1428	514.824	589.5059	594.7565	734.1155	771.0067	775.0593	830.1663	888.8965	921.4972	1029.9697	1065.4386	1143.6078	1178.6787	1228.3275	1251.014	1306.8787	1396.672	1416.9448	1461.3028	1471.4808	1484.3621	1653.6313	1688.2039	1751.3557	3041.5851	3097.4942	3148.6152	3198.2926	3213.0617	3804.4602
CC1=CC(=O)C(O)=CO1	Cc1cc(=O)c(O)co1	
InChI=1S/C6H6O3/c1-4-2-5(7)6(8)3-9-4/h2-3,8H,1H3	InChI=1S/C6H6O3/c1-4-2-5(7)6(8)3-9-4/h2-3,8H,1H3
