14
gdb 125464	5.4798	1.30783	1.06284	3.7221	70.99	-0.2253	-0.0179	0.2074	1057.223	0.104248	-429.060777	-429.053741	-429.052797	-429.092444	26.35	
C	-0.0224385984	 1.4695250426	 0.0342246705	-0.501996
C	-0.0021829283	-0.0195894216	-0.0341933149	 0.335371
N	-0.0513001887	-0.7215082385	-1.1598382388	-0.394716
C	-0.0059719415	-2.0117517357	-0.7125163201	 0.383049
C	 0.0696471399	-2.1092911273	 0.6590759669	 0.36364
N	 0.0718464742	-0.803174989	 1.1045806722	-0.420876
N	 0.1126931821	-3.393457837	 1.0674483679	-0.306103
N	 0.0664310289	-4.1284729837	-0.0217258458	-0.128854
N	-0.0069517512	-3.3043830816	-1.1124102607	-0.336331
H	 0.8852855294	 1.8640547553	 0.5047156778	 0.141494
H	-0.08881445	 1.8645152068	-0.9796306237	 0.164761
H	-0.880508179	 1.8352966498	 0.609402073	 0.141255
H	 0.1171601993	-0.4697872066	 2.0521700327	 0.276574
H	-0.0497347166	-3.7182541636	-2.028482987	 0.282732
77.8551	153.743	290.3259	312.2519	361.4029	449.7126	508.6676	524.5446	575.3391	672.7598	688.5767	785.9371	793.6297	846.2532	971.5139	1000.7099	1017.3207	1032.5734	1059.1015	1204.3983	1221.8367	1256.3059	1364.5957	1400.2912	1408.666	1480.2681	1483.4459	1493.0117	1531.1194	1541.6931	1621.3972	3034.8017	3086.2088	3156.2189	3676.3632	3676.8957
CC1=NC2=C(N1)N=NN2	Cc1nc2c([nH]1)nn[nH]2	
InChI=1S/C4H5N5/c1-2-5-3-4(6-2)8-9-7-3/h1H3,(H2,5,6,7,8,9)	InChI=1S/C4H5N5/c1-2-5-3-4(6-2)8-9-7-3/h1H3,(H2,5,6,7,8,9)
