18
gdb 77235	2.93302	1.07293	0.91816	3.3373	74.	-0.2291	-0.0481	0.1811	1291.009	0.144601	-439.067925	-439.058429	-439.057485	-439.103705	32.862	
C	-0.3166915473	 1.7844013306	-0.3333479734	-0.346234
N	-0.2087074643	 0.3505348474	-0.1375193427	-0.090011
C	-1.2708325193	-0.4423849148	 0.5435779447	-0.055959
C	-0.1648097886	-1.3067932909	 1.1847491752	-0.273368
C	 0.8323687116	-0.1856158557	 0.7574099169	-0.046644
C	 2.079441423	-0.6550781936	 0.0402165972	 0.158087
O	 3.1885390317	-0.6269529798	 0.5057161056	-0.242684
C	-2.0952177295	 0.355783713	 1.5457001326	 0.138968
O	-1.9374586237	 0.3272248057	 2.7397636239	-0.233899
H	 0.5846245802	 2.1399412365	-0.8432059533	 0.135506
H	-1.1724976402	 2.0074537085	-0.9790713747	 0.128656
H	-0.4240704783	 2.3616916295	 0.6008692689	 0.113995
H	-1.9602557259	-0.9258876983	-0.1626255422	 0.090874
H	-0.2577654247	-1.4674717391	 2.256776987	 0.146547
H	-0.0031626817	-2.2525292253	 0.665225691	 0.117633
H	 1.1127646153	 0.4689607445	 1.5942228241	 0.093744
H	 1.8710394709	-1.063220802	-0.9760853805	 0.077855
H	-2.8722732091	 1.0103108838	 1.0895107599	 0.086935
35.0246	66.5493	76.6965	193.446	209.9737	243.1388	262.3287	284.712	362.1835	425.0461	512.1107	599.0124	687.8259	799.7401	832.3328	906.4973	944.5467	993.2601	1017.5304	1051.359	1061.6423	1109.1532	1142.9335	1170.603	1215.3223	1223.8655	1252.3355	1275.8974	1281.7	1322.4649	1354.7125	1405.8434	1419.2692	1452.1631	1471.4456	1489.3592	1510.0996	1823.8198	1834.0153	2869.682	2873.5532	2959.5949	3005.4139	3016.0535	3062.2321	3093.4247	3102.3166	3170.4009
CN1C(CC1C=O)C=O	CN1[C@@H](C[C@H]1C=O)C=O	
InChI=1S/C6H9NO2/c1-7-5(3-8)2-6(7)4-9/h3-6H,2H2,1H3	InChI=1S/C6H9NO2/c1-7-5(3-8)2-6(7)4-9/h3-6H,2H2,1H3/t5-,6-/m0/s1
