19
gdb 94869	2.81647	1.77074	1.39329	1.6462	75.13	-0.2452	0.0582	0.3034	975.4217	0.161023	-422.942965	-422.935696	-422.934751	-422.974611	29.72	
O	 0.290076492	 1.4318423225	-0.1572215528	-0.41577
C	 0.0840295026	 0.0306871166	-0.0715489718	-0.00855
C	 0.5908134845	-0.5880815735	 1.3083911142	-0.11508
O	-0.5282441133	-1.090768681	 2.0748297065	-0.318985
C	-1.6375802869	-0.5333897042	 1.4525079489	 0.422665
C	-3.1094082662	-0.9075749486	 1.1479903495	-0.297134
C	-2.7410116782	 0.3608114838	 0.2692841112	-0.106303
C	-2.0911880639	 0.9632970145	 1.5398729769	-0.294357
C	-1.3925271318	-0.3828345586	-0.0423788013	 0.006747
H	 1.2383509154	 1.5967816182	-0.1422083493	 0.284812
H	 0.600514137	-0.4666493835	-0.9031666883	 0.076264
H	 1.2848684135	-1.4214599863	 1.1606191982	 0.107464
H	 1.100649315	 0.2037636153	 1.8728318646	 0.10106
H	-3.2811971287	-1.843994554	 0.6113653047	 0.096932
H	-3.8489546541	-0.7400013541	 1.9344277942	 0.097192
H	-3.4041145446	 0.8593568446	-0.4340510265	 0.084695
H	-2.7717652774	 1.209614168	 2.3587330503	 0.084246
H	-1.3343162981	 1.7273424441	 1.3835879521	 0.125534
H	-1.5244668767	-1.3083764438	-0.6108051914	 0.068568
74.693	229.0923	272.3828	292.3633	409.6983	417.0632	473.6199	542.9852	590.0062	705.1362	720.5908	777.3981	814.5013	835.8191	884.9229	902.991	949.464	974.1633	976.3251	996.1552	1022.5808	1037.3427	1064.2518	1107.7874	1124.3727	1144.7521	1166.6599	1171.4916	1197.0655	1208.6971	1220.2556	1239.4172	1252.1033	1271.1204	1310.7157	1368.0817	1403.1852	1437.8948	1496.8362	1500.4577	1543.9361	3004.4514	3016.3269	3055.7592	3060.3246	3071.2089	3081.1924	3129.1192	3141.6382	3180.6557	3811.8569
OC1COC23CC(C2)C13	O[C@H]1CO[C@@]23C[C@@H](C2)[C@@H]13	
InChI=1S/C7H10O2/c8-5-3-9-7-1-4(2-7)6(5)7/h4-6,8H,1-3H2	InChI=1S/C7H10O2/c8-5-3-9-7-1-4(2-7)6(5)7/h4-6,8H,1-3H2/t4-,5-,6-,7-/m0/s1
