19
gdb 79236	2.04515	1.77043	1.61383	0.9916	74.74	-0.222	0.0672	0.2892	1004.1735	0.157463	-422.965376	-422.956742	-422.955798	-422.997968	33.556	
C	-0.0716257226	 1.6057748561	-0.1254964055	-0.531943
C	 0.0049421425	 0.1204519338	-0.004107442	 0.243223
C	 0.0867847938	-1.0201674037	-0.9535189216	 0.031237
O	 1.2179716322	-1.6536746241	-0.3484899275	-0.337005
C	 0.8941036086	-0.8862389635	 0.8495299911	 0.348279
C	 2.0458873689	-0.5999352104	 1.7580370399	-0.529713
C	-0.4294477999	-1.5617119376	 1.3369044016	 0.080669
O	-0.9874029861	-0.9363448197	 2.4772449333	-0.437349
C	-1.0511937813	-0.9866138934	 0.0787675692	-0.183889
H	 0.8952412531	 2.038143018	-0.40738816	 0.123516
H	-0.798999176	 1.8915953693	-0.8931937501	 0.124989
H	-0.3889842364	 2.0636668275	 0.8175197105	 0.132549
H	-0.0541749227	-1.0989305005	-2.0238879857	 0.1062
H	 2.7991699243	 0.0192889662	 1.2628830323	 0.133492
H	 1.695033029	-0.0740614932	 2.6514982548	 0.124987
H	 2.5252009627	-1.5362410035	 2.0663451866	 0.130691
H	-0.3886473447	-2.6549216995	 1.4488410691	 0.064381
H	-0.5395963712	-1.2896822527	 3.2525812839	 0.28492
H	-2.0990738843	-0.9425434391	-0.1901038299	 0.090765
136.836	177.4649	198.9482	214.5347	222.7209	292.508	324.2321	378.6978	402.1007	504.1326	582.2381	611.8434	648.5432	769.6699	787.5369	853.3211	868.7359	891.2167	898.2045	974.0341	999.8643	1010.5421	1024.6148	1100.9349	1117.1061	1123.9872	1143.6229	1177.3599	1206.4359	1237.8458	1278.0902	1281.9433	1341.5699	1407.1254	1409.0327	1424.4961	1463.9607	1482.0878	1487.0071	1492.5482	1497.7511	2998.2529	3024.1019	3033.411	3087.6559	3093.88	3102.7609	3115.7679	3195.5687	3205.4153	3815.9512
CC12C3OC1(C)C(O)C23	C[C@@]12[C@H]3O[C@]1(C)[C@@H](O)[C@@H]23	
InChI=1S/C7H10O2/c1-6-3-4(8)7(6,2)9-5(3)6/h3-5,8H,1-2H3	InChI=1S/C7H10O2/c1-6-3-4(8)7(6,2)9-5(3)6/h3-5,8H,1-2H3/t3-,4+,5+,6-,7-/m1/s1
