17
gdb 131786	3.29597	0.99318	0.80885	2.0063	70.54	-0.219	0.0258	0.2447	1373.039	0.137076	-455.161441	-455.152552	-455.151608	-455.195723	32.396	
O	 0.1150950878	 1.4861862349	-0.0452800144	-0.416261
C	 0.0762536724	 0.0694513149	 0.0035935878	-0.055764
C	-1.3550284162	-0.4859618744	-0.0950022115	-0.345213
C	-1.4001609045	-1.98194474	-0.05683793	 0.123775
C	-1.6328594178	-2.8807044743	-1.0803075315	-0.114197
N	-1.5456781356	-4.1242012664	-0.5553129766	-0.199407
N	-1.264331122	-4.1150142669	 0.7725498633	-0.332429
C	-1.1774048042	-2.8264169449	 1.0598455971	 0.355919
O	-0.9049364224	-2.3880808059	 2.3099521674	-0.433429
H	-0.3110047987	 1.8179339399	 0.7514592837	 0.281459
H	 0.6648848378	-0.2774602568	-0.8519917248	 0.109659
H	 0.558102934	-0.3196178895	 0.9125593082	 0.104395
H	-1.9424718094	-0.0769073887	 0.7384492396	 0.101728
H	-1.8123760644	-0.1117222283	-1.0167461751	 0.106858
H	-1.8565657039	-2.7186346579	-2.1236523229	 0.134657
H	-1.6701584097	-5.0057076992	-1.0197857251	 0.274923
H	-0.8071677032	-3.1682884564	 2.870007505	 0.303327
53.6714	95.4343	114.64	247.7562	291.7475	303.7972	347.6809	364.1878	389.2359	440.7343	477.1796	650.4869	687.9233	742.9872	775.057	791.6598	810.5946	940.7691	1013.9601	1038.117	1072.9976	1084.3081	1132.2111	1157.2686	1248.262	1264.199	1282.354	1328.0763	1343.6486	1398.3105	1414.3668	1449.7786	1481.162	1491.7307	1511.431	1561.3922	1638.6396	3001.2335	3013.6359	3068.4431	3087.9454	3253.6539	3695.3213	3796.0448	3815.563
OCCC1=CNN=C1O	OCCc1c[nH]nc1O	
InChI=1S/C5H8N2O2/c8-2-1-4-3-6-7-5(4)9/h3,8H,1-2H2,(H2,6,7,9)	InChI=1S/C5H8N2O2/c8-2-1-4-3-6-7-5(4)9/h3,8H,1-2H2,(H2,6,7,9)
