19
gdb 91791	2.63831	1.6479	1.16132	3.8314	76.89	-0.2297	0.0273	0.257	1100.5202	0.160141	-419.232142	-419.223391	-419.222447	-419.265277	32.577	
C	-0.0649559424	 1.4040182359	-0.1366923132	-0.343002
N	-0.0288644467	-0.031899758	-0.0068218872	-0.08594
C	-1.2343143395	-0.8465195497	-0.0211065022	-0.168139
C	-0.7006900495	-2.2696869804	-0.0091389428	-0.111053
N	 0.1236259964	-2.5598467235	-1.1982074069	-0.362978
C	 0.7763943914	-2.2115103165	 0.0966192172	 0.192887
C	 1.6783961246	-3.1741887592	 0.8120029739	-0.489766
C	 1.1410083005	-0.7382740126	 0.1003976157	 0.421531
O	 2.2576792288	-0.2701583568	 0.1999082946	-0.406202
H	 0.963439466	 1.7656389579	-0.082477398	 0.164884
H	-0.5054628747	 1.7073530098	-1.0949892584	 0.124856
H	-0.6501888197	 1.8610602189	 0.6714098387	 0.119385
H	-1.8576101692	-0.6433575546	 0.8617225646	 0.10476
H	-1.8355578914	-0.6467743033	-0.9177618606	 0.11687
H	-1.2858784549	-3.0590386127	 0.448754935	 0.097988
H	 0.1838613674	-3.5708876232	-1.3150093153	 0.229785
H	 1.2938357981	-4.1971354643	 0.7472893558	 0.109532
H	 2.6804395115	-3.1450220265	 0.3738852141	 0.149972
H	 1.7752089034	-2.9103471513	 1.8697813349	 0.134631
118.5757	146.6117	163.5186	176.2603	231.2867	270.3953	305.858	326.6552	439.4175	494.9694	559.3202	630.1981	727.6499	770.6721	803.7091	863.0202	917.7931	939.6015	981.2255	1041.3569	1063.3245	1081.3061	1090.7535	1126.2849	1154.6681	1161.2693	1228.1761	1272.0192	1307.3007	1330.1049	1361.891	1410.8633	1433.6746	1439.8646	1460.1225	1477.9553	1492.4909	1497.7505	1504.1481	1535.2894	1805.6572	2997.3137	3011.679	3036.4841	3036.6584	3058.5054	3106.2759	3113.2192	3141.5261	3178.278	3470.6656
CN1CC2NC2(C)C1=O	CN1C[C@H]2N[C@@]2(C)C1=O	
InChI=1S/C6H10N2O/c1-6-4(7-6)3-8(2)5(6)9/h4,7H,3H2,1-2H3	InChI=1S/C6H10N2O/c1-6-4(7-6)3-8(2)5(6)9/h4,7H,3H2,1-2H3/t4-,6-/m1/s1
