16
gdb 49134	3.31262	1.14017	0.87062	0.4854	75.74	-0.2279	-0.1023	0.1256	1252.4995	0.12504	-437.916224	-437.908206	-437.907261	-437.949305	29.407	
O	-0.0645441034	-0.0178885085	 0.1898740109	-0.258217
C	-0.0140122306	 1.1869970754	 0.1040771997	 0.110174
C	 1.2527308527	 1.9499043395	 0.0151445576	 0.195014
C	 1.2170006951	 3.2928471668	-0.0593566706	-0.244717
C	 2.4568421762	 4.1069885327	-0.0560387355	 0.372736
O	 2.4294838564	 5.3180162526	-0.1268401107	-0.311711
C	 3.7532877119	 3.3079597942	 0.090024044	-0.285104
N	 3.6982659774	 1.9623098549	-0.4770620066	-0.292872
C	 2.5610030245	 1.1913767898	 0.0154443286	-0.272159
H	-0.9350145331	 1.8096396917	 0.0821806349	 0.086935
H	 0.2770980343	 3.839958971	-0.0850448441	 0.119875
H	 4.5698033026	 3.8779591902	-0.3599572229	 0.13658
H	 3.9734520936	 3.229430007	 1.1654314119	 0.134819
H	 3.6397266434	 2.0298543997	-1.4884187079	 0.227472
H	 2.7712592642	 0.854770048	 1.0420475084	 0.139024
H	 2.4511062047	 0.277139855	-0.5741630873	 0.142151
88.7785	93.5785	190.2395	224.404	265.7372	378.0016	427.6206	442.7673	497.389	531.5097	623.0951	715.7266	771.5532	834.4071	873.0281	894.453	958.5161	977.2779	1035.6094	1083.2232	1148.5774	1162.5951	1194.1843	1249.8536	1310.6958	1323.3938	1345.0292	1386.9304	1418.3273	1450.881	1463.458	1495.8326	1674.6145	1781.9154	1789.6414	2896.0569	3002.8825	3005.5781	3095.1978	3106.811	3161.8247	3515.0417
O=CC1=CC(=O)CNC1	O=CC1=CC(=O)CNC1	
InChI=1S/C6H7NO2/c8-4-5-1-6(9)3-7-2-5/h1,4,7H,2-3H2	InChI=1S/C6H7NO2/c8-4-5-1-6(9)3-7-2-5/h1,4,7H,2-3H2
