18
gdb 37533	3.98363	1.70166	1.45997	1.2274	81.7	-0.2034	0.0085	0.2119	925.7786	0.149454	-364.697429	-364.691189	-364.690244	-364.727579	26.996	
C	-0.1579878716	 1.6110254521	-0.0337890522	-0.277862
C	 1.3619128879	 1.372347249	-0.0240472138	-0.104469
C	 1.2480091324	 0.1628096663	 0.9517836982	-0.015205
C	-0.0504008963	 0.0765773287	 0.0444499904	-0.146004
C	 1.2135275004	 0.0088742586	-0.8705103498	 0.390977
C	 1.85116145	-0.2503218534	-2.1885006364	-0.249278
C	 3.082562813	-0.7011452363	-1.9125363739	-0.062451
C	 3.3251759232	-0.8001844035	-0.4031513397	-0.241738
N	 1.9371017306	-0.8539501202	 0.0898281481	-0.137925
H	-0.5767496457	 2.1092705066	 0.8458187955	 0.094461
H	-0.5903676958	 2.0275874073	-0.9481444578	 0.09618
H	 2.1663745932	 2.1058786584	-0.083811271	 0.074365
H	 1.2849417791	 0.1617580915	 2.0422694121	 0.080673
H	-0.8251716246	-0.685869024	 0.1216495336	 0.083264
H	 1.4408237618	-0.0325847175	-3.1649243672	 0.108764
H	 3.8494021386	-0.9313986054	-2.6430630913	 0.101832
H	 3.8906726516	-1.6908007271	-0.1096907851	 0.107455
H	 3.8999776522	 0.0817117688	-0.0667846597	 0.096962
218.5888	254.8648	297.3816	451.1335	521.2274	559.6357	641.1879	689.6161	710.5755	748.476	814.5567	839.9996	858.4626	883.6153	907.5961	918.7582	937.4911	948.5459	965.5541	1015.0987	1030.8066	1047.2994	1059.4838	1092.0943	1114.3789	1133.3173	1139.5635	1169.2429	1171.88	1196.5965	1224.6312	1240.9195	1253.5064	1302.1809	1324.7461	1376.136	1495.07	1513.5899	1622.1704	2939.0558	3045.4954	3058.5682	3099.1473	3100.2904	3112.2143	3125.7103	3199.2886	3232.7748
C1C2C3C1C21C=CCN31	C1[C@H]2[C@H]3[C@@H]1[C@]12C=CCN31	
InChI=1S/C8H9N/c1-2-8-5-4-6(8)7(5)9(8)3-1/h1-2,5-7H,3-4H2	InChI=1S/C8H9N/c1-2-8-5-4-6(8)7(5)9(8)3-1/h1-2,5-7H,3-4H2/t5-,6+,7-,8+
