20
gdb 52424	6.94048	0.49559	0.48829	4.598	78.57	-0.2434	0.0091	0.2525	2203.7177	0.169403	-440.27058	-440.260705	-440.259761	-440.307751	33.913	
O	 0.4860279364	 0.0183177206	 0.0517922246	-0.273908
C	 0.4956491729	 1.1804931184	 0.3246647622	 0.171366
O	 0.662351045	 2.1460725925	-0.5968598013	-0.173637
C	 0.7038545429	 3.5072653422	-0.1474542281	-0.090141
C	 2.1313294808	 4.0394216153	-0.1756319799	-0.188475
C	 2.2032787177	 5.520163506	 0.2025889135	-0.145102
N	 3.5873456617	 5.9750651278	 0.2211236369	-0.059638
C	 4.1143342123	 6.4965832521	-1.0366620741	-0.220262
C	 3.7983140171	 7.4121895274	 0.0940336904	-0.221007
H	 0.3615420801	 1.5840375065	 1.3486110876	 0.074636
H	 0.0559595254	 4.0705781125	-0.8262212788	 0.125424
H	 0.2753860847	 3.5799205412	 0.8613403486	 0.110967
H	 2.7550764591	 3.4616298037	 0.5151470943	 0.120323
H	 2.5450833845	 3.8904518518	-1.1791497187	 0.121132
H	 1.5799231614	 6.1153759984	-0.492279863	 0.080645
H	 1.7894902722	 5.6712244025	 1.2079751169	 0.105476
H	 5.1424823794	 6.2330860395	-1.2662515804	 0.121865
H	 3.4472658395	 6.5246487437	-1.8974399158	 0.109892
H	 2.9222551577	 8.0500282046	-0.0149795089	 0.109683
H	 4.591215469	 7.8293777633	 0.707922774	 0.120762
27.3884	46.8284	82.6445	120.5746	133.4166	174.2798	294.1132	320.7281	377.6912	400.9692	496.7688	671.4916	764.3716	772.6697	837.0423	879.0142	904.4755	1011.0114	1027.6465	1042.0069	1050.0367	1059.4987	1084.4616	1112.8627	1119.4728	1133.408	1160.031	1178.1966	1215.8287	1269.8756	1288.758	1316.3094	1327.3596	1333.3562	1402.532	1414.0448	1434.2087	1486.5489	1493.2194	1498.9233	1514.091	1524.361	1867.9183	2916.8099	2934.8531	3017.1282	3035.5977	3047.4919	3075.7452	3092.6763	3097.8487	3099.8911	3178.4521	3192.5174
O=COCCCN1CC1	O=COCCCN1CC1	
InChI=1S/C6H11NO2/c8-6-9-5-1-2-7-3-4-7/h6H,1-5H2	InChI=1S/C6H11NO2/c8-6-9-5-1-2-7-3-4-7/h6H,1-5H2
