13
gdb 131580	7.40307	0.65818	0.60674	2.6647	72.49	-0.2597	-0.0447	0.2151	1705.2396	0.088842	-452.69787	-452.689633	-452.688689	-452.732799	27.729	
O	 0.0047127234	 1.4286591427	 0.0093838264	-0.403158
C	-0.0132590576	 0.0110839369	 0.0023153741	-0.230287
C	-1.3922242759	-0.459736305	 0.012651441	 0.335455
C	-2.5195640277	-0.881537421	 0.0209308977	-0.071801
C	-3.841351796	-1.3862977221	 0.0306017016	 0.191756
N	-4.8983944311	-0.6013532965	 0.0409014001	-0.176738
O	-5.9641066899	-1.5011351964	 0.0477076522	-0.142978
C	-5.4281089057	-2.7233133887	 0.0407057855	 0.071852
N	-4.1363126605	-2.7421848761	 0.0301094573	-0.298037
H	 0.9264360653	 1.7062885443	 0.0012834385	 0.295925
H	 0.489054378	-0.3991614537	-0.8893391985	 0.129443
H	 0.5054259966	-0.4081906665	 0.8802939963	 0.129446
H	-6.1101013588	-3.560965598	 0.0444800978	 0.169121
23.6404	74.727	105.7511	205.6051	212.6046	296.6593	418.8844	477.1015	527.1047	621.9236	628.0305	775.1341	900.6892	918.9227	948.0911	984.5723	1020.7309	1031.8249	1081.761	1140.8082	1244.7722	1251.5661	1302.3472	1343.7774	1456.9259	1497.1528	1515.8558	1575.0945	2376.7355	2964.3952	2983.6607	3268.0959	3822.1294
OCC#CC1=NOC=N1	OCC#Cc1nocn1	
InChI=1S/C5H4N2O2/c8-3-1-2-5-6-4-9-7-5/h4,8H,3H2	InChI=1S/C5H4N2O2/c8-3-1-2-5-6-4-9-7-5/h4,8H,3H2
