21
gdb 114222	4.55924	0.9404	0.85948	0.9837	87.24	-0.2267	0.0188	0.2455	1423.8985	0.182389	-387.077471	-387.068566	-387.067621	-387.111746	33.788	
C	-0.2528971061	 1.29166023	 0.0905780873	-0.235388
O	 0.1480647537	-0.0570708253	 0.0842888601	-0.243716
C	 0.7241529509	-0.4848161771	-1.1447679174	 0.094489
C	 1.4014187267	-1.8575762203	-0.9178111162	-0.341886
C	 0.9865884694	-2.7276886383	-2.110543178	 0.343912
C	 1.9944155263	-3.5052906528	-2.9364139629	-0.310054
C	 1.0114228125	-4.2373465815	-2.0620747107	-0.313199
C	-0.1134153836	-1.9782125907	-2.768370684	-0.125303
C	-0.2747816752	-0.7604097968	-2.2517368698	-0.11855
H	 0.5840924193	 1.9671136879	-0.1502055313	 0.100706
H	-1.0693133178	 1.4946359762	-0.6190311154	 0.103407
H	-0.6084881209	 1.5190479911	 1.0989244117	 0.125021
H	 1.451533271	 0.281095406	-1.4670768466	 0.063802
H	 2.4852265626	-1.7750380891	-0.8053841366	 0.09918
H	 0.9977099705	-2.2616433242	 0.0157243727	 0.122071
H	 1.8545009213	-3.5428811763	-4.011825089	 0.110899
H	 3.0328514205	-3.4694792208	-2.6229050889	 0.112812
H	 1.3822845255	-4.7009400591	-1.1534618586	 0.113452
H	 0.2014594431	-4.7801107391	-2.538963996	 0.110627
H	-0.6860676411	-2.3982429519	-3.589605108	 0.094271
H	-0.9974311385	-0.0260259879	-2.5870767921	 0.093446
33.356	100.0814	169.8991	218.1077	240.5624	294.3179	309.1911	399.5605	408.0059	536.7894	587.3737	701.0517	777.5111	783.6343	821.2453	843.7565	883.8026	923.1244	937.948	970.6851	982.8745	995.6743	1033.1487	1058.4428	1068.0944	1081.3251	1119.9778	1150.4618	1182.7129	1191.2003	1195.7431	1231.6011	1271.8397	1286.9672	1316.6073	1327.837	1371.3073	1412.9545	1465.595	1476.9669	1482.3067	1490.6729	1499.193	1510.4284	1676.1615	2937.8268	2969.6324	3015.6327	3056.512	3103.4997	3108.2311	3122.0297	3125.8476	3174.005	3200.8709	3208.6994	3216.5553
COC1CC2(CC2)C=C1	CO[C@H]1CC2(CC2)C=C1	
InChI=1S/C8H12O/c1-9-7-2-3-8(6-7)4-5-8/h2-3,7H,4-6H2,1H3	InChI=1S/C8H12O/c1-9-7-2-3-8(6-7)4-5-8/h2-3,7H,4-6H2,1H3/t7-/m1/s1
