14
gdb 123634	4.18765	1.63151	1.41876	3.762	66.92	-0.2622	-0.0371	0.2251	877.5576	0.104549	-432.763971	-432.758282	-432.757338	-432.793946	23.413	
C	-0.0410229842	 1.5740118186	-0.0728584306	-0.208559
C	 1.5110086219	 1.3550004072	-0.0053022421	-0.141625
N	 1.1684160004	 0.1993389416	 0.9108817382	-0.295881
C	-0.0277782428	 0.0070327813	 0.0028894643	-0.141625
C	 0.6497422602	-0.3066454459	-1.3170801811	 0.373856
N	 0.6965792313	-1.0447810598	-2.371404113	-0.246139
O	 1.8189202302	-0.5674174526	-3.0663744151	-0.178439
N	 2.4439681713	 0.4860251635	-2.3807484286	-0.246138
C	 1.7248174677	 0.6351442347	-1.3228152099	 0.373857
H	-0.4210761627	 2.0134737925	 0.8494503722	 0.134748
H	-0.4600269035	 2.0469333996	-0.9609786736	 0.128085
H	 2.2108548144	 2.1066332266	 0.3486979891	 0.108629
H	 1.8403021706	-0.5679672373	 0.8603334311	 0.230603
H	-0.8628317448	-0.58589952	 0.3650628491	 0.108628
180.8651	308.2523	437.3533	482.2005	562.9348	595.5751	689.4001	698.2005	737.1023	790.302	804.3895	845.7403	859.5423	906.4088	908.764	1010.7637	1024.3226	1044.4477	1059.2019	1115.7432	1130.2999	1171.3202	1219.9095	1259.2328	1259.2349	1265.4329	1341.8259	1356.9544	1481.9331	1606.8248	1690.6504	3093.4626	3167.6564	3168.5039	3169.9754	3447.1191
C1C2NC1C1=NON=C21	C1[C@H]2N[C@@H]1c1nonc21	
InChI=1S/C5H5N3O/c1-2-4-5(3(1)6-2)8-9-7-4/h2-3,6H,1H2	InChI=1S/C5H5N3O/c1-2-4-5(3(1)6-2)8-9-7-4/h2-3,6H,1H2/t2-,3+
