19
gdb 15380	3.62393	1.0804	0.90247	4.2349	76.68	-0.2843	0.0321	0.3164	1313.4917	0.165255	-327.940972	-327.93213	-327.931185	-327.975011	31.781	
C	 0.0074988675	 1.5370039411	-0.0776700895	-0.382523
C	 0.189190809	 0.0172074894	-0.0584242732	-0.163076
C	 0.4815686535	-0.5279544326	 1.3462680815	-0.199296
C	 0.6497464554	-2.0318597552	 1.3646466904	 0.001147
C	 1.9744698261	-2.666826688	 1.0663938401	-0.281742
C	 1.416196437	-2.7335398556	 2.4823108479	-0.188259
C	 2.0367795846	-1.9679938812	 3.5262659053	 0.287285
N	 2.533004559	-1.3507761042	 4.3703489405	-0.344893
H	 0.9079268184	 2.0473423545	 0.2811489732	 0.119871
H	-0.201394785	 1.8998843743	-1.0885928589	 0.114059
H	-0.8240903395	 1.8446566081	 0.5657934266	 0.117581
H	-0.7135151939	-0.4665940221	-0.4542815171	 0.095765
H	 1.0066648206	-0.2677216927	-0.732801747	 0.100238
H	 1.3859580834	-0.0534294972	 1.7459753657	 0.116954
H	-0.3333197262	-0.2458690946	 2.0258156715	 0.107756
H	-0.2235809552	-2.5874443403	 1.0318458078	 0.10023
H	 2.0116564468	-3.5971076564	 0.5116024495	 0.128372
H	 2.8239221217	-2.0109280066	 0.9105148378	 0.138505
H	 1.0315890467	-3.6917772804	 2.814580738	 0.132025
74.3044	85.3879	100.6525	189.6054	221.2173	249.1269	322.4293	376.4813	423.8399	555.4957	623.3396	744.7763	773.6565	814.4564	862.3102	872.8953	900.4631	955.5341	981.1645	1041.7543	1067.861	1077.3701	1115.159	1130.336	1147.7819	1198.5377	1227.6246	1271.6292	1306.8248	1329.026	1370.6593	1388.6655	1414.5182	1423.6969	1479.9757	1489.5323	1494.3827	1500.919	1510.4161	2350.1234	3015.9143	3024.4263	3032.5112	3044.4384	3068.8271	3099.7411	3105.5066	3140.0057	3141.8779	3170.0986	3231.2767
CCCC1CC1C#N	CCC[C@H]1C[C@H]1C#N	
InChI=1S/C7H11N/c1-2-3-6-4-7(6)5-8/h6-7H,2-4H2,1H3	InChI=1S/C7H11N/c1-2-3-6-4-7(6)5-8/h6-7H,2-4H2,1H3/t6-,7-/m0/s1
