21
gdb 119431	2.84609	1.06097	0.95173	1.5093	80.27	-0.2415	0.0782	0.3197	1373.9529	0.180006	-424.187736	-424.177962	-424.177018	-424.22279	35.597	
C	-0.1390666171	 1.3635387673	-0.4760170817	-0.219965
O	-0.2389769575	 0.0074174714	-0.8399406922	-0.237046
C	 0.9340616427	-0.7237760752	-0.550474142	-0.190205
C	 0.6913506882	-2.1586171519	-0.8916626985	 0.354981
C	-0.4907074192	-3.0504568548	-0.4884602054	-0.287613
C	-0.2171957166	-3.9043433138	-1.7756099365	-0.280219
C	 0.9458989131	-2.9529077903	-2.1127288781	 0.347982
C	 1.5197299105	-2.6193536589	-3.4503411525	-0.498228
O	 1.8434681485	-3.0094171548	-0.9847885891	-0.336746
H	 0.0466884333	 1.4841544968	 0.6031004251	 0.106002
H	 0.6701727277	 1.8748702833	-1.0211238881	 0.105077
H	-1.0896273154	 1.8402618341	-0.7268712767	 0.128002
H	 1.7964823946	-0.3480881851	-1.1248620958	 0.097383
H	 1.1928822291	-0.6307416833	 0.5195339319	 0.094418
H	-0.381078921	-3.557488819	 0.4734373341	 0.101563
H	-1.4460261063	-2.5242306026	-0.5251301837	 0.118811
H	 0.0724845351	-4.9468571189	-1.6232793643	 0.10518
H	-1.037801819	-3.853782964	-2.4955962139	 0.10408
H	 0.7266572224	-2.3495805453	-4.1549771666	 0.126279
H	 2.2208514534	-1.7839431858	-3.3739328316	 0.130398
H	 2.0612997136	-3.4777061791	-3.8646171044	 0.129865
59.0328	84.056	124.1269	188.2134	195.4421	226.8257	242.3867	330.4042	340.2443	401.2086	473.0588	500.0826	632.1299	719.9221	743.3083	777.1764	870.8612	891.3926	935.3869	975.62	990.6638	1027.1075	1080.2679	1120.5243	1153.6709	1166.432	1186.3141	1201.8628	1212.7596	1217.0246	1223.3615	1233.386	1270.3947	1313.27	1402.4908	1413.1651	1464.0355	1468.4084	1479.9023	1481.0848	1486.1316	1490.3488	1501.8014	1521.6254	1530.3004	2945.6301	2970.9933	2988.2725	3014.421	3032.7885	3061.9422	3070.8849	3094.7385	3115.4887	3115.5872	3119.2581	3136.1104
COCC12CCC1(C)O2	COC[C@@]12CC[C@]1(C)O2	
InChI=1S/C7H12O2/c1-6-3-4-7(6,9-6)5-8-2/h3-5H2,1-2H3	InChI=1S/C7H12O2/c1-6-3-4-7(6,9-6)5-8-2/h3-5H2,1-2H3/t6-,7-/m0/s1
