20
gdb 89798	3.17132	1.35474	1.12636	2.9261	78.51	-0.2415	0.0785	0.32	1147.9947	0.172157	-403.118346	-403.110344	-403.1094	-403.150659	31.767	
C	 0.0738752506	 1.5820902256	 0.0395500744	-0.405343
C	 0.0284698096	 0.0536998994	 0.0241613177	 0.00154
C	 0.725084928	-0.5888867313	-1.2068679975	-0.335633
C	 1.2292031513	-1.9484766516	-0.721845526	 0.357302
C	 0.7302397543	-3.2299302901	-1.2856199314	-0.299174
N	 2.1238460552	-2.7985827573	-1.5115540232	-0.366377
C	 1.4702634361	-1.7880162942	 0.750068278	-0.019238
O	 2.1708940514	-0.5761314443	 1.0821271176	-0.268282
C	 0.7417906593	-0.5982129802	 1.2026130372	 0.037288
H	 1.1110368349	 1.9309944331	 0.0706458603	 0.132965
H	-0.4003674682	 2.0019467776	-0.8534828209	 0.113781
H	-0.4457216279	 1.9869728167	 0.9144670836	 0.112971
H	-1.018295463	-0.2790630075	 0.0584494205	 0.076637
H	 0.0598191821	-0.6682114848	-2.0709244521	 0.097435
H	 1.5817667616	 0.0284273301	-1.4979091106	 0.118957
H	 0.6235201264	-4.1092655554	-0.6549573951	 0.116928
H	 0.0203892727	-3.1761296731	-2.1074619047	 0.110291
H	 2.2239793903	-2.4169115761	-2.4495972479	 0.231076
H	 1.6885720781	-2.6475738171	 1.3773424042	 0.096797
H	 0.3564243472	-0.4870835294	 2.2138654961	 0.090079
99.6944	166.3036	233.2835	241.2141	287.7045	346.5342	382.89	438.6715	524.6182	569.8528	632.0079	794.2493	820.2635	850.8172	857.3228	890.7185	910.4387	938.1315	944.728	964.4886	982.466	1023.5556	1029.859	1070.6921	1103.5806	1125.8792	1141.0063	1151.3224	1197.4603	1252.204	1262.174	1293.5852	1298.2642	1318.2246	1340.8395	1359.2547	1399.9813	1412.5058	1445.895	1484.3687	1497.3821	1502.0826	1514.5931	3011.3568	3032.0933	3047.0963	3095.667	3098.9652	3100.0995	3108.5796	3136.4341	3161.4456	3183.9245	3491.2568
CC1CC2(CN2)C2OC12	C[C@H]1C[C@]2(CN2)[C@H]2O[C@@H]12	
InChI=1S/C7H11NO/c1-4-2-7(3-8-7)6-5(4)9-6/h4-6,8H,2-3H2,1H3	InChI=1S/C7H11NO/c1-4-2-7(3-8-7)6-5(4)9-6/h4-6,8H,2-3H2,1H3/t4-,5-,6-,7-/m0/s1
