20
gdb 59028	3.10395	1.19805	1.05546	1.8982	81.03	-0.2319	0.0107	0.2426	1226.902	0.17158	-403.131587	-403.122907	-403.121963	-403.165046	33.425	
C	 0.0288781092	 1.6179304194	-0.011876911	-0.38534
C	-0.0465174687	 0.0964879917	 0.1131426015	 0.024801
O	 0.5373125734	-0.233924895	 1.3758164454	-0.436923
C	-1.4464547363	-0.4388369778	 0.0347317596	 0.357082
C	-1.9644068304	-1.2374515429	-0.9051582208	-0.215164
C	-3.4019614398	-1.6249830403	-0.6234245521	-0.255171
C	-3.6598354413	-0.9958998569	 0.7419566503	-0.040188
N	-2.7817427276	-1.5168201467	 1.814681409	-0.343695
C	-2.4459107614	-0.2317340671	 1.132686221	-0.144063
H	 1.0644387256	 1.9460395996	 0.1149430294	 0.124464
H	-0.3273046184	 1.9410493714	-0.9937988668	 0.116086
H	-0.5766821819	 2.1026551976	 0.7596604148	 0.119505
H	 0.5422684259	-0.3478774768	-0.7058266172	 0.064283
H	 0.3075481507	-1.1495325585	 1.5686430221	 0.291303
H	-1.4189031781	-1.6127072759	-1.7649024911	 0.091525
H	-4.0891708582	-1.2289122669	-1.3830101789	 0.106298
H	-3.5382721703	-2.7130016054	-0.6048319632	 0.118896
H	-4.6577832107	-0.6647402391	 1.0074316796	 0.087243
H	-3.2188825974	-1.3002052461	 2.7095295846	 0.227114
H	-2.4752637141	 0.6848325556	 1.7107987836	 0.091942
65.1506	102.4116	185.2598	233.6555	305.8243	306.7225	340.326	368.0616	412.8633	501.3538	612.7367	699.1498	735.2093	815.6662	826.9274	840.1287	858.7855	908.9832	919.0718	936.5991	976.2375	994.9314	1007.8341	1071.7979	1079.2109	1121.3703	1131.7754	1166.0933	1187.142	1205.1946	1251.1386	1266.6117	1296.1652	1332.3435	1349.8624	1390.4841	1398.1761	1412.4542	1418.746	1466.2206	1484.4467	1497.3171	1699.3476	2964.3994	3018.4054	3043.1317	3056.7399	3117.0881	3124.1132	3166.726	3179.3572	3184.8595	3472.7956	3807.3241
CC(O)C1=CCC2NC12	C[C@@H](O)C1=CC[C@H]2N[C@@H]12	
InChI=1S/C7H11NO/c1-4(9)5-2-3-6-7(5)8-6/h2,4,6-9H,3H2,1H3	InChI=1S/C7H11NO/c1-4(9)5-2-3-6-7(5)8-6/h2,4,6-9H,3H2,1H3/t4-,6-,7+/m1/s1
