21
gdb 118801	2.01868	1.26219	0.90248	1.8192	86.59	-0.2363	0.0532	0.2895	1394.885	0.178661	-387.041688	-387.031226	-387.030282	-387.077339	38.5	
C	 0.0763199563	 1.5197852334	-0.1976862687	-0.383582
C	-0.1409192055	 0.0160876666	-0.202983576	-0.049759
O	 0.9213226882	-0.5741128443	-0.9404239693	-0.282852
C	 0.8101167671	-1.9459458627	-1.1595656212	 0.440809
C	 1.0932439951	-2.8172387806	 0.0458266664	-0.456769
C	-0.1707073648	-2.4003618418	-2.2063343695	-0.349564
C	 1.3288206416	-2.4018520658	-2.5144317462	-0.287193
C	 1.8726216315	-1.4686125849	-3.4546960363	 0.355044
C	 2.3457266602	-0.712469017	-4.2613851441	-0.45609
H	 1.0359786794	 1.766376277	 0.265197732	 0.128213
H	 0.0804258883	 1.9091942963	-1.2194219365	 0.130301
H	-0.7194408308	 2.0172796395	 0.3648556701	 0.112715
H	-0.1600185293	-0.3704359309	 0.8272421456	 0.090534
H	-1.1069072154	-0.2377332637	-0.6651969364	 0.089759
H	 0.3395755836	-2.6742148158	 0.827473539	 0.121758
H	 1.0869544214	-3.876214992	-0.2268534253	 0.119088
H	 2.073555662	-2.572948428	 0.4668182114	 0.131135
H	-0.6648959441	-3.3593006038	-2.0942453746	 0.115109
H	-0.7531519529	-1.6343169113	-2.7041123844	 0.129641
H	 1.8088183535	-3.3768080254	-2.5152003079	 0.111547
H	 2.7639442747	-0.0336308946	-4.9619228681	 0.190155
55.5991	80.8579	121.5171	140.2995	211.9392	220.0573	248.2214	301.7596	320.5416	373.4839	419.8143	449.9119	532.3925	581.84	628.4356	644.4388	715.6043	791.5398	819.6094	854.2104	899.8182	927.3473	992.3838	1004.1588	1057.4253	1089.1785	1094.4598	1113.9649	1131.385	1155.6024	1187.6268	1252.9117	1294.5233	1305.7001	1393.3023	1400.5974	1415.9492	1427.8189	1473.3005	1482.7663	1484.9257	1500.1311	1502.4085	1529.0309	2239.6975	2980.9289	3011.0073	3036.9064	3045.6874	3101.3693	3115.8989	3119.8951	3124.3705	3136.9678	3140.8921	3233.5217	3507.2375
CCOC1(C)CC1C#C	CCO[C@@]1(C)C[C@H]1C#C	
InChI=1S/C8H12O/c1-4-7-6-8(7,3)9-5-2/h1,7H,5-6H2,2-3H3	InChI=1S/C8H12O/c1-4-7-6-8(7,3)9-5-2/h1,7H,5-6H2,2-3H3/t7-,8+/m1/s1
