22
gdb 88965	3.43831	0.90256	0.88584	2.7668	83.52	-0.2305	0.0816	0.3121	1460.9319	0.192831	-404.302583	-404.292988	-404.292044	-404.337273	36.678	
C	-0.0599716515	 1.4350384723	-0.3193963739	-0.412258
C	 0.0925117083	-0.0346808168	 0.0054626357	 0.028032
C	 1.4346495044	-0.6820502035	 0.0703857836	-0.2506
N	 0.6332421568	-0.5117190612	 1.2789288699	-0.099814
C	 1.0886124378	 0.4318404427	 2.30063201	-0.217995
C	 1.7184514335	-0.3679958501	 3.4222840699	 0.457173
O	 0.8703357275	-1.3687783084	 3.9065690259	-0.475101
C	 3.2060705544	-0.6419104096	 3.4182792748	-0.317813
C	 2.5839703279	 0.2929826328	 4.442861029	-0.32209
H	 0.8159530605	 2.0196627462	-0.0274792669	 0.121777
H	-0.2007408076	 1.5636882992	-1.3976898829	 0.124713
H	-0.9363382618	 1.8622480714	 0.1803923999	 0.126562
H	-0.7383059613	-0.6462956817	-0.3451898533	 0.092194
H	 1.5853348065	-1.7032524779	-0.2694200554	 0.115735
H	 2.3005549098	-0.0323399603	-0.0530130328	 0.107998
H	 1.7998547527	 1.1830833822	 1.9254783738	 0.084025
H	 0.2080845141	 0.9595739631	 2.687025578	 0.109094
H	 0.4833402517	-1.7639950523	 3.1113739498	 0.281159
H	 3.5175822326	-1.6196915541	 3.7666704807	 0.11615
H	 3.8262459346	-0.2122721499	 2.638198709	 0.101065
H	 2.7745691001	 1.3579840117	 4.3581365791	 0.106321
H	 2.4910702288	-0.0719757458	 5.459329416	 0.123675
54.6582	86.5745	130.111	188.8361	222.9406	284.1892	326.4591	360.8031	414.0249	442.7556	487.7247	499.7147	528.0898	747.1349	755.0846	775.5109	819.3358	891.0506	908.8268	926.7389	935.424	950.1524	988.1203	1024.753	1042.7346	1046.605	1072.1394	1085.5679	1114.6391	1149.9335	1162.3353	1186.702	1190.7121	1233.7901	1281.2605	1325.9543	1337.8496	1363.0075	1404.7717	1422.7403	1432.351	1451.9326	1481.4798	1492.0539	1499.3329	1512.3316	1515.1428	2983.5614	3036.8257	3053.316	3087.9365	3095.41	3101.1205	3125.7803	3128.8282	3132.9933	3176.0269	3215.4804	3229.5034	3721.6445
CC1CN1CC1(O)CC1	C[C@H]1CN1CC1(O)CC1	
InChI=1S/C7H13NO/c1-6-4-8(6)5-7(9)2-3-7/h6,9H,2-5H2,1H3	InChI=1S/C7H13NO/c1-6-4-8(6)5-7(9)2-3-7/h6,9H,2-5H2,1H3/t6-,8?/m0/s1
