16
gdb 44858	3.37443	1.6672	1.48731	3.0072	66.93	-0.2356	-0.0213	0.2143	899.7188	0.126838	-437.871692	-437.865385	-437.864441	-437.902304	26.055	
O	 0.0134542046	 0.0278908176	 0.0809898513	-0.314158
C	-0.0124084629	 1.2257853552	 0.0309702953	 0.427978
C	-1.2512654312	 2.1548204492	 0.0045949783	-0.343179
C	-0.553025644	 3.5293169415	 0.0534252414	 0.05535
O	 0.6113366723	 3.2873160856	-0.7567993208	-0.245263
C	 1.1763569054	 2.2156204117	-0.0027418201	-0.054098
C	 1.2207846993	 2.7793403981	 1.4262645787	-0.063817
N	 1.3988503146	 4.2461346779	 1.4568710419	-0.329555
C	 0.0394130446	 3.6796355662	 1.4614103762	-0.056016
H	-1.7978093794	 2.0179411012	-0.9329049053	 0.140031
H	-1.923966452	 1.9306256427	 0.8365960628	 0.126571
H	-1.1025227521	 4.3765666333	-0.3543748508	 0.096468
H	 2.0968663321	 1.853946112	-0.4554342795	 0.106557
H	 1.5220530236	 2.1560255653	 2.2594215526	 0.113209
H	 1.6410670382	 4.5127496136	 2.4091961537	 0.237485
H	-0.6071489931	 3.7728366589	 2.3264716744	 0.102437
120.0987	283.7631	327.4547	445.6188	457.6771	554.3225	600.6864	612.0656	728.3205	778.086	795.921	846.6453	866.4272	874.4826	921.2364	937.656	955.2434	964.4088	991.6525	1027.9602	1074.7882	1120.4554	1128.0113	1134.8453	1155.6439	1198.1396	1231.9849	1239.4493	1260.555	1298.1371	1334.1897	1348.1119	1402.716	1450.6566	1869.402	3066.6668	3116.5021	3131.1621	3154.6351	3179.8865	3194.1314	3495.7397
O=C1CC2OC1C1NC21	O=C1C[C@@H]2O[C@H]1[C@H]1N[C@@H]21	
InChI=1S/C6H7NO2/c8-2-1-3-4-5(7-4)6(2)9-3/h3-7H,1H2	InChI=1S/C6H7NO2/c8-2-1-3-4-5(7-4)6(2)9-3/h3-7H,1H2/t3-,4-,5-,6+/m0/s1
