17
gdb 44746	2.59587	1.78984	1.27762	4.9368	72.15	-0.2346	-0.0793	0.1554	992.6281	0.137281	-421.852645	-421.845379	-421.844435	-421.884677	28.438	
O	-0.0001905669	 0.1295890869	 0.6443655768	-0.275786
C	-0.0398320784	 1.2308637039	 0.1633678926	 0.302757
C	-1.3395850085	 1.9492893958	-0.2040181163	-0.325202
C	-1.0843766915	 3.3379076327	-0.7985370497	-0.0242
C	 0.0194177517	 3.256606603	-1.8881351259	-0.243203
C	 1.0616553126	 3.3859137219	-0.7294037759	-0.122272
C	-0.063090317	 4.1133957586	 0.077688897	-0.243184
C	 1.2864751092	 2.020888035	-0.1249297103	 0.326477
O	 2.357303993	 1.5374715336	 0.130936895	-0.292474
H	-1.8864320697	 1.3073798755	-0.9056399465	 0.13655
H	-1.9535380951	 2.0085854151	 0.7031350584	 0.136551
H	-2.0209146436	 3.8371379776	-1.0554275046	 0.077607
H	 0.0581132743	 2.3658989506	-2.5228177281	 0.110114
H	 0.0409814492	 4.1465569118	-2.5213439284	 0.117176
H	 2.0101385051	 3.8919342107	-0.9101294573	 0.091807
H	-0.0588550359	 5.1834558482	-0.142276728	 0.117175
H	-0.0965474385	 3.9720680092	 1.1623941214	 0.110107
56.7931	162.4689	335.8392	341.7833	348.517	426.1465	432.2631	510.5628	573.7921	637.4223	700.2046	823.5836	853.1994	873.2874	877.8036	908.5218	943.8869	991.9691	1030.7875	1047.1969	1063.0262	1072.8324	1124.8781	1144.0547	1200.1739	1229.9139	1250.8687	1271.7534	1289.7497	1306.4901	1328.3601	1364.2493	1442.8851	1483.1349	1511.4439	1820.7484	1842.3548	3032.8191	3052.2104	3054.0659	3071.7853	3084.9387	3110.1306	3112.1533	3118.4045
O=C1CC2CC(C2)C1=O	O=C1C[C@@H]2C[C@@H](C2)C1=O	
InChI=1S/C7H8O2/c8-6-3-4-1-5(2-4)7(6)9/h4-5H,1-3H2	InChI=1S/C7H8O2/c8-6-3-4-1-5(2-4)7(6)9/h4-5H,1-3H2/t4-,5+
