17
gdb 11920	3.12222	1.85469	1.49069	4.3886	74.22	-0.2616	0.0195	0.2811	907.5452	0.142669	-326.727051	-326.719423	-326.718478	-326.758713	28.921	
C	 0.0035287618	 1.5442062321	 0.0576574957	-0.489299
C	 0.0415941599	 0.0457477731	 0.0017786992	 0.298025
C	-0.8420573932	-0.8287551208	 0.8344190449	-0.358956
C	 0.6578465279	-0.9587174071	 1.017967728	 0.180641
C	 1.2485121749	-1.7865363582	-0.135004308	-0.286309
C	 0.6297708262	-0.7787256642	-1.1550827896	-0.275524
C	 1.2958587775	-0.694362255	 2.2633993066	 0.185924
N	 1.8294233874	-0.4702034632	 3.2670776279	-0.356601
H	 0.9635549198	 1.9775842805	-0.2415218574	 0.128316
H	-0.7661393951	 1.9371190565	-0.617371701	 0.128854
H	-0.2260662045	 1.897507374	 1.0675478106	 0.135517
H	-1.3611337572	-0.3315629941	 1.6471059038	 0.134784
H	-1.3848462011	-1.6632898175	 0.3956196788	 0.117446
H	 2.3390684754	-1.7767698205	-0.1457937719	 0.127101
H	 0.9023173923	-2.8228474167	-0.1856660455	 0.110579
H	-0.0986585401	-1.1794313828	-1.866590321	 0.105679
H	 1.3969809182	-0.2342775162	-1.7098213411	 0.113823
117.8983	155.6681	197.5618	226.857	317.758	367.8599	413.6195	528.892	562.2933	577.1973	681.745	734.2824	787.2692	825.7895	929.1452	943.576	973.3408	986.4415	1019.9195	1073.3239	1098.4875	1133.6419	1155.4019	1215.7887	1245.9067	1248.3056	1267.1394	1329.1423	1389.8422	1425.649	1480.8773	1483.6908	1485.926	1496.5199	1513.659	2337.754	3027.6807	3053.8242	3063.2853	3089.4213	3106.9149	3107.2466	3108.8193	3131.2978	3207.5995
CC12CC1(CC2)C#N	C[C@]12C[C@]1(CC2)C#N	
InChI=1S/C7H9N/c1-6-2-3-7(6,4-6)5-8/h2-4H2,1H3	InChI=1S/C7H9N/c1-6-2-3-7(6,4-6)5-8/h2-4H2,1H3/t6-,7+/m0/s1
