16
gdb 124730	4.16694	0.99734	0.94837	3.5992	66.6	-0.256	-0.0163	0.2397	1269.1751	0.1247	-471.205099	-471.196469	-471.195525	-471.238998	31.379	
C	-0.160175995	 1.4471536107	 0.0541291595	-0.402191
C	-0.0306310956	-0.0902989907	 0.0232469023	-0.082084
N	 0.6444866017	-0.6378096938	-1.1587078348	-0.517279
C	 0.6850545643	-0.5730214162	 1.2493954932	 0.489664
N	 0.1917210879	-1.1491654496	 2.3050723214	-0.40564
C	 1.3140574102	-1.3124439729	 3.0809712963	 0.432726
O	 1.2693014632	-1.8817509886	 4.2839677321	-0.399501
N	 2.4357483713	-0.87685993	 2.5674454033	-0.200662
O	 2.0019585074	-0.3696753102	 1.3221232472	-0.216763
H	 0.8280714754	 1.9172913784	 0.0441385155	 0.133648
H	-0.7146249218	 1.7866666499	-0.8262470786	 0.118563
H	-0.6950576638	 1.786879225	 0.9468821737	 0.132524
H	-1.0305326847	-0.532119712	 0.07195175	 0.121494
H	 0.1620620971	-0.3206841912	-1.99451872	 0.233442
H	 1.5907221914	-0.2700712973	-1.2133303419	 0.24196
H	 0.3507431809	-2.1304894518	 4.4447421808	 0.320099
37.6903	127.7793	177.2692	246.2387	264.3341	290.2286	317.8126	400.5219	425.1454	437.0673	536.4241	653.8818	730.8959	761.9678	796.7255	859.1382	918.0326	935.0743	1017.9134	1035.4428	1053.1773	1082.1296	1122.1995	1218.4513	1224.9439	1332.7822	1346.9568	1400.1184	1401.7564	1447.7893	1488.8565	1498.3858	1609.9177	1658.1201	1678.6923	3033.9737	3071.9741	3109.4207	3117.5572	3488.5325	3569.6834	3811.8385
CC(N)C1=NC(O)=NO1	C[C@@H](N)c1nc(O)no1	
InChI=1S/C4H7N3O2/c1-2(5)3-6-4(8)7-9-3/h2H,5H2,1H3,(H,7,8)	InChI=1S/C4H7N3O2/c1-2(5)3-6-4(8)7-9-3/h2H,5H2,1H3,(H,7,8)/t2-/m1/s1
