23
gdb 118588	2.89494	0.75545	0.62488	3.8907	80.57	-0.245	0.0755	0.3205	1843.424	0.203263	-462.533915	-462.52257	-462.521625	-462.571247	39.224	
C	-0.0142103875	 1.3717773847	 0.0192080553	-0.22866
O	-0.0221074098	-0.0351523295	 0.012713891	-0.230994
C	 0.6790566902	-0.5956112143	 1.099980047	-0.067561
C	 0.6580885795	-2.1189005585	 0.9656416823	-0.061679
C	 1.4246930584	-2.572556544	-0.2896227981	-0.047888
O	 1.1861135478	-3.9193909456	-0.6387285822	-0.433621
C	 1.2184828262	-2.7478296085	 2.2416592422	-0.069096
O	 1.1639193254	-4.1621443523	 2.1378200157	-0.242542
C	 1.7041563129	-4.8217759826	 3.2613942062	-0.235401
H	 1.009020159	 1.7757613183	-0.0405259732	 0.104249
H	-0.5774181899	 1.7056926814	-0.8554067351	 0.130287
H	-0.4901156479	 1.7794417359	 0.9254564383	 0.103186
H	 1.7203580058	-0.2250671446	 1.1152760688	 0.084567
H	 0.2157993175	-0.2862440285	 2.0533810933	 0.083828
H	-0.3861053493	-2.4341880712	 0.8515653924	 0.101389
H	 1.1034938292	-1.9621910804	-1.1377396582	 0.119108
H	 2.5026072249	-2.3762413656	-0.1341598602	 0.065994
H	 1.2859472381	-4.4304333434	 0.1746938687	 0.286135
H	 2.2641486803	-2.4274678704	 2.3959790127	 0.089068
H	 0.643568029	-2.4197665901	 3.123663865	 0.091537
H	 1.601964517	-5.8957989178	 3.0915682868	 0.134691
H	 2.7686093049	-4.5796432105	 3.401913319	 0.111322
H	 1.1635045685	-4.5521437126	 4.1810734525	 0.11208
67.3637	88.6273	92.6011	107.8559	114.0432	166.9234	224.4519	235.8602	241.0883	299.7469	328.3979	368.2266	381.2484	480.5193	532.0497	608.0365	855.1126	918.8492	957.1434	960.4642	1006.0132	1084.3384	1108.8663	1120.9705	1149.9017	1151.7151	1172.0595	1184.3603	1189.6433	1217.7802	1235.7086	1238.8614	1256.43	1288.5368	1311.5759	1355.5067	1395.4445	1424.9103	1431.4001	1466.1374	1481.9193	1482.6447	1485.7669	1486.4488	1500.5575	1503.8708	1516.0793	1526.7698	1530.7284	2921.6128	2934.3372	2948.4754	2960.9238	2969.8784	2980.2888	2982.7633	3012.4065	3029.7617	3052.7028	3094.7337	3116.3496	3122.6395	3761.6203
COCC(CO)COC	COCC(CO)COC	
InChI=1S/C6H14O3/c1-8-4-6(3-7)5-9-2/h6-7H,3-5H2,1-2H3	InChI=1S/C6H14O3/c1-8-4-6(3-7)5-9-2/h6-7H,3-5H2,1-2H3
