16
gdb 27176	3.02805	1.33267	0.98432	1.5416	73.58	-0.1872	0.032	0.2193	1162.2093	0.124877	-437.889887	-437.881743	-437.880799	-437.922926	30.411	
O	-0.2093438362	 1.4517705923	 0.163037604	-0.451623
C	-0.0404611212	 0.0965906018	 0.1005776869	 0.231398
C	 0.1696846101	-0.5863714402	-1.0795335106	 0.240335
N	 0.3357684753	-1.9157157198	-0.745357372	-0.305644
C	 0.2047707261	-2.0815563429	 0.6021756621	-0.072135
C	-0.0139049087	-0.8423756514	 1.1678931703	-0.280437
C	 0.2479105847	-0.1270660673	-2.4713467196	-0.041552
C	 1.3405194646	-0.5080623419	-3.3877481903	-0.180998
O	 0.0639715255	-1.1490446085	-3.4712267738	-0.254607
H	-0.4546872874	 1.6873614808	 1.0620313151	 0.296787
H	 0.3569363598	-2.6424733334	-1.4406354657	 0.268423
H	 0.2710119101	-3.0572398982	 1.0553726073	 0.120099
H	-0.1326221572	-0.6313288723	 2.2202642892	 0.090502
H	-0.2703487021	 0.8093205873	-2.672182541	 0.110634
H	 1.5934265619	 0.136225326	-4.2291144496	 0.11779
H	 2.1528887546	-1.1291050926	-3.0132493524	 0.111029
73.3572	143.6194	153.2014	200.5336	294.1601	306.3819	428.8633	508.7414	524.9817	614.6904	646.592	684.5288	715.559	733.7775	784.7442	823.9046	893.2787	923.8893	1001.235	1065.1294	1090.3614	1096.7778	1145.5069	1152.4862	1171.8007	1253.9987	1260.4303	1292.6407	1339.2769	1411.2353	1454.8434	1503.6729	1520.8358	1523.8608	1669.3449	3079.8175	3126.5892	3171.206	3237.8155	3270.8341	3673.9573	3846.1241
OC1=C(NC=C1)C1CO1	Oc1c([nH]cc1)[C@H]1CO1	
InChI=1S/C6H7NO2/c8-4-1-2-7-6(4)5-3-9-5/h1-2,5,7-8H,3H2	InChI=1S/C6H7NO2/c8-4-1-2-7-6(4)5-3-9-5/h1-2,5,7-8H,3H2/t5-/m1/s1
