16
gdb 12304	2.85276	2.17041	1.3464	4.6639	65.04	-0.2326	-0.0695	0.1631	901.4333	0.131068	-383.785182	-383.777877	-383.776933	-383.817177	27.063	
O	 0.0164943353	-0.0409120406	 0.0879763273	-0.278453
C	-0.0206207165	 1.1625358373	 0.0419685345	 0.311391
C	-1.3030929133	 1.9777982605	 0.037451434	-0.306623
C	-1.261223042	 3.1329183674	-0.9802186422	-0.209068
C	-0.0279143282	 4.0186056095	-0.7680207217	-0.209069
C	 1.2743310853	 3.2088075971	-0.9097829675	-0.306623
C	 1.2984404326	 1.9871475803	-0.0062504886	 0.311389
O	 2.2554569871	 1.6407699089	 0.6386705524	-0.27845
H	-2.1459656446	 1.3003769759	-0.1230681175	 0.128147
H	-1.4100531795	 2.4012190976	 1.048051252	 0.131164
H	-1.2486513707	 2.723307596	-1.998467051	 0.11178
H	-2.1767485881	 3.7266462575	-0.8941013491	 0.111663
H	-0.0227406936	 4.8441066967	-1.4867954661	 0.111663
H	-0.0693530571	 4.4732245976	 0.2301642499	 0.11178
H	 1.3481861871	 2.8369509828	-1.9433714045	 0.131162
H	 2.1691639262	 3.8052303454	-0.713176392	 0.128147
60.4919	120.2333	285.8053	285.9143	334.5444	407.1569	416.3929	519.7581	648.346	658.1684	666.3869	835.3266	856.9819	870.4562	934.5795	964.1305	1066.685	1068.8238	1086.7593	1125.2641	1140.0326	1241.2465	1269.8478	1274.4879	1332.3467	1342.9177	1364.492	1377.5778	1458.4326	1458.8281	1494.5237	1501.0688	1815.534	1824.1455	3003.0694	3003.1142	3026.2001	3032.7742	3078.4075	3081.6746	3099.4765	3099.8423
O=C1CCCCC1=O	O=C1CCCCC1=O	
InChI=1S/C6H8O2/c7-5-3-1-2-4-6(5)8/h1-4H2	InChI=1S/C6H8O2/c7-5-3-1-2-4-6(5)8/h1-4H2
