23
gdb 103607	2.453	1.12092	1.03776	2.5561	86.2	-0.2286	-0.0132	0.2154	1358.8952	0.203302	-388.316534	-388.305959	-388.305014	-388.352117	38.797	
C	 1.787752184	-0.6346884246	 1.6428094419	-0.396351
C	 0.7914451328	-0.1602133453	 0.5793310746	-0.222434
C	 0.9365783775	-0.8428467894	-0.7881180122	 0.210053
C	 2.2929761786	-0.567684465	-1.4531404522	-0.447307
C	 0.4986525961	-2.3479745583	-0.883894187	-0.298445
C	-0.4561057562	-2.0237942401	-2.0782324651	-0.090296
C	-1.8912346868	-2.5343951302	-2.0798916282	-0.406743
C	-0.2288505201	-0.5380326954	-1.7552217348	 0.364085
O	-0.819020969	 0.4669820117	-2.0368805664	-0.319426
H	 1.7220925419	-1.7171806256	 1.7983803038	 0.117414
H	 2.8207467664	-0.3994108768	 1.3697631002	 0.119772
H	 1.5840727322	-0.1501705026	 2.6026799158	 0.117202
H	-0.2295990505	-0.3262069507	 0.9452318706	 0.095393
H	 0.8850445827	 0.9228612837	 0.4344453033	 0.111645
H	 3.1108249569	-0.9958304703	-0.8654291722	 0.122826
H	 2.3456101169	-1.0056228087	-2.4555139114	 0.115864
H	 2.4655887445	 0.5090606937	-1.550114885	 0.129023
H	 1.2949301296	-3.0664138048	-1.0874402226	 0.100542
H	-0.0532779284	-2.6741892621	 0.0024793986	 0.103566
H	 0.0286592183	-2.2612338881	-3.0337550507	 0.101597
H	-2.3875802388	-2.3148808376	-1.1288552168	 0.119016
H	-2.4688174852	-2.0532459361	-2.8748677808	 0.134764
H	-1.9274044434	-3.6169480273	-2.2381242831	 0.118239
52.9682	90.5559	136.3698	185.2085	200.2972	210.1003	223.9017	274.4839	281.2099	316.7117	360.1326	387.3649	542.2688	593.9653	708.7719	723.3673	781.5747	802.8681	878.1761	892.9954	911.0053	960.2505	988.8453	1019.2745	1031.2771	1046.9195	1096.3627	1123.0695	1150.4588	1187.0293	1215.6336	1226.9915	1250.8675	1278.9718	1320.4052	1332.278	1368.82	1403.9509	1407.1074	1413.1444	1478.9205	1484.9031	1493.6271	1494.8189	1495.7329	1498.9665	1506.1386	1509.7973	1875.648	3024.5809	3029.0654	3032.6811	3034.6441	3036.1721	3058.3362	3060.2036	3097.9096	3101.7921	3102.5202	3106.0591	3111.0199	3111.3302	3118.357
CCC1(C)CC(C)C1=O	CC[C@@]1(C)C[C@@H](C)C1=O	
InChI=1S/C8H14O/c1-4-8(3)5-6(2)7(8)9/h6H,4-5H2,1-3H3	InChI=1S/C8H14O/c1-4-8(3)5-6(2)7(8)9/h6H,4-5H2,1-3H3/t6-,8+/m1/s1
