20
gdb 61269	4.65265	0.79097	0.75349	5.0109	80.	-0.2835	0.0311	0.3146	1537.6421	0.170636	-403.152037	-403.142584	-403.14164	-403.186947	34.513	
O	-0.4131238005	 1.306722552	-0.0214984379	-0.415505
C	-0.0584138466	-0.0635984652	-8.4813*^-6	 0.091212
C	 0.7509783909	-0.4542881043	-1.2602877614	-0.377086
C	 0.0657567137	-0.1205814308	-2.5061615884	 0.271643
N	-0.475231225	 0.1324007028	-3.4950670345	-0.30355
C	 0.6875721796	-0.4712529316	 1.2711461312	 0.040273
C	 1.9864655343	 0.2848415137	 1.6859082702	-0.241472
C	 1.5021901666	 0.2175773311	 3.159642927	-0.210388
C	 0.0693602425	-0.0767165558	 2.6404900592	-0.244161
H	 0.3930869936	 1.8339580999	-0.0491969419	 0.284527
H	-1.017256782	-0.5944917454	-0.0290849312	 0.111399
H	 1.7233112523	 0.0546949923	-1.2447123287	 0.146334
H	 0.9600587471	-1.5300106082	-1.2500252333	 0.152441
H	 0.8801257586	-1.5497538211	 1.2347401507	 0.073784
H	 2.9468545122	-0.1733277802	 1.4380590639	 0.102216
H	 1.9962299428	 1.3187254532	 1.3218428514	 0.087731
H	 1.930318912	-0.6417009482	 3.68317654	 0.106864
H	 1.6451898799	 1.1066491497	 3.7773217184	 0.103391
H	-0.522198974	 0.8367257046	 2.5396425197	 0.120888
H	-0.5224260382	-0.8302031884	 3.1649334669	 0.09946
58.7428	81.8213	110.185	146.6844	215.8016	281.9467	288.2464	330.3346	398.2495	412.4617	544.327	574.2989	684.9806	764.9995	788.3028	864.1044	890.0405	928.0647	937.5653	951.8577	970.3185	1012.0122	1029.5932	1054.2953	1130.6518	1146.5667	1194.3207	1203.7197	1245.0652	1255.0929	1258.4261	1273.1301	1278.563	1308.1226	1312.8714	1362.8252	1380.1824	1425.4295	1463.0317	1475.6441	1486.6845	1509.8535	2365.5984	3030.4975	3036.3663	3040.8502	3050.9957	3061.3911	3067.6713	3080.2279	3097.3388	3111.4003	3127.927	3800.7577
OC(CC#N)C1CCC1	O[C@@H](CC#N)C1CCC1	
InChI=1S/C7H11NO/c8-5-4-7(9)6-2-1-3-6/h6-7,9H,1-4H2	InChI=1S/C7H11NO/c8-5-4-7(9)6-2-1-3-6/h6-7,9H,1-4H2/t7-/m0/s1
