18
gdb 78339	2.72285	1.44858	1.08404	2.4665	78.82	-0.2411	-0.0203	0.2209	1152.5538	0.146648	-401.912717	-401.904461	-401.903517	-401.945365	31.546	
C	-0.0518387964	 1.431362403	-0.006894322	-0.422701
C	 0.0771183496	-0.0723059121	 0.0029044056	 0.018337
C	 1.4368316761	-0.6860984162	-0.1396931776	-0.193985
N	 0.6860695802	-0.6606377162	 1.1979388034	-0.177837
C	 0.4705187948	-2.1300316789	 1.0623938173	 0.231855
C	 0.5607881444	-3.0874471774	 2.2138235736	-0.333383
C	-0.7498079861	-2.8867529249	 1.4982864941	-0.323414
C	 1.305625063	-2.1864530549	-0.1939246379	 0.376558
O	 1.8014066671	-3.0630743084	-0.843994981	-0.327251
H	 0.8111821618	 1.8978226269	 0.4751340165	 0.133818
H	-0.1259327275	 1.8057605669	-1.0326592822	 0.127528
H	-0.9515139549	 1.7387343122	 0.5354656044	 0.130716
H	-0.7626505928	-0.611747455	-0.4338418419	 0.100152
H	 2.3251474395	-0.0939914978	-0.3280561802	 0.119611
H	 1.1136364496	-4.0048946814	 2.0428158102	 0.13927
H	 0.6751017008	-2.6468090385	 3.1976264117	 0.136877
H	-1.5187488988	-2.3149358017	 2.0073166061	 0.129111
H	-1.1145681503	-3.6722505855	 0.8451876799	 0.134738
130.3494	165.0148	194.7768	196.2849	218.0033	245.3412	389.9592	436.7235	487.0781	638.508	664.007	730.3462	769.5496	782.7825	833.7414	894.1311	922.855	951.9304	959.9942	993.887	1000.7512	1028.253	1058.745	1078.7656	1087.8512	1150.3643	1161.3112	1194.8454	1212.1942	1230.2713	1270.0798	1360.5242	1405.2694	1424.2177	1450.0343	1486.352	1487.5498	1494.9083	1885.1345	3041.0667	3108.1723	3109.7653	3128.9974	3131.8176	3138.1328	3186.8742	3218.1071	3235.202
CC1C2N1C1(CC1)C2=O	C[C@H]1[C@H]2N1C1(CC1)C2=O	
InChI=1S/C7H9NO/c1-4-5-6(9)7(2-3-7)8(4)5/h4-5H,2-3H2,1H3	InChI=1S/C7H9NO/c1-4-5-6(9)7(2-3-7)8(4)5/h4-5H,2-3H2,1H3/t4-,5+,8?/m0/s1
