17
gdb 84966	2.24809	1.68625	1.09548	5.3357	68.69	-0.2507	-0.0791	0.1715	1108.9918	0.13481	-459.023389	-459.014713	-459.013769	-459.05691	31.792	
C	 0.2336132676	 1.5363908618	-0.2688274958	-0.395453
C	 0.0029061806	 0.0679637841	 0.0596221415	 0.082117
O	 0.444751186	-0.7366889019	-1.075105311	-0.224474
C	 1.6503512291	-1.3101677224	-0.8567943351	 0.356003
O	 2.2647435098	-1.92133338	-1.6780825499	-0.31434
C	 2.0320309644	-1.0435450314	 0.6164839207	 0.258198
O	 3.1083502604	-1.2587161913	 1.0984989672	-0.277463
C	 0.7887600217	-0.4794342868	 1.2752462892	-0.123287
C	 1.056316247	 0.4493174223	 2.4549223601	-0.414972
H	 1.3013931442	 1.762665022	-0.3582734356	 0.132759
H	-0.2469274336	 1.7792149994	-1.2196557975	 0.143668
H	-0.1919968041	 2.1776823835	 0.5079121142	 0.131612
H	-1.0677549229	-0.1280272645	 0.1539715823	 0.10781
H	 0.2426286979	-1.3662665771	 1.6331729484	 0.129561
H	 1.5944902119	 1.3487772317	 2.1457768835	 0.134887
H	 0.1255262622	 0.7539343859	 2.9416058957	 0.124669
H	 1.6773409277	-0.0695708654	 3.1893653421	 0.148706
66.8631	114.5969	191.2995	226.0327	249.4611	269.8543	327.9762	377.8562	424.1617	473.9375	595.5949	603.4536	650.3203	711.8206	803.783	839.2143	930.8325	989.5273	1007.6533	1035.3752	1057.9592	1100.8792	1145.037	1185.0288	1208.1056	1273.5997	1332.8208	1369.4876	1384.657	1412.4904	1416.8798	1484.5699	1489.2584	1499.8871	1503.2747	1867.5584	1883.6411	2994.5282	3042.5365	3051.1594	3079.6676	3118.3049	3123.3839	3128.5767	3131.864
CC1OC(=O)C(=O)C1C	C[C@H]1OC(=O)C(=O)[C@H]1C	
InChI=1S/C6H8O3/c1-3-4(2)9-6(8)5(3)7/h3-4H,1-2H3	InChI=1S/C6H8O3/c1-3-4(2)9-6(8)5(3)7/h3-4H,1-2H3/t3-,4+/m0/s1
