19
gdb 30707	3.08052	1.17178	0.87256	2.169	81.06	-0.1704	0.0463	0.2168	1320.949	0.159407	-419.235364	-419.225466	-419.224522	-419.270118	36.095	
C	-0.165922939	 1.5529615968	 0.0798304393	-0.526829
C	-0.0290590906	 0.0629942615	 0.0074728746	 0.14672
C	 0.075306224	-0.7319375367	-1.1188083041	 0.248737
C	 0.1354519277	-0.3962737637	-2.5702264869	-0.202407
O	-0.4934035244	-1.4544355262	-3.2963417077	-0.425527
N	 0.1924924938	-2.0335648851	-0.7154614539	-0.297943
C	 0.1407812224	-2.1044203847	 0.660296234	-0.175238
C	 0.0169253304	-0.8170947982	 1.1352202156	 0.161588
N	-0.1348305383	-0.3962043295	 2.4754934076	-0.606236
H	 0.7724515366	 2.0539443562	 0.3569492569	 0.112343
H	-0.4807591089	 1.9783841305	-0.8782515424	 0.11632
H	-0.9124012464	 1.8374872125	 0.8303833618	 0.131861
H	-0.3642433345	 0.5678921041	-2.7463124206	 0.102218
H	 1.1798521096	-0.2827153686	-2.9085777567	 0.096156
H	-0.2830022051	-1.339375979	-4.2277608573	 0.288633
H	 0.1287464612	-2.8050595273	-1.3561856503	 0.261009
H	 0.1802595496	-3.0491082197	 1.1782588685	 0.099385
H	 0.0641401229	-1.1425650815	 3.1303087252	 0.233185
H	 0.4699462991	 0.3863209787	 2.6985757564	 0.236025
64.6468	104.932	136.8762	185.0161	213.7252	245.2959	256.4386	293.4789	308.6624	369.3247	485.9947	516.7157	590.8555	632.3656	653.3604	687.642	739.3595	753.7363	813.1202	942.577	1014.0091	1038.9037	1062.5841	1093.6392	1101.144	1150.0179	1213.3564	1227.7223	1247.9419	1294.7337	1351.9631	1415.9477	1433.8243	1463.8655	1481.4398	1499.7733	1507.0078	1516.6309	1571.7031	1640.191	1662.8908	2944.1265	2999.4492	3003.0427	3057.2905	3096.2806	3258.7413	3513.1005	3602.4132	3686.828	3827.0293
CC1=C(CO)NC=C1N	Cc1c(CO)[nH]cc1N	
InChI=1S/C6H10N2O/c1-4-5(7)2-8-6(4)3-9/h2,8-9H,3,7H2,1H3	InChI=1S/C6H10N2O/c1-4-5(7)2-8-6(4)3-9/h2,8-9H,3,7H2,1H3
