25
gdb 60463	4.68101	0.54048	0.50736	1.3503	90.25	-0.2598	0.0736	0.3334	2254.5075	0.227289	-389.485924	-389.474928	-389.473984	-389.523159	40.264	
C	 0.0696826518	 1.5272875431	 0.0909843371	-0.401036
C	 0.0093408235	-0.0003338456	 0.1268587494	 0.136572
O	 0.5582979908	-0.505848967	 1.3440898672	-0.427997
C	-1.4070471062	-0.5364648795	-0.1198428763	-0.193728
C	-1.4841894458	-2.0651209693	-0.1662617258	-0.166118
C	-2.9114286109	-2.597091264	-0.3478586027	-0.209423
C	-2.9813693071	-4.1085462272	-0.409148939	 0.038813
C	-3.049178478	-4.9227577407	 0.8589323382	-0.252508
C	-4.2506176685	-4.8379017862	-0.0520487281	-0.278053
H	 1.0872798701	 1.8722141614	 0.2935409946	 0.12233
H	-0.2427313524	 1.9156557611	-0.8838687422	 0.114331
H	-0.5955765804	 1.9600807736	 0.8492535582	 0.103866
H	 0.6748609638	-0.3999742494	-0.6494136076	 0.086165
H	 0.0320567675	-0.1475141921	 2.0679294521	 0.273724
H	-2.0685748579	-0.1543853442	 0.6736220314	 0.078622
H	-1.7875829789	-0.1125343223	-1.0589982341	 0.091387
H	-0.8540157923	-2.4322302849	-0.9884291887	 0.088934
H	-1.0492881339	-2.472469725	 0.7526892428	 0.110718
H	-3.5418304849	-2.2422394019	 0.4796694934	 0.085376
H	-3.3473735829	-2.1717490816	-1.2631068042	 0.090462
H	-2.3987104273	-4.5475419621	-1.2162160147	 0.078032
H	-2.5039182622	-5.8588000313	 0.9091156613	 0.108702
H	-3.0919514434	-4.3857728514	 1.8014034644	 0.106406
H	-5.0973731613	-4.2463371353	 0.2815924075	 0.106608
H	-4.5247450831	-5.7157177679	-0.6269875642	 0.107817
44.2081	50.8408	94.6039	120.5548	145.514	218.5572	242.8236	256.4198	301.3926	354.0226	381.3292	432.1451	480.9643	512.4586	743.4175	772.7787	793.3543	827.1851	853.7914	855.7239	917.5882	941.2636	957.8054	999.7216	1033.6315	1050.1715	1058.0144	1067.6185	1074.9187	1103.5427	1127.9339	1140.0419	1171.4722	1197.2912	1219.7664	1231.0347	1258.0426	1287.1107	1317.1628	1334.4813	1344.5068	1374.1154	1396.5917	1404.1516	1419.2064	1421.6724	1467.2522	1475.6197	1483.0593	1492.1914	1495.729	1505.391	1508.0966	2986.935	2999.1986	3014.1482	3020.6776	3028.2604	3032.231	3040.3003	3080.0508	3092.239	3117.1375	3125.4023	3127.243	3131.7474	3202.916	3218.2619	3793.3763
CC(O)CCCC1CC1	C[C@@H](O)CCCC1CC1	
InChI=1S/C8H16O/c1-7(9)3-2-4-8-5-6-8/h7-9H,2-6H2,1H3	InChI=1S/C8H16O/c1-7(9)3-2-4-8-5-6-8/h7-9H,2-6H2,1H3/t7-/m1/s1
