18
gdb 105854	2.06299	1.61864	1.27247	3.4126	72.68	-0.2326	0.004	0.2366	1096.4291	0.146217	-439.062973	-439.053928	-439.052984	-439.096834	33.004	
C	-0.2272569722	 1.3453522845	-0.0298584662	-0.263798
O	 0.1234321005	-0.0292691877	 0.1097189026	-0.274561
C	 0.7370877503	-0.5410958327	-0.998724346	 0.274184
C	-0.0367679173	-1.0603903797	-2.2281288955	-0.079512
C	 0.1961122304	-0.660553745	-3.6674379926	-0.425704
C	 0.8463994642	-1.9886797187	-1.4296606844	-0.12143
N	 2.2721830425	-1.7833637468	-1.7147524044	-0.339321
C	 2.2182703452	-0.417159003	-1.3738658862	 0.340091
O	 3.0422612653	 0.4524652806	-1.4054589877	-0.347838
H	 0.6577534781	 1.9608180623	-0.2280687826	 0.143589
H	-0.9539052419	 1.4880828971	-0.841376707	 0.111447
H	-0.6785791636	 1.6498881125	 0.9161799565	 0.132183
H	-1.0861623612	-1.1767055009	-1.9562031181	 0.104527
H	 1.2603830826	-0.5604602947	-3.8968836036	 0.12732
H	-0.2263741851	-1.4064169862	-4.3496295038	 0.123574
H	-0.2792204146	 0.3003979534	-3.887559406	 0.129881
H	 0.5144169317	-2.8708060754	-0.8983373736	 0.122853
H	 2.732150515	-2.1167640695	-2.5546271814	 0.242514
74.8261	131.1982	157.555	173.2153	184.5828	255.2112	304.1975	336.6054	414.3017	490.0485	550.4629	637.8671	684.9872	721.7059	786.0108	799.2846	912.1001	926.671	983.3635	1003.5319	1055.983	1078.9901	1103.9866	1109.167	1155.8126	1181.5076	1213.9846	1238.3047	1286.2174	1320.2935	1343.9226	1418.2888	1437.557	1486.8692	1491.247	1494.637	1503.0007	1507.415	1890.7942	3005.6067	3036.5663	3074.9469	3098.1124	3109.8213	3125.0462	3134.123	3206.7124	3545.3049
COC12C(C)C1NC2=O	CO[C@]12[C@@H](C)[C@H]1NC2=O	
InChI=1S/C6H9NO2/c1-3-4-6(3,9-2)5(8)7-4/h3-4H,1-2H3,(H,7,8)	InChI=1S/C6H9NO2/c1-3-4-6(3,9-2)5(8)7-4/h3-4H,1-2H3,(H,7,8)/t3-,4+,6+/m0/s1
