17
gdb 19846	3.30185	2.48999	1.76651	3.0739	66.66	-0.2402	0.0679	0.3081	776.8453	0.145285	-363.826702	-363.820497	-363.819553	-363.856742	25.316	
C	-0.0200782892	 1.512471572	-0.0140916713	-0.21347
C	 1.4064797022	 2.0955445906	 0.0453233487	-0.244559
C	 2.1962857627	 1.5469114491	 1.2161422339	 0.058485
O	 1.4542719549	 1.2857609858	 2.4113107878	-0.24269
C	 1.9535787207	 0.1673097489	 1.6785268957	 0.053652
C	 0.9662227429	-0.6833699438	 0.9277863407	-0.050588
N	-0.4515218356	-0.6246831764	 1.3184163736	-0.320879
C	-0.0246464231	-0.0100790511	 0.045294645	-0.039798
H	-0.5933563412	 1.8911422418	 0.835310437	 0.134515
H	-0.5144950526	 1.8566781259	-0.927547926	 0.093016
H	 1.9603307283	 1.8686989987	-0.8761713059	 0.10075
H	 1.3548481511	 3.1882693382	 0.116273344	 0.107662
H	 3.1802783271	 1.9868046095	 1.3826396277	 0.085525
H	 2.7575056335	-0.3707372241	 2.1811131153	 0.087701
H	 1.3694701557	-1.642616461	 0.6093531082	 0.079007
H	-0.8861906037	-1.5268258915	 1.1411945014	 0.229791
H	-0.2949965938	-0.5286074025	-0.8715219057	 0.081881
175.7464	223.4493	338.7229	394.008	470.5764	500.0321	615.4029	684.4294	768.8825	789.0322	815.7739	844.2571	909.6879	915.4607	941.611	970.3923	985.7028	1024.5161	1062.0038	1096.1165	1106.9765	1133.9792	1167.008	1197.9772	1232.6725	1248.0534	1269.3591	1286.7317	1346.5735	1363.6924	1388.0878	1410.8014	1458.618	1460.6638	1480.2524	1485.9343	3017.5966	3054.3426	3062.7959	3097.1342	3108.1552	3110.0944	3124.9865	3135.1647	3499.0727
C1CC2OC2C2NC12	C1C[C@H]2O[C@H]2[C@H]2N[C@@H]12	
InChI=1S/C6H9NO/c1-2-4-6(8-4)5-3(1)7-5/h3-7H,1-2H2	InChI=1S/C6H9NO/c1-2-4-6(8-4)5-3(1)7-5/h3-7H,1-2H2/t3-,4+,5-,6+/m0/s1
