21
gdb 41340	2.95198	1.7837	1.48742	1.6153	80.84	-0.2354	0.0849	0.3204	970.7082	0.18665	-387.081389	-387.07466	-387.073716	-387.111993	29.209	
C	-0.0121698334	 1.5166129025	 0.2340701101	-0.264258
C	 1.5219280805	 1.5165466137	-0.0878646279	-0.340525
C	 1.2977498556	 0.2027246586	-0.8611408346	 0.32594
C	 2.0608573909	-1.1083779512	-0.9401802032	-0.156411
O	 1.1245155906	-1.9344728951	-1.6800805189	-0.295805
C	 0.0764788418	-1.0722368378	-2.1855963234	 0.125106
C	-0.9459472013	-0.783737718	-1.0551677837	-0.264964
C	-0.0269238587	-0.0126501736	-0.0763901951	 0.03149
C	 0.7832127373	 0.2770330649	-2.3181959517	-0.276264
H	-0.3082230939	 1.8202731851	 1.2405362275	 0.097799
H	-0.5860626319	 2.1052845475	-0.4864138725	 0.103902
H	 1.9343784319	 2.3662564506	-0.6377450967	 0.097543
H	 2.1152135394	 1.3659724848	 0.8192354124	 0.103911
H	 3.0162766444	-1.0519669219	-1.4816987218	 0.087146
H	 2.238939151	-1.5643802739	 0.040814455	 0.094575
H	-0.3304751166	-1.5382053609	-3.0843444976	 0.069487
H	-1.7900784367	-0.1929955996	-1.4298515933	 0.091569
H	-1.3414575711	-1.707089528	-0.6252917158	 0.102361
H	 0.144319851	-0.5731960193	 0.8470686847	 0.071909
H	 0.1033409192	 1.1085411835	-2.5144598559	 0.097094
H	 1.5872784898	 0.2796708181	-3.0592585277	 0.098395
193.2688	266.9701	306.3398	376.511	404.0218	452.4688	508.5566	619.2788	661.6581	760.8359	775.5732	794.452	846.038	878.7988	886.2595	899.8884	914.6892	956.8248	958.3971	976.0931	1008.2677	1017.2602	1050.1502	1079.6456	1117.4911	1153.3162	1155.2863	1181.9384	1196.1695	1206.4004	1232.6216	1244.1662	1252.3049	1264.7296	1284.2521	1308.7538	1319.3547	1326.841	1356.1017	1382.4926	1475.3451	1480.6858	1492.2676	1503.8411	1529.2597	2991.9204	3039.2206	3049.4384	3051.7663	3058.9911	3062.5019	3067.0522	3100.2272	3103.6153	3108.5838	3116.914	3123.5987
C1CC23COC(CC12)C3	C1C[C@@]23CO[C@@H](C[C@H]12)C3	
InChI=1S/C8H12O/c1-2-8-4-7(9-5-8)3-6(1)8/h6-7H,1-5H2	InChI=1S/C8H12O/c1-2-8-4-7(9-5-8)3-6(1)8/h6-7H,1-5H2/t6-,7-,8+/m0/s1
