16
gdb 61691	2.31149	1.34038	1.09506	3.2159	77.4	-0.2547	0.0111	0.2658	1159.3755	0.119935	-400.692204	-400.682241	-400.681297	-400.726784	36.164	
C	-0.0810529876	 1.577487297	-0.0445351919	-0.406878
C	-0.0476893681	 0.0270837134	-0.0070741833	-0.120191
N	 0.6789100387	-0.4478693546	 1.1921219009	-0.295347
C	 0.3023557218	-0.1858593139	 2.4753674355	 0.16851
O	-0.5942584435	 0.5529670577	 2.8159522021	-0.319938
C	-1.4215643722	-0.5093571169	-0.0370789171	 0.398879
C	-2.5442340478	-0.9315709388	-0.079016074	-0.483461
C	 0.690770111	-0.4775191187	-1.1757932904	 0.312071
C	 1.3160345489	-0.87593536	-2.1200652005	-0.440587
H	 0.9427382936	 1.9586556438	-0.0452141412	 0.125672
H	-0.589231178	 1.9069331024	-0.9526839063	 0.134762
H	-0.6129814471	 1.9433599141	 0.8324573203	 0.170898
H	 1.3609583089	-1.1737853471	 1.0377798072	 0.258803
H	 0.9444502573	-0.7315420026	 3.1961823183	 0.084716
H	-3.5378205312	-1.3063634574	-0.1027948744	 0.204667
H	 1.8535203554	-1.2310282885	-2.9649389952	 0.207423
70.8189	126.698	129.3277	163.5887	220.3735	224.5099	255.3852	275.4485	377.6145	457.296	480.9517	504.2461	556.171	585.9802	637.1628	638.7035	657.428	664.8631	674.0739	827.5878	929.1742	963.1652	1028.1016	1073.9452	1168.6554	1190.3582	1229.4118	1393.3585	1430.3291	1473.3395	1498.8604	1501.5082	1808.3762	2240.5464	2245.5508	2928.9212	3062.0849	3142.7888	3175.0817	3498.7019	3501.339	3633.4834
CC(NC=O)(C#C)C#C	CC(NC=O)(C#C)C#C	
InChI=1S/C7H7NO/c1-4-7(3,5-2)8-6-9/h1-2,6H,3H3,(H,8,9)	InChI=1S/C7H7NO/c1-4-7(3,5-2)8-6-9/h1-2,6H,3H3,(H,8,9)
