17
gdb 11360	4.41389	1.35557	1.11302	3.7124	71.26	-0.2102	0.0043	0.2145	1080.0242	0.142437	-363.922042	-363.914047	-363.913103	-363.954657	29.491	
C	 0.0268573098	 1.5461468931	 0.219249253	-0.373367
C	-0.0164331807	 0.0413181476	-0.1016553789	-0.299865
C	-1.3993252761	-0.5256753015	-0.12256255	 0.380213
C	-2.105432428	-1.0481907435	-1.1345679679	-0.232259
C	-3.46130558	-1.4658310564	-0.6316146057	-0.381618
C	-3.4191757	-1.1020156602	 0.8629368727	 0.403357
O	-4.2712768334	-1.2547864602	 1.7067395609	-0.369678
N	-2.1670319579	-0.5465390998	 1.0606937141	-0.367845
H	 1.0585547971	 1.9091650474	 0.2209903775	 0.121925
H	-0.5374533915	 2.1173971106	-0.5234870554	 0.129863
H	-0.4037018278	 1.763273288	 1.2019810484	 0.117689
H	 0.44086045	-0.1430537447	-1.0784411332	 0.119314
H	 0.5894234874	-0.5036133986	 0.6355375414	 0.112416
H	-1.7563977511	-1.1506170671	-2.1510930738	 0.09934
H	-4.2958148798	-0.9381377448	-1.1088314327	 0.142451
H	-3.66932713	-2.5369756793	-0.7389400047	 0.14228
H	-1.856329258	-0.2334502604	 1.9654653244	 0.255784
75.7641	113.7111	171.844	195.7182	294.6653	349.6177	425.8171	497.7429	557.7432	584.1059	661.5692	693.2221	731.9992	792.0138	860.2312	943.0142	952.0053	983.6467	1006.9451	1068.9125	1092.5402	1146.3527	1192.2077	1201.3007	1273.0087	1275.6176	1334.0632	1359.2052	1410.4544	1422.1218	1439.6221	1479.0916	1497.0219	1505.4348	1709.7138	1838.3609	3015.3884	3041.1477	3041.7301	3071.2357	3081.1479	3112.2762	3119.1973	3243.22	3661.0355
CCC1=CCC(=O)N1	CCC1=CCC(=O)N1	
InChI=1S/C6H9NO/c1-2-5-3-4-6(8)7-5/h3H,2,4H2,1H3,(H,7,8)	InChI=1S/C6H9NO/c1-2-5-3-4-6(8)7-5/h3H,2,4H2,1H3,(H,7,8)
