15
gdb 5083	3.34667	1.96956	1.2532	1.1495	63.75	-0.173	0.0602	0.2332	923.3955	0.118091	-399.827358	-399.818962	-399.818018	-399.859657	30.724	
C	-0.0682342832	 1.527301252	 0.0214116784	-0.507246
C	-0.0174706294	 0.0316374522	-0.0062431842	 0.185827
C	-0.0425514151	-0.7879906895	-1.1092927951	-0.187712
N	 0.0167234255	-2.1045530346	-0.6795828719	-0.31083
C	 0.0865939989	-2.1262924891	 0.6818266927	 0.333163
O	 0.1379173803	-3.3066797613	 1.3467706739	-0.443644
C	 0.0703449248	-0.8305918026	 1.1338304165	 0.048227
O	 0.0525643166	-0.5021405548	 2.4775290259	-0.459507
H	 0.8567464231	 1.9677787775	 0.4166097335	 0.111417
H	-0.2168496814	 1.9331581257	-0.9831848201	 0.120901
H	-0.8865356874	 1.8899746717	 0.6543518338	 0.129053
H	-0.0950750524	-0.5512635619	-2.1590445444	 0.112571
H	-0.0098320282	-2.9240119085	-1.259258675	 0.26506
H	 0.1302059613	-3.0862366217	 2.286206089	 0.308154
H	 0.8413407967	 0.0115473547	 2.6818716271	 0.294566
111.9949	168.5125	216.3266	234.4119	260.9992	273.8424	300.8835	363.785	398.1744	530.1009	565.3729	626.0203	646.3842	677.4622	738.713	771.3612	994.8583	1052.988	1062.9816	1090.6969	1179.4616	1213.7378	1281.0469	1288.3635	1401.8243	1411.5177	1419.7042	1481.6259	1496.7464	1566.7738	1587.9931	1683.9024	3013.8157	3061.9232	3106.3646	3268.5365	3695.1339	3788.1134	3803.601
CC1=CNC(O)=C1O	Cc1c[nH]c(O)c1O	
InChI=1S/C5H7NO2/c1-3-2-6-5(8)4(3)7/h2,6-8H,1H3	InChI=1S/C5H7NO2/c1-3-2-6-5(8)4(3)7/h2,6-8H,1H3
