19
gdb 69115	2.5757	1.61458	1.21071	3.1733	76.39	-0.239	-0.0263	0.2127	1073.1555	0.158482	-423.034962	-423.026497	-423.025552	-423.067604	32.473	
C	-0.2524007038	 1.4669174464	 0.2433843925	-0.486108
C	 0.0701651381	 0.0055452005	 0.0531630683	 0.261635
C	-0.6586016543	-1.0456496945	 0.8474110792	-0.387188
C	 0.8237986079	-0.8360853896	 1.0951356622	 0.307658
O	 1.7392617089	-1.6914634576	 0.4699943425	-0.305047
C	 1.4148967131	-1.7593419701	-0.9210283472	-0.104826
C	 0.6777431819	-0.4505871383	-1.2696853599	-0.287865
C	 1.3139763934	-0.2731056827	 2.3690877532	 0.09073
O	 0.6405266444	 0.3864703933	 3.1278786828	-0.277478
H	 0.5872393272	 2.1003556514	-0.0638548474	 0.117027
H	-1.1222992769	 1.7496707663	-0.3603619441	 0.120258
H	-0.477483945	 1.683808065	 1.2901136926	 0.153499
H	-1.3095182722	-0.6911933056	 1.6395721793	 0.140019
H	-0.9604016538	-1.9772490815	 0.3802699828	 0.120465
H	 2.3459305817	-1.8976486832	-1.4766476899	 0.117222
H	 0.7763824938	-2.6323216801	-1.1111912586	 0.105405
H	-0.0677480161	-0.6045930468	-2.0562263348	 0.112265
H	 1.3782147626	 0.3153910199	-1.6196436209	 0.112196
H	 2.3831580692	-0.4972950828	 2.5706997275	 0.090134
133.144	174.708	197.2391	202.1362	216.1052	288.2245	339.2623	414.3342	418.8497	512.2699	597.2379	668.7107	704.7919	735.7201	816.903	887.0623	918.0094	943.363	955.2537	993.9473	1037.1704	1046.5301	1066.7759	1071.8317	1119.4274	1157.6467	1221.0713	1231.6759	1252.2403	1268.0438	1338.4514	1377.7718	1386.3251	1419.0801	1422.0234	1469.2416	1488.9075	1496.3986	1502.1106	1529.1194	1801.279	2910.8971	3012.3621	3028.5153	3044.2748	3083.6212	3086.7622	3097.1433	3125.2542	3131.5547	3224.8378
CC12CC1(OCC2)C=O	C[C@]12C[C@]1(OCC2)C=O	
InChI=1S/C7H10O2/c1-6-2-3-9-7(6,4-6)5-8/h5H,2-4H2,1H3	InChI=1S/C7H10O2/c1-6-2-3-9-7(6,4-6)5-8/h5H,2-4H2,1H3/t6-,7-/m0/s1
