19
gdb 111861	2.30448	1.54183	1.20657	1.921	71.6	-0.2351	0.0691	0.3042	1112.122	0.158212	-460.126006	-460.117035	-460.116091	-460.159672	33.026	
C	 0.2556712464	 1.238997216	 0.2157467047	-0.233798
O	-0.4013643699	 0.1280297623	-0.3633213861	-0.232814
C	 0.3794021477	-0.539867805	-1.2955885517	 0.052834
C	 1.3898523397	-1.6154575913	-0.9170831628	-0.178758
C	 1.3002684206	-2.2455571446	 0.4601965393	-0.08597
O	-0.0635916789	-2.6007570113	 0.6644125947	-0.250168
C	-0.7023736902	-2.7765049586	-0.5889707704	-0.132446
C	 0.0931755518	-1.9731673779	-1.6129651042	 0.291924
O	 0.0908874009	-2.4200292206	-2.9333578223	-0.464339
H	 1.180917925	 0.9436902476	 0.7290879983	 0.112622
H	 0.5070838207	 1.9974024783	-0.5415962061	 0.105556
H	-0.4334816526	 1.6765525049	 0.941242946	 0.131086
H	 0.68014698	 0.065572002	-2.1545201058	 0.086445
H	 2.33170599	-1.6445042295	-1.4527702459	 0.100944
H	 1.9551458533	-3.1312058491	 0.4982378627	 0.095932
H	 1.5850900993	-1.5800285638	 1.2823703088	 0.107923
H	-0.6945430919	-3.8284648965	-0.9162084939	 0.096877
H	-1.7414869004	-2.4490544305	-0.4751358449	 0.108902
H	-0.7005231515	-2.0783009823	-3.3638157104	 0.287248
87.5083	134.0161	159.899	188.8099	220.4949	240.7813	285.6554	330.1869	377.9136	504.9297	559.1423	588.2291	711.9654	756.4391	868.2573	910.6826	938.3888	951.4424	1003.6215	1046.7724	1054.084	1090.3503	1091.6934	1123.5008	1165.8599	1181.6574	1205.7547	1229.9599	1235.3267	1257.8582	1276.3673	1330.0467	1340.3283	1365.0022	1377.7095	1462.9861	1484.953	1492.9944	1504.1441	1512.7787	1524.1132	2971.3526	2981.6682	2983.5931	3038.1449	3057.7033	3065.3425	3071.9835	3123.302	3183.215	3798.0067
COC1C2COCC12O	CO[C@H]1[C@H]2COC[C@@]12O	
InChI=1S/C6H10O3/c1-8-5-4-2-9-3-6(4,5)7/h4-5,7H,2-3H2,1H3	InChI=1S/C6H10O3/c1-8-5-4-2-9-3-6(4,5)7/h4-5,7H,2-3H2,1H3/t4-,5+,6+/m1/s1
