24
gdb 62938	1.87914	1.75743	1.48653	1.5009	88.07	-0.224	0.078	0.302	1119.6756	0.215606	-368.379021	-368.36917	-368.368226	-368.412347	39.308	
C	 0.0992797583	 1.5638333263	-0.2161004202	-0.44578
C	 0.0868983126	 0.0395527294	-0.0608674715	 0.265896
C	-1.3195958955	-0.4738142503	-0.3902848882	-0.446567
C	 1.1634932176	-0.7350845697	-0.8335646112	-0.046926
C	 2.5365438326	-0.4258366381	-0.3998113531	-0.268476
N	 1.7492397512	-1.3715105542	 0.4117518265	-0.157177
C	 0.7494548682	-0.5809700233	 1.2481969187	 0.279706
C	 1.3766183948	 0.3749395229	 2.2618427409	-0.436658
C	-0.102791336	-1.6013348917	 2.00129926	-0.423011
H	 1.0873971105	 2.0032146733	-0.0640975037	 0.110442
H	-0.2306338598	 1.8426872808	-1.2232699415	 0.112818
H	-0.5873012725	 2.034941783	 0.4967835978	 0.112295
H	-1.617073162	-0.1187471805	-1.3836913381	 0.110338
H	-1.3760877653	-1.5643686794	-0.4044571621	 0.120625
H	-2.0609037015	-0.103382197	 0.3254057843	 0.113165
H	 0.9600663158	-1.3287422425	-1.7213839593	 0.084094
H	 3.3484670346	-0.9175967528	-0.928223249	 0.117434
H	 2.7946174952	 0.5539704076	-0.0110342508	 0.106476
H	 1.9915346484	 1.156031794	 1.8119357401	 0.11042
H	 0.5971593664	 0.8712948756	 2.8499589275	 0.115244
H	 2.0091094662	-0.1904962129	 2.9545324849	 0.122785
H	 0.4991381837	-2.0597819418	 2.7923760595	 0.116117
H	-0.9747258374	-1.1299889339	 2.4664289164	 0.106492
H	-0.4442090661	-2.4055866348	 1.347831162	 0.120245
134.4413	166.7311	190.5901	231.4967	250.6848	272.3537	284.4283	327.1387	335.0277	352.8946	400.8748	452.9082	499.3829	518.8558	604.6989	646.6621	751.979	771.6463	843.4386	913.3395	943.2995	953.6983	966.8474	986.7666	997.4948	1006.4084	1032.8663	1062.8731	1110.6741	1119.2533	1168.1972	1179.0313	1200.6639	1222.7707	1244.0071	1259.5124	1277.1531	1368.69	1398.6675	1405.04	1412.4326	1428.901	1471.2747	1477.0856	1484.8157	1490.275	1497.5286	1500.5747	1506.0718	1519.2548	1524.9337	3026.9574	3032.8722	3035.9534	3043.0097	3085.8872	3092.8119	3096.7088	3105.5416	3112.6989	3117.8927	3118.1321	3131.1511	3136.003	3137.6777	3200.0687
CC1(C)C2CN2C1(C)C	CC1(C)[C@H]2CN2C1(C)C	
InChI=1S/C8H15N/c1-7(2)6-5-9(6)8(7,3)4/h6H,5H2,1-4H3	InChI=1S/C8H15N/c1-7(2)6-5-9(6)8(7,3)4/h6H,5H2,1-4H3/t6-,9?/m1/s1
