19
gdb 35426	3.27819	1.37746	1.31866	1.5382	80.	-0.2455	0.0397	0.2852	1052.0386	0.160566	-385.837874	-385.830262	-385.829318	-385.869742	30.88	
C	 0.6481684365	-0.8877238039	 0.7439715229	-0.495944
C	 0.2646863637	 0.1750312532	 0.332465265	 0.3711
C	-0.232923952	 1.4532449875	-0.1939219838	-0.067949
C	-1.1170534108	 2.2075850403	 0.8508898421	-0.245764
C	-0.3096056248	 3.3222108416	 1.5307371336	-0.016191
C	 0.1912048552	 4.3049087568	 0.4336380017	-0.226903
C	 1.3137298275	 3.2638388615	 0.1932121116	 0.135037
C	 1.1724771217	 2.8686580916	 1.6881180609	-0.261089
O	 0.8543883506	 2.2457279012	-0.6912061714	-0.274673
H	 0.995624799	-1.8244241262	 1.104241653	 0.198501
H	-0.841361557	 1.2246493318	-1.0762333627	 0.114482
H	-1.9883794947	 2.6417557967	 0.3486698583	 0.104305
H	-1.4871661911	 1.4842332314	 1.5825782157	 0.116738
H	-0.8356238096	 3.7266082964	 2.3982782118	 0.063796
H	-0.4683171732	 4.5236862906	-0.4105978	 0.093393
H	 0.5788338459	 5.2349826281	 0.857778016	 0.096829
H	 2.2808043971	 3.5832218221	-0.1988825845	 0.076254
H	 1.7380216572	 3.5557447928	 2.3222965627	 0.099779
H	 1.3875938089	 1.8386078066	 1.9754870773	 0.118301
95.5464	149.9215	246.5525	304.4028	384.1411	429.2082	462.8992	496.9802	567.6486	617.2273	658.8712	682.5835	783.6966	808.541	829.6902	856.2215	887.9253	927.7599	940.6343	945.4868	981.8844	1031.2302	1043.8753	1091.4275	1103.0363	1124.2732	1139.4832	1195.2615	1225.8035	1246.4522	1261.5738	1292.6275	1296.8091	1343.5311	1351.5515	1361.3632	1387.5605	1471.6692	1490.6343	1505.4614	2228.8181	3033.554	3047.1669	3053.0753	3069.4801	3081.7273	3095.0766	3097.844	3114.4606	3135.1991	3502.3828
C#CC1CC2CC(C2)O1	C#C[C@H]1C[C@@H]2C[C@@H](C2)O1	
InChI=1S/C8H10O/c1-2-7-3-6-4-8(5-6)9-7/h1,6-8H,3-5H2	InChI=1S/C8H10O/c1-2-7-3-6-4-8(5-6)9-7/h1,6-8H,3-5H2/t6-,7-,8+/m0/s1
