23
gdb 65124	3.18241	1.26064	1.1584	0.1093	89.36	-0.2602	0.0958	0.356	1202.2103	0.206938	-351.090347	-351.082044	-351.0811	-351.123042	33.832	
C	 0.6502834745	 0.2270500363	-1.3611094045	-0.456578
C	 0.0639624698	 0.0428037142	 0.0277815418	 0.320855
C	 0.9754957487	-0.535192911	 1.0883847091	-0.307361
C	 0.5963854582	 0.9232063472	 1.1378181681	-0.297541
C	-1.3763156836	-0.4410385415	 0.0317295746	-0.010333
C	-2.4331947841	 0.0532032336	 1.0747997717	-0.064641
C	-2.5142997946	 1.3972620169	 0.2868708405	-0.21977
C	-2.5019511889	 0.2757028019	-0.7904507526	-0.056348
C	-3.5214563633	-0.4860512552	 0.1025663137	-0.225985
H	 1.7143088293	 0.4803017037	-1.31255281	 0.108359
H	 0.5533075845	-0.6899558634	-1.9547225027	 0.112988
H	 0.1404301212	 1.0293429458	-1.9065562329	 0.116398
H	 0.5351806456	-1.194086027	 1.8302989256	 0.106502
H	 1.9898976363	-0.798299575	 0.806635503	 0.10414
H	 1.3524221831	 1.6596166101	 0.8836880948	 0.104378
H	-0.0814331452	 1.2401468791	 1.922176703	 0.113674
H	-1.386794057	-1.5295172428	-0.1134755129	 0.061495
H	-2.4025096929	-0.0778412261	 2.1583926297	 0.065136
H	-3.4479768949	 1.958125818	 0.388571664	 0.08436
H	-1.6495345664	 2.0589607003	 0.3288623663	 0.102502
H	-2.545897865	 0.4002987844	-1.8737707622	 0.065306
H	-3.5762734862	-1.5711951398	-0.0234335548	 0.085861
H	-4.515606749	-0.0402135796	 0.1924169768	 0.086603
70.0096	165.8286	202.9547	234.7216	303.3187	321.552	404.3424	424.7153	497.4205	573.4444	773.7252	776.9671	787.9912	810.1171	855.6623	873.3536	884.4414	900.5576	905.4708	953.3439	954.689	1003.5426	1016.9668	1028.4376	1040.9302	1054.2813	1068.6528	1082.9388	1094.4675	1113.3962	1122.1171	1131.1465	1149.2475	1190.1088	1197.1349	1217.0839	1246.1332	1249.1557	1265.6019	1305.031	1347.0172	1399.6546	1415.4331	1467.5686	1490.4872	1497.7003	1499.6805	1508.0423	1537.7327	3010.3727	3020.4868	3046.2181	3058.6592	3080.7473	3086.9336	3094.8307	3097.5036	3112.1174	3121.7193	3130.1163	3141.982	3201.0812	3218.1193
CC1(CC1)C1C2CC1C2	CC1(CC1)[C@H]1[C@H]2C[C@@H]1C2	
InChI=1S/C9H14/c1-9(2-3-9)8-6-4-7(8)5-6/h6-8H,2-5H2,1H3	InChI=1S/C9H14/c1-9(2-3-9)8-6-4-7(8)5-6/h6-8H,2-5H2,1H3/t6-,7+,8-
