19
gdb 56758	2.87455	1.31507	1.05955	1.1461	80.73	-0.2343	0.0477	0.282	1185.7332	0.15731	-385.814484	-385.805526	-385.804582	-385.848159	34.052	
C	-0.097961993	 1.5750174338	-0.1688202223	-0.39396
C	-0.0258052557	 0.035016647	-0.0679558443	-0.281232
C	-1.3471304752	-0.5644347615	 0.1017548567	 0.32606
C	-2.4391794417	-1.0493322008	 0.2338365929	-0.467717
C	 0.6855437795	-0.5363746488	-1.2718710279	 0.509627
C	 0.1119553419	-0.8784224561	-2.6105485187	-0.334525
C	 0.8997564342	-1.9221103307	-1.8344871991	-0.197553
C	 2.373858105	-1.5414165224	-1.8579897325	-0.090173
O	 2.0738906849	-0.1916504323	-1.4019047666	-0.334408
H	 0.908154244	 1.980044093	-0.3035886336	 0.139746
H	-0.7135797026	 1.8737435544	-1.0214587137	 0.128558
H	-0.5331834655	 1.9998100642	 0.7389907692	 0.122318
H	 0.5837208828	-0.2184846433	 0.8104488427	 0.114063
H	-3.4020428859	-1.4784415121	 0.3627248291	 0.197407
H	-0.9585984035	-1.0524658085	-2.6269474157	 0.129278
H	 0.5300173903	-0.4239988507	-3.5050013941	 0.110743
H	 0.4836381064	-2.8744801473	-1.536561159	 0.107374
H	 2.9811014949	-2.069759312	-1.1145739271	 0.109454
H	 2.8870982892	-1.5448571157	-2.8269482362	 0.104937
60.2772	123.3976	166.4399	200.598	230.9546	287.4601	345.7736	407.2975	415.6319	506.1697	543.416	627.1008	645.237	695.8776	751.7584	836.356	858.6125	899.0058	954.5325	972.6716	978.8209	992.6153	1018.6099	1043.6992	1075.3403	1088.3041	1114.0087	1135.6886	1147.4883	1175.1158	1263.9017	1322.7527	1325.377	1350.8646	1389.7214	1405.4671	1482.4172	1494.1687	1499.4941	1519.404	2236.4776	3011.3011	3023.7763	3049.2686	3073.0507	3116.3506	3127.9465	3132.1451	3208.0301	3218.1661	3502.5527
CC(C#C)C12CC1CO2	C[C@@H](C#C)[C@]12C[C@H]1CO2	
InChI=1S/C8H10O/c1-3-6(2)8-4-7(8)5-9-8/h1,6-7H,4-5H2,2H3	InChI=1S/C8H10O/c1-3-6(2)8-4-7(8)5-9-8/h1,6-7H,4-5H2,2H3/t6-,7-,8+/m0/s1
