21
gdb 7840	3.6794	1.11746	1.02308	2.5515	75.58	-0.2199	0.0682	0.2881	1255.9564	0.186878	-366.229466	-366.219959	-366.219015	-366.263823	34.967	
C	-0.0838744338	 1.5874354784	 0.1393678343	-0.403367
C	-0.1225270601	 0.0702899456	-0.0436938611	 0.144164
O	 0.9120119636	-0.5658708912	 0.704627247	-0.427902
C	-1.5009070149	-0.5216487366	 0.2975034252	-0.2376
C	-1.581505196	-2.0159789403	 0.0589557603	 0.032406
C	-2.8946896146	-2.7092481351	-0.0789530641	-0.268221
N	-1.9849322886	-2.6230312449	-1.2149833695	-0.076579
C	-2.389481666	-1.7925671468	-2.3373374761	-0.314587
H	 0.9173123129	 1.9696389441	-0.0767596	 0.125273
H	-0.7986760987	 2.0874703267	-0.5223233542	 0.115751
H	-0.3396080399	 1.8601747136	 1.1714023	 0.105377
H	 0.1167567536	-0.1709035434	-1.0864986374	 0.095713
H	 0.7806786558	-0.3389920644	 1.6324061326	 0.274854
H	-1.7054755885	-0.3244674404	 1.3609528692	 0.088268
H	-2.276984362	 0.0117737148	-0.2609648716	 0.096972
H	-0.7658131042	-2.5589292395	 0.5317012624	 0.099601
H	-3.0563156916	-3.7002672218	 0.3385513898	 0.110693
H	-3.7829834264	-2.0760853033	-0.0942129589	 0.09767
H	-2.9986543109	-0.9134335168	-2.0717110876	 0.095868
H	-1.5011329414	-1.4453204408	-2.8757732584	 0.121877
H	-2.9807275784	-2.4051684279	-3.026017252	 0.123769
54.1224	85.0971	142.5666	207.5924	241.4378	273.7013	308.4099	321.677	337.2432	399.5528	457.4988	481.2686	538.3474	743.9183	783.7167	832.7158	902.89	930.5369	949.8407	1031.3827	1049.7944	1057.6162	1098.869	1119.3743	1134.837	1146.041	1162.6429	1175.042	1202.6472	1225.0953	1292.892	1328.4045	1339.0619	1375.8463	1403.2835	1419.3967	1427.6404	1447.9506	1469.1576	1489.2118	1492.2887	1496.2466	1507.4632	1512.6591	2969.7347	2996.9562	3022.7428	3043.068	3059.4321	3071.8196	3075.5532	3093.505	3095.1848	3119.2387	3130.5298	3163.2071	3792.2181
CC(O)CC1CN1C	C[C@@H](O)C[C@H]1CN1C	
InChI=1S/C6H13NO/c1-5(8)3-6-4-7(6)2/h5-6,8H,3-4H2,1-2H3	InChI=1S/C6H13NO/c1-5(8)3-6-4-7(6)2/h5-6,8H,3-4H2,1-2H3/t5-,6+,7?/m1/s1
