19
gdb 56511	2.59991	1.22657	1.04845	1.7397	83.24	-0.2556	0.0249	0.2804	1223.3711	0.154013	-385.818787	-385.808025	-385.807081	-385.85371	40.069	
C	-0.0889564776	 1.5821767781	 0.092673224	-0.427784
C	-0.0247933288	 0.0412748397	 0.0411587722	 0.038872
C	 0.7242218912	-0.5083025324	 1.2748704885	-0.417371
C	-1.3830226669	-0.5093149167	 0.0182337264	 0.351811
C	-2.4929113602	-0.9703867647	 0.0289751968	-0.488378
C	 0.7026351523	-0.4338429687	-1.2701070654	-0.045852
O	 0.0186275778	-0.0192669324	-2.443077288	-0.420031
C	 2.1084847451	-0.0195167596	-1.3061702731	 0.300313
C	 3.2487578979	 0.3571977497	-1.3722502327	-0.454754
H	 0.9202141248	 2.0051369198	 0.0843829711	 0.124616
H	-0.6494896714	 1.9769990292	-0.758631109	 0.12254
H	-0.5956388676	 1.9089338015	 1.0040875951	 0.127936
H	 0.1892571083	-0.2384838683	 2.1889684025	 0.12619
H	 0.7951561729	-1.599455259	 1.2363574878	 0.124179
H	 1.7349296535	-0.0950788361	 1.3236718369	 0.128368
H	-3.4753046074	-1.3734612119	 0.0253089391	 0.192791
H	 0.6536045456	-1.5287265361	-1.2807182453	 0.125352
H	 0.2918274255	 0.88256123	-2.6412435599	 0.288967
H	 4.262008425	 0.670924728	-1.4319580472	 0.202233
70.9717	122.8966	169.787	181.6356	211.114	229.4625	242.1351	269.3609	290.4114	332.6076	360.1996	412.9877	484.4834	546.8905	570.6081	613.2179	625.3261	637.8319	642.5039	669.3148	750.9009	856.3683	947.6309	960.7175	972.1764	1029.3507	1077.2235	1156.7374	1211.925	1232.1177	1269.3496	1333.9074	1392.427	1415.769	1418.6285	1483.8598	1488.0147	1499.1935	1512.2659	2227.0602	2234.6008	3042.7598	3045.0744	3048.4486	3117.4163	3121.0265	3123.8057	3128.2393	3500.546	3502.7446	3819.8836
CC(C)(C#C)C(O)C#C	CC(C)(C#C)[C@@H](O)C#C	
InChI=1S/C8H10O/c1-5-7(9)8(3,4)6-2/h1-2,7,9H,3-4H3	InChI=1S/C8H10O/c1-5-7(9)8(3,4)6-2/h1-2,7,9H,3-4H3/t7-/m0/s1
