16
gdb 74970	2.56113	1.7027	1.50374	3.0589	70.17	-0.2164	-0.0149	0.2015	942.0166	0.127805	-434.076973	-434.069799	-434.068855	-434.108359	28.492	
N	 0.0075889181	 1.3262815791	 0.1483059062	-0.602739
C	 0.0111109676	-0.0324966199	 0.0227493263	 0.438645
N	-1.0538327149	-0.7713655175	 0.0267545379	-0.281021
C	-0.5704651548	-2.1608361968	-0.0563153958	-0.108287
C	 0.0760784001	-2.3595843045	-1.4462015389	-0.175465
N	 1.3049553572	-1.4903336442	-1.390213351	-0.307565
C	 1.2690903174	-0.8581115066	-0.0352817532	-0.239105
C	 0.7134310906	-2.0452287674	 0.8031597312	 0.4314
O	 1.1400336222	-2.6485405951	 1.7396388843	-0.319482
H	 0.7703468256	 1.8298442362	-0.2757513576	 0.262259
H	-0.8980668734	 1.7628081995	 0.0454793683	 0.26096
H	-1.3135049828	-2.8970521468	 0.2407360896	 0.091395
H	 0.3372707326	-3.4066426679	-1.6321075001	 0.108162
H	-0.5938607774	-2.0153185191	-2.2394777778	 0.118547
H	 2.1317217442	-2.0792307523	-1.4335360459	 0.231207
H	 2.2151189176	-0.4034523967	 0.2494973364	 0.091088
126.4166	197.2805	238.6252	328.8481	395.9392	415.431	483.3748	544.0229	599.7763	613.1591	692.9236	730.6672	782.4803	786.6449	853.5214	891.0716	927.177	964.0915	984.2991	1025.5957	1066.6435	1087.7181	1147.8436	1169.9964	1186.9869	1216.4375	1269.8612	1280.4693	1347.4046	1400.6615	1464.0784	1505.7504	1612.1056	1672.3795	1896.2425	3040.3157	3086.6657	3151.0958	3152.8724	3507.2821	3568.1433	3687.499
NC1=NC2CNC1C2=O	N[C]1[N][C@H]2CN[C@@H]1C2=O	
InChI=1S/C5H7N3O/c6-5-3-4(9)2(8-5)1-7-3/h2-3,7H,1H2,(H2,6,8)	InChI=1S/C5H7N3O/c6-5-3-4(9)2(8-5)1-7-3/h2-3,7H,1H2,(H2,6,8)/t2-,3+/m0/s1
