14
gdb 131344	3.22187	1.47426	1.01144	3.8344	70.68	-0.2223	-0.043	0.1793	1080.0204	0.103438	-466.203745	-466.195894	-466.19495	-466.236855	29.509	
O	-0.0697456334	 1.3158122308	-0.1404635563	-0.410972
C	-0.0042508294	-0.0246132317	-0.0153783749	 0.366359
N	 1.1287801856	-0.6174864688	 0.0071811954	-0.277678
N	 1.1222992452	-1.9778049225	 0.1364980837	-0.338225
C	 0.0039745328	-2.7893408298	 0.245798714	 0.487052
N	-0.0252747802	-4.0598625633	 0.3664430343	-0.570636
N	-1.1802637341	-2.0719948881	 0.2131716243	-0.375806
C	-1.3142926107	-0.702324003	 0.0876279447	 0.338481
N	-2.4652229482	-0.155818715	 0.0700632685	-0.530121
H	 0.836780764	 1.646845448	-0.19833056	 0.310595
H	 2.035315681	-2.3970394597	 0.148195034	 0.271552
H	 0.9088612891	-4.4619402203	 0.3767936283	 0.209866
H	-2.0267932122	-2.6177164626	 0.2896122404	 0.27819
H	-2.3671817394	 0.852730836	-0.0282357263	 0.241342
33.4167	122.4313	249.5059	333.3195	375.9758	384.1935	433.4979	483.8838	494.7299	542.5602	606.856	635.3009	704.8846	722.0968	735.404	767.011	822.9717	858.4299	984.5489	1082.1972	1148.494	1167.4637	1264.2212	1360.2822	1402.8784	1416.8458	1458.8916	1509.4128	1697.5519	1729.6717	1746.0468	3521.3613	3521.6031	3623.6751	3680.2227	3782.328
OC1=NNC(=N)NC1=N	OC1=C(N[C@@H](N[N]1)[NH])[NH]	
InChI=1S/C3H5N5O/c4-1-2(9)7-8-3(5)6-1/h(H,7,9)(H4,4,5,6,8)	InChI=1S/C3H6N5O/c4-1-2(9)7-8-3(5)6-1/h3,5,8H,(H2,4,6)(H,7,9)/t3-/m0/s1
