15
gdb 45378	3.19545	1.69017	1.48477	5.4608	60.12	-0.2806	0.0344	0.315	893.9471	0.115231	-494.953312	-494.946895	-494.945951	-494.98435	25.137	
O	 0.0413307254	 0.0823147377	 0.697835598	-0.353292
C	 0.0160988102	 1.1244701618	 0.1213107935	 0.4712
O	-1.166116086	 1.7046560979	-0.2215531747	-0.273949
C	-1.178838102	 2.9708782867	-0.9127647685	 0.085584
C	-0.7088039418	 2.7829212549	-2.3561079586	-0.095437
O	 0.7310091892	 2.8149217421	-2.2661532398	-0.253456
C	 1.074447529	 3.0296357347	-0.9283826831	 0.226192
C	-0.0685594588	 3.8487221469	-0.3423285615	-0.292968
O	 1.1569625238	 1.781884679	-0.2082011042	-0.266878
H	-2.195893249	 3.3487134103	-0.8180489022	 0.111608
H	-1.035045973	 1.8256870126	-2.7709556812	 0.137867
H	-1.0494399139	 3.5971037054	-3.0064920676	 0.118168
H	 2.0795889183	 3.444904359	-0.8836878188	 0.116044
H	-0.0882260965	 4.8538384959	-0.7697899371	 0.130127
H	-0.0645768148	 3.9016804352	 0.7464697558	 0.139192
113.7382	152.9855	384.3543	411.8554	441.5851	487.3116	552.6441	631.5552	772.4954	775.5259	798.7052	876.3632	881.5737	925.613	938.402	943.572	985.582	1048.4887	1054.2875	1082.555	1137.1924	1152.9136	1179.0104	1224.214	1265.3038	1307.5008	1333.8376	1374.887	1390.8451	1406.6488	1480.8207	1513.6839	1895.2152	3039.5905	3084.2955	3103.6035	3134.798	3147.582	3149.5386
O=C1OC2COC(C2)O1	O=C1O[C@@H]2CO[C@@H](C2)O1	
InChI=1S/C5H6O4/c6-5-8-3-1-4(9-5)7-2-3/h3-4H,1-2H2	InChI=1S/C5H6O4/c6-5-8-3-1-4(9-5)7-2-3/h3-4H,1-2H2/t3-,4+/m0/s1
