15
gdb 14928	4.69631	1.50531	1.2129	3.9686	62.17	-0.2615	0.0073	0.2688	948.8248	0.120375	-399.799461	-399.79252	-399.791576	-399.830704	25.774	
N	-0.0382274564	-1.1392791574	-0.0212132352	-0.308872
C	 0.0069357692	 0.0144565471	-0.0116195164	 0.274844
C	-0.0002194508	 1.4798555242	 0.0292465645	-0.027497
C	-0.7225912585	 1.9973894861	 1.2888231283	-0.092897
O	-0.6648677755	 3.4069283885	 1.3189682493	-0.248451
C	 0.6799440785	 3.8695621152	 1.3070964302	-0.082991
C	 1.3988247506	 3.3591239524	 0.0654120274	-0.081491
O	 1.3427219922	 1.93570564	 0.0062090824	-0.258697
H	-0.5414788427	 1.8520383116	-0.8567442089	 0.1225
H	-1.7777117197	 1.7132286713	 1.2730637024	 0.132331
H	-0.2431977983	 1.5590763711	 2.1775405575	 0.116025
H	 0.6377867703	 4.9621894335	 1.315586192	 0.119437
H	 1.2076656859	 3.5259745997	 2.210639768	 0.106029
H	 0.9373056487	 3.791479809	-0.8362472382	 0.105943
H	 2.4596309966	 3.6222266075	 0.0811839267	 0.123789
116.9929	156.7311	257.7571	291.2102	394.3788	418.4551	456.7625	538.0523	558.7484	596.2713	848.433	886.5783	911.5834	985.3074	1023.8633	1049.7148	1100.9759	1129.5977	1140.8532	1146.1729	1248.4829	1284.8062	1304.5089	1326.7241	1367.5948	1379.4296	1408.9715	1420.2439	1479.455	1485.7679	1493.5574	2369.4789	2972.35	2985.4079	2995.0167	2999.3608	3098.1301	3103.6395	3107.1436
N#CC1COCCO1	N#C[C@H]1COCCO1	
InChI=1S/C5H7NO2/c6-3-5-4-7-1-2-8-5/h5H,1-2,4H2	InChI=1S/C5H7NO2/c6-3-5-4-7-1-2-8-5/h5H,1-2,4H2/t5-/m0/s1
