17
gdb 109464	2.63253	1.36095	0.99653	3.6561	68.7	-0.2756	0.0001	0.2757	1180.4722	0.135087	-458.965179	-458.956737	-458.955793	-458.998584	31.31	
O	 0.0031068398	 1.4399265457	-0.1857018888	-0.416483
C	 0.0064271405	 0.0934168252	 0.2356789195	-0.075286
C	-1.406601728	-0.4951401103	 0.165947716	-0.32358
C	-1.8986539592	-0.6602868242	-1.2705352008	 0.460186
O	-2.0356703465	 0.036485408	-2.2286943218	-0.34248
O	-2.0835190513	-2.0141983154	-1.1725839968	-0.262763
C	-1.6135007413	-2.0045872175	 0.207659813	 0.444318
C	-0.7790620848	-3.1191084299	 0.7310434561	-0.333385
C	-2.2088788836	-2.9111409532	 1.2212797001	-0.335325
H	-0.3716180153	 1.466032306	-1.0755259927	 0.301942
H	 0.6931704976	-0.5265465413	-0.3616104115	 0.101844
H	 0.3714885392	 0.0872562521	 1.2679146421	 0.116103
H	-2.091148343	 0.0841757087	 0.7904292565	 0.124573
H	-0.5972846044	-3.9559794885	 0.0660751622	 0.140688
H	 0.0416399599	-2.8826110669	 1.3999777589	 0.129995
H	-2.3667955658	-2.5298291973	 2.224592332	 0.129463
H	-2.9593722936	-3.6135688209	 0.876360286	 0.140191
97.4639	103.1217	132.1011	204.5065	240.2995	324.6216	389.5111	446.1297	479.7533	522.8603	554.1781	717.7094	760.2089	829.5981	838.6933	871.5754	911.0461	968.7438	992.08	1053.5026	1054.3639	1080.3313	1082.7958	1097.765	1115.5933	1180.1046	1184.4201	1224.9428	1267.7133	1321.9722	1378.0903	1400.7343	1435.8805	1450.7968	1505.3206	1513.4018	1918.2149	2984.0385	3071.1281	3093.7244	3135.3251	3137.1355	3219.0276	3231.8511	3773.8003
OCC1C(=O)OC11CC1	OC[C@H]1C(=O)OC21CC2	
InChI=1S/C6H8O3/c7-3-4-5(8)9-6(4)1-2-6/h4,7H,1-3H2	InChI=1S/C6H8O3/c7-3-4-5(8)9-6(4)1-2-6/h4,7H,1-3H2/t4-/m0/s1
