23
gdb 83582	2.45923	1.60721	1.50856	1.5197	83.51	-0.2381	0.0783	0.3165	1060.9231	0.209645	-388.321989	-388.314103	-388.313159	-388.353763	32.486	
C	-0.0330618595	 1.5345360389	 0.0234710827	-0.432803
C	 0.0346329105	 0.0060687135	-0.0057471081	 0.035759
C	 0.9162044249	-0.5770870818	-1.1331698955	-0.022807
C	 2.3200809802	-0.3068481479	-0.5631701045	-0.087424
O	 2.1840438775	-0.3685456761	 0.8637041565	-0.284006
C	 0.8007538	-0.5904727134	 1.1866434094	 0.117055
C	 0.5126590494	-2.0948777681	 1.3128104227	-0.217264
C	 0.9826365154	-2.8401021243	 0.0481348948	-0.189755
C	 0.6354680039	-2.089696964	-1.2553555954	-0.223298
H	 0.9560782272	 1.9777003024	 0.1706382862	 0.13164
H	-0.4475876727	 1.9298264832	-0.9101110776	 0.109178
H	-0.6721778486	 1.8785017919	 0.8436497153	 0.112809
H	-0.9813830889	-0.3989713005	-0.0617023086	 0.064042
H	 0.7643237317	-0.0760105035	-2.0940850321	 0.060853
H	 3.058629641	-1.0482820321	-0.8929824077	 0.095205
H	 2.6926718377	 0.6861190661	-0.8473014156	 0.092761
H	 0.6038830618	-0.0709547279	 2.1304696405	 0.06562
H	 1.0223124723	-2.5012098112	 2.1928575128	 0.097457
H	-0.5642861928	-2.2320618291	 1.4758645431	 0.088909
H	 2.0700368094	-2.9567717101	 0.1095557866	 0.112753
H	 0.5676536111	-3.8530139277	 0.0230380814	 0.08996
H	-0.4244187623	-2.2296669447	-1.5037247435	 0.09207
H	 1.2085044807	-2.5170139435	-2.0867836635	 0.091286
179.403	192.1219	208.54	268.701	281.0615	345.8111	382.1665	428.0012	503.1845	613.2995	738.0752	746.654	790.285	817.0077	845.5752	871.6771	902.3233	933.7948	961.0773	969.7272	998.43	1017.2486	1044.1879	1063.1035	1091.4305	1098.6398	1110.4536	1144.9762	1160.3251	1190.224	1226.227	1255.8886	1269.5068	1305.3265	1311.3016	1335.0868	1339.5228	1358.7857	1369.5917	1381.289	1394.9927	1405.8648	1414.7044	1482.2286	1489.484	1496.3592	1500.417	1503.2607	1534.2219	3008.3369	3019.0944	3022.107	3033.0439	3040.5351	3040.6823	3045.9895	3053.8441	3058.3746	3064.3631	3070.8477	3085.4153	3095.3657	3113.7442
CC1C2COC1CCC2	C[C@H]1[C@H]2CO[C@@H]1CCC2	
InChI=1S/C8H14O/c1-6-7-3-2-4-8(6)9-5-7/h6-8H,2-5H2,1H3	InChI=1S/C8H14O/c1-6-7-3-2-4-8(6)9-5-7/h6-8H,2-5H2,1H3/t6-,7+,8+/m0/s1
