17
gdb 65445	3.81431	0.81984	0.76388	3.0894	75.23	-0.2628	-0.0393	0.2236	1477.7861	0.132983	-417.993044	-417.983514	-417.98257	-418.028313	33.344	
C	-0.0081951558	 1.5671449315	-0.2700556425	-0.46246
C	 0.0240086309	 0.061049513	-0.0677520862	 0.144984
C	 1.3190888657	-0.6939205346	-0.1750985221	-0.276033
N	 0.6480711009	-0.5665255909	 1.1061928307	-0.110203
C	 1.2428821485	 0.2601191606	 2.1441507133	-0.236632
C	 1.9525181279	-0.6297562356	 3.1588922174	 0.156705
O	 2.9011409694	-0.2746885484	 3.8052581323	-0.230648
C	-1.1944557281	-0.6079382074	-0.4921241767	 0.275546
N	-2.1692418907	-1.1145471951	-0.8513076862	-0.334065
H	 0.9507026839	 2.0230180485	-0.0177402472	 0.133509
H	-0.2281461233	 1.795719048	-1.3164192299	 0.151635
H	-0.7884509257	 2.0265077841	 0.3440866194	 0.146698
H	 1.3420462977	-1.6895922604	-0.6074108195	 0.144255
H	 2.204879869	-0.0860883373	-0.3576100214	 0.127799
H	 1.9537927574	 1.0221122448	 1.7957285206	 0.122278
H	 0.4369752874	 0.7754799744	 2.6854388915	 0.145585
H	 1.5009460948	-1.6398691853	 3.2627863166	 0.10105
51.8326	73.8647	125.3043	156.7829	181.9291	210.821	283.052	334.8571	401.5267	421.54	509.1145	569.5786	613.5326	682.7328	736.6806	822.6082	875.5762	936.5219	993.1068	1048.8507	1060.3623	1093.3791	1126.0318	1140.0953	1187.6487	1251.8618	1257.9193	1330.022	1367.6716	1402.081	1417.4226	1456.9273	1485.4127	1498.0625	1506.5947	1842.032	2358.554	2910.4051	3000.3785	3049.4501	3052.6926	3094.4275	3118.4249	3141.1368	3194.0637
CC1(CN1CC=O)C#N	C[C@]1(CN1CC=O)C#N	
InChI=1S/C6H8N2O/c1-6(4-7)5-8(6)2-3-9/h3H,2,5H2,1H3	InChI=1S/C6H8N2O/c1-6(4-7)5-8(6)2-3-9/h3H,2,5H2,1H3/t6-,8?/m1/s1
