18
gdb 29710	2.4717	1.53367	0.96044	1.4428	76.41	-0.1687	0.0605	0.2292	1206.6121	0.145628	-439.116222	-439.106086	-439.105142	-439.151191	35.959	
C	-0.0367325631	 1.4511212253	 0.0095500805	-0.341516
N	 0.0361095947	 0.0065430631	-0.0027462502	-0.088235
C	 0.1271778665	-0.7857452483	-1.1143501755	 0.367047
O	 0.1702842407	-0.1541163012	-2.3197001099	-0.444381
C	 0.152920007	-2.1047315287	-0.7421737179	-0.418692
C	 0.0639231542	-2.137712404	 0.6936493274	 0.207849
C	 0.0400436716	-3.3464681966	 1.5764809049	-0.506074
C	 0.0020141911	-0.8346306176	 1.1074072093	 0.195118
O	-0.1504541492	-0.2935141468	 2.3549688869	-0.437042
H	 0.8980422237	 1.9024605263	-0.3404642376	 0.132627
H	-0.8493540697	 1.8037159021	-0.63200937	 0.14175
H	-0.2268368996	 1.7673435589	 1.035461795	 0.147298
H	 0.1798922819	-0.8268117043	-3.0069083937	 0.304892
H	 0.2198412146	-2.9552876183	-1.4038781471	 0.082315
H	 0.9781068106	-3.9141472579	 1.5295586159	 0.115921
H	-0.1229932605	-3.055970606	 2.6184029975	 0.118316
H	-0.7640983906	-4.0373144648	 1.2965314962	 0.12156
H	 0.7035882862	-0.2708885811	 2.8010477083	 0.301247
63.74	113.6159	131.7011	187.2682	216.2104	229.8681	244.9903	257.1675	277.3393	325.3788	334.1942	563.5118	594.4099	613.2032	629.0005	657.2061	692.6968	751.3385	886.1965	990.6613	1061.9067	1077.7085	1141.2046	1155.6502	1192.7642	1194.7858	1263.1024	1277.2733	1368.9216	1413.4508	1437.2196	1446.0839	1487.3953	1491.272	1497.9963	1517.2856	1554.346	1603.3168	1657.4814	3016.1596	3036.8287	3061.3627	3094.5969	3104.7045	3153.592	3236.27	3771.824	3849.0521
CN1C(O)=CC(C)=C1O	Cn1c(O)cc(C)c1O	
InChI=1S/C6H9NO2/c1-4-3-5(8)7(2)6(4)9/h3,8-9H,1-2H3	InChI=1S/C6H9NO2/c1-4-3-5(8)7(2)6(4)9/h3,8-9H,1-2H3
