18
gdb 14337	4.44644	1.66448	1.43338	1.6529	73.78	-0.2335	0.0242	0.2577	927.4177	0.155089	-347.806023	-347.798931	-347.797987	-347.837224	27.4	
C	-0.0979028665	 1.5186977025	 0.0183587367	-0.489575
C	-0.0070877884	 0.0263862183	-0.0298233641	 0.333231
C	-0.131034802	-0.7544677111	-1.1085139072	-0.184074
C	 0.042332208	-2.2145806766	-0.8048801233	-0.112472
C	 1.4741935155	-2.7748747093	-0.9901254606	-0.074341
O	 1.7780534666	-2.5575910472	 0.4032996291	-0.293737
C	 0.4033846205	-2.2204053771	 0.7062153435	 0.124555
C	 0.2389541631	-0.7881353685	 1.227336197	-0.317449
H	 0.8360093836	 1.9583936956	 0.3910058441	 0.128993
H	-0.3054032574	 1.9453846179	-0.9667170117	 0.122811
H	-0.8889193901	 1.8449183723	 0.7060205646	 0.12435
H	-0.3152079413	-0.3857542877	-2.112738797	 0.084662
H	-0.7693828394	-2.8527718828	-1.1629770342	 0.07671
H	 1.5148995426	-3.8409052701	-1.2529584953	 0.092207
H	 2.1426737895	-2.212304912	-1.652141665	 0.099881
H	-0.058215391	-2.9827084403	 1.3435111608	 0.068454
H	 1.1459076569	-0.4770267584	 1.7609077808	 0.117615
H	-0.5952048301	-0.6928490456	 1.9367097719	 0.098179
120.9141	158.3254	196.9955	300.7089	375.1746	388.0307	469.7422	600.5341	672.348	811.9084	837.3385	862.1213	868.6089	890.6908	905.6327	991.5584	996.5906	1021.6282	1026.4154	1064.2223	1077.8235	1082.7024	1154.8168	1170.7026	1189.8516	1237.634	1259.7891	1286.6401	1315.5306	1329.0094	1359.0748	1368.1254	1413.0859	1464.0929	1479.2158	1488.3772	1520.8994	1711.7864	3001.6139	3007.0781	3017.1558	3042.2791	3053.081	3057.1085	3062.5549	3076.7026	3110.1557	3179.6496
CC1=CC2COC2C1	CC1=C[C@H]2CO[C@H]2C1	
InChI=1S/C7H10O/c1-5-2-6-4-8-7(6)3-5/h2,6-7H,3-4H2,1H3	InChI=1S/C7H10O/c1-5-2-6-4-8-7(6)3-5/h2,6-7H,3-4H2,1H3/t6-,7-/m0/s1
