17
gdb 8231	5.40909	1.17695	1.065	2.3144	65.18	-0.2646	0.058	0.3226	1124.2034	0.142592	-401.037684	-401.029533	-401.028588	-401.071399	29.578	
N	 0.1935818346	 1.2579376932	-0.0986492851	-0.5642
C	 0.153572279	-0.0958599873	 0.0911192783	 0.485085
O	 1.0628642911	-0.7674807733	 0.5194917126	-0.400867
O	-1.0739993946	-0.5699821303	-0.2422501481	-0.270991
C	-1.2684669757	-1.9692863685	-0.0351662431	 0.187002
C	-1.7048842081	-2.4481592722	 1.3673766068	-0.238853
C	-2.714813344	-3.3949231876	 0.6579872922	-0.220584
C	-2.5872056562	-2.5088752913	-0.6149271019	-0.256599
H	 1.1065347275	 1.6788376297	-0.0872960894	 0.267393
H	-0.5174881923	 1.6873467829	-0.6658118446	 0.263031
H	-0.3876471823	-2.5082928086	-0.3894848987	 0.103844
H	-0.9395930275	-2.8794548995	 2.0139453486	 0.11329
H	-2.2181576218	-1.642731409	 1.9006110027	 0.108124
H	-2.3001892392	-4.3944436497	 0.5036670435	 0.108731
H	-3.7073841591	-3.4947170124	 1.1001697145	 0.103835
H	-3.344074559	-1.7197064294	-0.628981153	 0.111033
H	-2.5568544526	-2.9935270067	-1.5930785152	 0.100727
29.8304	88.6834	129.5314	213.5609	345.5174	358.1741	381.1944	476.9756	515.8357	608.5279	690.5888	771.7717	785.8512	793.2575	909.4814	920.5492	934.4471	952.0557	1003.5122	1066.1033	1111.3403	1128.1066	1163.388	1193.9424	1244.2933	1247.4468	1254.7256	1274.5103	1297.0951	1347.5896	1412.1686	1475.0088	1488.2152	1511.0275	1610.7461	1831.2231	3063.126	3066.748	3069.9502	3092.1185	3114.7047	3124.3411	3136.626	3613.5602	3743.3756
NC(=O)OC1CCC1	NC(=O)OC1CCC1	
InChI=1S/C5H9NO2/c6-5(7)8-4-2-1-3-4/h4H,1-3H2,(H2,6,7)	InChI=1S/C5H9NO2/c6-5(7)8-4-2-1-3-4/h4H,1-3H2,(H2,6,7)
