14
gdb 133719	2.53874	1.51028	1.20418	2.7029	50.21	-0.2716	0.0453	0.3168	997.7578	0.096446	-605.300678	-605.292387	-605.291443	-605.334252	29.502	
O	 0.3142702644	 1.3485254572	-0.0745518048	-0.417442
C	 0.1398239396	-0.0245616104	 0.1285334855	 0.068127
C	-0.0930820613	-0.3992130412	 1.6011635733	-0.085385
O	-1.3040693888	-1.124380248	 1.2620495115	-0.281775
C	-1.2649304363	-0.6592281772	-0.0897942073	-0.081584
C	-2.3894114307	 0.3216832589	-0.3979295992	 0.29541
F	-2.5203904032	 1.26370629	 0.5335701909	-0.064476
F	-2.1339149097	 0.927874859	-1.5792513472	-0.099503
F	-3.5650695184	-0.306475109	-0.5148400312	-0.073427
H	 0.2351404348	 1.5358951173	-1.0160883496	 0.294295
H	 0.9268667567	-0.6164336374	-0.3550091088	 0.09271
H	 0.6476446909	-1.0466116482	 2.0785039653	 0.116221
H	-0.2995884101	 0.4736352793	 2.2289545795	 0.130337
H	-1.3312008276	-1.4756034302	-0.8182396279	 0.106492
79.1391	85.517	151.7888	232.4829	243.9559	296.317	375.5767	415.2398	484.0904	526.2925	602.0432	676.2117	770.739	832.1025	912.9578	971.8612	1001.3941	1039.04	1065.8749	1153.6987	1157.8275	1172.2141	1208.7281	1239.0155	1267.2916	1295.8707	1335.1497	1346.6973	1397.7585	1438.9593	1512.3784	3022.7275	3046.0592	3054.0426	3106.3723	3817.287
OC1COC1C(F)(F)F	O[C@H]1CO[C@H]1C(F)(F)F	
InChI=1S/C4H5F3O2/c5-4(6,7)3-2(8)1-9-3/h2-3,8H,1H2	InChI=1S/C4H5F3O2/c5-4(6,7)3-2(8)1-9-3/h2-3,8H,1H2/t2-,3+/m0/s1
