17
gdb 49290	3.1622	1.41712	1.08294	4.2521	75.39	-0.2435	-0.0643	0.1793	1104.0857	0.137172	-417.995636	-417.987947	-417.987003	-418.028139	28.899	
O	-0.970277817	 1.5100956772	-0.1047369495	-0.245351
C	 0.1174041468	 1.0750921228	 0.1678266764	 0.142777
C	 1.3749316224	 1.8981709136	 0.2410508972	 0.204729
N	 2.4512423769	 1.2397579903	 0.4274895255	-0.233101
C	 3.7246131768	 1.9469097057	 0.3870452308	-0.180603
C	 3.6602181459	 3.4288906883	 0.7910767831	-0.243837
C	 2.4109265543	 4.1088032151	 0.2776019392	 0.003365
C	 1.8551560524	 3.9036066903	-1.0819811341	-0.25693
N	 1.1951211606	 3.2965910073	 0.1010183233	-0.14193
H	 0.3122167279	 0.002396201	 0.3719391363	 0.09389
H	 4.4320715271	 1.4100946647	 1.0268508225	 0.122164
H	 4.1139165542	 1.8428462063	-0.6349899567	 0.127791
H	 3.6503284154	 3.4980291812	 1.8851739811	 0.12204
H	 4.5587934082	 3.9557473746	 0.4519091899	 0.114847
H	 2.1898463617	 5.0635432877	 0.7508115111	 0.106808
H	 1.2843990771	 4.6897359672	-1.566274726	 0.134908
H	 2.3714652396	 3.2292875069	-1.7600194802	 0.128433
74.626	146.5492	196.4043	242.812	298.8362	333.6574	446.3956	512.4088	597.056	657.074	713.3696	737.6079	779.5702	861.7117	884.7311	945.7093	979.6255	1009.0219	1036.3325	1063.2074	1098.0846	1113.0676	1130.4053	1173.4197	1221.942	1242.7699	1275.411	1327.4111	1339.489	1382.3593	1387.7732	1426.0649	1481.8996	1488.3435	1510.9118	1689.1597	1826.1139	2933.7299	3018.3732	3036.0047	3067.2239	3077.4141	3116.3444	3125.4308	3205.6342
O=CC1=NCCC2CN12	O=CC1=NCC[C@H]2CN12	
InChI=1S/C6H8N2O/c9-4-6-7-2-1-5-3-8(5)6/h4-5H,1-3H2	InChI=1S/C6H8N2O/c9-4-6-7-2-1-5-3-8(5)6/h4-5H,1-3H2/t5-,8?/m0/s1
