21
gdb 83285	3.05274	1.25078	1.1261	2.3338	77.79	-0.2321	0.0736	0.3057	1188.9557	0.18374	-424.210958	-424.202466	-424.201522	-424.243995	33.39	
C	-0.1287571388	 1.5826252685	 0.0468082272	-0.41022
C	 0.0113305569	 0.0582355089	 0.0258354686	 0.016776
C	 0.5244608486	-0.4210973302	-1.3519437368	-0.068561
O	 1.3915201433	-1.5639902101	-1.3032690767	-0.274582
C	 1.0824409902	-2.5324508812	-0.3427960152	 0.01753
C	 2.206910539	-2.7322239904	 0.6391825511	 0.095308
O	 3.3927644206	-2.0393779137	 0.4231305855	-0.427114
C	 0.9502689382	-1.9984883811	 1.0720451557	-0.11681
C	 0.9208398091	-0.4821634327	 1.1452849916	-0.233127
H	 0.8492735221	 2.0673495476	-0.0538220842	 0.118306
H	-0.7634600143	 1.9393535747	-0.7721402056	 0.113993
H	-0.5763922493	 1.9229448086	 0.9861722764	 0.115967
H	-0.9832719205	-0.3768765246	 0.1898240608	 0.076358
H	-0.3192445626	-0.6337744181	-2.023545098	 0.0983
H	 1.1315964567	 0.3603455529	-1.821908094	 0.105749
H	 0.4814598645	-3.3653149406	-0.7036439666	 0.086026
H	 2.3699096341	-3.7272118908	 1.0428885357	 0.097673
H	 3.2834616016	-1.6000003024	-0.4326715125	 0.293549
H	 0.2792337762	-2.5343146929	 1.73671545	 0.085664
H	 1.9361181243	-0.0815022495	 1.0426794559	 0.11013
H	 0.5468072603	-0.1517299832	 2.118913681	 0.099087
75.8723	117.1002	220.3353	246.8514	291.5022	303.7281	402.666	423.6699	454.7546	483.7682	589.2212	631.6681	691.3416	776.2869	788.9549	849.1936	896.9067	931.0994	934.0967	951.6212	1007.0607	1027.8448	1060.7884	1089.3626	1103.7278	1116.0944	1151.2264	1163.3169	1180.1464	1220.3775	1235.3166	1290.0054	1303.2729	1332.4662	1347.0136	1369.3726	1375.7103	1380.8668	1409.4606	1421.0711	1446.6063	1493.05	1498.3927	1499.9913	1510.2403	2997.8374	3013.9969	3024.7873	3041.5052	3064.1612	3084.4015	3091.2464	3100.189	3110.996	3145.6373	3157.007	3727.4195
CC1COC2C(O)C2C1	C[C@H]1CO[C@H]2[C@@H](O)[C@H]2C1	
InChI=1S/C7H12O2/c1-4-2-5-6(8)7(5)9-3-4/h4-8H,2-3H2,1H3	InChI=1S/C7H12O2/c1-4-2-5-6(8)7(5)9-3-4/h4-8H,2-3H2,1H3/t4-,5-,6+,7-/m1/s1
