19
gdb 79639	2.21937	1.91473	1.56754	3.0116	73.96	-0.2075	0.0595	0.267	960.9913	0.160889	-419.134664	-419.126755	-419.125811	-419.166781	31.308	
C	-0.4430498891	 1.4826294872	 0.2401588973	-0.324663
N	 0.026885748	 0.1340244252	-0.0393722635	-0.07992
C	 0.5239342639	-0.4340974919	-1.2682469371	-0.047214
C	 1.2583505104	 0.366494449	-2.3385809934	-0.048435
N	 1.4863249834	 1.8068987472	-2.0592179888	-0.34843
C	 2.55718534	 0.8293990193	-1.7953372477	-0.090503
C	 2.6299227032	 0.4662077708	-0.3043372834	 0.121137
O	 2.7982567989	 1.5974183993	 0.5291490758	-0.43775
C	 1.3699537046	-0.3889969307	-0.0171782894	-0.079436
H	 0.070924616	 2.2832103549	-0.295454469	 0.127187
H	-1.5060592727	 1.5282853706	-0.0211763038	 0.115525
H	-0.3610911644	 1.6470739734	 1.3190997776	 0.124005
H	 0.0178823958	-1.3327777089	-1.6173590194	 0.0857
H	 1.1471929805	 0.0566085731	-3.3724469581	 0.087734
H	 1.6732645871	 2.2957416823	-2.9309300989	 0.23735
H	 3.4680658668	 0.883421278	-2.3826784702	 0.093353
H	 3.5049565917	-0.1705050288	-0.1313751277	 0.085394
H	 2.2205851493	 2.2797432421	 0.1656304632	 0.292966
H	 1.5186385966	-1.2492247723	 0.6343176366	 0.086001
108.189	171.5058	176.5031	268.8914	310.0257	319.944	429.6596	519.0826	547.185	565.5461	695.0114	716.3356	752.2914	807.5601	827.422	871.4267	891.9377	917.7699	940.7248	1013.9966	1039.6211	1066.1199	1085.2819	1085.9131	1117.0887	1139.0057	1149.7866	1165.4415	1191.8783	1235.2516	1287.3042	1306.0415	1325.4554	1342.7402	1364.5748	1412.8175	1418.3637	1436.1716	1463.9134	1478.3018	1531.9405	3032.2526	3048.3544	3093.2441	3104.8859	3115.4433	3118.6174	3157.9695	3170.1531	3502.6541	3784.6509
CN1C2C3NC3C(O)C12	CN1[C@H]2[C@H]3N[C@H]3[C@@H](O)[C@@H]12	
InChI=1S/C6H10N2O/c1-8-4-2-3(7-2)6(9)5(4)8/h2-7,9H,1H3	InChI=1S/C6H10N2O/c1-8-4-2-3(7-2)6(9)5(4)8/h2-7,9H,1H3/t2-,3+,4-,5-,6+,8?/m0/s1
