21
gdb 113192	2.11656	1.37214	1.07723	3.9449	74.72	-0.2486	0.0552	0.3038	1231.3295	0.180961	-461.344672	-461.334797	-461.333853	-461.378786	37.99	
C	-0.119627024	 1.3289264518	 0.1816208633	-0.417044
C	-0.1177706385	-0.1837037626	-0.0436200905	 0.078143
O	-1.4542274541	-0.6716221776	-0.2321491811	-0.433139
C	 0.7338546167	-0.6126185694	-1.2250175791	 0.376919
O	 0.2882644593	-0.0430234674	-2.437933063	-0.480409
C	 2.1976439197	-0.9359827213	-1.0800619189	-0.381828
C	 1.1895665972	-2.0375669617	-1.3627903981	-0.069163
C	 0.8310249841	-3.085098183	-0.3278269887	-0.082798
O	-0.5245337049	-3.4747633697	-0.3974568855	-0.432003
H	 0.8900688633	 1.6934485928	 0.3983390962	 0.119141
H	-0.4974082112	 1.8554646714	-0.7014355967	 0.10985
H	-0.7694522953	 1.5807143017	 1.0229710793	 0.132365
H	 0.2440642412	-0.6763531991	 0.8635291669	 0.09502
H	-1.6927250784	-0.4400889099	-1.1400039461	 0.29199
H	 0.6276181302	 0.857361435	-2.4917311341	 0.287555
H	 2.8588717508	-0.6364057315	-1.8858470666	 0.115943
H	 2.6394322633	-0.8889465721	-0.0888789669	 0.11395
H	 1.1661265351	-2.3904948937	-2.3894967361	 0.105997
H	 1.4249271154	-3.9893514684	-0.5022389138	 0.105193
H	 1.1024281651	-2.7256209751	 0.6795121087	 0.075157
H	-1.0545539851	-2.6671495402	-0.308132839	 0.289159
93.2855	132.8856	171.9789	200.8461	231.0509	248.407	284.8434	316.4612	364.7348	414.7152	431.3815	475.3663	489.7044	551.9938	572.5011	651.1535	730.383	812.9918	882.6963	914.8904	926.6529	970.6526	1006.4089	1026.7206	1046.4976	1079.6565	1089.5896	1105.5806	1108.9696	1161.7667	1215.7198	1245.4498	1284.2126	1308.5812	1320.2362	1364.6729	1388.3905	1398.7423	1412.0629	1436.2914	1471.4867	1484.0949	1493.3426	1502.1791	1513.622	2953.2435	3035.8241	3058.8143	3074.0338	3105.9046	3123.7345	3125.5734	3160.258	3213.7228	3684.337	3766.8221	3796.3753
CC(O)C1(O)CC1CO	C[C@@H](O)[C@@]1(O)C[C@H]1CO	
InChI=1S/C6H12O3/c1-4(8)6(9)2-5(6)3-7/h4-5,7-9H,2-3H2,1H3	InChI=1S/C6H12O3/c1-4(8)6(9)2-5(6)3-7/h4-5,7-9H,2-3H2,1H3/t4-,5+,6+/m1/s1
