18
gdb 78940	3.52419	1.54798	1.35825	0.9573	74.1	-0.216	0.0694	0.2854	991.2123	0.148353	-401.851429	-401.844278	-401.843334	-401.882526	29.406	
C	-0.1506788957	 1.5089633428	-0.0322917156	-0.415558
C	-0.0401259902	-0.0116450027	 0.0073921022	-0.004699
C	 1.1373835889	-0.5863963808	-0.8136176085	-0.006862
C	 1.2459663434	-2.0884341663	-0.5399477615	-0.146419
C	 2.3766363405	-1.8686840033	 0.4357089932	-0.126695
N	 2.0977599715	-0.3738980602	 0.3833858455	-0.182119
C	 0.7893057159	-0.5667471901	 1.185715689	-0.089646
C	 0.9898196554	-2.0763163497	 0.9761236905	 0.366078
O	 0.3915915885	-3.1522558012	 1.5891795306	-0.461052
H	 0.8256108078	 1.9761087713	 0.1279892093	 0.138727
H	-0.5353325318	 1.8489552731	-0.9998572349	 0.113364
H	-0.8329226349	 1.873726272	 0.7429679655	 0.113054
H	-1.0124216109	-0.4891519604	-0.1532523901	 0.074709
H	 1.4251500432	-0.1806184889	-1.7850950476	 0.073109
H	 1.0075286424	-2.952967415	-1.1458107106	 0.096284
H	 3.3422600541	-2.3351695159	 0.5838526201	 0.099268
H	 0.7373918576	-0.1545396502	 2.1957751003	 0.067963
H	 0.7451340845	-3.2278321647	 2.4824537526	 0.290495
175.2718	230.1902	241.5141	283.4479	361.1615	363.3105	497.8062	562.6617	626.2111	717.1835	782.5749	806.2704	815.6685	870.5372	886.7046	905.8391	911.8932	935.9097	942.3064	974.9618	1015.5667	1051.3212	1056.372	1069.5869	1114.4919	1126.0989	1150.6574	1179.773	1209.2918	1236.0693	1248.7263	1270.4	1288.5235	1310.0681	1372.9791	1408.4318	1453.1243	1497.162	1502.8278	3031.8366	3051.6409	3091.5072	3093.9741	3097.7818	3113.6165	3188.8075	3204.063	3793.5222
CC1C2C3C4N2C1C34O	C[C@H]1[C@@H]2[C@H]3[C@H]4N2[C@@H]1[C@@]34O	
InChI=1S/C7H9NO/c1-2-4-3-6-7(3,9)5(2)8(4)6/h2-6,9H,1H3	InChI=1S/C7H9NO/c1-2-4-3-6-7(3,9)5(2)8(4)6/h2-6,9H,1H3/t2-,3-,4+,5-,6+,7-/m0/s1
