19
gdb 85289	2.44321	1.66644	1.21302	4.3832	77.06	-0.252	0.0316	0.2836	1088.7065	0.159307	-419.21276	-419.204222	-419.203278	-419.245649	32.666	
C	 0.170250215	 1.5626779904	-0.1129978834	-0.406504
C	-0.0047973914	 0.0669934756	 0.0955992721	 0.060018
O	 0.4926982832	-0.6505062211	-1.0465052046	-0.260012
C	 1.1829566935	-1.7711998486	-0.6487744673	 0.425733
N	 1.5875564791	-2.6832904046	-1.4161134832	-0.541191
N	 1.3944567662	-1.7778110316	 0.7594016137	-0.170385
C	 2.2131714892	-0.6022937006	 1.1708749981	-0.296486
C	 0.7364228533	-0.559435633	 1.2757279982	 0.30807
C	 0.0276715512	-0.6409757927	 2.6028540803	-0.483951
H	 1.2260813621	 1.8258628327	-0.2168797995	 0.127497
H	-0.3581390811	 1.8859575819	-1.0137318495	 0.135823
H	-0.2432319467	 2.1109111619	 0.7393898851	 0.125442
H	-1.0747063316	-0.1647025021	 0.1976818886	 0.090809
H	 1.3110614052	-2.4779441187	-2.3761183675	 0.22605
H	 2.8099649599	-0.7732914124	 2.0610005825	 0.129744
H	 2.7097548133	-0.0423117786	 0.3835788689	 0.134168
H	-0.1326412285	 0.3595067131	 3.0196461462	 0.125397
H	-0.9481327889	-1.1261435715	 2.4954896475	 0.130639
H	 0.617284627	-1.2182971201	 3.3186377038	 0.139139
104.9807	144.6066	181.2424	214.5871	238.2528	291.3645	326.271	394.1732	504.6302	510.474	601.5261	682.9715	697.4975	764.0606	807.5212	828.4149	874.3268	923.8514	931.4049	961.108	1015.0476	1038.3146	1065.2707	1101.9221	1120.1438	1131.4512	1135.6355	1150.6516	1252.678	1314.7749	1355.9752	1382.7605	1404.8024	1412.0038	1424.858	1485.9461	1486.8246	1491.8057	1495.0436	1510.9888	1783.6964	3002.8699	3036.1574	3046.0553	3099.4186	3117.5077	3118.7851	3126.6076	3128.7734	3209.5514	3498.2186
CC1OC(=N)N2CC12C	C[C@H]1O[C]([NH])N2C[C@@]12C	
InChI=1S/C6H10N2O/c1-4-6(2)3-8(6)5(7)9-4/h4,7H,3H2,1-2H3	InChI=1S/C6H10N2O/c1-4-6(2)3-8(6)5(7)9-4/h4,7H,3H2,1-2H3/t4-,6+,8?/m1/s1
