18
gdb 119677	3.93189	1.02438	0.9361	1.7543	71.88	-0.2372	0.0589	0.2961	1274.9046	0.146755	-438.959365	-438.951172	-438.950228	-438.9928	30.82	
O	-0.0794861846	 1.3960809207	 0.0944399836	-0.419439
C	 0.0357609716	-0.0171376424	 0.0441217414	-0.076765
C	-1.3799165487	-0.5878199042	 0.0247933703	-0.342983
C	-1.3982470121	-2.0798532313	-0.0087351861	 0.509152
O	-0.7836981447	-2.8444784385	 1.0816351897	-0.362501
C	-1.2896309852	-3.8762190071	 0.1902833172	 0.070513
C	-2.5779834574	-3.0854050117	-0.2064106264	-0.135433
N	-2.3454001765	-3.1497751608	-1.6864410857	-0.348205
C	-0.9584646856	-3.0951203366	-1.1202570595	-0.123543
H	 0.8046551703	 1.7668507096	 0.166849428	 0.28677
H	 0.5783541879	-0.3433302928	-0.8577463253	 0.08793
H	 0.5773559688	-0.4123969898	 0.9155644233	 0.10923
H	-1.9183085434	-0.2353987461	 0.9118492813	 0.122118
H	-1.9166269551	-0.2161817616	-0.8551919321	 0.134276
H	-1.1429600669	-4.923120791	 0.4594109624	 0.094667
H	-3.5650385518	-3.0831996021	 0.2573256459	 0.091358
H	-2.5476033188	-4.0902608272	-2.0343168607	 0.213124
H	-0.0518683276	-3.106851657	-1.7263807773	 0.089733
76.6145	83.9233	129.1299	253.9571	259.6755	342.0594	353.4163	521.6947	544.3139	706.2992	742.5882	772.2269	778.216	818.9637	853.9498	868.4838	908.1879	940.0463	970.031	1008.3011	1045.1517	1076.9372	1091.4034	1098.2889	1131.109	1149.6197	1151.3445	1207.3344	1215.5486	1248.2634	1258.133	1279.5378	1292.0382	1312.293	1332.6292	1419.0336	1462.1483	1473.1224	1529.2304	2972.1782	3015.8568	3044.7284	3092.1398	3105.8147	3113.654	3125.5819	3410.2974	3832.2835
OCCC12OC3C1NC23	OCC[C@@]12O[C@H]3[C@@H]1N[C@@H]23	
InChI=1S/C6H9NO2/c8-2-1-6-4-3(9-6)5(6)7-4/h3-5,7-8H,1-2H2	InChI=1S/C6H9NO2/c8-2-1-6-4-3(9-6)5(6)7-4/h3-5,7-8H,1-2H2/t3-,4-,5+,6+
