19
gdb 90966	2.68498	1.74284	1.44999	2.8723	74.37	-0.2478	0.0664	0.3142	970.7184	0.160982	-422.991737	-422.984336	-422.983392	-423.023141	30.69	
O	 0.0520056095	 1.4229404782	-0.0038923253	-0.450534
C	 0.0342272933	 0.0046398801	-0.0001417117	 0.119429
C	 0.5813334138	-0.642406306	 1.3103934297	-0.280206
C	-0.6878933179	-1.3170074759	 1.8217124975	-0.07738
C	-1.4243342099	-1.9923716235	 0.6207739918	-0.082513
C	-2.796286328	-1.6763468577	 1.2753196869	-0.302823
C	-1.9208769521	-0.416126006	 1.464199661	 0.377914
O	-2.244281991	 0.828735178	 1.9969035381	-0.485344
C	-1.3892967387	-0.554087103	 0.0116723353	-0.06327
H	-0.5600392042	 1.7150883976	 0.683856704	 0.287676
H	 0.6061739037	-0.2963347045	-0.8824353514	 0.078062
H	 1.388047882	-1.3592644443	 1.1261669875	 0.097389
H	 0.9661088991	 0.129549067	 1.9835887466	 0.100628
H	-0.6753392443	-1.8359419731	 2.7830304493	 0.058069
H	-1.1307618311	-2.9143813242	 0.1236647772	 0.081991
H	-3.6536341001	-1.5846567239	 0.603470076	 0.09729
H	-3.0507800074	-2.2481121627	 2.1733675993	 0.08609
H	-2.3882042951	 0.7370962331	 2.9452479849	 0.286437
H	-2.0514482018	-0.3038616491	-0.818538417	 0.071095
124.5827	202.0089	288.4072	319.7621	395.8585	412.2206	469.0356	473.3233	481.179	651.2861	687.1907	740.9414	784.8156	832.1977	856.7099	894.99	921.8779	966.9529	972.3617	986.9241	1025.0472	1040.2739	1043.5568	1062.5168	1088.3755	1110.2396	1132.4258	1164.9407	1192.7056	1206.2824	1227.9328	1244.1036	1272.4454	1285.4213	1301.7936	1323.0787	1338.7406	1393.2294	1454.3261	1488.6255	1519.8227	3045.3139	3046.8413	3069.6509	3089.9717	3094.6617	3109.974	3112.7649	3141.0309	3769.3571	3804.7627
OC1CC2C3CC2(O)C13	O[C@H]1C[C@@H]2[C@H]3C[C@]2(O)[C@@H]13	
InChI=1S/C7H10O2/c8-5-1-4-3-2-7(4,9)6(3)5/h3-6,8-9H,1-2H2	InChI=1S/C7H10O2/c8-5-1-4-3-2-7(4,9)6(3)5/h3-6,8-9H,1-2H2/t3-,4-,5+,6-,7-/m1/s1
