16
gdb 95115	2.5449	1.58602	1.169	4.7929	69.02	-0.2772	-0.0027	0.2745	1050.9339	0.124856	-437.887632	-437.879752	-437.878808	-437.920092	29.837	
O	 0.0943292841	 1.3775726608	-0.1455261461	-0.426754
C	 0.052652086	-0.0263506223	-0.0785006019	 0.074534
C	 0.7510228174	-0.6368326508	 1.1662400035	-0.261881
C	 0.0194209781	-1.9609125377	 1.472659898	-0.254615
C	-1.3836668609	-1.7302568056	 0.9470586016	-0.003405
O	-1.940255056	-0.4594186678	 1.3079553763	-0.290822
C	-1.3639557653	-0.6036719113	-0.0042514168	 0.252071
C	-2.2652520435	-0.4801359024	-1.1217163566	 0.223287
N	-2.9588688438	-0.3780647797	-2.0404307437	-0.328436
H	-0.3637684061	 1.721285163	 0.6310032368	 0.292597
H	 0.5201150979	-0.37837519	-1.004760996	 0.113544
H	 1.8215060718	-0.7685227709	 1.0010999947	 0.119509
H	 0.6297675111	 0.0603588042	 1.9995517821	 0.1191
H	 0.460427116	-2.8041082286	 0.9287875295	 0.122082
H	 0.027004933	-2.2167503524	 2.5361743573	 0.125884
H	-2.1040486299	-2.5387187286	 0.8593180814	 0.123305
99.4779	141.2395	171.1433	241.5918	343.6154	384.5886	398.625	484.3627	511.4961	569.9376	605.5458	658.9994	698.675	825.7359	870.8774	929.7787	934.0396	960.1925	1013.7415	1031.0404	1100.059	1114.3708	1161.0249	1199.0337	1229.7933	1271.2929	1301.692	1313.233	1334.4601	1349.1299	1423.8881	1440.1201	1479.857	1491.8905	2361.7008	3048.867	3060.0243	3073.6834	3095.0893	3128.1119	3164.0912	3789.2206
OC1CCC2OC12C#N	O[C@H]1CC[C@H]2O[C@@]12C#N	
InChI=1S/C6H7NO2/c7-3-6-4(8)1-2-5(6)9-6/h4-5,8H,1-2H2	InChI=1S/C6H7NO2/c7-3-6-4(8)1-2-5(6)9-6/h4-5,8H,1-2H2/t4-,5+,6-/m0/s1
