16
gdb 8531	3.51764	2.26073	1.67761	2.3526	64.16	-0.2267	0.0713	0.298	790.553	0.129314	-383.647227	-383.640249	-383.639305	-383.677929	27.486	
C	 0.0429480499	 1.4650841169	-0.1306250868	-0.528272
C	 0.006609208	-0.0236469668	-0.0286355691	 0.483022
O	 0.5723746619	-0.8316754054	-1.1142036437	-0.359325
C	 0.088892394	-1.8058711481	-0.1475374686	 0.071373
C	 0.5238765924	-0.9862577362	 1.1024330016	-0.154029
C	-0.869407368	-1.100004885	 1.7289996981	 0.093554
O	-1.2090771963	-0.005779342	 2.553620359	-0.436106
C	-1.1948769541	-1.0075954232	 0.2222799632	-0.187415
H	 1.0758351528	 1.8175631783	-0.2130854254	 0.131731
H	-0.5078872092	 1.8029085859	-1.0141355556	 0.129067
H	-0.4110197826	 1.899469376	 0.7631361826	 0.14609
H	 0.2140800694	-2.86567242	-0.3624742597	 0.093995
H	 1.504503221	-0.9750597501	 1.5770339559	 0.083695
H	-1.1024654856	-2.0581346076	 2.2128487835	 0.069037
H	-2.1381698038	-0.0832021774	 2.7918931954	 0.285443
H	-2.1510839298	-1.0223128952	-0.3018581105	 0.078141
173.9669	203.4092	254.7575	279.6167	330.2658	369.5773	540.704	554.0683	650.241	739.4666	775.4205	788.6158	838.1156	871.1004	911.628	922.0319	954.0981	1006.7	1077.6751	1095.2227	1099.275	1117.8028	1126.0784	1172.3125	1174.1284	1209.2518	1254.8725	1279.8982	1307.9379	1369.7591	1413.3991	1436.0648	1481.2817	1488.1297	3010.3982	3041.4605	3108.8102	3113.4691	3125.3033	3136.003	3139.5259	3820.4397
CC12OC3C1C(O)C23	C[C@@]12O[C@H]3[C@@H]1[C@@H](O)[C@@H]23	
InChI=1S/C6H8O2/c1-6-2-4(7)3(6)5(2)8-6/h2-5,7H,1H3	InChI=1S/C6H8O2/c1-6-2-4(7)3(6)5(2)8-6/h2-5,7H,1H3/t2-,3+,4+,5-,6+
