19
gdb 32439	3.1566	1.19385	0.88108	2.477	80.63	-0.184	0.0386	0.2227	1330.9582	0.159235	-419.224543	-419.214822	-419.213878	-419.258953	35.472	
C	 0.0482567331	 1.3962244703	 0.0590416419	-0.324487
N	-0.1430613977	-0.037150157	-0.0731490466	-0.3903
C	 0.5679351203	-0.6835905856	-1.0821101963	 0.236276
C	 1.2552874794	-0.1626382504	-2.1364266282	-0.133119
O	 1.74507684	-1.1785357251	-2.9237861504	-0.201478
C	 1.3647756978	-2.3544234305	-2.3632459259	 0.383962
C	 1.7717344573	-3.614248701	-3.0337203726	-0.494034
C	 0.6443010501	-2.1206241017	-1.2296525026	-0.037827
N	 0.0732152256	-3.1137458469	-0.3872002101	-0.621678
H	 1.1033774825	 1.6888073206	 0.18808535	 0.109541
H	-0.3290598701	 1.8969168987	-0.8394715128	 0.133854
H	-0.5258184976	 1.7632109885	 0.9132280273	 0.120674
H	-0.072589768	-0.5275013413	 0.8090849988	 0.220777
H	 1.4693060988	 0.8364134579	-2.4724465616	 0.118319
H	 1.4776663841	-3.6160826696	-4.0891048509	 0.132618
H	 2.8568374616	-3.7699247804	-2.9965947805	 0.128766
H	 1.2846109637	-4.4521398737	-2.530023601	 0.146042
H	 0.6258107819	-3.2751064675	 0.4497091711	 0.234651
H	-0.8580988228	-2.8430894152	-0.0865806996	 0.237444
76.6648	126.5727	158.7164	175.8499	200.0813	219.7733	251.28	293.6758	325.6032	385.5049	520.989	559.7778	614.9174	641.147	650.1313	713.8419	743.4133	775.5616	819.4429	950.5494	1014.679	1066.024	1101.1864	1148.5953	1154.6498	1167.441	1214.4553	1228.6317	1271.3691	1330.6133	1392.572	1425.0984	1457.2526	1478.8132	1480.0949	1488.9367	1500.7921	1523.0447	1626.0706	1644.4229	1707.9836	2968.8667	3025.7258	3061.6965	3076.4728	3116.4604	3132.7074	3290.0493	3485.2232	3554.8019	3557.7116
CNC1=COC(C)=C1N	CNc1coc(C)c1N	
InChI=1S/C6H10N2O/c1-4-6(7)5(8-2)3-9-4/h3,8H,7H2,1-2H3	InChI=1S/C6H10N2O/c1-4-6(7)5(8-2)3-9-4/h3,8H,7H2,1-2H3
