19
gdb 73466	2.84664	1.82382	1.55952	2.2143	73.34	-0.2299	0.0884	0.3183	939.1425	0.161716	-423.030575	-423.023438	-423.022493	-423.061765	29.086	
C	 0.0233097395	 1.477556896	-0.0692152947	-0.482191
C	 0.0404500017	-0.0324533363	-0.029455957	 0.240723
C	-1.1978034959	-0.7084871382	-0.603932144	-0.123607
O	-1.0969017056	-2.1356803453	-0.6473147615	-0.265201
C	 0.0969960125	-2.6225360549	-0.0848749823	 0.167722
C	 0.235432709	-2.1522695967	 1.3765654811	-0.259901
C	 0.7158433365	-0.7296824277	 1.1485010377	-0.161878
C	 1.3402081682	-0.7673696778	-0.2276023079	 0.066128
O	 1.2221143879	-2.0724468555	-0.7547818185	-0.250814
H	 0.954361192	 1.8920931689	 0.3302034987	 0.119566
H	-0.0936674564	 1.8473276583	-1.0943927382	 0.122923
H	-0.8014473421	 1.8812920769	 0.5301865676	 0.120908
H	-2.0842033317	-0.4337425306	-0.0122472695	 0.098402
H	-1.3683066118	-0.3549406732	-1.6299488888	 0.107353
H	 0.0956240017	-3.7007919605	-0.2435210008	 0.093102
H	-0.7194947573	-2.2379342817	 1.9006435311	 0.111949
H	 0.9891890822	-2.7396705043	 1.9107183964	 0.109008
H	 1.1340385368	-0.1438880197	 1.9583698639	 0.086284
H	 2.2608030828	-0.2736916078	-0.5135794233	 0.099527
144.8836	202.4798	248.5843	293.5341	389.6037	426.1162	503.8825	511.6064	591.7166	677.3665	732.5365	830.1474	854.1269	866.1241	877.8074	927.3723	964.8954	982.1679	1002.2842	1024.0819	1039.8044	1050.1591	1082.039	1090.3703	1134.7299	1146.18	1192.2301	1212.5021	1254.4315	1259.3988	1304.5111	1307.6295	1353.9776	1363.5965	1406.3931	1417.0919	1447.0627	1488.6709	1490.0421	1501.601	1523.3222	2983.3321	3020.7824	3022.6936	3053.9392	3082.3873	3098.1017	3108.641	3127.0251	3178.4909	3192.7195
CC12COC3CC1C2O3	C[C@]12CO[C@@H]3C[C@H]1[C@H]2O3	
InChI=1S/C7H10O2/c1-7-3-8-5-2-4(7)6(7)9-5/h4-6H,2-3H2,1H3	InChI=1S/C7H10O2/c1-7-3-8-5-2-4(7)6(7)9-5/h4-6H,2-3H2,1H3/t4-,5-,6+,7-/m0/s1
