17
gdb 56869	2.92272	1.121	0.9637	3.8501	73.38	-0.2571	-0.0347	0.2224	1244.4536	0.134286	-418.009332	-418.000396	-417.999451	-418.043441	32.212	
C	-0.0170390089	 1.5524591314	 0.0876301126	-0.392414
C	 0.0330571982	 0.0197143082	 0.0444403209	-0.096288
C	 0.8582230047	-0.508278484	 1.1638903895	 0.251914
N	 1.4424990134	-0.9579063919	 2.0549582451	-0.32563
N	-1.303497668	-0.5486946084	 0.0290213864	-0.088138
C	-2.1630360382	-0.4443070054	 1.2384073304	-0.306794
C	-2.5893133263	-1.8974654329	 0.9758676847	 0.405924
O	-3.448973469	-2.613946863	 1.3837270617	-0.269664
C	-1.4617413135	-2.0228040625	-0.0602804757	-0.303921
H	 0.9904394116	 1.9727527541	 0.0434852272	 0.140922
H	-0.5980088724	 1.9131179909	-0.7638948618	 0.139477
H	-0.4910718267	 1.8998912081	 1.0097151581	 0.140957
H	 0.5261237039	-0.2900747186	-0.884770578	 0.136588
H	-1.6108290025	-0.3610725817	 2.1877020177	 0.144057
H	-2.9387091322	 0.325722563	 1.1971563436	 0.139902
H	-1.7224350153	-2.4032526269	-1.0526005433	 0.139306
H	-0.6156262989	-2.5994490303	 0.3452989707	 0.143803
71.436	87.5112	149.6569	182.7302	220.8497	249.8665	339.2544	373.323	438.4831	492.747	551.0749	581.8494	673.1489	749.0988	774.2054	800.2579	935.8385	982.822	1026.2643	1070.9618	1079.3392	1091.0077	1105.0105	1153.1898	1182.1176	1211.2675	1258.5045	1299.2218	1325.2377	1361.1744	1408.1817	1455.7509	1480.5089	1487.2132	1496.7881	1930.0466	2339.6311	2990.2713	2998.0795	3043.3434	3053.8658	3083.4692	3087.9245	3130.2087	3141.9435
CC(C#N)N1CC(=O)C1	C[C@@H](C#N)N1CC(=O)C1	
InChI=1S/C6H8N2O/c1-5(2-7)8-3-6(9)4-8/h5H,3-4H2,1H3	InChI=1S/C6H8N2O/c1-5(2-7)8-3-6(9)4-8/h5H,3-4H2,1H3/t5-/m0/s1
