22
gdb 59132	4.00722	1.13692	1.03818	1.0162	87.16	-0.2096	0.0815	0.2911	1264.9966	0.193712	-367.117991	-367.109509	-367.108565	-367.150958	33.591	
C	-1.6294080046	-0.3741413435	-0.1176632053	-0.386766
C	-0.1551727598	 0.0330485325	-0.0446040621	 0.079444
C	-0.0019270981	 1.5557598795	 0.004120844	-0.386768
N	 0.4393628185	-0.5448282561	 1.1676597372	-0.122334
C	 1.9341291508	-0.6141690248	 1.2183120238	-0.006951
C	 1.8964197851	-1.8375799469	 2.1824772776	-0.053246
C	 2.907020789	-2.6364447797	 1.3376065326	-0.278314
C	 2.0817246247	-1.8738788901	 0.2822954347	-0.070627
C	 0.7596720732	-2.0069212866	 1.1303843566	-0.006952
H	-2.1613337386	-0.031594116	 0.7756916848	 0.121248
H	-2.1092647568	 0.0633052484	-0.9987532747	 0.108
H	-1.7428005747	-1.4609381706	-0.1823535424	 0.108402
H	 0.3493337843	-0.3348033167	-0.9573580393	 0.051095
H	-0.4850049304	 1.956196902	 0.9011452121	 0.121248
H	 1.0514399605	 1.8525368866	 0.0267035107	 0.108402
H	-0.45938008	 2.0198075554	-0.8752748961	 0.108001
H	 2.5801103869	 0.263368405	 1.2783309773	 0.07962
H	 1.7579514119	-1.7889724016	 3.2620732954	 0.079404
H	 3.9596917102	-2.3539670681	 1.4349568319	 0.094997
H	 2.8029718381	-3.7256853004	 1.3483588211	 0.094997
H	 2.1870674391	-1.8942473756	-0.8021606252	 0.077479
H	 0.0033332108	-2.7923484228	 1.0854155553	 0.07962
72.2664	165.001	180.3441	203.34	236.5356	321.6456	362.7469	445.4359	491.5134	525.7575	731.8496	757.2786	807.1642	829.3408	839.5744	880.4848	885.2517	920.0606	922.6281	931.8702	962.505	969.7887	1019.3323	1036.2716	1040.4035	1071.5862	1130.6916	1143.8832	1151.5965	1156.4941	1159.0409	1174.082	1189.1491	1192.9377	1199.3744	1251.113	1293.4682	1323.3607	1367.5649	1375.1592	1397.5243	1416.0885	1483.0288	1487.9268	1496.5634	1511.4446	1514.7374	2923.9002	3033.0818	3037.261	3043.5598	3095.7171	3097.2886	3098.2527	3103.9942	3105.4536	3107.5459	3112.7177	3117.4499	3128.2115
CC(C)N1C2C3CC2C13	CC(C)N1[C@H]2[C@@H]3C[C@H]2[C@H]13	
InChI=1S/C8H13N/c1-4(2)9-7-5-3-6(7)8(5)9/h4-8H,3H2,1-2H3	InChI=1S/C8H13N/c1-4(2)9-7-5-3-6(7)8(5)9/h4-8H,3H2,1-2H3/t5-,6+,7-,8+
