22
gdb 121177	2.27555	1.02066	0.772	4.095	86.74	-0.299	0.0293	0.3283	1550.1193	0.194335	-367.229896	-367.220085	-367.219141	-367.265307	35.755	
C	-0.0565058975	 1.5550219923	 0.2960105186	-0.381932
C	-0.0511881108	 0.0494822105	 0.0173521285	-0.174029
C	-1.446632076	-0.5791223375	 0.1115647583	-0.177524
C	-1.4394582607	-2.0845964392	-0.1469798613	-0.008481
C	-0.9198878436	-2.9549365611	 1.0382650119	-0.229381
C	-2.3832576784	-3.2949475989	 1.422058209	-0.225835
C	-2.8318152506	-2.8032210264	 0.0105057985	-0.155673
C	-4.0461922363	-2.0126198236	-0.0925646927	 0.274487
N	-5.0053928228	-1.3698208368	-0.1634154248	-0.339751
H	 0.9495540562	 1.9782057339	 0.2165117575	 0.112744
H	-0.6996959964	 2.0864098953	-0.4138168794	 0.119757
H	-0.4302284586	 1.7697658002	 1.3031962825	 0.116574
H	 0.3598602804	-0.1379553022	-0.9835080817	 0.096894
H	 0.627407834	-0.4499982671	 0.7209403202	 0.09789
H	-1.8757832048	-0.3727638751	 1.1018180706	 0.100068
H	-2.1146472615	-0.0929642577	-0.6108036486	 0.115214
H	-0.9631891988	-2.2849180989	-1.1113618283	 0.079007
H	-0.3631317967	-3.8327296341	 0.7007375369	 0.107864
H	-0.3241327351	-2.4376286376	 1.7934227073	 0.108709
H	-2.6210082773	-4.3313286914	 1.6672078632	 0.114796
H	-2.7710659188	-2.6505321497	 2.2130453403	 0.126888
H	-2.905004366	-3.6437998153	-0.6855249665	 0.121712
70.6985	94.2234	103.6073	107.7198	182.0073	237.4282	252.8332	308.3597	361.6787	427.4458	534.6968	564.2027	671.67	744.3654	757.1232	830.9966	872.3206	886.9106	922.2997	950.3705	952.9759	994.4444	1045.6342	1056.1337	1065.8653	1102.9051	1131.9239	1163.4342	1222.1112	1233.0554	1249.0174	1266.0346	1273.6587	1285.1168	1312.2166	1333.5751	1343.9747	1372.7696	1401.0403	1414.4694	1478.2458	1483.499	1492.7833	1499.6324	1500.5228	1510.6979	2348.2943	3010.8413	3018.8349	3031.8157	3037.8961	3051.1247	3064.7142	3065.3004	3073.5216	3079.9603	3099.3328	3104.3387	3113.2334	3137.3839
CCCC1CCC1C#N	CCC[C@H]1CC[C@H]1C#N	
InChI=1S/C8H13N/c1-2-3-7-4-5-8(7)6-9/h7-8H,2-5H2,1H3	InChI=1S/C8H13N/c1-2-3-7-4-5-8(7)6-9/h7-8H,2-5H2,1H3/t7-,8-/m0/s1
