18
gdb 86687	2.45818	1.25936	0.93395	4.436	77.07	-0.2581	-0.0394	0.2188	1262.6959	0.146456	-401.965016	-401.95584	-401.954896	-401.999659	32.787	
C	 0.066777945	 1.6041938371	-0.1839266895	-0.421306
C	 0.0942520553	 0.0989467357	 0.0087630497	 0.035998
C	 1.0312491051	-0.7705049768	-0.8688029232	-0.256452
C	 1.3005296582	-1.6901863225	 0.3608181259	-0.077025
C	 2.7040320333	-2.2130980836	 0.5330982719	 0.145782
O	 2.9850034287	-3.3837478474	 0.5590104401	-0.247436
C	 0.7829977045	-0.5226318996	 1.2822675004	-0.208786
C	 1.8351457574	 0.3102052319	 1.8481678057	 0.285884
N	 2.6650167372	 0.9861636218	 2.2870553846	-0.332806
H	 1.0694628346	 2.0354479561	-0.1086815204	 0.141983
H	-0.3369362897	 1.8516529027	-1.1713239698	 0.124685
H	-0.5648914709	 2.0904766036	 0.5667958445	 0.128433
H	-0.9220831776	-0.3053807627	-0.0324585413	 0.095333
H	 0.6152109137	-1.2462047739	-1.7581077704	 0.122125
H	 1.9337176723	-0.2173130001	-1.151339297	 0.122657
H	 0.6060464881	-2.5309724691	 0.4013218445	 0.108442
H	 3.4877544992	-1.4275960914	 0.6090162669	 0.101678
H	 0.1145514554	-0.8336397319	 2.0884236372	 0.13081
63.3853	70.4182	133.9047	157.1799	212.6256	283.9085	329.1672	337.2322	399.3533	420.1379	510.4364	618.1103	693.7703	784.8717	812.4973	895.7933	908.9524	933.3928	965.7796	1024.929	1074.953	1110.8905	1120.0703	1142.1674	1162.9293	1225.5215	1248.4854	1255.2584	1274.9581	1309.8472	1345.9728	1377.7719	1417.0268	1435.9388	1487.1649	1493.226	1495.1655	1827.4031	2346.7938	2898.1297	3035.6694	3050.0743	3059.6331	3086.2432	3102.7956	3105.489	3114.3401	3126.7853
CC1CC(C=O)C1C#N	C[C@H]1C[C@@H](C=O)[C@H]1C#N	
InChI=1S/C7H9NO/c1-5-2-6(4-9)7(5)3-8/h4-7H,2H2,1H3	InChI=1S/C7H9NO/c1-5-2-6(4-9)7(5)3-8/h4-7H,2H2,1H3/t5-,6-,7-/m0/s1
