18
gdb 61184	3.54778	0.8389	0.77339	2.7359	78.18	-0.272	0.0056	0.2776	1477.6048	0.144613	-401.926107	-401.915865	-401.914921	-401.96152	36.752	
C	 0.0331868744	 1.5908409632	-0.0750637239	-0.4264
C	 0.0053400906	 0.0606186551	-0.0037816644	 0.01259
C	 0.774867769	-0.4819452134	 1.2256351345	-0.372814
C	 2.186136476	-0.1211058882	 1.2232248013	 0.29243
C	 3.3494810777	 0.1805938709	 1.2009606568	-0.431969
C	-1.4387997321	-0.4984224593	 0.0326545614	-0.02719
O	-2.1744545318	-0.0905206083	 1.1722578346	-0.415123
C	-2.1626691208	-0.1693525908	-1.2129693597	 0.25954
N	-2.7271743887	 0.1176508452	-2.1796775979	-0.318821
H	 1.0650303693	 1.945559158	-0.1187975045	 0.147534
H	-0.4939961462	 1.9575109268	-0.9605545166	 0.141908
H	-0.4255015951	 2.0389371193	 0.8143163783	 0.113506
H	 0.4767713088	-0.3432439424	-0.9077567001	 0.1094
H	 0.291946992	-0.1111416212	 2.1373864403	 0.146577
H	 0.6830780591	-1.5756619226	 1.2564133095	 0.130942
H	 4.3792925633	 0.4397586803	 1.1942169621	 0.198932
H	-1.3898026307	-1.5912598717	 0.1026890477	 0.138251
H	-2.371795725	 0.8491576191	 1.0883581107	 0.300708
61.4988	80.8607	110.0158	178.7457	215.7661	236.4743	257.2203	306.3622	344.4705	347.8236	360.3029	458.4201	514.3905	597.5464	622.6037	647.4894	679.9379	822.2297	870.3267	894.8199	969.4797	993.3039	1014.4368	1100.11	1115.5787	1135.1861	1241.8932	1262.6467	1289.2663	1321.5702	1367.1068	1373.2706	1415.4746	1422.0314	1473.918	1499.8985	1508.0879	2239.0559	2353.6566	3022.041	3033.9297	3042.1579	3054.1767	3068.0943	3105.1207	3132.6913	3505.4566	3810.7506
CC(CC#C)C(O)C#N	C[C@@H](CC#C)[C@@H](O)C#N	
InChI=1S/C7H9NO/c1-3-4-6(2)7(9)5-8/h1,6-7,9H,4H2,2H3	InChI=1S/C7H9NO/c1-3-4-6(2)7(9)5-8/h1,6-7,9H,4H2,2H3/t6-,7-/m0/s1
