19
gdb 74192	2.26828	1.56196	0.98712	3.8769	85.08	-0.2272	-0.0438	0.1834	1212.4013	0.159573	-385.926844	-385.918379	-385.917435	-385.959963	32.369	
C	 0.4427901515	 1.3804488925	 0.0853793842	-0.470383
C	-0.0649485462	-0.0342760814	 0.0010478965	 0.312174
C	-0.2880668072	-0.5995975503	-1.198972089	-0.22202
C	-0.7244676901	-1.9722292554	-1.5308805131	 0.369479
O	-0.9549253845	-2.270912407	-2.6872806329	-0.325808
C	-0.8299834313	-3.0225797731	-0.4225500971	-0.368615
C	-1.7580916627	-2.6089639017	 0.6924379091	-0.064163
C	-1.5128943632	-1.5655650888	 1.478332361	-0.051099
C	-0.2733084928	-0.7084259292	 1.3464840697	-0.363054
H	 1.3733505839	 1.42321084	 0.6661360594	 0.133359
H	 0.6317093522	 1.808541132	-0.9012715653	 0.132089
H	-0.2780724786	 2.0194520213	 0.6115252774	 0.134857
H	-0.1265752739	-0.0014253068	-2.0928944605	 0.093941
H	-1.1466903301	-3.9536223768	-0.894352083	 0.122372
H	 0.1831236639	-3.1791568884	-0.0210171426	 0.121986
H	-2.6675409373	-3.1877974821	 0.8220572897	 0.103013
H	-2.2119745154	-1.2994432646	 2.2655653314	 0.097434
H	 0.6169482071	-1.325337998	 1.5568167447	 0.134988
H	-0.2754826553	 0.0622603878	 2.1226640003	 0.109451
76.1124	139.5757	168.4225	221.979	306.8609	314.6235	357.2519	437.3791	476.5619	516.5548	541.9884	634.147	685.046	723.3255	844.3933	871.8048	898.0737	929.1152	965.7111	974.5173	986.6094	1043.1093	1048.5224	1064.223	1129.4647	1184.5432	1210.0733	1238.5923	1278.2441	1302.5748	1340.9245	1377.6381	1398.4565	1408.9662	1461.5726	1473.8957	1480.2324	1482.9971	1693.2329	1722.4638	1760.8256	2968.4286	2996.4969	3017.3858	3064.6519	3075.8929	3121.6955	3125.0618	3156.3676	3162.3525	3185.6242
CC1=CC(=O)CC=CC1	CC1=CC(=O)CC=CC1	
InChI=1S/C8H10O/c1-7-4-2-3-5-8(9)6-7/h2-3,6H,4-5H2,1H3	InChI=1S/C8H10O/c1-7-4-2-3-5-8(9)6-7/h2-3,6H,4-5H2,1H3
