17
gdb 25713	4.52404	0.78866	0.73464	4.2745	82.23	-0.2213	0.0267	0.2479	1567.9989	0.136614	-380.877795	-380.868803	-380.867859	-380.914482	30.939	
C	 0.0288812148	 1.5051179853	 0.2167199932	-0.497151
C	 0.0153459905	 0.0547890968	 0.0987335292	 0.055372
C	-0.0010810036	-1.1436756248	-0.0060793924	 0.093452
C	-0.0140875282	-2.5993560581	-0.1167542802	-0.334371
N	-1.3531635129	-3.1767413504	-0.0702582084	 0.031422
C	-2.2612293115	-3.0795617723	 0.9623100571	-0.120457
C	-3.3525070416	-3.8020060229	 0.5584176333	-0.088056
N	-3.1436680976	-4.3408058282	-0.6904189291	-0.275485
C	-1.9400350271	-3.9454318158	-1.0338770936	 0.008896
H	 0.5510902082	 1.9665816435	-0.6282326658	 0.154069
H	-0.9905688916	 1.9051000692	 0.2355839666	 0.157875
H	 0.5303605461	 1.826067931	 1.1359883446	 0.15235
H	 0.4368224234	-2.9143653535	-1.0640264123	 0.149462
H	 0.5959920665	-3.0411537204	 0.6815443715	 0.150009
H	-2.0449404502	-2.5090255828	 1.8500820318	 0.129993
H	-4.2757510789	-3.9640830188	 1.0938321392	 0.107209
H	-1.4324156163	-4.1773324077	-1.9592087746	 0.125412
20.9449	24.2138	67.3955	181.2653	201.9339	298.9979	336.2814	375.1741	454.0069	626.6186	677.0647	730.0329	744.0198	778.2769	813.4127	856.6841	915.6369	972.112	1043.1308	1051.6059	1054.7031	1095.7542	1143.8292	1168.4054	1218.6944	1264.6147	1302.0382	1367.0211	1392.2938	1413.2166	1418.5368	1472.6296	1475.9709	1477.5511	1530.6483	1544.983	2378.9127	3022.4053	3030.968	3068.6374	3093.5565	3094.7899	3240.6086	3246.7083	3280.3687
CC#CCN1C=CN=C1	CC#CCn1ccnc1	
InChI=1S/C7H8N2/c1-2-3-5-9-6-4-8-7-9/h4,6-7H,5H2,1H3	InChI=1S/C7H8N2/c1-2-3-5-9-6-4-8-7-9/h4,6-7H,5H2,1H3
