18
gdb 108073	2.68337	1.71123	1.29262	1.4471	71.71	-0.2152	0.0611	0.2762	1015.9966	0.146762	-438.981009	-438.972799	-438.971855	-439.013517	31.613	
C	-0.4098011201	 1.1940431179	 0.1702444035	-0.264687
O	 0.2186239857	-0.0748377222	 0.009204591	-0.284254
C	 0.82361489	-0.5393840593	 1.1428394942	 0.382962
C	 2.1912603313	-0.2278062059	 1.7262943492	-0.245181
N	 2.0492252305	-1.5002124343	 2.5474317039	-0.163345
C	 0.9317299311	-1.1385712575	 3.5152809851	-0.23433
C	-0.0035196313	-1.1298137017	 2.3242347921	 0.281053
O	-1.3761923915	-1.0552037608	 2.2577190981	-0.455148
C	 0.9773366296	-1.9767790663	 1.5434138143	-0.205749
H	 0.3173200595	 1.9670057241	 0.4546232233	 0.109485
H	-0.8402214914	 1.4542857104	-0.7988242181	 0.128061
H	-1.2033455528	 1.1476780806	 0.9236500947	 0.137681
H	 3.0011644714	-0.3493464754	 1.0020167997	 0.114053
H	 2.3512504402	 0.679770532	 2.3188887297	 0.098217
H	 0.7628423644	-1.9746217138	 4.2021037364	 0.101456
H	 1.0989516868	-0.2189626269	 4.0874652868	 0.1002
H	-1.7496801374	-1.8807575104	 2.5857414089	 0.291639
H	 0.9644604738	-2.9250830305	 1.0253806072	 0.107886
104.4301	160.0713	164.8816	243.8532	282.9214	313.8648	422.4268	438.6771	474.1298	483.7694	643.3783	657.4005	699.3334	814.3426	834.3064	843.2407	915.8185	926.4669	1015.807	1048.5747	1069.3897	1094.707	1098.4445	1103.7852	1143.5869	1172.7411	1180.2658	1206.9728	1238.4283	1258.4635	1282.6457	1294.0518	1366.698	1430.0915	1487.302	1490.7245	1503.2683	1506.2541	1524.4879	3006.1188	3027.9506	3039.5285	3081.0273	3082.8414	3100.7629	3131.0889	3219.4073	3792.3596
COC12CN3CC1(O)C23	CO[C@@]12CN3C[C@]1(O)[C@@H]23	
InChI=1S/C6H9NO2/c1-9-6-3-7-2-5(6,8)4(6)7/h4,8H,2-3H2,1H3	InChI=1S/C6H9NO2/c1-9-6-3-7-2-5(6,8)4(6)7/h4,8H,2-3H2,1H3/t4-,5-,6+/m0/s1
