18
gdb 91695	3.12156	1.32249	1.16266	3.4111	71.42	-0.2341	-0.0284	0.2057	1092.7278	0.148292	-439.044387	-439.036514	-439.035569	-439.077101	30.14	
O	-0.1763230635	 1.4891873243	 0.3926974381	-0.438065
C	-0.1363203997	 0.1124484538	 0.0570615276	 0.1031
C	 0.5318771758	-0.8007186823	 1.1530020981	-0.209054
N	-0.6065868817	-1.645223878	 1.6201617632	-0.146944
C	-1.2119193047	-1.989803547	 0.2640844938	-0.203976
C	-1.5474800049	-0.4832647195	 0.148222197	-0.041508
C	-1.6974557305	-0.5779894445	 1.6838526661	-0.040717
C	-2.9814652785	-1.1274628337	 2.2557644432	 0.129126
O	-4.0365800986	-1.1645896322	 1.67524787	-0.243219
H	 0.7189653901	 1.8386059295	 0.3494340028	 0.286124
H	 0.3037063746	-0.0307966675	-0.9392743587	 0.070276
H	 1.3268234745	-1.4430609629	 0.7648037333	 0.106693
H	 0.9258321681	-0.2003972563	 1.9776796299	 0.107338
H	-0.5091654815	-2.4349844138	-0.4462460559	 0.102139
H	-2.0864030611	-2.6300334681	 0.380442341	 0.13242
H	-2.316067743	-0.0769077649	-0.5066264689	 0.089603
H	-1.411035789	 0.301123968	 2.2741152098	 0.107995
H	-2.8798718465	-1.4933117349	 3.3020826497	 0.088671
63.332	159.323	182.7741	264.7675	272.0913	342.6789	421.9134	494.1107	516.2781	689.2499	702.0379	781.9891	835.3992	846.5923	856.1688	891.6106	945.6054	975.2149	990.6483	1006.7266	1044.1574	1055.2568	1100.5902	1127.2712	1157.9691	1172.9274	1201.7114	1242.91	1248.2092	1260.6469	1283.7542	1307.788	1324.8113	1370.4953	1412.0279	1426.8328	1490.5214	1523.7523	1825.8486	2886.9786	3005.4231	3044.5636	3056.6016	3064.4331	3112.4358	3138.7339	3142.8274	3824.7284
OC1CN2CC1C2C=O	O[C@H]1CN2C[C@H]1[C@H]2C=O	
InChI=1S/C6H9NO2/c8-3-5-4-1-7(5)2-6(4)9/h3-6,9H,1-2H2	InChI=1S/C6H9NO2/c8-3-5-4-1-7(5)2-6(4)9/h3-6,9H,1-2H2/t4-,5+,6-/m0/s1
