15
gdb 99425	1.68857	1.4754	1.28809	3.9759	77.	-0.2566	0.0061	0.2627	1129.9976	0.109313	-379.585916	-379.575956	-379.575011	-379.620472	35.689	
N	 0.0231095369	 1.4847360339	-0.0437997904	-0.504207
C	 0.0227468546	 0.0368207846	-0.0113672975	-0.172204
C	 0.8431483236	-0.4778930496	 1.2330838228	-0.290553
C	 2.229531856	 0.007303573	 1.1353485853	 0.354843
C	 3.3495067656	 0.4204556871	 1.0136320733	-0.444611
C	 0.2188620396	-0.0390820188	 2.489100834	 0.378404
C	-0.3097288122	 0.2985669594	 3.5110597183	-0.439948
C	 0.8421842978	-1.9592517224	 1.1802717445	 0.296643
N	 0.8151729599	-3.1109501902	 1.1037522459	-0.336424
H	 0.910910427	 1.8357557674	-0.3860650861	 0.241494
H	-0.7036708351	 1.8244589067	-0.6620856817	 0.241232
H	-1.0023905854	-0.3213276153	 0.1120945241	 0.135892
H	 0.453130793	-0.4583293748	-0.8946870533	 0.116077
H	 4.3478745066	 0.7747012067	 0.9305166672	 0.21348
H	-0.7712468877	 0.6047054323	 4.4176083835	 0.209881
111.4414	115.0145	132.2535	142.0837	166.0909	191.636	236.1513	343.2006	347.4374	456.1301	510.279	547.3361	567.5974	578.0503	649.9659	654.1568	659.0831	661.8095	666.3142	817.8705	918.6955	993.1317	1059.3178	1108.7152	1123.1525	1243.0297	1346.1894	1408.9741	1495.0818	1654.2004	2244.6293	2252.1475	2365.0125	2989.7339	3101.9297	3498.7101	3501.4671	3520.084	3604.9326
NCC(C#C)(C#C)C#N	NCC(C#C)(C#C)C#N	
InChI=1S/C7H6N2/c1-3-7(4-2,5-8)6-9/h1-2H,5,8H2	InChI=1S/C7H6N2/c1-3-7(4-2,5-8)6-9/h1-2H,5,8H2
