15
gdb 25059	3.77132	1.04077	0.86062	3.4255	74.18	-0.1956	0.0195	0.2152	1289.8419	0.112154	-416.795136	-416.786805	-416.785861	-416.828636	31.033	
N	-0.1773421794	 1.2280701007	 0.3250736767	-0.602999
C	-0.0454501805	-0.0085223621	 0.0897336808	 0.469686
N	-1.0030962924	-0.9899998838	 0.2635816448	-0.384438
C	-0.4514839295	-2.2415350379	-0.0192329498	 0.322494
C	-1.2431299117	-3.508027023	 0.0868012069	-0.464962
C	-1.9289148957	-3.6437131767	 1.3718275965	 0.289141
C	-2.5060571917	-3.7181405886	 2.422737687	-0.438274
C	 0.8003871822	-2.0167599051	-0.4318820878	-0.144095
O	 1.0747973056	-0.6588444846	-0.3973362913	-0.215974
H	 0.6827152733	 1.7276688289	 0.1163973537	 0.225459
H	-1.8271385839	-0.833209406	 0.8182847734	 0.278142
H	-1.9898278549	-3.548969904	-0.7193253939	 0.155029
H	-0.5688024691	-4.3560228213	-0.0748465302	 0.153873
H	-3.0083596268	-3.8015483467	 3.3549191731	 0.20802
H	 1.5816732844	-2.6633975098	-0.7897902399	 0.148899
54.6777	89.7399	169.7147	272.4861	300.4244	339.8494	398.2577	453.2442	483.1377	594.7083	637.5182	661.5047	686.6652	710.2957	717.0681	751.8218	775.5974	913.7863	938.3105	953.2932	1021.5331	1065.4152	1096.0376	1210.4068	1228.4129	1261.4378	1330.7064	1365.2867	1434.4463	1456.7515	1717.4484	1794.3932	2242.4431	3005.6257	3070.1816	3298.7207	3504.0801	3543.769	3680.8182
N=C1NC(CC#C)=CO1	[NH][C@H]1NC(=CO1)CC#C	
InChI=1S/C6H6N2O/c1-2-3-5-4-9-6(7)8-5/h1,4H,3H2,(H2,7,8)	InChI=1S/C6H7N2O/c1-2-3-5-4-9-6(7)8-5/h1,4,6-8H,3H2/t6-/m0/s1
