21
gdb 53655	3.79878	0.54592	0.49799	2.7527	89.82	-0.2428	-0.0211	0.2217	2216.0354	0.178543	-387.084423	-387.072867	-387.071923	-387.124435	38.557	
C	-0.0357700158	 1.5277770854	-0.0479294118	-0.497318
C	-0.0011114812	 0.0720836635	-0.0347338641	 0.118896
C	 0.0389130173	-1.1313539017	-0.0263100998	 0.020601
C	 0.0499275945	-2.5899496438	-0.0136616495	-0.369346
C	-1.3703004271	-3.1878341771	 0.0816852719	-0.186329
C	-1.4025287145	-4.7305263992	 0.0149454228	-0.059659
C	-0.7016680109	-5.4046170811	 1.2074391224	-0.412449
C	-2.852787105	-5.1739588545	-0.0215967271	 0.155878
O	-3.3921125171	-5.7193078716	-0.9488389407	-0.248766
H	 0.5110737636	 1.9483326208	 0.803320748	 0.14663
H	 0.4158911775	 1.9291337726	-0.9619465176	 0.147659
H	-1.0643398123	 1.9019365182	 0.0031957167	 0.147377
H	 0.5372181361	-2.9657051784	-0.9235331387	 0.128664
H	 0.6622435263	-2.9417043481	 0.8254115473	 0.128978
H	-1.8403020823	-2.8457497865	 1.0120433929	 0.109959
H	-1.9704056635	-2.7799981643	-0.7390459608	 0.122171
H	-0.9475949788	-5.0635377333	-0.924871174	 0.094806
H	-0.7633886805	-6.4946512891	 1.133545862	 0.130312
H	 0.3570136268	-5.1369752479	 1.2502605192	 0.131024
H	-1.1616746168	-5.103632066	 2.1557729496	 0.123014
H	-3.4172144763	-4.944248008	 0.9151496512	 0.067898
15.0551	38.219	55.3268	76.7282	88.9284	194.0121	212.6219	217.9863	268.7539	323.8221	347.6162	377.9119	389.893	484.9928	572.5238	756.1052	777.8183	878.5409	912.1074	947.8072	965.9722	1028.5223	1053.0739	1053.719	1114.7596	1129.0692	1154.829	1172.5133	1217.6488	1260.5566	1315.4047	1324.9923	1357.6022	1382.8918	1407.1912	1415.5747	1429.0978	1473.9999	1478.93	1479.3479	1491.9949	1497.3686	1505.4777	1836.0625	2374.049	2835.4078	3014.0732	3025.6801	3032.3929	3034.5619	3046.9181	3050.7707	3081.5739	3085.7701	3086.0178	3102.7804	3117.9187
CC#CCCC(C)C=O	CC#CCC[C@@H](C)C=O	
InChI=1S/C8H12O/c1-3-4-5-6-8(2)7-9/h7-8H,5-6H2,1-2H3	InChI=1S/C8H12O/c1-3-4-5-6-8(2)7-9/h7-8H,5-6H2,1-2H3/t8-/m1/s1
