17
gdb 57120	3.46724	0.76303	0.67211	1.8885	91.61	-0.2394	-0.0278	0.2116	1646.2793	0.131511	-384.660993	-384.650612	-384.649667	-384.697778	36.4	
C	-0.5194569352	 1.8274111554	 0.7838484124	-0.390328
C	-0.0828374523	 0.4790988431	 0.1528113401	-0.314476
C	 0.6868026078	-0.3298349007	 1.0837248703	 0.464594
C	 1.3351221403	-0.9950394061	 1.860938125	-0.316459
C	 2.0568201406	-1.747326283	 2.7351581443	 0.301231
C	 2.6968634457	-2.4163141373	 3.5105256141	-0.56042
C	-1.3500573148	-0.2201033699	-0.4114387124	 0.395673
C	-1.9888867179	-1.3154555942	 0.4103946219	-0.480598
O	-1.799759492	 0.1591572354	-1.4646348623	-0.293864
H	 0.3564017806	 2.38801923	 1.1177644346	 0.137186
H	-1.0605127505	 2.4155708912	 0.0392348481	 0.144211
H	-1.1685567195	 1.6627914898	 1.648539555	 0.131415
H	 0.5326950274	 0.7042727051	-0.7263502111	 0.139378
H	 3.2603489562	-3.0030523781	 4.1927725267	 0.193812
H	-1.3275963535	-2.1882239729	 0.4365584501	 0.160001
H	-2.1188645463	-0.997102743	 1.4500732377	 0.145976
H	-2.9485599369	-1.5906268349	-0.0276584146	 0.142669
20.2487	69.9833	100.5708	145.7713	205.006	223.8069	243.3993	255.6606	353.4735	427.5515	472.3244	515.783	547.848	554.6972	589.4644	602.2879	605.4741	723.3142	777.7017	931.9293	967.3375	1016.2314	1072.1845	1090.8948	1185.9914	1215.353	1267.4607	1323.9741	1382.9307	1399.6895	1454.8924	1467.7768	1494.2883	1497.2748	1817.3822	2180.4022	2357.0495	3040.8959	3043.4746	3050.3592	3104.2173	3127.567	3140.1547	3157.9145	3504.76
CC(C#CC#C)C(C)=O	C[C@@H](C#CC#C)C(=O)C	
InChI=1S/C8H8O/c1-4-5-6-7(2)8(3)9/h1,7H,2-3H3	InChI=1S/C8H8O/c1-4-5-6-7(2)8(3)9/h1,7H,2-3H3/t7-/m0/s1
