16
gdb 7425	3.35767	1.51288	1.16369	1.9257	62.11	-0.2553	-0.0964	0.1589	1036.6815	0.12644	-420.910014	-420.900654	-420.89971	-420.944734	32.257	
C	 0.0886830291	 1.4868032918	 0.1372792904	-0.412164
C	-0.0442486144	-0.0469478853	 0.2023015657	 0.067416
O	-1.3949725439	-0.431652034	 0.2437836668	-0.438759
C	 0.6370683332	-0.7001411575	-0.9902869659	 0.250817
O	-0.0071521699	-1.2878951792	-1.8331127778	-0.308711
C	 2.1754364079	-0.6260085159	-1.1030988901	 0.315316
C	 2.7746816395	-1.2012196416	-2.3605318584	-0.474186
O	 2.8166414125	-0.1446344512	-0.1982528949	-0.271317
H	 1.132200616	 1.7969399951	 0.2197498404	 0.140862
H	-0.3357617017	 1.8692233289	-0.7963264699	 0.121543
H	-0.477894501	 1.9145699993	 0.9675628346	 0.139441
H	 0.4691963257	-0.3987384075	 1.1087057394	 0.11201
H	-1.5721054266	-0.8892478524	-0.5916927581	 0.291636
H	 2.3864325613	-0.6711037162	-3.2367112934	 0.157464
H	 3.8608971005	-1.1210086597	-2.3196825881	 0.146485
H	 2.4695760119	-2.2456649346	-2.4774745805	 0.162149
43.9771	71.0194	115.3286	179.2577	205.0549	244.1823	326.3079	352.4997	367.778	396.9322	474.7873	520.0001	597.2606	699.1145	772.3071	903.8362	925.2438	998.3688	1041.9292	1069.6312	1090.6967	1168.1256	1241.7194	1297.6876	1336.6058	1384.9513	1387.4266	1429.4791	1452.3749	1460.2112	1494.1547	1496.5231	1784.3702	1805.5737	3010.9494	3047.6447	3049.1533	3110.8154	3124.1657	3145.814	3164.3318	3713.2485
CC(O)C(=O)C(C)=O	C[C@@H](O)C(=O)C(=O)C	
InChI=1S/C5H8O3/c1-3(6)5(8)4(2)7/h3,6H,1-2H3	InChI=1S/C5H8O3/c1-3(6)5(8)4(2)7/h3,6H,1-2H3/t3-/m1/s1
