18
gdb 94410	2.65155	1.35306	1.20734	2.4245	72.9	-0.2557	0.0134	0.269	1112.3718	0.147444	-439.063497	-439.055112	-439.054168	-439.096856	31.028	
C	-0.367240249	 1.398611419	-0.0452312489	-0.412107
C	 0.1866467027	-0.0092328245	-0.0974443136	 0.104496
O	 1.4618562023	-0.0788049275	-0.7795113679	-0.295339
C	 2.0654472821	-0.7809737717	 0.3213412761	-0.129723
C	 0.7994957167	-0.6330043168	 1.1829742183	 0.112928
C	 0.7842697707	 0.0226367372	 2.5748283653	-0.148772
O	 0.1632748403	-1.1791819604	 3.1359433462	-0.261541
C	 0.1621129819	-1.7970063028	 1.9015501712	 0.381813
N	-0.2401456989	-2.9284857136	 1.543973404	-0.546468
H	 0.3339468958	 2.0847783121	 0.439530867	 0.119863
H	-0.5450739986	 1.7590608072	-1.0629905956	 0.137632
H	-1.3201446277	 1.4225230915	 0.4944182546	 0.123703
H	-0.5349305948	-0.6944004611	-0.5617919844	 0.101389
H	 2.3108734061	-1.8197175172	 0.0702377791	 0.125745
H	 2.9610157588	-0.2718252977	 0.6984500225	 0.106143
H	 1.7618732406	 0.2060844816	 3.0289563495	 0.123034
H	 0.1354309948	 0.892457627	 2.7016160025	 0.125678
H	-0.6271819138	-3.4594092523	 2.325669324	 0.231526
72.512	116.8157	149.889	215.669	248.1481	272.6985	360.1928	429.1501	491.0176	573.1106	657.321	743.2026	800.3386	860.5491	883.613	888.8711	907.9225	968.8963	1007.7517	1029.3937	1033.2124	1080.534	1097.413	1148.2964	1157.2367	1174.5885	1182.1764	1242.9491	1257.6188	1292.7013	1359.5128	1377.9692	1381.0279	1405.9881	1481.9928	1494.7556	1512.173	1518.1837	1824.2102	3013.6564	3022.0137	3035.4408	3059.1114	3065.515	3109.4154	3114.4555	3119.2818	3481.8617
CC1OCC11COC1=N	C[C@H]1OC[C@]21CO[C]2[NH]	
InChI=1S/C6H9NO2/c1-4-6(2-8-4)3-9-5(6)7/h4,7H,2-3H2,1H3	InChI=1S/C6H9NO2/c1-4-6(2-8-4)3-9-5(6)7/h4,7H,2-3H2,1H3/t4-,6-/m1/s1
