21
gdb 106417	2.67458	1.44742	1.21858	1.0753	83.97	-0.2458	0.0981	0.3439	1141.8955	0.18211	-387.013669	-387.00511	-387.004166	-387.04683	33.361	
C	-0.032170474	 1.3161756613	-0.0015603969	-0.261714
O	 0.0518497009	-0.094707288	 0.0674476958	-0.293093
C	 0.7115027023	-0.5725316304	 1.1740179749	 0.366595
C	 2.2085084922	-0.3695274183	 1.5988122376	-0.288962
C	 1.5856578128	-1.3575735757	 2.6323142624	-0.14704
C	 0.3348905595	-0.4277908624	 2.6905616604	-0.288963
C	 0.9133343789	-2.0659670956	 1.4406932626	 0.40751
C	-0.0071681274	-3.226459357	 1.3212005045	-0.375804
C	 1.3161889035	-3.1852990227	 0.5501002117	-0.375801
H	 0.9634482228	 1.7796813872	-0.0413803333	 0.113955
H	-0.5737875599	 1.5592618575	-0.9181414385	 0.128513
H	-0.5781174697	 1.7318131084	 0.8568499115	 0.113954
H	 2.9647677386	-0.7781482004	 0.9253880591	 0.097224
H	 2.4852883153	 0.6153733082	 1.9845742257	 0.084939
H	 2.0916397585	-1.8207737076	 3.4759406741	 0.081192
H	 0.4883914436	 0.5532759596	 3.148157725	 0.084939
H	-0.6036693564	-0.8891172452	 3.0046993256	 0.097223
H	-0.0851421243	-3.9256408367	 2.1481590132	 0.108927
H	-0.9224379756	-3.1043825633	 0.7503847978	 0.118739
H	 1.2645937978	-3.0363706472	-0.5239617685	 0.118739
H	 2.1059198905	-3.8574882717	 0.8714756653	 0.108927
71.4462	141.923	164.855	213.9845	238.809	266.9347	395.5615	457.5474	475.0832	613.5609	613.7834	663.6349	778.9921	789.9675	799.2069	910.3168	911.0283	933.4367	953.7032	970.6637	970.8336	1044.5522	1058.66	1060.4058	1062.3709	1080.1798	1090.0134	1129.1355	1148.6337	1161.1145	1181.1858	1181.9697	1201.5103	1205.6562	1211.3964	1246.6563	1311.2125	1421.2979	1458.5339	1484.3741	1485.3986	1487.5375	1506.0383	1509.7833	1546.0762	2993.8774	3046.1212	3053.5201	3057.7271	3119.3516	3122.6292	3122.9304	3126.6869	3129.1473	3147.1101	3197.6229	3211.5786
COC12CC(C1)C21CC1	CO[C@@]12C[C@@H](C1)C12CC1	
InChI=1S/C8H12O/c1-9-8-4-6(5-8)7(8)2-3-7/h6H,2-5H2,1H3	InChI=1S/C8H12O/c1-9-8-4-6(5-8)7(8)2-3-7/h6H,2-5H2,1H3/t6-,8-
