20
gdb 8008	3.35542	1.54323	1.20605	0.789	70.36	-0.2515	0.0653	0.3168	1053.7872	0.177552	-386.156307	-386.1477	-386.146755	-386.189789	32.474	
C	-0.1278375663	 1.5432418314	-0.0351201619	-0.404384
C	 0.0846802107	 0.034445839	 0.0642140526	 0.040226
C	 0.6773848876	-0.6036293181	-1.2146481116	-0.222853
C	 1.3977482697	-1.8915608906	-0.7713763832	 0.084149
O	 2.7500896789	-1.8351678897	-1.2261526456	-0.441952
C	 1.3510246728	-1.880683054	 0.7931308919	 0.118958
O	 2.5110531299	-2.441005278	 1.3746784978	-0.445936
C	 1.067812658	-0.4155365834	 1.1556405138	-0.245516
H	 0.820299711	 2.0584255763	-0.2286733947	 0.114325
H	-0.8154260772	 1.7953792308	-0.849751185	 0.112342
H	-0.546721102	 1.9500592198	 0.8913288922	 0.112329
H	-0.8863758918	-0.4382601473	 0.2705775017	 0.071258
H	-0.0757201264	-0.7810701227	-1.9869134479	 0.096597
H	 1.4345285805	 0.0610489518	-1.6459811246	 0.11387
H	 0.9155287254	-2.7938804004	-1.1688395096	 0.064523
H	 3.1443605049	-2.6923583805	-1.0286543655	 0.282675
H	 0.5199532466	-2.5086382875	 1.1334277921	 0.085775
H	 3.2515651952	-1.9339239032	 1.0193224769	 0.274296
H	 1.9994753772	 0.1630105921	 1.0753295313	 0.091864
H	 0.6886349254	-0.2929416759	 2.1737962694	 0.097454
36.6307	132.3715	160.3815	237.7142	269.4857	297.5684	389.5561	433.4351	434.9964	500.8571	560.5913	596.6754	660.7596	800.3577	846.1643	887.283	925.7918	941.2073	981.3951	1023.3705	1049.7094	1064.0461	1111.5915	1130.7745	1153.9092	1174.5664	1233.6679	1251.9932	1278.9458	1284.8377	1315.3737	1328.8707	1348.8157	1360.9742	1387.3003	1412.9177	1423.313	1441.5742	1477.8722	1491.7933	1497.1154	1500.8086	2996.11	3007.8156	3013.9783	3025.0643	3047.1807	3050.7715	3090.1391	3093.2955	3095.9761	3100.1988	3778.608	3799.6273
CC1CC(O)C(O)C1	C[C@H]1C[C@@H](O)[C@@H](O)C1	
InChI=1S/C6H12O2/c1-4-2-5(7)6(8)3-4/h4-8H,2-3H2,1H3	InChI=1S/C6H12O2/c1-4-2-5(7)6(8)3-4/h4-8H,2-3H2,1H3/t4-,5+,6-
