18
gdb 14530	3.7056	1.70001	1.41723	1.2588	67.09	-0.2383	0.0705	0.3088	930.3254	0.152573	-384.898434	-384.890108	-384.889164	-384.931859	30.215	
O	 0.0158431029	 1.4054203938	 0.3164524858	-0.479255
C	 0.008862168	 0.0333061102	 0.0168443618	 0.399574
C	 0.9528085858	-0.5423260572	-1.0004253132	-0.33011
C	 1.1153128057	-0.8695336996	 0.4792373122	-0.33387
C	-1.420440449	-0.4480804428	 0.0852201245	 0.120129
C	-2.3637238521	-0.0640067598	-1.0773065607	-0.282191
C	-2.5060359478	-1.5856813907	-1.2716761143	-0.064071
O	-1.546903649	-1.8537779073	-0.2216055269	-0.29661
H	 0.9248651333	 1.7194553875	 0.3113593923	 0.283514
H	 0.5954967248	-1.3343304728	-1.6486502675	 0.125214
H	 1.6737813878	 0.129995685	-1.4555292655	 0.101694
H	 1.9445533773	-0.4160067634	 1.0142041282	 0.103134
H	 0.8589778617	-1.8723554937	 0.8013615284	 0.135542
H	-1.8211568698	-0.218226035	 1.0817250247	 0.082178
H	-3.2714442906	 0.4711104157	-0.7977815158	 0.111267
H	-1.8675498543	 0.4620731951	-1.8938226782	 0.11705
H	-3.4917535667	-2.0017576656	-1.0300305398	 0.103054
H	-2.1772477481	-1.9905704695	-2.2358515261	 0.103757
61.5088	84.0639	95.9706	191.1289	251.8017	317.8317	390.3566	477.4892	515.2738	673.7625	763.5159	781.75	827.6532	872.045	891.4999	945.3359	955.1907	973.9555	1000.9745	1037.2248	1052.8393	1068.6773	1072.3558	1111.4624	1166.9467	1172.8657	1188.5017	1216.2947	1254.6445	1268.9033	1300.2912	1358.6337	1374.3649	1445.0733	1445.9982	1488.6339	1498.3514	1529.9724	3011.5932	3020.0759	3059.3347	3088.857	3124.6579	3129.133	3145.2573	3212.2086	3225.2533	3832.2476
OC1(CC1)C1CCO1	OC1(CC1)[C@H]1CCO1	
InChI=1S/C6H10O2/c7-6(2-3-6)5-1-4-8-5/h5,7H,1-4H2	InChI=1S/C6H10O2/c7-6(2-3-6)5-1-4-8-5/h5,7H,1-4H2/t5-/m1/s1
