19
gdb 118936	2.58298	1.12052	1.02175	1.8024	73.17	-0.2492	-0.0281	0.221	1290.2323	0.155418	-460.148151	-460.138133	-460.137189	-460.183801	34.922	
C	-0.0124519734	 1.3953186113	 0.6398747754	-0.225171
O	-0.1967738293	 0.0133354912	 0.8458491069	-0.230661
C	 0.9041097837	-0.7560689226	 0.43424719	-0.086483
C	 0.62428181	-2.229280728	 0.7384230169	 0.250766
C	-0.6809168725	-2.7262451821	 0.1413159965	-0.430926
O	 1.7789982376	-3.0209371976	 0.3256589612	-0.328534
C	 2.1170762758	-3.4306002429	 1.6656239732	-0.195276
C	 0.9076669756	-2.6512653281	 2.1956626095	 0.307719
O	 0.3973604338	-2.4724250826	 3.2575748044	-0.271763
H	 0.136427233	 1.6312934529	-0.4253706195	 0.107437
H	-0.9146470069	 1.8994232607	 0.993056324	 0.13338
H	 0.8534542677	 1.7775397704	 1.2020698152	 0.109848
H	 1.0837554055	-0.6598647319	-0.6509118769	 0.100749
H	 1.8269220922	-0.4367777046	 0.9464111257	 0.090344
H	-0.6557722316	-2.6166908274	-0.9477684039	 0.127576
H	-0.8433636882	-3.7807523567	 0.379047986	 0.121238
H	-1.5114297749	-2.1356265055	 0.5335160541	 0.15468
H	 2.0730707534	-4.5178102476	 1.8071473076	 0.133526
H	 3.0970715186	-3.0631293592	 1.9956589337	 0.13155
59.1323	81.0306	92.2219	167.037	183.0649	195.868	222.6476	280.6951	328.2107	388.2122	423.5703	507.7145	544.6218	702.5297	729.4275	860.7331	948.6268	971.0167	994.4042	1004.2137	1014.0706	1043.1932	1129.238	1138.93	1161.1821	1176.906	1210.7855	1225.0627	1237.6411	1294.1918	1305.9876	1390.2741	1407.6385	1478.6863	1479.7078	1481.8999	1485.307	1488.3812	1501.3501	1521.3629	1923.5279	2950.6776	2976.2194	2985.4627	3017.6273	3022.0918	3044.5922	3063.3998	3115.6989	3121.6256	3142.7416
COCC1(C)OCC1=O	COC[C@@]1(C)OCC1=O	
InChI=1S/C6H10O3/c1-6(4-8-2)5(7)3-9-6/h3-4H2,1-2H3	InChI=1S/C6H10O3/c1-6(4-8-2)5(7)3-9-6/h3-4H2,1-2H3/t6-/m1/s1
