13
gdb 15449	3.32719	2.08095	1.40236	3.8449	66.02	-0.242	-0.0133	0.2288	844.2164	0.095961	-357.62055	-357.613386	-357.612441	-357.652166	26.395	
N	-0.0524732488	 1.2954044609	 0.0272223285	-0.526766
C	 0.0275516934	 0.0328620881	 0.025407493	 0.382419
N	 1.1321646043	-0.816909096	-0.0385787267	-0.34115
C	 0.6957231045	-2.1338295791	-0.030523675	 0.065934
N	-0.5649168439	-2.3147918927	 0.0237694314	-0.235427
C	-1.1615076834	-0.9544768477	 0.0686952844	-0.223659
C	-2.012549916	-0.7698769011	 1.236166505	 0.381557
C	-2.7104838697	-0.6171251862	 2.2005470666	-0.469636
H	 0.8647257775	 1.7416852379	-0.0201203683	 0.212039
H	 2.0920540275	-0.5155705047	-0.0507643804	 0.26216
H	 1.4238960723	-2.9375060129	-0.0774961797	 0.141618
H	-1.7605326727	-0.8130497237	-0.8405048887	 0.149222
H	-3.3309220849	-0.4775979227	 3.0509299	 0.201687
71.8838	142.7292	197.4401	344.5231	380.9822	424.746	502.6204	567.8274	629.0092	652.9809	654.5624	686.071	854.3928	865.0607	890.1394	941.1248	969.1563	1055.3595	1081.0581	1090.8491	1225.5367	1269.9383	1308.0078	1349.8922	1415.7249	1684.0896	1770.8283	2248.9382	3026.628	3192.7772	3461.076	3504.9569	3661.0609
N=C1NC=NC1C#C	[NH][C]1NC=N[C@H]1C#C	
InChI=1S/C5H5N3/c1-2-4-5(6)8-3-7-4/h1,3-4H,(H2,6,7,8)	InChI=1S/C5H5N3/c1-2-4-5(6)8-3-7-4/h1,3-4H,(H2,6,7,8)/t4-/m0/s1
