17
gdb 66058	2.2244	1.34579	1.21817	4.4664	73.22	-0.2599	-0.0464	0.2135	1120.173	0.134736	-418.00426	-417.995138	-417.994194	-418.038657	32.384	
C	 0.0937599161	 1.7146792754	-0.117200354	-0.471258
C	-0.0325799837	 0.1965530847	-0.0434214443	 0.194571
C	 1.1253638529	-0.5767917263	-0.7700601309	-0.208539
N	 1.7455014103	-0.8477652273	 0.5441777459	-0.304565
C	 0.5003055857	-0.488078721	 1.2579373913	-0.177227
C	 0.6869402389	 0.3450312412	 2.4455078464	 0.310317
N	 0.817118452	 1.0113439356	 3.3808123085	-0.332908
C	-1.4048025478	-0.2750854697	-0.4702587032	 0.110771
O	-2.0318502344	-1.1503901104	 0.0694548283	-0.246651
H	 1.1166471252	 2.0267511295	 0.1073690442	 0.154423
H	-0.1590966843	 2.0685093143	-1.1225632665	 0.124617
H	-0.5733131685	 2.2061398581	 0.5976028557	 0.147611
H	 0.7747635756	-1.4668223663	-1.3083125625	 0.113935
H	 1.7458426239	 0.0257764449	-1.4409489316	 0.121699
H	 2.0593479393	-1.7995825767	 0.6956937804	 0.235649
H	-0.1509689946	-1.3316488213	 1.5182755361	 0.137983
H	-1.8029183066	 0.2435538552	-1.3718488638	 0.089571
61.1583	85.493	138.0303	167.063	221.779	273.3076	289.6569	329.4765	363.2683	527.265	545.8504	564.689	658.5845	735.149	874.7057	892.6844	921.4763	954.9563	991.0332	1017.8619	1037.3619	1066.0692	1146.568	1162.7952	1187.0204	1237.4495	1268.9004	1326.2175	1365.2189	1398.7432	1411.1383	1423.1629	1489.1592	1495.5981	1518.0552	1823.3083	2356.8661	2877.5267	3015.1286	3036.6224	3038.2121	3073.5404	3107.6868	3125.987	3540.2586
CC1(CNC1C#N)C=O	C[C@]1(CN[C@H]1C#N)C=O	
InChI=1S/C6H8N2O/c1-6(4-9)3-8-5(6)2-7/h4-5,8H,3H2,1H3	InChI=1S/C6H8N2O/c1-6(4-9)3-8-5(6)2-7/h4-5,8H,3H2,1H3/t5-,6-/m0/s1
