21
gdb 38751	2.33136	2.20342	1.79286	1.4606	79.93	-0.2365	0.0763	0.3129	906.8718	0.187488	-387.101639	-387.09516	-387.094216	-387.131994	28.381	
C	-0.0338603833	 1.5574371201	-0.0942987404	-0.230764
C	 1.514563958	 1.5698622771	 0.0023312037	-0.013189
C	 2.0601172523	 1.7205791454	 1.4382103207	-0.224425
C	 1.9119544748	 0.3156783805	 2.0572740331	 0.122327
C	 2.3297486038	-0.6038566452	 0.8974718439	-0.250747
C	 1.5232005368	 0.0160110949	-0.2450897027	-0.023588
C	-0.0174426355	 0.0119869932	 0.0497141218	-0.02865
C	-0.2937245283	-0.4945688256	 1.4631079053	-0.083232
O	 0.5495275414	 0.0913659697	 2.4490433664	-0.285319
H	-0.5803630919	 2.1187348891	 0.6699363242	 0.097182
H	-0.3884653111	 1.8720093372	-1.0796394287	 0.093346
H	 2.0350014109	 2.2092046689	-0.7131292646	 0.059642
H	 3.121330951	 1.9955524884	 1.4158214258	 0.089893
H	 1.5302628281	 2.474827523	 2.026912136	 0.100419
H	 2.5093816818	 0.1883719128	 2.9646273424	 0.070191
H	 3.4075058829	-0.5174352749	 0.7206014692	 0.095525
H	 2.1063072515	-1.6585947986	 1.0835672874	 0.101605
H	 1.7958809574	-0.3181085578	-1.2468753531	 0.05881
H	-0.6450685258	-0.5405451449	-0.655997954	 0.063461
H	-1.3185741331	-0.2548923478	 1.7689289996	 0.102041
H	-0.1982549716	-1.5924035957	 1.4824727041	 0.085472
184.2305	310.3583	351.3954	411.0779	419.064	446.6334	565.1717	614.0301	760.1165	780.9645	793.8538	825.9984	848.0897	867.076	881.8591	896.4009	925.9641	938.65	997.0709	998.7923	1032.5284	1045.9773	1066.1896	1094.8619	1110.6092	1147.3574	1151.9701	1161.6919	1217.8486	1238.9865	1246.369	1258.2207	1270.0293	1292.0829	1302.4691	1320.1929	1337.0051	1348.8853	1353.8879	1372.4717	1410.7586	1469.1804	1482.7005	1488.8362	1515.7557	2967.0417	3034.5801	3044.2648	3045.4602	3053.2581	3060.25	3069.8084	3081.361	3090.8132	3093.9156	3099.0261	3104.4787
C1C2CC3CC2C1CO3	C1[C@H]2C[C@@H]3C[C@H]2[C@H]1CO3	
InChI=1S/C8H12O/c1-5-2-7-3-8(5)6(1)4-9-7/h5-8H,1-4H2	InChI=1S/C8H12O/c1-5-2-7-3-8(5)6(1)4-9-7/h5-8H,1-4H2/t5-,6+,7+,8+/m0/s1
