19
gdb 114157	4.6554	0.89709	0.82171	1.9036	84.25	-0.2296	0.0397	0.2694	1408.1827	0.157939	-385.822349	-385.813292	-385.812347	-385.856098	34.469	
O	-0.067558081	 1.4243292932	-0.1591692404	-0.420504
C	 0.0411734007	 0.0352557722	 0.1200980476	-0.098653
C	-1.3425623491	-0.5670391323	-0.039681519	 0.038136
C	-1.980852488	-0.6245854493	-1.4658313908	-0.30651
C	-2.2012737235	-2.1427361006	-1.2953610592	 0.220615
C	-0.8671451611	-2.8143067206	-1.0639829242	-0.323444
C	-1.4977130045	-2.0872409897	 0.0859627539	-0.138579
C	-3.369388191	-2.8533532958	-1.6865076417	 0.154003
C	-4.3696956246	-3.432082306	-2.0253636296	-0.406234
H	 0.8106316397	 1.8127390395	-0.1099207517	 0.287547
H	 0.7519968117	-0.4518899756	-0.5653672008	 0.082576
H	 0.4037767831	-0.141879874	 1.1463063182	 0.085409
H	-2.0205793652	-0.051823328	 0.646374508	 0.089534
H	-2.9116500345	-0.0614253553	-1.5349437009	 0.118704
H	-1.3327794443	-0.3406041995	-2.3005346398	 0.101488
H	-0.9083384714	-3.8961155749	-0.9996180437	 0.126233
H	 0.0181179632	-2.4295228607	-1.5643427189	 0.109962
H	-1.786883748	-2.6122494809	 0.9884341791	 0.098234
H	-5.2487778122	-3.9468222719	-2.3234417562	 0.181482
84.5499	101.6489	134.9199	208.206	233.374	272.9133	366.4857	429.338	437.6235	512.9263	540.4189	563.5928	591.9896	641.6429	704.6538	811.3699	847.9108	896.1229	904.6126	959.1206	967.674	1025.6282	1049.8343	1073.1083	1087.2166	1091.7324	1104.214	1164.1167	1201.2978	1221.5908	1250.976	1264.8439	1280.2003	1296.643	1369.5841	1380.8157	1462.341	1481.5741	1496.5198	1520.4307	2229.5849	2962.3734	2993.3077	3058.9368	3071.1198	3114.2372	3132.1449	3184.959	3211.2208	3505.0169	3830.4248
OCC1CC2(CC12)C#C	OC[C@H]1C[C@]2(C[C@@H]12)C#C	
InChI=1S/C8H10O/c1-2-8-3-6(5-9)7(8)4-8/h1,6-7,9H,3-5H2	InChI=1S/C8H10O/c1-2-8-3-6(5-9)7(8)4-8/h1,6-7,9H,3-5H2/t6-,7+,8+/m1/s1
