20
gdb 58542	2.08038	1.46361	1.41176	2.3651	74.9	-0.2458	0.0298	0.2755	1101.2469	0.169871	-440.313322	-440.303638	-440.302694	-440.3474	36.291	
C	 0.0526850654	 1.5722763836	 0.0657230744	-0.428239
C	 0.009738502	 0.046038861	-0.0355007583	 0.071948
O	 0.7949428531	-0.5515903233	 0.9956970574	-0.439866
C	-1.4211798038	-0.5269434096	-0.021168708	 0.162626
C	-2.3387993737	 0.0730923922	-1.0844595612	-0.468515
C	-1.4870758539	-2.0885137944	 0.0896492849	-0.216345
N	-2.1716175049	-1.9043509236	 1.3767091111	-0.318481
C	-2.0260601637	-0.5442052435	 1.4133165355	 0.388428
O	-2.2367258375	 0.2852371172	 2.2640480366	-0.384524
H	 1.0927740048	 1.8971666602	 0.1557517305	 0.123006
H	-0.3789075961	 2.0524977421	-0.8164416339	 0.119671
H	-0.5039847423	 1.9120500234	 0.9455939027	 0.146348
H	 0.4926381318	-0.2712289529	-0.9690995674	 0.087765
H	 0.5276630931	-0.1480125791	 1.8304328651	 0.291167
H	-1.8910889017	-0.0088535085	-2.0817259069	 0.118516
H	-3.3018531892	-0.4459959209	-1.1041862442	 0.124571
H	-2.5360854574	 1.129503216	-0.8857434471	 0.138883
H	-2.0931342308	-2.5926089816	-0.6688649322	 0.104418
H	-0.5070580543	-2.5625324006	 0.181448	 0.129201
H	-2.3532011707	-2.5559559079	 2.126707151	 0.249422
78.1173	123.658	148.6293	213.7276	233.0419	240.8756	290.3898	347.7991	366.6227	383.9213	435.9554	458.3655	518.2058	553.0978	691.9774	753.1633	771.8673	867.6113	888.0039	940.28	969.2604	998.2413	1030.0818	1080.0152	1102.6393	1156.157	1167.027	1190.0281	1226.2189	1259.564	1287.6743	1314.7759	1353.412	1389.3604	1403.1888	1415.6983	1425.9758	1490.8019	1494.6019	1503.7306	1506.6459	1516.9052	1868.0182	3023.6533	3032.2182	3041.933	3051.7132	3097.8638	3112.3944	3117.0999	3119.7689	3125.1264	3600.8599	3786.8851
CC(O)C1(C)CNC1=O	C[C@@H](O)[C@@]1(C)CNC1=O	
InChI=1S/C6H11NO2/c1-4(8)6(2)3-7-5(6)9/h4,8H,3H2,1-2H3,(H,7,9)	InChI=1S/C6H11NO2/c1-4(8)6(2)3-7-5(6)9/h4,8H,3H2,1-2H3,(H,7,9)/t4-,6-/m1/s1
