19
gdb 28930	2.86701	1.46645	1.03141	4.1173	81.28	-0.2104	0.0334	0.2437	1168.8044	0.16102	-382.097371	-382.089076	-382.088132	-382.130584	31.214	
C	 0.4077336883	 1.3444110229	 0.2110281879	-0.497819
C	 0.0371524299	-0.0894926397	 0.0426838262	 0.267146
C	-0.1263225272	-0.8659812281	-1.0755971709	-0.163935
N	-0.494019064	-2.1505889933	-0.7445577515	-0.278353
C	-0.5578105381	-2.155606573	 0.5641044174	-0.004371
N	-0.2360456059	-0.9387465326	 1.1074055236	-0.044998
C	-0.2786575455	-0.5826490852	 2.4940421552	 0.021664
C	 0.2464656709	-1.5526849993	 3.5175310229	-0.281708
C	 1.003464802	-0.2813431751	 3.229947504	-0.263736
H	 1.3348349614	 1.4738855383	 0.7815589157	 0.130315
H	 0.5547688821	 1.7982813448	-0.7718950029	 0.136742
H	-0.3710733349	 1.9182229414	 0.7282275108	 0.126472
H	 0.0067696874	-0.565193916	-2.104652293	 0.101293
H	-0.8273847745	-2.9959783222	 1.1859129898	 0.123876
H	-1.1517591578	 0.0011218947	 2.773630039	 0.111702
H	-0.2978166863	-1.6402606847	 4.4503905107	 0.126246
H	 0.6770924193	-2.4789280189	 3.1568382552	 0.134221
H	 1.927176011	-0.3715580682	 2.6705853162	 0.13187
H	 0.989562842	 0.5161055743	 3.9637569635	 0.123372
72.599	124.9211	155.8173	175.8247	249.7159	303.3648	379.4351	481.3035	605.5325	654.0139	680.2849	695.5774	787.5672	811.656	834.3324	838.9722	907.1561	932.7075	962.814	1006.3632	1063.6752	1066.055	1086.864	1094.213	1130.9418	1146.2841	1193.8482	1199.7628	1224.013	1264.2409	1299.69	1345.4184	1390.8532	1420.1877	1437.5836	1462.6429	1478.5723	1486.3253	1500.2638	1529.1977	1603.8582	3021.8629	3067.3833	3120.5013	3133.2253	3143.8117	3149.7766	3227.8789	3237.9855	3241.3834	3251.5145
CC1=CN=CN1C1CC1	Cc1cncn1C1CC1	
InChI=1S/C7H10N2/c1-6-4-8-5-9(6)7-2-3-7/h4-5,7H,2-3H2,1H3	InChI=1S/C7H10N2/c1-6-4-8-5-9(6)7-2-3-7/h4-5,7H,2-3H2,1H3
