13
gdb 20342	5.26244	2.11997	1.52545	3.2067	64.87	-0.2225	-0.0215	0.201	763.3916	0.098036	-361.456598	-361.451069	-361.450125	-361.48607	21.87	
C	-0.0646042198	 1.4992646413	 0.0108354497	-0.420385
C	 1.4083780094	 1.9016714559	-0.0011191285	-0.087667
C	 2.2173552918	 0.8223810029	-0.0148983555	-0.207048
C	 1.3838189936	-0.3812214973	-0.0134500416	 0.177978
C	 0.0792755953	 0.013049154	 0.0012824542	 0.384135
O	-0.7565995717	-1.0175575288	 0.003719333	-0.224991
N	 0.028437925	-2.1943039788	-0.0104788914	-0.142226
C	 1.2844373246	-1.7946697909	-0.0201981595	-0.134501
H	-0.5897391491	 1.8727420479	 0.8985704444	 0.150433
H	-0.606696165	 1.8824364138	-0.8624592299	 0.150435
H	 1.7238856234	 2.9362613718	 0.0015612288	 0.108819
H	 3.2988105659	 0.8404499035	-0.0252246777	 0.111171
H	 2.0550711765	-2.5526820152	-0.0317905062	 0.133846
202.8609	267.0335	429.9436	438.7395	621.9673	640.6718	666.7194	721.2197	730.8957	843.9693	872.1965	903.3912	925.3445	933.7969	944.5194	979.3715	1084.6205	1131.9881	1169.6893	1200.2171	1231.4726	1322.7762	1378.6631	1426.5012	1433.0041	1515.1957	1581.5619	1620.5384	3041.6548	3073.523	3217.2382	3238.7882	3242.58
C1C=CC2=C1ON=C2	C1C=Cc2c1onc2	
InChI=1S/C6H5NO/c1-2-5-4-7-8-6(5)3-1/h1-2,4H,3H2	InChI=1S/C6H5NO/c1-2-5-4-7-8-6(5)3-1/h1-2,4H,3H2
