15
gdb 129063	4.09796	1.46559	1.0985	4.7725	78.73	-0.2252	-0.0486	0.1766	1044.6607	0.115641	-412.973447	-412.966533	-412.965589	-413.00517	26.177	
N	-0.043196727	 1.2950669104	-0.0375948781	-0.501457
C	-0.0397314433	 0.0176181921	 0.0330669649	 0.293648
C	 1.1965601669	-0.8116605254	 0.0925095497	-0.040531
N	 1.2512140267	-2.1028366789	-0.0029736926	-0.206382
N	 0.0254935702	-2.6352195539	-0.1889582749	 0.001105
C	-0.5680141389	-3.9681658809	-0.0030855457	-0.166086
C	-1.9540999743	-3.2231158056	 0.0527980493	-0.367121
C	-1.1377047838	-1.9399414208	-0.0244335582	 0.438783
N	-1.273957829	-0.6776127502	 0.1025304982	-0.370171
H	 0.9160658478	 1.645296525	-0.0686797403	 0.210906
H	 2.1471328245	-0.3062748398	 0.2432242391	 0.127392
H	-0.4067669417	-4.646713059	-0.8434191381	 0.137143
H	-0.2741811119	-4.4481713059	 0.9339822727	 0.140482
H	-2.6113363637	-3.4035318837	-0.7989205465	 0.150207
H	-2.5107463825	-3.3508041234	 0.9819270508	 0.152083
87.0773	122.9637	220.1107	362.1051	442.4835	496.7804	522.3033	575.056	651.5073	740.3952	763.207	803.1203	855.836	868.4006	899.9029	928.6776	951.4698	1055.4707	1082.7738	1138.0313	1144.5941	1178.7778	1197.9575	1248.206	1296.9935	1321.276	1350.1093	1418.3692	1467.1942	1516.461	1584.7645	1676.3595	1728.2777	3065.9634	3096.1656	3122.1252	3154.535	3166.7863	3457.7953
N=C1C=NN2CCC2=N1	[NH]c1cnn2CCc2n1	
InChI=1S/C5H6N4/c6-4-3-7-9-2-1-5(9)8-4/h3,6H,1-2H2	InChI=1S/C5H11N4/c6-4-3-7-9-2-1-5(9)8-4/h4-8H,1-3H2
