19
gdb 70694	2.17597	1.97596	1.29848	2.3945	77.03	-0.2365	0.0164	0.2529	1033.5999	0.160496	-419.195734	-419.187548	-419.186604	-419.228651	31.607	
C	 0.1851469893	 1.5034779331	 0.007846511	-0.447975
C	-0.0184791561	 0.0030547507	-0.0039021689	 0.241373
C	-0.9074389227	-0.6415362636	 1.0095663973	-0.270755
N	 0.5425589852	-0.7358037888	 1.14410708	-0.13896
C	 1.1529017393	-2.0382406539	 0.8457088463	-0.16552
C	 1.7856779728	-2.0067090161	-0.5306169593	-0.086989
O	 0.7936306795	-1.7435776684	-1.5327406665	-0.251529
C	 0.0281811071	-0.6241530591	-1.3726919603	 0.331182
N	-0.6341254123	-0.1291195771	-2.3304803501	-0.52048
H	 1.1756910179	 1.7669196015	-0.377646581	 0.11701
H	-0.5632739072	 1.9851901012	-0.6252921449	 0.148484
H	 0.1035107593	 1.8833955739	 1.0289567295	 0.120529
H	-1.4150802609	-0.0213767452	 1.7440435556	 0.118763
H	-1.451903434	-1.5363436379	 0.7124224107	 0.118028
H	 1.9162258507	-2.2513955515	 1.6028911903	 0.115166
H	 0.4144799334	-2.8503885853	 0.8811100493	 0.109307
H	 2.5701842376	-1.2400409388	-0.5786926971	 0.118931
H	 2.2258367768	-2.9701412168	-0.7969952212	 0.123487
H	-0.4738602956	-0.6688659378	-3.1836384706	 0.219948
47.0196	175.6507	209.2691	241.4868	297.267	322.2012	419.9493	449.442	481.8488	511.1594	618.7789	687.0549	703.0946	759.1822	854.0748	904.2957	913.2447	934.1646	964.5232	987.7493	1036.4117	1072.7391	1105.7121	1114.5117	1136.4572	1145.0953	1177.2728	1224.3546	1254.6357	1288.154	1344.029	1370.2271	1383.1085	1407.467	1426.5057	1481.5495	1493.2096	1495.7184	1505.6188	1518.3325	1745.2692	3012.9274	3024.8756	3043.2559	3061.6495	3092.4498	3110.8213	3112.7898	3139.6389	3180.1968	3463.3097
CC12CN1CCOC2=N	C[C@]12CN1CCO[C]2[NH]	
InChI=1S/C6H10N2O/c1-6-4-8(6)2-3-9-5(6)7/h7H,2-4H2,1H3	InChI=1S/C6H10N2O/c1-6-4-8(6)2-3-9-5(6)7/h7H,2-4H2,1H3/t6-,8?/m1/s1
