15
gdb 29065	2.7617	1.73351	1.06501	2.4767	85.01	-0.2205	-0.0784	0.1421	1053.5081	0.115369	-416.846577	-416.839632	-416.838688	-416.878179	27.049	
O	 0.0370958214	 1.3274448373	 0.0075894246	-0.379465
C	-0.0159202761	 0.0077970831	 0.0009703905	 0.374336
C	-1.2343309003	-0.6161874046	 0.005010825	-0.207293
C	-1.4839659547	-2.005786399	-0.0007806546	-0.053113
C	-0.5886563552	-3.0403304419	-0.0115976246	-0.127846
C	 0.8324113369	-2.9475626949	-0.0196701898	 0.01654
N	 1.65786906	-1.9427107167	-0.0193535252	-0.334877
C	 1.3509467404	-0.6038518216	-0.0104502526	 0.266308
N	 2.2662559913	 0.3074897368	-0.0111522845	-0.548268
H	 1.0244953103	 1.5022819924	 0.0025953413	 0.319161
H	-2.0922635813	 0.0482782741	 0.0136559555	 0.113429
H	-2.5363752712	-2.2801053902	 0.0041107698	 0.115165
H	-0.9852151881	-4.050602218	-0.0145159571	 0.100166
H	 1.3380401066	-3.9170459796	-0.0278222244	 0.112739
H	 3.1959882701	-0.1048368573	-0.0189120737	 0.233019
79.3949	181.1912	366.8152	384.6561	386.7516	408.1183	449.2867	544.6736	594.1251	680.8923	760.0773	773.296	805.0153	847.7324	906.4812	910.4906	914.0866	954.1071	1000.3546	1018.3807	1056.4471	1127.9622	1246.1338	1272.4034	1354.4908	1385.9461	1456.1282	1475.2181	1511.6433	1546.306	1619.2643	1665.557	1679.2807	3088.2295	3139.0421	3154.8484	3181.2983	3188.4758	3526.5421
OC1=CC=CC=NC1=N	OC1=C[CH]C=CN=C1[NH]	
InChI=1S/C6H6N2O/c7-6-5(9)3-1-2-4-8-6/h1-4H,(H2,7,8,9)	InChI=1S/C6H6N2O/c7-6-5(9)3-1-2-4-8-6/h1-4H,(H2,7,8,9)
