18
gdb 117141	4.10686	0.85788	0.71923	4.1023	71.99	-0.2655	-0.0136	0.2519	1546.3062	0.145675	-476.294779	-476.284634	-476.28369	-476.33123	34.334	
C	 0.0331038534	 1.5055035668	 0.1544820598	-0.394155
C	 0.0039794421	-0.0046991809	 0.031413081	-0.042218
O	 0.69808895	-0.5472248418	 1.1768980703	-0.2634
C	 0.7594715546	-1.8872976231	 1.2254541483	 0.542245
O	 0.287201099	-2.6321353907	 0.4006546821	-0.398787
N	 1.4482696534	-2.2977615838	 2.367524278	-0.194772
C	 1.9980316204	-1.3440687553	 3.3305499069	-0.346345
C	 1.6117569376	-3.6640285344	 2.587862805	 0.171084
O	 2.190216457	-4.1225158131	 3.5426223135	-0.317315
H	 1.0610919671	 1.8781695373	 0.1676609443	 0.132552
H	-0.484485349	 1.9531920739	-0.6988433096	 0.129272
H	-0.4656092448	 1.8339889781	 1.0705495608	 0.132548
H	-1.0164907523	-0.3985833524	 0.021348603	 0.129932
H	 0.5019141923	-0.3543789668	-0.8777093617	 0.129705
H	 1.2049001521	-0.7281395074	 3.7595359237	 0.141889
H	 2.4778448318	-1.9314615074	 4.1123899196	 0.169376
H	 2.7301536443	-0.6906403519	 2.8515389296	 0.1419
H	 1.151044571	-4.2603628471	 1.7890870055	 0.136488
30.0223	78.5027	121.0627	132.5392	137.6311	203.6689	262.9846	290.9811	322.1114	333.3059	365.5856	453.5702	563.005	780.5373	783.3966	808.6184	871.8632	900.0589	1027.5403	1056.0583	1083.8441	1133.7598	1158.3281	1183.6508	1198.2882	1291.9781	1308.9016	1341.5882	1399.8992	1419.4997	1425.0081	1457.3289	1485.7642	1496.1656	1498.4721	1508.6449	1521.818	1801.6646	1823.152	3048.0886	3058.6408	3061.3115	3064.1718	3097.7829	3123.6226	3129.1777	3129.7524	3170.6573
CCOC(=O)N(C)C=O	CCOC(=O)N(C)C=O	
InChI=1S/C5H9NO3/c1-3-9-5(8)6(2)4-7/h4H,3H2,1-2H3	InChI=1S/C5H9NO3/c1-3-9-5(8)6(2)4-7/h4H,3H2,1-2H3
