20
gdb 13284	6.37199	0.85116	0.80192	2.1166	72.38	-0.2433	0.0841	0.3274	1466.9776	0.176101	-386.109508	-386.100407	-386.099462	-386.144605	31.317	
C	 0.1785474982	 1.4614045592	 0.0512031364	-0.384443
C	 0.0350263176	-0.0493707448	-0.0178593593	-0.027957
O	 0.6722038757	-0.5101720448	-1.1928641554	-0.247172
C	 0.6016678878	-1.9080476749	-1.3594874448	-0.066647
C	 1.3458497471	-2.2737154466	-2.6282907174	-0.044678
C	 2.8835094155	-2.166911853	-2.5495867191	-0.069395
O	 3.0315214012	-3.602054234	-2.6291747851	-0.272798
C	 1.6153288298	-3.780894691	-2.8274055876	-0.090195
H	 1.2344145254	 1.7456434259	 0.0740390296	 0.127103
H	-0.2835252517	 1.9310635127	-0.8217536704	 0.126824
H	-0.3056082312	 1.8497216588	 0.9521720944	 0.11541
H	 0.4877253448	-0.5229137235	 0.86991178	 0.086804
H	-1.0300201198	-0.3376010853	-0.0263111936	 0.085557
H	 1.0547903149	-2.4254720959	-0.4950229459	 0.089385
H	-0.4494708069	-2.2415895881	-1.4207962054	 0.084777
H	 0.8937114457	-1.7631646168	-3.4809551222	 0.085951
H	 3.3640020212	-1.6592610205	-3.3951436575	 0.099156
H	 3.283197032	-1.7582514674	-1.6139628852	 0.105582
H	 1.1747014967	-4.4524491412	-2.0782432699	 0.097839
H	 1.3848194061	-4.1699038688	-3.8275283715	 0.098898
50.6954	68.2566	91.4897	123.2335	159.521	247.632	287.8788	325.708	450.8439	482.9993	796.706	822.8286	873.2484	886.6441	901.0879	925.9679	976.6119	1030.8967	1040.6739	1071.667	1112.9172	1146.7183	1153.3775	1161.0181	1162.1452	1184.4513	1209.3986	1246.0693	1281.2037	1298.0799	1309.241	1345.755	1385.4799	1394.9659	1409.3727	1452.9955	1483.6506	1499.4399	1510.732	1516.2066	1535.8113	1541.0363	2937.7373	2956.6015	2967.1857	2978.5071	3002.3607	3018.6299	3042.6872	3045.226	3060.2683	3094.134	3119.9035	3121.7191
CCOCC1COC1	CCOCC1COC1	
InChI=1S/C6H12O2/c1-2-7-3-6-4-8-5-6/h6H,2-5H2,1H3	InChI=1S/C6H12O2/c1-2-7-3-6-4-8-5-6/h6H,2-5H2,1H3
