13
gdb 133250	3.10855	1.51186	1.02375	3.7706	69.61	-0.245	-0.0669	0.1781	1064.829	0.088665	-490.153541	-490.145888	-490.144944	-490.18634	27.325	
C	 0.0355819581	 1.4038768371	 0.0718057038	-0.305577
N	 0.0330256858	-0.0503518237	 0.0352023069	 0.104535
N	-0.08224662	-0.6422902361	-1.1523410892	-0.058365
N	-0.09035672	-1.9087363593	-1.2393183482	-0.265757
C	 0.0225576523	-2.7193519388	-0.0804103506	 0.242488
N	 0.0215217404	-3.9932114345	-0.1019107518	-0.504912
C	 0.141975391	-1.9660306991	 1.1614628932	 0.34922
F	 0.2507067213	-2.6245130785	 2.2890975157	-0.014833
N	 0.1480502677	-0.6878642241	 1.2277946026	-0.270411
H	 0.9719877812	 1.762933283	 0.5062341522	 0.158591
H	-0.0635421777	 1.7541176988	-0.9540211615	 0.171663
H	-0.8009810789	 1.7617987154	 0.6772470242	 0.158584
H	-0.0720740811	-4.3066060002	-1.0718064673	 0.234774
68.2223	110.2173	170.7711	307.5251	329.6737	349.2181	416.6845	494.5465	553.1711	575.4494	584.2612	717.587	794.8445	849.8073	914.3002	966.787	1033.2452	1082.4031	1153.0525	1257.5421	1278.0701	1339.4113	1437.1155	1448.4946	1475.4422	1506.6444	1511.8497	1662.8821	1716.31	3056.7862	3124.7097	3182.3765	3450.1015
CN1N=NC(=N)C(F)=N1	Cn1nnc([NH])c(F)n1	
InChI=1S/C3H4FN5/c1-9-7-2(4)3(5)6-8-9/h5H,1H3	InChI=1S/C3H9FN5/c1-9-7-2(4)3(5)6-8-9/h2-3,5-8H,1H3
