19
gdb 94689	2.44361	1.63178	1.19927	2.1216	70.51	-0.2346	0.0686	0.3032	1068.4375	0.158336	-460.151936	-460.14308	-460.142136	-460.184673	34.932	
O	-0.091094739	 1.4324878737	-0.0058662362	-0.446023
C	-0.0160124591	 0.0122910143	-0.0056698135	 0.062334
C	 0.706272547	-0.5882590628	 1.227124928	-0.278809
C	 0.040833288	-1.9623630866	 1.4761918782	-0.266205
C	-1.3740177817	-1.7871928096	 0.9522406137	 0.403124
O	-2.070369392	-2.9426485794	 0.616115451	-0.489971
C	-2.1368167561	-0.5455864685	 1.3796714536	-0.415021
C	-1.402797208	-0.5869504547	 0.0502206806	 0.324999
O	-2.1381541607	-0.7083251991	-1.1304831189	-0.488917
H	 0.7971093855	 1.7802770376	-0.1332980641	 0.283102
H	 0.4536354768	-0.3429762986	-0.9364011911	 0.072564
H	 1.7864967403	-0.6688887928	 1.0778538154	 0.097082
H	 0.5450407933	 0.086319629	 2.0739049661	 0.11425
H	 0.5238834063	-2.7487113633	 0.8858592125	 0.109106
H	 0.0833509331	-2.2665390633	 2.5268453106	 0.105282
H	-2.5110627437	-2.7622230402	-0.2252662478	 0.29044
H	-3.2152826617	-0.6362383537	 1.3080595525	 0.111666
H	-1.7801198364	 0.0957501025	 2.1784227857	 0.116447
H	-2.585485812	 0.1280656757	-1.2979579364	 0.294552
117.5901	199.8587	207.9149	250.4971	277.6289	300.5851	308.3202	364.6221	404.5077	463.0568	470.1305	515.4721	593.443	618.7292	695.9526	755.7347	854.8736	889.6453	915.3107	935.719	967.95	986.9299	1024.5486	1074.8069	1090.1174	1102.1312	1186.3531	1196.9038	1218.8122	1223.584	1267.3266	1293.681	1304.9804	1327.9768	1353.412	1402.4838	1409.622	1439.9219	1485.2906	1492.3217	1513.8346	2980.0367	3043.5618	3055.0599	3082.5341	3102.3504	3131.1912	3223.8478	3756.0963	3805.6613	3818.361
OC1CCC2(O)CC12O	O[C@H]1CC[C@@]2(O)C[C@@]12O	
InChI=1S/C6H10O3/c7-4-1-2-5(8)3-6(4,5)9/h4,7-9H,1-3H2	InChI=1S/C6H10O3/c7-4-1-2-5(8)3-6(4,5)9/h4,7-9H,1-3H2/t4-,5+,6+/m0/s1
