18
gdb 75556	2.08869	1.66917	1.1128	4.6383	78.66	-0.2586	-0.0007	0.2579	1134.6556	0.148353	-401.972529	-401.964043	-401.963099	-402.005768	31.491	
C	-0.010172038	 1.5251857667	 0.0682065481	-0.485665
C	 0.0031608578	 0.0267137598	-0.0199061743	 0.301898
C	-0.0398849228	-0.6577540388	-1.1617207665	-0.158678
C	 0.0165541019	-2.1568770457	-1.2389164354	-0.123071
O	 0.3428395949	-2.7735404125	-0.0079676578	-0.237515
C	-0.3535790425	-2.2113871448	 1.0762959432	-0.100328
C	 0.0613076533	-0.7404053756	 1.2990276039	-0.241144
C	 1.3945331487	-0.6358641685	 1.9053320967	 0.283497
N	 2.4425496223	-0.5405421772	 2.383553169	-0.329227
H	 0.8808146333	 1.8936803154	 0.5911510462	 0.150307
H	-0.0372931003	 1.9824162877	-0.9238453183	 0.128521
H	-0.8794410474	 1.882560321	 0.635321227	 0.126297
H	-0.1254051068	-0.1328919083	-2.1103251429	 0.097588
H	-0.9457975951	-2.5460700899	-1.6203746835	 0.10334
H	 0.78880834	-2.4725863606	-1.9495903656	 0.130552
H	-1.4422123277	-2.235819335	 0.9082358072	 0.099239
H	-0.1217917475	-2.8210017734	 1.9524969087	 0.130438
H	-0.647108744	-0.2877036803	 2.0071072644	 0.123952
73.9165	136.3882	178.3658	195.5411	270.6452	313.876	329.4653	405.1353	445.1439	479.1262	592.6077	650.0849	713.5155	826.938	850.3504	862.659	923.5247	974.0121	1033.1086	1037.1543	1046.0846	1073.5666	1117.4524	1166.8048	1178.2003	1249.885	1274.4151	1301.3297	1332.0557	1347.4776	1383.3133	1415.3621	1422.3309	1477.747	1484.2097	1490.953	1497.5489	1750.5737	2353.9739	2935.7838	2980.049	3015.3562	3019.8194	3059.1623	3070.1778	3106.3106	3119.318	3158.6166
CC1=CCOCC1C#N	CC1=CCOC[C@H]1C#N	
InChI=1S/C7H9NO/c1-6-2-3-9-5-7(6)4-8/h2,7H,3,5H2,1H3	InChI=1S/C7H9NO/c1-6-2-3-9-5-7(6)4-8/h2,7H,3,5H2,1H3/t7-/m1/s1
