14
gdb 20594	3.35026	1.87899	1.27185	2.81	60.	-0.2616	-0.0373	0.2243	908.7465	0.106316	-415.839817	-415.832121	-415.831177	-415.872304	27.078	
C	-0.0240410211	 1.4870714606	-0.1852737806	-0.502031
C	-0.0831509244	 0.0095911302	-0.0371861277	 0.337758
C	-1.1209984266	-0.8782674528	 0.0260685297	 0.127224
C	-2.6023230289	-0.6590620833	-0.0409322452	-0.181749
O	-2.9805825458	 0.2556957593	-1.0628037505	-0.405833
N	-0.5576867532	-2.1277426489	 0.1585762148	-0.167132
N	 0.6965417149	-2.0607533459	 0.1853245415	-0.021218
O	 1.055675101	-0.6769064851	 0.0561726988	-0.209232
H	 0.6935925817	 1.7690133237	-0.9613545715	 0.15452
H	-1.0120580563	 1.8616860432	-0.4558604456	 0.167387
H	 0.297394891	 1.960564257	 0.7486972107	 0.155286
H	-3.0904912107	-1.6362631714	-0.1539166228	 0.12541
H	-2.9759803229	-0.2162524607	 0.8885506537	 0.131322
H	-2.7084764687	-0.1212801159	-1.9065719952	 0.288287
61.2532	146.1555	168.7818	233.5949	262.3521	358.2815	373.8043	444.6833	646.3958	658.8644	681.1742	711.0267	759.2371	967.4322	1003.075	1029.1559	1060.4975	1070.3068	1175.114	1225.4464	1252.5023	1355.2658	1402.8847	1416.3252	1424.3068	1462.1194	1482.6539	1489.9501	1502.3513	1638.0489	3021.9921	3045.1019	3071.8107	3104.8533	3152.9975	3807.3817
CC1=C(CO)N=NO1	Cc1c(CO)nno1	
InChI=1S/C4H6N2O2/c1-3-4(2-7)5-6-8-3/h7H,2H2,1H3	InChI=1S/C4H6N2O2/c1-3-4(2-7)5-6-8-3/h7H,2H2,1H3
