15
gdb 65459	3.40886	0.98681	0.92627	4.8019	69.89	-0.2596	0.0057	0.2652	1271.0209	0.108498	-457.719045	-457.709842	-457.708898	-457.753243	33.083	
O	-0.5670303656	 1.2455399189	-0.2865190654	-0.434397
C	-0.1777519523	-0.0673589337	-0.0115343589	 0.152966
C	-0.3861731589	-0.5907742132	 1.4060565506	-0.366645
C	-1.338244562	-0.9954815045	 0.3250234367	 0.065883
O	-2.6296596718	-0.4580575298	 0.4121889083	-0.193194
C	-3.1836417656	-0.0001733585	-0.7426160752	 0.185456
O	-4.2903710851	 0.4397161919	-0.775553401	-0.271164
C	 0.9130681893	-0.5844490058	-0.7954019562	 0.30778
C	 1.8370294737	-0.9998942568	-1.4435910962	-0.460707
H	 0.145223749	 1.8363408456	-0.0171304943	 0.298051
H	 0.3038784254	-1.3267279754	 1.8000767115	 0.136229
H	-0.7685135625	 0.1393278223	 2.110261345	 0.146444
H	-1.2983725734	-2.0084981985	-0.0636248061	 0.128561
H	-2.5049066315	-0.0899344272	-1.6078935883	 0.098761
H	 2.6469428414	-1.3673529053	-2.0244094708	 0.205976
82.0855	95.7333	140.6434	173.911	219.6875	255.1846	286.061	347.1255	434.0096	464.4494	549.1092	586.8002	607.4508	639.0671	689.075	740.6607	839.0012	899.9976	916.2212	1041.2245	1047.047	1065.366	1104.2324	1142.6365	1175.1795	1246.2745	1250.2352	1340.734	1393.0339	1426.2101	1464.8791	1875.0356	2233.1659	2998.9992	3146.3018	3157.3818	3247.3653	3499.9734	3803.4282
OC1(CC1OC=O)C#C	O[C@]1(C[C@H]1OC=O)C#C	
InChI=1S/C6H6O3/c1-2-6(8)3-5(6)9-4-7/h1,4-5,8H,3H2	InChI=1S/C6H6O3/c1-2-6(8)3-5(6)9-4-7/h1,4-5,8H,3H2/t5-,6+/m1/s1
