15
gdb 9053	4.47479	1.00881	0.85959	4.6633	68.91	-0.2766	-0.0032	0.2734	1276.2434	0.115537	-362.621115	-362.612086	-362.611142	-362.655902	31.008	
C	 0.0301617055	 1.5063289934	-0.025969066	-0.399947
C	-0.0002975142	-0.0283882066	 0.0228171934	-0.03894
O	 0.7027732365	-0.5426934065	 1.1615174568	-0.247349
C	 2.1023069953	-0.5274603416	 1.0167201747	-0.190665
C	 2.7020518861	-1.2452710975	 2.1453914924	 0.27202
N	 3.2085793575	-1.8007063686	 3.0214137718	-0.290817
C	-1.3690461693	-0.53212779	 0.0937546042	 0.319223
C	-2.5059953788	-0.9161008075	 0.128245333	-0.423369
H	 1.0538435545	 1.8773439823	-0.1291772022	 0.120107
H	-0.5471344564	 1.8636966958	-0.8825461758	 0.138579
H	-0.4068054149	 1.9148697055	 0.8880716701	 0.146385
H	 0.4718926258	-0.427365378	-0.8907583122	 0.1033
H	 2.4171239159	-1.0206301494	 0.0822786708	 0.141247
H	 2.5151433713	 0.4927412587	 1.002113598	 0.143741
H	-3.5075857147	-1.2682050099	 0.1646301609	 0.206486
31.4466	79.259	115.6246	191.4824	209.5179	247.2169	326.4485	382.4778	409.1671	470.5888	541.1947	610.8656	633.805	682.0956	831.8179	917.5422	955.6213	1032.2681	1055.3319	1098.3344	1114.5483	1144.2475	1252.984	1341.1925	1353.9215	1401.8123	1424.1104	1486.9602	1489.418	1500.4747	2247.8096	2374.6438	2961.7631	2975.656	3007.9107	3050.2691	3123.0326	3139.5103	3502.2965
CC(OCC#N)C#C	C[C@@H](OCC#N)C#C	
InChI=1S/C6H7NO/c1-3-6(2)8-5-4-7/h1,6H,5H2,2H3	InChI=1S/C6H7NO/c1-3-6(2)8-5-4-7/h1,6H,5H2,2H3/t6-/m1/s1
