16
gdb 24489	3.83238	1.63995	1.15664	2.4865	85.19	-0.2253	-0.0299	0.1953	1008.3244	0.128588	-363.695294	-363.689073	-363.688129	-363.725663	25.628	
C	-0.050766815	 1.5215123868	 0.0105745135	-0.3976
C	 1.4175945317	 1.8865511739	-0.0013095584	-0.086213
C	 2.1888481247	 0.7867418661	-0.0145133741	-0.156956
C	 1.3336306658	-0.4035356508	-0.0129301951	 0.304073
N	 1.7377693168	-1.672838868	-0.0236114823	-0.356359
C	 0.7593681168	-2.5890030748	-0.0193240796	-0.029887
C	-0.6003389277	-2.2855649742	-0.0048457477	-0.110364
C	-1.005030344	-0.9463782328	 0.0062364241	-0.219803
C	-0.0141037591	 0.0154468803	 0.0020862327	 0.268037
H	-0.5639070297	 1.9234308634	 0.8948179677	 0.133321
H	-0.5804878285	 1.93293417	-0.859403605	 0.13332
H	 1.765045241	 2.9117659445	 0.0009589567	 0.106397
H	 3.2700327997	 0.7452240567	-0.0249205913	 0.111281
H	 1.0813741954	-3.6277301319	-0.0280005241	 0.102933
H	-1.3315815817	-3.086026179	-0.0022830636	 0.097788
H	-2.0589220863	-0.6841543403	 0.0176047463	 0.100032
195.4064	221.295	398.7932	410.0795	430.6475	549.6865	575.6778	617.2482	726.7749	735.7088	796.3644	822.9008	845.7183	883.0469	940.7481	951.521	971.2996	978.0334	985.6084	1062.3606	1084.056	1135.7453	1143.8159	1186.7804	1233.4367	1259.337	1304.737	1330.0972	1389.8184	1426.5807	1443.8082	1497.6781	1599.271	1631.927	1640.7054	3021.5779	3047.182	3153.1764	3170.0326	3198.6111	3211.2704	3235.0036
C1C=CC2=NC=CC=C12	C1C=Cc2ncccc12	
InChI=1S/C8H7N/c1-3-7-4-2-6-9-8(7)5-1/h1-2,4-6H,3H2	InChI=1S/C8H7N/c1-3-7-4-2-6-9-8(7)5-1/h1-2,4-6H,3H2
