23
gdb 96479	2.18269	1.49877	1.10313	1.0753	88.09	-0.2256	0.025	0.2505	1234.1073	0.206582	-388.303153	-388.293835	-388.292891	-388.336807	35.956	
C	-0.3389215886	 1.3721239351	 0.07690072	-0.383592
C	 0.0268474453	-0.1218231696	-0.0335354334	-0.081204
C	 0.643518099	-0.4401320832	-1.4040826211	-0.085243
O	 1.7988456244	 0.3069435583	-1.7295832793	-0.240459
C	 2.9918603917	-0.1636742546	-1.1340400472	-0.066987
C	 3.151064668	 0.2152975011	 0.3395142834	-0.258511
C	 2.1710701499	-0.4092639082	 1.3046389108	-0.156239
C	 0.8506331881	-0.5713184161	 1.1671195971	 0.313378
C	 0.0385301282	-1.1893019591	 2.2794424097	-0.476553
H	 0.5511291101	 1.994877237	-0.0399450187	 0.132424
H	-1.0516303319	 1.6553051549	-0.7053797372	 0.109236
H	-0.7929954314	 1.5989778276	 1.0460006998	 0.110999
H	-0.9122085188	-0.6930529047	-0.0099113943	 0.069429
H	 0.85985917	-1.5185792072	-1.4702563196	 0.08342
H	-0.0906351095	-0.1961915608	-2.181184306	 0.097389
H	 3.0618319447	-1.2582798783	-1.245124275	 0.085327
H	 3.8074479761	 0.285971446	-1.7111316085	 0.099359
H	 4.1680797767	-0.0672372627	 0.639012452	 0.097527
H	 3.1132977671	 1.3116969752	 0.417631021	 0.116535
H	 2.6094351332	-0.7362445694	 2.2461457686	 0.07406
H	 0.6490304775	-1.4154784805	 3.1575801869	 0.117284
H	-0.773898723	-0.5206974061	 2.5936813204	 0.121797
H	-0.441113407	-2.1200047946	 1.9485719606	 0.120624
78.6289	153.2084	204.8953	209.661	219.0861	257.6838	304.6589	343.8738	346.3035	396.7021	471.4774	571.3255	610.6291	654.9301	727.7508	825.7661	848.022	879.0375	923.6659	956.8179	978.6531	1015.844	1022.7511	1063.1652	1079.3393	1113.696	1129.5437	1139.0044	1157.1616	1181.4933	1239.8174	1299.2295	1322.7873	1341.0574	1361.5172	1373.6351	1385.2956	1397.5715	1412.2905	1416.7904	1434.1197	1466.3567	1479.5303	1480.041	1490.0842	1491.8389	1498.3802	1502.0404	1734.24	2968.2603	2974.6365	3002.1092	3004.0488	3011.3104	3036.2524	3049.0354	3054.0537	3054.5347	3064.7206	3101.025	3109.1478	3125.6543	3132.7263
CC1COCCC=C1C	C[C@H]1COCCC=C1C	
InChI=1S/C8H14O/c1-7-4-3-5-9-6-8(7)2/h4,8H,3,5-6H2,1-2H3	InChI=1S/C8H14O/c1-7-4-3-5-9-6-8(7)2/h4,8H,3,5-6H2,1-2H3/t8-/m0/s1
