15
gdb 48397	2.3215	1.69848	1.20153	2.5876	69.77	-0.2623	-0.061	0.2013	1021.3348	0.111991	-416.770252	-416.762303	-416.761359	-416.803084	28.962	
O	-0.1352189086	 0.0820909722	-0.3833717618	-0.239429
C	 0.0035488133	 1.1751376737	 0.0957977358	 0.117373
C	 1.3227927822	 1.9466765697	 0.0429098864	 0.039783
C	 2.5782384303	 1.2170457129	-0.5292670543	-0.213896
N	 2.7097138518	 2.185092047	-1.6730291599	-0.11219
C	 1.4631986323	 2.0696970751	-2.4491351906	-0.251418
C	 1.4462737301	 2.8664472175	-1.2067956278	-0.073129
C	 1.5445118868	 2.6479027817	 1.296549173	 0.232747
N	 1.6886235626	 3.1955049896	 2.3045365348	-0.321744
H	-0.8353385975	 1.7221335623	 0.5734968969	 0.115523
H	 3.4453526666	 1.2820452611	 0.1265847428	 0.147056
H	 2.3986099341	 0.1821332357	-0.8283067238	 0.144128
H	 1.4949175932	 2.6268817029	-3.3797542813	 0.139324
H	 0.9493030124	 1.1136517951	-2.4974168672	 0.147691
H	 1.3381436004	 3.9443111234	-1.1670886128	 0.128181
81.2912	134.8829	167.2698	189.0063	240.3207	355.0436	463.7771	493.9302	527.4771	560.8137	655.4389	753.6184	788.4658	850.8637	906.8168	928.4821	963.2021	1021.9315	1052.0526	1087.9436	1114.5032	1125.5378	1159.8665	1192.8943	1217.4149	1231.0574	1288.273	1339.0674	1416.0576	1485.3116	1503.7033	1826.5382	2353.6021	2924.3017	3082.4841	3122.2464	3154.7229	3182.0645	3215.8826
O=CC1(CN2CC12)C#N	O=C[C@]1(CN2C[C@@H]12)C#N	
InChI=1S/C6H6N2O/c7-2-6(4-9)3-8-1-5(6)8/h4-5H,1,3H2	InChI=1S/C6H6N2O/c7-2-6(4-9)3-8-1-5(6)8/h4-5H,1,3H2/t5-,6+,8?/m0/s1
