21
gdb 60236	2.91417	0.99195	0.88152	2.0991	80.39	-0.2245	-0.0235	0.201	1440.6103	0.179551	-424.232985	-424.222946	-424.222002	-424.268977	36.345	
C	-0.3563680824	 1.5585346505	 0.3456213861	-0.391378
C	-0.1351613269	 0.0973645471	-0.0231832368	 0.138726
C	 1.0271288101	-0.5289642895	 0.7496418964	-0.389638
O	-1.3688522693	-0.5818717309	 0.2734909394	-0.271801
C	-1.5851941279	-1.7585246638	-0.4384885641	 0.048416
C	-2.9107168542	-2.5048311179	-0.1202706392	-0.269759
C	-3.1577416559	-2.7379684553	-1.6414628149	-0.341966
C	-2.0823477017	-1.6676569648	-1.9059306956	 0.373113
O	-1.8358041406	-0.9345905653	-2.8197038227	-0.299977
H	 0.5418392771	 2.1483872734	 0.1400530179	 0.113427
H	-1.1873028829	 1.9744107066	-0.2295143201	 0.12644
H	-0.5939118904	 1.6491217726	 1.410579778	 0.120664
H	 0.052921872	 0.0246176474	-1.1020962933	 0.099426
H	 0.8511233033	-0.4521581848	 1.8273009093	 0.121973
H	 1.1602271264	-1.5861345889	 0.4996030929	 0.113634
H	 1.964102978	-0.0147418232	 0.5131582644	 0.116925
H	-0.7276098005	-2.4506193831	-0.3866468279	 0.084964
H	-2.8303998756	-3.3878920285	 0.5133407217	 0.111165
H	-3.6347738643	-1.809448039	 0.3088987585	 0.12911
H	-2.8416857347	-3.7268170693	-1.98860589	 0.132323
H	-4.1511044195	-2.5276071133	-2.0426349098	 0.134215
35.9709	64.7191	94.6157	167.8512	210.9161	212.0254	261.7085	309.2321	377.7111	423.2655	439.7549	482.763	574.9435	682.9385	727.2111	767.1436	838.9941	918.0512	922.5695	929.3695	945.0766	960.6467	1012.6834	1068.092	1091.8501	1144.4526	1158.6547	1174.1493	1187.4977	1207.2645	1227.1674	1249.1047	1262.4444	1351.0399	1372.5135	1397.0395	1411.688	1418.4041	1443.2307	1481.161	1484.5352	1487.7317	1495.8163	1508.8394	1885.3177	2959.897	3029.7417	3036.1636	3042.6262	3062.5059	3086.0967	3105.368	3109.5375	3117.3404	3122.2759	3125.9827	3148.2566
CC(C)OC1CCC1=O	CC(C)O[C@H]1CCC1=O	
InChI=1S/C7H12O2/c1-5(2)9-7-4-3-6(7)8/h5,7H,3-4H2,1-2H3	InChI=1S/C7H12O2/c1-5(2)9-7-4-3-6(7)8/h5,7H,3-4H2,1-2H3/t7-/m0/s1
