18
gdb 33411	1.90272	1.51163	0.90108	2.3904	76.16	-0.2834	0.0273	0.3107	1279.5077	0.147044	-401.921654	-401.912808	-401.911863	-401.956089	31.986	
N	 0.1942068124	-1.4115362356	-0.381883752	-0.319403
C	 0.1322970355	-0.2683025808	-0.2251129693	 0.274667
C	 0.0571227652	 1.1891946476	-0.0556590192	-0.209914
C	 1.4486369242	 1.7977048378	 0.0723683337	 0.025093
C	 1.6033412436	 3.1403944093	 0.7371997571	-0.270656
C	 2.1105795553	 1.8959404698	 1.4217400474	-0.274826
C	-0.7313951053	 1.8034158924	-1.2088767465	 0.09708
C	-2.1894497226	 1.9398643928	-1.1565788987	-0.178205
O	-1.3285194224	 3.0635206814	-0.9327794889	-0.233709
H	-0.503955694	 1.3917707524	 0.8652139833	 0.125812
H	 2.0953909941	 1.5881333284	-0.7745280753	 0.102854
H	 2.3249603264	 3.8324570948	 0.3188172543	 0.121453
H	 0.708753909	 3.6136334609	 1.1255570011	 0.131402
H	 1.5630384032	 1.528817065	 2.2836243118	 0.120201
H	 3.1804190405	 1.7312050562	 1.4756387837	 0.123849
H	-0.2473847386	 1.7287728251	-2.1831045293	 0.11256
H	-2.7625633865	 1.9666308694	-2.0810063218	 0.128363
H	-2.7312487399	 1.5851903728	-0.2811108215	 0.123382
68.843	73.5389	137.1848	149.6925	178.4299	329.5446	340.5008	387.951	462.4381	518.5922	547.4165	766.8161	829.715	844.8685	861.9661	881.821	925.9843	955.4832	971.9002	1013.8548	1064.0903	1082.4213	1097.4821	1121.3816	1135.764	1159.3757	1169.0593	1176.8322	1196.3257	1228.1493	1261.2346	1287.165	1293.3842	1410.86	1434.1712	1475.2874	1508.7718	1529.3119	2357.951	3038.1714	3091.6921	3111.2622	3136.9962	3145.0439	3153.6014	3181.9197	3217.575	3233.2383
N#CC(C1CC1)C1CO1	N#C[C@@H](C1CC1)[C@H]1CO1	
InChI=1S/C7H9NO/c8-3-6(5-1-2-5)7-4-9-7/h5-7H,1-2,4H2	InChI=1S/C7H9NO/c8-3-6(5-1-2-5)7-4-9-7/h5-7H,1-2,4H2/t6-,7+/m0/s1
