20
gdb 80022	2.28656	1.96379	1.33704	2.0102	80.55	-0.1963	0.0195	0.2158	1028.8242	0.168776	-403.073897	-403.064917	-403.063972	-403.10717	34.988	
C	 1.1054835927	 1.3384380774	 0.4045200509	-0.335205
N	 0.7523058777	-0.064672084	 0.3296522002	-0.063759
C	-0.6623834488	-0.5959941143	 0.3264878245	-0.164313
C	-0.3498178815	-2.0455879296	-0.0613657036	-0.048366
C	 0.6944964884	-2.332703256	 0.7198234381	-0.051352
C	 0.90296728	-1.0179058248	 1.4893168486	-0.13853
C	-0.5893351697	-0.7240223345	 1.9178831887	 0.461255
C	-0.9189833383	 0.51859035	 2.7388440895	-0.489784
O	-1.2135969135	-1.8278152593	 2.539235798	-0.463461
H	 2.188879092	 1.4267268643	 0.2573031652	 0.121199
H	 0.6261038448	 1.8578288199	-0.4326573472	 0.121184
H	 0.8639090067	 1.8956567225	 1.3230077124	 0.092879
H	-1.4338583701	-0.036122849	-0.204524782	 0.05636
H	-0.8858032117	-2.6562146824	-0.7723398819	 0.09898
H	 1.2639650525	-3.24281141	 0.8320500829	 0.100861
H	 1.754475895	-0.9066190358	 2.1617114556	 0.061826
H	-2.0107744348	 0.6156044178	 2.8163950656	 0.108701
H	-0.5236788232	 0.4102675774	 3.7543739964	 0.127184
H	-0.5521038248	 1.4520148718	 2.3215750352	 0.131812
H	-2.0297878833	-1.5230768814	 2.9480162028	 0.272528
59.9793	149.2783	203.2681	218.4338	260.5005	300.4674	307.155	368.3408	412.3111	507.8254	572.9913	604.2708	606.1934	633.3771	761.2944	767.5316	829.5116	896.1043	902.2913	904.9677	931.8698	946.5334	994.5242	1071.204	1108.4822	1121.5679	1130.0894	1145.8227	1157.6934	1178.0949	1203.4773	1226.7977	1237.0144	1303.7289	1310.8589	1375.5684	1406.8694	1447.8785	1474.3247	1487.311	1504.8785	1530.4234	1615.1456	2972.9136	3017.4228	3039.8743	3083.8941	3085.2961	3108.1152	3115.3369	3182.5174	3231.6881	3258.456	3812.386
CN1C2C=CC1C2(C)O	CN1[C@H]2C=C[C@@H]1[C@]2(C)O	
InChI=1S/C7H11NO/c1-7(9)5-3-4-6(7)8(5)2/h3-6,9H,1-2H3	InChI=1S/C7H11NO/c1-7(9)5-3-4-6(7)8(5)2/h3-6,9H,1-2H3/t5-,6+,7+
