19
gdb 60624	2.80886	1.12104	0.9163	3.9595	72.66	-0.2548	0.0238	0.2786	1309.6987	0.159131	-456.357847	-456.348402	-456.347457	-456.392407	35.273	
C	 0.5512352718	 1.5320168761	-0.3977121144	-0.397587
C	 0.1510933165	 0.1233493235	-0.0364781474	 0.003816
N	 1.2305482657	-0.8621172003	 0.1754203011	-0.360091
C	 0.345751182	-0.4987980249	 1.3016761588	-0.034835
C	 0.9858153676	 0.2057976352	 2.4894832555	 0.030128
O	-0.007974201	 0.613690502	 3.388799751	-0.43747
C	 1.9770140329	-0.713767512	 3.2339731056	 0.365424
N	 2.998771661	-1.1929653481	 2.4918244585	-0.513968
O	 1.8206696585	-0.9275474252	 4.4269566237	-0.386131
H	 1.4652201149	 1.8363126832	 0.1167977303	 0.129686
H	 0.736153919	 1.6099142824	-1.4741409133	 0.121978
H	-0.2445538522	 2.2372406869	-0.1371687651	 0.131539
H	-0.7186891097	-0.2418805905	-0.5809468573	 0.092064
H	 0.9749234584	-1.7708339193	-0.1995125168	 0.238415
H	-0.3996617924	-1.2278122409	 1.6138921279	 0.096976
H	 1.5646842274	 1.0703145311	 2.1314470691	 0.091467
H	 0.2619111821	 0.2149578193	 4.23627344	 0.293422
H	 2.9544990407	-1.1015529699	 1.4848006455	 0.274726
H	 3.6379557369	-1.8450108187	 2.9168240474	 0.260441
58.9528	79.9094	144.6098	202.1199	214.351	312.7547	331.4908	380.5667	405.7123	441.8156	461.761	517.8171	563.2601	615.7832	671.577	726.5442	787.5406	843.4861	895.129	946.7295	973.4317	1010.3573	1045.2044	1096.929	1124.3652	1150.9308	1157.3167	1199.8674	1256.1407	1265.0881	1275.4838	1326.486	1354.5966	1403.6552	1424.6248	1452.6362	1470.7044	1490.7799	1502.5615	1618.1242	1786.1494	2992.8774	3041.7864	3103.5328	3110.6709	3129.5954	3135.5642	3513.4418	3526.365	3616.772	3692.3277
CC1NC1C(O)C(N)=O	C[C@H]1N[C@H]1[C@@H](O)C(=O)N	
InChI=1S/C5H10N2O2/c1-2-3(7-2)4(8)5(6)9/h2-4,7-8H,1H3,(H2,6,9)	InChI=1S/C5H10N2O2/c1-2-3(7-2)4(8)5(6)9/h2-4,7-8H,1H3,(H2,6,9)/t2-,3-,4-/m1/s1
