19
gdb 94100	4.28283	0.8277	0.75621	1.145	79.35	-0.2468	-0.0352	0.2116	1495.5943	0.158202	-423.047677	-423.038363	-423.037419	-423.083731	33.197	
O	-0.2450061356	 1.5061583194	-0.2179252752	-0.431414
C	 0.0324859988	 0.1284534662	 0.040185268	 0.108169
C	-1.2308249589	-0.7716217666	 0.141807238	-0.245212
C	-1.2855031188	-1.5894438565	-1.1709181853	-0.307278
C	 0.0963043434	-1.4036832107	-1.7663463111	 0.30785
C	 0.5416092458	-2.1936988422	-2.9666512507	-0.376849
C	 0.8481628531	-3.6308465098	-2.561619606	 0.159863
O	 0.2271644172	-4.5939535863	-2.9250335451	-0.230581
C	 0.8140362153	-0.5061039219	-1.084320871	-0.222899
H	-0.5873673619	 1.5661627949	-1.1168706927	 0.27301
H	 0.5854688557	 0.1468764222	 0.984766516	 0.088984
H	-1.130979807	-1.4474670429	 0.9961331044	 0.109276
H	-2.1190062494	-0.1592628409	 0.3136441291	 0.109943
H	-1.5178221364	-2.6460367878	-0.9949372053	 0.122054
H	-2.0531076911	-1.2306533172	-1.8702892852	 0.110208
H	-0.2304463622	-2.220264118	-3.7424275463	 0.125229
H	 1.458046517	-1.7587212635	-3.3838502575	 0.122212
H	 1.7079077794	-3.7245621294	-1.8595955116	 0.082751
H	 1.8187080457	-0.183553479	-1.3373656625	 0.094685
29.796	42.7643	89.8593	122.9366	220.514	289.6215	327.2603	404.3322	460.6205	492.4198	514.4455	605.74	749.3318	769.9029	831.8254	868.6009	876.5467	907.69	955.714	991.6205	1016.5796	1044.5509	1063.4647	1079.6497	1144.807	1173.0261	1190.5321	1232.7327	1268.3114	1284.9171	1289.0464	1296.4502	1333.711	1360.8801	1417.9226	1431.3116	1460.5788	1476.7661	1496.2354	1701.2734	1834.856	2874.8483	3016.9983	3031.5019	3050.9163	3057.5165	3069.7015	3094.423	3112.8888	3188.2761	3796.3549
OC1CCC(CC=O)=C1	O[C@H]1CCC(=C1)CC=O	
InChI=1S/C7H10O2/c8-4-3-6-1-2-7(9)5-6/h4-5,7,9H,1-3H2	InChI=1S/C7H10O2/c8-4-3-6-1-2-7(9)5-6/h4-5,7,9H,1-3H2/t7-/m0/s1
