18
gdb 133663	3.19526	0.88819	0.82414	2.447	62.11	-0.2682	0.0746	0.3428	1425.759	0.141539	-570.595125	-570.585257	-570.584313	-570.630975	35.014	
C	 0.1131152933	 1.4772675738	-0.0808968742	-0.38653
C	-0.083026262	-0.0308362636	 0.0097592032	 0.142829
C	-0.1537805355	-0.5237425095	 1.454934387	-0.388889
O	-1.2906136292	-0.3136021619	-0.7122011125	-0.254233
C	-1.4793354802	-1.6372594744	-1.1265410082	-0.206123
C	-2.7283213517	-2.2362342549	-0.4886065913	 0.269173
F	-3.8166115262	-1.5109136227	-0.7596623522	-0.069473
F	-2.9271178873	-3.4765934372	-0.9671117295	-0.08013
F	-2.6246600746	-2.3281450635	 0.8454764624	-0.077074
H	 1.039105861	 1.7739345696	 0.4200083779	 0.11595
H	 0.1608508355	 1.796371587	-1.1250965495	 0.122875
H	-0.7218059818	 1.9967153207	 0.3994650201	 0.12907
H	 0.7526628974	-0.5330643269	-0.5036705604	 0.072408
H	-0.9827020468	-0.0390297146	 1.979591763	 0.12875
H	-0.3079157197	-1.6038781352	 1.5079980967	 0.120121
H	 0.7777975535	-0.2875355199	 1.979151837	 0.113103
H	-1.6309333022	-1.671476755	-2.2133441994	 0.127633
H	-0.6339720136	-2.2905887919	-0.8787668002	 0.120543
41.4611	77.0259	83.5408	190.8557	215.984	250.0542	279.8354	309.9127	357.69	394.0241	449.3433	499.9973	529.9919	574.0511	658.8437	810.5588	843.9523	925.3723	931.9264	945.63	984.1307	1131.6884	1147.8877	1159.6204	1186.0587	1199.8723	1221.3091	1297.0249	1330.6023	1368.7741	1378.683	1402.8005	1419.1583	1436.7973	1479.5505	1482.573	1487.2918	1497.281	1508.5748	2972.4529	3020.5834	3041.3607	3046.3462	3071.2102	3112.3242	3120.3559	3125.3741	3128.5205
CC(C)OCC(F)(F)F	CC(C)OCC(F)(F)F	
InChI=1S/C5H9F3O/c1-4(2)9-3-5(6,7)8/h4H,3H2,1-2H3	InChI=1S/C5H9F3O/c1-4(2)9-3-5(6,7)8/h4H,3H2,1-2H3
