20
gdb 32789	3.15334	0.97021	0.78784	1.4555	82.8	-0.1799	0.0402	0.2201	1492.5583	0.170963	-403.183483	-403.173911	-403.172967	-403.218871	34.989	
C	 0.0099969909	 1.6275967783	-0.0882154943	-0.378074
C	 0.0300139141	 0.0975984616	-0.1113754668	-0.147829
C	-1.3638254506	-0.5262449945	 0.0985587171	-0.328407
C	-1.374935287	-2.0251258278	 0.0622397296	 0.190049
C	-1.3479565032	-2.8862817367	 1.1234452357	 0.278618
N	-1.2499149386	-2.7024477905	 2.499313786	-0.597379
O	-1.3481846973	-4.1773234789	 0.7137498864	-0.174297
C	-1.3763536783	-4.1577620321	-0.6605561007	-0.033717
C	-1.3860259989	-2.879045229	-1.1008781372	-0.257532
H	 1.0106600515	 2.0429136947	-0.2431899237	 0.111806
H	-0.6417645254	 2.027988876	-0.8731633625	 0.112488
H	-0.3614562853	 2.0061194498	 0.8711334806	 0.109508
H	 0.4353236884	-0.2555860993	-1.0675189779	 0.100008
H	 0.7090517858	-0.2815708186	 0.6619672651	 0.101419
H	-1.7686109601	-0.1711486646	 1.0576186911	 0.079941
H	-2.0453278911	-0.1345960103	-0.6685525259	 0.101491
H	-1.5267697814	-1.7707808146	 2.7794964402	 0.251518
H	-1.7779343091	-3.3942748976	 3.0182226705	 0.252863
H	-1.3905569867	-5.1227104693	-1.136707598	 0.127293
H	-1.4128817975	-2.5580020564	-2.1315844452	 0.100233
35.0819	83.0558	106.0324	169.522	235.5142	264.2532	265.8696	308.5882	376.4911	449.6398	611.9954	653.8185	666.7355	692.1168	741.1129	764.0358	779.1087	822.2233	865.7806	893.9568	911.4144	1015.3474	1041.1448	1066.3516	1074.5464	1110.233	1174.3843	1212.5837	1267.7041	1276.1482	1311.0997	1318.4748	1336.1775	1382.456	1410.2356	1462.0139	1481.0592	1492.1912	1498.3836	1508.9357	1565.832	1627.0343	1682.7085	2994.5746	3025.6198	3027.7783	3030.6252	3062.0749	3092.966	3100.8228	3242.6348	3294.0762	3530.3233	3631.2502
CCCC1=C(N)OC=C1	CCCc1c(N)occ1	
InChI=1S/C7H11NO/c1-2-3-6-4-5-9-7(6)8/h4-5H,2-3,8H2,1H3	InChI=1S/C7H11NO/c1-2-3-6-4-5-9-7(6)8/h4-5H,2-3,8H2,1H3
