17
gdb 72370	2.77169	1.62228	1.31352	2.1528	73.45	-0.245	-0.0288	0.2162	997.2767	0.135387	-421.84101	-421.83302	-421.832076	-421.873654	30.534	
O	 0.1553856092	 1.4364974254	-0.0694744278	-0.476235
C	 0.0477683946	 0.0417551671	-0.0968574793	 0.325828
C	 0.7394179415	-0.5320099003	-1.3675575178	-0.326755
C	-0.3458190096	-1.2843997172	-2.0950450833	-0.064441
C	-1.4894832338	-1.3381072969	-1.411841585	-0.083344
C	-1.3719422744	-0.6768353266	-0.0712298213	-0.119834
C	-0.8815254053	-1.5916994849	 1.1120871324	-0.354599
C	 0.3122458338	-0.6415225193	 1.2489220537	 0.309324
O	 0.9890261348	-0.2877596367	 2.1760012026	-0.314089
H	 0.3759984158	 1.6930245491	 0.8347662495	 0.293091
H	 1.1320127403	 0.3136093706	-1.9429589771	 0.134568
H	 1.5980610104	-1.1716968375	-1.1286234379	 0.119597
H	-0.1796995233	-1.7288531865	-3.0701705322	 0.100266
H	-2.3974176248	-1.8272625791	-1.7472263687	 0.100339
H	-2.2008752203	-0.0271325644	 0.2157268422	 0.090914
H	-1.5060944713	-1.6588335379	 2.0056699665	 0.132898
H	-0.6102431976	-2.599143985	 0.7850340234	 0.132473
70.242	138.5372	172.9787	237.1076	304.6744	369.8815	440.4241	457.3657	515.2123	646.1805	677.8303	726.6357	758.0095	774.0071	819.4919	888.096	931.3373	966.1342	975.1933	991.7439	1024.3487	1052.138	1092.5973	1102.9357	1131.5959	1140.6602	1173.9428	1209.1365	1270.0305	1292.4265	1325.944	1363.2382	1378.601	1438.1021	1472.0407	1678.7102	1862.3221	3031.8535	3066.4141	3070.9545	3096.4854	3127.3421	3182.4728	3207.1034	3775.3632
OC12CC=CC1CC2=O	O[C@]12CC=C[C@H]1CC2=O	
InChI=1S/C7H8O2/c8-6-4-5-2-1-3-7(5,6)9/h1-2,5,9H,3-4H2	InChI=1S/C7H8O2/c8-6-4-5-2-1-3-7(5,6)9/h1-2,5,9H,3-4H2/t5-,7+/m0/s1
