16
gdb 126775	2.69086	1.36767	0.9628	3.6179	68.2	-0.2132	0.0337	0.2469	1204.8331	0.124916	-471.254385	-471.245728	-471.244784	-471.288302	31.296	
C	-0.1370039435	 1.5947305846	-0.1779571281	-0.377301
C	 0.1154973932	 0.0911871878	-0.0672739765	-0.146493
N	 0.7844747852	-0.4524828602	-1.2305740287	-0.091894
N	 0.1430455074	-0.5116107447	-2.4733594789	-0.339963
C	 1.0464571865	-1.0310535647	-3.2323535771	 0.48957
N	 0.9787656725	-1.2418039974	-4.5814018194	-0.583346
O	 2.212526322	-1.3372493546	-2.6206768063	-0.232347
C	 2.0445140197	-0.953206557	-1.2694532196	 0.474952
O	 2.8869084298	-1.0870798571	-0.4259807879	-0.40593
H	 0.805804412	 2.1434828942	-0.2575495059	 0.130969
H	-0.7437315334	 1.8179271502	-1.059337173	 0.140873
H	-0.6704045441	 1.9507323526	 0.7084746895	 0.12097
H	 0.7659174206	-0.1409153794	 0.7798261612	 0.148427
H	-0.8286951022	-0.4477017252	 0.0700624921	 0.123069
H	 0.03790119	-1.2137196404	-4.946737514	 0.2749
H	 1.5208546843	-2.0273852587	-4.9111149675	 0.273545
55.6983	84.0472	199.2321	207.356	278.883	286.0862	314.4726	362.5401	411.1977	589.119	597.8819	635.4941	689.4477	708.0736	757.3228	796.9459	851.2531	941.4002	989.8971	1034.6251	1081.4692	1116.7316	1153.3368	1238.4723	1336.2036	1392.0894	1410.7423	1423.0216	1462.1584	1478.7275	1489.6382	1505.8029	1619.4216	1723.0171	1903.6135	3044.4956	3046.5761	3108.2761	3120.0482	3133.5941	3572.5516	3680.6929
CCN1N=C(N)OC1=O	CCn1nc(N)oc1=O	
InChI=1S/C4H7N3O2/c1-2-7-4(8)9-3(5)6-7/h2H2,1H3,(H2,5,6)	InChI=1S/C4H7N3O2/c1-2-7-4(8)9-3(5)6-7/h2H2,1H3,(H2,5,6)
