21
gdb 66187	3.17989	1.19192	1.17354	1.3498	84.34	-0.2293	0.0197	0.249	1194.6335	0.18208	-387.081189	-387.072372	-387.071428	-387.114969	33.998	
C	 0.1704967018	 1.4519165325	-0.2867215525	-0.433833
C	-0.0542177561	-0.0536803817	-0.0926386128	 0.312421
O	 0.6866806889	-0.7475090872	-1.1245840454	-0.305709
C	 1.660360905	-1.6161192408	-0.5585276752	-0.129669
C	 1.5258079614	-1.4438036551	 0.9281566304	-0.103337
C	 0.568640645	-0.5638926036	 1.1897809994	-0.107526
C	-1.5137825352	-0.4913547012	-0.1906325047	 0.028779
C	-2.6540787103	 0.2681239359	 0.4433175747	-0.280751
C	-2.5398400704	 0.1887513951	-1.0587168744	-0.279396
H	 1.2320873344	 1.6784677976	-0.1612986877	 0.120154
H	-0.1240095454	 1.755043268	-1.2946615445	 0.128835
H	-0.3924542577	 2.0471239326	 0.4386144573	 0.112566
H	 1.4747078669	-2.6543117887	-0.8780760596	 0.101892
H	 2.6644589551	-1.3452145203	-0.9226984883	 0.10205
H	 2.1385046278	-1.9754463516	 1.6456161422	 0.103473
H	 0.2323639967	-0.2317743666	 2.1637718503	 0.101942
H	-1.5968293707	-1.5732810894	-0.138397133	 0.082657
H	-3.4320421832	-0.3026966075	 0.9384036643	 0.109451
H	-2.4463329873	 1.223580338	 0.9125770736	 0.110581
H	-2.2571337155	 1.0901050331	-1.5898961931	 0.114001
H	-3.2385720311	-0.4393441993	-1.599975331	 0.111417
55.7048	79.192	187.1546	217.3579	257.0534	304.3147	350.9426	376.7648	456.3217	496.9254	630.1581	738.0527	770.327	783.119	812.9059	831.6414	868.5037	898.1681	943.5582	949.154	959.0737	968.8855	1016.751	1046.6213	1055.3443	1076.8493	1082.0154	1109.338	1141.4829	1157.4667	1187.0308	1195.6508	1202.414	1220.7177	1259.422	1349.1496	1377.7238	1390.0083	1408.6755	1467.3356	1487.5621	1500.6146	1508.292	1522.3267	1693.3549	2968.92	2982.7376	3047.4465	3119.2028	3127.2235	3133.0843	3140.0937	3145.915	3202.8487	3209.742	3226.9981	3228.3873
CC1(OCC=C1)C1CC1	C[C@]1(OCC=C1)C1CC1	
InChI=1S/C8H12O/c1-8(7-3-4-7)5-2-6-9-8/h2,5,7H,3-4,6H2,1H3	InChI=1S/C8H12O/c1-8(7-3-4-7)5-2-6-9-8/h2,5,7H,3-4,6H2,1H3/t8-/m1/s1
