16
gdb 44826	3.01264	1.2555	1.01458	2.0958	75.31	-0.248	-0.0258	0.2222	1170.6031	0.122432	-400.683925	-400.675542	-400.674597	-400.717781	31.091	
O	-0.5030102159	 0.0899116115	-0.2465401615	-0.30002
C	-0.2671255909	 1.2372971537	-0.0024382647	 0.364543
C	-1.1142324614	 2.5245749363	 0.068208652	-0.292803
N	 0.1434467293	 3.3411595982	-0.0924631047	-0.15715
C	 0.9268565548	 3.0493006328	 1.1033713876	-0.267736
C	 0.9905089565	 2.0581886697	-0.0094744193	 0.208994
C	 2.2321066668	 1.7909171814	-0.82869091	-0.467115
C	 3.232310629	 1.0189058401	-0.0981677601	 0.310939
C	 4.0488644877	 0.389328525	 0.5179278671	-0.447205
H	-1.7663229127	 2.6224979919	-0.8033369507	 0.146033
H	-1.6775956346	 2.740542637	 0.98009674	 0.131968
H	 1.8041166663	 3.6786982738	 1.2231931891	 0.140334
H	 0.4147004104	 2.8016227567	 2.0308046243	 0.125858
H	 1.9504078608	 1.2603483106	-1.7464205247	 0.149788
H	 2.6517753067	 2.7558836433	-1.1386362071	 0.151416
H	 4.771050137	-0.175227522	 1.053950023	 0.202153
33.1248	105.9902	149.1941	231.355	309.9154	330.782	405.9655	472.1834	508.627	546.7389	625.8089	649.5325	667.9237	736.8527	774.8819	862.6113	888.4945	917.806	962.128	995.5131	1025.0191	1046.6074	1095.6452	1129.3535	1177.2162	1198.0071	1243.9656	1310.0255	1325.7456	1364.6743	1456.512	1463.7189	1508.2135	1889.4925	2244.1039	3028.2969	3063.01	3065.6311	3103.7246	3125.0084	3196.0334	3506.1875
O=C1CN2CC12CC#C	O=C1CN2C[C@@]12CC#C	
InChI=1S/C7H7NO/c1-2-3-7-5-8(7)4-6(7)9/h1H,3-5H2	InChI=1S/C7H7NO/c1-2-3-7-5-8(7)4-6(7)9/h1H,3-5H2/t7-,8?/m0/s1
