17
gdb 124693	3.95094	0.95451	0.93341	1.7625	69.74	-0.2818	-0.0233	0.2584	1298.4096	0.135802	-455.14519	-455.13631	-455.135366	-455.179994	31.118	
C	 0.003599956	 1.5493049787	 0.0288969678	-0.403337
C	-0.0156027043	 0.0104292688	-0.019623252	-0.093673
C	-1.4516259972	-0.5401428524	-0.0102380269	-0.083471
O	-2.0450730301	-0.1345938115	 1.2100670357	-0.418126
C	 0.7310194438	-0.5115587371	-1.2030138658	 0.425345
N	 1.8183265651	-1.2270170844	-1.2291560519	-0.319301
C	 2.0210364778	-1.3852759498	-2.5779499367	 0.03353
N	 1.1345498337	-0.8200151249	-3.3485913024	-0.114072
O	 0.2593257727	-0.2272167287	-2.4278050324	-0.20669
H	 1.0272089176	 1.9255278983	 0.1057928208	 0.127723
H	-0.4504813416	 1.9720480883	-0.8724475751	 0.131423
H	-0.5638732465	 1.8885721668	 0.8969373838	 0.145446
H	 0.4975561793	-0.3875222792	 0.8605174961	 0.125039
H	-1.999631364	-0.1478040103	-0.8800228641	 0.107522
H	-1.4241006129	-1.6370530247	-0.098015958	 0.101667
H	-2.9639042219	-0.4174975758	 1.2091094792	 0.293498
H	 2.8514979326	-1.9373664321	-2.9936441284	 0.147476
31.0892	101.8668	120.9543	196.2674	226.3239	233.6889	293.0552	372.7797	379.7633	487.9623	658.7855	729.4389	784.4855	879.9258	914.8975	932.3164	937.986	979.2827	1011.3953	1025.918	1084.3485	1101.1541	1161.0683	1183.0697	1235.1997	1260.2852	1271.648	1314.7221	1334.4453	1356.9911	1400.5017	1458.4394	1493.7914	1502.0421	1519.4222	1523.669	1620.9727	2979.4211	3015.1127	3049.616	3082.37	3121.1908	3145.2367	3260.0179	3837.4818
CC(CO)C1=NC=NO1	C[C@@H](CO)c1ncno1	
InChI=1S/C5H8N2O2/c1-4(2-8)5-6-3-7-9-5/h3-4,8H,2H2,1H3	InChI=1S/C5H8N2O2/c1-4(2-8)5-6-3-7-9-5/h3-4,8H,2H2,1H3/t4-/m0/s1
