18
gdb 85243	2.69585	1.61171	1.16008	4.9532	72.19	-0.2465	0.0073	0.2538	1088.239	0.147579	-439.114651	-439.106235	-439.10529	-439.147392	31.845	
C	 0.1811265603	 1.5383829414	-0.0761204372	-0.402025
C	-0.0227232776	 0.0414351039	 0.0833809592	 0.129075
O	 0.4818084354	-0.6386267117	-1.0942932935	-0.24702
C	 1.2535732116	-1.713119818	-0.7814558206	 0.452789
O	 1.635137335	-2.5025287313	-1.5968597066	-0.351235
C	 1.4966306411	-1.7334137005	 0.7093655439	 0.163776
C	 1.8080055315	-3.0419481316	 1.3751534858	-0.493744
N	 2.1752059884	-0.4624713757	 1.102384919	-0.359695
C	 0.716468799	-0.5986088092	 1.2487147856	-0.133759
H	 1.2484763702	 1.7675389238	-0.0997144783	 0.150344
H	-0.2824068512	 1.8890709317	-1.0014571568	 0.133486
H	-0.2788906819	 2.0700964662	 0.7631802388	 0.11606
H	-1.0916287071	-0.1968984811	 0.1529110797	 0.094632
H	 2.728703338	-3.4650494296	 0.9628583463	 0.152903
H	 1.9326696499	-2.9126502624	 2.4547604762	 0.115252
H	 1.0071909342	-3.7681618449	 1.2063469958	 0.140435
H	 2.6161558669	-0.6154877469	 2.0082775827	 0.235881
H	 0.2615961462	-0.6152207442	 2.2329808302	 0.102844
129.9633	143.6701	176.8162	226.8428	233.8175	292.5874	298.3273	401.794	507.022	528.6817	578.2012	682.7406	717.3381	784.5058	813.7012	872.5532	878.4445	948.8837	964.6162	1021.8039	1039.2575	1067.2475	1090.7704	1123.9795	1132.0712	1159.8732	1181.4249	1308.7035	1354.078	1370.0484	1380.9296	1404.2269	1413.7621	1449.8559	1477.9882	1485.0966	1497.8643	1499.0659	1878.567	3029.7504	3039.6595	3047.8371	3110.9686	3115.5928	3119.5342	3144.0359	3176.1793	3478.9189
CC1OC(=O)C2(C)NC12	C[C@H]1OC(=O)[C@@]2(C)N[C@@H]12	
InChI=1S/C6H9NO2/c1-3-4-6(2,7-4)5(8)9-3/h3-4,7H,1-2H3	InChI=1S/C6H9NO2/c1-3-4-6(2,7-4)5(8)9-3/h3-4,7H,1-2H3/t3-,4+,6+/m1/s1
