16
gdb 80260	2.29278	2.07814	1.58284	2.5185	69.55	-0.2553	-0.0189	0.2364	895.8476	0.126558	-437.89219	-437.885362	-437.884418	-437.923131	27.92	
O	 0.1144308951	 1.3679091907	-0.0878146752	-0.441892
C	 0.0091541256	-0.0175783116	 0.0019022163	 0.161424
C	 0.3033303807	-0.6423494216	 1.3896077646	 0.001296
O	-0.8017954204	-0.0502593105	 2.1729823666	-0.278718
C	-1.9048899134	-0.0763292586	 1.3515352113	 0.419492
N	-3.066432267	 0.3091440912	 1.6575343937	-0.560941
C	-1.4398765369	-0.6370929576	 0.0139326293	-0.193626
C	-1.0783953923	-2.0865074137	 0.2950575423	-0.084402
C	-0.0260305784	-2.0913988162	 1.1232277588	-0.0841
H	-0.3422116907	 1.7617033501	 0.665949706	 0.297047
H	 0.6221639366	-0.4436512853	-0.7924869009	 0.108203
H	 1.2326585672	-0.3861327812	 1.8921337652	 0.094164
H	-3.0954497487	 0.6290092447	 2.6279836068	 0.223634
H	-2.1079319479	-0.4255448815	-0.8158427911	 0.101326
H	-1.6298405739	-2.9341861536	-0.0886619829	 0.12195
H	 0.4761825345	-2.9400018552	 1.5662562493	 0.115144
137.6322	229.8155	307.8962	383.0263	389.4208	431.2881	507.498	576.2284	648.0028	687.4424	738.6158	776.8058	833.9902	860.7808	891.8532	902.8855	912.1429	944.2986	964.0965	982.3984	998.5961	1032.1926	1120.0453	1138.0287	1160.068	1230.2401	1233.7315	1260.1239	1271.0187	1297.7974	1344.2564	1357.265	1429.1087	1628.9667	1782.1457	3125.7375	3160.1367	3171.2731	3217.3483	3241.0777	3462.2752	3785.0659
OC1C2OC(=N)C1C=C2	O[C@H]1[C@H]2O[C]([NH])[C@@H]1C=C2	
InChI=1S/C6H7NO2/c7-6-3-1-2-4(9-6)5(3)8/h1-5,7-8H	InChI=1S/C6H7NO2/c7-6-3-1-2-4(9-6)5(3)8/h1-5,7-8H/t3-,4+,5-/m1/s1
