21
gdb 41293	3.50231	1.67185	1.58005	0.088	85.86	-0.242	0.0955	0.3375	955.0439	0.186477	-349.887412	-349.881093	-349.880149	-349.917518	28.435	
C	-0.026664375	 1.4677278718	 0.2637724184	-0.261278
C	 1.4763514904	 1.6074351294	-0.1760849688	-0.34264
C	 1.3200278608	 0.237574633	-0.8479243908	 0.35879
C	 2.0255535954	-1.1036802697	-0.9964462422	-0.32028
C	 0.7977936466	-1.7480418256	-1.7239074812	-0.044519
C	 0.8027453972	-0.948505544	-3.0506785645	-0.240669
C	 0.3635095423	 0.2049441593	-2.148574147	-0.061121
C	-0.4210091645	-0.7836984811	-1.2390737743	-0.054495
C	 0.0675027726	-0.0815398965	 0.0138008755	-0.025057
H	-0.2521779943	 1.7534955881	 1.292799642	 0.097554
H	-0.7210933629	 1.9907643557	-0.396901942	 0.106608
H	 1.7525191364	 2.4587839183	-0.8052946725	 0.093533
H	 2.1479389573	 1.5767186417	 0.6883065826	 0.101322
H	 2.9160712107	-1.1311916236	-1.6325479387	 0.090144
H	 2.2696551	-1.5525424283	-0.0293306791	 0.089769
H	 0.7085184706	-2.8340695259	-1.7052180754	 0.061269
H	 1.7432228861	-0.886629304	-3.6088052638	 0.085195
H	-0.0073120076	-1.2423168056	-3.7257562742	 0.093421
H	-0.0254344935	 1.1525517763	-2.517934872	 0.060272
H	-1.4297388902	-1.144881727	-1.4539128446	 0.054823
H	 0.1869730215	-0.6566164224	 0.9372212728	 0.057356
252.279	273.1471	340.6462	429.1219	476.4799	536.6119	655.4023	672.3498	689.7501	760.1673	796.7957	825.2285	833.7703	860.0996	877.4096	911.1991	923.8823	934.8599	971.9593	994.1024	1011.6761	1035.4507	1039.1522	1062.312	1081.8912	1116.1549	1128.9992	1160.6909	1168.2331	1189.7271	1194.9115	1216.7921	1225.3135	1229.9483	1250.0885	1260.5705	1268.6975	1283.1584	1291.0707	1341.7476	1346.027	1476.2371	1490.7328	1494.0183	1516.2517	3034.3919	3040.9551	3044.2353	3052.658	3071.9991	3077.3754	3088.0471	3091.2441	3093.0314	3115.5673	3120.6658	3128.6495
C1CC23CC4CC2C4C13	C1C[C@]23C[C@@H]4C[C@H]2[C@@H]4[C@H]13	
InChI=1S/C9H12/c1-2-9-4-5-3-7(9)8(5)6(1)9/h5-8H,1-4H2	InChI=1S/C9H12/c1-2-9-4-5-3-7(9)8(5)6(1)9/h5-8H,1-4H2/t5-,6-,7-,8-,9+/m0/s1
