19
gdb 107391	3.27668	1.23953	1.01706	1.4592	76.57	-0.2166	0.0543	0.2709	1220.8363	0.159972	-419.221866	-419.213322	-419.212377	-419.254853	33.183	
C	-0.2422802923	 1.5097329585	-0.056254054	-0.370217
C	 0.1015738063	 0.0199966199	 0.053984023	-0.264773
C	 0.7962121222	-0.5047514335	-1.1787153262	 0.349877
C	 0.017110477	-0.9385475755	-2.4124612719	-0.358771
C	 0.8333742692	-1.9461578085	-1.6474332622	-0.000244
O	 2.1590045806	-2.1672004433	-2.1103040374	-0.248998
C	 2.7800580452	-0.9583958717	-1.9672839773	 0.447587
N	 4.0498286095	-0.9187116864	-2.4769134381	-0.580587
N	 2.1271475316	 0.0076310599	-1.4412231289	-0.389108
H	 0.6628027512	 2.0968480271	-0.2332719467	 0.13836
H	-0.9290709623	 1.6939279952	-0.8891196181	 0.112716
H	-0.716722086	 1.8733588115	 0.8603994074	 0.103774
H	 0.7524393815	-0.1463247983	 0.9211426099	 0.099353
H	-0.8105116507	-0.564699964	 0.2256702578	 0.088625
H	-1.0595519934	-1.0324886071	-2.3104402568	 0.113218
H	 0.3649504441	-0.6179635837	-3.3890072803	 0.121167
H	 0.4089428839	-2.8150121449	-1.1607195323	 0.107419
H	 4.543652446	-1.7985091182	-2.4586479402	 0.262424
H	 4.5881491564	-0.128950337	-2.1550484379	 0.268177
84.2579	151.4687	172.2962	217.3899	293.6652	334.3093	374.5714	420.9902	446.4969	479.7436	574.5813	630.9645	723.7483	743.4232	765.8175	798.573	847.3621	873.9133	936.0844	958.8364	977.8578	1001.7155	1011.6394	1043.2809	1094.1534	1125.3314	1131.1685	1154.6249	1231.6919	1270.9772	1318.8225	1349.8327	1398.3882	1407.1533	1420.9298	1465.4793	1479.5602	1494.609	1510.2029	1614.7561	1734.9158	3023.6342	3037.8834	3059.8225	3103.5639	3121.8035	3123.374	3191.4666	3216.8688	3581.1476	3694.3231
CCC12CC1OC(N)=N2	CC[C@]12C[C@H]1OC(=N2)N	
InChI=1S/C6H10N2O/c1-2-6-3-4(6)9-5(7)8-6/h4H,2-3H2,1H3,(H2,7,8)	InChI=1S/C6H10N2O/c1-2-6-3-4(6)9-5(7)8-6/h4H,2-3H2,1H3,(H2,7,8)/t4-,6+/m1/s1
