16
gdb 76011	2.5567	1.25008	1.07114	4.0197	77.83	-0.2685	-0.0024	0.2661	1171.2987	0.121043	-400.712724	-400.703085	-400.702141	-400.747017	34.774	
C	-0.1522505417	 1.5513892924	 0.076465022	-0.415629
C	-0.0119170664	 0.0494094785	 0.0379159607	-0.061932
C	 1.3206566623	-0.6325025892	-0.2443081937	-0.30641
C	 2.5403678127	 0.1019947261	-0.3799779731	 0.313275
C	 3.5834735487	 0.6969063565	-0.4591212044	-0.422968
C	 0.6891988461	-0.6785185098	 1.1658862188	 0.225015
O	 1.2532863883	 0.0989254789	 2.1661586108	-0.437913
C	 0.1673789681	-1.9551365536	 1.607339093	 0.265363
N	-0.2470761633	-2.9795382752	 1.9489639994	-0.342865
H	 0.7124808357	 2.0180418016	 0.5485788918	 0.146748
H	-0.2500122923	 1.9467154633	-0.9391789579	 0.129478
H	-1.0456642147	 1.8345974016	 0.6407630019	 0.134139
H	-0.8601333516	-0.4863452214	-0.3773976031	 0.120285
H	 1.2715560675	-1.5601078255	-0.8059527698	 0.141978
H	 4.4983781428	 1.2279835223	-0.5558138195	 0.209013
H	 2.2057128878	-0.0607913164	 2.180430443	 0.302423
99.1846	106.441	155.012	158.7933	164.5785	239.9712	251.9041	336.2452	366.6971	451.0442	487.3379	575.3801	590.9321	618.0289	633.9002	666.0684	708.1241	793.6307	838.6276	974.7728	1026.1989	1029.0183	1062.7144	1125.4031	1148.4776	1225.1494	1259.8694	1351.8382	1372.2279	1415.6825	1422.3188	1489.3157	1497.976	2233.2881	2348.0866	3050.0259	3111.8718	3148.423	3158.815	3167.944	3500.2459	3770.1762
CC1C(C#C)C1(O)C#N	C[C@H]1[C@@H](C#C)[C@]1(O)C#N	
InChI=1S/C7H7NO/c1-3-6-5(2)7(6,9)4-8/h1,5-6,9H,2H3	InChI=1S/C7H7NO/c1-3-6-5(2)7(6,9)4-8/h1,5-6,9H,2H3/t5-,6+,7-/m0/s1
