21
gdb 102699	3.18068	0.89502	0.74548	3.9098	76.54	-0.2607	0.013	0.2737	1551.9848	0.179286	-461.378116	-461.367127	-461.366183	-461.415683	37.315	
C	-0.2089603014	 1.4463215498	 0.2364407466	-0.390312
C	-0.0880426444	-0.0441371454	-0.0876698094	-0.178
C	-1.4441581004	-0.7496330072	-0.184084495	 0.114919
C	-1.2747548634	-2.2201445027	-0.5690123211	-0.099725
O	-2.5461910496	-2.8603899229	-0.681655522	-0.18557
C	-3.0101851049	-3.5123631048	 0.4047032108	 0.181379
O	-4.1162875814	-3.9599899476	 0.4584576868	-0.285954
O	-2.1072322141	-0.695095216	 1.0743497081	-0.25875
C	-3.4024228459	-0.1196405371	 1.0501728717	-0.24961
H	 0.7778103803	 1.9099119364	 0.3242311882	 0.116833
H	-0.7598350508	 1.9808223166	-0.5454439488	 0.114107
H	-0.7360562348	 1.59013665	 1.1833317543	 0.133909
H	 0.4494097031	-0.1822735807	-1.0344461231	 0.097891
H	 0.5045964808	-0.5437313751	 0.6888228266	 0.107478
H	-2.0608234242	-0.2604637679	-0.9517030079	 0.083288
H	-0.7878901576	-2.3182962815	-1.5427847826	 0.12195
H	-0.6591039323	-2.729335293	 0.1837881943	 0.115824
H	-2.2576844078	-3.5949141612	 1.2098719279	 0.08631
H	-3.7774165763	-0.1435890235	 2.0763273183	 0.131768
H	-3.3747617539	 0.9247283377	 0.7088378657	 0.109889
H	-4.090677661	-0.6843733238	 0.408228541	 0.132376
42.7261	57.9934	69.6182	106.0412	164.0204	166.6566	196.9473	225.407	291.8689	329.7978	342.7338	393.9061	484.0464	529.1195	676.9625	764.6724	850.1755	926.6849	978.3214	1019.3016	1034.0106	1054.0333	1083.3603	1118.5793	1140.0728	1146.7807	1182.7722	1190.0035	1230.4255	1282.5624	1305.1782	1325.3984	1383.9708	1399.5069	1404.8334	1410.222	1430.1345	1474.9707	1483.2746	1489.407	1493.5246	1497.8258	1507.1783	1513.5423	1862.0421	2974.6937	2993.8587	3007.8044	3022.3873	3031.292	3037.6302	3057.0429	3062.5194	3103.4899	3105.394	3118.597	3122.1402
CCC(COC=O)OC	CC[C@@H](COC=O)OC	
InChI=1S/C6H12O3/c1-3-6(8-2)4-9-5-7/h5-6H,3-4H2,1-2H3	InChI=1S/C6H12O3/c1-3-6(8-2)4-9-5-7/h5-6H,3-4H2,1-2H3/t6-/m0/s1
