14
gdb 7934	3.50313	1.85037	1.29411	1.8916	57.9	-0.261	-0.0505	0.2105	896.9944	0.105967	-419.744533	-419.737133	-419.736189	-419.776919	26.502	
C	-0.0628384861	 1.5606576346	-0.0317885353	-0.394491
C	 0.0484813627	 0.0425083509	-0.0042796761	 0.009031
O	 0.7778085116	-0.4433645901	-1.14396374	-0.224338
C	 1.8409006309	-1.2312235415	-0.8086083982	 0.425467
O	 2.5603545458	-1.7077881084	-1.6336831624	-0.319506
C	 1.9183267982	-1.371779111	 0.7035614177	-0.492196
C	 0.8035710617	-0.4847749218	 1.2229024814	 0.384698
O	 0.5366890449	-0.2131219039	 2.3618396009	-0.297753
H	 0.9289895614	 2.0214298736	-0.0483002195	 0.132819
H	-0.6136255673	 1.8869392343	-0.916703499	 0.141004
H	-0.5903798602	 1.896384517	 0.8644452292	 0.149606
H	-0.9507307312	-0.4119596947	-0.0243429585	 0.129118
H	 1.7616985964	-2.4150839026	 0.9968293133	 0.178804
H	 2.8994153812	-1.0765744064	 1.0843781966	 0.177738
52.6272	105.1723	216.1067	234.544	379.2282	399.1076	487.013	546.198	582.7846	608.1778	670.5538	762.2883	837.89	912.8717	957.9917	1030.4426	1080.56	1111.9613	1147.0774	1161.8855	1224.7386	1237.6838	1322.3089	1355.6873	1402.2961	1408.7549	1485.0449	1496.0577	1857.574	1900.3603	3029.5037	3051.804	3070.5674	3116.7633	3129.7699	3140.7097
CC1OC(=O)CC1=O	C[C@H]1OC(=O)CC1=O	
InChI=1S/C5H6O3/c1-3-4(6)2-5(7)8-3/h3H,2H2,1H3	InChI=1S/C5H6O3/c1-3-4(6)2-5(7)8-3/h3H,2H2,1H3/t3-/m1/s1
