14
gdb 124917	2.03325	1.88582	0.98438	1.4573	73.52	-0.2365	-0.0205	0.216	1122.8483	0.099233	-436.663098	-436.654674	-436.65373	-436.696268	30.834	
C	 0.0710355112	 1.4806947637	 0.0026588475	-0.502264
C	-0.0462669461	 0.0029186614	-0.0620129757	 0.369324
C	-1.1289099494	-0.8367818868	-0.0024390387	-0.128617
C	-2.4925596831	-0.5128072859	 0.1429844375	 0.225203
C	-3.6576220077	-0.2355689806	 0.2672020829	-0.430575
C	-0.525589012	-2.1315067624	-0.1255594426	 0.377052
O	-1.1988164652	-3.2864889214	-0.1207964543	-0.410023
N	 0.7749794845	-2.0767276693	-0.2458487147	-0.256653
O	 1.0808606908	-0.7060929804	-0.2048536402	-0.217214
H	 0.6967050517	 1.7852105156	 0.8479758747	 0.155884
H	 0.5309992405	 1.8754271701	-0.9091273026	 0.155873
H	-0.9204126741	 1.9215691973	 0.11891839	 0.156513
H	-4.6869318157	 0.001110004	 0.3764981824	 0.191599
H	-0.5569588456	-4.0031531154	-0.2181537465	 0.313898
89.4205	124.3978	140.5563	206.277	273.6925	371.6545	388.9568	441.3103	498.5967	549.7401	553.4157	577.4367	620.8657	665.7052	670.1311	756.6571	795.3247	941.9939	1013.0643	1061.6021	1076.0961	1222.6009	1252.4261	1337.6372	1410.9538	1473.8788	1477.5781	1522.884	1573.0799	1663.5235	2238.4226	3043.1825	3101.0711	3144.779	3501.9931	3777.2136
CC1=C(C#C)C(O)=NO1	Cc1c(C#C)c(O)no1	
InChI=1S/C6H5NO2/c1-3-5-4(2)9-7-6(5)8/h1H,2H3,(H,7,8)	InChI=1S/C6H5NO2/c1-3-5-4(2)9-7-6(5)8/h1H,2H3,(H,7,8)
