15
gdb 14670	10.29045	0.59394	0.57801	4.9491	71.77	-0.2615	0.015	0.2765	1809.9097	0.117115	-362.640483	-362.631158	-362.630214	-362.676852	30.612	
O	 0.196238044	 0.6591780853	 1.060649465	-0.408524
C	-0.0772862271	 0.2020790252	-0.2575124359	-0.214289
C	-1.4047088603	-0.3989699047	-0.2995250236	 0.157942
C	-2.503748557	-0.8855857514	-0.3572780237	 0.014338
C	-3.8210024485	-1.504620693	-0.3970412533	-0.351171
C	-3.8512483256	-2.8404848299	 0.3911189923	-0.324878
C	-5.1684306696	-3.4708263755	 0.3515865799	 0.254983
N	-6.217485955	-3.9531325763	 0.3066242883	-0.301019
H	 1.0735264323	 1.0555356483	 1.0510591449	 0.292066
H	-0.0377942842	 1.0290571614	-0.9851749544	 0.121182
H	 0.6655798205	-0.5438103322	-0.5844594045	 0.11846
H	-4.5734281331	-0.8256330118	 0.019838491	 0.155404
H	-4.1184355842	-1.693930643	-1.4347901729	 0.153282
H	-3.1113069553	-3.5323490407	-0.0232648252	 0.16375
H	-3.570821437	-2.6610483118	 1.433705012	 0.168475
15.9554	54.9849	78.7947	144.0638	186.977	228.443	290.8448	333.6609	403.1613	453.9152	519.6026	573.2694	765.4083	779.6133	950.838	1006.1636	1027.2621	1033.4531	1051.6967	1154.6894	1198.6208	1246.9993	1256.6741	1285.6675	1307.5943	1370.5445	1460.5006	1467.3552	1478.5028	1502.7918	2363.798	2376.1064	2963.7397	2982.2614	3038.6258	3061.4554	3070.7252	3104.6962	3818.1668
OCC#CCCC#N	OCC#CCCC#N	
InChI=1S/C6H7NO/c7-5-3-1-2-4-6-8/h8H,1,3,6H2	InChI=1S/C6H7NO/c7-5-3-1-2-4-6-8/h8H,1,3,6H2
