17
gdb 12749	3.23138	1.7976	1.46772	2.2831	74.7	-0.2263	0.0515	0.2777	920.9469	0.141271	-326.651109	-326.643273	-326.642329	-326.682933	30.106	
C	-0.0847109547	 1.517962147	-0.0045979497	-0.509357
C	 0.1035088949	 0.0345738311	 0.0376046797	 0.342898
N	-0.7641204736	-0.8526522096	 0.8433147522	-0.360733
C	 0.709135208	-0.8863714921	 1.0395068765	-0.107591
C	 1.2430313264	-1.8256242352	-0.0426160854	-0.232273
C	 0.6447817747	-0.8394693198	-1.1248935696	-0.222718
C	-0.2921864218	-1.3420888139	-2.1094025958	 0.346508
C	-1.0635141765	-1.7512540575	-2.9362982602	-0.46889
H	 0.7919270462	 2.0165390498	-0.4320915082	 0.124613
H	-0.9534547308	 1.7847432353	-0.6176223412	 0.138409
H	-0.2449663395	 1.9228658831	 1.0007467411	 0.117992
H	-1.1539690711	-0.2782006454	 1.5911896488	 0.223306
H	 1.143678993	-0.6714874699	 2.0084789382	 0.093144
H	 2.3317754127	-1.8808653724	-0.0961300442	 0.104519
H	 0.814089215	-2.8289564565	-0.0337319616	 0.118965
H	 1.4639522453	-0.3116732115	-1.6247129164	 0.099841
H	-1.7528449083	-2.1175769325	-3.6557899642	 0.191369
115.6037	127.5188	206.0939	249.4466	302.8842	349.7635	448.3147	490.2529	565.2477	612.6632	627.0665	645.236	698.4646	796.976	858.4963	904.6963	925.982	939.7396	1011.9478	1025.1966	1067.8582	1077.4631	1100.8504	1116.1591	1170.3985	1200.2613	1239.3502	1301.1533	1311.2298	1354.2183	1406.8971	1444.0056	1478.1239	1482.6742	1497.8006	2234.2544	3023.8864	3049.1998	3076.7631	3088.501	3095.2016	3138.3939	3185.7689	3463.5707	3505.1298
CC12NC1CC2C#C	C[C@]12N[C@H]1C[C@H]2C#C	
InChI=1S/C7H9N/c1-3-5-4-6-7(5,2)8-6/h1,5-6,8H,4H2,2H3	InChI=1S/C7H9N/c1-3-5-4-6-7(5,2)8-6/h1,5-6,8H,4H2,2H3/t5-,6+,7-/m1/s1
