19
gdb 44481	3.54556	1.56478	1.44198	3.0551	77.93	-0.2326	-0.0071	0.2254	961.8872	0.163201	-385.913469	-385.907056	-385.906112	-385.944048	27.41	
O	 0.0128696841	 0.0348932201	-0.1935313405	-0.331189
C	-0.0310150396	 1.2234046626	-0.0175330353	 0.415265
C	-1.3021029592	 2.0863730659	 0.1521079581	-0.366522
C	-0.7293233313	 3.4379625622	 0.5661333438	-0.005541
C	 0.122992162	 4.2549458027	-0.477836637	-0.030497
C	 1.0650242679	 4.6122683699	 0.7033517482	-0.232936
C	 0.6881617452	 3.1964043748	 1.1893607602	-0.041271
C	 1.1331326928	 2.2033215555	 0.0764293108	-0.119245
C	 0.9361221695	 3.1462227727	-1.1703831991	-0.23803
H	-1.8896619235	 2.0924211785	-0.772021248	 0.127396
H	-1.935022474	 1.6477938633	 0.9309526792	 0.12854
H	-1.3852294039	 4.0723701932	 1.1627297437	 0.073828
H	-0.3237609334	 5.0208961229	-1.1119663353	 0.063685
H	 2.1114018987	 4.8363472316	 0.4759613647	 0.09137
H	 0.6505140176	 5.383783091	 1.3574093765	 0.099503
H	 0.8220395134	 2.870612887	 2.2213573709	 0.070359
H	 2.1089869302	 1.7291171741	 0.162435414	 0.078995
H	 0.4113672158	 2.6541136335	-1.9944448628	 0.108589
H	 1.8912119878	 3.5124471985	-1.5559111221	 0.107701
124.2832	307.475	324.6011	428.3759	477.9931	513.4243	601.4467	672.5676	683.1643	772.5207	799.5659	829.95	847.3525	863.5767	901.0762	933.8343	949.8183	960.0701	994.2453	1019.2573	1027.9651	1048.1158	1072.1404	1092.7118	1122.7648	1142.2782	1177.4967	1201.8758	1219.4596	1228.177	1247.4805	1257.3121	1269.5581	1288.905	1308.0462	1327.4434	1345.8359	1451.1111	1498.4699	1521.1554	1854.047	3050.0579	3051.5135	3057.0561	3089.7677	3098.7967	3106.3212	3109.487	3110.2981	3119.1253	3137.5527
O=C1CC2C3CC2C1C3	O=C1C[C@@H]2[C@H]3C[C@@H]2[C@@H]1C3	
InChI=1S/C8H10O/c9-8-3-5-4-1-6(5)7(8)2-4/h4-7H,1-3H2	InChI=1S/C8H10O/c9-8-3-5-4-1-6(5)7(8)2-4/h4-7H,1-3H2/t4-,5+,6-,7-/m0/s1
