14
gdb 132946	2.39264	1.75136	1.01749	4.0496	67.45	-0.247	-0.0446	0.2024	1072.8747	0.100331	-481.830498	-481.82284	-481.821896	-481.862789	28.33	
C	-0.0224398771	 1.5019557844	 0.0092948632	-0.471653
C	-0.0062132389	 0.0023248461	-0.0109586098	 0.071149
C	-0.0353717522	-0.7059010183	-1.1569215749	 0.001234
O	-0.0224404936	-2.0568822363	-1.2262828718	-0.18236
C	 0.0228099995	-2.7548988373	-0.0713746681	-0.053753
C	 0.0550548299	-2.1546690563	 1.1320629034	 0.103351
F	 0.0990926282	-2.8943104378	 2.2333718587	-0.052487
C	 0.0435692446	-0.6969255313	 1.2830245639	 0.23185
O	 0.0721994461	-0.1284133343	 2.3638690095	-0.366737
H	 0.8662335327	 1.8842635873	 0.5213438814	 0.150847
H	-0.0598285534	 1.9210865886	-0.9991723075	 0.11787
H	-0.8844801865	 1.8645625834	 0.5780637994	 0.150847
H	-0.0723820235	-0.2704677954	-2.1478701806	 0.142485
H	 0.0300065342	-3.8259267828	-0.2212220069	 0.157358
105.3868	145.3417	256.9993	268.0301	299.4951	313.1857	456.4952	467.8159	513.1695	516.0772	587.6064	669.6582	789.8424	850.9353	883.4743	901.761	971.6663	1035.358	1065.0927	1100.5785	1211.3022	1299.9951	1332.6203	1384.1425	1416.0724	1429.5982	1467.8494	1485.4638	1650.8691	1698.5477	1742.9818	3043.0023	3102.2905	3126.371	3216.319	3234.6757
CC1=COC=C(F)C1=O	Cc1cocc(F)c1=O	
InChI=1S/C6H5FO2/c1-4-2-9-3-5(7)6(4)8/h2-3H,1H3	InChI=1S/C6H5FO2/c1-4-2-9-3-5(7)6(4)8/h2-3H,1H3
