19
gdb 93288	2.0687	1.86893	1.29063	4.1329	76.44	-0.2505	0.0184	0.2689	1058.7625	0.160765	-419.200783	-419.192489	-419.191545	-419.233603	31.808	
C	 0.4567674157	 1.6559361658	-0.0986402073	-0.395722
C	 0.0310069205	 0.1909180391	 0.0648954874	-0.112096
C	 0.558083957	-0.696042445	-1.0797975134	-0.095635
O	 1.8630462509	-1.1372142722	-0.661344889	-0.251203
C	 1.9620847921	-1.0864586797	 0.702423808	 0.400169
N	 2.9605285378	-1.4584955054	 1.3761368476	-0.548269
C	 0.7007181891	-0.4897384301	 1.2533011001	 0.243892
C	 0.5758700754	-0.0851489483	 2.6676189355	-0.291163
N	-0.0458162393	-1.3407281368	 2.2115560449	-0.350697
H	 1.5438160673	 1.7383649363	-0.199609817	 0.137818
H	 0.0003349009	 2.0963301677	-0.9910242945	 0.117194
H	 0.1550061413	 2.2538142114	 0.7660237448	 0.122232
H	-1.0600492692	 0.1281520637	 0.1320926436	 0.078865
H	-0.0790838613	-1.5736564553	-1.2426399649	 0.115219
H	 0.6772189966	-0.1633046333	-2.0263391573	 0.117884
H	 3.6831910287	-1.8509898091	 0.7710379019	 0.222921
H	 1.4365766932	-0.2189425335	 3.3152096069	 0.149998
H	-0.0644233852	 0.7618780513	 2.9015056235	 0.110621
H	-1.0436262316	-1.1901034265	 2.0706890593	 0.227971
76.9762	163.4936	198.7816	237.0959	255.1067	275.7276	330.6637	464.6549	482.0322	557.8971	688.6169	699.5816	727.7928	843.7206	870.4259	887.068	898.5673	942.2054	959.7409	980.5715	985.4609	1031.2831	1049.9073	1081.5102	1121.4656	1142.0464	1163.5489	1224.1948	1260.4222	1265.7107	1277.2727	1328.4086	1350.526	1380.9782	1412.2122	1436.0902	1493.9949	1497.4546	1503.9465	1519.12	1784.1269	3030.0267	3037.2969	3053.3813	3101.447	3106.9173	3110.5621	3115.5159	3207.7665	3474.3978	3479.874
CC1COC(=N)C11CN1	C[C@H]1CO[C]([NH])[C@]21CN2	
InChI=1S/C6H10N2O/c1-4-2-9-5(7)6(4)3-8-6/h4,7-8H,2-3H2,1H3	InChI=1S/C6H10N2O/c1-4-2-9-5(7)6(4)3-8-6/h4,7-8H,2-3H2,1H3/t4-,6+/m0/s1
