20
gdb 117239	3.50403	0.92128	0.82039	2.3543	77.71	-0.2515	0.0389	0.2905	1496.1286	0.169103	-440.30584	-440.295819	-440.294874	-440.341762	35.261	
C	 0.2834690653	 1.3681521404	-0.1199061156	-0.391168
C	 0.2749245003	-0.1473015585	-0.061019232	-0.031737
O	 0.6441384913	-0.6338049026	-1.3645860071	-0.252592
C	 0.6809072496	-1.9786139476	-1.4855990143	 0.481676
O	 0.4660035947	-2.7557654523	-0.5854569431	-0.404556
N	 0.9169880187	-2.3387632041	-2.8014125575	-0.134379
C	 2.0023577319	-1.8437012446	-3.6251994591	-0.24834
C	 1.9373562089	-3.2870236761	-3.2111521304	 0.016822
C	 2.9164022594	-3.8531316206	-2.2106652185	-0.402627
H	 1.2765137702	 1.7437507947	-0.38296357	 0.126163
H	-0.4301412313	 1.734061981	-0.8634256988	 0.130784
H	 0.0070155505	 1.7788295156	 0.8557216809	 0.122153
H	 0.9839466471	-0.5322955606	 0.6787956992	 0.118771
H	-0.7128683249	-0.5408800425	 0.1988676161	 0.122481
H	 1.7308510402	-1.5417635686	-4.6331197771	 0.123648
H	 2.7524648741	-1.2195419167	-3.1456343615	 0.127376
H	 1.5795275343	-3.9999205166	-3.9523039405	 0.101891
H	 3.3191467358	-3.0719800438	-1.5594569674	 0.122971
H	 2.4328686658	-4.5989435649	-1.5743423372	 0.150658
H	 3.751804298	-4.3281829216	-2.7347129661	 0.120003
41.5172	79.322	112.8179	128.5414	179.376	202.6653	257.0445	267.2486	367.309	379.5699	419.3294	505.0577	618.9632	785.8604	806.7032	818.3355	851.0527	887.9083	909.4478	975.7266	1042.3693	1060.3358	1079.3375	1125.8448	1135.7194	1155.1376	1160.6586	1184.5802	1195.5472	1232.5678	1290.112	1368.9254	1398.5982	1410.7817	1421.5374	1441.9654	1484.6661	1485.4708	1493.2729	1497.3495	1514.5437	1523.3799	1801.0279	3043.0228	3045.8721	3050.1461	3087.4844	3106.2585	3108.0945	3120.0172	3120.3524	3125.2716	3129.3628	3194.4124
CCOC(=O)N1CC1C	CCOC(=O)N1C[C@H]1C	
InChI=1S/C6H11NO2/c1-3-9-6(8)7-4-5(7)2/h5H,3-4H2,1-2H3	InChI=1S/C6H11NO2/c1-3-9-6(8)7-4-5(7)2/h5H,3-4H2,1-2H3/t5-,7?/m1/s1
