15
gdb 50048	3.11379	0.78686	0.65838	2.8424	91.38	-0.2415	-0.0336	0.2079	1625.599	0.10994	-383.433183	-383.424235	-383.423291	-383.467648	32.259	
O	 0.0989546555	-0.0580938472	-0.4651989458	-0.260607
C	 0.0938645095	 1.0663819897	-0.0316620651	 0.163506
C	 1.3015477122	 1.9253312478	 0.0514646325	-0.102571
C	 1.1533332611	 3.4131555127	-0.1789590374	-0.294838
C	 1.4489186435	 2.9273762321	 1.2156908414	-0.234688
C	 0.4664196447	 3.0233106063	 2.2504916154	 0.432779
C	-0.3363249256	 3.1227987253	 3.1524000527	-0.268361
C	-1.2476309646	 3.2320384945	 4.1552824326	 0.30221
C	-2.0566877943	 3.3291078892	 5.0467708466	-0.55991
H	-0.840770663	 1.5467053668	 0.3332294935	 0.0879
H	 2.2152082054	 1.4459006919	-0.2809313074	 0.120139
H	 1.943415895	 3.9171083873	-0.7225497743	 0.140222
H	 0.1536999238	 3.7900346541	-0.3652821868	 0.143116
H	 2.4744905417	 3.0443703791	 1.5546285461	 0.136102
H	-2.7690044049	 3.4124073303	 5.8297164962	 0.195
56.804	97.2124	119.8276	192.0551	234.5118	307.8327	319.7648	445.0175	466.3647	519.5139	545.7663	562.4992	605.1217	610.5144	688.0876	813.0699	857.6024	874.6988	939.9319	1041.8332	1057.8586	1085.2338	1120.9641	1161.0494	1182.0856	1238.3808	1335.9218	1388.3479	1440.0424	1477.943	1822.7451	2182.2408	2355.4683	2892.6239	3143.7373	3147.0986	3187.1943	3236.908	3504.0217
O=CC1CC1C#CC#C	O=C[C@H]1C[C@H]1C#CC#C	
InChI=1S/C8H6O/c1-2-3-4-7-5-8(7)6-9/h1,6-8H,5H2	InChI=1S/C8H6O/c1-2-3-4-7-5-8(7)6-9/h1,6-8H,5H2/t7-,8-/m1/s1
