17
gdb 26973	3.0609	1.2217	0.94958	0.5193	80.14	-0.2115	0.0184	0.2299	1229.284	0.134552	-384.691147	-384.682234	-384.68129	-384.72566	32.516	
C	-0.0290566598	 1.4182512373	-0.2977581698	-0.497731
C	-0.093623943	-0.051038808	-0.0796676851	 0.284348
C	-1.1144748691	-0.9569738233	-0.0321523021	 0.165047
C	-2.5976852996	-0.7043748887	-0.1837107035	-0.473822
C	-2.9731423352	 0.0386125643	-1.3859108134	 0.317029
C	-3.289843613	 0.6540279601	-2.3686316477	-0.463198
C	-0.505470077	-2.2309751766	 0.2331863866	-0.274471
C	 0.8280193475	-2.0055166589	 0.3251822391	-0.019698
O	 1.0956065438	-0.6863328818	 0.1367866733	-0.177454
H	 0.7224225944	 1.6682482177	-1.0542867458	 0.138716
H	-0.9962964954	 1.7873447039	-0.6428418305	 0.148396
H	 0.240654786	 1.9530992051	 0.6211052026	 0.133193
H	-3.1164879568	-1.6703966824	-0.1906344978	 0.139877
H	-2.9860924462	-0.1718522676	 0.695625738	 0.142281
H	-3.5677867437	 1.189579347	-3.2422609286	 0.19724
H	-1.0090502554	-3.1804960407	 0.3332379077	 0.107944
H	 1.6818055824	-2.6374016874	 0.5049082471	 0.132304
32.1944	96.7578	115.5293	227.1405	238.9335	288.8981	325.3106	391.3508	447.0459	617.6702	620.3592	631.7521	645.7533	687.0855	734.1884	754.8226	819.5046	908.2661	930.4855	955.1456	969.5363	1063.0072	1074.7241	1135.4511	1178.5409	1231.1898	1250.6569	1266.6939	1341.8384	1414.8373	1440.7811	1465.7924	1479.6268	1486.6551	1548.6689	1658.5984	2237.6959	3009.0556	3028.3753	3051.5412	3081.8011	3140.7733	3247.0936	3284.4434	3505.8732
CC1=C(CC#C)C=CO1	Cc1c(CC#C)cco1	
InChI=1S/C8H8O/c1-3-4-8-5-6-9-7(8)2/h1,5-6H,4H2,2H3	InChI=1S/C8H8O/c1-3-4-8-5-6-9-7(8)2/h1,5-6H,4H2,2H3
