21
gdb 39635	4.39961	0.91077	0.86578	1.8546	86.46	-0.2233	0.0198	0.2431	1424.1134	0.183903	-387.081893	-387.073401	-387.072457	-387.116027	31.685	
C	-0.0879242712	 1.5511737643	-0.0078453453	-0.2111
C	 1.4584094637	 1.5181436163	-0.1237439553	-0.231132
C	 1.4391048913	 0.0991975893	 0.534408484	-0.076779
C	-0.0683321864	 0.006154343	 0.12707448	-0.231133
C	 2.4024782652	-0.9466162728	 0.0940778945	 0.320628
C	 3.236194789	-1.6635986353	 0.8465674877	-0.227533
C	 4.0338646926	-2.6095445065	-0.0003435263	-0.102044
O	 3.5872691265	-2.3800191797	-1.334780716	-0.266419
C	 2.5847694086	-1.3697643202	-1.3469350509	-0.159521
H	-0.4128082641	 2.0329630433	 0.9189038971	 0.103645
H	-0.6509114144	 1.9818504722	-0.8385555678	 0.098542
H	 1.7796641143	 1.4702079426	-1.1683774835	 0.1051
H	 2.0362109197	 2.2951035426	 0.3822360591	 0.100225
H	 1.5068862406	 0.2110834933	 1.6214685161	 0.071237
H	-0.7497769026	-0.4639636359	 0.8399272847	 0.100225
H	-0.1907546237	-0.4811706309	-0.8446705413	 0.1051
H	 3.3457088623	-1.5957032559	 1.9222742475	 0.09471
H	 5.1189093508	-2.4273376702	 0.0670133041	 0.101756
H	 3.869378503	-3.6648387924	 0.2723385448	 0.101757
H	 1.6576492554	-1.7722743334	-1.7859712579	 0.101369
H	 2.9063932795	-0.5355800938	-1.9911512954	 0.101368
47.4915	100.1812	120.4316	143.3908	234.8237	315.9346	377.7198	520.965	535.8052	694.2745	768.4788	779.0461	826.6307	831.2825	897.5955	916.4677	933.5508	935.9932	942.7063	975.8809	1003.779	1015.0849	1035.9728	1066.0837	1111.4495	1123.5106	1173.9856	1202.1677	1221.2929	1225.5478	1237.9991	1255.4702	1261.4313	1272.3614	1285.3174	1298.2191	1364.9979	1378.2531	1396.8574	1476.1517	1487.6316	1509.0907	1517.1688	1530.0204	1719.4084	2961.8556	2970.0326	2977.3539	2980.6775	3047.9594	3056.0236	3058.2632	3062.631	3102.1542	3109.8134	3123.2478	3206.202
C1CC(C1)C1=CCOC1	C1CC(C1)C1=CCOC1	
InChI=1S/C8H12O/c1-2-7(3-1)8-4-5-9-6-8/h4,7H,1-3,5-6H2	InChI=1S/C8H12O/c1-2-7(3-1)8-4-5-9-6-8/h4,7H,1-3,5-6H2
