13
gdb 24805	3.58115	1.22217	0.9112	5.0582	75.96	-0.2401	-0.0717	0.1684	1160.711	0.091751	-415.67495	-415.667762	-415.666818	-415.706801	26.892	
O	-0.0191710526	-0.0962648521	 0.0038035661	-0.382984
C	-0.0332878078	 1.1275370973	 0.0095048289	 0.401095
C	-1.2573144183	 1.9323377816	 0.0310100217	-0.247265
C	-1.2225539641	 3.2849260577	 0.0371701871	 0.030782
N	-0.0392599715	 3.9721624665	 0.0237897401	-0.401907
C	 1.1595426452	 3.2926401558	 0.0035591137	 0.318167
C	 1.1964661954	 1.9343877535	-0.0036406913	-0.334379
C	 2.3370691623	 4.1046377012	-0.0089941235	 0.228147
N	 3.2751205913	 4.7818241724	-0.0188269289	-0.312059
H	-2.2068767243	 1.4123219825	 0.0419842403	 0.126543
H	-2.1124170055	 3.9026375734	 0.0528547436	 0.147214
H	-0.0339813102	 4.9788438129	 0.0286614658	 0.284691
H	 2.1481489202	 1.4191545972	-0.0195104336	 0.141955
133.0054	151.4759	159.3506	399.6367	421.7364	427.8551	459.5867	502.1183	521.4466	586.2014	668.6758	725.5235	733.6328	845.7703	898.0447	912.0618	971.5183	1007.3926	1090.2243	1173.7071	1234.9263	1241.6663	1362.2139	1425.9779	1528.7364	1626.9715	1658.2237	1739.2811	2352.1447	3205.1564	3225.0477	3226.7885	3657.9325
O=C1C=CNC(=C1)C#N	O=c1cc[nH]c(c1)C#N	
InChI=1S/C6H4N2O/c7-4-5-3-6(9)1-2-8-5/h1-3H,(H,8,9)	InChI=1S/C6H4N2O/c7-4-5-3-6(9)1-2-8-5/h1-3H,(H,8,9)
