14
gdb 25516	5.17912	0.97917	0.84636	3.3481	72.46	-0.267	-0.0433	0.2237	1269.3349	0.102346	-436.758939	-436.751711	-436.750767	-436.791406	26.235	
O	 2.4467436456	 0.0785263913	 0.0134656738	-0.250675
C	 2.2392847651	 1.2183630868	 0.2834940599	 0.1566
O	 1.3005262832	 1.9577541418	-0.3734991332	-0.223262
C	 1.1895235261	 3.3026604134	-0.0688215468	 0.319328
C	-0.0689493894	 3.7938699194	 0.2744570181	-0.055392
N	-0.2943803485	 5.0781083292	 0.5419900289	-0.252916
C	 0.744713682	 5.9171227714	 0.4812359552	 0.006936
C	 2.0344038872	 5.5178789339	 0.1440495294	-0.104868
C	 2.2667843539	 4.1770102262	-0.1475396356	-0.184384
H	 2.7499769009	 1.7960462685	 1.0741555817	 0.098277
H	-0.9123981751	 3.1102224013	 0.3237877029	 0.131052
H	 0.5335197209	 6.9585518246	 0.7084241771	 0.118746
H	 2.8398539783	 6.2420297611	 0.0983435238	 0.11546
H	 3.2475547098	 3.8227834211	-0.4454960152	 0.125098
67.3543	130.3329	159.223	296.3293	394.2998	426.3539	456.5513	551.3298	620.2532	700.322	735.6508	833.9012	886.5065	947.6877	974.1429	998.9231	1035.7143	1043.1059	1064.2805	1117.8063	1141.1175	1223.5298	1249.8383	1298.7539	1350.5954	1415.5743	1461.9437	1505.0486	1618.3977	1623.3337	1877.3267	2986.7399	3165.9642	3170.6927	3189.9409	3205.882
O=COC1=CN=CC=C1	O=COc1cnccc1	
InChI=1S/C6H5NO2/c8-5-9-6-2-1-3-7-4-6/h1-5H	InChI=1S/C6H5NO2/c8-5-9-6-2-1-3-7-4-6/h1-5H
