21
gdb 104419	2.47751	1.36171	1.15382	1.3657	73.66	-0.2537	0.0648	0.3186	1166.3429	0.182048	-461.368899	-461.359135	-461.358191	-461.403538	36.803	
O	-0.2397550494	 1.4884288918	 0.2682508449	-0.442853
C	 0.0044476819	 0.0899958042	 0.0914173722	-0.154286
C	-1.3659556885	-0.5534332348	-0.0904747478	 0.419125
O	-2.1877962713	-0.2168599155	 1.0262422554	-0.506368
C	-2.0766671037	-0.1969655401	-1.4107757062	-0.233875
C	-3.2173328318	-1.2338767341	-1.5075811734	-0.203125
C	-2.7386389597	-2.4589598399	-0.6729898672	-0.234376
C	-1.3416739043	-2.0896229899	-0.1337959409	 0.086383
O	-0.2953593484	-2.4589382129	-1.0312993579	-0.450681
H	 0.5697878957	 1.9030421555	 0.5777249293	 0.293364
H	 0.6417229044	-0.100869983	-0.7788978874	 0.109554
H	 0.4889380874	-0.3365317983	 0.9813452887	 0.090861
H	-2.0343757628	 0.7249584329	 1.1753769017	 0.284528
H	-2.425644481	 0.838079409	-1.4174118993	 0.096143
H	-1.371781032	-0.3230339664	-2.2383379259	 0.10411
H	-4.136527197	-0.8290070353	-1.0781500723	 0.107272
H	-3.4370348833	-1.4981032785	-2.5450794264	 0.092873
H	-3.4180891703	-2.650877634	 0.1611288274	 0.112532
H	-2.6851313766	-3.3792516734	-1.2647540926	 0.08062
H	-1.1568759702	-2.4987023883	 0.8683393279	 0.064619
H	-0.351662949	-3.408319349	-1.1739153002	 0.283578
46.2236	115.612	145.3096	184.327	250.9774	263.8116	282.9239	339.0945	349.7638	401.6405	442.0691	480.0404	509.2846	650.9225	714.5683	759.7854	800.8996	867.3282	890.7408	931.2388	961.2403	1012.0587	1027.8218	1045.8262	1074.4892	1091.7205	1127.6081	1132.8858	1189.7513	1208.8282	1223.7591	1252.9414	1256.5055	1289.7996	1304.8608	1326.038	1340.4978	1360.1943	1383.5589	1437.8901	1454.9807	1472.6498	1476.0727	1503.7818	1512.1956	3001.1247	3015.6495	3045.2178	3056.4742	3067.0932	3068.999	3090.4506	3104.9918	3119.0958	3772.5812	3827.9995	3845.6875
OCC1(O)CCCC1O	OC[C@@]1(O)CCC[C@H]1O	
InChI=1S/C6H12O3/c7-4-6(9)3-1-2-5(6)8/h5,7-9H,1-4H2	InChI=1S/C6H12O3/c7-4-6(9)3-1-2-5(6)8/h5,7-9H,1-4H2/t5-,6+/m1/s1
