15
gdb 19514	3.56985	2.0349	1.87083	3.9799	61.67	-0.2515	0.0058	0.2574	765.9004	0.120191	-399.791924	-399.785308	-399.784363	-399.8228	24.518	
O	 0.3075046023	 0.1772945833	-0.5502686682	-0.298398
C	 0.2611355883	 1.3416738377	-0.2399430791	 0.162185
N	 1.2612385448	 2.0060244209	 0.4532285686	-0.07026
C	 2.6705504599	 1.964102164	 0.1496037993	-0.052568
C	 3.0203459706	 1.6693416477	-1.2998588148	-0.104284
O	 2.1545000548	 2.4975245713	-2.0738700234	-0.248134
C	 1.8783314377	 3.6809045859	-1.338603093	-0.103327
C	 1.9028497393	 3.2611325692	 0.1220100064	-0.070663
H	-0.6287579344	 1.9812064895	-0.3967136936	 0.082436
H	 3.3539085448	 1.689592074	 0.9463382002	 0.112595
H	 4.0792702366	 1.9151982226	-1.4748693278	 0.102955
H	 2.8306997379	 0.6357105757	-1.5969624594	 0.147643
H	 2.6468345077	 4.455540858	-1.4966066096	 0.105083
H	 0.9182844622	 4.0706217242	-1.6893669318	 0.124052
H	 1.9707279576	 4.0103029259	 0.9044543162	 0.110686
121.8598	166.1778	219.7278	279.2762	370.1736	465.0558	594.285	719.1771	769.6211	839.6478	872.4181	897.9608	933.3578	1003.0264	1012.9217	1033.912	1048.2325	1074.5642	1112.4367	1131.6838	1136.4588	1221.0748	1256.4934	1305.0959	1318.418	1346.3848	1383.1313	1418.9032	1439.1821	1496.833	1514.2793	1801.3251	2949.5722	2974.9471	2991.0098	3085.0366	3113.6879	3164.7841	3175.4236
O=CN1C2COCC12	O=CN1[C@H]2COC[C@@H]12	
InChI=1S/C5H7NO2/c7-3-6-4-1-8-2-5(4)6/h3-5H,1-2H2	InChI=1S/C5H7NO2/c7-3-6-4-1-8-2-5(4)6/h3-5H,1-2H2/t4-,5+,6?
