19
gdb 92949	2.40257	1.43814	1.22097	3.1839	77.32	-0.242	-0.0313	0.2107	1108.2349	0.157703	-423.044863	-423.035746	-423.034802	-423.078775	34.087	
C	-0.0620618166	 1.61500256	 0.1138163985	-0.431286
C	 0.0418053877	 0.0909190202	 0.0736218354	 0.10155
C	-1.3516014438	-0.5362768568	 0.0299728209	 0.147354
O	-2.3860211211	 0.0748403925	-0.0394447724	-0.253198
C	 0.812557517	-0.4699402128	-1.1124575947	-0.115111
C	 1.5760656478	-1.5113460236	-0.779146436	-0.083294
C	 1.4926777948	-1.8204528918	 0.6959582154	-0.292146
C	 0.8299017558	-0.5475913052	 1.284977533	 0.091383
O	 1.7916752515	 0.3392075983	 1.8210061559	-0.424357
H	 0.9247911565	 2.0810185991	 0.0847078122	 0.104193
H	-0.6448306419	 1.973143408	-0.7386516789	 0.126144
H	-0.5692345392	 1.9475135738	 1.0227674314	 0.132458
H	-1.34627301	-1.650568792	 0.0513448527	 0.074976
H	 0.6882287822	-0.0678434389	-2.1119223465	 0.106552
H	 2.1833333608	-2.086053559	-1.4696730142	 0.104185
H	 0.8868219617	-2.7170841629	 0.8816866079	 0.118163
H	 2.4638043434	-1.9970305267	 1.1715684219	 0.114443
H	 0.1632319529	-0.7738238029	 2.1220554401	 0.094451
H	 2.4294342407	 0.5369333607	 1.1250553974	 0.283538
72.7578	84.7507	162.8577	201.1809	241.6223	294.8069	334.7711	370.6219	413.63	425.6857	477.7804	536.975	724.3038	745.8603	764.9032	809.5006	863.6561	894.1939	931.822	961.8689	980.2431	1002.2336	1020.3087	1081.2127	1112.1121	1154.7995	1162.3549	1187.7675	1215.0976	1263.4687	1301.3211	1308.7109	1374.2307	1409.8508	1431.2613	1438.6748	1477.2228	1481.9154	1487.4312	1668.244	1823.3114	2864.2417	3022.8319	3055.6722	3066.2213	3075.1203	3127.2998	3132.9482	3184.5069	3208.883	3790.6759
CC1(C=O)C=CCC1O	C[C@@]1(C=O)C=CC[C@H]1O	
InChI=1S/C7H10O2/c1-7(5-8)4-2-3-6(7)9/h2,4-6,9H,3H2,1H3	InChI=1S/C7H10O2/c1-7(5-8)4-2-3-6(7)9/h2,4-6,9H,3H2,1H3/t6-,7+/m1/s1
