15
gdb 48619	2.64467	1.69991	1.2703	3.9219	65.94	-0.2445	-0.044	0.2005	978.976	0.111427	-457.75619	-457.748656	-457.747712	-457.78879	27.988	
O	-0.4262800557	 0.3925600859	 0.6275694842	-0.243554
C	 0.0291011996	 1.1060991943	-0.2282671006	 0.045174
C	 1.2798380296	 1.9010033631	-0.0430745417	 0.209192
C	 1.6570358689	 2.7076329212	 1.2232331299	-0.275953
C	 2.4457495902	 3.4727350783	 0.1358292869	 0.068492
C	 3.561310884	 2.5040917105	-0.2882138226	-0.340113
C	 2.6569604299	 1.2564598787	-0.4087971106	 0.414292
O	 2.9179874665	 0.1305492486	-0.7078129282	-0.30051
O	 1.3905748352	 3.1312728466	-0.8307921581	-0.326966
H	-0.4395250661	 1.2175674484	-1.2294221601	 0.103355
H	 0.8022066052	 3.2691123181	 1.6004476691	 0.134956
H	 2.2006889604	 2.2093902723	 2.0284421607	 0.125181
H	 2.6592714914	 4.5381523437	 0.1946309328	 0.102803
H	 4.0019102113	 2.7702204988	-1.2516240372	 0.146966
H	 4.3592341796	 2.3528714415	 0.4437400056	 0.136686
59.3456	126.7848	195.8869	209.0194	394.0646	424.0114	461.0965	527.4546	622.1929	639.3588	706.5701	742.3131	839.7384	846.4433	903.5349	954.9865	966.871	1003.5465	1013.1259	1030.0332	1072.4936	1129.0381	1155.2337	1200.3838	1253.4935	1264.7059	1293.6874	1324.3279	1409.3703	1449.0458	1489.2643	1819.938	1893.6116	2909.0861	3073.0389	3081.6303	3127.5305	3142.8682	3155.4865
O=CC12CC(CC1=O)O2	O=C[C@@]12C[C@@H](CC1=O)O2	
InChI=1S/C6H6O3/c7-3-6-2-4(9-6)1-5(6)8/h3-4H,1-2H2	InChI=1S/C6H6O3/c7-3-6-2-4(9-6)1-5(6)8/h3-4H,1-2H2/t4-,6+/m1/s1
