13
gdb 19338	5.24009	1.69234	1.52458	4.3104	62.63	-0.2587	-0.0135	0.2451	812.5481	0.095412	-361.389418	-361.383223	-361.382279	-361.419633	24.125	
N	 0.0371908295	-1.1328250974	-0.1337762637	-0.336173
C	 0.050348075	 0.0204892087	-0.0454569211	 0.209064
C	 0.047516281	 1.4366407592	 0.1206844212	 0.308923
O	 0.2088584462	 2.2783280795	-1.0326823195	-0.263952
C	 1.1249021299	 2.4347868749	 0.0512922608	-0.049971
C	 0.4671834024	 3.2714707178	 1.1893751225	-0.088059
C	-0.9494207357	 3.6481045539	 0.8409530361	-0.28718
C	-0.6498457097	 2.2403046688	 1.2708418669	-0.134078
H	 2.1802084958	 2.3131707222	-0.1585970098	 0.136396
H	 1.0298342353	 3.7169360552	 1.9974626173	 0.110844
H	-1.4519617874	 4.2457402188	 1.5942772259	 0.126946
H	-1.2249251323	 3.8650256445	-0.1829045575	 0.148591
H	-1.0686741699	 1.760293544	 2.1437274609	 0.11865
154.9341	162.4339	384.1426	410.2842	479.9285	541.4637	584.6145	617.7044	733.9606	765.8198	814.311	839.2024	902.293	917.7448	941.6555	1005.675	1014.7266	1053.188	1056.1834	1101.8616	1127.7671	1169.7004	1257.0891	1267.9795	1300.4529	1419.8081	1466.6756	2354.4666	3147.7089	3204.0139	3217.0744	3225.2288	3240.9522
N#CC12OC1C1CC21	N#C[C@]12O[C@H]1[C@H]1C[C@@H]21	
InChI=1S/C6H5NO/c7-2-6-4-1-3(4)5(6)8-6/h3-5H,1H2	InChI=1S/C6H5NO/c7-2-6-4-1-3(4)5(6)8-6/h3-5H,1H2/t3-,4+,5-,6+/m0/s1
