16
gdb 38095	3.32897	1.90898	1.39381	0.9221	73.88	-0.2305	-0.0063	0.2243	899.5573	0.128042	-396.93081	-396.924493	-396.923548	-396.961359	25.612	
C	 0.1071352837	 1.5181103702	 0.0085976743	-0.356245
C	 1.3705679354	 0.6740335035	 0.0158806697	-0.060487
N	 1.9345354144	 0.3288167641	 1.2959145713	-0.230113
C	 1.0788749544	-0.3944138558	 1.9168686743	 0.01953
N	-0.1243145312	-0.6359175091	 1.24138486	-0.107045
C	-0.7153547019	-1.8817595002	 0.9775784461	 0.055167
N	-1.1142065466	-2.085412251	-0.2134375698	-0.24091
C	-0.7773808747	-0.8862848746	-1.01065721	-0.281825
C	-0.0276729233	 0.0339047278	-0.0497300511	 0.317805
H	-0.1764752563	 2.043932379	 0.9155031362	 0.124696
H	-0.0899827918	 2.0537693957	-0.9147649236	 0.123903
H	 2.0669608208	 0.7577186336	-0.8109959623	 0.104363
H	 1.2290364252	-0.7977288965	 2.9118791121	 0.138093
H	-0.8199403524	-2.599797302	 1.7843627675	 0.139331
H	-0.1926485677	-1.1826443493	-1.8881206878	 0.12664
H	-1.701725888	-0.4243493756	-1.3752726568	 0.127097
140.6353	223.962	361.1576	378.0988	466.219	508.2826	616.9485	663.2482	682.745	756.5326	808.9239	861.7265	886.1519	911.7679	932.1318	941.3226	951.8328	994.6147	1044.8428	1059.5095	1079.8651	1122.1431	1178.3626	1207.8555	1229.4775	1252.8678	1262.5293	1307.7463	1346.0207	1351.6718	1383.2947	1470.1194	1489.9961	1624.5159	1686.3674	3039.4635	3071.5764	3119.1756	3172.3084	3197.8881	3208.6165	3211.2845
C1C2N=CN3C=NCC123	C1[C@H]2N=CN3C=NC[C@]123	
InChI=1S/C6H7N3/c1-5-6(1)2-7-3-9(6)4-8-5/h3-5H,1-2H2	InChI=1S/C6H7N3/c1-5-6(1)2-7-3-9(6)4-8-5/h3-5H,1-2H2/t5-,6-/m1/s1
