16
gdb 108743	2.58336	1.32755	0.88662	4.4063	78.57	-0.233	-0.0685	0.1645	1252.9764	0.124056	-437.952011	-437.943299	-437.942355	-437.986171	31.018	
C	-0.095691607	 1.4203868311	 0.1549409824	-0.328252
N	 0.0313343168	-0.0040881085	-0.0550390794	-0.368423
C	 0.6364160387	-0.5605995813	-1.1108451231	 0.312716
C	 1.2536467165	-0.0298671105	-2.2066243108	-0.341121
C	 1.7585225293	-1.0883154444	-3.0809415951	 0.393343
O	 2.3526615196	-0.9508623528	-4.1292572283	-0.346828
C	 1.4077246522	-2.4446289471	-2.4412595557	-0.453431
C	 0.6836631837	-2.0620311294	-1.1689523017	 0.350513
O	 0.2062561766	-2.771538412	-0.3135955469	-0.333371
H	 0.8877851641	 1.9014903997	 0.2264898316	 0.142279
H	-0.648888207	 1.8941300061	-0.6654407847	 0.142685
H	-0.6367401984	 1.6000944834	 1.0851040935	 0.142262
H	-0.3403647308	-0.6578110991	 0.6188930726	 0.266118
H	 1.3793374955	 1.0180728197	-2.4434665995	 0.111599
H	 0.7740786436	-3.0472077075	-3.099993485	 0.154959
H	 2.3060357163	-3.0344122572	-2.2322130299	 0.15495
71.703	99.9458	106.7916	158.1414	183.2833	333.9645	412.5152	422.6127	502.7833	568.3718	569.0173	585.8755	635.9458	687.6192	808.9372	848.7287	860.7414	955.901	1018.67	1126.6138	1134.8328	1157.5597	1184.2167	1230.7807	1240.2602	1302.3387	1307.1434	1425.8516	1461.1101	1480.9449	1512.0171	1542.6944	1686.0345	1788.9124	1827.4988	3016.0043	3061.7741	3064.9664	3101.6951	3138.4603	3224.8122	3606.0831
CNC1=CC(=O)CC1=O	CNC1=CC(=O)CC1=O	
InChI=1S/C6H7NO2/c1-7-5-2-4(8)3-6(5)9/h2,7H,3H2,1H3	InChI=1S/C6H7NO2/c1-7-5-2-4(8)3-6(5)9/h2,7H,3H2,1H3
