16
gdb 54126	3.52512	1.33193	1.13434	12.6133	66.17	-0.1937	-0.011	0.1826	1061.8856	0.124957	-474.966701	-474.959108	-474.958164	-474.999015	28.813	
O	-0.2469081637	 1.2816999273	-0.030666135	-0.510891
C	-0.0632291027	-0.0808218248	 0.098261317	 0.30639
C	-0.4091539327	-0.7943212904	 1.3755147946	-0.132669
C	-1.548427962	-0.0444431632	 2.0553759608	-0.202761
N	-2.3402096542	-0.0614038675	 0.7374455408	-0.277346
H	-3.2844244731	-0.4324684189	 0.8064580098	 0.303054
H	-2.3184061045	 0.851016346	 0.260990405	 0.312732
C	-1.2747018235	-0.9609872537	 0.1296365051	-0.115477
C	 1.1333619447	-0.5979610998	-0.7593217141	 0.349703
O	 1.6485749848	 0.3612933439	-1.3786957532	-0.493683
O	 1.3534113274	-1.8098243447	-0.7095957001	-0.467537
H	 0.4945322277	 1.4423344737	-0.6929031791	 0.302754
H	 0.235609681	-1.5278877681	 1.8363591557	 0.148038
H	-2.105343974	-0.6172723765	 2.797586991	 0.152752
H	-1.3625062909	 0.9753392695	 2.3954138605	 0.171511
H	-1.5550481943	-1.7830955926	-0.5132564587	 0.153429
100.8457	148.2223	162.8806	239.8818	296.0194	373.5926	503.0965	508.3073	665.3277	711.1596	763.3482	778.2385	816.9185	838.4616	863.3262	883.6604	901.7122	932.3449	962.9728	992.9429	1043.0866	1075.0949	1098.7411	1157.2935	1198.486	1225.1465	1248.3354	1312.0989	1325.5337	1330.2423	1370.029	1457.851	1485.7925	1580.972	1808.8877	3089.0156	3100.8813	3158.283	3228.1876	3238.6834	3338.3315	3535.614
OC1(C2C[NH2+]C12)C([O-])=O	O[C@]1([C@H]2C[NH2][C@@H]12)C(=O)[O]	
InChI=1S/C5H7NO3/c7-4(8)5(9)2-1-6-3(2)5/h2-3,6,9H,1H2,(H,7,8)	InChI=1S/C5H7NO3/c7-4(8)5(9)2-1-6-3(2)5/h2-3,9H,1,6H2/t2-,3+,5-/m0/s1
