19
gdb 70519	2.76502	1.59531	1.20014	1.1357	83.29	-0.2083	-0.0231	0.1852	1068.6392	0.160493	-385.884453	-385.876558	-385.875614	-385.916418	31.948	
O	 0.0382458979	 1.4125522996	-0.0839654291	-0.469206
C	 0.053087078	 0.0038870235	-0.0892301572	 0.34826
C	-0.7074332588	-0.6751414247	-1.2246695244	-0.351158
C	-1.3034667321	-0.6030908462	 0.1574788962	-0.041907
C	-1.4901803455	-1.8167837103	 1.0647647298	-0.281105
C	-0.6273222725	-3.018509406	 0.7795766059	-0.09655
C	 0.7097526943	-3.0171777457	 0.6819095864	-0.071334
C	 1.5922393156	-1.8578993934	 0.7523239795	-0.105554
C	 1.3053238444	-0.5805174346	 0.4495123899	-0.123247
H	 0.6094959121	 1.7152388043	-0.7985236454	 0.280273
H	-1.1179706355	-0.0223470079	-1.9873261595	 0.110187
H	-0.332292613	-1.6286710199	-1.5774033106	 0.125513
H	-2.0743771985	 0.1538055007	 0.2776203033	 0.099786
H	-1.3157993244	-1.4847188007	 2.0994021298	 0.120507
H	-2.5420648579	-2.1195947795	 1.0185057088	 0.104224
H	-1.143664687	-3.9705069868	 0.6890741808	 0.089528
H	 1.2107443303	-3.9751948848	 0.5551714928	 0.085049
H	 2.6149048937	-2.0702662497	 1.0562598008	 0.088544
H	 2.093353089	 0.1587674421	 0.5736209622	 0.088191
100.3801	195.7705	256.1672	297.7751	333.0325	364.5509	401.3062	413.0454	493.0955	580.6233	653.8952	685.0432	706.9022	761.3539	825.6672	863.7519	892.9183	920.9026	932.8698	943.1009	984.6447	990.3843	1001.4343	1038.4679	1058.8856	1097.9664	1124.5408	1204.738	1243.5422	1248.6789	1268.7323	1282.3498	1338.6125	1359.6139	1404.0304	1425.8683	1459.4708	1478.3904	1486.3631	1670.4935	1704.93	2993.647	3056.1599	3131.3191	3135.7496	3142.1456	3143.2071	3160.3859	3166.5901	3231.2148	3793.7648
OC12CC1CC=CC=C2	O[C@]12C[C@H]1CC=CC=C2	
InChI=1S/C8H10O/c9-8-5-3-1-2-4-7(8)6-8/h1-3,5,7,9H,4,6H2	InChI=1S/C8H10O/c9-8-5-3-1-2-4-7(8)6-8/h1-3,5,7,9H,4,6H2/t7-,8-/m1/s1
