22
gdb 58534	2.23749	1.40492	1.15113	2.3352	82.34	-0.2379	-0.022	0.2158	1212.3944	0.192068	-404.354413	-404.344262	-404.343318	-404.389068	38.01	
C	-0.3218087155	 1.4511467482	 0.0920215747	-0.410489
C	 0.0698850607	-0.0271419773	-0.0294714332	 0.037386
C	 0.8011438546	-0.3249645942	-1.3463798998	-0.414863
C	 0.8607296472	-0.510904177	 1.2078327812	 0.184784
C	 2.248475283	 0.1183356511	 1.3695759683	-0.459198
N	 0.0235980299	-0.4701711733	 2.4592489924	-0.355897
C	 0.2049563	-1.9211689548	 2.7323244474	-0.287294
C	 0.8984253573	-2.0469368591	 1.3701076973	 0.358677
O	 1.2903345024	-2.955429002	 0.698225807	-0.30094
H	 0.5519595438	 2.1097688748	 0.0329526827	 0.109526
H	-0.9970885088	 1.733990617	-0.7220031204	 0.113167
H	-0.835313286	 1.6386247106	 1.0393518136	 0.125607
H	-0.861806847	-0.6080639326	-0.0226466517	 0.076191
H	 1.6857366511	 0.3096525737	-1.468472702	 0.110874
H	 1.1213555964	-1.3693069186	-1.3964933786	 0.141331
H	 0.1414775726	-0.1282191856	-2.1976169852	 0.111706
H	 2.1697230277	 1.2026597802	 1.4994697026	 0.126752
H	 2.7612378011	-0.2896363918	 2.2471043303	 0.115651
H	 2.8781286799	-0.0752978426	 0.4975123121	 0.140918
H	 0.4216813992	 0.1211388126	 3.1803878642	 0.218082
H	 0.8700515153	-2.1766473076	 3.568276229	 0.123858
H	-0.7283307447	-2.4827725215	 2.849715908	 0.13417
78.1028	95.3955	142.4867	206.6277	225.2778	256.1591	272.1934	272.5984	301.1608	352.3007	390.8785	458.7223	523.6133	557.0486	643.132	705.4281	781.9	857.9006	902.4878	930.4093	935.7583	958.2088	972.4766	1012.1329	1040.2807	1063.3474	1090.9183	1141.5856	1176.5555	1178.4224	1213.9412	1231.5272	1284.1003	1341.1462	1362.3584	1385.1309	1394.8187	1401.6508	1418.9179	1471.9152	1484.2787	1492.6515	1496.0651	1503.1023	1509.8741	1515.7961	1899.1204	3014.2583	3015.3175	3030.6488	3033.577	3037.5266	3067.9143	3092.5354	3096.9912	3100.8722	3113.9804	3119.083	3121.8418	3533.6733
CC(C)C1(C)NCC1=O	CC(C)[C@@]1(C)NCC1=O	
InChI=1S/C7H13NO/c1-5(2)7(3)6(9)4-8-7/h5,8H,4H2,1-3H3	InChI=1S/C7H13NO/c1-5(2)7(3)6(9)4-8-7/h5,8H,4H2,1-3H3/t7-/m1/s1
