12
gdb 24930	5.32044	1.39497	1.1052	2.9117	62.55	-0.211	0.0003	0.2114	984.5895	0.078888	-472.622604	-472.616236	-472.615292	-472.653649	24.345	
N	-0.0372800124	 1.2600090381	 0.0095757926	-0.553213
C	-0.010153495	 0.0110861067	 0.0028463201	 0.469109
O	 1.1473300284	-0.8046772323	-0.0076375549	-0.265043
C	 0.6333924681	-2.0596781241	-0.0113752038	 0.358543
C	-0.6992005127	-2.0754876106	-0.0042159416	 0.226671
O	-1.1466744374	-0.7656045944	 0.0050270369	-0.236263
C	-1.0940468981	-3.44352399	-0.0092331386	-0.338907
C	 0.0949368683	-4.1252031412	-0.0194250523	-0.011
O	 1.1923720806	-3.265021352	-0.0207294266	-0.194638
H	 0.8990648017	 1.6542525629	 0.0065824912	 0.248405
H	-2.07805949	-3.8815133994	-0.006157197	 0.142628
H	 0.3454320886	-5.1707341136	-0.0263415961	 0.153707
85.0211	205.7153	333.2361	343.3673	565.8182	590.5523	591.6936	638.5359	703.2197	719.8292	765.0829	771.3855	797.0562	815.9523	879.5833	929.4002	957.0535	1004.9177	1118.2366	1140.0159	1238.6031	1284.6508	1443.1273	1499.2429	1511.5889	1721.6557	1826.0687	3277.073	3311.2348	3559.0737
N=C1OC2=C(O1)C=CO2	[NH][C@H]1Oc2c(O1)cco2	
InChI=1S/C5H3NO3/c6-5-8-3-1-2-7-4(3)9-5/h1-2,6H	InChI=1S/C5H4NO3/c6-5-8-3-1-2-7-4(3)9-5/h1-2,5-6H/t5-/m1/s1
