22
gdb 99521	2.05579	1.32522	0.98438	3.1903	82.3	-0.2786	0.0282	0.3068	1327.3383	0.191289	-404.380178	-404.369265	-404.368321	-404.415629	40.345	
C	-0.1210353417	 1.6085014331	 0.0289468293	-0.404442
C	 0.082685327	 0.0931629291	-0.0417976703	-0.189112
C	 0.7394114379	-0.5086179984	 1.2226521428	-0.146029
C	-0.0321296017	-0.1349643344	 2.4141514813	 0.272951
N	-0.6695430666	 0.1130875899	 3.3471426284	-0.347381
C	 0.8690323574	-2.0767852586	 1.193295535	 0.34178
C	 1.5895168218	-2.5430418164	-0.0738769452	-0.414845
C	 1.6193416777	-2.5709376903	 2.4386236883	-0.4389
O	-0.4303448127	-2.6567829261	 1.1310434972	-0.459189
H	 0.8299815275	 2.1327145483	 0.1755511392	 0.116081
H	-0.5638243591	 1.9776344609	-0.90063647	 0.120403
H	-0.7861019088	 1.8869202506	 0.8516757372	 0.144538
H	-0.8710411967	-0.4179260118	-0.2042754329	 0.128747
H	 0.7230087311	-0.1459002346	-0.8955458656	 0.109486
H	 1.7450832372	-0.0835713938	 1.3390224001	 0.1169
H	 2.5556459097	-2.0421082105	-0.1865955971	 0.113747
H	 1.7648094958	-3.6202793304	-0.0141861933	 0.127326
H	 0.9850784659	-2.352982136	-0.9624311812	 0.133821
H	 1.1260911661	-2.2422366998	 3.3587515688	 0.136816
H	 1.6477543887	-3.663729152	 2.4348466223	 0.128072
H	 2.648796917	-2.1984592502	 2.4572499097	 0.117153
H	-0.8801614433	-2.4778226684	 1.965840956	 0.292078
68.2947	98.9243	146.6814	179.4315	193.0902	228.2838	252.7633	266.1079	320.7497	330.1736	354.7748	385.8095	408.6001	446.9823	491.8773	580.1878	602.5427	763.298	815.5604	850.5458	925.9737	938.0351	945.3839	974.0034	1015.9133	1054.8798	1091.6347	1122.6892	1150.9853	1197.1235	1219.8538	1276.0982	1293.6055	1348.1429	1362.3139	1379.9676	1407.2908	1419.181	1422.0893	1476.8766	1488.4434	1494.6143	1497.4675	1501.0511	1508.4626	1513.3571	2343.7475	3028.3182	3036.3459	3037.6775	3051.0009	3059.3482	3093.6859	3108.3206	3110.331	3118.3816	3120.4251	3124.3056	3139.6278	3784.4068
CCC(C#N)C(C)(C)O	CC[C@@H](C#N)C(C)(C)O	
InChI=1S/C7H13NO/c1-4-6(5-8)7(2,3)9/h6,9H,4H2,1-3H3	InChI=1S/C7H13NO/c1-4-6(5-8)7(2,3)9/h6,9H,4H2,1-3H3/t6-/m0/s1
