17
gdb 23084	3.37608	1.25057	1.16161	1.5794	77.04	-0.2286	0.0131	0.2418	1115.8576	0.135604	-417.896475	-417.888537	-417.887593	-417.92878	30.66	
C	 0.1318662949	 1.5491105466	 0.0645970063	-0.531361
C	-0.045794648	 0.0737215694	-0.0411774498	 0.356274
C	 0.4349333707	-0.944477906	-1.0344465476	-0.190224
N	 0.892705178	-0.9737747632	 0.4139742634	-0.184203
C	-0.2252100529	-1.6564107046	 1.1583791355	-0.155592
C	-1.2500042119	-0.9303576193	 0.2672361956	-0.234389
C	-0.925860973	-1.5304079315	-1.0925783462	 0.49247
N	-1.543061592	-2.113547674	-2.0311108287	-0.307502
O	-2.8901652745	-2.3550501593	-1.6759090332	-0.399458
H	 1.1602351079	 1.8187941022	-0.1935203445	 0.141528
H	-0.5453163961	 2.0749780947	-0.6163115348	 0.13467
H	-0.0674222084	 1.9017790951	 1.0822772627	 0.131423
H	 1.2010830089	-0.8773003542	-1.7931511313	 0.112394
H	-0.2069186761	-2.7510004511	 1.1330628604	 0.11321
H	-0.2089762132	-1.3019179491	 2.1917342976	 0.114185
H	-2.272405442	-0.7087071514	 0.5582373666	 0.100778
H	-3.2292706223	-2.7843593744	-2.4683375619	 0.305797
99.5656	185.753	203.1062	235.2038	305.1566	308.4787	387.9733	467.6617	515.2055	600.4416	670.915	708.1768	742.4714	775.203	827.4565	896.7215	922.7128	953.9224	969.9842	1011.6291	1049.3813	1053.6911	1095.0745	1126.8501	1134.8752	1176.5907	1184.4512	1221.7019	1247.677	1303.4917	1394.7764	1412.679	1433.4716	1479.5384	1490.2454	1507.8939	1797.6718	3033.1409	3047.5444	3097.8613	3111.8253	3114.2147	3169.6615	3230.343	3821.0295
CC12C3N1CC2C3=NO	C[C@@]12[C@H]3N1C[C@@H]2C3=NO	
InChI=1S/C6H8N2O/c1-6-3-2-8(6)5(6)4(3)7-9/h3,5,9H,2H2,1H3	InChI=1S/C6H8N2O/c1-6-3-2-8(6)5(6)4(3)7-9/h3,5,9H,2H2,1H3/t3-,5+,6-,8?/m1/s1
