20
gdb 10329	2.41314	1.59378	1.0261	2.9892	71.62	-0.2454	-0.0178	0.2276	1168.7855	0.17399	-386.149281	-386.139258	-386.138314	-386.18448	35.344	
C	-0.1232904059	 1.5307486679	-0.066473892	-0.400527
C	 0.0415446535	 0.0038830451	-0.0174544847	 0.015764
C	 0.7978749832	-0.4896001333	-1.2601988174	-0.395516
C	 0.7378381785	-0.4751332702	 1.2854106801	-0.089949
C	 0.0766501173	 0.0580807764	 2.5675887002	-0.090316
O	 0.5585820676	-0.6002638691	 3.7296735451	-0.413927
C	 0.7123153977	-1.9934654226	 1.3535127331	 0.173813
O	 1.6720158828	-2.7113182597	 1.2468385751	-0.259825
H	 0.8476611782	 2.0332949162	 0.0157677351	 0.11722
H	-0.5696891029	 1.8308497501	-1.0199282626	 0.117561
H	-0.7678672225	 1.9093347481	 0.7313296685	 0.120318
H	-0.9641749043	-0.4423474991	-0.0301736138	 0.07957
H	 1.7982148516	-0.0441065415	-1.3076397953	 0.11979
H	 0.922689434	-1.575896029	-1.2640215365	 0.131971
H	 0.2632682331	-0.2065727272	-2.1723843612	 0.113667
H	 1.793116587	-0.1706569012	 1.2616756197	 0.080966
H	 0.2058367098	 1.1457360158	 2.6415320184	 0.102764
H	-1.001185051	-0.1419635217	 2.5445598271	 0.115485
H	 1.5118638876	-0.4703398115	 3.7751738713	 0.288595
H	-0.3101554652	-2.4170099537	 1.4983106498	 0.072574
50.0789	76.2484	114.736	174.1345	225.6437	232.4856	259.0841	286.4533	338.6079	345.3712	378.5962	450.084	497.102	543.9866	825.1385	877.0927	932.3263	946.5419	966.646	975.8255	1036.5532	1058.5766	1118.3273	1127.848	1165.8317	1189.8922	1216.9121	1264.7986	1333.6524	1352.0428	1360.2499	1387.4996	1405.5044	1411.2059	1427.163	1429.3787	1487.4816	1493.3894	1504.4488	1509.5243	1513.206	1835.2155	2848.6628	2992.6245	3014.0904	3023.5076	3030.63	3035.7095	3067.8971	3094.5983	3101.369	3112.4235	3115.3371	3810.8915
CC(C)C(CO)C=O	CC(C)[C@@H](CO)C=O	
InChI=1S/C6H12O2/c1-5(2)6(3-7)4-8/h3,5-6,8H,4H2,1-2H3	InChI=1S/C6H12O2/c1-5(2)6(3-7)4-8/h3,5-6,8H,4H2,1-2H3/t6-/m1/s1
