16
gdb 126713	5.30648	0.88782	0.81054	5.4589	79.9	-0.2575	-0.0177	0.2398	1395.1201	0.126318	-396.97573	-396.967523	-396.966579	-397.009417	29.457	
C	-0.2229568376	 1.5396328093	 0.1973694236	-0.37616
C	 0.1279421225	 0.0653531065	 0.0027154325	-0.145932
N	 0.7620023398	-0.5137967425	 1.1810629269	 0.05937
C	 0.2289188766	-1.3718850676	 2.0709797093	-0.121539
C	 1.1995753398	-1.5984668684	 3.0390810413	 0.069519
C	 2.2983999019	-0.8053698947	 2.6204399677	-0.073635
N	 2.0258173129	-0.1540067223	 1.5006396304	-0.251695
C	 1.1037382551	-2.4360154916	 4.1742070309	 0.198346
N	 1.0327195446	-3.1192534203	 5.1070419229	-0.343596
H	 0.6767328967	 2.1146692664	 0.4275336556	 0.154642
H	-0.6687320859	 1.9392936841	-0.7179384154	 0.128283
H	-0.9375942632	 1.6685584338	 1.015368273	 0.130788
H	-0.7641192555	-0.5310227239	-0.2061394916	 0.127945
H	 0.8207042433	-0.0594425583	-0.8338326294	 0.143129
H	-0.7708218957	-1.7621867116	 1.9695474079	 0.16027
H	 3.2612879147	-0.7030456988	 3.0970267146	 0.140262
43.8565	113.4056	147.8962	192.0201	229.7325	359.6731	389.1637	523.662	546.5168	571.4475	659.1195	686.0559	706.4851	797.0689	816.2168	894.4223	965.8983	1007.84	1026.4663	1097.1236	1121.9089	1179.9295	1219.7492	1267.1127	1351.1639	1376.8867	1389.9083	1411.2585	1420.6252	1479.9706	1489.8615	1498.086	1507.9315	1584.8856	2348.2986	3049.3167	3067.3069	3109.8177	3125.0599	3141.289	3261.5622	3271.064
CCN1C=C(C=N1)C#N	CCn1cc(cn1)C#N	
InChI=1S/C6H7N3/c1-2-9-5-6(3-7)4-8-9/h4-5H,2H2,1H3	InChI=1S/C6H7N3/c1-2-9-5-6(3-7)4-8-9/h4-5H,2H2,1H3
