23
gdb 101722	3.16443	0.78507	0.7191	1.9293	82.8	-0.2491	0.0741	0.3233	1695.9895	0.20353	-425.410915	-425.400148	-425.399204	-425.447447	39.573	
C	 0.1567322211	 1.2438588526	 0.4820679196	-0.380723
C	-0.0159119321	-0.0664416958	-0.2896321824	-0.18822
C	-1.395052761	-0.7067703063	-0.0919576202	 0.143888
O	-2.443827717	 0.185325468	-0.4806846501	-0.434148
C	-1.5190899979	-2.0575580766	-0.8108638197	-0.234463
C	-2.8526426723	-2.7281939504	-0.5600298648	-0.007889
C	-3.022356806	-4.2180069683	-0.788170628	-0.352163
C	-3.025855652	-3.6521297104	 0.6111686403	 0.109495
O	-1.9090822732	-3.8426842235	 1.4348737909	-0.420972
H	 1.1287788784	 1.7024682789	 0.2766878591	 0.105688
H	-0.626864674	 1.9561734434	 0.2108413887	 0.124776
H	 0.0882806232	 1.0732916352	 1.5621262892	 0.115077
H	 0.1379475383	 0.1083393254	-1.3653865238	 0.079733
H	 0.7532269896	-0.7878942591	 0.0130536791	 0.097859
H	-1.5627132963	-0.8694278521	 0.9798732651	 0.100206
H	-2.3259505744	 0.3734307825	-1.4191401535	 0.273017
H	-1.3780163035	-1.9009501852	-1.8911597173	 0.077609
H	-0.7093414568	-2.7129924075	-0.4761167348	 0.107229
H	-3.7087383351	-2.1011900416	-0.7871289287	 0.095584
H	-3.9501681819	-4.5901281677	-1.2097308827	 0.107866
H	-2.1352731219	-4.7713168599	-1.0811785151	 0.108883
H	-3.9769696056	-3.6188865677	 1.1422241035	 0.084137
H	-1.8934449296	-4.766260494	 1.7054836757	 0.28753
41.6682	63.0186	107.8351	128.3989	211.5216	228.3142	272.4731	292.9081	309.5688	326.0058	357.2523	433.6681	465.5341	526.3314	589.3082	776.7926	779.6943	815.0126	851.1701	859.9278	913.8149	980.2998	1004.3685	1016.6607	1026.078	1049.779	1075.2785	1100.9394	1132.7921	1137.761	1156.6578	1175.2912	1227.528	1236.5535	1265.7676	1284.8345	1301.0157	1341.0172	1363.4532	1384.3427	1401.5867	1405.2002	1422.5279	1428.2141	1467.0398	1482.3613	1491.0191	1494.9379	1508.8549	2992.1484	2997.2676	3036.9414	3041.6609	3053.917	3086.0971	3098.7223	3100.9597	3121.2674	3124.1513	3164.6229	3212.5459	3787.3405	3809.456
CCC(O)CC1CC1O	CC[C@@H](O)C[C@H]1C[C@H]1O	
InChI=1S/C7H14O2/c1-2-6(8)3-5-4-7(5)9/h5-9H,2-4H2,1H3	InChI=1S/C7H14O2/c1-2-6(8)3-5-4-7(5)9/h5-9H,2-4H2,1H3/t5-,6+,7+/m0/s1
