19
gdb 49706	3.08967	1.48346	1.46361	2.3169	78.47	-0.2384	-0.0256	0.2129	990.3892	0.161418	-385.907623	-385.900311	-385.899367	-385.939421	29.244	
O	-0.6681371283	 0.7846057474	 0.5996960372	-0.24789
C	 0.1039504739	 1.0744425019	-0.2806820502	 0.131316
C	 1.2824990936	 2.0041691158	-0.1552001007	-0.07378
C	 1.2063098474	 3.3082154476	-1.0099677509	-0.083791
C	 0.0089426729	 4.0408772544	-0.3141352704	-0.209039
C	 0.2108492644	 3.6913167665	 1.1910060655	-0.204781
C	 1.4832254242	 2.7744802856	 1.1713809098	-0.069004
C	 2.6368043184	 3.6797298839	 0.7661284742	-0.083137
C	 2.4723187333	 3.9966819216	-0.5225487556	-0.080333
H	-0.005908365	 0.6279743261	-1.298225693	 0.073495
H	 2.174203993	 1.4309629425	-0.440735646	 0.093642
H	 1.1027213049	 3.1873751975	-2.0891079184	 0.064428
H	 0.0283851464	 5.1144444289	-0.5129821169	 0.099638
H	-0.9455135816	 3.653783865	-0.6852356048	 0.103913
H	 0.371871587	 4.5754159149	 1.8113633066	 0.095683
H	-0.6427293689	 3.1410164374	 1.5890376593	 0.125625
H	 1.6189975421	 2.1760698764	 2.0712864919	 0.071036
H	 3.3760400544	 4.0743930301	 1.4522096991	 0.096261
H	 3.044501088	 4.7052462964	-1.1086136169	 0.096719
77.6619	187.5302	219.618	271.3809	376.4966	407.4607	491.875	671.26	681.9575	716.6694	754.9147	808.846	832.9966	846.4232	872.5415	885.9197	925.019	952.9195	954.022	978.2139	1007.9844	1029.9329	1051.1764	1077.94	1115.1866	1149.4385	1162.23	1191.7383	1231.298	1254.9353	1275.4903	1284.9372	1297.3441	1331.5545	1347.3938	1365.6819	1426.0191	1486.7184	1504.6814	1642.2405	1820.2417	2843.9606	3032.9285	3051.2596	3076.9804	3102.7385	3105.7804	3125.4373	3132.1568	3194.9059	3220.2883
O=CC1C2CCC1C=C2	O=C[C@H]1[C@H]2CC[C@@H]1C=C2	
InChI=1S/C8H10O/c9-5-8-6-1-2-7(8)4-3-6/h1-2,5-8H,3-4H2	InChI=1S/C8H10O/c9-5-8-6-1-2-7(8)4-3-6/h1-2,5-8H,3-4H2/t6-,7+,8+
