15
gdb 72985	2.73411	1.55224	1.21824	5.0532	66.38	-0.2488	0.0046	0.2534	1012.4205	0.111618	-453.889366	-453.881057	-453.880113	-453.921846	31.466	
N	-0.097722022	 1.5077241483	-0.0035533154	-0.588135
C	-0.0457899353	 0.1004309635	-0.0242462062	 0.177505
C	 0.6348234415	-0.8569126722	-1.0136064059	-0.156329
O	-0.4529726146	-1.8248577	-0.8630982201	-0.301505
C	-1.163589246	-0.9280306918	-0.0162669586	-0.020237
C	-0.3300141253	-0.7371599621	 1.2375934445	 0.228524
O	 0.5384310501	-1.7390083424	 1.6569931776	-0.464381
C	-0.9625170829	-0.0285908408	 2.3246789377	 0.283435
N	-1.4664821292	 0.5229076273	 3.2068345037	-0.34025
H	 0.7299214914	 1.9241926026	 0.4078065963	 0.250012
H	-0.2528581408	 1.9076096799	-0.9218976346	 0.242181
H	 0.6542271839	-0.4731838152	-2.0387824016	 0.121121
H	 1.6060638733	-1.2761735775	-0.7360786918	 0.127383
H	-2.2446832507	-0.8897218561	-0.07117374	 0.136607
H	 0.3533657067	-2.5060178637	 1.0962722345	 0.30407
123.6532	148.5531	214.5064	252.8223	269.066	330.08	345.19	399.98	454.1952	493.0215	549.8499	584.0745	695.4404	696.5593	735.3021	794.0906	905.5599	971.2908	981.253	1017.2107	1040.5032	1051.0465	1149.1391	1165.713	1217.1217	1252.9476	1288.1079	1304.043	1395.1476	1451.6249	1497.1573	1656.7868	2358.1755	3044.7848	3107.5695	3198.4251	3513.7487	3598.0459	3742.6886
NC12COC1C2(O)C#N	N[C@]12CO[C@H]1[C@]2(O)C#N	
InChI=1S/C5H6N2O2/c6-1-5(8)3-4(5,7)2-9-3/h3,8H,2,7H2	InChI=1S/C5H6N2O2/c6-1-5(8)3-4(5,7)2-9-3/h3,8H,2,7H2/t3-,4-,5-/m1/s1
