17
gdb 64742	2.69187	1.26	1.10126	5.1828	73.15	-0.2776	0.0098	0.2873	1148.8613	0.135392	-418.022301	-418.013399	-418.012455	-418.056302	32.122	
C	-0.0155332291	 1.5923356532	 0.0459456029	-0.457441
C	 0.0135254537	 0.0664689551	 0.0142111931	 0.151324
C	-1.3860266542	-0.5611623147	 0.1859134417	-0.398097
C	-2.0897932678	-0.1180852264	 1.3883373916	 0.289852
N	-2.6679895362	 0.2436783734	 2.3205508596	-0.308121
C	 0.8283728708	-0.5779821878	-1.138212835	-0.128827
O	 1.7774998147	-1.1272761377	-0.1756881676	-0.254891
C	 1.0902728387	-0.5723868739	 0.8853890818	 0.416828
N	 1.3085308737	-0.6028026836	 2.1164012616	-0.529598
H	 0.985877923	 2.0030044302	-0.1088847781	 0.132025
H	-0.6734741052	 1.9853933003	-0.7368945231	 0.122727
H	-0.3811253383	 1.9457513062	 1.013282246	 0.168754
H	-2.0036148677	-0.3012138041	-0.6827983443	 0.154523
H	-1.3101938283	-1.6537749389	 0.2093997746	 0.15973
H	 0.3341811282	-1.3754275765	-1.7002037439	 0.120626
H	 1.3187679158	 0.1207559538	-1.8201711932	 0.125943
H	 2.1461173381	-1.1397289287	 2.3461319022	 0.234644
65.2634	94.5772	144.6663	197.0271	228.3915	274.7427	328.1238	356.0147	393.8865	495.6718	502.4674	683.1496	732.4745	755.676	864.8908	877.5656	913.0742	944.9924	973.1574	988.6976	995.8324	1008.1109	1147.8836	1155.258	1187.3338	1223.4489	1243.1453	1292.13	1346.6681	1374.2102	1419.3022	1461.3848	1492.3912	1497.6052	1517.9608	1831.6359	2366.7319	3036.2499	3039.6035	3056.7881	3080.6713	3110.5264	3116.6812	3130.8067	3483.2683
CC1(CC#N)COC1=N	C[C@@]1(CC#N)CO[C]1[NH]	
InChI=1S/C6H8N2O/c1-6(2-3-7)4-9-5(6)8/h8H,2,4H2,1H3	InChI=1S/C6H8N2O/c1-6(2-3-7)4-9-5(6)8/h8H,2,4H2,1H3/t6-/m1/s1
