14
gdb 125106	2.42241	1.84221	1.05328	1.9205	72.51	-0.2519	-0.0822	0.1697	1055.9426	0.098904	-469.983531	-469.975141	-469.974197	-470.016954	29.885	
C	 0.0013857093	 1.5390051618	-0.0622250274	-0.477187
C	-0.0336746108	 0.0436722339	-0.0784249959	 0.196261
C	-1.1291055382	-0.7367756691	 0.0864521202	 0.271736
O	-2.346146657	-0.2638755887	 0.2890071324	-0.390692
C	-1.0507902293	-2.222487036	 0.0520086406	 0.379165
N	-2.1820517329	-2.8025653732	 0.2258543238	-0.592621
O	 0.1179548753	-2.7887353592	-0.1439659069	-0.322693
N	 1.4284306474	-1.7818367754	-0.34016297	-0.021176
N	 1.1705731881	-0.6194080031	-0.2817782723	-0.0541
H	 0.651509993	 1.9093160674	 0.7373844225	 0.14803
H	 0.3859156428	 1.9339218105	-1.008356507	 0.147988
H	-1.003747852	 1.9317967985	 0.0965548763	 0.156572
H	-2.8958676786	-1.0854865514	 0.3647446024	 0.320829
H	-2.1153519672	-3.8169728959	 0.2005608213	 0.237889
73.7312	123.4043	137.6865	161.2412	274.3208	285.4512	383.289	479.2614	498.4442	540.6264	594.4303	605.8401	736.6191	793.9014	796.7431	800.5046	839.1326	938.5247	1065.7617	1075.3111	1117.6814	1245.914	1315.7615	1381.0041	1418.7284	1471.781	1481.2171	1490.7188	1666.8456	1683.9422	1770.7358	3041.6748	3096.3915	3149.7675	3344.8474	3532.7785
CC1=C(O)C(=N)ON=N1	CC1=N[N]OC(=C1O)[NH]	
InChI=1S/C4H5N3O2/c1-2-3(8)4(5)9-7-6-2/h5,8H,1H3	InChI=1S/C4H5N3O2/c1-2-3(8)4(5)9-7-6-2/h5,8H,1H3
