15
gdb 65458	2.80732	1.28036	1.11134	5.1682	67.44	-0.2739	-0.0136	0.2603	1107.425	0.111586	-453.930965	-453.922511	-453.921567	-453.964341	30.855	
O	-0.7359096894	 1.3101415065	 0.0487561317	-0.445529
C	-0.3147171327	-0.0055094509	 0.0412315453	 0.24786
C	-0.3096956176	-0.7396880831	 1.3696105843	-0.351888
C	-1.3256482589	-1.1065076691	 0.3372872631	 0.064655
O	-2.6653818481	-0.776924922	 0.6347743974	-0.205612
C	-3.4269085605	-0.2034963822	-0.3117595962	 0.1455
N	-2.9770641592	 0.3155824286	-1.3750265815	-0.477484
C	 0.7194252167	-0.3349335328	-0.92188004	 0.248744
N	 1.5369552146	-0.6050249462	-1.6940047028	-0.344928
H	-1.3946867021	 1.3689525202	-0.6668112336	 0.3039
H	 0.4927000153	-1.4336281383	 1.5869139152	 0.146316
H	-0.6675524743	-0.1436956991	 2.2009880443	 0.153442
H	-1.2356575436	-2.0410698444	-0.2074202188	 0.135289
H	-4.4726844708	-0.2489461021	 0.0025848506	 0.13273
H	-3.7312356493	 0.691861215	-1.9437657389	 0.247005
72.8102	113.4441	169.8673	215.2674	259.1891	276.5889	336.8726	430.6496	478.8334	578.3895	580.7608	657.6225	692.502	781.5423	804.5355	836.6509	889.5612	921.109	1020.3728	1047.734	1072.1294	1077.1807	1104.0916	1147.5615	1234.5515	1292.8071	1319.5666	1386.8326	1404.6585	1428.594	1462.9952	1712.6179	2349.3294	3108.8243	3151.7928	3163.3251	3251.3361	3532.3866	3615.722
OC1(CC1OC=N)C#N	O[C@]1(C[C@H]1O[CH][NH])C#N	
InChI=1S/C5H6N2O2/c6-2-5(8)1-4(5)9-3-7/h3-4,7-8H,1H2	InChI=1S/C5H6N2O2/c6-2-5(8)1-4(5)9-3-7/h3-4,7-8H,1H2/t4-,5-/m1/s1
