21
gdb 123087	6.73365	0.46281	0.43894	3.267	77.2	-0.2656	0.0193	0.2849	2431.1073	0.179412	-461.400014	-461.388655	-461.387711	-461.439014	37.81	
C	-0.0429659288	 1.4513106253	-0.1579626296	-0.477912
C	 0.0970163102	-0.0371121689	 0.0572937861	 0.425449
O	 0.2799621114	-0.5796026048	 1.1175826844	-0.349224
O	-0.0109123001	-0.6998219039	-1.1135022454	-0.242259
C	 0.106272587	-2.1330816243	-1.036410838	-0.059786
C	-0.0418186984	-2.6850851041	-2.444819456	-0.210231
C	 0.0679610195	-4.2121563708	-2.4749405367	-0.16899
C	-0.0781738609	-4.7832713057	-3.8793653302	-0.074256
O	 0.0391204936	-6.1943319934	-3.7892959613	-0.420475
H	 0.047555441	 1.9659501652	 0.7977391225	 0.147487
H	 0.7285564707	 1.8052561649	-0.8476255714	 0.148237
H	-1.0120737705	 1.6754283748	-0.6127069172	 0.14825
H	 1.0766191943	-2.3902427302	-0.5985218337	 0.121118
H	-0.6669064403	-2.5201983178	-0.3642595493	 0.121115
H	-1.0098096267	-2.3661468492	-2.8506132334	 0.106856
H	 0.7285382178	-2.2365710533	-3.0841800258	 0.106857
H	 1.03546621	-4.5330801932	-2.0700480896	 0.110463
H	-0.7018748074	-4.6625804141	-1.8366093161	 0.110462
H	-1.0539648149	-4.4889453983	-4.2999833475	 0.085252
H	 0.6993006786	-4.3582427997	-4.5355664223	 0.085252
H	-0.0522451562	-6.5617575883	-4.6730738694	 0.286335
35.4527	47.8186	62.7167	78.863	103.0072	132.6832	198.0118	202.7001	258.1475	262.0401	362.0727	447.6313	509.4859	607.6134	646.4491	752.9517	807.9137	911.6359	940.4277	972.3347	1015.1236	1053.0977	1064.622	1067.199	1072.8741	1109.7706	1180.7081	1221.5705	1233.4439	1269.11	1283.6897	1298.5644	1313.285	1318.7475	1373.7071	1392.0381	1423.9408	1464.8787	1469.7903	1476.3948	1491.5426	1499.8664	1518.6844	1530.1307	1824.3888	2957.2439	2982.4648	3024.6955	3032.6385	3045.7859	3054.3174	3056.5436	3075.292	3095.6256	3121.0673	3168.5823	3831.5267
CC(=O)OCCCCO	CC(=O)OCCCCO	
InChI=1S/C6H12O3/c1-6(8)9-5-3-2-4-7/h7H,2-5H2,1H3	InChI=1S/C6H12O3/c1-6(8)9-5-3-2-4-7/h7H,2-5H2,1H3
