19
gdb 95092	2.49397	1.5688	1.15195	1.844	81.69	-0.2504	0.0261	0.2765	1120.4203	0.158541	-385.860782	-385.852245	-385.851301	-385.893564	33.278	
C	 0.00594959	 1.5518411142	 0.0392677269	-0.408011
C	 0.0228894753	 0.0240813163	-0.0041657484	-0.063635
C	 0.8106080121	-0.5681567129	-1.2009907221	-0.236074
C	 1.3304612671	-1.9473771473	-0.7351782979	-0.251801
C	 1.4897920187	-1.781925598	 0.7614930363	-0.02073
O	 2.1378399937	-0.5646958691	 1.1449023929	-0.303963
C	 0.6929920168	-0.6220491834	 1.2105716391	 0.260043
C	 0.0968107377	-0.5084722852	 2.5107171514	 0.200329
C	-0.4400650122	-0.3851505129	 3.5795479619	-0.354021
H	 1.0259140882	 1.9423077988	 0.1142250248	 0.1293
H	-0.4508600025	 1.9629343077	-0.8664828593	 0.11321
H	-0.5625157409	 1.9160999401	 0.9004224429	 0.124767
H	-1.0104874282	-0.3477779961	-0.0241346854	 0.081501
H	 0.195198098	-0.6341473237	-2.1015172338	 0.099643
H	 1.6571843261	 0.0844048326	-1.4290979867	 0.118377
H	 0.5990006067	-2.742618375	-0.9244469209	 0.1072
H	 2.2639311334	-2.2363065081	-1.2280816866	 0.112556
H	 1.6799651835	-2.6327562862	 1.4109406686	 0.101555
H	-0.9014529435	-0.2846795716	 4.5307802463	 0.189754
109.3715	139.0133	171.1876	229.4834	252.3426	316.8597	376.7246	459.1479	501.4898	538.1231	588.031	615.4823	652.6128	666.0845	668.3151	828.2682	845.4032	884.0403	927.6775	936.5838	964.7528	1014.57	1040.4219	1058.3167	1126.6924	1143.1137	1172.521	1214.2937	1235.1852	1286.4412	1314.4036	1330.1136	1338.9203	1368.652	1408.0437	1429.3209	1479.6126	1492.6709	1497.4704	1503.3274	2239.0925	3017.7719	3036.2298	3037.4881	3067.2063	3084.2	3106.5832	3109.8553	3115.0544	3150.8333	3501.9442
CC1CCC2OC12C#C	C[C@H]1CC[C@H]2O[C@@]12C#C	
InChI=1S/C8H10O/c1-3-8-6(2)4-5-7(8)9-8/h1,6-7H,4-5H2,2H3	InChI=1S/C8H10O/c1-3-8-6(2)4-5-7(8)9-8/h1,6-7H,4-5H2,2H3/t6-,7+,8-/m0/s1
