21
gdb 72735	2.53497	1.65876	1.50859	1.7133	81.74	-0.2349	0.0769	0.3117	1023.1824	0.182786	-387.048953	-387.040863	-387.039919	-387.081217	32.358	
C	-0.0763005617	 1.5458115513	-0.0133846552	-0.473661
C	 0.0877737184	 0.0497952525	 0.0603035447	 0.41352
C	 0.9590071457	-0.7049997816	-0.9817429082	-0.290974
C	 1.6259005857	-1.4810650736	 0.1844022641	-0.054785
C	 2.8414692749	-0.7789117621	 0.8740553086	-0.229321
C	 1.9262233964	-0.3283562805	 2.0594881475	-0.337018
C	 0.7171324667	-0.7649598143	 1.2369770511	 0.274058
C	-0.6997141669	-1.2201815086	 1.5369969128	-0.190188
O	-1.1773359301	-0.6335397978	 0.2997796907	-0.335374
H	 0.8944838344	 2.0439183228	-0.1071902119	 0.113837
H	-0.6788869512	 1.8142275865	-0.8888702888	 0.128652
H	-0.5837081816	 1.9312711378	 0.8763579354	 0.120375
H	 0.3520111178	-1.3126661219	-1.657283522	 0.108282
H	 1.6391664599	-0.083649038	-1.574036016	 0.090678
H	 1.6920816503	-2.5684832731	 0.114814163	 0.062088
H	 3.6647381245	-1.4408306588	 1.1502698824	 0.10386
H	 3.2525582404	 0.049531814	 0.2899831582	 0.100621
H	 2.0735159798	-0.9532514113	 2.9464044157	 0.103972
H	 1.9706285451	 0.7201122639	 2.3701854157	 0.098456
H	-0.8811257821	-2.3012836847	 1.5838097695	 0.097815
H	-1.1659364363	-0.7432152725	 2.4118140929	 0.095106
95.1222	176.2544	199.1095	220.0774	328.1186	349.723	379.0258	456.5744	488.1894	604.6126	688.8223	697.3202	776.6062	802.1902	849.6468	857.6386	910.8632	921.4223	936.2925	957.4365	991.1884	1015.5527	1020.1946	1121.0409	1124.7863	1141.986	1162.4386	1174.9695	1184.1561	1215.1785	1224.2482	1240.279	1242.7617	1272.9138	1297.8641	1303.1013	1315.8134	1369.7197	1405.853	1463.0774	1474.7237	1480.8539	1486.228	1494.383	1517.4363	2987.8873	3027.937	3041.5616	3041.7545	3043.7994	3057.5791	3083.0116	3087.2483	3095.5341	3106.2494	3108.7197	3116.7648
CC12CC3CCC13CO2	C[C@@]12C[C@H]3CC[C@@]13CO2	
InChI=1S/C8H12O/c1-7-4-6-2-3-8(6,7)5-9-7/h6H,2-5H2,1H3	InChI=1S/C8H12O/c1-7-4-6-2-3-8(6,7)5-9-7/h6H,2-5H2,1H3/t6-,7-,8+/m1/s1
