17
gdb 71633	2.88028	1.66383	1.60117	0.6286	67.05	-0.2406	0.0686	0.3092	924.9581	0.136388	-458.897118	-458.890001	-458.889057	-458.928392	28.268	
C	 0.0390558518	 1.4684889268	-0.0802063133	-0.536452
C	-0.0168397062	-0.0190200591	 0.0232256912	 0.366118
O	 0.6420146902	-0.8559260875	-1.0067277577	-0.334432
C	 0.066772068	-1.8441557709	-0.0896910891	-0.058084
C	 0.5767041797	-0.9761402533	 1.10180151	 0.075468
O	-0.0910845904	-1.0446425279	 2.3380209957	-0.265729
C	-1.3739385797	-1.6052313056	 2.1789104203	 0.014559
O	-2.0696989828	-1.057652161	 1.0828284661	-0.265731
C	-1.2364979425	-0.9880453248	-0.048442369	 0.07547
H	 1.0741402998	 1.8227176475	-0.0560108782	 0.135149
H	-0.427456338	 1.8129677275	-1.0081956345	 0.135145
H	-0.4990008605	 1.9112010866	 0.7637731535	 0.142094
H	 0.2256953746	-2.8949358826	-0.3293411317	 0.097819
H	 1.6551914337	-0.929079764	 1.2571800772	 0.099498
H	-1.2779166134	-2.6956395859	 2.0388361941	 0.093227
H	-1.9476618297	-1.3869704114	 3.0810290737	 0.12638
H	-1.8369720147	-0.9520006844	-0.9581818183	 0.099499
169.6659	187.0385	208.414	291.0259	371.5332	437.6246	485.4753	541.8836	570.985	686.8975	726.5477	751.4803	864.0104	875.077	895.2824	948.2844	980.0853	1005.3305	1038.918	1049.519	1056.4356	1099.9493	1169.1002	1175.1377	1198.7778	1216.1426	1231.4011	1247.2259	1275.6903	1315.8406	1330.2617	1395.8699	1429.7026	1446.0473	1476.6272	1488.0191	1520.1788	2955.1629	3039.4065	3113.1929	3115.0591	3116.7018	3117.9366	3121.5829	3131.0127
CC12OC3C1OCOC23	C[C@@]12O[C@H]3[C@@H]1OCO[C@@H]23	
InChI=1S/C6H8O3/c1-6-4-3(9-6)5(6)8-2-7-4/h3-5H,2H2,1H3	InChI=1S/C6H8O3/c1-6-4-3(9-6)5(6)8-2-7-4/h3-5H,2H2,1H3/t3-,4-,5+,6+
