18
gdb 98090	3.72245	1.00921	0.81954	1.2655	75.18	-0.2387	-0.0652	0.1734	1410.6994	0.145174	-439.09989	-439.090158	-439.089214	-439.135776	33.636	
C	 0.0818691472	 1.5046776407	-0.0755492865	-0.385851
C	 0.2520733469	-0.0090300241	 0.0084103472	-0.269603
C	 1.0326644388	-0.4557572913	 1.2236555898	 0.286509
O	 1.48265523	 0.2975194079	 2.0548024313	-0.293064
C	 1.1962562353	-1.9889463501	 1.3683073004	 0.284847
O	 0.5666785006	-2.7557649135	 0.6689750022	-0.334202
N	 2.1517697899	-2.3748184126	 2.2754043899	-0.05935
C	 2.2120787688	-2.1072439594	 3.6937367868	-0.20896
C	 2.0633814468	-3.507401118	 3.1643745081	-0.229366
H	 1.051816736	 2.0078614249	-0.1114423822	 0.130654
H	-0.4826808446	 1.7781663193	-0.9708375635	 0.114669
H	-0.4503808018	 1.8889789946	 0.7987394823	 0.129217
H	-0.7094779261	-0.5366256172	 0.0232431178	 0.145035
H	 0.7621602506	-0.4148487347	-0.8757443646	 0.138573
H	 3.1721931276	-1.768021124	 4.0707100477	 0.136108
H	 1.347359539	-1.6401041383	 4.1546457882	 0.141165
H	 1.0942978002	-3.992540174	 3.2459985789	 0.140022
H	 2.9190915449	-4.1760249703	 3.167287826	 0.133598
38.9803	61.4936	106.6137	148.1965	178.466	195.9997	235.6307	313.246	362.3437	415.4932	495.8436	657.2245	680.6585	727.9206	801.8732	827.7927	857.1656	986.8814	988.2605	1023.7097	1052.0333	1080.4918	1105.9414	1133.4433	1135.6366	1164.3096	1171.4784	1216.7058	1259.2062	1371.0519	1415.5519	1434.4482	1435.2461	1493.5567	1497.2404	1497.8337	1526.0776	1770.6485	1805.5954	3035.0779	3050.6705	3063.6986	3116.1929	3122.8279	3123.5726	3123.7884	3201.6162	3216.3645
CCC(=O)C(=O)N1CC1	CCC(=O)C(=O)N1CC1	
InChI=1S/C6H9NO2/c1-2-5(8)6(9)7-3-4-7/h2-4H2,1H3	InChI=1S/C6H9NO2/c1-2-5(8)6(9)7-3-4-7/h2-4H2,1H3
