14
gdb 42294	2.74135	1.33429	1.00341	2.68	70.81	-0.2604	-0.0665	0.1939	1139.0696	0.099241	-436.678917	-436.670301	-436.669357	-436.71329	30.24	
O	 0.0872776919	-0.1231384246	-0.2907530555	-0.289769
C	-0.0027630037	 1.0723412944	-0.1064242036	 0.234201
C	 1.1552599447	 1.9023873075	 0.1576229647	 0.270124
C	 2.1028103029	 2.6118784433	 0.3742543389	-0.399929
C	-1.3245806769	 1.8076226029	-0.0959477665	-0.267623
C	-2.586600306	 0.9647054411	-0.4032160259	-0.186906
N	-3.0209942906	 1.2209096137	 0.9764244841	-0.312576
C	-1.9450389439	 1.9734585897	 1.3496438812	 0.419154
O	-1.6208897734	 2.5260647077	 2.3609637375	-0.337631
H	 2.9476287717	 3.2261553006	 0.5724663757	 0.219808
H	-1.2465188221	 2.7661730428	-0.6122254969	 0.127751
H	-3.2475739422	 1.3887125264	-1.1641546055	 0.117106
H	-2.3680780755	-0.0828236462	-0.6180838022	 0.146207
H	-3.8257650367	 0.9155313406	 1.502924754	 0.260084
40.2803	92.5818	121.5698	156.4429	249.7672	262.7491	403.3583	450.4713	482.1033	587.5151	632.9262	651.9021	711.4024	726.1946	754.0236	834.8001	911.2864	979.4323	1004.0373	1065.9667	1113.6293	1128.3272	1172.8163	1183.9626	1292.0857	1341.2827	1395.2809	1523.682	1758.4762	1907.6013	2215.7237	3061.0926	3108.0432	3127.5928	3495.0439	3618.2157
O=C(C#C)C1CNC1=O	O=C(C#C)[C@H]1CNC1=O	
InChI=1S/C6H5NO2/c1-2-5(8)4-3-7-6(4)9/h1,4H,3H2,(H,7,9)	InChI=1S/C6H5NO2/c1-2-5(8)4-3-7-6(4)9/h1,4H,3H2,(H,7,9)/t4-/m1/s1
