17
gdb 6492	3.71832	1.44805	1.28724	3.0977	64.35	-0.2408	0.0288	0.2696	992.1864	0.140893	-401.021833	-401.013239	-401.012295	-401.055464	31.408	
C	 0.389873286	 1.4336785921	-0.0364307657	-0.457125
C	-0.0958253336	 0.0018522845	-0.0394885938	 0.404072
C	-1.5300373172	-0.2229413856	 0.4152016156	-0.35961
C	-1.7492251171	 0.0831245102	 1.903889026	 0.37527
N	-0.9588925881	-0.6522416357	 2.7376697895	-0.508036
O	-2.5770472115	 0.8818125481	 2.2954818583	-0.361127
C	 0.5476076073	-0.9933030242	-0.9110078499	-0.232265
O	 0.8461503912	-0.9582284017	 0.4896867796	-0.279617
H	 0.2582141809	 1.8852239023	 0.9519771419	 0.143681
H	 1.4490584179	 1.4805368708	-0.2998444784	 0.128044
H	-0.179172105	 2.0330920972	-0.7544360462	 0.130192
H	-2.2119563892	 0.4204792807	-0.1447771004	 0.129662
H	-1.8103426859	-1.2652152015	 0.2298031332	 0.119277
H	-0.1800033099	-1.1749792084	 2.3671311896	 0.275074
H	-0.9886908129	-0.4383000036	 3.721314359	 0.256482
H	-0.0146463136	-1.8626115213	-1.2487781908	 0.117446
H	 1.3674409507	-0.691898004	-1.5613587074	 0.118579
38.3209	87.3932	175.4417	200.744	328.975	340.1452	367.6211	400.2342	421.7066	474.1394	549.0044	597.1581	687.8998	758.4614	836.0154	876.1526	913.7247	935.478	940.8436	1036.7224	1088.3487	1126.7625	1136.527	1165.2035	1197.5502	1274.9239	1315.6824	1359.2116	1400.4042	1422.1338	1462.2367	1486.7546	1494.4897	1529.2903	1619.2067	1805.205	3041.864	3054.6682	3084.3496	3107.9088	3121.592	3129.0909	3171.7332	3571.3838	3712.0419
CC1(CC(N)=O)CO1	C[C@@]1(CC(=O)N)CO1	
InChI=1S/C5H9NO2/c1-5(3-8-5)2-4(6)7/h2-3H2,1H3,(H2,6,7)	InChI=1S/C5H9NO2/c1-5(3-8-5)2-4(6)7/h2-3H2,1H3,(H2,6,7)/t5-/m1/s1
