19
gdb 53600	4.44169	0.76326	0.71145	1.853	83.59	-0.2353	0.0546	0.2899	1637.8404	0.157721	-385.822342	-385.81306	-385.812115	-385.859017	33.19	
C	 0.1641973571	 0.9951052522	 1.0211904086	-0.496212
C	 0.0050363437	-0.170034793	 0.1624907326	 0.066077
C	-0.1133105696	-1.1290034467	-0.5560750272	 0.056476
C	-0.2948941994	-2.3037416717	-1.4006023118	-0.374408
C	-1.5447048767	-3.0930363761	-1.0094947752	 0.138786
O	-1.7743281504	-4.2504755296	-1.8651529987	-0.304361
C	-1.9287600581	-5.0825281861	-0.7102478612	 0.107766
C	-0.6511168365	-5.1669541508	 0.0573525368	-0.298476
C	-1.563943283	-3.9688994197	 0.2426769936	-0.129956
H	 1.0771044814	 0.9255474852	 1.6230927137	 0.147205
H	 0.2244548324	 1.9182778455	 0.4341104389	 0.147596
H	-0.6795515197	 1.0986316641	 1.7125543919	 0.14619
H	-0.394141995	-2.0093742739	-2.4536640507	 0.135196
H	 0.5828369449	-2.9579753289	-1.3449393605	 0.127378
H	-2.4219379829	-2.436001273	-1.0460368176	 0.092424
H	-2.7253457208	-5.8169057768	-0.7170923628	 0.104275
H	-0.6535226959	-5.854162088	 0.897929192	 0.11556
H	 0.2974683276	-5.0870806727	-0.4656035928	 0.11697
H	-1.9834034693	-3.6895363699	 1.1986524805	 0.101514
11.2813	48.4099	84.7958	181.8236	227.9568	251.505	322.2789	392.543	442.2539	461.987	543.8178	723.3735	762.98	771.0509	801.4308	888.5718	948.2313	963.3211	996.3952	1003.4177	1039.7147	1048.3959	1052.5506	1053.9341	1070.984	1085.9687	1114.883	1165.6561	1193.1573	1211.6444	1257.6116	1290.1459	1326.8718	1365.0634	1394.5206	1415.5888	1468.0803	1477.7849	1478.7932	1479.4213	2373.8647	3024.1552	3025.5389	3031.8108	3063.9727	3085.4774	3085.9068	3118.5766	3182.7463	3205.4069	3215.8033
CC#CCC1OC2CC12	CC#CC[C@H]1O[C@H]2C[C@@H]12	
InChI=1S/C8H10O/c1-2-3-4-7-6-5-8(6)9-7/h6-8H,4-5H2,1H3	InChI=1S/C8H10O/c1-2-3-4-7-6-5-8(6)9-7/h6-8H,4-5H2,1H3/t6-,7+,8-/m0/s1
