22
gdb 77561	2.235	1.50083	1.34123	1.7309	82.16	-0.2251	0.0651	0.2903	1137.8036	0.191728	-404.316743	-404.30677	-404.305826	-404.350561	38.304	
C	 0.1851990237	 1.5093250628	 0.0740170623	-0.505007
C	-0.0191873079	 0.0288709499	-0.0566936337	 0.361769
C	-0.950640778	-0.7539252102	 0.7784256109	-0.292499
N	 0.4958017972	-0.9831060948	 0.9651834085	-0.198692
C	 0.9682710904	-1.8620768048	-0.1819582864	 0.299047
C	 2.4912751924	-1.9063655954	-0.1220431645	-0.428835
C	 0.3748585276	-3.2633049181	-0.2265123387	-0.445577
C	 0.445979862	-0.8171439321	-1.2325418194	-0.015546
O	-0.6005174375	-1.1736095562	-2.1123817333	-0.431806
H	 1.2071331762	 1.7987283427	-0.1942848218	 0.118028
H	-0.5027719318	 2.0531738714	-0.5838063559	 0.127179
H	 0.0006394507	 1.8349423638	 1.1017810179	 0.128063
H	-1.3975091159	-0.2380385558	 1.6235682902	 0.113902
H	-1.5797635249	-1.5189506503	 0.3367743721	 0.123404
H	 2.8245958161	-2.4727649905	 0.7531676846	 0.122067
H	 2.9037729646	-2.3805045273	-1.0197970726	 0.102793
H	 2.9072893167	-0.8974943247	-0.0407746063	 0.116781
H	-0.6958864094	-3.2599857329	-0.4374946775	 0.126738
H	 0.8595215516	-3.858787879	-1.0083493037	 0.107287
H	 0.5421653333	-3.7696615989	 0.7301795649	 0.124423
H	 1.2760174814	-0.3502334307	-1.7797780196	 0.062979
H	-0.2241898986	-1.6754852389	-2.8426230079	 0.283503
113.7967	159.5092	173.5531	208.5794	229.1099	238.4695	253.7702	291.6197	322.9384	358.3424	371.3038	473.6292	509.509	579.9262	588.3692	692.5993	776.9094	803.3465	840.578	933.9481	948.618	966.1257	973.9198	1007.4895	1037.7336	1087.1736	1097.4253	1117.9443	1142.402	1171.2163	1193.9856	1227.7453	1256.3348	1292.183	1334.8116	1373.9185	1397.6867	1411.4095	1418.3782	1445.5368	1476.482	1479.0949	1483.4861	1494.3127	1496.4807	1504.4837	1518.6916	3007.6646	3027.7486	3028.8121	3036.5449	3088.7941	3093.9907	3101.7712	3108.1743	3111.0789	3122.934	3131.9114	3210.0298	3814.4525
CC12CN1C(C)(C)C2O	C[C@]12CN1C(C)(C)[C@H]2O	
InChI=1S/C7H13NO/c1-6(2)5(9)7(3)4-8(6)7/h5,9H,4H2,1-3H3	InChI=1S/C7H13NO/c1-6(2)5(9)7(3)4-8(6)7/h5,9H,4H2,1-3H3/t5-,7-,8?/m1/s1
