21
gdb 74057	2.51291	1.3333	1.08619	3.8885	86.47	-0.2286	-0.037	0.1917	1236.401	0.181053	-387.150846	-387.141221	-387.140277	-387.185146	36.18	
C	-0.017933359	 1.4973109304	 0.0313298332	-0.485242
C	-0.0007096567	 0.005739854	-0.0349645624	 0.322159
C	-0.0180716128	-0.7578209883	-1.1396809412	-0.29269
C	 0.0079761927	-2.1869601373	-0.7903928149	 0.386377
O	 0.0011568014	-3.1335095922	-1.5471360062	-0.36402
C	 0.0470075142	-2.303047378	 0.7547872805	 0.184176
C	-1.1941023493	-3.0813066494	 1.2203951159	-0.423968
C	 1.328265734	-3.0499912931	 1.1589369581	-0.423959
C	 0.0402520363	-0.8285170348	 1.2270789682	-0.358359
H	 0.8663485938	 1.8712017827	 0.5625478933	 0.137948
H	-0.0441438449	 1.9519650672	-0.9616205695	 0.134442
H	-0.8889840485	 1.8490516668	 0.5984153206	 0.138088
H	-0.0471728068	-0.407468826	-2.1642745061	 0.106781
H	-1.2241312192	-4.0605778723	 0.7344759386	 0.136615
H	-1.1779785534	-3.2290205925	 2.3055827532	 0.108924
H	-2.1171204788	-2.5501367956	 0.9637816263	 0.112433
H	 2.2242184111	-2.4962569886	 0.857939525	 0.112441
H	 1.3687026059	-3.1973387647	 2.2435409416	 0.108925
H	 1.3588596914	-4.0285417773	 0.6716021015	 0.136612
H	 0.9275740746	-0.577082472	 1.8228498373	 0.111163
H	-0.8230095359	-0.5987537888	 1.8654350472	 0.111156
48.0907	135.6061	175.5202	227.7853	237.9392	248.5941	280.6741	294.5509	343.7576	385.7005	441.5187	528.0553	545.0425	619.3631	720.7666	741.124	865.6027	882.0999	890.6479	925.5	962.9171	981.203	1015.4465	1032.9106	1041.7472	1138.9031	1144.0759	1159.2387	1226.0246	1240.1897	1249.908	1316.5096	1342.3369	1394.0905	1409.6842	1416.018	1472.6032	1477.3328	1479.0932	1483.035	1490.0756	1501.6575	1510.9891	1680.7866	1800.7706	3015.424	3023.544	3026.9727	3031.1388	3043.9169	3071.2547	3093.2675	3095.9963	3114.4858	3118.1801	3122.7704	3210.5388
CC1=CC(=O)C(C)(C)C1	CC1=CC(=O)C(C)(C)C1	
InChI=1S/C8H12O/c1-6-4-7(9)8(2,3)5-6/h4H,5H2,1-3H3	InChI=1S/C8H12O/c1-6-4-7(9)8(2,3)5-6/h4H,5H2,1-3H3
