16
gdb 123756	4.73352	1.09283	1.02262	3.0472	71.63	-0.2551	-0.0238	0.2313	1174.0539	0.125757	-437.856163	-437.848764	-437.84782	-437.889316	26.781	
C	-0.0307635358	 1.1770043911	-0.2500849514	-0.058405
C	 1.4558384148	 1.5132180558	-0.0265311339	-0.302065
C	 1.4853038451	 0.1950191153	 0.7906576447	 0.028344
O	 0.0967159614	-0.0678255173	 0.4750283939	-0.284568
C	 2.3987984258	-0.8859783503	 0.3336293914	 0.45227
C	 3.2271299418	-1.741720666	 0.9928634239	-0.353926
C	 3.8078370087	-2.5109628346	-0.0493582076	 0.037898
N	 3.3705924286	-2.151350704	-1.2310838013	-0.13381
O	 2.4748941673	-1.115988738	-0.9910046816	-0.210361
H	-0.7462316657	 1.8538418739	 0.2317211081	 0.105392
H	-0.3360747866	 1.0114120473	-1.2887590488	 0.117859
H	 2.0721054491	 1.493656117	-0.9248009269	 0.134646
H	 1.6660940034	 2.4167180613	 0.5462086468	 0.11718
H	 1.6265586016	 0.3289291408	 1.8701813938	 0.089086
H	 3.3912278881	-1.8154035657	 2.0548150428	 0.124809
H	 4.5279688524	-3.3140413765	 0.0197961862	 0.135651
56.0692	69.6462	147.3572	204.9305	389.9291	392.5499	649.0429	656.6375	731.9599	795.9018	820.0221	833.9653	917.7024	921.3782	939.8466	944.1818	953.2518	1004.162	1026.2459	1041.9963	1053.1122	1092.5856	1164.0858	1210.1988	1219.5241	1260.568	1263.3098	1278.3466	1331.1797	1354.8651	1406.2674	1488.1315	1509.1486	1531.1949	1634.6676	3024.9005	3031.8233	3072.656	3094.7765	3155.9845	3245.5263	3281.1001
C1CC(O1)C1=CC=NO1	C1C[C@@H](O1)c1ccno1	
InChI=1S/C6H7NO2/c1-3-7-9-6(1)5-2-4-8-5/h1,3,5H,2,4H2	InChI=1S/C6H7NO2/c1-3-7-9-6(1)5-2-4-8-5/h1,3,5H,2,4H2/t5-/m1/s1
