20
gdb 81563	4.12292	1.06024	0.98922	3.7146	81.37	-0.2273	0.0196	0.2469	1285.7617	0.169767	-403.111145	-403.10214	-403.101196	-403.145145	33.499	
C	 0.0876066519	 1.71610548	 0.0379450638	-0.442545
C	-0.0283978119	 0.2034839314	-0.0117767772	 0.058161
C	 1.0041653616	-0.6940738335	-0.7697721915	-0.058399
C	 2.0346512104	-0.4395260839	 0.370193824	-0.239074
C	 0.6575593999	-0.7268368635	 1.0441974476	-0.032598
N	 0.4441512014	-1.8391802982	 0.0500584866	-0.09871
C	 1.0062835009	-3.0964715144	 0.1992687373	 0.35719
C	 1.314835314	-3.8109664482	-1.1066179225	-0.482653
O	 1.1578534418	-3.6109175527	 1.2901988428	-0.355916
H	 1.0993034156	 2.0752705238	 0.2394397919	 0.121882
H	-0.2363419487	 2.1521274752	-0.9131778013	 0.124539
H	-0.5674597434	 2.1172519811	 0.8186478782	 0.127572
H	-1.0563336418	-0.1069517008	-0.2160785993	 0.087221
H	 1.1697743398	-0.7820800348	-1.8441614298	 0.089581
H	 2.794794708	-1.2092553268	 0.5121607225	 0.118743
H	 2.4589302298	 0.5607609915	 0.4664240356	 0.100783
H	 0.4272591174	-0.8608267024	 2.0991127021	 0.107354
H	 2.2677333594	-3.450221892	-1.511507698	 0.135691
H	 1.4046585737	-4.880070436	-0.9130122834	 0.145692
H	 0.5427791803	-3.6282129057	-1.8583802598	 0.135484
82.1037	105.7158	126.0268	137.9529	177.9991	294.1119	326.525	386.4683	509.0842	559.1272	582.361	644.5337	719.0485	766.4529	791.0104	805.441	893.1648	907.3525	986.8386	1007.5227	1009.271	1047.1065	1050.0897	1060.1183	1093.7911	1112.2968	1137.3706	1155.0208	1168.3077	1203.4252	1234.8036	1247.1994	1267.0675	1345.6081	1385.8532	1400.6404	1423.5309	1470.7238	1480.6824	1495.003	1496.9416	1522.7504	1773.6691	3039.0369	3041.2005	3077.2988	3079.3579	3096.2892	3109.7143	3113.0607	3122.485	3145.6145	3147.3588	3157.435
CC1C2CC1N2C(C)=O	C[C@H]1[C@H]2C[C@@H]1N2C(=O)C	
InChI=1S/C7H11NO/c1-4-6-3-7(4)8(6)5(2)9/h4,6-7H,3H2,1-2H3	InChI=1S/C7H11NO/c1-4-6-3-7(4)8(6)5(2)9/h4,6-7H,3H2,1-2H3/t4-,6+,7-
