14
gdb 5193	6.05089	1.13834	1.05528	2.4894	63.96	-0.2296	-0.0233	0.2063	1071.6651	0.106934	-382.573508	-382.566287	-382.565343	-382.606586	25.328	
O	-0.0875357847	-0.1163931655	-0.0213349083	-0.233222
C	 0.0098187988	 1.0800124371	-0.0866925477	 0.167525
C	 1.3320827297	 1.8351089323	-0.1458638282	-0.396439
C	 1.325464992	 2.8899137131	-1.2131454278	 0.213659
C	 1.8465519904	 2.7894911872	-2.4673356462	-0.0854
O	 1.6275658273	 3.9271260714	-3.175894933	-0.136006
C	 0.9452746837	 4.7735891709	-2.3623138905	 0.010975
C	 0.7297932398	 4.1986360757	-1.1518892924	-0.281553
H	-0.89112521	 1.7347899078	-0.1108520381	 0.080283
H	 1.4817637728	 2.3002374469	 0.8389228671	 0.131803
H	 2.1322034946	 1.1051224936	-0.2918878894	 0.130822
H	 2.387397387	 2.0110943084	-2.9803054184	 0.143391
H	 0.697266948	 5.7325586089	-2.7860415396	 0.140925
H	 0.2220342206	 4.6440612423	-0.3100556274	 0.113238
37.2817	59.2029	150.3707	300.7435	365.8045	448.6197	623.6131	639.5006	691.5887	740.6864	789.646	802.2774	832.7521	892.7332	977.3315	1026.1161	1050.2431	1060.9113	1104.0641	1183.9085	1214.1095	1262.2068	1277.0559	1307.8254	1409.2294	1424.08	1456.3591	1534.6879	1630.475	1837.0876	2873.0643	3016.7701	3106.0811	3250.067	3275.3971	3286.6525
O=CCC1=COC=C1	O=CCc1cocc1	
InChI=1S/C6H6O2/c7-3-1-6-2-4-8-5-6/h2-5H,1H2	InChI=1S/C6H6O2/c7-3-1-6-2-4-8-5-6/h2-5H,1H2
