15
gdb 129579	5.14715	1.0837	0.89584	10.4541	72.91	-0.1942	-0.0101	0.1841	1214.5793	0.114125	-446.328309	-446.320323	-446.319379	-446.360967	29.682	
N	 0.0345564377	 1.3439388441	-0.0265256491	-0.528554
C	 0.0483484999	 0.0232885124	 0.0343039241	 0.53137
N	 1.2174781111	-0.6843924435	 0.0912960994	-0.571354
N	-1.1138357024	-0.6272955954	 0.0851839935	-0.402367
H	-1.1409018448	-1.6342752016	 0.1245370789	 0.27725
C	-2.3736107265	 0.0147068098	 0.1302167923	 0.427293
N	-3.5106061868	-0.6647364532	 0.2113918249	-0.387577
C	-4.3826175838	 0.3800906647	 0.2235734834	 0.003842
N	-3.8263858538	 1.5875253366	 0.1548353907	-0.253064
N	-2.4828488998	 1.3438716238	 0.0908146364	-0.332
H	 0.8954313883	 1.860682247	 0.0308346031	 0.262863
H	-0.9632868971	 1.7717023663	 0.0140269209	 0.326109
H	 2.0369445598	-0.2324299863	-0.2825970562	 0.276705
H	 1.1737265058	-1.6720413559	-0.1051199431	 0.276171
H	-5.4533307678	 0.2435796711	 0.2840084007	 0.093315
89.7851	123.256	181.1798	220.1882	350.5442	395.7355	417.4857	437.5156	458.8062	557.0819	574.3254	691.5317	706.3844	735.5512	833.2408	876.77	967.6828	992.5468	1020.4432	1068.9651	1105.3139	1122.3688	1186.1802	1203.2493	1273.4996	1316.552	1419.4922	1441.0233	1455.4978	1566.6188	1635.1205	1676.1683	1728.5045	2416.7937	3238.4719	3595.3533	3643.0009	3672.8432	3700.1007
NC(N)=[NH+]C1=NC=N[N-]1	[NH2]=C(N)Nc1ncnn1	
InChI=1S/C3H5N6/c4-2(5)8-3-6-1-7-9-3/h1H,(H4-,4,5,6,7,8,9)/q-1/p+1	InChI=1S/C3H7N6/c4-2(5)8-3-6-1-7-9-3/h1H,4-5H2,(H2,6,7,8,9)
