19
gdb 72812	2.61572	1.59974	1.27057	2.2066	74.68	-0.2372	-0.0269	0.2103	1055.5809	0.158755	-423.044534	-423.036324	-423.03538	-423.077416	31.653	
C	-0.3220724333	 1.5659336173	 0.2761676219	-0.454457
C	 0.1199266322	 0.1356158601	 0.0570740262	 0.433976
C	-1.011951237	-0.9446154511	 0.1055532635	-0.283038
C	-0.411739091	-1.4945911078	 1.4296196821	-0.230137
C	 0.8519381149	-0.6089327318	 1.203848515	-0.213859
C	 1.9802502925	-1.3358747174	 0.4843949686	 0.377946
O	 2.7874055953	-2.087343017	 0.9646107327	-0.30678
C	 1.8906523224	-0.9523138417	-0.9991102244	-0.202729
O	 0.9559761317	 0.100953123	-1.1050111236	-0.299892
H	 0.5436495871	 2.2184872747	 0.4230841676	 0.123495
H	-0.8782871746	 1.9240781954	-0.5959704343	 0.129931
H	-0.9725199547	 1.6422796728	 1.1528389167	 0.116898
H	-2.0343951342	-0.563647333	 0.1533970067	 0.105653
H	-0.9435345162	-1.6452747492	-0.7301186923	 0.111834
H	-0.9686118744	-1.182028983	 2.3152611252	 0.11478
H	-0.2378957016	-2.5707577739	 1.4935532872	 0.118245
H	 1.2364588079	-0.0484753172	 2.0586256705	 0.098802
H	 2.8643652484	-0.6244753323	-1.3777928125	 0.137129
H	 1.5894262846	-1.8405878481	-1.5782704868	 0.122203
64.8936	131.7793	201.4096	232.8875	279.6428	325.78	398.5908	464.7686	540.4488	573.2028	637.2374	658.8769	725.8645	775.8415	867.141	893.3692	912.4811	915.6334	944.3198	967.9458	990.874	1080.8294	1100.7933	1117.9288	1153.5149	1177.1817	1201.9037	1210.3715	1212.0029	1233.7262	1261.5799	1285.3472	1328.1766	1339.3707	1410.5734	1474.4229	1482.1781	1484.6352	1492.7818	1497.1653	1850.2108	2977.2006	3037.4166	3066.5114	3072.0935	3072.7251	3092.5173	3111.1209	3112.5094	3115.2827	3130.2305
CC12CCC1C(=O)CO2	C[C@]12CC[C@H]1C(=O)CO2	
InChI=1S/C7H10O2/c1-7-3-2-5(7)6(8)4-9-7/h5H,2-4H2,1H3	InChI=1S/C7H10O2/c1-7-3-2-5(7)6(8)4-9-7/h5H,2-4H2,1H3/t5-,7-/m0/s1
