12
gdb 27027	3.03024	1.37842	0.94807	3.5464	67.61	-0.2252	-0.0297	0.1955	1118.4327	0.078077	-468.833177	-468.825478	-468.824534	-468.86555	28.205	
N	 0.1696165083	 1.3559052222	 0.1731504579	-0.599616
C	-0.0117371509	 0.0185230098	 0.0622190313	 0.303025
C	-1.1051433536	-0.7776666332	 0.0198368082	 0.140206
O	-0.6537329325	-2.1132540386	-0.0071618006	-0.251595
C	 0.704204689	-2.0747724846	-0.0016545536	 0.500279
N	 1.5363276881	-3.0081509203	-0.0324813307	-0.569725
O	 1.1070125042	-0.7491704633	 0.0470507859	-0.197462
C	-2.4659130544	-0.4689302857	-0.0003103949	 0.197194
N	-3.5872082653	-0.1655456566	-0.0196133432	-0.346911
H	 1.0471332107	 1.7134056384	-0.1739851342	 0.285945
H	-0.6344998626	 1.9345846246	-0.0161096802	 0.289777
H	 1.0724936689	-3.9119295128	-0.0680326861	 0.248884
114.025	131.4617	191.6677	274.9614	314.9484	352.8863	456.7529	494.219	527.0889	549.8327	620.9194	681.5315	683.7801	725.3672	786.2324	814.2467	944.223	1014.0325	1052.7582	1152.0364	1267.9841	1316.7959	1454.2453	1627.1996	1742.0387	1831.3352	2317.9045	3554.3967	3582.6383	3694.3356
NC1=C(OC(=N)O1)C#N	NC1=C(O[C@H]([NH])O1)C#N	
InChI=1S/C4H3N3O2/c5-1-2-3(6)9-4(7)8-2/h7H,6H2	InChI=1S/C4H4N3O2/c5-1-2-3(6)9-4(7)8-2/h4,7H,6H2/t4-/m0/s1
