20
gdb 58347	2.04726	1.39339	1.04079	2.1116	76.89	-0.2127	-0.0391	0.1736	1253.0074	0.166292	-440.292778	-440.282034	-440.28109	-440.328882	37.573	
C	 0.9990966941	-1.266947046	 0.4125024637	-0.327147
N	 0.1468366055	-0.0940769479	 0.2858012798	-0.05602
C	 0.6894117063	 0.8986276528	-0.6411179011	-0.334961
C	-1.2631736473	-0.3861390935	 0.1456208924	-0.195921
C	-2.0679713026	 0.8657278264	 0.5345567219	 0.147473
O	-3.1934874802	 1.1272132264	 0.2026904274	-0.244352
C	-1.7263390344	-1.0353717083	-1.1837958202	 0.389256
C	-3.1394993421	-1.571328525	-1.2297467092	-0.486384
O	-0.9633636934	-1.1246940824	-2.1173699607	-0.297487
H	 2.0033499739	-0.948132695	 0.7112430074	 0.120408
H	 0.6108407644	-1.9236478049	 1.1987151023	 0.111567
H	 1.0879020971	-1.8496000731	-0.5174936082	 0.123234
H	 0.8523634806	 0.5092861817	-1.6536586652	 0.137286
H	 0.011057989	 1.7555588751	-0.7123622068	 0.11736
H	 1.6420192633	 1.2670078816	-0.2446119525	 0.116974
H	-1.529453163	-1.1068596594	 0.9386441888	 0.12102
H	-1.4831332738	 1.5241164879	 1.2124086302	 0.108687
H	-3.8423910394	-0.7496724345	-1.0626362344	 0.177253
H	-3.320363043	-2.0470263985	-2.1943815914	 0.139028
H	-3.298845725	-2.2960801034	-0.4227671143	 0.132727
57.8355	68.4266	123.7668	141.959	196.1873	217.4328	222.1842	247.2045	258.206	312.0607	368.3344	404.3638	454.2669	500.579	618.5164	654.3331	717.1198	873.1824	930.833	971.0208	1031.5206	1069.6765	1076.8118	1100.6536	1114.9535	1175.6669	1186.7642	1207.2297	1246.4858	1329.2675	1349.4951	1379.4401	1396.807	1442.494	1468.135	1470.5278	1472.3849	1473.501	1488.4936	1512.9907	1527.3666	1806.7401	1831.181	2906.9811	2967.2032	2986.3955	3014.3495	3039.2171	3058.3156	3075.205	3090.2657	3094.1959	3109.1561	3155.917
CN(C)C(C=O)C(C)=O	CN(C)[C@@H](C=O)C(=O)C	
InChI=1S/C6H11NO2/c1-5(9)6(4-8)7(2)3/h4,6H,1-3H3	InChI=1S/C6H11NO2/c1-5(9)6(4-8)7(2)3/h4,6H,1-3H3/t6-/m0/s1
