19
gdb 56638	2.05364	1.39842	1.16106	2.7129	75.42	-0.2485	0.0317	0.2802	1173.4461	0.158225	-419.200918	-419.191122	-419.190178	-419.235431	36.542	
C	 0.2216195035	 1.3855473873	 0.2867370547	-0.408997
C	-0.0411011428	-0.0962276963	-0.0360147912	-0.186059
C	-1.4784511205	-0.358223259	-0.1939377477	 0.25421
N	-2.6002607032	-0.5829710418	-0.3634854027	-0.334119
C	 0.6863878003	-0.5812197224	-1.3021354487	 0.259157
N	 0.3681095453	 0.0257789594	-2.5653672739	-0.569118
C	 2.1206994635	-1.0446196877	-1.1337444209	-0.342874
C	 1.0372424399	-2.0547602092	-1.3658395836	 0.088908
O	 0.7396186052	-2.891210167	-0.2871646121	-0.419137
H	 1.2951500557	 1.5438703113	 0.4211653406	 0.130379
H	-0.1277543076	 2.0344585824	-0.5209798964	 0.127365
H	-0.2922904881	 1.6842138078	 1.2035468587	 0.137469
H	 0.2984235635	-0.7138033924	 0.8016212944	 0.137337
H	-0.628899879	-0.0280971949	-2.7563129696	 0.242378
H	 0.636424804	 1.0047781183	-2.5902024139	 0.231684
H	 2.8104352819	-0.8381334278	-1.9427464297	 0.12637
H	 2.5465836695	-1.0166128957	-0.1365752228	 0.123357
H	 0.9815785891	-2.5096275945	-2.3527810715	 0.103184
H	-0.1776206103	-3.1754267478	-0.3734350534	 0.298505
49.0603	123.1185	180.3373	205.3841	228.2024	240.488	278.1402	325.0969	375.7055	384.4985	426.9383	474.0503	524.1174	548.6491	613.1296	732.1573	819.4091	837.9314	855.4663	907.1404	939.1451	991.0054	1013.3653	1053.0573	1094.8584	1115.8609	1123.7235	1180.2128	1244.9656	1253.9023	1279.8244	1304.3538	1325.8217	1357.3059	1407.5747	1427.3616	1486.0838	1493.3792	1502.8776	1658.5003	2347.1767	3048.5276	3068.0195	3124.217	3128.292	3128.5421	3143.0476	3237.6003	3484.5205	3565.5542	3795.18
CC(C#N)C1(N)CC1O	C[C@@H](C#N)[C@@]1(N)C[C@H]1O	
InChI=1S/C6H10N2O/c1-4(3-7)6(8)2-5(6)9/h4-5,9H,2,8H2,1H3	InChI=1S/C6H10N2O/c1-4(3-7)6(8)2-5(6)9/h4-5,9H,2,8H2,1H3/t4-,5+,6-/m0/s1
