21
gdb 96512	2.11638	1.59263	1.20112	3.1148	79.16	-0.2111	-0.012	0.1991	1139.218	0.184817	-420.410433	-420.401583	-420.400639	-420.44414	34.155	
C	 1.4279083279	 0.8447823088	-0.1856939435	-0.415728
C	 0.0238059025	 0.3074576473	 0.1191872744	-0.04173
N	-0.5314170937	-0.4840721131	-0.9828760067	-0.299295
C	 0.2323092829	-1.593133028	-1.5405381685	-0.135454
C	 0.5451153757	-2.7615124389	-0.595127882	-0.165259
N	 1.3556289638	-2.3288976895	 0.5418978323	-0.287634
C	 0.6049780598	-1.7948670924	 1.6673967647	-0.266302
C	-0.0266042227	-0.4056814609	 1.4808680658	 0.363508
O	-0.6076613604	 0.0910471094	 2.4200485013	-0.312501
H	 2.1745871206	 0.0487217338	-0.1848481394	 0.141467
H	 1.4268189466	 1.3346299598	-1.1643117464	 0.124372
H	 1.7096670972	 1.5837436314	 0.5698845524	 0.124875
H	-0.6464792416	 1.1643889917	 0.249129441	 0.096999
H	-1.4767903366	-0.774795762	-0.7590392239	 0.21929
H	-0.3317222215	-1.9755401617	-2.4001849264	 0.097954
H	 1.177459545	-1.2018566779	-1.9307938408	 0.114697
H	-0.4008553221	-3.2379761884	-0.2720582415	 0.074438
H	 1.1092966929	-3.5184708363	-1.1526323261	 0.09659
H	 1.9283827671	-3.0969050055	 0.8674195256	 0.226603
H	-0.2216052183	-2.4540817489	 1.9947544533	 0.110675
H	 1.2758955248	-1.6996240086	 2.5276334046	 0.132435
39.9214	143.9418	206.6188	241.242	276.9098	307.6051	331.6184	390.3567	404.5753	500.105	518.6239	609.6795	618.755	670.5475	711.4371	792.2014	826.6478	887.6336	926.1847	974.7572	999.3726	1009.4516	1072.8705	1083.733	1143.9656	1172.854	1201.4843	1234.627	1248.9534	1286.1144	1306.0624	1327.4275	1343.8994	1377.2071	1391.2175	1397.3013	1411.369	1452.3884	1477.1857	1481.9845	1489.7717	1496.6511	1508.1277	1522.6135	1792.0466	2915.9313	2926.1103	3031.7158	3043.8967	3047.1413	3055.3154	3074.2189	3084.5318	3114.9229	3139.7267	3529.4485	3554.2717
CC1NCCNCC1=O	C[C@H]1NCCNCC1=O	
InChI=1S/C6H12N2O/c1-5-6(9)4-7-2-3-8-5/h5,7-8H,2-4H2,1H3	InChI=1S/C6H12N2O/c1-5-6(9)4-7-2-3-8-5/h5,7-8H,2-4H2,1H3/t5-/m1/s1
