19
gdb 75032	2.54317	1.54257	1.09326	0.2953	93.37	-0.2023	-0.0413	0.161	1160.0844	0.159998	-348.768427	-348.760149	-348.759205	-348.800842	32.33	
C	 0.2877320387	 1.5706955404	-0.0263452368	-0.473075
C	 0.0235411275	 0.084203023	-0.0547164833	 0.280114
C	 0.0481403323	-0.6003415048	-1.2066683043	-0.183815
C	-0.1217053628	-2.0452251922	-1.4127690677	-0.095898
C	-1.1326236985	-2.8223483068	-1.0045243017	-0.098761
C	-2.3127973068	-2.424531272	-0.2260645106	-0.091043
C	-2.33511191	-1.7564035961	 0.9334220719	-0.11117
C	-1.1769509362	-1.2846884749	 1.70621088	-0.0864
C	-0.1637793441	-0.5237780108	 1.2815576817	-0.152164
H	 1.1531568739	 1.803624272	 0.6076461854	 0.123196
H	 0.4799193153	 1.9668328072	-1.0266898334	 0.120976
H	-0.5643099814	 2.1130906276	 0.4015635708	 0.130178
H	 0.2840809394	-0.0420939597	-2.1137157704	 0.084507
H	 0.6319715307	-2.5046088966	-2.0529270726	 0.091537
H	-1.1329831261	-3.860552516	-1.3362883505	 0.092236
H	-3.2638208122	-2.785547385	-0.617608787	 0.093372
H	-3.3014764544	-1.6134513876	 1.4166068857	 0.092935
H	-1.1904302173	-1.5589822183	 2.7614542468	 0.093865
H	 0.5833682221	-0.2261644595	 2.0186787361	 0.08941
117.0067	177.9033	215.1706	226.9188	272.9664	298.2486	356.5168	381.8795	462.2073	585.6375	665.5799	677.5194	718.3257	761.4048	802.6132	819.0876	893.0729	915.9954	944.7209	962.4268	979.2027	995.3586	1000.0869	1019.0256	1066.1571	1082.6086	1166.3549	1243.3561	1246.7826	1259.5696	1358.0715	1407.578	1409.184	1433.4659	1459.7513	1477.2943	1492.4013	1700.2888	1701.9517	1712.4914	1730.9348	3017.191	3065.4321	3103.6411	3105.289	3111.6177	3114.0804	3116.7829	3126.6082	3132.664	3140.3776
CC1=CC=CC=CC=C1	CC1=CC=CC=CC=C1	
InChI=1S/C9H10/c1-9-7-5-3-2-4-6-8-9/h2-8H,1H3/b3-2-,4-2?,5-3?,6-4-,7-5-,8-6?,9-7?,9-8-	InChI=1S/C9H10/c1-9-7-5-3-2-4-6-8-9/h2-8H,1H3/b3-2-,4-2?,5-3?,6-4-,7-5-,8-6?,9-7?,9-8-
