16
gdb 50405	2.76769	1.36215	0.94268	5.1292	72.37	-0.2475	-0.0446	0.2029	1177.1014	0.124879	-437.939411	-437.931475	-437.930531	-437.972266	29.428	
O	-0.0986044147	-0.0477900151	-0.0731072947	-0.245147
C	-0.0267128646	 1.1483721628	 0.0364671655	 0.155852
C	 1.2776981217	 1.917469725	 0.0836231634	-0.057925
C	 1.3293935859	 2.9138541891	 1.2545057421	-0.275872
C	 2.7232638361	 3.4744411472	 1.3775728237	-0.081364
C	 3.7887598446	 2.7957817114	 0.9473411481	-0.137985
C	 3.6801560444	 1.416083384	 0.3947251729	 0.399658
O	 4.6471750927	 0.6927794934	 0.2403382236	-0.373021
N	 2.3957050324	 1.009864088	 0.1333838019	-0.339433
H	-0.9350466454	 1.7879532251	 0.0845459092	 0.093302
H	 1.2865253199	 2.5189218855	-0.848010344	 0.109736
H	 0.600428252	 3.7142883651	 1.0901937122	 0.121037
H	 1.0487399733	 2.4164841906	 2.1944012011	 0.136383
H	 2.837988223	 4.4397298613	 1.8632943379	 0.113607
H	 4.801185187	 3.1676130856	 1.0511573647	 0.120387
H	 2.2604513917	 0.0768816812	-0.2299695276	 0.260784
98.7182	115.8416	156.9907	207.5294	323.7974	366.6913	438.5562	471.8761	537.8243	564.8735	661.6572	665.5193	713.1454	826.6352	867.4762	921.413	928.6036	981.7253	1010.7352	1050.4149	1068.991	1161.0854	1206.0126	1211.0362	1298.9904	1309.8517	1354.4172	1367.4369	1403.2676	1425.6621	1447.5283	1472.4526	1689.4384	1787.9814	1832.4229	2891.8895	2906.3927	3008.788	3073.7692	3165.2169	3213.4489	3609.3178
O=CC1CC=CC(=O)N1	O=C[C@H]1CC=CC(=O)N1	
InChI=1S/C6H7NO2/c8-4-5-2-1-3-6(9)7-5/h1,3-5H,2H2,(H,7,9)	InChI=1S/C6H7NO2/c8-4-5-2-1-3-6(9)7-5/h1,3-5H,2H2,(H,7,9)/t5-/m1/s1
