14
gdb 130360	7.54596	0.81686	0.7371	4.1172	75.7	-0.2102	-0.0238	0.1864	1433.6632	0.101068	-470.013319	-470.00486	-470.003916	-470.047135	30.056	
N	-0.0047498957	 1.3333318841	-0.1406347892	-0.493253
C	-0.0986228733	-0.0104530943	-0.2147259709	 0.123486
N	-1.044124566	-0.6493724302	 0.3809638791	-0.373235
C	-1.1136532621	-2.0073632648	 0.2597393722	 0.566027
C	-2.0090051678	-2.8865861077	 0.8020262607	-0.484102
C	-1.562448604	-4.1407357615	 0.3194118144	 0.487029
O	-2.1364978959	-5.3248947051	 0.5895614466	-0.423359
N	-0.4988445823	-4.0581606974	-0.4457665635	-0.27646
O	-0.204184748	-2.6819541973	-0.4883796336	-0.2407
H	 0.7796336546	 1.8208845995	-0.5324071207	 0.272978
H	-0.6522372218	 1.8388305351	 0.4422434722	 0.272913
H	 0.674835574	-0.4873976853	-0.8213077803	 0.140985
H	-2.8466310006	-2.6687539876	 1.4399416432	 0.120921
H	-1.6241085611	-6.0038306574	 0.1301663298	 0.30677
52.6303	103.8634	139.7844	149.4199	275.5996	357.7071	410.9307	417.1241	455.2219	519.4241	614.2992	689.4815	694.5726	730.4621	786.2425	795.9367	962.5185	990.5241	1021.5229	1038.2233	1067.9876	1194.1093	1243.5527	1286.4846	1323.3641	1386.2056	1546.6177	1556.1746	1617.6752	1669.5672	1719.479	3107.489	3297.3026	3611.6891	3753.7394	3776.6831
NC=NC1=CC(O)=NO1	NC=Nc1cc(O)no1	
InChI=1S/C4H5N3O2/c5-2-6-4-1-3(8)7-9-4/h1-2H,(H2,5,6)(H,7,8)	InChI=1S/C4H5N3O2/c5-2-6-4-1-3(8)7-9-4/h1-2H,(H2,5,6)(H,7,8)
