16
gdb 124207	4.7533	0.99162	0.8247	3.8505	75.95	-0.2157	-0.0107	0.2051	1318.2626	0.126387	-430.250876	-430.242769	-430.241825	-430.284482	29.987	
C	 1.4216100747	-0.4488605851	 0.2205736532	-0.451379
C	 0.0242795473	 0.1055089905	 0.1297783764	 0.397962
N	-0.1456642395	 1.3697652485	 0.2123590282	-0.521257
N	-1.0092239384	-0.8056551967	-0.0412245793	-0.440807
C	-1.0134318711	-2.1857253498	-0.1501689495	 0.399813
C	-0.0373640307	-3.1614507453	-0.1338582579	-0.168074
N	-0.7500748483	-4.3115788618	-0.292314126	-0.156144
N	-2.0585254178	-4.0828323622	-0.3997610929	-0.105877
N	-2.22739447	-2.7927822305	-0.3141220485	-0.267609
H	 2.1062325208	 0.3871065931	 0.3526610967	 0.153782
H	 1.5229155487	-1.1333194931	 1.0693907686	 0.135606
H	 1.6923993156	-0.9939501769	-0.6898404468	 0.135643
H	-1.1332742789	 1.6250245078	 0.1371456619	 0.199339
H	-1.9407140756	-0.4181704458	-0.1000207835	 0.254852
H	 1.0305454995	-3.1558713957	-0.0308027863	 0.147998
H	-0.4079536462	-5.258280317	-0.3351274342	 0.286153
43.4769	76.3609	182.1099	274.904	327.7408	331.5788	422.1222	529.3712	544.4119	553.8308	571.9196	680.6948	718.3162	749.7557	778.9571	871.3804	901.8979	995.8642	1030.549	1047.2969	1076.2074	1088.8513	1145.8236	1164.5721	1251.0247	1307.2548	1359.0193	1375.6038	1424.5076	1457.2749	1485.2274	1489.1877	1542.1198	1628.6946	1720.5121	3041.0343	3101.1191	3169.0949	3323.1925	3437.0431	3599.2836	3658.1905
CC(=N)NC1=CNN=N1	CC(=N)Nc1c[nH]nn1	
InChI=1S/C4H7N5/c1-3(5)7-4-2-6-9-8-4/h2H,1H3,(H3,5,6,7,8,9)	InChI=1S/C4H7N5/c1-3(5)7-4-2-6-9-8-4/h2H,1H3,(H3,5,6,7,8,9)
