16
gdb 98790	4.20366	1.05623	0.95933	2.6914	65.63	-0.2558	0.0011	0.2569	1232.9152	0.124341	-475.060486	-475.051841	-475.050896	-475.095607	29.324	
C	 0.0298330073	 1.3736254285	-0.0448919235	-0.242505
O	 0.1383716525	-0.0574765381	-0.0166230481	-0.237474
C	 0.6632625731	-0.617740976	-1.1232698493	 0.422772
O	 1.0476034265	-0.0105793624	-2.0852190876	-0.345359
C	 0.633736173	-2.1317213352	-0.9781704499	-0.027796
C	-0.7507143191	-2.7396901857	-1.3832403595	-0.199064
N	-0.4659969176	-3.5207492501	-2.5945617313	-0.255541
C	 0.7823036115	-3.4358722601	-2.7784454098	 0.131987
O	 1.5484735097	-2.7190530141	-1.9161136799	-0.206607
H	 1.017415759	 1.8299249545	-0.146576586	 0.146778
H	-0.594636385	 1.6950684582	-0.8819799908	 0.145259
H	-0.4258643587	 1.6551035704	 0.9040641924	 0.137924
H	 0.937574419	-2.4087028262	 0.0330536552	 0.121098
H	-1.1561228992	-3.3895057406	-0.6018869536	 0.128321
H	-1.499941052	-1.9710238537	-1.5942578026	 0.130971
H	 1.3381556801	-3.9028758294	-3.5828517956	 0.149236
33.5719	63.1865	104.1021	130.5425	208.3157	274.312	323.5202	397.428	493.1938	683.1422	730.2001	782.4209	851.3818	891.7206	959.436	969.9606	980.8205	999.9071	1052.8222	1070.5042	1123.1963	1179.2306	1198.3669	1206.879	1226.0789	1284.5253	1313.9511	1337.0098	1379.09	1473.8632	1481.7768	1497.1465	1500.2504	1715.0484	1843.7956	3053.4677	3054.9862	3086.1744	3101.015	3131.2373	3163.8073	3228.0783
COC(=O)C1CN=CO1	COC(=O)[C@H]1CN=CO1	
InChI=1S/C5H7NO3/c1-8-5(7)4-2-6-3-9-4/h3-4H,2H2,1H3	InChI=1S/C5H7NO3/c1-8-5(7)4-2-6-3-9-4/h3-4H,2H2,1H3/t4-/m1/s1
