16
gdb 72784	2.57786	1.87023	1.34496	3.7644	71.69	-0.2202	-0.0285	0.1917	959.4435	0.124593	-437.875091	-437.867379	-437.866435	-437.907017	29.562	
C	-0.1098670718	 1.559753971	-0.3189083917	-0.441948
C	 0.0070809329	 0.0962588803	 0.0603705882	 0.28467
O	 1.0961919451	-0.5579466245	-0.6844492492	-0.324761
C	 1.9241675624	-0.6494110733	 0.5195656183	-0.134498
C	 0.6753102132	-0.3803092353	 1.3261976616	-0.041078
C	-0.1674339291	-1.1902116533	 1.9854806936	-0.062268
N	-1.4367595202	-1.1473916122	 1.3917110011	-0.319782
C	-1.4040727754	-0.5564487834	 0.1268185913	 0.368521
O	-2.3333883449	-0.4599252005	-0.6343114546	-0.353598
H	 0.8661721288	 2.0485255669	-0.2706667026	 0.122154
H	-0.5013622555	 1.6340892179	-1.3377999983	 0.148258
H	-0.8014728709	 2.0827941475	 0.3486561006	 0.128674
H	 2.3959084424	-1.630277597	 0.6291156972	 0.118271
H	 2.6900670431	 0.1353431804	 0.5223440355	 0.111299
H	 0.0379132519	-1.9279918198	 2.7502301102	 0.131454
H	-2.2726992119	-1.5733520746	 1.7589708189	 0.264632
114.9574	212.7128	218.0435	236.411	296.8236	303.4771	394.7862	509.8446	557.0184	596.1272	645.6497	710.3941	755.8208	820.2071	838.2779	882.6756	904.0344	944.7664	989.4054	1068.6703	1093.5108	1116.3659	1132.2928	1141.4842	1224.8461	1254.8924	1312.6592	1354.9138	1390.8049	1402.6378	1477.6754	1482.6445	1520.1262	1674.7845	1841.3196	3025.4946	3043.6039	3087.1305	3117.1768	3129.6903	3217.0395	3648.6327
CC12OCC1=CNC2=O	C[C@@]12OC[C]1[CH]NC2=O	
InChI=1S/C6H7NO2/c1-6-4(3-9-6)2-7-5(6)8/h2H,3H2,1H3,(H,7,8)	InChI=1S/C6H7NO2/c1-6-4(3-9-6)2-7-5(6)8/h2H,3H2,1H3,(H,7,8)/t6-/m1/s1
