17
gdb 77330	2.46724	1.51682	1.1779	3.1679	75.71	-0.2265	0.0261	0.2526	1091.621	0.135964	-417.988896	-417.980119	-417.979175	-418.022545	32.094	
C	-0.0632798008	 1.3748340649	 0.00368717	-0.336246
N	-0.0261154917	-0.0609354793	-0.181297804	-0.090316
C	-1.2131814043	-0.8878058602	-0.0086215696	-0.196564
C	-0.5805643173	-2.2811279953	-0.2288470228	-0.102937
O	 0.782672451	-2.1193175438	 0.1665676985	-0.250885
C	 1.1067321707	-0.7884621692	 0.1368784707	 0.476226
N	 2.254288228	-0.299895142	 0.3508196777	-0.603506
C	-1.8549113302	-0.7374913588	 1.3039700217	 0.354575
C	-2.3740675776	-0.6012832102	 2.3793565999	-0.476097
H	 0.9492035901	 1.7528559971	-0.1387393412	 0.171245
H	-0.7313641837	 1.8291616882	-0.7349590815	 0.119344
H	-0.4073764174	 1.6505193977	 1.009213138	 0.129334
H	-1.9481653068	-0.6689920599	-0.7923001153	 0.117547
H	-1.0359120998	-3.0612604261	 0.3813405767	 0.135656
H	-0.625292412	-2.559541718	-1.2878532302	 0.119426
H	 2.933521596	-1.0416736064	 0.4998083548	 0.224897
H	-2.8315546943	-0.4845261588	 3.3311212365	 0.208301
75.6587	117.8121	147.2933	171.5842	212.417	266.3269	309.5771	440.2051	479.0436	560.5919	642.9157	658.2488	667.1587	718.7635	742.1449	777.2864	823.0605	851.5271	985.2596	1006.7922	1049.22	1082.1214	1103.6033	1162.5511	1203.0924	1241.7145	1250.0883	1284.4752	1358.0007	1375.129	1429.2875	1458.2279	1490.6019	1511.9499	1517.9931	1776.9832	2231.2641	3017.0456	3030.9483	3045.3211	3081.2368	3134.2511	3156.6562	3499.7348	3536.0823
CN1C(COC1=N)C#C	CN1[C@@H](CO[C]1[NH])C#C	
InChI=1S/C6H8N2O/c1-3-5-4-9-6(7)8(5)2/h1,5,7H,4H2,2H3	InChI=1S/C6H8N2O/c1-3-5-4-9-6(7)8(5)2/h1,5,7H,4H2,2H3/t5-/m1/s1
