19
gdb 105902	2.15685	1.75743	1.18901	2.3786	74.75	-0.228	0.0709	0.2989	1097.6582	0.157827	-422.931549	-422.92311	-422.922166	-422.964606	32.307	
C	-0.0921440483	 1.5398075321	 0.0222835035	-0.383156
C	 0.1088737259	 0.019730572	-0.0203473476	-0.329556
C	 0.8218591122	-0.45233451	-1.255982002	 0.316158
C	 2.2385493169	-0.1416470719	-1.7670841508	 0.045024
O	 3.247762721	-0.6146338411	-0.9013384992	-0.441778
C	 1.7106811689	-1.0989466366	-2.8548536392	-0.15201
C	 0.8978619966	-1.9212223441	-1.8079336639	 0.036891
O	-0.3647334785	-1.8341366321	-2.5353796412	-0.3317
C	 0.2662722855	-0.5319091718	-2.7209498387	 0.034122
H	 0.8666261632	 2.0683740106	 0.0049573922	 0.12093
H	-0.6806659956	 1.8860286499	-0.8339896504	 0.115912
H	-0.6202680709	 1.8390148131	 0.9324134997	 0.116239
H	 0.6779718447	-0.3039036057	 0.8597119197	 0.113354
H	-0.8614408498	-0.4900717255	 0.024995176	 0.113994
H	 2.4272181693	 0.8934469762	-2.0844196119	 0.066071
H	 4.0974589834	-0.5209680744	-1.3429720807	 0.285605
H	 2.1842699768	-1.4749943228	-3.7615014367	 0.080767
H	 1.1459752389	-2.8487501828	-1.2960340011	 0.100707
H	-0.2481102803	 0.2193159449	-3.3193025977	 0.092426
79.515	159.2486	175.467	200.2465	249.7627	272.0406	309.8949	424.4345	560.4252	591.0719	663.8846	735.7805	772.9153	814.3662	828.8634	858.5566	898.1503	907.3225	937.9074	960.9349	989.8336	1019.8921	1073.8814	1094.5985	1111.6634	1140.9955	1146.332	1162.9489	1171.6163	1201.8695	1252.8797	1260.1863	1305.1409	1331.3984	1335.9928	1381.6731	1411.0214	1448.4182	1479.0018	1499.7244	1505.5281	3004.1601	3027.7761	3035.0694	3062.5659	3103.6255	3107.8034	3117.6018	3127.6256	3145.1775	3821.1479
CCC12C(O)C3C1OC23	CC[C@@]12[C@@H](O)[C@H]3[C@@H]1O[C@@H]23	
InChI=1S/C7H10O2/c1-2-7-4(8)3-5(7)9-6(3)7/h3-6,8H,2H2,1H3	InChI=1S/C7H10O2/c1-2-7-4(8)3-5(7)9-6(3)7/h3-6,8H,2H2,1H3/t3-,4-,5-,6+,7+/m0/s1
