16
gdb 73761	2.32685	1.6491	0.97675	6.3354	75.24	-0.2324	-0.0838	0.1486	1162.9288	0.122628	-437.957992	-437.948693	-437.947749	-437.992754	32.476	
C	 0.0937540445	 1.5196338262	 0.0706380344	-0.501235
C	-0.0497548116	 0.0400272332	-0.0125188918	 0.271586
C	-1.166382985	-0.7329900291	 0.0139451552	 0.064481
C	-2.6031314164	-0.3382992962	 0.1350361946	-0.502631
C	-0.7311082708	-2.1260480434	-0.1025634171	 0.228577
O	-1.3823884262	-3.1433298883	-0.1226315629	-0.301624
C	 0.8356570491	-2.0771495689	-0.2046069622	 0.340302
O	 1.615451133	-2.9852113834	-0.3138275977	-0.320933
N	 1.1223326688	-0.725483047	-0.1391141727	-0.404126
H	 0.711803833	 1.7983921518	 0.9328411096	 0.150462
H	 0.5942507572	 1.9085901321	-0.8245117195	 0.15045
H	-0.8743076496	 2.010796709	 0.1661981671	 0.15258
H	-3.1774113135	-0.6879598126	-0.7299743132	 0.143906
H	-3.0601798458	-0.7975099908	 1.0185148312	 0.143905
H	-2.7326825571	 0.74401527	 0.2115350462	 0.119193
H	 2.0541600505	-0.3466864726	-0.1779396811	 0.265107
49.0737	86.3875	132.7859	137.0865	249.1609	254.0072	298.3337	312.7054	359.2941	490.8573	538.1267	580.1801	605.2037	642.4034	704.5785	829.2973	876.0617	993.6157	996.6198	1048.7015	1067.8004	1110.7855	1149.4846	1281.6234	1316.866	1400.641	1422.9111	1449.1685	1472.7723	1476.3709	1479.6428	1493.2117	1688.9885	1814.4101	1862.1543	3029.1585	3034.8846	3078.4454	3084.9886	3117.6185	3154.9695	3655.8966
CC1=C(C)C(=O)C(=O)N1	CC1=C(C)C(=O)C(=O)N1	
InChI=1S/C6H7NO2/c1-3-4(2)7-6(9)5(3)8/h1-2H3,(H,7,8,9)	InChI=1S/C6H7NO2/c1-3-4(2)7-6(9)5(3)8/h1-2H3,(H,7,8,9)
