14
gdb 123524	4.15976	1.73089	1.22229	0.6623	78.31	-0.2257	-0.0485	0.1773	928.6459	0.106151	-395.78545	-395.779686	-395.778742	-395.815482	23.326	
C	 0.0483008935	 1.3754775733	 0.0095575563	 0.029525
N	 1.3156498896	 1.8255054276	-0.0003183926	-0.290842
N	 2.0548742	 0.7093422821	-0.0135870101	-0.022073
C	 3.4179711343	 0.6524533992	-0.0271505125	-0.011604
C	 4.0036902016	-0.5786087052	-0.039570412	-0.040319
N	 3.3024480757	-1.7520664363	-0.0391655202	-0.273891
C	 1.9940666842	-1.6776425635	-0.0260340653	-0.081495
C	 1.2847540021	-0.4527048481	-0.0124432707	 0.408663
C	-0.0404264226	-0.0180301677	 0.0027959559	-0.364373
H	-0.7581426718	 2.0941843955	 0.0213172613	 0.126294
H	 3.9376787996	 1.6001982012	-0.0270321332	 0.150058
H	 5.084347435	-0.6599347187	-0.0505202608	 0.124379
H	 1.4341485949	-2.609989338	-0.025692282	 0.126498
H	-0.9263950561	-0.6308104814	 0.0080710558	 0.119181
216.8256	236.0069	419.494	433.3665	573.1437	611.0722	651.1103	653.4227	760.3315	788.9476	804.8823	830.3444	901.5514	918.8067	935.7421	944.1117	958.334	1049.3125	1075.8227	1192.1648	1211.2429	1255.4953	1290.3515	1321.0495	1353.4025	1385.4765	1460.0621	1497.7179	1536.9738	1544.9703	1654.0899	3157.3549	3199.8822	3245.4135	3247.9991	3278.586
C1=NN2C=CN=CC2=C1	c1nn2ccncc2c1	
InChI=1S/C6H5N3/c1-2-8-9-4-3-7-5-6(1)9/h1-5H	InChI=1S/C6H5N3/c1-2-8-9-4-3-7-5-6(1)9/h1-5H
