21
gdb 36413	3.6178	1.01943	0.95292	0.7784	87.08	-0.2571	0.0557	0.3128	1320.3969	0.183467	-349.923074	-349.914504	-349.91356	-349.956409	33.721	
C	-0.3052144196	-0.9412171448	-0.5332149104	-0.446008
C	-0.1286688249	 0.2405557221	-0.3984189232	 0.303488
C	 0.1120262787	 1.6683654231	-0.224103495	-0.37196
C	 1.5612114939	 1.9942193814	 0.2181687359	 0.009281
C	 2.6470239926	 1.582520606	-0.8205121423	-0.232423
C	 3.1403017432	 2.8657956592	-1.4730626406	-0.017195
C	 2.1234736952	 3.7947791039	-2.0889600273	-0.290907
C	 2.6139536101	 4.0435349991	-0.6836590457	-0.017221
C	 1.7808175201	 3.5155398613	 0.475629669	-0.247713
H	-0.4728514481	-1.982358866	-0.6560180136	 0.192935
H	-0.1339782558	 2.1906344182	-1.1563419616	 0.131638
H	-0.5820858719	 2.060363897	 0.5305729748	 0.127623
H	 1.7213523302	 1.4397587853	 1.1470598987	 0.086122
H	 3.4857633482	 1.0982732308	-0.3084973666	 0.097798
H	 2.2575911225	 0.8527588815	-1.5384120224	 0.109775
H	 4.1444039802	 2.8726967027	-1.8833709224	 0.078502
H	 2.4768226621	 4.470816456	-2.860597891	 0.108224
H	 1.1082398017	 3.4483047026	-2.2499860461	 0.107445
H	 3.2276580168	 4.9206704092	-0.5089212116	 0.07819
H	 0.8294882405	 4.0484069852	 0.594638187	 0.094784
H	 2.3367709346	 3.6583216861	 1.4088617945	 0.097621
63.6986	118.3751	143.979	246.6753	336.9412	344.571	357.3542	375.575	497.8789	616.2766	625.0411	634.6673	715.8721	757.6906	802.8865	823.0917	864.446	886.2684	895.0147	939.7939	969.7962	994.2543	1007.9878	1052.9615	1063.9169	1077.0629	1099.8871	1113.7692	1126.7543	1194.33	1205.3004	1217.4567	1245.6195	1278.4483	1316.5701	1326.1694	1329.1974	1366.2504	1379.1025	1401.3259	1469.7964	1490.3134	1493.0901	1505.5407	2235.2142	3022.0437	3028.7873	3037.3221	3050.2438	3061.4943	3069.9804	3079.4607	3131.8109	3158.4687	3167.9195	3212.0305	3506.7267
C#CCC1CC2CC2C1	C#CC[C@H]1C[C@H]2C[C@H]2C1	
InChI=1S/C9H12/c1-2-3-7-4-8-6-9(8)5-7/h1,7-9H,3-6H2	InChI=1S/C9H12/c1-2-3-7-4-8-6-9(8)5-7/h1,7-9H,3-6H2/t7-,8-,9+
