17
gdb 46101	4.11829	0.94293	0.8885	2.1297	73.66	-0.2701	0.0127	0.2828	1306.9299	0.137557	-418.047046	-418.038828	-418.037884	-418.080681	30.057	
N	-0.2736366224	 1.0973598887	-0.57965475	-0.537248
C	-0.1273607723	-0.1151821921	-0.267224672	 0.416161
C	-1.141505443	-0.9742809257	 0.4615118245	-0.325971
C	-0.6796697385	-2.4068936553	 0.1485236253	-0.027614
C	-1.3303022545	-2.9287063777	-1.1537103739	-0.348652
C	-0.8719094452	-4.2698082798	-1.5089491139	 0.258673
N	-0.4889361862	-5.3295951092	-1.7651503096	-0.302147
C	 0.8361814975	-2.1916380728	-0.0035161416	-0.098666
O	 0.9814107032	-0.8696178089	-0.546014847	-0.236689
H	 0.5615248023	 1.4529264004	-1.0483236477	 0.226772
H	-1.0751014477	-0.7725029314	 1.5360274132	 0.138856
H	-2.1586323576	-0.7398261714	 0.1444302286	 0.138871
H	-0.8971766033	-3.1057161217	 0.9587785857	 0.107155
H	-2.4198743061	-2.9480285429	-1.0434158538	 0.158213
H	-1.1076999609	-2.2495567345	-1.9853287006	 0.169522
H	 1.3438030644	-2.2423136608	 0.9672350067	 0.120085
H	 1.3174243603	-2.894432245	-0.6874596238	 0.142678
60.2833	87.7644	152.9721	167.1329	325.479	355.7376	395.6001	448.738	524.4641	539.5517	681.7211	724.3481	828.03	852.7882	897.54	901.5534	930.9874	956.8564	993.8903	1001.0488	1063.4301	1106.0158	1110.4354	1188.4902	1218.5537	1230.7074	1266.7156	1281.0667	1313.7614	1345.4291	1382.7359	1406.1449	1465.0425	1472.3975	1524.4106	1783.7595	2362.2042	3035.3774	3044.9226	3059.0825	3082.3262	3098.8259	3110.8174	3127.4154	3473.9104
N=C1CC(CC#N)CO1	[NH][C]1C[C@@H](CC#N)CO1	
InChI=1S/C6H8N2O/c7-2-1-5-3-6(8)9-4-5/h5,8H,1,3-4H2	InChI=1S/C6H8N2O/c7-2-1-5-3-6(8)9-4-5/h5,8H,1,3-4H2/t5-/m1/s1
