20
gdb 89438	2.87255	1.62104	1.3897	2.0524	77.1	-0.2324	0.0723	0.3048	1015.034	0.171859	-403.113313	-403.105441	-403.104496	-403.145054	32.096	
C	-0.3266558064	 1.537879592	 0.049825018	-0.399344
C	 0.031074478	 0.0580561257	-0.0526044269	 0.060701
C	 0.7458587583	-0.3897613455	-1.363507241	-0.306314
C	 2.1472701073	-0.7735396572	-0.8745863752	 0.40526
O	 2.8943107864	-1.6267380901	-1.694877163	-0.495993
C	 2.8594959163	 0.4850043598	-0.2765174813	-0.314432
C	 2.3035256008	 0.0754375863	 1.095498581	-0.045808
C	 1.9275085237	-1.2790227226	 0.5856756196	-0.102943
N	 0.9023484953	-0.3805554323	 1.0697260731	-0.100492
H	 0.5499002642	 2.1803281948	-0.0748591668	 0.119999
H	-1.0578667974	 1.8105623783	-0.7175517973	 0.114433
H	-0.7632656242	 1.7515068676	 1.0299566215	 0.126629
H	-0.8925545283	-0.5200817291	 0.0607415258	 0.085038
H	 0.2569376817	-1.262048089	-1.8094113556	 0.10128
H	 0.7775043397	 0.4061492066	-2.1164417303	 0.090027
H	 3.0372767636	-1.1879169016	-2.5401075815	 0.27924
H	 3.9431536099	 0.3385829849	-0.2964726888	 0.10953
H	 2.6132431644	 1.4703883401	-0.6858760072	 0.086904
H	 2.7042976965	 0.3686031774	 2.0593970203	 0.092352
H	 2.0644838502	-2.281738896	 0.9724731659	 0.09393
151.2738	206.0849	225.7674	242.0333	312.4298	360.2034	412.158	429.4824	494.04	616.2025	650.9653	685.1302	726.8625	826.1741	857.2093	865.8596	888.2504	922.1378	952.3379	968.8155	992.75	1005.5949	1037.4139	1062.9095	1104.4818	1116.8832	1135.0327	1181.2685	1189.0108	1222.4458	1230.6246	1233.7419	1266.5953	1293.3913	1326.5418	1368.0632	1377.4946	1384.7049	1408.2092	1482.2965	1492.4871	1497.0205	1504.2657	3031.3345	3037.2172	3038.6386	3043.7021	3083.9866	3100.0241	3111.3474	3117.2109	3169.1208	3189.4994	3808.4598
CC1CC2(O)CC3C2N13	C[C@H]1C[C@@]2(O)C[C@@H]3[C@H]2N13	
InChI=1S/C7H11NO/c1-4-2-7(9)3-5-6(7)8(4)5/h4-6,9H,2-3H2,1H3	InChI=1S/C7H11NO/c1-4-2-7(9)3-5-6(7)8(4)5/h4-6,9H,2-3H2,1H3/t4-,5+,6+,7+,8?/m0/s1
