16
gdb 26510	3.75167	1.26584	1.02817	1.3221	70.62	-0.2308	0.003	0.2337	1127.8321	0.124878	-437.897507	-437.889845	-437.888901	-437.929914	29.316	
O	 0.1809488168	 1.3519305041	 0.2879467399	-0.456647
C	 0.0312817244	-0.0214070545	 0.041220137	 0.278996
C	-0.672908956	-0.86714122	 1.0804789758	-0.323597
C	-1.3840648213	-0.4781819589	-0.1919870729	-0.287158
C	 1.1284859783	-0.6080959901	-0.7533465404	 0.225611
C	 2.1823993921	 0.0186295721	-1.3329962889	-0.144848
O	 2.9451922215	-0.9302737031	-1.9660625578	-0.14004
C	 2.2962942432	-2.0877278802	-1.7298628226	 0.072761
N	 1.2214190533	-1.9733139815	-1.0217377139	-0.3217
H	 0.859306552	 1.453164237	 0.9656212212	 0.283427
H	-0.3477609235	-1.894679302	 1.1921420695	 0.136036
H	-0.9637495674	-0.3575609486	 1.9924162304	 0.113902
H	-2.1430087241	 0.2930977318	-0.1325791882	 0.125842
H	-1.5439391007	-1.2427030679	-0.9429056433	 0.132194
H	 2.5113246949	 1.0387466782	-1.4096457393	 0.153542
H	 2.7299351067	-2.9837533665	-2.1459353263	 0.151679
73.3466	159.3661	174.7537	313.6241	324.5661	350.1303	460.9181	493.2988	541.7825	641.4898	719.7097	773.4021	777.6093	846.7899	863.2106	904.2771	930.1882	936.2624	976.6821	1004.549	1058.7413	1082.8713	1090.7132	1128.5119	1174.9711	1197.8885	1236.6737	1264.6031	1334.6182	1366.182	1367.4941	1442.1675	1482.4171	1557.8831	1631.3765	3138.9245	3144.8014	3231.2235	3244.7947	3273.6219	3310.8144	3787.923
OC1(CC1)C1=COC=N1	OC1(CC1)c1cocn1	
InChI=1S/C6H7NO2/c8-6(1-2-6)5-3-9-4-7-5/h3-4,8H,1-2H2	InChI=1S/C6H7NO2/c8-6(1-2-6)5-3-9-4-7-5/h3-4,8H,1-2H2
