18
gdb 40620	4.3348	1.27029	1.24021	1.5912	76.81	-0.2273	0.0012	0.2285	1061.3742	0.148601	-401.855172	-401.848076	-401.847132	-401.8867	28.706	
C	-0.1414646354	 1.1227448231	-0.4456302394	-0.214844
C	 1.2091322453	 1.0129866376	 0.1761290392	-0.228911
N	 0.3053277423	-0.1323989827	 0.1425725555	-0.094246
C	-0.2293602665	-0.6271866906	 1.3764568246	 0.078823
C	-1.1135037502	 0.2766097071	 2.3539720131	-0.036785
O	-2.223475757	 0.0809805955	 1.4210162601	-0.283613
C	-1.664695968	-1.2669575899	 1.3020035573	-0.001303
C	-1.8119010017	-1.8017366099	 2.728921925	-0.086943
C	-1.4275336354	-0.7414291526	 3.4491100396	-0.077597
H	-0.9004284639	 1.697799982	 0.0731844002	 0.134834
H	-0.2410385239	 1.1108580014	-1.5275889625	 0.116006
H	 2.1020648717	 0.9311578682	-0.43762152	 0.116722
H	 1.3570757286	 1.5185512643	 1.1292516391	 0.108212
H	 0.539040582	-1.2293090182	 1.8676680245	 0.084744
H	-0.9072500469	 1.3161830587	 2.605919943	 0.079023
H	-2.0190756208	-1.8341160993	 0.4431310792	 0.084328
H	-2.1107663586	-2.7944947381	 3.030532576	 0.111815
H	-1.3120354817	-0.6130194066	 4.5151813854	 0.109735
96.7855	173.4759	207.6781	345.0776	395.7415	475.0344	546.8385	617.4451	713.826	735.5035	796.4891	827.9583	842.1787	863.9127	888.909	901.2537	913.8789	920.6947	941.6527	959.5575	1013.2526	1049.3036	1064.4391	1118.5921	1120.7742	1136.3452	1149.5833	1169.5743	1180.03	1194.3146	1214.6345	1237.9533	1301.1928	1307.0244	1349.0171	1373.6016	1499.9268	1526.5713	1604.0178	3081.2569	3093.9289	3121.4	3130.0349	3144.7766	3178.8678	3213.8	3231.8603	3258.5286
C1CN1C1C2OC1C=C2	C1CN1[C@H]1[C@H]2O[C@@H]1C=C2	
InChI=1S/C7H9NO/c1-2-6-7(5(1)9-6)8-3-4-8/h1-2,5-7H,3-4H2	InChI=1S/C7H9NO/c1-2-6-7(5(1)9-6)8-3-4-8/h1-2,5-7H,3-4H2/t5-,6+,7-
