18
gdb 36466	2.79908	1.0833	0.84167	3.8407	82.07	-0.2701	0.0191	0.2892	1349.7223	0.147031	-364.786101	-364.77709	-364.776146	-364.820368	33.133	
C	-0.0678911157	-1.1376030454	-0.2975653924	-0.416474
C	-0.0625672985	 0.0637009635	-0.2584595323	 0.287889
C	-0.018383149	 1.519745542	-0.205699297	-0.384988
C	 1.3817661057	 2.0350765614	 0.1638590116	-0.00445
C	 2.4457574393	 1.8608486222	-0.9569809276	-0.225912
C	 2.2625917724	 3.3500233322	-1.3523288451	-0.229262
C	 1.5608498711	 3.5911530329	 0.0219775714	-0.15848
C	 0.3825778071	 4.439899431	 0.0608046791	 0.277042
N	-0.5684027423	 5.0984306398	 0.0767910133	-0.337006
H	-0.0912751024	-2.1986148687	-0.3323022177	 0.197706
H	-0.3275319716	 1.9320278226	-1.1750489208	 0.139497
H	-0.749211245	 1.8908734757	 0.5232415078	 0.150484
H	 1.6581648832	 1.6434157797	 1.1447794617	 0.095864
H	 3.4403676302	 1.6577457879	-0.5530343066	 0.112151
H	 2.2204989557	 1.110942119	-1.7173507207	 0.121917
H	 3.1581710074	 3.9433091825	-1.5421274668	 0.118436
H	 1.5712709813	 3.4837737129	-2.1864665102	 0.128362
H	 2.2777894309	 3.9539798588	 0.7637249121	 0.127225
74.4509	92.0867	109.1499	154.8249	225.7064	322.707	339.6282	357.3234	493.9086	534.2342	569.9131	624.2418	646.6026	670.8908	757.516	830.7975	878.2863	907.6671	949.1834	957.0936	975.1226	1035.4896	1082.2099	1086.1901	1119.3554	1199.0565	1220.1664	1240.5344	1262.5394	1274.3239	1285.3698	1329.6334	1344.4905	1379.4058	1468.2769	1484.0932	1500.5838	2239.4722	2348.5567	3025.156	3056.9694	3071.2321	3071.8586	3082.1877	3091.9394	3121.7978	3140.6505	3506.199
C#CCC1CCC1C#N	C#CC[C@H]1CC[C@H]1C#N	
InChI=1S/C8H9N/c1-2-3-7-4-5-8(7)6-9/h1,7-8H,3-5H2	InChI=1S/C8H9N/c1-2-3-7-4-5-8(7)6-9/h1,7-8H,3-5H2/t7-,8-/m0/s1
