17
gdb 87472	3.6442	1.25218	1.12844	4.2982	73.44	-0.2471	0.0038	0.2509	1116.764	0.134719	-421.769705	-421.761853	-421.760909	-421.802033	30.203	
C	 0.0091985497	 1.5281730559	-0.101413615	-0.414477
C	-0.0219618084	 0.0331573811	 0.0720880771	-0.080202
O	 1.2579986637	-0.6586609351	-0.0447204622	-0.315907
C	 0.6055873554	-0.6571987952	 1.1902715497	 0.538081
C	 1.1597455917	-0.211925201	 2.5645238682	-0.289921
C	-0.1892603999	-0.7897676568	 3.1259878089	-0.234206
C	 0.2222648011	-1.8738804305	 2.0653647823	-0.291242
C	 1.6403208583	-1.6824788833	 2.6566358816	 0.455511
O	 2.5745500304	-2.3186688613	 3.0237798449	-0.312464
H	 0.8352759636	 1.9693971307	 0.461323773	 0.130716
H	 0.1327459549	 1.7877179575	-1.1577524312	 0.136586
H	-0.9298546111	 1.9729769493	 0.2453418348	 0.125821
H	-0.8279911219	-0.4835972252	-0.4509965334	 0.102624
H	 1.6647002172	 0.7106713147	 2.8370328117	 0.104701
H	-0.1902547209	-1.1025029707	 4.1699598565	 0.123891
H	-1.0767761287	-0.2117865267	 2.8641407445	 0.11515
H	-0.3080044252	-2.7793089336	 1.7833193784	 0.105337
113.797	142.1853	186.4917	199.7848	300.1378	409.8975	437.3523	479.759	542.3217	580.9726	698.0812	754.5872	776.9758	788.563	824.7503	876.8529	963.318	997.9275	1007.2847	1015.1372	1038.8978	1057.6738	1108.8365	1116.8438	1122.8135	1139.5601	1166.592	1192.2528	1204.6821	1228.1013	1353.3409	1410.6782	1476.0711	1489.3004	1505.5212	1554.6357	1929.3439	3038.9086	3082.0538	3099.0942	3103.1374	3130.725	3158.2777	3164.2423	3166.9472
CC1OC11C2CC1C2=O	C[C@H]1O[C@]21[C@H]1C[C@@H]2C1=O	
InChI=1S/C7H8O2/c1-3-7(9-3)4-2-5(7)6(4)8/h3-5H,2H2,1H3	InChI=1S/C7H8O2/c1-3-7(9-3)4-2-5(7)6(4)8/h3-5H,2H2,1H3/t3-,4-,5+,7+/m1/s1
