17
gdb 35400	4.56447	1.14508	1.08605	3.0712	75.8	-0.2437	0.0244	0.2681	1117.7614	0.137889	-380.809081	-380.801993	-380.801049	-380.840632	28.132	
N	-0.0637506163	-1.1411502394	-0.1337039081	-0.322303
C	-0.0652200149	 0.0132511793	-0.0618463399	 0.260561
C	-0.0418638618	 1.4613798729	 0.0443516673	-0.179653
C	-0.2479514864	 2.0259284495	 1.5029462929	-0.267706
C	 1.1606809463	 2.673747082	 1.4489999253	 0.034983
C	 1.3931288362	 2.1040307431	 0.0364897744	-0.037766
C	 1.5054292817	 3.556743281	-0.44425558	-0.041414
C	 0.3558278867	 4.4018237912	-0.0749314247	-0.245051
N	 1.3457374673	 4.1083852278	 0.9754395315	-0.146488
H	-0.7165233515	 1.8814259634	-0.7063318903	 0.126487
H	-1.1032405947	 2.6914204193	 1.6350627351	 0.125743
H	-0.3078000748	 1.2321937712	 2.2492122199	 0.136688
H	 1.8292407119	 2.4773833338	 2.2853414549	 0.098407
H	 2.2286154102	 1.452637455	-0.2088305347	 0.102286
H	 2.2930471917	 3.9138908204	-1.1000175104	 0.105845
H	 0.3954436604	 5.4411440433	-0.387300658	 0.130359
H	-0.6535509721	 4.0067277462	-0.0155415553	 0.119024
108.7924	151.9535	247.385	321.2692	368.6718	487.0887	532.0359	551.6645	670.2227	709.7872	724.476	783.1672	854.6326	871.4911	897.8809	920.629	956.3876	983.5948	1017.8359	1042.5011	1057.8286	1088.744	1112.6542	1124.6292	1155.314	1169.4487	1212.3934	1221.6697	1235.9688	1267.3827	1277.2426	1307.5454	1348.089	1363.9679	1469.7478	1511.828	2351.5865	3075.9865	3079.1945	3122.5884	3125.3718	3137.059	3143.7753	3162.775	3202.2067
N#CC1CC2C1C1CN21	N#C[C@H]1C[C@H]2[C@@H]1[C@H]1CN21	
InChI=1S/C7H8N2/c8-2-4-1-5-7(4)6-3-9(5)6/h4-7H,1,3H2	InChI=1S/C7H8N2/c8-2-4-1-5-7(4)6-3-9(5)6/h4-7H,1,3H2/t4-,5+,6-,7-,9?/m1/s1
