15
gdb 50424	2.15937	1.75711	1.09642	4.4973	69.07	-0.2528	-0.0507	0.2022	1067.229	0.112641	-453.98315	-453.975075	-453.974131	-454.016706	28.132	
O	-0.0604825554	-0.1156897978	 0.0955811954	-0.228121
C	-0.0271643347	 1.0839935049	 0.1399775686	 0.156996
C	 1.242924176	 1.9185690368	 0.0381053511	-0.129233
C	 1.4918270134	 2.7795361874	 1.3299322608	-0.192729
N	 2.690727514	 2.2243717426	 1.9683085833	-0.250458
C	 3.1579847184	 1.3332871965	 1.1911238528	 0.095361
N	 2.4521766931	 1.1045652133	 0.0063318777	-0.066155
C	 2.7756549615	 0.1418673047	-0.9282494035	 0.163685
O	 3.756588841	-0.5584189505	-0.8580880356	-0.309079
H	-0.9493242183	 1.694821122	 0.2653089684	 0.097637
H	 1.1501424362	 2.5562304621	-0.8496521699	 0.125093
H	 1.6586974909	 3.8334399858	 1.0868176354	 0.135127
H	 0.6421281741	 2.7379472751	 2.019907593	 0.130999
H	 4.0489810908	 0.7461147347	 1.3722984498	 0.174894
H	 2.046423649	 0.0994508723	-1.7551560773	 0.095985
69.2495	95.8005	118.8088	207.5347	257.2804	286.6703	342.2141	494.3043	520.1556	696.0472	710.2971	815.0398	859.3942	913.3477	959.1399	974.7555	978.5146	1019.7089	1026.9565	1095.1742	1204.5019	1224.9239	1250.074	1291.5683	1323.6067	1338.2422	1389.1845	1415.1169	1442.7027	1497.7538	1702.0239	1804.8327	1839.3871	2886.3247	2989.8824	3032.5631	3047.3369	3082.0545	3241.3609
O=CC1CN=CN1C=O	O=C[C@H]1CN=CN1C=O	
InChI=1S/C5H6N2O2/c8-2-5-1-6-3-7(5)4-9/h2-5H,1H2	InChI=1S/C5H6N2O2/c8-2-5-1-6-3-7(5)4-9/h2-5H,1H2/t5-/m1/s1
