16
gdb 127007	5.24348	0.97312	0.82929	2.4838	74.9	-0.2366	-0.0676	0.169	1353.216	0.125057	-434.079192	-434.071206	-434.070262	-434.112427	28.72	
C	 0.0222531254	 1.5088532311	 0.0812042051	-0.393852
C	-0.0051743277	-0.0036435182	-0.0149134128	-0.042695
O	 0.6818138763	-0.5173875452	 1.1461120181	-0.270144
C	 0.7796513741	-1.8424614629	 1.270843211	 0.438839
C	 1.4504321568	-2.351022487	 2.4046202348	-0.057847
N	 1.5719642693	-3.6483812288	 2.571159508	-0.225081
C	 1.0202528086	-4.404219439	 1.6006859276	 0.094667
N	 0.3851421078	-3.9683314807	 0.5260623108	-0.188728
N	 0.2609772196	-2.6462028088	 0.3557584818	-0.277128
H	 1.050371142	 1.8811151994	 0.094748364	 0.132169
H	-0.4904038294	 1.9416037602	-0.7827135643	 0.127481
H	-0.4814471022	 1.8519790563	 0.989141026	 0.132174
H	-1.0260694341	-0.3984126385	-0.0277682404	 0.128958
H	 0.4968903049	-0.3696091514	-0.916153719	 0.128957
H	 1.8708658963	-1.6773892142	 3.1472923823	 0.136881
H	 1.1003969624	-5.4812855724	 1.7037945968	 0.135348
62.8028	111.9831	159.0913	203.3545	258.4197	342.312	414.7674	438.1154	555.2178	632.4063	674.8849	792.1999	811.03	844.1063	932.8222	933.4067	988.6227	1045.6635	1051.1956	1110.9382	1130.853	1180.007	1189.2557	1241.353	1290.6502	1334.7021	1386.2511	1416.3373	1421.6778	1468.7185	1485.6435	1496.2546	1519.788	1552.6784	1615.6052	3048.1952	3050.6784	3089.5867	3124.1031	3128.1795	3163.6279	3196.2723
CCOC1=CN=CN=N1	CCOc1cncnn1	
InChI=1S/C5H7N3O/c1-2-9-5-3-6-4-7-8-5/h3-4H,2H2,1H3	InChI=1S/C5H7N3O/c1-2-9-5-3-6-4-7-8-5/h3-4H,2H2,1H3
