15
gdb 50271	2.35725	1.42151	1.03554	3.1262	73.77	-0.2442	-0.0328	0.2114	1141.3381	0.109732	-420.555604	-420.547342	-420.546398	-420.588968	30.421	
O	-0.0843859287	-0.0454831198	-0.1626291584	-0.254544
C	 0.0061717489	 1.112569922	 0.1586244409	 0.159511
C	 1.2599339085	 1.9355901564	 0.0017575328	-0.182945
C	 1.1663666261	 3.2210556623	-0.9094678038	-0.274
C	 1.507662391	 4.0729413098	 0.3158755478	-0.055955
O	 0.5124950194	 3.8131770929	 1.3036030191	-0.278416
C	 1.6039751922	 2.8792735879	 1.1905485645	 0.275494
C	 2.3967671417	 2.5806456581	 2.3309167835	 0.200859
C	 3.0755072724	 2.2784862023	 3.2761576585	-0.378834
H	-0.8532949257	 1.666103242	 0.5924965657	 0.098608
H	 2.0933846999	 1.2906954217	-0.2791710385	 0.108604
H	 1.9381240109	 3.2203812025	-1.6809056771	 0.128421
H	 0.1947448349	 3.4367233555	-1.3601284531	 0.126961
H	 2.0283459848	 5.0212500251	 0.374662744	 0.12639
H	 3.6724245133	 2.0217368313	 4.1166048141	 0.199847
61.6881	125.1424	161.8165	169.8087	281.4615	368.0662	424.2162	465.7405	532.1035	553.6721	610.665	626.7072	679.868	745.3579	832.8245	873.1815	911.0416	933.1936	992.6129	1014.4474	1072.3921	1104.8611	1129.3903	1168.028	1201.8723	1253.6734	1261.7855	1296.5612	1403.8413	1429.2997	1474.6132	1823.3085	2242.875	2915.3649	3074.8869	3115.9323	3137.3419	3197.6392	3499.4106
O=CC1CC2OC12C#C	O=C[C@H]1C[C@H]2O[C@@]12C#C	
InChI=1S/C7H6O2/c1-2-7-5(4-8)3-6(7)9-7/h1,4-6H,3H2	InChI=1S/C7H6O2/c1-2-7-5(4-8)3-6(7)9-7/h1,4-6H,3H2/t5-,6-,7+/m1/s1
