15
gdb 78059	3.0157	1.41771	1.13888	4.1963	69.46	-0.2298	-0.0196	0.2102	1051.9062	0.111215	-453.8614	-453.853449	-453.852504	-453.89386	29.805	
O	-0.4255241659	 1.425818726	 0.1172380501	-0.411213
C	-0.188892242	 0.0566495785	 0.0639489877	 0.144319
C	-0.0819404501	-0.7303337294	 1.431750547	-0.231813
N	-1.571318087	-0.5623301967	 1.6094706139	-0.074652
C	-2.2012343622	 0.5589255891	 2.127252337	 0.072318
N	-3.2741590027	 1.0171468317	 1.6240892203	-0.444377
C	-1.4752068569	-0.8354722494	 0.1246712968	-0.184752
C	-0.5097858023	-1.9602964718	 0.5876545601	 0.480171
O	-0.2456892015	-3.0997758732	 0.4023399811	-0.297903
H	 0.4158064224	 1.8736219884	 0.2544173845	 0.29575
H	 0.5457761518	-0.2184449927	-0.7068245996	 0.0973
H	 0.6279950571	-0.6280849024	 2.2501520281	 0.108827
H	-1.7229603133	 0.901246467	 3.0541196227	 0.088137
H	-3.6443025991	 1.7690500199	 2.2017170255	 0.222254
H	-2.3447982683	-0.837044615	-0.5239744851	 0.135634
113.6974	159.2672	183.1883	205.5616	295.5683	304.5626	358.2286	488.3489	554.1472	605.956	687.9885	716.3264	733.9178	773.3493	832.1429	863.5145	895.351	989.6993	1042.1474	1052.8022	1103.4023	1114.0837	1130.1946	1157.9348	1167.4763	1199.2286	1234.3973	1296.8505	1344.3759	1409.8293	1438.3856	1707.5019	1956.9519	3000.7876	3034.9178	3148.8383	3193.7099	3507.9574	3814.9821
OC1C2N(C=N)C1C2=O	O[C@H]1[C@H]2N([CH][NH])[C@@H]1C2=O	
InChI=1S/C5H6N2O2/c6-1-7-2-4(8)3(7)5(2)9/h1-4,6,8H	InChI=1S/C5H6N2O2/c6-1-7-2-4(8)3(7)5(2)9/h1-4,6,8H/t2-,3+,4+
