21
gdb 68307	3.1015	1.21511	1.10355	1.1743	82.54	-0.2558	0.0794	0.3353	1207.2627	0.183125	-387.023003	-387.014714	-387.01377	-387.056039	33.075	
O	 0.3227412533	 1.2753546465	 0.4062792563	-0.476674
C	 0.1265301573	-0.0621212111	 0.1143907943	 0.386497
C	 0.5670826357	-0.8629925453	-1.1497268817	-0.293515
C	-0.2680812923	-1.8395729317	-0.272500839	-0.071898
C	 0.5196828754	-1.3112461017	 0.962995001	-0.292547
C	-1.2912848431	-0.6691361157	-0.071906785	-0.001079
C	-2.2929846379	-0.6463162338	 1.0608299671	-0.042231
C	-3.6116531593	-1.3670653287	 0.9132111596	-0.275898
C	-2.6022784583	-1.8506959671	 1.9203705241	-0.255874
H	 1.2656520378	 1.4276165	 0.5310533798	 0.281818
H	 0.1289102325	-0.5567843356	-2.1032109711	 0.091435
H	 1.6328607042	-1.0905629122	-1.2435412826	 0.082344
H	-0.4939068438	-2.8777685324	-0.5049267761	 0.0782
H	 1.5842316635	-1.5629235713	 0.9960921094	 0.080328
H	 0.0497445609	-1.415022931	 1.9403078806	 0.108108
H	-1.7658470391	-0.3446933923	-1.0059015076	 0.066841
H	-2.348325915	 0.3144641269	 1.5669641948	 0.096078
H	-4.5127163638	-0.8800457153	 1.2694922144	 0.108332
H	-3.7555223313	-1.9674834152	 0.0199823664	 0.107678
H	-2.0816928427	-2.7773271221	 1.7039661389	 0.113336
H	-2.8031241137	-1.693159901	 2.9747235765	 0.10872
56.9296	136.2891	197.1014	242.8128	272.4344	346.594	407.5824	464.1987	540.8891	596.3272	658.2216	763.905	783.7137	794.1334	825.966	846.9544	900.0571	919.8269	947.2543	948.9178	964.672	1020.5593	1029.4098	1055.5166	1061.7421	1081.9925	1095.9386	1110.1804	1130.4767	1137.141	1148.168	1173.1494	1201.0284	1206.2639	1218.5695	1223.855	1246.015	1299.524	1360.8706	1387.6849	1413.1253	1470.4763	1492.1388	1505.7221	1539.2134	3029.0392	3047.0182	3057.1055	3115.8361	3125.3146	3130.602	3135.4878	3139.5363	3146.8119	3203.5633	3219.6887	3808.9002
OC12CC(C1)C2C1CC1	O[C@@]12C[C@@H](C1)[C@H]2C1CC1	
InChI=1S/C8H12O/c9-8-3-6(4-8)7(8)5-1-2-5/h5-7,9H,1-4H2	InChI=1S/C8H12O/c9-8-3-6(4-8)7(8)5-1-2-5/h5-7,9H,1-4H2/t6-,7-,8-/m1/s1
