21
gdb 105254	2.01313	1.46038	0.99769	1.2463	78.32	-0.255	0.0779	0.3329	1261.8517	0.180453	-424.186521	-424.176746	-424.175802	-424.221145	36.359	
C	 0.9438214977	 1.4576312293	 0.3079406135	-0.380478
C	 0.0864340926	 0.2466603509	-0.0795924535	-0.257724
C	 0.5569329023	-0.464005148	-1.3401424725	 0.300172
C	 1.7646274602	-1.3809067678	-1.266135884	-0.380236
C	 0.3814297084	-1.958044508	-1.4417445493	 0.056981
O	-0.2510044587	-2.607337791	-0.376641072	-0.425449
C	 0.3442581114	 0.3138247739	-2.6084589095	 0.001339
C	 1.4088553381	 1.074276774	-3.2780698279	-0.174522
O	 0.9636721934	-0.1818077852	-3.7978586358	-0.240339
H	 1.9852913897	 1.1651969062	 0.4791075205	 0.114773
H	 0.9397335237	 2.2244386792	-0.4733703595	 0.115334
H	 0.570212049	 1.919563353	 1.2270993161	 0.112318
H	 0.0641208697	-0.4780709905	 0.7380721356	 0.11648
H	-0.9544920345	 0.5673260771	-0.2238687391	 0.095849
H	 2.4365624237	-1.4197591236	-2.1161646155	 0.124627
H	 2.2283747572	-1.498477129	-0.2920403358	 0.107926
H	 0.1376719079	-2.3513258081	-2.4280191851	 0.101489
H	 0.1882314621	-3.4537842873	-0.2448740864	 0.288768
H	-0.6831880636	 0.6535111363	-2.759830207	 0.092711
H	 1.1585830584	 1.943119719	-3.8848174275	 0.115
H	 2.4116627015	 1.0710193794	-2.8544809354	 0.114981
80.9174	88.7056	165.2853	180.8005	199.112	218.3724	271.7168	300.9897	351.8668	360.4069	467.8058	525.7428	595.9635	666.2139	777.118	832.6257	859.4935	876.6844	907.1132	935.5835	974.8671	1009.4136	1040.2411	1059.9022	1065.7016	1093.9125	1108.9647	1128.3143	1156.2648	1173.2832	1186.5208	1244.7063	1266.4	1286.9221	1308.6603	1347.3653	1371.2394	1409.0247	1413.9126	1434.4467	1480.1965	1489.2909	1497.0275	1508.4902	1525.8886	3017.4229	3034.0759	3078.8537	3087.8721	3088.1063	3103.0246	3109.289	3110.1256	3129.8404	3175.6004	3224.2216	3807.8836
CCC1(CC1O)C1CO1	CC[C@]1(C[C@H]1O)[C@H]1CO1	
InChI=1S/C7H12O2/c1-2-7(3-5(7)8)6-4-9-6/h5-6,8H,2-4H2,1H3	InChI=1S/C7H12O2/c1-2-7(3-5(7)8)6-4-9-6/h5-6,8H,2-4H2,1H3/t5-,6-,7-/m1/s1
