20
gdb 93913	2.74594	1.41433	1.11787	1.5196	77.08	-0.2416	0.0177	0.2593	1165.9887	0.171211	-440.298774	-440.289976	-440.289032	-440.332204	33.296	
C	-0.2792104271	 1.5686340218	-0.0149148109	-0.406916
C	-0.1114445463	 0.0633280956	-0.0325328426	 0.220955
O	 0.833409187	-0.2714767366	-0.995449352	-0.231211
C	 0.8295036929	-1.644990602	-1.3558026853	-0.107944
C	 1.5571704641	-2.5321827544	-0.3429209686	 0.033365
C	 3.0411788603	-2.1470837589	-0.219844318	-0.379483
N	 0.9775185947	-2.5920677613	 0.9918739139	-0.252099
C	 0.4904876676	-1.6205295619	 1.6294026061	 0.115728
O	 0.2584733451	-0.3167025814	 1.3003534756	-0.241431
H	 0.6831599362	 2.0406359908	 0.1975330697	 0.139434
H	-0.6354606684	 1.9108641792	-0.9889010162	 0.128266
H	-0.9959326389	 1.8590487901	 0.7556654668	 0.130229
H	-1.0602125831	-0.4530048466	-0.2571499907	 0.073105
H	-0.2068730626	-1.9928378773	-1.4841113628	 0.095875
H	 1.3339827931	-1.7084984255	-2.3254432359	 0.109034
H	 1.5053203664	-3.5528745148	-0.7464742811	 0.084447
H	 3.1372857326	-1.1044733782	 0.0936015103	 0.134456
H	 3.5348881887	-2.7827933444	 0.5184125309	 0.126714
H	 3.5495619739	-2.2676548211	-1.1818289802	 0.11003
H	 0.2151541136	-1.7651342929	 2.675113071	 0.117446
79.646	100.3176	210.8317	240.1501	248.2761	309.3908	310.353	361.5457	381.9291	478.7586	549.0082	573.6028	691.1193	767.844	815.0447	831.6736	888.1801	925.6235	952.6414	971.6089	1014.732	1066.8821	1078.2253	1120.2449	1134.6785	1169.4797	1182.3723	1206.6597	1300.1763	1349.156	1364.7588	1381.6794	1390.7418	1401.035	1415.4244	1434.3454	1435.0673	1481.842	1485.3336	1489.3226	1496.4405	1502.5027	1753.2577	2960.221	2989.4064	3011.3609	3044.4348	3060.4248	3078.0089	3118.0211	3127.0925	3134.8914	3141.2651	3145.7653
CC1OCC(C)N=CO1	C[C@H]1OC[C@@H](C)N=CO1	
InChI=1S/C6H11NO2/c1-5-3-8-6(2)9-4-7-5/h4-6H,3H2,1-2H3	InChI=1S/C6H11NO2/c1-5-3-8-6(2)9-4-7-5/h4-6H,3H2,1-2H3/t5-,6+/m1/s1
