16
gdb 124958	2.3619	1.66728	0.98418	4.0697	76.23	-0.2081	-0.0323	0.1758	1143.9694	0.125375	-434.118226	-434.109561	-434.108617	-434.151882	31.669	
C	-0.0258027807	 1.4998599188	 0.0853663913	-0.502882
C	-0.0234025312	 0.0130069979	-0.0517210455	 0.306632
C	-0.0221581614	-0.820402435	-1.1765877622	-0.006057
C	 0.042901262	-0.4732478907	-2.5691134944	 0.054846
O	 0.0971513424	-1.2868974124	-3.4814583148	-0.325486
C	-0.0357906191	-2.1521967752	-0.6376919753	 0.346192
N	-0.0943720501	-3.2948235664	-1.381260977	-0.587386
N	-0.0332363097	-2.1459184528	 0.6900254314	-0.326902
N	-0.0279604461	-0.8109601489	 1.0036160476	-0.261973
H	 0.7983595627	 1.9506840909	-0.4755570686	 0.153958
H	-0.956896829	 1.9331179902	-0.2946188837	 0.155061
H	 0.0793507635	 1.7969785964	 1.1327414419	 0.130991
H	 0.0532336183	 0.6156525222	-2.795212502	 0.060989
H	 0.1415355455	-3.1699269659	-2.3557437175	 0.274579
H	 0.2077932967	-4.1443272581	-0.9325170661	 0.25447
H	-0.0308885736	-0.5500721912	 1.975529665	 0.272967
46.1859	149.0104	186.9768	191.5124	270.7528	282.0701	365.3864	413.9451	437.7683	518.2294	533.5311	556.6455	607.9799	653.5493	761.0283	781.8071	810.87	1000.7967	1027.1447	1055.3686	1062.8734	1107.6677	1179.4576	1302.6184	1338.8881	1405.1035	1421.2198	1464.01	1474.9949	1489.0002	1517.5862	1559.5775	1609.9458	1645.3205	1744.4354	2882.6088	3040.0403	3099.9677	3115.963	3559.2138	3667.9855	3694.0425
CC1=C(C=O)C(N)=NN1	Cc1c(C=O)c(N)n[nH]1	
InChI=1S/C5H7N3O/c1-3-4(2-9)5(6)8-7-3/h2H,1H3,(H3,6,7,8)	InChI=1S/C5H7N3O/c1-3-4(2-9)5(6)8-7-3/h2H,1H3,(H3,6,7,8)
