17
gdb 23602	3.88497	1.21962	1.15659	1.1245	75.6	-0.226	-0.0049	0.2211	1095.1667	0.136349	-417.883199	-417.875834	-417.874889	-417.91506	29.268	
O	-0.1158762054	 1.3676722733	 0.0380071571	-0.389299
N	 0.0474725506	-0.0274464893	-0.0164297747	-0.241318
C	-1.0729543573	-0.6130949904	-0.034700293	 0.410418
C	-2.5418621033	-0.2303040096	 0.0428754015	-0.2852
N	-2.8978203638	-1.6949362836	 0.0779045614	-0.129969
C	-3.1696646519	-2.3493055397	-1.226006505	-0.006583
C	-2.3277197684	-1.878477326	-2.3826285586	-0.30847
C	-1.7229090897	-2.813934269	-1.3730343831	-0.068909
C	-1.440537697	-2.0857488819	-0.0456482058	-0.086997
H	 0.7953792448	 1.6796118245	 0.0605214071	 0.30917
H	-2.8261216127	 0.2854421929	 0.9657447967	 0.132857
H	-2.9380783672	 0.332888593	-0.808259793	 0.129378
H	-4.1006479488	-2.8855534583	-1.37094989	 0.097494
H	-2.586093349	-2.3460458633	-3.3276059058	 0.118376
H	-1.9813920957	-0.8548637111	-2.4816221054	 0.124285
H	-1.3266313102	-3.7869951565	-1.631832863	 0.097215
H	-1.028971575	-2.710798135	 0.7508656536	 0.097551
82.5225	187.6494	232.0207	328.8186	350.9682	415.8804	469.2744	495.0465	598.3571	699.5126	722.0137	767.317	773.9508	879.0734	897.6608	932.6965	949.3104	974.9752	985.1441	997.9338	1014.4034	1063.9053	1069.6945	1077.0259	1112.1776	1163.0009	1166.4386	1185.4998	1193.9052	1259.1071	1276.2649	1290.6005	1346.4733	1406.643	1470.8844	1493.3674	1787.279	3043.8352	3077.0521	3088.3836	3130.2631	3170.0641	3197.2433	3211.1772	3815.3175
ON=C1CN2C3CC3C12	ON=C1CN2[C@H]3C[C@H]3[C@@H]12	
InChI=1S/C6H8N2O/c9-7-4-2-8-5-1-3(5)6(4)8/h3,5-6,9H,1-2H2	InChI=1S/C6H8N2O/c9-7-4-2-8-5-1-3(5)6(4)8/h3,5-6,9H,1-2H2/t3-,5+,6+/m1/s1
