25
gdb 59109	2.02138	1.38306	1.00702	1.5474	88.29	-0.2496	0.0542	0.3038	1341.674	0.227246	-389.487569	-389.47686	-389.475916	-389.52262	40.694	
C	 0.091364226	 1.5248619014	 0.5395055485	-0.392765
C	 0.0972067612	 0.0254090087	 0.2055080918	 0.024183
C	 0.8627565389	-0.7665503601	 1.2771627651	-0.396758
C	-1.3281880023	-0.5080249432	 0.049904086	 0.015098
C	-2.2469085722	-0.0876217472	-1.1545586915	-0.018106
C	-1.5581432198	 0.3936473699	-2.4314136207	-0.402379
C	-2.7468248334	-1.562802412	-1.2266679044	-0.263044
C	-1.5689613598	-2.0099961391	-0.3187350522	 0.102046
O	-0.5106631137	-2.6848090368	-0.9777233928	-0.427126
H	 1.1117412416	 1.9189433258	 0.5945533047	 0.109129
H	-0.4542023503	 2.1120711186	-0.2053840962	 0.111885
H	-0.3845246801	 1.7021935866	 1.5115804747	 0.110365
H	 0.6299396603	-0.1096179185	-0.7455360614	 0.057559
H	 0.3607558276	-0.6937222719	 2.2498202007	 0.104346
H	 0.9342966236	-1.822000105	 1.005011069	 0.135647
H	 1.8778761042	-0.373949964	 1.4012031258	 0.103145
H	-1.8698224302	-0.3051661896	 0.9834354736	 0.065307
H	-3.0210125938	 0.6361307134	-0.8825821344	 0.067668
H	-0.7777284779	-0.2964931483	-2.7740659706	 0.097421
H	-2.2875316939	 0.4771611526	-3.2447793218	 0.116952
H	-1.0881418391	 1.3737249909	-2.3043354923	 0.122451
H	-3.7229203264	-1.7134509119	-0.7579099979	 0.100887
H	-2.7664130761	-2.0254363072	-2.2187316528	 0.093303
H	-1.8292775727	-2.660782071	 0.5195557328	 0.082984
H	-0.2890721619	-2.2046554223	-1.7815497337	 0.279801
90.1548	95.1239	153.3972	198.0464	222.0927	230.4567	253.8409	261.4985	288.7918	312.3408	343.0839	393.0806	424.8567	496.2941	548.8527	740.7474	766.095	833.8055	849.7209	882.9685	911.8481	929.9431	952.8348	971.1795	995.3708	1019.8308	1035.3961	1078.5751	1126.3728	1143.8777	1167.1172	1178.4298	1204.558	1216.3937	1247.3415	1262.2654	1287.3592	1296.0763	1319.0628	1337.7791	1367.7556	1393.0664	1396.0571	1411.0249	1420.3816	1437.0526	1470.8454	1487.4229	1490.5853	1493.8239	1498.7174	1505.3293	1516.8492	3003.4561	3015.9987	3023.5724	3025.4532	3029.1787	3045.2412	3052.868	3077.5842	3084.2224	3085.007	3091.714	3098.9835	3104.475	3106.2514	3127.1379	3822.3432
CC(C)C1C(C)CC1O	CC(C)[C@H]1[C@@H](C)C[C@H]1O	
InChI=1S/C8H16O/c1-5(2)8-6(3)4-7(8)9/h5-9H,4H2,1-3H3	InChI=1S/C8H16O/c1-5(2)8-6(3)4-7(8)9/h5-9H,4H2,1-3H3/t6-,7+,8-/m0/s1
