21
gdb 64160	2.15728	1.47221	1.36264	4.1983	82.32	-0.2513	0.0272	0.2785	1118.8218	0.1817	-383.277246	-383.267447	-383.266503	-383.31094	37.679	
C	-0.1058611863	 1.4934361226	 0.0452946124	-0.45112
C	-0.0155748941	-0.0338834608	-0.0447671397	 0.307596
C	-1.3903482646	-0.6285907172	-0.327758021	-0.461564
C	 1.1649909134	-0.4860002889	-0.958233705	-0.259308
C	 2.0785836813	-0.6054279783	 0.285262062	-0.269828
C	 0.7945068107	-0.6243862545	 1.1944507357	 0.107764
N	 0.7162759772	 0.121615824	 2.4413264155	-0.56787
C	 0.4156212204	-2.0124034939	 1.4771635482	 0.291301
N	 0.1489892083	-3.1164353404	 1.6934368672	-0.352326
H	 0.8737141214	 1.9660940468	 0.175727169	 0.106135
H	-0.5327556995	 1.8890856361	-0.8820728117	 0.121582
H	-0.748440196	 1.8020597378	 0.8748043293	 0.135546
H	-1.7865121231	-0.2352115469	-1.2705628903	 0.112578
H	-1.3532898088	-1.718283672	-0.4044976393	 0.13614
H	-2.0996507243	-0.3706161615	 0.4662910506	 0.128243
H	 0.9736717603	-1.4582795909	-1.4195575028	 0.116329
H	 1.4741440268	 0.2161560892	-1.7357658035	 0.101002
H	 2.748443594	-1.4642140342	 0.3530060339	 0.117699
H	 2.6528760955	 0.3058276877	 0.4736914494	 0.103505
H	 1.2013204105	-0.3698851696	 3.185624734	 0.241908
H	 1.1676524767	 1.0236185748	 2.3330467659	 0.234689
96.9808	149.7172	197.1247	213.8306	240.5794	258.0758	277.5122	294.7111	355.4065	357.0858	415.0383	441.9014	532.1963	569.7365	638.0202	670.6809	744.0855	823.8053	873.7827	888.8019	935.6008	951.7305	967.5034	995.8792	1007.3588	1028.7043	1096.6645	1173.5105	1193.968	1218.5985	1244.0184	1254.9619	1272.7657	1296.5424	1345.1059	1401.109	1420.764	1475.0327	1486.5105	1488.4507	1493.7399	1504.3551	1511.7863	1658.2424	2350.8694	3029.2659	3033.4242	3062.664	3065.6775	3093.4225	3095.9795	3111.6403	3114.2103	3117.757	3129.1639	3503.8037	3587.4382
CC1(C)CCC1(N)C#N	CC1(C)CC[C@]1(N)C#N	
InChI=1S/C7H12N2/c1-6(2)3-4-7(6,9)5-8/h3-4,9H2,1-2H3	InChI=1S/C7H12N2/c1-6(2)3-4-7(6,9)5-8/h3-4,9H2,1-2H3/t7-/m0/s1
