15
gdb 129878	4.02667	0.981	0.85954	2.8414	73.57	-0.2089	0.0023	0.2112	1304.8137	0.11443	-413.004856	-412.996524	-412.99558	-413.039162	29.807	
N	-0.1081687692	 1.3716724262	-0.2355455302	-0.607486
C	-0.0265328312	-0.0156233166	-0.0589762029	 0.174804
C	-1.0063703142	-0.9669982773	-0.2661473102	-0.111527
N	-0.4726027444	-2.1628350457	 0.1318321852	 0.053437
C	-1.0870983156	-3.4681273494	 0.0907834178	-0.276243
C	-1.3484789507	-3.9420616181	-1.277273245	 0.268592
N	-1.5767111677	-4.3113463497	-2.3472787228	-0.29768
N	 0.7894300075	-2.0456379763	 0.574409583	-0.256455
C	 1.0653595134	-0.7488370844	 0.4685312162	-0.045344
H	 0.7916594101	 1.7927435111	-0.4254461255	 0.248828
H	-0.7610371884	 1.6441563333	-0.9583628572	 0.2476
H	-2.0078164702	-0.8941274743	-0.6586490075	 0.133905
H	-0.3975170444	-4.1518255993	 0.5908276863	 0.18835
H	-2.0322123353	-3.4698637152	 0.6465724254	 0.167836
H	 2.0315785302	-0.3759343443	 0.7762787773	 0.111384
26.8534	76.9807	178.8063	217.152	281.2082	336.7227	370.6453	424.3147	485.5821	614.4495	659.7358	666.0596	717.5518	756.7538	800.6725	852.1873	928.2318	966.152	1007.9921	1031.1812	1103.7673	1185.321	1217.1505	1254.1241	1371.0241	1390.4729	1420.5299	1426.8487	1454.6883	1488.3389	1636.8592	1663.389	2367.3004	3044.5505	3122.5617	3242.3437	3263.8673	3544.1299	3632.2711
NC1=CN(CC#N)N=C1	Nc1cn(CC#N)nc1	
InChI=1S/C5H6N4/c6-1-2-9-4-5(7)3-8-9/h3-4H,2,7H2	InChI=1S/C5H6N4/c6-1-2-9-4-5(7)3-8-9/h3-4H,2,7H2
