25
gdb 104452	2.89305	1.1415	1.01893	1.2789	88.22	-0.2569	0.0654	0.3223	1343.6239	0.229997	-389.525302	-389.515627	-389.514683	-389.559119	38.405	
C	 0.148534526	 1.5669365544	 0.0774250633	-0.415052
C	-0.001816435	 0.0456342971	-0.0316494046	-0.192865
C	-1.4526058218	-0.4819755974	-0.0043445374	 0.370127
O	-2.1034575276	-0.0632466685	 1.2056110514	-0.473053
C	-2.2631888258	-0.0138476733	-1.2322209791	-0.231964
C	-3.6749837454	-0.6161467953	-1.2686049796	-0.190709
C	-3.628826291	-2.1485124871	-1.2195375486	-0.182642
C	-2.8485802653	-2.6305094715	 0.0101632188	-0.200984
C	-1.4413179393	-2.0197687282	 0.056702571	-0.196985
H	 1.2060543472	 1.8467799437	 0.09664026	 0.11755
H	-0.311659989	 2.0935759485	-0.7646919333	 0.118071
H	-0.2989799787	 1.9457403775	 1.002931347	 0.111199
H	 0.4815803059	-0.305129948	-0.9520937858	 0.090124
H	 0.5346083952	-0.4229403562	 0.8021893311	 0.097116
H	-2.2528260726	 0.8858949953	 1.1482327384	 0.276349
H	-2.3223226196	 1.0821006184	-1.240999028	 0.079907
H	-1.7162652463	-0.2976483942	-2.1415031641	 0.091298
H	-4.2424215118	-0.2455270452	-0.4066089088	 0.098588
H	-4.2011831046	-0.2742660293	-2.1670607179	 0.084145
H	-4.6446554362	-2.5596472711	-1.2123800686	 0.087104
H	-3.1453359519	-2.5269521251	-2.1318698538	 0.085607
H	-3.388603624	-2.342689165	 0.9190027269	 0.111128
H	-2.7767402167	-3.7240753537	 0.0141030737	 0.083372
H	-0.8459596086	-2.3923099044	-0.7870371227	 0.086613
H	-0.9238268831	-2.3255788617	 0.9728262205	 0.095958
84.3066	131.4408	195.4618	216.0565	236.0145	303.8766	305.3108	331.8144	352.2136	411.9135	425.1313	488.2233	498.1312	580.1619	713.4758	776.528	781.9046	840.7969	858.6442	904.2237	923.4481	942.1968	965.8599	1007.8831	1021.9486	1042.1124	1070.7733	1083.407	1095.5672	1118.4351	1154.9232	1195.9074	1202.9179	1269.956	1287.1381	1293.329	1325.4022	1334.7789	1358.5064	1369.1671	1380.6401	1383.3618	1394.2866	1401.2639	1415.9932	1467.37	1477.8094	1481.1593	1482.1322	1488.3537	1501.4298	1503.0408	1510.8296	3003.4489	3009.5353	3019.673	3026.3168	3029.5803	3034.1949	3034.8317	3047.7205	3059.0058	3059.6435	3068.3038	3071.4937	3082.67	3100.426	3106.9636	3816.2245
CCC1(O)CCCCC1	CCC1(O)CCCCC1	
InChI=1S/C8H16O/c1-2-8(9)6-4-3-5-7-8/h9H,2-7H2,1H3	InChI=1S/C8H16O/c1-2-8(9)6-4-3-5-7-8/h9H,2-7H2,1H3
