17
gdb 64597	2.83814	1.47057	1.28848	0.8895	72.65	-0.252	-0.0311	0.2209	1029.027	0.134497	-421.817456	-421.809341	-421.808397	-421.850267	30.623	
C	 0.0241202997	 1.6284786266	 0.2676130473	-0.439176
C	-0.0057451944	 0.0898811268	 0.1088757985	 0.113342
C	-1.4640330015	-0.344499012	 0.1985788034	 0.129163
O	-2.1154553144	-0.8018278831	-0.701950369	-0.244335
C	 0.6741514521	-0.3911837592	-1.1608447513	-0.094178
C	 1.6798536521	-1.2336439202	-0.9173481044	-0.105462
C	 1.8525436227	-1.4227555758	 0.5537857842	-0.003844
O	 2.1845355545	-0.194292681	 1.255696642	-0.258305
C	 0.8216502132	-0.6047810358	 1.20802266	-0.011822
H	 1.0609643927	 1.95472312	 0.3707347412	 0.15347
H	-0.4216055009	 2.1186769286	-0.6026429662	 0.130373
H	-0.5299737382	 1.945197754	 1.1580054877	 0.122137
H	-1.9146639229	-0.170108932	 1.2056969885	 0.076501
H	 0.3621417864	-0.0385024963	-2.1363135274	 0.116827
H	 2.3137676043	-1.7019222138	-1.6596305287	 0.11086
H	 2.2790024891	-2.3227010929	 0.9850359989	 0.105242
H	 0.3664802055	-0.8474322438	 2.1659644953	 0.099208
64.4943	148.5533	197.9827	231.0049	277.7562	308.3103	384.7543	432.9935	508.0837	582.35	705.3187	747.4871	773.5055	823.3676	858.5627	866.1512	920.4358	942.9587	960.989	989.5681	997.545	1032.1726	1105.3902	1111.8617	1130.6548	1192.5795	1242.9439	1258.4942	1299.4229	1373.1506	1391.2841	1405.712	1430.087	1490.9591	1500.2342	1663.7151	1833.3826	2839.7948	3037.3752	3106.6987	3132.7612	3136.9054	3171.2108	3202.5272	3225.688
CC1(C=O)C=CC2OC12	C[C@@]1(C=O)C=C[C@H]2O[C@@H]12	
InChI=1S/C7H8O2/c1-7(4-8)3-2-5-6(7)9-5/h2-6H,1H3	InChI=1S/C7H8O2/c1-7(4-8)3-2-5-6(7)9-5/h2-6H,1H3/t5-,6-,7+/m1/s1
