17
gdb 65711	4.69304	0.83777	0.78842	2.9335	71.68	-0.2587	-0.0556	0.2031	1418.6636	0.13128	-458.958632	-458.94899	-458.948046	-458.994115	33.315	
C	-0.0492624738	 1.5938392794	 0.2500375085	-0.472369
C	-0.0556266508	 0.0858792197	 0.148333219	 0.359346
C	-1.2732836796	-0.5308685992	-0.5278179907	-0.336657
C	-1.3373051483	-0.1660306363	-2.0027033032	 0.159987
O	-2.3155723293	 0.265734512	-2.5534826731	-0.234762
O	 1.1827861863	-0.5203166734	-0.2136802435	-0.259679
C	 0.7126336562	-0.7670139066	 1.1082615221	-0.102054
C	 1.4874100782	-0.1901456992	 2.2520078887	 0.142107
O	 2.2878561308	 0.7056547438	 2.1678271882	-0.245641
H	 0.8758370425	 1.9464967912	 0.7051761219	 0.170428
H	-0.1368306946	 2.033591612	-0.7492934065	 0.139946
H	-0.903391473	 1.9421962922	 0.8396431989	 0.129889
H	-1.2012788302	-1.6242564052	-0.4697126197	 0.12993
H	-2.20266795	-0.2142574138	-0.0463472026	 0.129063
H	-0.3892110331	-0.3446717209	-2.5560985336	 0.101513
H	 0.3392353423	-1.7766273496	 1.2894634228	 0.102707
H	 1.2467779163	-0.6662950263	 3.2289908428	 0.086248
53.2627	59.103	122.4495	142.0788	189.9968	243.7724	252.638	285.7456	357.2809	399.4349	481.6982	539.3498	709.3489	750.9975	821.5727	828.1762	900.6308	946.3767	962.8455	1003.1051	1046.4303	1085.325	1111.8741	1124.8153	1190.3709	1255.5238	1300.6682	1342.7307	1413.3497	1419.0347	1424.1717	1433.7464	1447.7512	1490.8813	1499.1673	1825.2797	1835.6322	2883.0418	2897.6122	3035.4213	3043.3544	3096.3321	3102.5432	3108.9104	3161.5864
CC1(CC=O)OC1C=O	C[C@@]1(CC=O)O[C@H]1C=O	
InChI=1S/C6H8O3/c1-6(2-3-7)5(4-8)9-6/h3-5H,2H2,1H3	InChI=1S/C6H8O3/c1-6(2-3-7)5(4-8)9-6/h3-5H,2H2,1H3/t5-,6-/m0/s1
