27
gdb 112708	2.9308	0.94676	0.7991	0.163	95.72	-0.2924	0.0774	0.3698	1610.6693	0.252611	-353.58879	-353.578259	-353.577315	-353.624762	40.237	
C	-0.0368298445	 1.6012990445	 0.1271919527	-0.382912
C	 0.0196677813	 0.0838098528	-0.0781497189	-0.192183
C	-1.3511669343	-0.5984491395	-0.0519046358	 0.058945
C	-2.3061217754	-0.1819072773	-1.200401373	-0.227209
C	-3.1982306678	-1.419334948	-1.5331134881	 0.018855
C	-3.0501456388	-1.8357544048	-3.0025950708	-0.39455
C	-2.7576335131	-2.5087634892	-0.5036212629	 0.039695
C	-2.9660362777	-3.9648260417	-0.9191781324	-0.417302
C	-1.3069260399	-2.130233087	-0.1696562979	-0.22558
H	 0.9653867082	 2.041302369	 0.1171742752	 0.108884
H	-0.6213949235	 2.0907666273	-0.6586581883	 0.117448
H	-0.500168416	 1.8522102951	 1.0882460836	 0.111091
H	 0.5085760298	-0.1388847324	-1.0369745006	 0.088953
H	 0.6557923885	-0.3614370248	 0.6981645296	 0.08897
H	-1.8333961654	-0.3548323297	 0.9063646701	 0.061936
H	-2.9024985783	 0.6972507311	-0.9405804486	 0.093483
H	-1.7165456594	 0.0952874888	-2.0836621494	 0.089399
H	-4.2542695944	-1.17888045	-1.366285614	 0.061592
H	-2.0199667295	-2.1276685441	-3.2378140896	 0.111315
H	-3.7032799398	-2.6748295653	-3.2612556024	 0.110267
H	-3.3091505783	-0.9996782296	-3.6611320071	 0.109109
H	-3.3471777199	-2.3372684122	 0.4082231957	 0.065833
H	-2.3688100892	-4.2261305723	-1.7987130062	 0.113994
H	-2.6732777621	-4.6425531438	-0.1099858018	 0.107829
H	-4.0158505374	-4.1705358608	-1.1561630312	 0.109153
H	-0.6392512894	-2.4252594453	-0.9925581904	 0.087041
H	-0.9348664935	-2.619401801	 0.7369847528	 0.085946
28.4375	84.3275	123.3334	196.5836	241.4806	248.6947	254.9845	286.8254	307.6353	365.1516	406.4168	421.5456	499.1629	537.2796	604.6896	751.1362	779.6358	841.5776	870.6649	892.4427	919.9693	938.3041	966.6346	1000.1258	1019.1826	1034.6171	1047.509	1057.332	1089.9857	1105.8796	1149.855	1156.5338	1192.5552	1213.9709	1244.8015	1272.112	1286.343	1308.2805	1315.6772	1339.6596	1345.0669	1363.5069	1373.8684	1383.7709	1391.7432	1407.5917	1411.7824	1415.2299	1484.4595	1487.7853	1491.9599	1493.7223	1499.6591	1503.2699	1505.0311	1507.9638	1510.589	2986.308	2991.0535	3004.7069	3011.3002	3022.843	3026.1928	3029.5189	3030.2293	3030.8982	3041.0934	3068.8745	3081.323	3089.7177	3090.1712	3095.5426	3100.3234	3102.3033	3102.8896
CCC1CC(C)C(C)C1	CC[C@H]1C[C@@H](C)[C@@H](C)C1	
InChI=1S/C9H18/c1-4-9-5-7(2)8(3)6-9/h7-9H,4-6H2,1-3H3	InChI=1S/C9H18/c1-4-9-5-7(2)8(3)6-9/h7-9H,4-6H2,1-3H3/t7-,8+,9+
