15
gdb 123718	3.59398	1.61703	1.1306	4.1669	71.72	-0.2521	-0.0333	0.2188	1004.4412	0.114762	-416.809888	-416.803269	-416.802324	-416.840967	25.884	
C	-0.0265169784	 1.5034305637	-0.1325851903	-0.400655
C	 1.3629259473	 2.0560140488	 0.1021835701	-0.05525
C	 2.4494357071	 1.3247032867	 0.3547075857	-0.042237
C	 2.4899127575	-0.1837161798	 0.4518880929	-0.398795
C	 1.1239222891	-0.7291412625	 0.2212484208	 0.216438
C	 0.0227495396	 0.0224664047	-0.0352996631	 0.3721
O	-1.0266896851	-0.7730092728	-0.1901768253	-0.236428
N	-0.5176127691	-2.1270050627	-0.0118444817	-0.028892
N	 0.7123842421	-2.041056529	 0.2197947169	-0.188033
H	-0.7374587241	 1.9157966686	 0.5973362959	 0.143653
H	-0.4076255374	 1.8142398084	-1.115654332	 0.143653
H	 1.4497200668	 3.1377362023	 0.0547887447	 0.100863
H	 3.3984429752	 1.8311740148	 0.5074042028	 0.100484
H	 3.20665342	-0.5877719985	-0.2768299589	 0.13655
H	 2.8771150593	-0.4863332527	 1.4349977315	 0.13655
105.7326	233.9873	282.2596	380.4149	405.1569	469.085	570.1272	599.2896	658.4287	687.9404	704.9686	735.0409	882.6445	903.8511	977.1342	979.9671	984.341	1011.168	1016.6712	1186.5198	1203.2912	1204.081	1208.2205	1249.7197	1302.9448	1369.7383	1407.3785	1441.3608	1463.0027	1473.1136	1484.2497	1654.329	1727.6901	3008.2868	3009.8309	3025.5905	3027.1085	3159.1598	3180.8513
C1C=CCC2=C1ON=N2	C1C=CCc2c1onn2	
InChI=1S/C6H6N2O/c1-2-4-6-5(3-1)7-8-9-6/h1-2H,3-4H2	InChI=1S/C6H6N2O/c1-2-4-6-5(3-1)7-8-9-6/h1-2H,3-4H2
