23
gdb 103851	2.76865	1.0987	0.91708	1.5757	86.38	-0.2554	0.086	0.3415	1396.6112	0.204269	-388.263409	-388.253428	-388.252484	-388.298289	37.392	
C	 0.4036057063	 1.3025036572	 0.3914518781	-0.381513
C	-0.1241607388	-0.0414442538	-0.128533173	-0.260157
C	 0.5899152215	-0.5398939102	-1.3797707173	 0.354507
C	 0.4174335053	 0.3310454016	-2.61258222	-0.460166
C	 1.919255808	-1.2441649876	-1.2075308295	-0.336611
C	 0.7027383827	-2.033967718	-1.6270759915	-0.090737
C	 0.1085387172	-3.068812683	-0.7216701028	 0.048056
C	 0.9033943761	-4.1941435921	-0.2057676473	-0.17493
O	 0.5393494891	-3.1033630251	 0.642396798	-0.226941
H	 1.4761634454	 1.2453955318	 0.6060127306	 0.116789
H	 0.2509508581	 2.1117450255	-0.3294787373	 0.113124
H	-0.1076604034	 1.5868437836	 1.3164284086	 0.110275
H	-0.0299057797	-0.7887900857	 0.6633542501	 0.130731
H	-1.1980946173	 0.050423877	-0.3432013671	 0.086758
H	 0.8343581379	 1.3325120038	-2.4620002085	 0.1188
H	 0.9219953063	-0.1047457985	-3.4808142392	 0.109138
H	-0.6429703699	 0.4483000293	-2.867226374	 0.111889
H	 2.7039649645	-1.072986731	-1.9370951299	 0.101878
H	 2.2666986609	-1.406469554	-0.1926176918	 0.125248
H	 0.6527214022	-2.3314823844	-2.6730589247	 0.082578
H	-0.9645072364	-3.2335203925	-0.8384939495	 0.092591
H	 0.4215745582	-5.1431704227	 0.0244402111	 0.11322
H	 1.961071906	-4.2514335711	-0.4575948932	 0.115474
73.9269	96.179	133.4019	157.6361	211.1969	224.2306	263.7481	300.2055	330.2163	372.9277	413.6004	553.4984	603.3024	686.4806	745.6445	793.2492	849.639	876.9351	904.2043	916.7891	947.1229	997.4629	1010.4259	1021.6309	1055.7246	1071.2082	1081.0921	1098.4902	1127.4272	1133.8033	1147.6712	1167.1313	1176.0714	1252.1575	1286.8377	1317.6259	1333.8983	1381.0475	1404.9889	1409.4943	1420.0938	1435.2693	1482.2824	1485.8952	1496.9336	1500.8107	1508.4699	1511.5161	1521.7261	3012.013	3023.3246	3035.3337	3083.4819	3084.8033	3088.3728	3091.1159	3097.1891	3102.7828	3112.824	3120.3053	3128.976	3175.0934	3216.911
CCC1(C)CC1C1CO1	CC[C@@]1(C)C[C@H]1[C@H]1CO1	
InChI=1S/C8H14O/c1-3-8(2)4-6(8)7-5-9-7/h6-7H,3-5H2,1-2H3	InChI=1S/C8H14O/c1-3-8(2)4-6(8)7-5-9-7/h6-7H,3-5H2,1-2H3/t6-,7+,8-/m0/s1
