21
gdb 77381	2.3827	1.63838	1.33002	1.1137	81.9	-0.2358	0.0761	0.312	1083.3791	0.18135	-387.046	-387.037172	-387.036228	-387.078585	35.203	
C	-0.0078370877	 1.6361006891	 0.0659742037	-0.439418
C	 0.0838635496	 0.1156843884	 0.0074589674	-0.069977
C	 0.7706039372	-0.5999301491	-1.1523907933	 0.390352
O	 0.3054309822	-0.7348868979	-2.4469129216	-0.46976
C	 2.271504779	-0.7304436406	-0.8135547828	-0.140497
C	 2.4887730311	-0.1281647102	 0.568968485	-0.281617
C	 1.0771237007	-0.6917555653	 0.9197514053	 0.306859
C	 0.7043508755	-1.0328832684	 2.3390314691	-0.505905
C	 1.2493154169	-1.7195333875	-0.281142	-0.19118
H	 0.958591557	 2.1177089192	-0.1099203363	 0.114756
H	-0.7036340499	 2.0059438894	-0.6956961132	 0.115056
H	-0.38120569	 1.9756607299	 1.0386970657	 0.114882
H	-0.9141998998	-0.3225046122	 0.1345734088	 0.07028
H	 0.6040228444	 0.0258460647	-2.957035605	 0.284722
H	 2.9894185405	-0.9037998805	-1.6058947639	 0.081445
H	 3.2672101056	-0.6675680439	 1.1189050428	 0.093987
H	 2.6584715637	 0.9495237753	 0.672721061	 0.083804
H	 0.6420245479	-0.1272650262	 2.9547501538	 0.1175
H	-0.267874911	-1.5353841453	 2.3878317411	 0.117018
H	 1.4478995491	-1.6939213918	 2.7978071531	 0.115699
H	 1.163577098	-2.793093977	-0.3634118007	 0.091995
157.7075	180.1934	206.3214	217.8172	252.7542	277.5771	293.697	361.3462	391.7993	496.9669	563.0145	580.1803	629.5006	694.8341	761.5476	784.3858	836.5648	877.7901	908.7858	920.3917	955.8498	973.3829	1000.5495	1044.7007	1080.3051	1096.9816	1113.8783	1129.4146	1146.7454	1164.0349	1191.0254	1234.9443	1242.3675	1288.0773	1294.5208	1342.8043	1388.2353	1405.0305	1414.8611	1448.708	1488.375	1493.6597	1494.1368	1495.6779	1512.9243	3020.7683	3026.4552	3027.7491	3033.2349	3077.9801	3083.9622	3088.3165	3092.8145	3106.7247	3189.7171	3226.2454	3795.2495
CC1C2(O)C3CC1(C)C23	C[C@H]1[C@@]2(O)[C@H]3C[C@]1(C)[C@@H]23	
InChI=1S/C8H12O/c1-4-7(2)3-5-6(7)8(4,5)9/h4-6,9H,3H2,1-2H3	InChI=1S/C8H12O/c1-4-7(2)3-5-6(7)8(4,5)9/h4-6,9H,3H2,1-2H3/t4-,5+,6+,7+,8-/m1/s1
