21
gdb 92216	3.06586	1.6574	1.54891	1.5127	80.68	-0.2324	0.0905	0.3228	980.6806	0.186126	-387.088833	-387.081877	-387.080933	-387.11978	29.577	
C	-0.4254806198	 1.5305458909	-0.0217172432	-0.404683
C	-0.0029120269	 0.0644659724	-0.0304894186	 0.112932
O	 0.7280242604	-0.275810172	-1.2299834166	-0.294781
C	 2.0285876474	-0.7050747674	-0.8154760245	 0.113645
C	 2.781812955	 0.5123311131	-0.2132250551	-0.233178
C	 2.341756341	 0.2921143593	 1.2515959127	-0.04612
C	 2.898729774	-1.1415792119	 1.4826913945	-0.24176
C	 1.7915395527	-1.5345146028	 0.4777698052	-0.047637
C	 0.9277070628	-0.395121077	 1.0886406561	-0.029984
H	 0.4328148431	 2.2034493584	 0.0518792989	 0.118455
H	-0.9712221759	 1.7708322605	-0.938629446	 0.125159
H	-1.0875049175	 1.7266231955	 0.8290744629	 0.109582
H	-0.9122949584	-0.5554585905	-0.0168530928	 0.071869
H	 2.5019488179	-1.2035322755	-1.6614165008	 0.071049
H	 3.870314367	 0.4506956633	-0.3146812816	 0.091116
H	 2.4431022873	 1.4398582606	-0.6769211034	 0.10323
H	 2.5130707566	 1.0966258415	 1.9667129447	 0.060929
H	 3.9449474969	-1.3291256525	 1.2226923058	 0.088929
H	 2.689773268	-1.5273572912	 2.4837380116	 0.09685
H	 1.4202116248	-2.5515454868	 0.3545157476	 0.064988
H	 0.4430493837	-0.621053298	 2.0390478926	 0.069412
161.1354	209.9194	229.1411	389.4611	421.8733	473.9931	501.0225	580.8578	652.4956	763.9609	798.7698	829.7297	831.6084	865.9165	881.2281	901.828	937.9759	950.9715	953.1262	989.6314	1001.2527	1027.8506	1052.4191	1061.1106	1093.4536	1098.448	1118.8363	1144.8118	1165.9846	1193.3127	1199.2575	1229.7822	1252.3462	1270.5493	1301.5355	1314.0203	1327.8715	1336.9249	1365.9389	1388.9135	1406.1798	1484.3765	1494.5214	1496.2831	1516.9355	2980.5019	3038.1151	3047.2203	3051.3528	3105.4944	3106.3391	3107.1479	3113.0673	3113.5852	3117.8977	3125.4015	3126.2783
CC1OC2CC3CC2C13	C[C@H]1O[C@H]2C[C@@H]3C[C@H]2[C@H]13	
InChI=1S/C8H12O/c1-4-8-5-2-6(8)7(3-5)9-4/h4-8H,2-3H2,1H3	InChI=1S/C8H12O/c1-4-8-5-2-6(8)7(3-5)9-4/h4-8H,2-3H2,1H3/t4-,5+,6-,7+,8-/m1/s1
