15
gdb 124270	4.17146	1.10925	0.88167	1.8338	71.46	-0.2252	-0.0624	0.1628	1247.8271	0.113863	-450.182125	-450.173712	-450.172768	-450.215586	30.339	
C	-0.0272320035	 1.4882383732	 0.0328419601	-0.480876
C	-0.0073675971	-0.0189179069	-0.0058484399	 0.317148
O	 0.0156591463	-0.7234224755	 0.9851016988	-0.326508
C	-0.0170135499	-0.6529803043	-1.3426001548	 0.27481
N	-0.0375753042	-0.0738884614	-2.539623359	-0.367086
C	-0.0392698139	-1.1368336368	-3.3862834068	 0.394066
N	-0.1185982117	-0.9933135451	-4.753115298	-0.586724
N	-0.0144708412	-2.3339786566	-2.7897180147	-0.274821
N	-0.0050730474	-1.9896275618	-1.4847308818	-0.22066
H	 0.8369486728	 1.889030001	-0.5065574611	 0.155521
H	-0.9147659458	 1.8651826356	-0.485278826	 0.157802
H	-0.0188978737	 1.8269328415	 1.0690163368	 0.140743
H	 0.2455692994	-0.1141548702	-5.088154197	 0.262022
H	 0.2165121212	-1.7910308875	-5.2724917299	 0.261806
H	 0.0120880288	-2.6810617051	-0.7520031168	 0.292758
73.7447	111.4066	151.5763	155.1456	310.0859	350.608	358.7513	390.5307	535.8484	546.374	595.17	624.8392	631.2381	732.8886	765.825	791.7471	956.539	1024.8386	1044.9861	1052.6652	1087.458	1175.3068	1192.7416	1318.654	1384.5281	1416.2772	1455.8953	1464.212	1478.4661	1552.9218	1573.9122	1648.1862	1775.1225	3049.0516	3111.3237	3161.4583	3579.4652	3663.3924	3686.7925
CC(=O)C1=NC(N)=NN1	CC(=O)c1nc(N)n[nH]1	
InChI=1S/C4H6N4O/c1-2(9)3-6-4(5)8-7-3/h1H3,(H3,5,6,7,8)	InChI=1S/C4H6N4O/c1-2(9)3-6-4(5)8-7-3/h1H3,(H3,5,6,7,8)
