17
gdb 15643	3.41144	1.84474	1.32001	1.1171	71.17	-0.2203	-0.0034	0.217	948.4604	0.143879	-360.073561	-360.065777	-360.064833	-360.106268	28.266	
C	-0.0140472914	 1.5674330761	-0.0727775124	-0.378556
C	-0.0387676461	 0.0415947263	 0.0441064381	-0.152584
N	-1.3830547531	-0.5102404417	 0.0418205607	-0.057003
C	-2.1290065641	-0.9178444015	 1.1365938358	 0.066035
N	-3.2998297897	-1.3743809924	 0.9034899331	-0.267397
C	-3.4553675648	-1.2967772275	-0.555799569	-0.268984
C	-2.1501711712	-0.7122378898	-1.1019743769	 0.340376
N	-1.7297032828	-0.429805624	-2.2700350146	-0.554855
H	 1.0195701019	 1.9271329041	-0.0752937838	 0.118944
H	-0.4902466923	 1.8806664682	-1.0046379821	 0.153022
H	-0.5384193728	 2.0371822754	 0.7652651709	 0.117463
H	 0.4962476114	-0.4044235874	-0.7998638433	 0.140561
H	 0.4536849084	-0.2869283627	 0.9652827355	 0.111189
H	-1.6916290514	-0.8389484088	 2.1274242945	 0.132063
H	-3.6518677547	-2.2909172549	-0.9738556861	 0.139803
H	-4.3121192255	-0.6643942607	-0.8165057559	 0.139867
H	-2.4312847118	-0.6626364787	-2.9710096745	 0.220057
51.4699	109.1177	165.6275	213.6456	300.5476	386.4515	456.3555	459.2826	596.6667	646.9987	708.8303	785.2243	828.3848	899.5635	934.389	941.1004	982.9992	1006.457	1020.2909	1092.3385	1109.4151	1191.5427	1220.2303	1267.7909	1285.0191	1318.8894	1389.239	1391.0081	1408.1277	1423.5992	1453.8819	1477.7898	1490.0515	1507.4324	1676.9852	1732.8362	3039.4532	3042.2916	3048.0129	3071.2734	3092.4996	3113.5192	3135.7578	3187.8049	3495.5556
CCN1C=NCC1=N	CCN1C=NC[C]1[NH]	
InChI=1S/C5H9N3/c1-2-8-4-7-3-5(8)6/h4,6H,2-3H2,1H3	InChI=1S/C5H9N3/c1-2-8-4-7-3-5(8)6/h4,6H,2-3H2,1H3
