22
gdb 121961	5.99291	0.52888	0.50643	5.0523	84.27	-0.2845	0.03	0.3144	2186.0697	0.192081	-404.373708	-404.362649	-404.361705	-404.41096	38.805	
C	-0.0118738237	 1.5766667333	 0.1032350406	-0.380562
C	 0.0120602111	 0.0475485509	 0.0303697841	-0.167966
C	 0.6952277934	-0.4796774734	-1.2357170767	-0.163615
C	 0.7192817269	-2.0091490635	-1.3191152247	-0.210718
C	 1.4555513447	-2.5342816069	-2.557017111	 0.124794
O	 2.7997474738	-2.09146794	-2.6182289145	-0.414517
C	 1.3726240869	-4.0777656656	-2.6341714866	-0.370641
C	 2.0318465317	-4.6249292368	-3.8171070788	 0.271682
N	 2.5417605468	-5.0632640754	-4.7564363423	-0.303442
H	 1.0031248242	 1.9887531328	 0.0900550797	 0.116714
H	-0.5520038092	 2.0047536494	-0.7484011413	 0.116305
H	-0.5017595422	 1.9254748662	 1.0174858272	 0.113194
H	 0.5265696971	-0.3536804314	 0.9139206804	 0.093417
H	-1.0150103015	-0.3384108658	 0.0783375189	 0.094564
H	 0.1814478281	-0.079764088	-2.1207153316	 0.097311
H	 1.7236921776	-0.1045879227	-1.2893209004	 0.109668
H	 1.2016459325	-2.4241859587	-0.4203072362	 0.0872
H	-0.3069733179	-2.399664682	-1.320418922	 0.099853
H	 0.989058276	-2.1214529001	-3.4589797937	 0.111549
H	 3.2546210434	-2.3885920052	-1.8214517646	 0.282348
H	 1.8336680437	-4.5153831885	-1.7391692953	 0.140751
H	 0.3242488464	-4.3969715085	-2.6358706112	 0.152112
47.7648	65.7756	81.5213	103.1312	152.9382	170.3503	249.7481	266.531	287.9562	305.3705	396.5694	397.6442	441.5254	483.4946	606.5051	736.5836	793.2518	859.8156	897.7385	908.312	941.5423	983.9931	1019.4599	1040.638	1069.9891	1097.7039	1119.1497	1145.6372	1200.0334	1232.2864	1262.4407	1301.6275	1307.8137	1329.4956	1354.8851	1364.3582	1383.8181	1400.5258	1415.2799	1422.9184	1458.5703	1479.3996	1485.8194	1499.5753	1500.6646	1513.1918	2366.2768	2989.8442	3009.8602	3020.4181	3029.7223	3031.4777	3037.6924	3039.8756	3055.8613	3074.525	3081.6852	3098.5515	3104.1767	3790.4437
CCCCC(O)CC#N	CCCC[C@@H](O)CC#N	
InChI=1S/C7H13NO/c1-2-3-4-7(9)5-6-8/h7,9H,2-5H2,1H3	InChI=1S/C7H13NO/c1-2-3-4-7(9)5-6-8/h7,9H,2-5H2,1H3/t7-/m1/s1
