25
gdb 120727	2.41018	0.86566	0.70996	1.3434	89.98	-0.2617	0.0761	0.3377	1711.7786	0.227156	-389.480705	-389.469588	-389.468644	-389.517372	40.854	
C	 0.2746362135	 0.9021264928	 1.6656247383	-0.377349
C	-0.2052532104	-0.5579355791	 1.6860023371	 0.014832
C	-0.523177967	-1.0009475952	 3.1219091254	-0.39622
C	-1.4063354251	-0.7351817354	 0.77028172	 0.03357
C	-1.2476975722	-0.7373008285	-0.7302969781	-0.327032
C	-1.7141915201	-1.9900950612	-0.0282111329	-0.02457
C	-0.8589547774	-3.2412619358	-0.0351109324	-0.197819
C	-1.3348131108	-4.3027379375	 0.9513075558	-0.075909
O	-0.4982352406	-5.4403792457	 0.8009674448	-0.421409
H	 1.151117279	 1.0390575278	 2.3079409301	 0.106102
H	 0.5413650141	 1.2186896721	 0.6528568479	 0.113508
H	-0.5110799473	 1.5757657983	 2.0283276479	 0.108777
H	 0.6158679147	-1.1815439858	 1.3095064869	 0.07191
H	-1.3316721166	-0.3926740918	 3.545283657	 0.109877
H	-0.8401907529	-2.0470587662	 3.1625137438	 0.119511
H	 0.3503087099	-0.8877509717	 3.7727199527	 0.108664
H	-2.2894481333	-0.213456907	 1.1375565417	 0.072952
H	-1.9480134021	-0.1798806781	-1.342959698	 0.10516
H	-0.23220227	-0.7443762873	-1.1173985506	 0.107199
H	-2.7770828431	-2.2016008145	-0.1321417711	 0.076183
H	-0.872428636	-3.6873680037	-1.0377720726	 0.106426
H	 0.1890719122	-3.0071251928	 0.1795071122	 0.105977
H	-1.293488171	-3.910845357	 1.9794528545	 0.093059
H	-2.3884862403	-4.5530379542	 0.7428839885	 0.082025
H	-0.7906092571	-6.1127723225	 1.422842511	 0.284576
49.2027	72.2424	106.9182	156.0343	180.173	216.869	233.6446	248.9631	265.884	333.5027	335.0815	397.3991	435.5905	473.3187	543.3383	755.7733	791.9835	823.8156	855.3247	891.0701	927.9315	952.9101	971.2802	986.5928	1029.8888	1043.8506	1053.7822	1073.5414	1088.168	1135.7269	1146.7347	1180.6097	1186.4093	1209.3071	1234.2836	1245.2377	1252.1332	1307.1838	1314.1085	1330.8605	1340.031	1397.9288	1405.8517	1420.2005	1435.1593	1460.4508	1485.1044	1490.2666	1494.2708	1494.6413	1502.6669	1509.4689	1526.2476	2961.3018	2995.2554	3018.2686	3023.9749	3028.9674	3032.5772	3078.0052	3086.6761	3093.3969	3104.751	3105.9072	3108.2871	3118.5666	3120.3387	3203.1185	3831.7746
CC(C)C1CC1CCO	CC(C)[C@H]1C[C@H]1CCO	
InChI=1S/C8H16O/c1-6(2)8-5-7(8)3-4-9/h6-9H,3-5H2,1-2H3	InChI=1S/C8H16O/c1-6(2)8-5-7(8)3-4-9/h6-9H,3-5H2,1-2H3/t7-,8-/m1/s1
