19
gdb 63522	3.35627	1.11958	1.0256	4.1065	76.74	-0.2661	0.0112	0.2774	1238.7027	0.157268	-423.04819	-423.039245	-423.038301	-423.081546	33.949	
C	 0.1034160038	 1.547858686	-0.237869882	-0.453145
C	-0.0049822131	 0.0461369906	-0.0507864559	 0.241615
C	-1.2584582142	-0.5846820862	-0.6277873908	-0.450206
C	 1.2881083332	-0.7746335889	-0.0925240387	-0.400204
C	 0.5710492001	-0.5471829459	 1.1932763912	 0.422622
C	 1.0126136649	 0.0648930234	 2.5142044929	-0.503172
C	 0.2840685627	-1.1432725182	 3.1107729819	 0.437264
O	 0.0483596785	-1.5973964872	 4.1824139312	-0.314368
O	-0.0828113468	-1.6487887243	 1.8850105993	-0.259188
H	 1.0171057978	 1.9500014503	 0.2106879855	 0.116401
H	 0.1180892557	 1.8026346311	-1.3035669087	 0.124641
H	-0.7501959889	 2.064995853	 0.2152631631	 0.1218
H	-1.2925358517	-0.4475737466	-1.7141969958	 0.118564
H	-1.3057873725	-1.6547240245	-0.4136570512	 0.136348
H	-2.1568306312	-0.1218543806	-0.2041311954	 0.121513
H	 1.2349634298	-1.7722337313	-0.5160433078	 0.129764
H	 2.2305262912	-0.2606562989	-0.2555411363	 0.117406
H	 2.0860360048	 0.0793026894	 2.712488028	 0.14628
H	 0.5738429959	 1.0287571489	 2.7796910594	 0.146063
92.446	146.5184	178.9903	199.0366	224.299	274.7671	356.0014	368.4134	413.7941	487.1437	525.5829	540.2427	543.4895	701.549	797.5765	872.4187	880.1388	907.1041	960.0952	974.8905	990.0039	1027.6886	1035.9373	1053.2141	1064.5401	1137.8566	1163.5542	1192.7256	1221.6085	1241.2201	1302.0073	1409.3846	1412.4187	1426.1757	1456.899	1481.9881	1488.183	1491.2996	1501.5021	1521.0061	1944.7146	3025.2496	3032.4205	3083.1606	3087.7518	3091.2031	3101.404	3123.8684	3126.5213	3138.4862	3214.2462
CC1(C)CC11CC(=O)O1	CC1(C)C[C@]21CC(=O)O2	
InChI=1S/C7H10O2/c1-6(2)4-7(6)3-5(8)9-7/h3-4H2,1-2H3	InChI=1S/C7H10O2/c1-6(2)4-7(6)3-5(8)9-7/h3-4H2,1-2H3/t7-/m0/s1
