18
gdb 47855	2.42996	1.73911	1.15233	3.1971	74.96	-0.2241	0.0026	0.2266	1070.6078	0.150142	-439.126267	-439.118329	-439.117384	-439.158939	30.314	
O	-0.0275093871	 0.03498633	-0.3934581974	-0.383528
C	-0.0447538195	 1.1912074039	-0.0503739909	 0.445719
N	-1.1762941121	 1.8507205983	 0.3502124831	-0.35433
C	-1.3815296164	 3.2258323411	 0.5639072298	-0.004174
C	-0.8049282588	 4.2923208528	 0.0013994765	-0.037091
C	 0.228235503	 4.4874126025	-1.0823606076	-0.251309
C	 0.6477355528	 3.2980606534	-1.9637111253	-0.232875
C	 1.6008424147	 2.3414439468	-1.2522312515	-0.083537
O	 1.0601762211	 1.9887540975	 0.0260164826	-0.242056
H	-1.9739531766	 1.2433008259	 0.4635590098	 0.26104
H	-2.1546938734	 3.4016591728	 1.3066730288	 0.104715
H	-1.1616182669	 5.2360989776	 0.4095584747	 0.091798
H	-0.1632693151	 5.2765832366	-1.7380677151	 0.109869
H	 1.1293495579	 4.9266466014	-0.6263736041	 0.115123
H	-0.2379784321	 2.7542898166	-2.313226281	 0.11935
H	 1.1493965087	 3.676426521	-2.8622114379	 0.102779
H	 1.7920899072	 1.4364742556	-1.8400396521	 0.124563
H	 2.5554297428	 2.8277616762	-1.0341499923	 0.113944
81.6268	116.0209	210.5929	223.9403	331.9519	341.3811	428.1351	487.6226	561.8978	609.3415	621.6229	737.9882	755.4679	802.5882	823.7393	854.9423	892.3371	922.363	969.9308	974.7493	1047.3435	1076.1827	1109.674	1140.3289	1238.6784	1246.9812	1276.2757	1303.803	1339.7041	1386.8903	1396.1432	1415.1015	1453.0653	1468.4659	1487.5877	1490.2422	1506.5405	1740.9934	1827.8718	2990.2267	3023.4144	3038.368	3047.0008	3071.4355	3106.0161	3138.3377	3167.792	3622.1412
O=C1NC=CCCCO1	O=C1NC=CCCCO1	
InChI=1S/C6H9NO2/c8-6-7-4-2-1-3-5-9-6/h2,4H,1,3,5H2,(H,7,8)/b4-2-	InChI=1S/C6H9NO2/c8-6-7-4-2-1-3-5-9-6/h2,4H,1,3,5H2,(H,7,8)/b4-2-
