15
gdb 12207	3.42337	1.66706	1.43761	4.1366	61.64	-0.2798	-0.0044	0.2755	903.2683	0.117466	-399.787704	-399.779515	-399.778571	-399.820917	28.853	
C	 0.3901339839	 1.5044354684	-0.1096217438	-0.395829
C	 0.0751234811	 0.0381302251	 0.0801556821	 0.13312
O	 0.8378351424	-0.8201818022	-0.8213853652	-0.294033
C	 1.3325576376	-1.6212716695	 0.2581502599	-0.043724
C	 2.7921456564	-1.6931207637	 0.3286035364	 0.275161
N	 3.9403415058	-1.7667249997	 0.4367021155	-0.316132
C	 0.6554740643	-0.6904963437	 1.3183691191	 0.04187
O	 1.501636765	 0.1312303387	 2.065696324	-0.403426
H	 1.4467299644	 1.7037296862	 0.0741161605	 0.146718
H	 0.1426881538	 1.7977446198	-1.1341665442	 0.130548
H	-0.206067411	 2.1134930542	 0.577045153	 0.126034
H	-0.9973645072	-0.1530993434	-0.0503670953	 0.087293
H	 0.9278609245	-2.6415778131	 0.2303108333	 0.120768
H	-0.0802291232	-1.2086833857	 1.944875472	 0.089804
H	 2.0131124222	-0.4086491914	 2.6783877028	 0.301829
37.333	125.9437	191.0392	232.1379	245.9533	258.5311	367.4997	387.4696	502.652	565.7845	600.8432	791.9272	811.2279	874.9317	895.3528	997.7679	1024.3991	1052.3833	1094.6446	1131.5973	1179.8267	1210.4709	1244.4504	1300.5159	1327.4941	1343.2102	1391.6141	1409.6548	1427.6102	1482.9326	1490.1398	2356.0125	3018.7367	3023.0478	3040.0497	3049.4256	3116.3991	3149.6533	3810.7604
CC1OC(C#N)C1O	C[C@H]1O[C@@H](C#N)[C@H]1O	
InChI=1S/C5H7NO2/c1-3-5(7)4(2-6)8-3/h3-5,7H,1H3	InChI=1S/C5H7NO2/c1-3-5(7)4(2-6)8-3/h3-5,7H,1H3/t3-,4+,5+/m1/s1
