17
gdb 97291	2.85844	1.47355	1.09431	2.9268	68.99	-0.2379	0.0149	0.2528	1103.8714	0.137597	-455.169317	-455.161273	-455.160329	-455.202078	30.868	
N	 0.0455757624	 0.9848130113	-0.6794546359	-0.503916
C	 0.0798197633	-0.2666953343	-0.014840232	 0.152738
N	-1.2443393733	-0.7027295942	 0.3917614025	-0.370007
H	-1.9359738171	-0.2248381808	-0.1782254035	 0.228877
C	-1.2722571669	-2.1304873385	 0.1725696522	 0.18044
C	-1.5953150884	-3.109458711	 1.2877793712	-0.282208
C	-2.5448011688	-2.9230882691	 0.1378585466	-0.321294
C	-0.1341597256	-2.4610030886	-0.7437820509	 0.392362
O	 0.6258987205	-1.3458347235	-0.8678352091	-0.254261
O	 0.1134320361	-3.5049864986	-1.2816496971	-0.36362
H	 0.976764673	 1.3703546148	-0.7826894677	 0.251425
H	-0.3567525598	 0.8858436318	-1.6071872838	 0.23812
H	 0.7601114819	-0.2037284731	 0.8414626638	 0.113169
H	-1.0141234986	-4.0234355962	 1.3272609908	 0.139347
H	-1.8578057185	-2.6662472733	 2.2410273698	 0.12963
H	-3.4655059418	-2.3797837724	 0.3214830835	 0.124074
H	-2.6030781888	-3.7050755343	-0.6109993505	 0.145123
71.9243	128.2801	233.3885	237.1304	297.5177	343.219	381.4395	468.2283	547.228	594.2135	693.8732	706.5952	746.3575	765.9159	787.9478	827.8823	885.9427	912.1763	944.6448	954.7447	1020.1646	1043.8132	1064.6214	1090.5501	1150.9781	1201.5554	1220.6596	1245.8282	1320.1163	1337.5824	1377.741	1418.3498	1446.4239	1474.7507	1488.4408	1668.2524	1869.3978	3055.245	3135.8855	3143.9987	3226.2545	3244.9026	3509.5514	3512.6858	3601.6198
NC=[NH+]C1(CC1)C([O-])=O	N[C@H]1NC2(CC2)C(=O)O1	
InChI=1S/C5H8N2O2/c6-3-7-5(1-2-5)4(8)9/h3H,1-2H2,(H2,6,7)(H,8,9)	InChI=1S/C5H8N2O2/c6-4-7-5(1-2-5)3(8)9-4/h4,7H,1-2,6H2/t4-/m0/s1
