22
gdb 13821	2.91263	1.42882	1.10354	1.027	79.18	-0.2355	0.0792	0.3147	1184.305	0.1981	-350.185769	-350.175999	-350.175055	-350.220221	35.643	
C	-0.1513928055	 1.0987220595	 0.2112493884	-0.242625
O	 0.6361078383	-0.0741342016	 0.1905461784	-0.233358
C	 0.8712059391	-0.5601548992	-1.0956089068	 0.118693
C	 1.4671838279	-1.9275362251	-1.1789492858	-0.344425
C	 0.0434511973	-1.7016644001	-1.6562711378	-0.01899
C	-1.1236597463	-2.3082780859	-0.8942982619	 0.021008
C	-2.4575131433	-1.6858920606	-1.335742868	-0.39586
C	-1.1637796971	-3.8349179412	-1.0619713666	-0.378674
H	 0.3243640656	 1.9115917573	-0.3586681268	 0.106429
H	-1.1563014489	 0.9319694745	-0.1999976966	 0.114967
H	-0.2408241326	 1.4070469008	 1.2556503178	 0.126552
H	 1.2221436628	 0.2015806826	-1.7940173063	 0.078601
H	 2.2547522464	-2.1199128268	-1.8989328002	 0.108858
H	 1.5857663394	-2.442392479	-0.23062956	 0.121747
H	-0.0916649418	-1.6855622641	-2.7368914234	 0.074114
H	-0.9736837347	-2.0820667445	 0.1685970865	 0.083779
H	-2.6564565569	-1.9001588071	-2.3928733177	 0.109209
H	-3.2927062719	-2.0909097749	-0.7547236131	 0.108915
H	-2.4587482463	-0.5986134828	-1.2138764565	 0.114713
H	-0.2331050218	-4.2986123727	-0.7217624574	 0.112557
H	-1.9897081559	-4.2722290786	-0.4905873443	 0.106286
H	-1.3070702839	-4.1089744205	-2.1142142119	 0.107505
59.2352	117.7329	139.7897	173.354	210.6008	216.7688	243.1471	293.2487	337.9559	372.6122	436.0906	497.7656	608.8756	755.0792	785.7231	834.786	897.9629	928.0784	956.3881	985.1576	1002.0533	1039.003	1068.6408	1110.3742	1128.159	1138.4606	1161.3756	1182.753	1185.25	1208.2399	1232.4984	1257.0541	1308.2968	1352.9607	1391.713	1397.4503	1413.8878	1423.2096	1472.8616	1483.6571	1484.2498	1491.0304	1493.6082	1502.9989	1506.6056	1511.9403	2984.2336	3022.7463	3026.8131	3034.3525	3039.8476	3081.3744	3085.5366	3093.4653	3103.4576	3106.1486	3115.6762	3117.236	3129.6745	3216.4317
COC1CC1C(C)C	CO[C@H]1C[C@H]1C(C)C	
InChI=1S/C7H14O/c1-5(2)6-4-7(6)8-3/h5-7H,4H2,1-3H3	InChI=1S/C7H14O/c1-5(2)6-4-7(6)8-3/h5-7H,4H2,1-3H3/t6-,7-/m0/s1
