19
gdb 90011	2.96546	1.37169	1.10988	1.3473	76.54	-0.2337	0.0155	0.2491	1143.2281	0.160235	-419.188337	-419.179985	-419.179041	-419.221329	31.939	
C	-0.4793388851	 1.4374590426	 0.1611139611	-0.417069
C	-0.0859818816	-0.0283893777	 0.0354996031	 0.074039
C	 0.7277475458	-0.3853146522	-1.2392215961	-0.325797
C	 1.9669733894	-0.4559682882	-0.3146424364	 0.227033
C	 3.112314245	-1.4784469291	-0.470972432	-0.141206
O	 4.0637598164	-0.3823661058	-0.6861113562	-0.260458
C	 3.0862863341	 0.5634424208	-0.4777094555	 0.374666
N	 3.1451935782	 1.8156948835	-0.4176104568	-0.548933
N	 1.08884811	-0.4479972006	 0.8570611708	-0.369322
H	 0.3777269507	 2.0887342022	-0.0398568246	 0.155068
H	-1.2803420817	 1.6833688372	-0.5450256645	 0.114719
H	-0.8498799366	 1.6529841478	 1.1699308271	 0.113863
H	-0.9565756643	-0.6680800922	 0.2191936536	 0.072508
H	 0.4696802095	-1.3514983918	-1.677645937	 0.110205
H	 0.7608318463	 0.3767047426	-2.0187069039	 0.123304
H	 3.3542005279	-2.0369558009	 0.4363524695	 0.125966
H	 3.0734613376	-2.1395091649	-1.3403661125	 0.118397
H	 4.0962323797	 2.1611744638	-0.5557839937	 0.229478
H	 1.3594001587	 0.2091243628	 1.583134134	 0.223537
89.6998	111.094	177.3976	255.4563	261.1639	299.0704	372.062	387.7755	513.2542	544.5826	682.5281	719.9989	759.676	808.4562	840.3038	863.8673	916.6	928.7257	939.479	967.1775	979.4967	1011.6073	1071.9511	1115.9044	1142.1201	1158.0505	1187.6565	1192.9097	1229.2142	1237.7887	1270.554	1309.0671	1345.8575	1374.3944	1409.1377	1417.6178	1475.3112	1496.1812	1504.6609	1505.2472	1812.6594	3023.6056	3031.9298	3060.7002	3077.5184	3090.9495	3109.9093	3126.1684	3138.9673	3477.1509	3512.2778
CC1CC2(COC2=N)N1	C[C@H]1C[C@]2(CO[C]2[NH])N1	
InChI=1S/C6H10N2O/c1-4-2-6(8-4)3-9-5(6)7/h4,7-8H,2-3H2,1H3	InChI=1S/C6H10N2O/c1-4-2-6(8-4)3-9-5(6)7/h4,7-8H,2-3H2,1H3/t4-,6+/m0/s1
