16
gdb 33706	3.88285	1.52444	1.2699	1.9688	79.78	-0.2195	-0.0063	0.2132	985.5173	0.124969	-363.532508	-363.5256	-363.524656	-363.563463	28.423	
C	 0.0573772472	-1.1431980032	 0.0082157127	-0.363689
C	 0.0208228829	 0.0581910423	-0.0091107672	 0.157117
C	-0.0276598575	 1.4928089996	 0.0198946556	 0.165517
C	-1.2088408339	 2.1909897664	 0.6154164281	-0.153647
C	-1.2972682035	 3.4088111246	 0.0839575309	-0.084135
C	-0.0950361711	 3.6223726803	-0.7975118207	-0.07243
C	 1.1741235403	 3.744660996	 0.1139980674	-0.248977
C	 1.2971752001	 2.2427370673	-0.0531733435	-0.071407
N	 0.368467278	 2.2190162323	-1.2281102381	-0.161887
H	 0.0864996546	-2.204620883	 0.0064370832	 0.189053
H	-1.8432369816	 1.7347250918	 1.3623794521	 0.115768
H	-2.0048764382	 4.1859387854	 0.342771404	 0.110549
H	-0.1973464395	 4.3233473007	-1.6241890126	 0.088886
H	 1.9914719924	 4.2418877281	-0.4130269346	 0.120559
H	 1.0574574595	 4.1737632496	 1.1127957794	 0.105957
H	 2.2226874904	 1.6751646619	-0.0419729966	 0.102767
144.6899	157.9913	345.0605	370.9901	454.8773	496.9851	532.7892	580.8163	604.1219	659.1473	714.447	729.7089	758.0212	785.5178	852.0544	867.5029	903.2541	909.0657	937.5546	980.7177	995.0052	1027.8586	1069.0691	1105.8896	1135.5688	1202.1309	1213.4956	1241.1074	1255.4	1315.182	1338.5664	1364.3362	1481.996	1660.4195	2242.3413	3058.1522	3116.6402	3127.4432	3161.7759	3212.1211	3242.0944	3503.0987
C#CC12C=CC3CC1N23	C#C[C@@]12C=C[C@H]3C[C@@H]1N23	
InChI=1S/C8H7N/c1-2-8-4-3-6-5-7(8)9(6)8/h1,3-4,6-7H,5H2	InChI=1S/C8H7N/c1-2-8-4-3-6-5-7(8)9(6)8/h1,3-4,6-7H,5H2/t6-,7-,8+,9?/m0/s1
