14
gdb 132268	1.95764	1.8439	0.95512	1.5013	67.73	-0.2474	-0.0419	0.2055	1132.2343	0.101422	-478.056931	-478.049406	-478.048462	-478.089159	28.007	
C	 0.0361050202	 1.4978550846	 0.0177262975	-0.463378
C	-0.0195244169	-0.0004133655	 0.0097296009	 0.332179
C	-1.1820877434	-0.6936412531	-0.1476217122	-0.292416
C	-1.205161966	-2.1392603764	-0.15157882	 0.432386
O	-2.151868462	-2.8861101519	-0.2798530983	-0.376319
N	 0.1037487729	-2.6778559056	 0.0248730385	-0.418451
C	 1.1895386113	-1.8957610257	 0.1720076089	 0.414343
F	 2.3127758621	-2.5719928065	 0.3233797122	-0.052034
N	 1.2097670956	-0.6176822169	 0.1754513891	-0.402725
H	 0.6992770185	 1.8504589637	-0.7791745113	 0.149045
H	-0.9520405112	 1.9412890684	-0.1157695	 0.130111
H	 0.4637835595	 1.849886479	 0.9623536613	 0.149039
H	-2.131094409	-0.1903379437	-0.2754706781	 0.11917
H	 0.1902878585	-3.6857641504	 0.0359891513	 0.27905
135.3581	169.1815	185.9137	224.705	300.5987	360.5517	505.2228	539.1375	579.8076	583.1915	623.9879	662.4162	733.3284	773.5507	874.1684	942.001	980.866	1014.0945	1063.6432	1076.7248	1206.5288	1219.0009	1271.8736	1395.476	1423.5664	1470.6901	1475.7869	1503.158	1613.3317	1689.7692	1811.6973	3042.5176	3100.4434	3140.5673	3225.1951	3600.9529
CC1=CC(=O)NC(F)=N1	Cc1cc(=O)[nH]c(F)n1	
InChI=1S/C5H5FN2O/c1-3-2-4(9)8-5(6)7-3/h2H,1H3,(H,7,8,9)	InChI=1S/C5H5FN2O/c1-3-2-4(9)8-5(6)7-3/h2H,1H3,(H,7,8,9)
