19
gdb 68219	3.73738	1.317	1.24268	3.1183	75.08	-0.2406	0.0811	0.3218	1081.5034	0.159004	-422.989358	-422.981646	-422.980702	-423.021164	31.053	
C	 0.0190700246	 1.4964782129	 0.1304444451	-0.493622
C	 0.0070208789	 0.0041317156	-0.0339204864	 0.407957
C	 0.9256156894	-0.7757633278	-1.0150020761	-0.278255
C	 0.7023633541	-1.8302615448	 0.0887906729	-0.016536
O	 0.6422504647	-0.7444850249	 1.0641354939	-0.326275
C	-0.7765163261	-2.1677946159	-0.0729953531	 0.508514
C	-1.3249527451	-3.3934616574	-0.6515451652	-0.285113
O	-1.3721242594	-3.1463147961	 0.762061824	-0.284435
C	-1.3488669225	-0.7419406989	-0.1564678166	-0.36039
H	 1.0415093017	 1.8655650963	 0.248080993	 0.128253
H	-0.4284273712	 1.9802717276	-0.7439085203	 0.122451
H	-0.5576983562	 1.7887052426	 1.0139525572	 0.132831
H	 0.5759107256	-0.9790446613	-2.0311281661	 0.094948
H	 1.9453115768	-0.3883864567	-1.0088818895	 0.110575
H	 1.398128626	-2.6308146545	 0.3359777816	 0.085961
H	-2.2862463068	-3.3666898299	-1.1634701399	 0.114389
H	-0.6606423008	-4.2002146882	-0.9614860929	 0.1125
H	-2.0016095778	-0.5283219275	 0.6931078812	 0.123815
H	-1.8820467859	-0.5310029509	-1.0876008729	 0.102432
118.7998	192.6128	237.0341	268.0139	335.7702	377.6653	416.2973	452.1425	519.7161	588.8019	652.5407	775.5952	801.5534	823.8198	856.0544	882.1552	894.3712	930.2555	946.9667	979.8085	989.2692	1031.8649	1066.7308	1113.8736	1122.8047	1144.1083	1172.1695	1190.5201	1212.2957	1216.3705	1254.8815	1261.9436	1271.2406	1345.5866	1416.0112	1440.1366	1470.8993	1480.0014	1490.979	1493.92	1539.6976	3038.4777	3058.8905	3064.0569	3075.6847	3108.0624	3118.3255	3119.1385	3135.9172	3140.5558	3160.0877
CC12CC(O1)C1(CO1)C2	C[C@@]12C[C@@H](O1)[C@]1(CO1)C2	
InChI=1S/C7H10O2/c1-6-2-5(9-6)7(3-6)4-8-7/h5H,2-4H2,1H3	InChI=1S/C7H10O2/c1-6-2-5(9-6)7(3-6)4-8-7/h5H,2-4H2,1H3/t5-,6+,7-/m1/s1
