18
gdb 47684	2.13147	1.66549	0.99592	1.2812	75.68	-0.2322	-0.0246	0.2076	1167.1549	0.150985	-435.301296	-435.293182	-435.292238	-435.33443	30.826	
N	-0.1188789545	 1.2146597939	-0.7287235898	-0.480315
C	-0.0380236855	 0.1032484311	-0.1096660314	 0.346219
C	-1.3274701242	-0.6736523721	 0.1274673383	-0.213437
N	-1.6427418792	-1.1407841268	 1.4648070005	-0.272926
C	-0.7830042293	-2.1870599193	 1.9892827374	-0.180485
C	 0.6593963068	-1.7798329019	 2.3325107038	-0.300165
C	 1.6011875731	-1.4015095719	 1.2013694887	 0.37514
O	 2.7491296066	-1.7956469686	 1.1743084398	-0.343012
N	 1.1904478247	-0.4902973651	 0.2314018855	-0.365305
H	 0.8026166195	 1.6328446982	-0.8821889999	 0.208067
H	-2.1269772591	-0.0194577436	-0.2254335899	 0.138396
H	-1.3037464955	-1.5522864647	-0.5322467179	 0.124074
H	-1.7096375016	-0.3632580419	 2.1132372836	 0.222023
H	-1.2426752177	-2.5793843734	 2.9033549906	 0.11426
H	-0.7770157837	-3.0121415996	 1.2659944477	 0.117748
H	 0.6259489393	-0.9184151541	 3.0153881931	 0.123163
H	 1.1650094161	-2.5882562923	 2.8665647044	 0.135224
H	 1.9876268944	-0.159646878	-0.2993529643	 0.251331
72.1347	102.0909	151.441	294.7857	332.783	350.8852	427.3717	478.292	527.8556	552.739	609.2394	630.437	699.2657	737.48	814.692	880.064	903.2435	916.1814	966.2831	987.6	1036.1757	1105.1226	1148.8197	1178.0146	1201.885	1263.471	1325.6921	1328.2859	1363.4401	1377.6737	1387.8998	1402.6477	1438.4571	1458.2925	1463.1997	1486.1919	1506.3631	1708.056	1783.846	3014.3244	3020.1476	3029.514	3071.3194	3105.4424	3116.0455	3429.0971	3525.102	3565.3395
N=C1CNCCC(=O)N1	[NH][C]1CNCCC(=O)N1	
InChI=1S/C5H9N3O/c6-4-3-7-2-1-5(9)8-4/h7H,1-3H2,(H2,6,8,9)	InChI=1S/C5H9N3O/c6-4-3-7-2-1-5(9)8-4/h7H,1-3H2,(H2,6,8,9)
