17
gdb 82544	2.38631	1.66229	1.36493	1.1262	68.18	-0.2268	0.0589	0.2858	1006.0562	0.133794	-458.883498	-458.875189	-458.874245	-458.915959	32.374	
O	 0.0176763102	 1.3847654843	 0.0093393156	-0.433506
C	-0.0542837649	-0.0030418952	 0.0248109323	 0.036113
C	-0.5166158436	-0.7704130212	 1.2272003673	-0.038731
O	-1.5188644489	 0.0100087024	 1.9049943145	-0.332143
C	-2.401739332	-0.1119914569	 0.7675789081	 0.395748
C	-3.8316870069	-0.4901396114	 0.9205114657	-0.34021
C	-3.43985561	 0.901257578	 0.4316957262	-0.34243
C	-1.3442488575	-0.8020371954	-0.0591288037	 0.176941
O	-1.5997330724	-1.8247821812	-0.9466376512	-0.447551
H	-0.4375821635	 1.6819091539	 0.8090171533	 0.298777
H	 0.7678036191	-0.4662115878	-0.5165624392	 0.111548
H	 0.0284035985	-1.5080170881	 1.8037121691	 0.115331
H	-4.2390333022	-1.1990560796	 0.2076676432	 0.129329
H	-4.2179905147	-0.5741694609	 1.9301495809	 0.128346
H	-3.5744634487	 1.7226268579	 1.12757005	 0.125462
H	-3.5978754869	 1.1587602109	-0.6104428865	 0.120747
H	-1.4398503658	-1.4996470498	-1.8392578655	 0.29623
111.4709	185.8653	198.866	219.9968	271.8243	319.2438	383.2264	409.4347	433.8509	559.5111	602.3808	636.8773	686.1572	755.235	814.4268	852.2938	884.3616	922.1519	944.2771	975.1541	999.7675	1018.232	1043.7958	1051.0793	1068.6368	1101.7188	1167.5054	1185.8138	1238.1919	1247.4181	1288.0446	1318.0049	1379.0679	1413.4201	1445.4996	1479.2829	1510.6084	3129.9951	3135.8864	3147.1519	3189.2583	3213.9776	3230.4509	3757.467	3801.7631
OC1C2OC3(CC3)C12O	O[C@H]1[C@H]2OC3(CC3)[C@@]12O	
InChI=1S/C6H8O3/c7-3-4-6(3,8)5(9-4)1-2-5/h3-4,7-8H,1-2H2	InChI=1S/C6H8O3/c7-3-4-6(3,8)5(9-4)1-2-5/h3-4,7-8H,1-2H2/t3-,4+,6+/m0/s1
