16
gdb 101528	2.88115	0.96418	0.80564	3.1503	67.63	-0.2911	-0.0728	0.2183	1398.9799	0.121866	-475.052655	-475.042951	-475.042007	-475.088206	33.435	
C	-0.0989088328	 1.5424519388	-0.0018199231	-0.401648
C	-0.0404113114	 0.023756284	-0.0645773575	 0.097686
C	 0.7910159683	-0.5202028727	-1.2241997215	-0.076979
O	 2.1132664409	-0.0257165128	-1.2292809219	-0.411604
O	 0.6327142918	-0.4891313582	 1.1378135154	-0.257897
C	-0.1103766547	-0.6515069527	 2.228632175	 0.369198
O	-1.2835576172	-0.4292352197	 2.3546465134	-0.332098
C	 0.7212579132	-1.1715446682	 3.3238540739	 0.249738
N	 1.3334694431	-1.5790858106	 4.2141229902	-0.30274
H	 0.9100506606	 1.9594939594	 0.0083610837	 0.145177
H	-0.6191538443	 1.9212530593	-0.8868366318	 0.132155
H	-0.6470537228	 1.8735287784	 0.8824952094	 0.143187
H	-1.0451873023	-0.4071784604	-0.0853715787	 0.120211
H	 0.766562099	-1.6195984249	-1.1987866378	 0.105325
H	 0.3299286698	-0.1975608845	-2.1633746244	 0.123791
H	 2.5434220987	-0.347002305	-0.4291216844	 0.296497
52.3242	84.988	87.858	151.5239	224.1558	227.3211	269.8686	311.0945	330.876	397.0345	435.5164	530.1573	589.3527	654.6336	775.1584	824.1163	880.6202	922.9907	947.1325	1011.2185	1067.6831	1141.2673	1151.6975	1238.4421	1265.6262	1344.8626	1371.4255	1391.7043	1417.2356	1424.7162	1486.6552	1493.7998	1497.72	1815.6451	2360.7	3000.8704	3055.4742	3083.716	3087.1221	3127.8606	3150.1035	3810.8642
CC(CO)OC(=O)C#N	C[C@@H](CO)OC(=O)C#N	
InChI=1S/C5H7NO3/c1-4(3-7)9-5(8)2-6/h4,7H,3H2,1H3	InChI=1S/C5H7NO3/c1-4(3-7)9-5(8)2-6/h4,7H,3H2,1H3/t4-/m0/s1
