19
gdb 111701	2.12158	1.44453	1.04702	3.867	81.66	-0.2349	0.0058	0.2407	1219.2774	0.160058	-382.040923	-382.032134	-382.031189	-382.074765	32.763	
C	-0.2440716265	 1.4359560778	-0.1325637302	-0.377794
C	 0.182260889	-0.0183219491	 0.0974770262	-0.209557
C	 0.8134445857	-0.6277585112	-1.1365481261	-0.040848
C	 0.9966874042	-2.0991486254	-1.4094927561	-0.177874
C	-0.2135772445	-2.9247962368	-0.959918184	-0.182527
N	-1.1580032617	-1.9786496825	-1.646611537	-0.368694
C	 0.0024759688	-1.2696929131	-2.2419800142	 0.238684
C	 0.0384783822	-0.8758169079	-3.6097576616	 0.183844
N	 0.0515200718	-0.5664209896	-4.7259820184	-0.350282
H	 0.6073407169	 2.0601624226	-0.4253199664	 0.115509
H	-0.9943449621	 1.5014215402	-0.9267173249	 0.131151
H	-0.676835308	 1.8661118681	 0.7753815632	 0.115485
H	 0.904780907	-0.0717086226	 0.9215154621	 0.100423
H	-0.687842802	-0.6106004271	 0.3922732825	 0.125593
H	 1.6452678513	-0.0534473576	-1.5414974338	 0.108306
H	 1.9513364132	-2.511172266	-1.7097817083	 0.116111
H	-0.2112055602	-3.9207560484	-1.411543874	 0.118763
H	-0.3884505236	-3.0180818696	 0.1166419415	 0.115399
H	-1.6956900714	-2.4563890618	-2.3618978405	 0.238308
65.207	100.6064	164.0148	195.5018	212.5192	277.8437	319.2091	448.9029	488.4951	521.5835	556.9925	635.7517	747.7922	755.422	823.5432	828.4945	882.2463	931.5736	956.383	996.9586	1007.9123	1023.2834	1064.9398	1098.432	1127.3035	1157.3556	1161.5736	1208.4996	1240.244	1290.9427	1314.3663	1324.5186	1347.1929	1379.7648	1412.1704	1470.5323	1477.2023	1499.7036	1503.957	1512.7753	2337.8091	3032.3149	3035.1135	3046.1251	3089.9584	3094.8312	3109.244	3112.8323	3132.8292	3197.6081	3536.8032
CCC1C2CNC12C#N	CC[C@H]1[C@H]2CN[C@@]12C#N	
InChI=1S/C7H10N2/c1-2-5-6-3-9-7(5,6)4-8/h5-6,9H,2-3H2,1H3	InChI=1S/C7H10N2/c1-2-5-6-3-9-7(5,6)4-8/h5-6,9H,2-3H2,1H3/t5-,6+,7-/m0/s1
