15
gdb 18329	3.43489	2.25054	1.61387	3.3484	59.97	-0.2205	-0.0362	0.1843	788.6011	0.120705	-399.782407	-399.775859	-399.774915	-399.813435	24.612	
O	-0.0518463148	 0.0739994012	 0.1339711405	-0.298936
C	-0.029989447	 1.2694365758	 0.0120428169	 0.399267
C	-1.2346658415	 2.2252481182	 0.0458369805	-0.295832
N	-0.8359389914	 3.4343505998	-0.6941695055	-0.299674
C	 0.6281800115	 3.5238450401	-0.6350225485	-0.063879
C	 1.1952227286	 4.0140722242	 0.714122538	-0.07042
O	 1.6569332664	 2.6822274299	 1.0541957914	-0.291684
C	 1.2075077226	 2.1497251057	-0.2164695092	 0.004027
H	-2.125112842	 1.7572299492	-0.3775502925	 0.135732
H	-1.4594708505	 2.4669171878	 1.0938279642	 0.143856
H	-1.1217321485	 3.3405432274	-1.6620754381	 0.229252
H	 1.0226273501	 4.0129832468	-1.5247387136	 0.09083
H	 2.0310102936	 4.7203316435	 0.6500476485	 0.109576
H	 0.4468323227	 4.3934567853	 1.4185300711	 0.114965
H	 2.0020426202	 1.656866375	-0.7819003036	 0.09292
88.1226	148.8706	225.3909	386.037	437.8871	520.007	617.6023	667.9023	768.8361	786.425	810.7801	859.9147	896.5633	975.2711	988.9777	1007.0464	1018.4947	1066.6793	1122.4697	1154.8693	1166.5966	1211.2454	1228.0847	1238.2462	1281.0741	1298.3772	1338.8398	1373.2926	1463.6605	1471.7146	1516.3593	1855.5957	3019.7956	3027.1375	3079.1932	3086.5782	3119.3015	3122.8945	3537.1119
O=C1CNC2COC12	O=C1CN[C@H]2CO[C@@H]12	
InChI=1S/C5H7NO2/c7-4-1-6-3-2-8-5(3)4/h3,5-6H,1-2H2	InChI=1S/C5H7NO2/c7-4-1-6-3-2-8-5(3)4/h3,5-6H,1-2H2/t3-,5+/m0/s1
