17
gdb 98003	6.86501	0.42354	0.41138	3.6045	76.53	-0.258	-0.0297	0.2282	2519.8487	0.131026	-458.907669	-458.896795	-458.895851	-458.946463	34.939	
O	 0.1440069646	 0.9064522455	 0.9478486867	-0.407726
C	-0.0716852669	 0.1627770615	-0.244100542	-0.217457
C	-1.4064580924	-0.4196559265	-0.227517181	 0.189037
C	-2.5021468414	-0.915612154	-0.2331085117	-0.009258
C	-3.8406418061	-1.4831884164	-0.2431402904	-0.209627
O	-3.8020371457	-2.8412966862	 0.1651498686	-0.24539
C	-5.0723469411	-3.4403579327	 0.1810560126	-0.133457
C	-4.9083471398	-4.878791776	 0.6422149252	 0.139732
O	-5.8222625832	-5.6532608439	 0.7372362574	-0.237393
H	 1.0365400409	 1.2647625842	 0.9051443181	 0.291558
H	 0.0281840391	 0.8003107052	-1.1378766898	 0.11955
H	 0.6653478886	-0.6498858534	-0.3501071798	 0.123319
H	-4.4957116306	-0.9027764032	 0.4286166545	 0.126346
H	-4.2761839255	-1.4035846607	-1.2538898329	 0.121733
H	-5.766261272	-2.9257733121	 0.8681001994	 0.123846
H	-5.5472595738	-3.4386420609	-0.8150876937	 0.122819
H	-3.8583954546	-5.1506775505	 0.8865696986	 0.102368
29.7649	49.2453	66.807	83.108	92.8154	145.0985	181.4036	231.5452	288.2699	340.2993	370.3083	464.9759	534.2297	604.8619	743.0398	797.244	999.6523	1019.7775	1026.9264	1052.5214	1076.224	1116.0655	1145.9663	1170.229	1233.1606	1246.7082	1257.4508	1262.2728	1341.0878	1397.0285	1427.9905	1460.1228	1478.6366	1499.2117	1503.7125	1845.4892	2378.1075	2906.5033	2953.2219	2961.1528	2965.1322	2974.8893	2984.3858	2987.905	3819.0415
OCC#CCOCC=O	OCC#CCOCC=O	
InChI=1S/C6H8O3/c7-3-1-2-5-9-6-4-8/h4,7H,3,5-6H2	InChI=1S/C6H8O3/c7-3-1-2-5-9-6-4-8/h4,7H,3,5-6H2
