17
gdb 32827	3.17511	1.31394	0.96324	4.299	70.66	-0.1911	0.0328	0.224	1183.4578	0.138286	-455.179407	-455.171558	-455.170614	-455.212224	29.782	
N	-1.2516071348	 1.4750584686	 0.1553012615	-0.512351
H	-1.5179073912	 0.57713859	-0.2381292614	 0.249844
H	-0.7784712103	 1.9876365434	-0.5848065593	 0.247493
H	-2.5865181707	 2.3896331103	 0.7425525029	 0.319549
C	-0.3327678243	 1.2846775623	 1.3014274628	-0.17218
C	 0.0320202456	 2.6236586201	 1.951071877	-0.312252
C	-1.1025307774	 3.3454823645	 2.6158666139	 0.084938
C	-2.4212370481	 3.4490753732	 2.2701878531	 0.335553
O	-3.1829866979	 2.9751058175	 1.29806452	-0.424019
O	-3.0500587178	 4.2395326348	 3.1788555341	-0.162305
C	-2.0643735147	 4.5921329891	 4.0551999359	 0.0475
N	-0.907950609	 4.0992765103	 3.7778227583	-0.301896
H	-0.8464483091	 0.6486040003	 2.0295774099	 0.126497
H	 0.5880187285	 0.7660415417	 0.9996408107	 0.101042
H	 0.7975179483	 2.4406916692	 2.7119556155	 0.129485
H	 0.5175420646	 3.2579887365	 1.1917362941	 0.102743
H	-2.3548914715	 5.2297762281	 4.8739911309	 0.140358
51.4372	173.3097	251.7882	257.1666	293.4639	341.5799	368.2907	476.0246	496.1025	652.1398	670.9589	722.2083	744.6353	770.0333	859.5718	905.6781	932.9695	950.1275	1004.9617	1041.1958	1072.0349	1106.4531	1126.9775	1147.8009	1210.8206	1295.8667	1307.2032	1318.6232	1360.8197	1416.1485	1423.3516	1479.4677	1507.9114	1551.1694	1576.5399	1646.4199	1675.264	2974.0338	3002.1012	3044.6709	3077.1759	3082.2025	3281.6219	3486.6923	3565.3975
[NH3+]CCC1=C([O-])OC=N1	NCCc1c(O)ocn1	
InChI=1S/C5H8N2O2/c6-2-1-4-5(8)9-3-7-4/h3,8H,1-2,6H2	InChI=1S/C5H8N2O2/c6-2-1-4-5(8)9-3-7-4/h3,8H,1-2,6H2
