19
gdb 96862	3.02037	1.31594	1.02486	3.3774	79.23	-0.2233	0.0188	0.2422	1210.5083	0.159166	-419.201941	-419.193112	-419.192168	-419.235368	32.971	
C	-0.1962880399	 1.3843723749	 0.1053318928	-0.336637
N	-0.1927357596	-0.0679684495	 0.1285431341	-0.33275
C	 0.6369358623	-0.633691264	 0.9099410369	 0.439299
N	 1.5723304856	-0.0769813774	 1.7678536719	-0.370863
C	 2.4115517209	-1.0423501283	 2.4825284973	 0.019568
C	 2.3528100792	-0.875133012	 4.0013555067	-0.404347
C	 1.8579089311	-2.3776917346	 1.9926620662	 0.033451
O	 0.4977405597	-2.5844060989	 2.3643248817	-0.25044
C	 0.7832255742	-2.117728599	 1.0278495154	-0.068566
H	 0.8175502598	 1.8122967271	 0.0400246722	 0.101897
H	-0.7686764992	 1.7349601367	-0.7574758893	 0.12276
H	-0.6737376611	 1.8063768058	 1.0037256235	 0.110412
H	 1.4398072159	 0.8487708503	 2.1401110434	 0.246137
H	 3.4550669618	-0.9541574923	 2.1452307695	 0.085845
H	 1.3357282239	-1.056011713	 4.357141662	 0.145325
H	 3.029600724	-1.5817573331	 4.4918121914	 0.123353
H	 2.6588922328	 0.134370153	 4.2950565545	 0.115217
H	 2.4931389553	-3.2582523902	 1.9696455339	 0.1044
H	 0.4878971035	-2.7690957854	 0.214029716	 0.115942
91.6868	133.8928	155.7709	195.0685	241.1793	261.0669	318.2935	372.246	428.8997	466.6961	522.7052	662.1235	699.0735	746.6376	836.8443	859.9002	897.6836	910.6159	967.1616	1020.4859	1036.3937	1050.4703	1096.4668	1108.764	1120.806	1160.8215	1181.5655	1243.867	1269.2712	1303.562	1349.2265	1375.5114	1401.5894	1418.5936	1427.3716	1436.5403	1491.9255	1496.3772	1500.8155	1502.6326	1762.9727	2962.2371	2989.1368	3008.7689	3039.1259	3095.6769	3104.5055	3133.174	3160.5398	3199.7665	3649.4188
CN=C1NC(C)C2OC12	CN=C1N[C@@H](C)[C@H]2O[C@@H]12	
InChI=1S/C6H10N2O/c1-3-4-5(9-4)6(7-2)8-3/h3-5H,1-2H3,(H,7,8)	InChI=1S/C6H10N2O/c1-3-4-5(9-4)6(7-2)8-3/h3-5H,1-2H3,(H,7,8)/t3-,4+,5+/m0/s1
