21
gdb 92102	2.62567	1.65142	1.37959	1.222	81.71	-0.2419	0.0773	0.3191	1047.0922	0.18408	-387.076263	-387.068288	-387.067344	-387.108163	32.592	
C	-0.0393319556	 1.5069302087	 0.0389424153	-0.506691
C	 0.0221860563	 0.0078909947	-0.0212278004	 0.369199
C	 0.8251778988	-0.7947683349	-1.0495430462	-0.281801
C	-0.1625655415	-1.9885166312	-0.8372905927	-0.044755
C	 0.3732518597	-2.9649258884	 0.21573817	-0.235262
C	 0.5737043712	-2.0809412545	 1.4806900921	 0.089933
O	 1.9255737408	-1.6719791829	 1.6918549064	-0.433332
C	-0.2800092185	-0.8537747133	 1.1998853228	-0.08384
C	-1.0979619564	-1.0219313394	-0.0540848901	-0.138378
H	 0.9115307655	 1.9271007476	 0.3878459825	 0.124427
H	-0.2492793154	 1.9336497721	-0.9490818567	 0.111964
H	-0.8230281548	 1.8488618628	 0.723569765	 0.113018
H	 0.716323314	-0.3600396517	-2.0481597102	 0.087277
H	 1.8832445086	-0.9756658409	-0.839529742	 0.098245
H	-0.5479656653	-2.4574941931	-1.7427159903	 0.061548
H	-0.3659368811	-3.7487997818	 0.4194310392	 0.091203
H	 1.3080864412	-3.4519816353	-0.0834931252	 0.086147
H	 0.2059389272	-2.60062569	 2.3775804714	 0.058562
H	 2.4366310346	-2.455184931	 1.9193512755	 0.278279
H	-0.7103823633	-0.3161286883	 2.037739087	 0.077004
H	-2.1721779359	-0.907827359	-0.1282203735	 0.077252
146.1901	172.2061	208.0818	283.9498	309.1761	341.6448	396.6777	430.2071	509.9086	565.9578	677.0024	700.5292	790.4365	821.6731	835.5203	867.4051	878.8684	916.3754	941.5818	952.1265	999.866	1004.6241	1023.5539	1044.5316	1070.4516	1072.8825	1109.7368	1155.9388	1182.3892	1201.8258	1219.0315	1236.3793	1253.7579	1263.8149	1278.605	1319.7253	1340.7126	1350.1189	1411.1382	1421.1973	1440.6949	1475.619	1485.7969	1493.9462	1501.3219	2982.6362	3018.2365	3030.0062	3043.0909	3075.5822	3078.2028	3090.3398	3096.254	3108.4926	3171.0626	3189.8404	3814.9146
CC12CC3CC(O)C1C23	C[C@@]12C[C@H]3C[C@@H](O)[C@@H]1[C@@H]23	
InChI=1S/C8H12O/c1-8-3-4-2-5(9)7(8)6(4)8/h4-7,9H,2-3H2,1H3	InChI=1S/C8H12O/c1-8-3-4-2-5(9)7(8)6(4)8/h4-7,9H,2-3H2,1H3/t4-,5-,6+,7-,8+/m1/s1
