21
gdb 87431	4.12075	1.21598	1.10853	0.1025	88.15	-0.249	0.0971	0.3461	1188.8626	0.182855	-349.86211	-349.854343	-349.853399	-349.894113	31.611	
C	-0.0585827822	 1.551280655	-0.0880979733	-0.402605
C	 0.0048357199	 0.0400059833	-0.0299836531	-0.092759
C	 1.3344594697	-0.6777953094	-0.253444271	-0.38808
C	 0.6858504726	-0.6687345423	 1.0943634697	 0.430539
C	 1.1794037272	-0.2062624347	 2.463643708	-0.147985
C	-0.0894372757	-0.7921595532	 3.1847408412	-0.026208
C	 0.7605189239	-1.5741736629	 4.2050775005	-0.27741
C	 1.5529645392	-1.6745197352	 2.8869885365	-0.025208
C	 0.2458291632	-1.7970530494	 2.0217041783	-0.15146
H	 0.8375999734	 1.999320007	 0.3541270283	 0.111952
H	-0.1308903149	 1.9080787011	-1.121796778	 0.114171
H	-0.9253305668	 1.9385069765	 0.4596173941	 0.114041
H	-0.8646382516	-0.4630345658	-0.4494866667	 0.077933
H	 1.3330642296	-1.5963104402	-0.832663182	 0.105158
H	 2.2142649063	-0.0586296493	-0.4069653092	 0.104856
H	 1.7191711187	 0.6994627603	 2.7446234129	 0.067692
H	-1.0390878462	-0.2737066476	 3.3251256191	 0.068786
H	 1.2184784522	-0.9943549939	 5.0131745258	 0.090104
H	 0.3325242841	-2.5034465836	 4.5952025341	 0.090151
H	 2.5013659083	-2.1734674636	 2.6829255986	 0.069594
H	-0.2914346309	-2.7183992722	 1.7899228662	 0.066738
121.6027	152.3843	189.0703	227.1054	322.0223	406.0508	450.0272	508.3776	586.2648	731.162	801.3551	814.6022	833.1884	840.4942	862.7909	877.7841	894.2826	911.5996	958.6007	961.195	999.9597	1007.4852	1029.9905	1034.9179	1065.0875	1073.3953	1124.0444	1128.5513	1136.3914	1151.1621	1159.208	1170.2713	1171.624	1182.018	1217.4545	1233.6171	1240.0095	1308.3927	1352.6382	1412.5263	1440.6416	1491.9944	1496.1832	1511.4232	1517.5812	3023.3714	3034.8279	3083.9546	3090.3962	3090.822	3093.2504	3097.7534	3100.4417	3111.9212	3113.578	3121.6487	3195.4412
CC1CC11C2C3CC2C13	C[C@H]1C[C@]21[C@H]1[C@@H]3C[C@H]1[C@H]23	
InChI=1S/C9H12/c1-4-3-9(4)7-5-2-6(7)8(5)9/h4-8H,2-3H2,1H3	InChI=1S/C9H12/c1-4-3-9(4)7-5-2-6(7)8(5)9/h4-8H,2-3H2,1H3/t4-,5-,6+,7-,8+,9-/m0/s1
