19
gdb 71031	3.86315	1.64102	1.36275	1.195	79.26	-0.2127	0.0644	0.2772	982.9299	0.161109	-381.94463	-381.937643	-381.936699	-381.975483	29.188	
C	-0.0357710243	 1.4700819021	-0.1042806264	-0.529937
C	 0.0250092069	-0.0235214421	-0.0021616837	 0.307619
N	 0.7190334557	-0.8915154519	-1.0743703967	-0.457912
C	 0.1984378518	-1.8673400188	-0.0551004569	 0.346614
C	 0.067816141	-3.2779578202	 0.4623615148	-0.377302
C	-0.6502112831	-2.8199465299	 1.8137677416	-0.152445
N	-0.7529306886	-1.3100432634	 1.761753658	-0.176055
C	 0.5635798536	-0.9392722447	 1.1216268483	-0.056229
C	-1.0795528143	-1.0746781876	 0.3051429519	-0.091969
H	 0.9693323702	 1.8916405767	-0.2015849537	 0.134766
H	-0.6220706095	 1.785307806	-0.9743343092	 0.121144
H	-0.505294249	 1.8872727377	 0.7920015038	 0.137703
H	 0.1391188943	-0.922951456	-1.9190060814	 0.203773
H	-0.5663722747	-3.9269997146	-0.1469956787	 0.105207
H	 1.0204654172	-3.7813397907	 0.6447279808	 0.112315
H	-1.6533210157	-3.2442144708	 1.9061791686	 0.109015
H	-0.0730638124	-3.1077791643	 2.6961445623	 0.111138
H	 1.5096207553	-0.8880775499	 1.6618468098	 0.081192
H	-2.0844084045	-1.1780024977	-0.1120446731	 0.071361
210.7635	222.3626	228.3488	267.7376	412.8701	468.0032	492.4956	575.3433	697.4627	735.6098	774.7779	786.6967	825.1871	833.9505	847.9649	865.3355	890.4056	920.6985	960.622	1012.1778	1036.0777	1079.6652	1087.5115	1095.6094	1101.5895	1131.1506	1159.4311	1192.8792	1217.9056	1228.8443	1240.0197	1245.2759	1273.3619	1294.3486	1328.8364	1393.8975	1426.4064	1482.5285	1488.6087	1491.1403	1510.7778	3034.155	3059.3109	3067.7421	3084.6236	3100.9433	3103.3869	3112.6667	3114.8486	3121.9265	3384.4993
CC12NC34CCN(C13)C24	C[C@@]12N[C@@]34CCN([C@H]13)[C@@H]24	
InChI=1S/C7H10N2/c1-6-4-7(8-6)2-3-9(4)5(6)7/h4-5,8H,2-3H2,1H3	InChI=1S/C7H10N2/c1-6-4-7(8-6)2-3-9(4)5(6)7/h4-5,8H,2-3H2,1H3/t4-,5+,6-,7+
