22
gdb 9966	2.38275	1.73041	1.54273	1.022	78.73	-0.2331	0.0794	0.3125	1036.8086	0.197597	-350.19082	-350.180765	-350.179821	-350.224801	36.751	
C	 2.7561619877	 0.1724297581	 0.8856333788	-0.247018
O	 1.6247525929	-0.5716113309	 0.4750451081	-0.278753
C	 1.5858766982	-0.8906797105	-0.8918257867	 0.414742
C	 1.5010667577	 0.2989168864	-1.8248348207	-0.459799
C	 2.3071446445	-2.1540316787	-1.3369300915	-0.078671
C	 3.1725239524	-2.9677229659	-0.3982293738	-0.414523
C	 0.7874736656	-2.1312621917	-1.2036428778	-0.084995
C	 0.0549376818	-2.9001866967	-0.1243091601	-0.405476
H	 3.6958165732	-0.303259802	 0.574005994	 0.109104
H	 2.7404337785	 1.1999579031	 0.4971148108	 0.109946
H	 2.7252627852	 0.2157027448	 1.9773703245	 0.123749
H	 2.4111448721	 0.9084030515	-1.8040099875	 0.114369
H	 1.3574882547	-0.0372240021	-2.8553833638	 0.117018
H	 0.6549844072	 0.9399341331	-1.5532461249	 0.120958
H	 2.6747655579	-2.1324707275	-2.3607962642	 0.073281
H	 2.8731665996	-2.8351711627	 0.6433029461	 0.129613
H	 3.109934077	-4.0366400576	-0.6319510267	 0.113488
H	 4.2253581194	-2.6766639316	-0.4827781698	 0.110975
H	 0.2501399503	-2.0915774848	-2.1486867384	 0.075983
H	 0.5348930614	-2.7872775023	 0.848395549	 0.132095
H	-0.9726366046	-2.534206721	-0.0248352645	 0.11451
H	 0.0043556174	-3.9677328811	-0.365698601	 0.109403
119.831	146.7106	154.1032	175.7337	191.5859	209.3204	217.8299	257.3297	282.457	312.0778	392.5519	500.3236	513.2437	600.7555	683.5069	783.2984	791.6767	921.5842	952.4696	992.7012	1029.4494	1042.0347	1098.7863	1113.5886	1130.4733	1150.1071	1155.7227	1179.9278	1181.0419	1215.3759	1256.0226	1300.2098	1367.5143	1410.42	1412.3648	1421.4154	1453.2044	1473.9241	1481.4088	1488.2202	1491.8749	1494.5193	1505.8475	1507.7575	1512.0767	1517.3111	2997.2013	3029.3123	3030.5545	3036.1932	3050.4987	3081.9521	3088.38	3091.0998	3111.1674	3112.0061	3113.0026	3124.9865	3131.6529	3147.2404
COC1(C)C(C)C1C	CO[C@@]1(C)[C@@H](C)[C@H]1C	
InChI=1S/C7H14O/c1-5-6(2)7(5,3)8-4/h5-6H,1-4H3	InChI=1S/C7H14O/c1-5-6(2)7(5,3)8-4/h5-6H,1-4H3/t5-,6+,7-
