20
gdb 104422	3.0097	1.25366	1.1131	2.8687	75.82	-0.2497	0.0179	0.2676	1166.4171	0.17215	-440.302429	-440.29377	-440.292825	-440.335459	33.396	
C	-0.0822211649	 1.5797598214	 0.0124108451	-0.405459
C	-0.0283884611	 0.0445630261	-0.0477591731	 0.243597
C	-1.466932113	-0.5225676659	-0.0247723573	-0.069164
O	-2.1353686338	-0.1926699664	 1.169979484	-0.42615
C	 0.7297489866	-0.4654937621	-1.2853010453	-0.269056
C	 2.2312318133	-0.3148874535	-1.0759993604	-0.082527
O	 2.6531141068	-0.9445999376	 0.1450779369	-0.223369
C	 1.7741928471	-0.8978128886	 1.1686483066	 0.125006
N	 0.5888845711	-0.4571334241	 1.1924099346	-0.305574
H	 0.9175883756	 2.0179289033	 0.0793466948	 0.108705
H	-0.5764467883	 1.9769272602	-0.8808443567	 0.110735
H	-0.6534992951	 1.8926902183	 0.8881948394	 0.139751
H	-2.0501071644	-0.1046108019	-0.8534297056	 0.098271
H	-1.4131316923	-1.614990709	-0.1665913474	 0.078495
H	-1.4991946079	-0.399961331	 1.8700701742	 0.289184
H	 0.4992326078	-1.5256147541	-1.4456612042	 0.110148
H	 0.4298394222	 0.0757892869	-2.1887864563	 0.107542
H	 2.8077869859	-0.7947428781	-1.8700491019	 0.122178
H	 2.52275383	 0.7412900284	-1.0324223975	 0.119283
H	 2.2276210945	-1.3249044023	 2.0618309103	 0.128405
96.8087	138.6976	195.5094	224.5447	268.3088	325.9226	341.2667	368.4222	415.9822	516.1814	537.8079	575.4509	613.6916	730.3169	794.0148	865.2639	893.0205	924.3488	948.2932	971.7175	1014.0255	1031.7915	1037.5586	1088.271	1140.3981	1183.8044	1202.2706	1211.7877	1247.5952	1277.8198	1300.2754	1368.1561	1381.1969	1400.3076	1407.5743	1419.3161	1445.7472	1476.1816	1486.5081	1497.3697	1507.3058	1514.3352	1727.0493	2961.8168	3031.355	3038.2028	3040.5591	3061.8082	3083.659	3104.5574	3108.8539	3138.4445	3153.4977	3730.3515
CC1(CO)CCOC=N1	C[C@@]1(CO)CCOC=N1	
InChI=1S/C6H11NO2/c1-6(4-8)2-3-9-5-7-6/h5,8H,2-4H2,1H3	InChI=1S/C6H11NO2/c1-6(4-8)2-3-9-5-7-6/h5,8H,2-4H2,1H3/t6-/m0/s1
