18
gdb 120717	2.19721	1.3046	1.00432	2.0433	67.89	-0.2539	0.0101	0.2639	1226.5983	0.145804	-476.217762	-476.208009	-476.207064	-476.253131	34.422	
C	 0.3556586564	 0.9816259547	-0.9203676633	-0.24875
O	-0.632233658	-0.0121232602	-0.7024135681	-0.229865
C	-0.4581567418	-1.1740482223	-1.4809086976	-0.12263
C	 0.566955702	-2.1065271387	-0.8618303568	 0.055699
O	 0.9552334888	-3.2602739188	-1.6183140529	-0.265376
C	 1.9551758225	-2.2760010585	-1.3352604605	-0.039684
C	 2.5285806402	-1.4879702691	-2.4900415012	 0.361037
N	 2.0578689051	-1.8579922208	-3.7084204518	-0.514857
O	 3.3389503538	-0.601662186	-2.2952695396	-0.365869
H	 1.3716690328	 0.6240520906	-0.7108169026	 0.135351
H	 0.329476519	 1.3468571978	-1.9579244834	 0.110065
H	 0.1214238621	 1.8098039219	-0.2478134345	 0.12792
H	-1.4263567672	-1.6878893814	-1.4928434247	 0.116576
H	-0.1877918105	-0.9366860916	-2.5193955607	 0.100772
H	 0.3854737935	-2.3090192944	 0.1946105651	 0.112815
H	 2.7103493301	-2.5666182957	-0.6067990332	 0.125073
H	 1.4509010244	-2.6570222638	-3.7871067421	 0.27515
H	 2.4336805169	-1.4187163938	-4.5323178123	 0.266572
66.8736	70.3356	91.0186	161.9468	179.9899	228.6576	288.9368	331.6332	377.5143	406.4003	482.1799	485.758	553.2612	645.1184	740.3019	825.8284	857.5491	914.188	948.922	1023.7614	1043.5781	1088.8777	1119.6677	1143.0306	1165.2459	1182.0477	1225.6012	1262.8608	1301.7709	1337.0057	1382.9907	1400.6903	1465.5533	1480.2803	1493.0053	1499.0749	1507.8243	1595.733	1798.0273	2992.0636	3010.9439	3057.3375	3067.2166	3109.3132	3123.0621	3136.4667	3595.398	3735.6379
COCC1OC1C(N)=O	COC[C@H]1O[C@H]1C(=O)N	
InChI=1S/C5H9NO3/c1-8-2-3-4(9-3)5(6)7/h3-4H,2H2,1H3,(H2,6,7)	InChI=1S/C5H9NO3/c1-8-2-3-4(9-3)5(6)7/h3-4H,2H2,1H3,(H2,6,7)/t3-,4-/m1/s1
