19
gdb 104044	2.85381	1.34626	1.21663	0.872	69.96	-0.2545	0.0634	0.3179	1091.684	0.159239	-460.151872	-460.143492	-460.142547	-460.184447	32.957	
O	 0.0066970859	 1.1792577328	-0.3998271965	-0.440736
C	-0.1649657484	-0.2372838154	-0.3329641089	-0.139889
C	-1.5892185523	-0.4744997212	 0.1763662697	 0.431611
O	-1.7417612168	 0.2066175524	 1.4134471327	-0.494292
C	-2.6504893469	-0.0220744553	-0.8784206374	-0.311882
C	-3.0761557105	-1.2889824395	-1.5838495085	 0.04902
O	-1.9782676844	-2.0900157416	-2.0570427993	-0.261862
C	-2.6121005217	-2.4528227514	-0.8188770466	 0.048712
C	-1.8627494016	-1.9833346708	 0.4073294579	-0.312216
H	 0.9283614632	 1.3690985656	-0.5936755122	 0.29504
H	-0.0331415762	-0.7113373169	-1.3122709051	 0.118612
H	 0.5446739351	-0.6795892072	 0.3813896616	 0.090313
H	-1.290619415	 1.0538534214	 1.3015369113	 0.284595
H	-3.5067047495	 0.4064819453	-0.3469777041	 0.110103
H	-2.2557429352	 0.7410584011	-1.554463698	 0.118651
H	-3.9639497409	-1.3102498406	-2.2109562945	 0.093429
H	-3.124162723	-3.411491632	-0.8252049298	 0.094105
H	-0.9437239222	-2.5507612366	 0.5873837265	 0.105184
H	-2.4954496796	-2.0869350301	 1.2952350211	 0.121504
115.7948	152.2664	209.7995	236.3634	310.24	357.744	363.5385	384.1745	434.2909	475.1011	514.001	657.6856	694.8919	783.1435	820.531	860.186	885.0202	933.8127	949.0869	968.5779	987.0164	1032.1346	1053.2626	1090.8988	1105.2732	1135.2141	1158.2705	1184.7492	1215.7345	1259.4697	1269.8493	1285.5475	1299.1499	1326.4677	1343.7386	1407.8445	1439.6005	1447.3205	1474.2233	1487.7196	1516.6523	2994.675	3047.9386	3055.7926	3068.09	3092.3727	3106.0055	3141.4509	3154.5383	3764.4278	3845.9945
OCC1(O)CC2OC2C1	OC[C@@]1(O)C[C@H]2O[C@H]2C1	
InChI=1S/C6H10O3/c7-3-6(8)1-4-5(2-6)9-4/h4-5,7-8H,1-3H2	InChI=1S/C6H10O3/c7-3-6(8)1-4-5(2-6)9-4/h4-5,7-8H,1-3H2/t4-,5+,6-
