16
gdb 46695	2.87569	1.86157	1.45311	2.9928	66.98	-0.2081	-0.0279	0.1801	903.9006	0.126495	-437.839933	-437.833185	-437.832241	-437.871146	26.83	
O	 0.0788597821	-0.0303898357	 0.0179633039	-0.316499
C	-0.0118655081	 1.1739435153	 0.0225522564	 0.406829
C	-1.3344673482	 1.9414947672	 0.0401909015	-0.269838
N	-1.4014209271	 3.0449871139	-0.9438307571	-0.322114
C	-0.1499446535	 3.6896331677	-1.2701113869	-0.008691
C	 0.8900015015	 4.115881827	-0.2807730221	 0.083797
O	 0.9564473329	 3.2512250662	 0.855114198	-0.294168
C	 1.1917545656	 2.1029177985	-0.0074819741	-0.018471
C	 1.2026003164	 2.9973186952	-1.2665781297	-0.190924
H	-2.1506554382	 1.2415544876	-0.1472287945	 0.12363
H	-1.4624351456	 2.3511475256	 1.0492215176	 0.145813
H	-1.7818826582	 2.6714309646	-1.8072319421	 0.229067
H	-0.2653669785	 4.4030189101	-2.0825059617	 0.108568
H	 1.2685006519	 5.1247582987	-0.1585459029	 0.111577
H	 2.1230067701	 1.5894976902	 0.2395719818	 0.104069
H	 1.8914537568	 2.9210981779	-2.0972734182	 0.107353
104.9123	157.8226	293.5196	416.8094	424.6814	469.814	539.2203	630.0752	676.5503	712.5512	788.429	800.3168	816.509	861.3702	939.282	949.0815	957.2735	1000.2834	1015.7472	1056.1856	1070.0423	1075.2937	1105.665	1183.8566	1226.5661	1235.8272	1253.9643	1258.1836	1289.1975	1335.8698	1350.1967	1434.1449	1470.4978	1503.5879	1827.9644	3037.5656	3098.4483	3120.4036	3147.2297	3174.2183	3200.0076	3515.8459
O=C1CNC2C3OC1C23	O=C1CN[C@H]2[C@H]3O[C@@H]1[C@@H]23	
InChI=1S/C6H7NO2/c8-2-1-7-4-3-5(2)9-6(3)4/h3-7H,1H2	InChI=1S/C6H7NO2/c8-2-1-7-4-3-5(2)9-6(3)4/h3-7H,1H2/t3-,4-,5+,6+/m1/s1
