16
gdb 31352	3.53951	1.21232	0.96403	4.6294	75.29	-0.2559	-0.0389	0.217	1214.2003	0.125435	-434.105462	-434.09733	-434.096386	-434.139218	29.26	
C	-0.7870842642	 0.916932085	 0.1081755431	-0.386959
C	 0.6279260437	 0.3117951895	 0.1036532296	-0.272313
C	 1.0364830858	-0.1836022468	-1.2470520931	 0.404346
N	 1.9686506194	 0.3214232914	-1.9419545656	-0.286402
C	 2.2488869502	-0.2281785823	-3.2101234683	 0.3611
N	 3.1857139635	 0.2718045027	-3.9074541089	-0.489589
N	 1.4638857762	-1.3267902487	-3.6599010779	-0.288768
C	 0.559513512	-1.7503230284	-2.8841540887	 0.119549
O	 0.2574209251	-1.2569006014	-1.651485922	-0.217592
H	-0.8453797172	 1.7760270742	-0.5662772115	 0.13786
H	-1.5319007971	 0.1811609864	-0.2057572424	 0.134495
H	-1.0454351267	 1.2561763524	 1.1144471586	 0.130051
H	 1.3706559094	 1.0499145986	 0.4105746028	 0.14527
H	 0.6694136001	-0.5297623972	 0.8055178573	 0.129351
H	 3.2441756329	-0.2465891623	-4.7855806864	 0.227889
H	-0.0898787633	-2.5837851331	-3.1383064065	 0.151712
48.5017	78.7197	138.8763	206.846	286.541	339.0669	425.2562	507.0284	537.0915	573.8128	692.6144	767.9632	788.5041	810.6902	878.893	920.7579	926.5298	973.5669	975.898	1024.7983	1079.4068	1122.0997	1154.3511	1219.4442	1290.4868	1351.7956	1357.3134	1408.4495	1409.3366	1471.7006	1498.2989	1507.9315	1661.5571	1719.2118	1769.019	3044.8869	3050.0689	3116.9228	3125.3921	3137.5596	3182.3907	3480.2296
CCC1=NC(=N)N=CO1	CCC1=N[C@H]([NH])N=CO1	
InChI=1S/C5H7N3O/c1-2-4-8-5(6)7-3-9-4/h3,6H,2H2,1H3	InChI=1S/C5H8N3O/c1-2-4-8-5(6)7-3-9-4/h3,5-6H,2H2,1H3/t5-/m1/s1
