19
gdb 16491	2.73315	2.60625	1.74762	1.6707	74.49	-0.2308	0.0916	0.3225	841.3267	0.165829	-327.868773	-327.861336	-327.860392	-327.899926	29.261	
C	 0.0048984199	 1.6043946632	-0.0417784988	-0.431864
C	 0.0863291947	 0.083066044	-0.0025561472	-0.015154
C	 1.1360076415	-0.7032623467	-0.846086057	-0.106088
C	 2.481858297	-0.2035660124	-0.3021877887	-0.151164
N	 2.1665505683	-0.8250337159	 1.0261262688	-0.188906
C	 1.2034838591	-1.7403986239	 0.3397886515	-0.105513
C	 0.670166999	-0.6629698707	 1.2063304354	 0.344109
C	 0.1447862611	-0.7059326095	 2.6066213592	-0.503757
H	 0.9559911941	 2.0811522383	 0.2101447069	 0.121941
H	-0.2951636801	 1.9543151006	-1.0360036933	 0.115226
H	-0.7418319012	 1.9679925764	 0.6726892797	 0.118031
H	-0.9031180364	-0.3447583662	-0.2052048129	 0.073275
H	 0.9635719691	-0.9045270799	-1.9024677303	 0.066749
H	 3.3364430054	-0.7357161018	-0.7291687201	 0.105424
H	 2.6925852768	 0.8716557405	-0.2903316858	 0.093609
H	 1.2254699322	-2.8201080219	 0.4150302667	 0.091994
H	 0.7121373569	-1.4221848041	 3.2068563473	 0.133436
H	 0.2291132245	 0.2745405737	 3.0889057448	 0.123366
H	-0.910730432	-0.9992798938	 2.6200920638	 0.115286
159.8004	185.6267	200.29	230.254	299.5522	336.7182	487.6139	573.423	605.2315	665.8957	747.1778	785.5634	824.8618	842.038	909.9324	936.7457	972.0379	999.8179	1011.9573	1026.2862	1047.1334	1085.0209	1104.3739	1136.6635	1148.5949	1157.6626	1177.4699	1216.9142	1242.189	1299.087	1308.545	1374.394	1401.5215	1406.8958	1439.0599	1485.1798	1490.1943	1493.9814	1496.9078	1520.8812	3029.5288	3030.0145	3033.7254	3039.3017	3089.1083	3091.4921	3094.201	3114.0262	3116.3702	3123.2446	3195.8211
CC1C2CN3C2C13C	C[C@H]1[C@H]2CN3[C@H]2[C@]13C	
InChI=1S/C7H11N/c1-4-5-3-8-6(5)7(4,8)2/h4-6H,3H2,1-2H3	InChI=1S/C7H11N/c1-4-5-3-8-6(5)7(4,8)2/h4-6H,3H2,1-2H3/t4-,5+,6+,7-,8?/m0/s1
