17
gdb 80085	2.36836	1.78362	1.4002	1.5788	73.75	-0.2399	-0.0161	0.2238	981.5531	0.138445	-418.050459	-418.042815	-418.041871	-418.082559	29.425	
C	-0.1714272537	 1.5589495598	-0.0971603153	-0.417144
C	 0.0335502696	 0.0651880476	 0.0092290792	-0.031465
C	 1.3584835094	-0.6190520876	-0.1974811419	-0.022239
N	 2.5460701426	 0.1369950839	-0.4094087165	-0.224008
C	 2.9842904909	 0.8468679913	 0.5495631503	 0.068088
N	 2.4326812079	 0.9324711745	 1.8216495504	-0.333821
C	 1.3783559054	 0.1343333527	 2.2687699804	 0.424111
O	 1.1078235838	 0.0660390046	 3.4490803657	-0.363693
C	 0.6918884298	-0.6259637499	 1.1972070593	-0.20533
H	 0.6926467709	 2.1309302935	 0.2438434949	 0.133383
H	-0.3634722336	 1.8379677094	-1.1381068954	 0.128523
H	-1.0348009499	 1.8689607458	 0.5002659854	 0.129183
H	-0.8045262553	-0.5116663937	-0.3728976638	 0.105167
H	 1.3426106725	-1.5469585243	-0.7596958707	 0.106771
H	 3.8784933814	 1.4524108214	 0.4110157131	 0.128013
H	 2.9373677008	 1.41786646	 2.5500085054	 0.259779
H	 0.2181669676	-1.5267760192	 1.5690357994	 0.114682
114.5047	139.0635	181.8357	221.6703	382.339	420.5297	436.8801	529.9079	555.8107	620.7839	655.5978	714.8709	747.8983	807.9485	847.653	921.7549	934.457	957.3843	972.1579	1011.3583	1067.9587	1082.2963	1104.2517	1143.9149	1175.2356	1240.9749	1269.7093	1350.0474	1382.3469	1415.0235	1424.864	1426.9163	1452.3013	1492.5311	1502.0965	1730.0978	1804.0863	3044.9135	3102.9955	3132.5403	3147.02	3148.2609	3161.0716	3185.7984	3608.871
CC1C2N=CNC(=O)C12	C[C@H]1[C@H]2N=CNC(=O)[C@@H]12	
InChI=1S/C6H8N2O/c1-3-4-5(3)7-2-8-6(4)9/h2-5H,1H3,(H,7,8,9)	InChI=1S/C6H8N2O/c1-3-4-5(3)7-2-8-6(4)9/h2-5H,1H3,(H,7,8,9)/t3-,4+,5-/m1/s1
