17
gdb 84217	3.07854	1.70649	1.54231	1.6577	78.73	-0.2001	-0.0246	0.1755	914.9933	0.137525	-384.618704	-384.611901	-384.610957	-384.649614	28.277	
O	 0.0608129371	 1.4046184061	 0.2042965635	-0.429962
C	 0.0630074693	 0.0026564169	-0.0258226138	 0.106464
C	 0.6790891756	-0.7129549059	 1.1914100247	-0.150702
C	-0.1780093658	-1.6307029617	 1.6712888034	 0.063856
C	-0.873785297	-1.4297886194	 2.9846734352	-0.150094
C	-2.0579139441	-0.8979561972	 2.6326598824	-0.085143
C	-2.3035934606	-1.0128613117	 1.1415640952	-0.093361
C	-1.3180972735	-0.6507349671	-0.0943860386	-0.094749
C	-1.2575005335	-1.9412872014	 0.6368199245	-0.121142
H	-0.5040022019	 1.5624813606	 0.9700240565	 0.279843
H	 0.5899784531	-0.1108119723	-0.9828792172	 0.088568
H	 1.4128353265	-0.1771373448	 1.785604651	 0.099085
H	-0.4275388674	-1.4455674544	 3.9694733982	 0.112296
H	-2.7826324311	-0.4628364581	 3.3106819724	 0.102481
H	-3.3321442352	-1.091967855	 0.8030927495	 0.092403
H	-1.8747402084	-0.5617513558	-1.0235048762	 0.089472
H	-1.415220743	-2.9340689287	 0.2267120193	 0.090684
110.074	233.3045	338.0188	354.106	440.585	487.8427	543.9414	606.6227	651.9982	720.4045	734.6774	762.3474	799.742	834.0665	858.3358	867.4541	908.9288	936.1155	959.0618	988.1598	1020.056	1048.3664	1070.9231	1104.0489	1108.0163	1117.4787	1152.6033	1230.0887	1263.5579	1288.7173	1293.8656	1320.911	1339.0332	1370.406	1425.8577	1586.8205	1615.5378	3010.1368	3145.6514	3149.9993	3163.909	3180.081	3199.7275	3234.5906	3790.3811
OC1C=C2C=CC3C1C23	O[C@H]1[CH][C]2C=C[C@H]3[C@@H]1[C@@H]23	
InChI=1S/C8H8O/c9-6-3-4-1-2-5-7(4)8(5)6/h1-3,5-9H	InChI=1S/C8H8O/c9-6-3-4-1-2-5-7(4)8(5)6/h1-3,5-9H/t5-,6+,7+,8+/m1/s1
