17
gdb 38895	3.65177	1.47539	1.16772	1.8766	73.26	-0.2434	-0.0064	0.2369	1030.6309	0.137686	-421.783857	-421.777008	-421.776064	-421.815083	27.363	
C	-0.0334954222	 1.4760512852	 0.0363161169	-0.168264
O	 1.4196036262	 1.476871434	 0.1110097071	-0.30529
C	 1.4821779163	 0.0830012666	-0.3114170639	 0.076855
C	 2.237328847	-0.9090434198	 0.5717156826	-0.269642
C	 1.5759024589	-2.2848644241	 0.4014236492	 0.030075
O	 0.7138012574	-2.7310307631	 1.4519626384	-0.250406
C	 0.1163828006	-2.3863703795	 0.1847406299	 0.018644
C	-0.6794238773	-1.1235418191	 0.1657575829	-0.260697
C	-0.0057462845	-0.0219074139	-0.1269125473	 0.274549
H	-0.502264038	 1.8700338622	 0.9453695474	 0.12546
H	-0.3936439054	 2.0457802183	-0.8317007031	 0.112603
H	 1.824665654	 0.0240368362	-1.3549775392	 0.085995
H	 3.3022442029	-0.9579261395	 0.3269058627	 0.104393
H	 2.1387196138	-0.5984083035	 1.6152419944	 0.130525
H	 2.2060044151	-3.0729818219	-0.0095544546	 0.094694
H	-0.2780293604	-3.2463203751	-0.3561290673	 0.096539
H	-1.7230365244	-1.1387679529	 0.4650932538	 0.103966
125.3998	175.4979	294.506	362.9893	390.5583	444.8339	500.2527	530.4457	682.5692	778.7126	794.2411	816.1611	831.6171	867.7273	949.7751	960.9377	979.2562	986.9868	1032.5292	1056.655	1066.5805	1096.2178	1140.1942	1145.7912	1151.6861	1190.9242	1245.9224	1282.0027	1301.0532	1311.5042	1354.9654	1369.9039	1382.6228	1440.1279	1482.2811	1507.5073	1784.4959	2990.289	3004.4641	3057.8432	3060.2913	3103.1695	3110.1304	3120.5466	3174.8522
C1OC2CC3OC3C=C12	C1O[C@H]2C[C@H]3O[C@H]3[CH][C]12	
InChI=1S/C7H8O2/c1-4-3-8-5(4)2-7-6(1)9-7/h1,5-7H,2-3H2	InChI=1S/C7H8O2/c1-4-3-8-5(4)2-7-6(1)9-7/h1,5-7H,2-3H2/t5-,6-,7+/m0/s1
