21
gdb 112846	3.08417	1.18031	0.96492	2.6744	78.54	-0.2476	0.0819	0.3295	1299.2009	0.182122	-424.212148	-424.203154	-424.20221	-424.245965	33.793	
C	 0.0224697065	 1.3325206866	-0.1514377111	-0.234231
O	-0.0103411899	-0.0291371223	 0.209144298	-0.248752
C	-1.2916281334	-0.6118230598	 0.1275269539	 0.135306
C	-1.8182251698	-0.8542586973	-1.3101957472	-0.271959
C	-2.7547741907	-2.0855777133	-1.2149456016	-0.005125
C	-2.8527453448	-2.8977022899	-2.507508433	-0.401294
C	-2.17593749	-2.8609236937	-0.0393879125	 0.039997
O	-0.7523343793	-3.0133307318	-0.1153085918	-0.257833
C	-1.2875275977	-1.9965861696	 0.7426705178	 0.007748
H	 1.0414540026	 1.6875420809	 0.0204741519	 0.128367
H	-0.2303547125	 1.4913837752	-1.2099558618	 0.107942
H	-0.6699429515	 1.9321056514	 0.4615950832	 0.100521
H	-2.013077187	 0.0046738002	 0.6954283174	 0.060967
H	-2.3240561472	 0.0164869707	-1.7335000084	 0.095726
H	-0.9578159485	-1.0905113646	-1.9425504258	 0.124396
H	-3.7609873534	-1.75492996	-0.9208566464	 0.074173
H	-1.8699635611	-3.2941594455	-2.7815109003	 0.133231
H	-3.5407381017	-3.7427039265	-2.396368705	 0.11154
H	-3.2140369435	-2.2800915275	-3.3360699084	 0.11384
H	-2.7134965657	-3.7009518057	 0.3954285807	 0.089871
H	-1.0933529713	-2.1265023674	 1.8038418602	 0.095569
83.6795	106.12	160.7766	189.2211	230.1948	242.9677	325.3995	355.3437	430.1542	468.3538	549.4768	620.4603	677.3851	825.5756	843.1366	869.5295	899.9482	943.5471	949.3898	1000.299	1014.0956	1052.0301	1078.7339	1102.2125	1129.9694	1147.1445	1170.1764	1183.2326	1201.1347	1227.4858	1260.2622	1279.2947	1317.8253	1331.6336	1342.8304	1365.0295	1392.8333	1408.536	1439.3376	1479.424	1484.419	1492.7541	1497.2246	1501.8469	1510.0462	2931.6139	2971.3564	3007.937	3022.7604	3032.0184	3065.7981	3098.2676	3108.8197	3113.627	3116.1015	3135.9394	3157.6481
COC1CC(C)C2OC12	CO[C@H]1C[C@@H](C)[C@H]2O[C@@H]12	
InChI=1S/C7H12O2/c1-4-3-5(8-2)7-6(4)9-7/h4-7H,3H2,1-2H3	InChI=1S/C7H12O2/c1-4-3-5(8-2)7-6(4)9-7/h4-7H,3H2,1-2H3/t4-,5+,6-,7+/m1/s1
