19
gdb 32894	6.51931	0.80016	0.72235	2.7292	80.86	-0.1905	0.0338	0.2243	1598.8221	0.159414	-419.242639	-419.233254	-419.23231	-419.277751	33.164	
C	-0.0210540918	 1.4887926135	 0.0459824156	-0.389258
C	 0.0138374153	-0.0277091213	-0.0036077778	-0.034371
O	 0.6715941878	-0.4789797067	 1.1833107657	-0.285099
C	 0.8007194377	-1.8124525204	 1.3231859201	 0.379344
C	 1.3991983891	-2.4440330349	 2.3889542254	-0.261356
N	 1.2981675266	-3.7946874693	 2.0978278514	 0.023599
C	 1.779778262	-4.885510716	 2.9168497268	-0.33477
C	 0.6612248239	-3.8944997705	 0.9058447952	 0.000603
N	 0.3443519876	-2.714186998	 0.405325809	-0.362923
H	 0.9919041019	 1.8996446949	 0.0873721292	 0.124462
H	-0.5177483134	 1.8812538738	-0.8464812207	 0.115072
H	-0.567655566	 1.8363102696	 0.9274890645	 0.124449
H	-0.9960556807	-0.4523538495	-0.0497759747	 0.110309
H	 0.5555660334	-0.3893275617	-0.8856923121	 0.110379
H	 1.8662847461	-2.0772476388	 3.2857471706	 0.123267
H	 1.2884580162	-4.8872287326	 3.8951519709	 0.143731
H	 1.5604707042	-5.8296209751	 2.4143674428	 0.143591
H	 2.8615300765	-4.8125642744	 3.0677540509	 0.14379
H	 0.4537801636	-4.8501151427	 0.4473587769	 0.125182
54.0614	68.0752	101.6685	146.0882	176.0203	251.2952	315.7787	346.6519	348.7181	486.0395	634.451	640.7489	672.5889	729.6295	766.686	787.4753	810.7787	913.956	1010.3023	1053.6051	1078.6326	1085.2822	1131.363	1151.9896	1183.8618	1205.5336	1255.61	1289.5054	1333.4797	1386.3198	1403.1966	1419.6527	1434.289	1456.4681	1479.6263	1484.3662	1498.5088	1521.0112	1523.6547	1547.6288	1619.3704	3027.4538	3036.5464	3043.6198	3062.0681	3095.6628	3118.2155	3120.4204	3134.9546	3244.848	3286.8344
CCOC1=CN(C)C=N1	CCOc1cn(C)cn1	
InChI=1S/C6H10N2O/c1-3-9-6-4-8(2)5-7-6/h4-5H,3H2,1-2H3	InChI=1S/C6H10N2O/c1-3-9-6-4-8(2)5-7-6/h4-5H,3H2,1-2H3
