16
gdb 23497	3.3452	1.52711	1.31064	1.8789	71.64	-0.2428	0.0031	0.2459	977.043	0.125572	-437.785948	-437.779229	-437.778285	-437.816999	27.289	
O	-0.1923291452	 1.2934140445	 0.1331302534	-0.39679
N	-0.0338708037	-0.1024658282	 0.0073968142	-0.302819
C	-1.1509398852	-0.694266961	-0.0214632828	 0.529475
C	-1.4128116	-2.1772002301	-0.0586608751	-0.194378
C	-2.1188664186	-2.3460419511	 1.3260663368	-0.252426
C	-3.240982068	-1.5026519175	 0.6906014959	-0.085283
C	-2.8814104995	-2.0474183913	-0.7066288551	 0.119858
O	-3.0041920653	-0.7660382836	-1.3379111727	-0.294661
C	-2.6000918587	-0.2418104038	-0.0289891433	-0.034456
H	 0.7198557144	 1.6014671895	 0.1072343985	 0.307021
H	-0.6385036761	-2.8483186632	-0.4183081187	 0.09044
H	-2.457458392	-3.3712845396	 1.4995496816	 0.10876
H	-1.5891745998	-1.9715855276	 2.2049465932	 0.114242
H	-4.2552859326	-1.4125498779	 1.0737936787	 0.087713
H	-3.3280517791	-2.8881298887	-1.2339161775	 0.095483
H	-2.8674183008	 0.7942167196	 0.1510133428	 0.107822
122.6639	209.2236	292.2106	378.6809	410.6042	482.6673	514.9427	659.2552	723.2945	725.8366	761.7353	816.484	838.5965	857.4453	887.5642	916.6136	946.9779	960.9514	982.0622	1008.2785	1030.4717	1074.1973	1099.6773	1152.9751	1173.8157	1192.6115	1203.5114	1217.4444	1237.5733	1282.7994	1293.9129	1317.652	1411.0638	1494.9552	1802.344	3059.8035	3118.7557	3137.367	3146.8003	3169.6376	3187.4104	3819.0311
ON=C1C2CC3C2OC13	ON=C1[C@H]2C[C@@H]3[C@H]2O[C@H]13	
InChI=1S/C6H7NO2/c8-7-4-2-1-3-5(2)9-6(3)4/h2-3,5-6,8H,1H2	InChI=1S/C6H7NO2/c8-7-4-2-1-3-5(2)9-6(3)4/h2-3,5-6,8H,1H2/t2-,3-,5+,6+/m1/s1
