19
gdb 89398	2.9568	1.41302	1.10016	4.2859	77.03	-0.2292	0.0234	0.2525	1151.1086	0.160147	-419.230505	-419.221837	-419.220893	-419.263548	32.518	
C	-0.0266015961	 1.4044788367	-0.1372580423	-0.341506
N	 0.002107187	-0.03190035	-0.0133003744	-0.088861
C	-1.2082568664	-0.829825311	 0.0850195496	-0.205897
C	-0.7060969375	-2.2736560038	 0.0866652233	 0.324221
C	-1.4982045833	-3.3326960266	 0.8041469859	-0.495858
N	-0.0035691614	-2.5735637037	-1.1745916616	-0.363905
C	 0.7746713155	-2.2057688762	 0.0443222207	-0.246785
C	 1.1723567507	-0.7500836783	 0.0233849219	 0.474354
O	 2.2949284535	-0.2886204142	 0.0462041366	-0.404851
H	 1.0075415525	 1.7519476825	-0.1691020705	 0.165231
H	-0.5426055266	 1.7161672738	-1.0542250677	 0.124044
H	-0.5350343281	 1.8677006886	 0.7182753084	 0.11872
H	-1.7556570665	-0.5984948855	 1.0110316565	 0.101399
H	-1.8800762997	-0.6422616216	-0.7629117014	 0.115523
H	-2.4752413064	-3.4832984183	 0.3304609848	 0.131459
H	-0.9685527308	-4.290714833	 0.7927629797	 0.122492
H	-1.672700167	-3.0574009569	 1.8495046947	 0.13157
H	 0.0509508782	-3.5855378832	-1.2854464624	 0.231135
H	 1.4365894524	-2.9280674391	 0.5057942583	 0.107514
117.8486	149.0762	164.7504	207.99	221.2524	272.7637	321.4358	380.0396	414.8031	481.5412	544.7934	665.4845	690.3303	778.8921	799.6683	861.5152	919.0243	969.9621	989.8451	1001.7837	1042.2489	1081.3869	1100.1128	1126.1925	1156.8403	1176.8239	1231.3855	1262.6531	1302.3698	1312.5991	1351.0461	1412.49	1433.323	1442.1037	1455.3175	1485.7122	1492.87	1500.6266	1504.8303	1534.7749	1811.0982	2990.2728	3010.3002	3028.2472	3033.7778	3056.9803	3091.434	3104.3738	3141.4429	3198.1493	3471.8311
CN1CC2(C)NC2C1=O	CN1C[C@@]2(C)N[C@H]2C1=O	
InChI=1S/C6H10N2O/c1-6-3-8(2)5(9)4(6)7-6/h4,7H,3H2,1-2H3	InChI=1S/C6H10N2O/c1-6-3-8(2)5(9)4(6)7-6/h4,7H,3H2,1-2H3/t4-,6+/m0/s1
