14
gdb 21117	5.18944	1.63787	1.25454	4.3693	72.83	-0.2142	-0.0531	0.1611	922.603	0.107928	-374.868767	-374.86144	-374.860495	-374.901033	26.118	
C	-0.0136257246	 1.4324176749	 0.0675609852	-0.328542
N	-0.0225227555	-0.0143673572	 0.1660807536	-0.305674
C	-1.112717528	-0.6704320486	 0.060105053	 0.400406
C	-1.1294499597	-2.1210556343	 0.1577526661	-0.206366
C	-2.3016457376	-2.7634490058	 0.0395366852	 0.055989
N	-3.4422425938	-2.0240256017	-0.1695275767	-0.245647
N	-3.4584289437	-0.6699150534	-0.2651830154	-0.037857
N	-2.3825591197	-0.0275107347	-0.1603211935	-0.254894
H	 0.6605323324	 1.7253578155	-0.7471468976	 0.119885
H	-0.9932685139	 1.8901096876	-0.0999135543	 0.131365
H	 0.4199219407	 1.8449659483	 0.9872795251	 0.119886
H	-0.1987910319	-2.6465658423	 0.322968427	 0.127271
H	-2.4316763035	-3.8373884644	 0.095519726	 0.143247
H	-4.3532050613	-2.4393729142	-0.2672134336	 0.280932
62.8449	74.3637	211.1131	251.4562	378.1506	456.0923	468.3533	545.677	585.3381	645.1722	763.6671	765.0212	828.2336	944.0889	967.1258	1001.27	1071.7696	1083.493	1127.5166	1152.5268	1214.4267	1249.2575	1405.6413	1427.941	1439.7297	1487.9001	1495.9586	1594.29	1677.2296	1724.8739	3012.0146	3058.5653	3097.9416	3204.2391	3233.1421	3668.4806
CN=C1C=CNN=N1	C[N]c1cc[nH]nn1	
InChI=1S/C4H6N4/c1-5-4-2-3-6-8-7-4/h2-3H,1H3,(H,5,6,7)	InChI=1S/C4H11N4/c1-5-4-2-3-6-8-7-4/h4,6-8H,2-3H2,1H3
