18
gdb 55104	4.47196	0.94101	0.83533	3.6337	74.8	-0.2404	0.025	0.2655	1374.8832	0.145799	-439.076452	-439.067349	-439.066404	-439.111416	32.223	
C	-0.0826448487	 1.4613720015	 0.2389127132	-0.489547
C	-0.0052873034	-0.0544277622	 0.1558738772	 0.37452
O	 1.0331273602	-0.6841624547	 0.2498424488	-0.364369
N	-1.2002111711	-0.6848657918	-0.0229859456	-0.084255
C	-2.5387926675	-0.233610529	-0.4269744502	-0.268071
C	-2.872483558	-1.7155456305	-0.67033809	 0.414172
C	-4.1225311245	-2.4458934339	-0.4900569012	-0.257115
O	-3.575012628	-2.1821977965	-1.7952391836	-0.254282
C	-1.4227746373	-2.1004388603	-0.3354422253	-0.251855
H	 0.8983667892	 1.8438934254	 0.5187955018	 0.149305
H	-0.367427983	 1.8869794064	-0.7298582208	 0.138565
H	-0.8273365017	 1.7860266918	 0.9724452062	 0.133478
H	-3.111168951	 0.2727084659	 0.3586630888	 0.120033
H	-2.559957018	 0.3728355996	-1.3409703827	 0.127289
H	-4.0998583942	-3.4890331188	-0.1784483246	 0.126638
H	-5.0378825361	-1.9059370462	-0.2521032192	 0.123153
H	-0.842352913	-2.4586657834	-1.1928677884	 0.135492
H	-1.2744543341	-2.7793280832	 0.5101507556	 0.126849
40.4457	89.625	114.2951	146.6625	152.9973	308.2045	341.8694	375.103	389.3525	518.635	592.592	598.6227	686.0504	843.8055	870.872	904.317	945.747	950.138	977.1089	1050.4094	1100.8494	1115.4199	1121.2175	1124.7326	1153.4765	1163.3851	1186.766	1203.5139	1289.2371	1301.7659	1380.4666	1427.544	1463.5173	1474.9209	1483.7061	1495.8592	1516.5047	1548.3632	1771.0059	3018.6654	3041.1822	3041.5502	3065.7191	3085.2903	3088.2463	3102.6368	3161.8426	3174.0151
CC(=O)N1CC2(CO2)C1	CC(=O)N1CC2(CO2)C1	
InChI=1S/C6H9NO2/c1-5(8)7-2-6(3-7)4-9-6/h2-4H2,1H3	InChI=1S/C6H9NO2/c1-5(8)7-2-6(3-7)4-9-6/h2-4H2,1H3
