17
gdb 68715	2.42421	1.65033	1.35347	5.4309	77.84	-0.2505	0.0194	0.2699	1013.9135	0.136655	-380.829087	-380.82122	-380.820276	-380.861289	30.387	
C	-0.0408782282	 1.5213504767	 0.0849382411	-0.489256
C	-0.0279566679	 0.0234900058	 0.0021455848	 0.297625
C	 1.1721755852	-0.7971084203	-0.3656274638	-0.378853
C	 0.5947750563	-0.9857515301	 1.0285754175	 0.187032
C	 1.3313128523	-0.6778946033	 2.2102023657	 0.214941
N	 1.9339803079	-0.4321943262	 3.1678129909	-0.356187
C	-0.6724062511	-1.8070364898	 0.9549906845	-0.147575
N	-1.8015354877	-0.9288069979	 1.3429865805	-0.324247
C	-1.2591177929	-0.8605699126	-0.0349773585	-0.121999
H	 0.9247639771	 1.9081487079	 0.423584619	 0.13577
H	-0.2532145352	 1.9633453942	-0.8953466942	 0.125755
H	-0.8086930781	 1.8551410514	 0.7883784235	 0.148978
H	 1.0962363238	-1.6179195917	-1.0731998662	 0.120694
H	 2.1146730745	-0.2598932769	-0.401250232	 0.139438
H	-0.7513938731	-2.8859000499	 1.0046234285	 0.109995
H	-2.6501333233	-1.4963516791	 1.3117425405	 0.232414
H	-1.8789508097	-1.0809273683	-0.8957086818	 0.105475
117.6884	138.6073	199.9209	217.684	298.1872	373.9826	430.0858	533.0856	546.5682	573.7063	632.7286	689.5067	778.5887	793.5526	843.3611	850.9694	932.0717	955.0636	970.7265	983.6915	1043.8717	1071.925	1103.8112	1120.1544	1133.862	1135.9715	1203.4835	1259.1134	1297.3376	1345.9806	1352.5436	1388.6488	1420.1724	1483.8602	1492.4412	1496.9288	2344.6391	3033.9395	3099.3382	3119.7684	3121.4599	3185.9649	3198.8821	3211.5354	3459.0129
CC12CC1(C#N)C1NC21	C[C@@]12C[C@]1(C#N)[C@H]1N[C@@H]21	
InChI=1S/C7H8N2/c1-6-2-7(6,3-8)5-4(6)9-5/h4-5,9H,2H2,1H3	InChI=1S/C7H8N2/c1-6-2-7(6,3-8)5-4(6)9-5/h4-5,9H,2H2,1H3/t4-,5+,6+,7+/m1/s1
