21
gdb 63831	2.58211	1.48015	1.19506	2.8029	82.55	-0.2354	-0.0197	0.2157	1135.421	0.181116	-387.093787	-387.084904	-387.08396	-387.127322	34.604	
C	 0.2297292572	 1.4875061633	-0.1420417644	-0.442184
C	 0.033274338	-0.0225925007	-0.0357756358	 0.33433
C	-1.4521060798	-0.3814380437	-0.1163214268	-0.436801
C	 0.898510751	-0.9078223207	-0.9972560815	-0.284497
C	 1.4921044905	-1.6850170456	 0.2058579681	-0.019891
C	 2.8445374437	-1.1295302572	 0.7302331951	-0.361324
C	 2.0521779837	-0.1657810051	 1.6367417241	 0.410056
O	 2.3712778169	 0.6865716774	 2.4156422565	-0.307482
C	 0.7032616024	-0.7449072065	 1.1954772611	-0.195938
H	 1.2857872981	 1.7695835683	-0.1024915999	 0.120391
H	-0.1810246687	 1.8591157139	-1.0881025248	 0.110769
H	-0.2804245313	 2.0112658904	 0.6737320522	 0.1232
H	-1.8735164281	-0.0630410764	-1.0770121456	 0.113905
H	-1.6097504055	-1.4612344781	-0.0225757475	 0.112872
H	-2.0192831254	 0.1112062426	 0.6814294776	 0.117006
H	 0.3038058726	-1.515919332	-1.6837310386	 0.100605
H	 1.6390502705	-0.3588030846	-1.5871965667	 0.095779
H	 1.3776838666	-2.7676595473	 0.210566181	 0.074466
H	 3.4087474844	-1.8490240937	 1.3345630512	 0.131297
H	 3.5296149677	-0.6773438324	 0.0065785334	 0.122561
H	 0.0319733656	-1.0744846117	 1.9912239712	 0.080879
47.6581	124.268	218.4749	233.3011	280.0343	308.2569	354.0991	367.3875	412.6814	450.2068	523.6857	571.7336	677.2894	764.44	811.7168	829.3912	842.9361	899.9996	931.8264	942.9556	971.4107	979.5468	1012.7443	1028.401	1067.2152	1076.3826	1127.1343	1150.2534	1167.7745	1195.017	1224.1979	1239.4325	1254.3382	1284.2997	1290.5804	1309.9071	1403.3877	1423.5197	1433.1249	1481.3562	1483.6877	1486.769	1501.5402	1505.3291	1878.3033	3019.7434	3027.584	3044.1494	3048.4843	3087.2557	3090.5194	3093.2157	3093.8122	3097.6425	3099.6718	3106.3258	3124.515
CC1(C)CC2CC(=O)C12	CC1(C)C[C@H]2CC(=O)[C@@H]12	
InChI=1S/C8H12O/c1-8(2)4-5-3-6(9)7(5)8/h5,7H,3-4H2,1-2H3	InChI=1S/C8H12O/c1-8(2)4-5-3-6(9)7(5)8/h5,7H,3-4H2,1-2H3/t5-,7+/m1/s1
