18
gdb 53260	3.92433	0.80104	0.74008	2.7528	86.13	-0.2443	-0.0414	0.2029	1577.1336	0.144599	-401.917117	-401.90691	-401.905966	-401.953637	35.166	
C	 0.2100348663	 1.4189217394	-0.0182110617	-0.502588
C	 0.071382231	-0.0286344347	 0.0229452731	 0.159464
C	-0.0362452675	-1.2279236708	 0.0690844192	 0.095435
C	-0.149087083	-2.657278312	 0.0860990833	-0.304497
N	-0.7081428609	-3.3108103967	 1.2764206125	-0.34946
C	-1.5098855944	-3.3500933053	 0.0510353451	 0.227733
C	-2.7979941349	-2.5647559285	 0.0230100661	-0.471656
C	-1.4819003329	-4.6422368821	-0.6987162252	 0.100864
O	-0.6699388365	-5.5142277028	-0.4894848654	-0.275079
H	 1.2617145483	 1.7126250695	-0.1063888818	 0.154089
H	-0.3271076605	 1.8472220384	-0.8717164406	 0.151076
H	-0.1886996226	 1.8797984025	 0.8919847857	 0.155184
H	 0.6408010585	-3.1959889782	-0.433219767	 0.124593
H	-0.2578350245	-4.223096792	 1.3727371482	 0.248728
H	-2.6450690429	-1.5683879155	 0.4399722887	 0.148076
H	-3.1627429657	-2.4551212255	-1.0042470467	 0.121346
H	-3.5725359752	-3.0691792034	 0.6098338506	 0.13016
H	-2.2655948528	-4.7582522024	-1.4772382641	 0.086532
27.0009	79.7428	86.7519	148.7525	152.2991	238.4387	253.2161	263.0807	348.3068	368.3143	379.2998	494.0523	531.4605	653.4859	740.7728	770.7265	825.2591	924.5103	992.1298	1015.9851	1044.4148	1051.5921	1052.598	1097.7729	1129.6415	1180.779	1246.0384	1270.0267	1337.7014	1413.6987	1415.6621	1423.6662	1440.1186	1476.1534	1476.5106	1487.2741	1491.7753	1795.0302	2367.4161	2909.1619	3028.6277	3038.7441	3089.4165	3092.5474	3100.6906	3131.1946	3142.3079	3447.6005
CC#CC1NC1(C)C=O	CC#C[C@H]1N[C@]1(C)C=O	
InChI=1S/C7H9NO/c1-3-4-6-7(2,5-9)8-6/h5-6,8H,1-2H3	InChI=1S/C7H9NO/c1-3-4-6-7(2,5-9)8-6/h5-6,8H,1-2H3/t6-,7-/m1/s1
