15
gdb 101961	1.59667	1.44652	1.35088	2.232	70.66	-0.3038	-0.0817	0.2221	1127.002	0.109733	-416.831421	-416.821734	-416.82079	-416.866496	32.97	
C	-0.1742272714	 1.4553668799	 0.0942682031	-0.4191
C	-0.1101190723	-0.0486880117	-0.1663532468	-0.200219
C	 0.7290625051	-0.4337157012	-1.4152877417	-0.166898
C	 0.7503118404	-1.9955079458	-1.621325018	 0.157859
O	 0.1812882834	-2.7437770226	-0.8877192913	-0.203274
C	 0.162019342	 0.1368265375	-2.6463635988	 0.298128
N	-0.3220963643	 0.5375835571	-3.6156570075	-0.311467
C	 2.1322925293	-0.016847585	-1.2751314217	 0.298137
N	 3.2449366692	 0.2594775623	-1.1331219399	-0.311462
H	 0.8213592002	 1.8754445121	 0.2655550575	 0.147343
H	-0.6308112953	 1.98866882	-0.7448523597	 0.147343
H	-0.7783097827	 1.6497707551	 0.9842299865	 0.136284
H	 0.3284508797	-0.5786011761	 0.6833112442	 0.142139
H	-1.1089780089	-0.4665687664	-0.3170699725	 0.14215
H	 1.3373984356	-2.3221270552	-2.5002347732	 0.143038
66.3839	90.3243	125.6147	147.7432	174.4176	202.8437	233.0352	279.9503	344.5383	463.7166	506.9472	508.7174	580.8661	615.903	692.8949	786.8446	935.5004	948.8557	997.8014	1046.6002	1092.6425	1133.5397	1194.3017	1312.2552	1356.317	1402.809	1423.076	1477.2209	1501.1615	1505.4037	1856.8226	2356.1152	2361.4434	2965.5878	3047.2119	3071.0763	3107.7605	3123.9161	3128.9775
CCC(C=O)(C#N)C#N	CCC(C=O)(C#N)C#N	
InChI=1S/C6H6N2O/c1-2-6(3-7,4-8)5-9/h5H,2H2,1H3	InChI=1S/C6H6N2O/c1-2-6(3-7,4-8)5-9/h5H,2H2,1H3
