18
gdb 43357	2.69701	1.84423	1.2508	4.1491	77.09	-0.239	-0.031	0.208	1006.5632	0.151524	-402.007568	-402.000471	-401.999527	-402.039282	27.9	
O	 0.3433668476	 0.1071980714	 0.4158441237	-0.383638
C	 0.121343285	 1.2446526792	 0.0592560768	 0.374829
C	-1.1662477141	 1.9988381628	 0.1104403372	-0.186132
C	-0.9348253561	 3.2851428002	-0.1579195613	-0.092681
C	 0.515224789	 3.4930512934	-0.5128254681	-0.022919
C	 1.4086202691	 4.3577704982	 0.4343722129	-0.243832
C	 2.3763026843	 3.3471019798	 1.0975687304	-0.202959
C	 2.4205527149	 2.1649202503	 0.107529851	-0.187903
N	 1.0692936796	 2.1400751341	-0.4421169927	-0.089626
H	-2.0991829029	 1.5247297973	 0.380675125	 0.124448
H	-1.6592222513	 4.0900375721	-0.1841175676	 0.118236
H	 0.5821352144	 3.8861546068	-1.5369928839	 0.100198
H	 1.9597594752	 5.0962652853	-0.1541993797	 0.110226
H	 0.8149477747	 4.9055576406	 1.1699660912	 0.112398
H	 3.3599780486	 3.7789224887	 1.2988295058	 0.104297
H	 1.9659020005	 2.999775611	 2.0510156069	 0.118737
H	 3.1541638908	 2.3348712525	-0.6894783905	 0.104952
H	 2.6301219807	 1.1994742764	 0.5717153529	 0.141367
100.8935	126.5195	244.7158	293.0439	374.9687	506.6484	578.3768	598.7379	688.7515	712.3176	733.4578	776.7916	832.5603	869.475	884.2018	919.3598	948.6403	975.5713	982.2025	1025.3521	1063.3244	1108.8541	1116.364	1148.8146	1203.26	1215.4438	1238.7303	1285.1202	1306.4479	1320.4539	1336.465	1346.8322	1368.5871	1380.2506	1488.8739	1498.425	1511.0999	1650.0416	1806.8571	3000.1591	3033.6256	3055.0031	3063.3784	3098.9815	3113.7035	3125.2665	3207.8224	3246.5114
O=C1C=CC2CCCN12	O=C1C=C[C@H]2CCCN12	
InChI=1S/C7H9NO/c9-7-4-3-6-2-1-5-8(6)7/h3-4,6H,1-2,5H2	InChI=1S/C7H9NO/c9-7-4-3-6-2-1-5-8(6)7/h3-4,6H,1-2,5H2/t6-/m1/s1
