20
gdb 15430	4.83126	0.85878	0.81189	2.0683	72.15	-0.2613	0.0798	0.341	1477.0401	0.1755	-386.120306	-386.110838	-386.109894	-386.15542	33.453	
C	 0.1121320226	 1.455655969	 0.3375609651	-0.383919
C	-0.1105213265	-0.0578633527	 0.3023404483	-0.157156
C	-1.3861597594	-0.4580909713	-0.4531974921	-0.215806
C	-1.5724608545	-1.9563820002	-0.4880486722	 0.066175
O	-2.006041973	-2.6006000413	 0.7187157916	-0.274382
C	-2.8569238699	-2.6748879715	-0.4395925956	 0.027186
C	-4.2146626485	-2.0368186084	-0.2829045766	-0.085007
O	-5.0347319027	-2.8099186024	 0.5787335045	-0.419035
H	 1.0261180717	 1.7101592432	 0.8827495823	 0.115219
H	 0.2017378115	 1.8679122555	-0.6738321043	 0.113686
H	-0.722210728	 1.9677919204	 0.8296017003	 0.116305
H	 0.754635268	-0.5472143074	-0.1641417007	 0.096309
H	-0.1710656173	-0.4517635313	 1.3236642336	 0.115182
H	-2.2521091755	 0.0217000527	 0.013229006	 0.10387
H	-1.3354090567	-0.0895117187	-1.4871360756	 0.100247
H	-0.7521794931	-2.4873283599	-0.9790644818	 0.087686
H	-2.8928564201	-3.6711803473	-0.8850894773	 0.095462
H	-4.1185130709	-1.0046013663	 0.0788213784	 0.093177
H	-4.7271984928	-2.0084617178	-1.2508712043	 0.111943
H	-4.5539251651	-2.8972924841	 1.4098171502	 0.292859
53.592	80.4722	91.3733	125.1179	199.1989	242.1077	290.0896	319.9736	404.9884	461.0716	493.5153	571.2846	741.0091	780.8045	838.1967	877.6232	907.2138	931.1117	1013.3132	1043.9175	1061.2537	1067.718	1115.1117	1123.0222	1169.0838	1182.5138	1229.0659	1264.3973	1292.8445	1310.655	1330.1465	1354.5293	1387.6083	1403.3827	1413.2141	1434.6454	1469.915	1491.7843	1494.7075	1496.1421	1500.3108	1509.621	3013.2187	3019.1887	3023.1821	3029.8957	3058.0576	3065.4562	3072.5322	3085.3659	3096.8774	3100.2429	3104.0995	3799.6684
CCCC1OC1CO	CCC[C@H]1O[C@H]1CO	
InChI=1S/C6H12O2/c1-2-3-5-6(4-7)8-5/h5-7H,2-4H2,1H3	InChI=1S/C6H12O2/c1-2-3-5-6(4-7)8-5/h5-7H,2-4H2,1H3/t5-,6+/m1/s1
