17
gdb 42719	2.72904	1.75535	1.38062	2.5378	77.81	-0.2431	0.0044	0.2475	970.5703	0.136342	-384.656063	-384.648891	-384.647947	-384.687442	28.985	
O	 0.0037808993	-0.0007942734	 0.125923528	-0.302513
C	-0.0130541191	 1.1809108199	 0.0594698178	 0.429831
C	-1.085020483	 2.3528943541	-0.0344799164	-0.276397
C	-0.6936704895	 3.0466583495	 1.2585095039	-0.087313
C	 0.6528997601	 3.0647264688	 1.2383411555	-0.087312
C	 1.0238282055	 2.3811639185	-0.0660512783	-0.276398
C	-0.0529268948	 2.9464059172	-1.0231538676	 0.441241
C	-0.0742973751	 2.8738047909	-2.5158630902	-0.350572
C	-0.0815984805	 4.2178712885	-1.799260777	-0.361492
H	-2.1309575129	 2.1919929847	-0.2848065631	 0.083629
H	-1.3702204182	 3.3390994229	 2.0483234264	 0.109713
H	 1.3447069917	 3.3755247088	 2.0076621173	 0.109712
H	 2.0657413156	 2.2482506734	-0.347633022	 0.083629
H	 0.8335665775	 2.5776774959	-3.0315190372	 0.12148
H	-0.9889101845	 2.5532263979	-3.004249652	 0.12148
H	-1.0010373246	 4.793443143	-1.8095042361	 0.120641
H	 0.8213497826	 4.8178971296	-1.8367889991	 0.120641
117.5791	201.9748	228.909	268.4014	389.191	491.3302	537.4281	587.3044	592.2589	712.6049	755.5809	770.5329	806.0322	812.8697	900.351	908.7348	927.4975	945.2724	955.3409	963.0947	1003.5404	1009.1762	1051.9802	1080.0471	1087.6452	1130.4368	1140.921	1181.6271	1205.0501	1205.3417	1219.7357	1326.4703	1391.1441	1462.3124	1506.0264	1586.1952	1918.5087	3126.6571	3132.5081	3152.5935	3154.4454	3206.2122	3220.9077	3225.7446	3249.6653
O=C1C2C=CC1C21CC1	O=C1[C@H]2C=C[C@@H]1C12CC1	
InChI=1S/C8H8O/c9-7-5-1-2-6(7)8(5)3-4-8/h1-2,5-6H,3-4H2	InChI=1S/C8H8O/c9-7-5-1-2-6(7)8(5)3-4-8/h1-2,5-6H,3-4H2/t5-,6+
