17
gdb 68323	3.11612	1.17013	1.00346	4.6446	73.31	-0.2626	0.032	0.2946	1193.3844	0.13629	-417.938836	-417.93066	-417.929716	-417.972197	30.786	
O	 0.2584659784	 1.225623278	 0.1425714712	-0.454547
C	 0.1890555135	-0.1488407292	 0.0731126226	 0.345402
C	 0.5102060967	-1.130755116	-1.0877465744	-0.235354
N	-0.0527135889	-2.0549243259	 0.0041062927	-0.156033
C	 0.8267929612	-1.2435709714	 0.9701493949	-0.250885
C	-1.1188517368	-0.9545633001	 0.1875639446	 0.037911
C	-1.9737422452	-1.0207619281	 1.4561427426	-0.393884
C	-3.0046421639	 0.0153950721	 1.4610647679	 0.267796
N	-3.8233154983	 0.8304405232	 1.4546349036	-0.304107
H	 1.1755329003	 1.5036301157	 0.0400134226	 0.288178
H	-0.1066180578	-1.0886679381	-1.9884060939	 0.113995
H	 1.5585810201	-1.333258208	-1.3184448676	 0.10503
H	 1.8933089476	-1.4469971994	 0.8459552771	 0.106441
H	 0.5419739385	-1.3193179841	 2.019682851	 0.10814
H	-1.7784402471	-0.8969678834	-0.6830440892	 0.099332
H	-2.463049156	-2.0015666496	 1.4938073173	 0.167919
H	-1.3848916724	-0.9238318657	 2.371574697	 0.154667
45.2029	112.3359	215.1858	236.2886	308.348	374.093	382.4415	408.1161	469.4676	610.5348	614.1828	646.2948	770.7859	800.1274	861.5907	913.5993	956.5988	960.6785	972.1637	998.7776	1059.4973	1089.3822	1102.8895	1133.5756	1169.5807	1178.4088	1184.8712	1229.9906	1262.5029	1295.5938	1314.864	1365.8872	1447.4578	1462.3843	1512.7947	1556.4139	2366.184	3048.124	3060.7569	3067.3113	3075.1492	3102.5296	3133.9261	3140.9486	3806.528
OC12CN(C1)C2CC#N	O[C@@]12CN(C1)[C@H]2CC#N	
InChI=1S/C6H8N2O/c7-2-1-5-6(9)3-8(5)4-6/h5,9H,1,3-4H2	InChI=1S/C6H8N2O/c7-2-1-5-6(9)3-8(5)4-6/h5,9H,1,3-4H2/t5-/m0/s1
