13
gdb 54891	2.72148	1.65244	1.09872	1.8129	58.96	-0.2654	-0.0449	0.2205	1011.5293	0.089952	-489.954959	-489.947476	-489.946532	-489.987671	27.323	
N	-0.094931825	 1.2852541019	 0.1750731541	-0.520864
C	 0.1005443755	-0.0049529785	-0.2094846663	 0.384909
O	 1.1303810013	-0.4556567292	-0.6465345774	-0.322926
C	-1.1994226854	-0.8583375231	-0.1019527852	-0.252484
N	-0.9748659615	-2.2874100986	-0.2657168224	-0.205288
C	-1.4528380329	-2.8213376408	 0.7749787829	 0.115853
O	-2.0198526345	-2.0055860112	 1.7384962222	-0.193509
C	-1.8997839353	-0.720486484	 1.2480162539	 0.436098
O	-2.2821449635	 0.2448162183	 1.8405909103	-0.330306
H	 0.7191412051	 1.8782631402	 0.2123990591	 0.268952
H	-0.8973160243	 1.529202887	 0.7386579019	 0.282315
H	-1.8722431109	-0.4906654512	-0.8872289437	 0.167994
H	-1.4762164586	-3.8765283808	 1.0150173906	 0.169256
55.2439	111.8325	204.7066	266.3645	397.2507	434.5538	467.727	521.7365	553.1381	628.0984	656.8808	680.7214	733.1244	867.2553	905.7368	910.7676	953.4459	1059.7754	1075.4743	1130.5944	1148.3448	1207.0361	1256.2196	1322.4041	1341.3082	1630.321	1701.4473	1838.4902	1886.1673	3044.96	3241.0248	3556.504	3695.6222
NC(=O)C1N=COC1=O	NC(=O)[C@H]1N=COC1=O	
InChI=1S/C4H4N2O3/c5-3(7)2-4(8)9-1-6-2/h1-2H,(H2,5,7)	InChI=1S/C4H4N2O3/c5-3(7)2-4(8)9-1-6-2/h1-2H,(H2,5,7)/t2-/m1/s1
