15
gdb 27011	2.93328	1.32705	0.91892	3.1188	81.06	-0.193	-0.0175	0.1755	1208.0104	0.111123	-416.812176	-416.803293	-416.802349	-416.845886	32.368	
C	 0.1621034832	 1.5010865999	-0.0388301694	-0.502863
C	-0.0164325643	 0.0335090528	-0.0186700843	 0.240299
C	-1.1085767378	-0.7580749457	 0.0623191541	 0.109551
N	-0.6380040582	-2.0820749059	 0.0432261507	-0.42248
C	 0.7310702951	-2.0947416721	-0.059382912	 0.464033
N	 1.4886986022	-3.1063782753	-0.1126122744	-0.611238
O	 1.1110793689	-0.7572838247	-0.0917800695	-0.240748
C	-2.4687667971	-0.4171539989	 0.1542177644	 0.269563
C	-3.6408628319	-0.1486590899	 0.2322368406	-0.456043
H	 0.7773782028	 1.8372361634	 0.8037696448	 0.146895
H	 0.6611677009	 1.8267136941	-0.9588522568	 0.146846
H	-0.8124775044	 1.9892825465	 0.0226127508	 0.150733
H	-1.1964791163	-2.9154385129	 0.0643560502	 0.278776
H	 2.4626599204	-2.827023963	-0.1864824341	 0.226154
H	-4.6714991635	 0.0981810618	 0.3008893851	 0.200521
69.0543	131.6511	152.6409	190.706	202.5705	274.2398	347.5781	422.9006	465.0097	528.9152	547.8643	586.179	645.5164	663.2891	693.7446	707.3349	745.4868	814.5818	928.516	991.8581	1062.6146	1063.0378	1133.6304	1245.7597	1268.6965	1348.693	1412.5555	1431.295	1467.3025	1485.629	1707.541	1803.7191	2229.883	3029.6096	3079.7221	3137.8516	3499.8654	3548.3348	3711.9346
CC1=C(NC(=N)O1)C#C	CC1=C(N[C@H]([NH])O1)C#C	
InChI=1S/C6H6N2O/c1-3-5-4(2)9-6(7)8-5/h1H,2H3,(H2,7,8)	InChI=1S/C6H7N2O/c1-3-5-4(2)9-6(7)8-5/h1,6-8H,2H3/t6-/m0/s1
