17
gdb 106866	2.63978	1.24872	1.01433	3.0407	74.66	-0.2374	-0.0008	0.2365	1189.8333	0.13638	-417.963938	-417.955336	-417.954392	-417.997594	31.76	
O	 0.1163496326	 1.4308384757	 0.2317505167	-0.406081
C	 0.0663753791	 0.0355894433	-0.0307154054	-0.170371
C	-1.3416285329	-0.4832875581	-0.0566790488	 0.214821
C	-2.0681907903	-0.9543748939	 1.1810750784	-0.354602
C	-1.8944433154	-1.9168854137	 0.0354459504	 0.19893
N	-2.95381659	-1.6308011296	-0.9614275582	-0.366946
C	-2.3482358245	-0.2709879952	-1.1943340061	-0.214938
C	-1.2207169775	-3.1684260028	 0.1249524372	 0.188609
N	-0.6732859903	-4.1878697845	 0.1743129087	-0.348417
H	-0.2639669367	 1.5792547148	 1.1041840598	 0.286885
H	 0.5377904381	-0.0933512282	-1.0106747508	 0.121223
H	 0.6594193068	-0.5412890311	 0.6960377692	 0.103056
H	-1.4334246087	-1.1369555155	 2.0426845745	 0.136091
H	-3.0798363524	-0.6255749222	 1.4004877378	 0.135315
H	-2.8438267481	-2.2171960444	-1.7827386385	 0.238362
H	-3.0617357751	 0.5509010205	-1.0851697382	 0.119256
H	-1.8471409348	-0.188201975	-2.1636787568	 0.118807
70.9987	93.4553	154.7853	203.4597	292.194	301.7188	365.0674	380.5977	433.6819	536.4193	564.9314	631.6394	754.446	769.9516	809.0042	850.7265	937.9919	960.4748	972.8421	1003.7687	1023.547	1059.3291	1088.3266	1132.9024	1151.8933	1200.1071	1244.2661	1281.9525	1299.986	1366.9882	1371.9595	1413.1279	1428.7883	1483.2801	1497.8751	1513.1321	2339.8482	2986.0889	3046.7081	3074.3525	3097.9203	3119.6288	3216.4775	3527.8483	3809.2756
OCC12CC1(NC2)C#N	OC[C@]12C[C@]1(NC2)C#N	
InChI=1S/C6H8N2O/c7-2-6-1-5(6,4-9)3-8-6/h8-9H,1,3-4H2	InChI=1S/C6H8N2O/c7-2-6-1-5(6,4-9)3-8-6/h8-9H,1,3-4H2/t5-,6+/m1/s1
