22
gdb 122913	4.74921	0.52586	0.48781	3.692	84.68	-0.2612	0.0374	0.2986	2235.8416	0.192207	-404.361227	-404.350099	-404.349155	-404.398864	38.176	
C	 0.0273027613	 1.4270198453	 0.0516159966	-0.229533
O	-0.002876488	 0.0207119691	 0.0057208172	-0.231277
C	 0.6498989094	-0.5069085039	-1.1263419196	-0.05358
C	 0.5486939999	-2.0267226745	-1.0741051184	-0.214229
C	 1.2175336027	-2.6901376432	-2.2815201755	-0.185771
C	 1.225935357	-4.2368275837	-2.2102494877	-0.143849
C	-0.1801636544	-4.8671856466	-2.2505629459	-0.391021
C	 2.0486380021	-4.7756686572	-3.2996821691	 0.264875
N	 2.6909873314	-5.1908439224	-4.1663971894	-0.323708
H	 1.0582174974	 1.813724688	 0.0893465738	 0.104758
H	-0.4738382654	 1.8758984643	-0.8208694806	 0.104417
H	-0.4985271813	 1.7365029844	 0.9580209915	 0.128543
H	 0.1869831585	-0.1232358938	-2.0529066219	 0.086602
H	 1.7082189812	-0.1919150424	-1.1445123469	 0.08725
H	 1.0148175556	-2.374920005	-0.144037759	 0.109885
H	-0.5113638289	-2.2944040651	-1.0158324027	 0.115971
H	 0.7166632309	-2.3846165064	-3.2084349554	 0.116401
H	 2.2543001916	-2.3437027787	-2.3620661942	 0.119278
H	 1.7135572665	-4.5329760168	-1.2718177133	 0.127333
H	-0.709728793	-4.5715933484	-3.1610264477	 0.136044
H	-0.1171840972	-5.9578402316	-2.232385864	 0.138949
H	-0.7666920971	-4.5448281316	-1.3874726879	 0.132662
51.7368	53.7082	84.304	122.5047	130.8855	173.8182	210.4603	234.9374	249.2417	290.0326	365.5181	367.9975	493.5404	557.2645	585.9179	758.0161	815.6779	869.1067	920.219	987.2302	1003.7182	1038.2812	1058.9055	1102.5763	1124.1593	1165.7021	1172.3777	1191.3232	1223.2744	1233.3667	1276.1592	1300.3471	1319.3591	1338.1087	1345.8813	1392.2856	1416.1275	1429.9169	1481.7646	1483.7716	1485.5748	1497.6682	1498.4748	1503.296	1507.5011	1532.7002	2355.7959	2940.8804	2967.0073	2970.2346	3012.6728	3022.4365	3030.3967	3039.7999	3051.475	3066.1121	3092.1805	3115.1561	3125.7282	3134.5041
COCCCC(C)C#N	COCCC[C@@H](C)C#N	
InChI=1S/C7H13NO/c1-7(6-8)4-3-5-9-2/h7H,3-5H2,1-2H3	InChI=1S/C7H13NO/c1-7(6-8)4-3-5-9-2/h7H,3-5H2,1-2H3/t7-/m1/s1
