20
gdb 77490	1.92869	1.90275	1.17997	1.973	80.87	-0.2341	0.0107	0.2449	1133.802	0.168948	-403.118418	-403.108834	-403.10789	-403.15218	35.658	
C	-0.1043595208	 1.547673704	-0.009858153	-0.440532
C	-0.0345750618	 0.0282746049	-0.0013693034	-0.022708
C	 1.1985919205	-0.6697491239	-0.6692275109	 0.183621
C	 1.7012247088	-0.5779283508	-2.0761640372	-0.523059
N	 2.008054038	-0.1737630018	 0.5407744022	-0.37395
C	 0.7059587429	-0.6820342728	 1.1822887911	 0.183619
C	 0.4426717232	-0.6093194275	 2.6540000875	-0.523058
C	 0.8877678934	-1.8838731982	 0.2313519319	 0.374529
O	 0.9678968937	-3.0765036141	 0.2447588803	-0.34159
H	 0.8583286647	 1.990362793	 0.2492901106	 0.143113
H	-0.4010925099	 1.9121517557	-0.999229033	 0.11671
H	-0.8548152806	 1.9008359266	 0.7055723833	 0.11671
H	-0.9968113748	-0.424171823	-0.2603936173	 0.078119
H	 1.9139967244	 0.4595206178	-2.3519087928	 0.134864
H	 2.6176593557	-1.1630729575	-2.2038397961	 0.133067
H	 0.9530819289	-0.9732704254	-2.7704206105	 0.13504
H	 2.7879135147	-0.8072297963	 0.7440691436	 0.222536
H	 0.486853784	 0.4239247002	 3.0118574798	 0.134863
H	-0.5502462861	-1.0107752446	 2.8797259794	 0.13504
H	 1.1764239511	-1.1990153263	 3.2129403845	 0.133067
141.1815	161.4384	166.8934	178.6847	198.9381	205.5054	231.3266	235.1521	343.3854	385.6553	546.4383	581.7058	597.9381	665.1896	737.3252	748.4008	765.2742	826.1044	869.0954	891.4609	1019.5877	1038.1685	1072.5722	1085.3721	1098.4847	1147.1799	1166.8238	1179.735	1234.7505	1240.0407	1306.1545	1366.0955	1399.4686	1404.6239	1410.3475	1443.6918	1481.8121	1482.3944	1486.4884	1486.7601	1497.4203	1505.7996	1888.2629	3036.7522	3037.0377	3038.006	3064.4381	3092.2803	3106.8373	3106.8929	3110.9796	3111.0904	3143.3797	3392.9661
CC1C2(C)NC1(C)C2=O	C[C@H]1[C@@]2(C)N[C@]1(C)C2=O	
InChI=1S/C7H11NO/c1-4-6(2)5(9)7(4,3)8-6/h4,8H,1-3H3	InChI=1S/C7H11NO/c1-4-6(2)5(9)7(4,3)8-6/h4,8H,1-3H3/t4-,6+,7-
