19
gdb 114839	3.08149	1.48281	1.34418	0.9402	69.98	-0.2418	0.08	0.3218	1032.0779	0.161063	-460.154714	-460.14703	-460.146086	-460.187187	29.487	
C	 0.1710684721	 1.2876444329	-0.148628997	-0.239767
O	-0.1984772764	-0.0333291052	 0.1834337183	-0.235985
C	 0.5806182604	-0.605275725	 1.20406914	 0.108771
C	 0.140627614	-2.078311873	 1.4257359362	-0.261671
C	 1.4427781056	-2.8180526434	 1.0754730297	 0.035641
C	 1.7426219426	-2.6486959933	-0.4301676977	-0.083854
O	 2.1771494039	-1.2782762314	-0.4951176875	-0.260376
C	 2.0869089565	-0.8243386698	 0.8440250304	 0.144013
O	 2.4368838731	-1.9368058637	 1.6397799493	-0.253952
H	 1.1637556303	 1.329840619	-0.6166046463	 0.121376
H	-0.5683610756	 1.6574919597	-0.8629693324	 0.127566
H	 0.1671072095	 1.9448071632	 0.7354993549	 0.100789
H	 0.506071138	-0.0058486707	 2.1246094366	 0.068951
H	-0.1406677943	-2.2667276087	 2.463413042	 0.109851
H	-0.7007902413	-2.3269162958	 0.776120514	 0.118418
H	 1.5608883306	-3.8250166642	 1.4718972124	 0.089378
H	 2.552328124	-3.3019845188	-0.7729143382	 0.107782
H	 0.8588306068	-2.7969840723	-1.058887775	 0.111069
H	 2.77607049	 0.0040886306	 1.0039787603	 0.092002
77.5393	122.7481	203.015	244.8124	299.8479	376.1861	432.2148	541.2587	585.1445	660.3957	787.2109	823.776	840.8929	876.858	894.6241	945.1068	964.4555	988.1035	1016.0693	1026.5275	1057.7102	1093.925	1106.4942	1149.9118	1174.562	1184.9989	1193.7673	1246.273	1255.5311	1264.123	1307.5085	1317.8782	1330.031	1345.3511	1373.7147	1388.065	1478.3746	1481.5263	1489.6689	1508.3383	1520.5463	2976.2765	2983.645	3036.3649	3041.3094	3077.8116	3084.7411	3115.1655	3132.0113	3134.3796	3141.7509
COC1CC2COC1O2	CO[C@H]1C[C@H]2CO[C@@H]1O2	
InChI=1S/C6H10O3/c1-7-5-2-4-3-8-6(5)9-4/h4-6H,2-3H2,1H3	InChI=1S/C6H10O3/c1-7-5-2-4-3-8-6(5)9-4/h4-6H,2-3H2,1H3/t4-,5-,6+/m0/s1
