17
gdb 102433	2.78787	0.73194	0.59638	3.4223	77.85	-0.273	-0.0694	0.2036	1781.3718	0.132449	-458.918243	-458.907801	-458.906857	-458.955319	34.798	
C	 0.0803644535	 1.3298088592	-0.0060623488	-0.242155
O	-0.1492393968	-0.0543376537	 0.1822639177	-0.242097
C	 0.6303536014	-0.6412833378	 1.2130169574	-0.11238
C	 0.0035862771	-2.0267845064	 1.465474563	-0.066644
O	-1.3496999467	-1.8942661042	 1.8209684864	-0.412689
C	 2.047065488	-0.7454644709	 0.8662628589	 0.145213
C	 3.2170989906	-0.8692369216	 0.589504333	 0.01046
C	 4.6065154068	-0.9962601386	 0.2285910306	 0.020257
O	 5.4492838911	-1.509808123	 0.9271642316	-0.224795
H	 1.11600238	 1.527841858	-0.3122548203	 0.123268
H	-0.5956810269	 1.6586456156	-0.7978254062	 0.137239
H	-0.1325487021	 1.8997834369	 0.9101864952	 0.116241
H	 0.5320144617	-0.0485246993	 2.1377076131	 0.11341
H	 0.141255448	-2.6382562988	 0.5614291231	 0.109002
H	 0.521612718	-2.5150472535	 2.2947071579	 0.12921
H	-1.7557436	-1.3608846499	 1.1268182637	 0.292625
H	 4.8539955762	-0.576368822	-0.7674010462	 0.103835
45.3306	68.0137	92.3719	104.0087	152.1803	182.6984	223.93	241.1109	295.3009	345.0648	437.5039	461.4122	540.9636	556.0157	658.8262	820.8884	882.24	1020.5155	1028.8086	1063.6771	1093.3429	1140.4413	1143.4946	1184.6869	1194.885	1255.5655	1281.3702	1358.6358	1384.363	1421.1145	1428.6499	1480.3152	1487.0061	1497.5468	1508.8614	1769.239	2317.1665	2922.5307	2971.1855	2993.8479	3003.1807	3053.6647	3106.0798	3128.5007	3791.7172
COC(CO)C#CC=O	CO[C@@H](CO)C#CC=O	
InChI=1S/C6H8O3/c1-9-6(5-8)3-2-4-7/h4,6,8H,5H2,1H3	InChI=1S/C6H8O3/c1-9-6(5-8)3-2-4-7/h4,6,8H,5H2,1H3/t6-/m1/s1
