21
gdb 75550	2.47632	1.38905	0.96047	0.6494	91.05	-0.2325	0.0245	0.2571	1275.1095	0.182709	-349.948605	-349.939549	-349.938605	-349.982103	35.227	
C	-0.0475939562	 1.5505045092	 0.007721665	-0.477927
C	 0.0204579472	 0.0483870954	-0.0420661437	 0.324533
C	-0.0257539286	-0.6275319959	-1.1927187418	-0.151657
C	-0.0225879801	-2.1274322452	-1.3252459165	-0.242369
C	-0.3303186538	-2.8198960643	 0.0075450181	-0.219069
C	 0.4673857755	-2.1729982813	 1.1399297084	-0.196979
C	 0.0923312548	-0.6806244497	 1.3030865297	-0.251745
C	 1.007344247	-0.032817486	 2.2451989141	 0.317643
C	 1.7710787301	 0.4659649997	 3.0287598683	-0.463339
H	 0.8468189774	 1.9757246494	 0.4751855567	 0.138135
H	-0.1544701222	 1.9741895808	-0.9941762976	 0.11442
H	-0.9007292677	 1.8865597084	 0.6121463796	 0.119527
H	-0.0825922597	-0.0609944098	-2.1207036734	 0.077016
H	-0.7507313484	-2.4290746832	-2.0887661627	 0.100827
H	 0.9540781264	-2.4621272813	-1.7068746564	 0.107604
H	-1.4034526561	-2.735717034	 0.2233259435	 0.098247
H	-0.1039215578	-3.8895305643	-0.054411351	 0.092259
H	 0.3024241416	-2.6899631116	 2.0901929205	 0.102363
H	 1.5399511463	-2.2408377762	 0.9233101832	 0.109682
H	-0.9145784514	-0.6304722427	 1.7501839348	 0.109366
H	 2.4396782657	 0.9137441926	 3.7214415512	 0.191463
67.6733	148.0605	183.6538	199.1937	262.5329	304.3518	333.1299	406.5961	412.5566	459.2835	534.4479	578.3768	618.349	637.1286	643.7257	750.5098	821.504	861.1513	883.1519	922.87	950.5887	1022.1112	1034.9677	1061.1151	1078.0624	1087.3193	1111.9369	1157.6787	1172.2398	1237.1202	1274.5496	1298.0442	1313.8678	1350.3168	1368.1666	1379.9371	1385.5898	1416.6899	1476.8554	1477.8906	1488.9353	1493.4025	1498.2387	1738.0613	2230.8989	2961.3066	2993.2657	3019.611	3020.6019	3038.4369	3040.9309	3072.6199	3076.5502	3086.0366	3115.7659	3137.1684	3504.6475
CC1=CCCCC1C#C	CC1=CCCC[C@H]1C#C	
InChI=1S/C9H12/c1-3-9-7-5-4-6-8(9)2/h1,6,9H,4-5,7H2,2H3	InChI=1S/C9H12/c1-3-9-7-5-4-6-8(9)2/h1,6,9H,4-5,7H2,2H3/t9-/m1/s1
