19
gdb 37952	2.98405	1.88339	1.45476	0.975	80.76	-0.2194	0.0048	0.2242	945.2516	0.161667	-385.829476	-385.8226	-385.821656	-385.860287	28.827	
C	-0.0318508448	 1.4096143379	 0.2162415507	-0.299884
C	 1.4872115959	 1.5082928119	-0.0851384396	-0.103047
C	 2.3042919875	 0.2741277881	 0.2809527996	 0.121651
O	 2.0232987549	-0.5228619345	 1.3958552309	-0.245224
C	 1.856906903	-1.9166422578	 1.1280662402	-0.061362
C	 0.679696467	-2.2916365662	 0.1469590513	-0.281537
C	-0.3358112343	-1.1812747395	 0.1995099585	-0.147578
C	 0.0507572211	-0.0141662846	-0.3058338095	 0.248541
C	 1.4211486933	 0.22129737	-0.9195144014	-0.217611
H	-0.3708410049	 1.5408899523	 1.2481651277	 0.1077
H	-0.5729493733	 2.1029983245	-0.4376962894	 0.108226
H	 1.9979494247	 2.434169246	-0.3253083084	 0.088207
H	 3.3720635808	 0.3954081863	 0.0885344769	 0.083539
H	 2.7946739544	-2.3508013994	 0.7522819284	 0.092589
H	 1.6605009498	-2.3487678157	 2.1127901707	 0.112311
H	 1.0720206443	-2.4091813498	-0.8671579451	 0.115027
H	 0.2777123486	-3.2637860765	 0.4473717339	 0.098354
H	-1.1770570449	-1.2498970969	 0.8844208278	 0.088785
H	 1.746239347	 0.0146995638	-1.9321263433	 0.091313
162.4037	248.7593	265.4979	327.4027	414.9848	435.263	499.2736	631.7898	687.442	719.8058	742.5135	794.5677	827.3203	857.8933	870.9797	885.1869	945.0394	968.0562	979.9629	986.0771	1015.8867	1049.9895	1065.7545	1072.0316	1088.6496	1138.2469	1145.697	1185.902	1238.0457	1241.0301	1253.7053	1271.5054	1312.4282	1332.07	1341.9706	1381.9413	1416.2325	1479.6094	1487.0757	1501.3413	1735.9511	2998.5422	3033.2069	3053.8347	3081.7389	3085.5292	3088.3955	3102.96	3160.8625	3170.8075	3182.2712
C1C2C3OCCC=C1C23	C1[C@H]2[C@H]3OCC[CH][C]1[C@@H]23	
InChI=1S/C8H10O/c1-2-5-4-6-7(5)8(6)9-3-1/h2,6-8H,1,3-4H2	InChI=1S/C8H10O/c1-2-5-4-6-7(5)8(6)9-3-1/h2,6-8H,1,3-4H2/t6-,7+,8-/m1/s1
