18
gdb 127236	4.85403	1.02182	0.88449	2.5141	81.08	-0.1979	0.0246	0.2225	1322.7037	0.149053	-398.111519	-398.103089	-398.102145	-398.145894	30.416	
C	 0.2504142316	 1.3819825263	-0.0062461907	-0.321205
N	-0.01670715	-0.0391215551	 0.0011672685	 0.064841
C	 0.2199092557	-0.9322095106	-0.9982935944	-0.132105
C	-0.1068168556	-2.1810416915	-0.4985896495	 0.182808
C	-0.5278884871	-1.9267844871	 0.8264724399	-0.069619
N	-0.4637525436	-0.6293350184	 1.1219391954	-0.26427
N	-0.1242132876	-3.4092914354	-1.1821775653	-0.151655
C	 1.0854003135	-3.8506391361	-1.8694711335	-0.225973
C	 0.629285346	-4.5291599187	-0.6243301802	-0.223789
H	 1.3095260119	 1.5938747766	 0.1801399389	 0.137162
H	-0.0331090538	 1.8102271943	-0.9711484819	 0.136866
H	-0.3471784986	 1.8375333649	 0.7833407076	 0.159566
H	 0.5772428996	-0.623139389	-1.9672976913	 0.12431
H	-0.8829063085	-2.6348460709	 1.5604348647	 0.108308
H	 0.931222616	-4.3146911947	-2.8391354857	 0.119193
H	 1.9664092892	-3.2166297574	-1.7933262338	 0.115109
H	 1.2061636312	-4.3466622846	 0.2795943447	 0.120442
H	 0.1352736301	-5.4949894526	-0.6719934733	 0.120014
38.3484	62.4693	130.2937	176.5717	215.7289	350.9244	394.7803	508.5736	539.9898	640.1924	682.4049	726.2639	761.6996	822.4637	860.3735	904.4087	912.421	1001.2266	1028.1647	1037.9089	1074.0527	1114.3562	1129.1134	1147.0552	1157.5226	1173.3174	1189.2591	1215.3539	1292.3696	1363.2007	1411.8829	1423.8724	1440.527	1471.6198	1489.4058	1490.2994	1514.0689	1515.9783	1617.9704	3033.9549	3101.6364	3103.0872	3106.6515	3158.4791	3186.153	3200.3149	3247.6704	3262.5291
CN1C=C(C=N1)N1CC1	Cn1cc(cn1)N1CC1	
InChI=1S/C6H9N3/c1-8-5-6(4-7-8)9-2-3-9/h4-5H,2-3H2,1H3	InChI=1S/C6H9N3/c1-8-5-6(4-7-8)9-2-3-9/h4-5H,2-3H2,1H3
