18
gdb 37504	3.74173	2.03342	1.7635	1.4355	78.07	-0.2205	0.0111	0.2315	822.9932	0.152245	-364.756808	-364.751308	-364.750364	-364.786196	24.983	
C	-0.0561009393	 1.4888981437	 0.0772807249	-0.184977
C	 1.4639541577	 1.4908751868	-0.0140902962	-0.063318
C	 1.9751727918	 0.4748155237	 1.0774903372	-0.066515
C	 2.4920395762	-0.4981533937	-0.0272370641	-0.069247
C	 2.1760782491	-1.8865775402	 0.4465287802	-0.088249
C	 1.1138734185	-1.8006482915	 1.2529889223	-0.08912
C	 0.6748025811	-0.3590713501	 1.2966547161	-0.023533
N	 0.0221896568	-0.022669223	-0.0398793529	-0.154601
C	 1.3396302741	 0.1856407602	-0.8365592396	-0.001101
H	-0.5569329554	 1.8480296489	 0.983007812	 0.095753
H	-0.5451569171	 1.9105029523	-0.8059237774	 0.103781
H	 2.0945145551	 2.3397941473	-0.2791093961	 0.065218
H	 2.5872871114	 0.7545523403	 1.9343253764	 0.067131
H	 3.4781662064	-0.2938835023	-0.4454210146	 0.067286
H	 2.6716121318	-2.7890671533	 0.1102337742	 0.099463
H	 0.561039571	-2.6152614527	 1.7026874295	 0.100494
H	 0.0162173573	-0.0756697467	 2.1178387975	 0.065168
H	 1.2128622835	 0.1061025304	-1.9144957392	 0.076365
329.659	370.221	434.7528	507.6674	629.7845	690.4493	732.2393	747.423	801.4417	814.3486	835.5549	845.456	870.8394	888.5517	915.4732	937.8668	947.1276	956.4409	978.2042	1001.5337	1015.3092	1028.7771	1052.6106	1099.5588	1128.8128	1150.0571	1158.1483	1188.8275	1205.8442	1215.1269	1232.3763	1255.6722	1272.0843	1291.528	1305.7855	1324.3108	1364.63	1510.0061	1648.2366	3036.8671	3093.4714	3107.5369	3109.5124	3111.0921	3125.2974	3136.7233	3198.8305	3225.8598
C1C2C3C4C=CC3N1C24	C1[C@H]2[C@@H]3[C@H]4C=C[C@@H]3N1[C@@H]24	
InChI=1S/C8H9N/c1-2-6-7-4(1)8-5(7)3-9(6)8/h1-2,4-8H,3H2	InChI=1S/C8H9N/c1-2-6-7-4(1)8-5(7)3-9(6)8/h1-2,4-8H,3H2/t4-,5+,6+,7+,8-/m1/s1
