17
gdb 82652	2.38217	1.74848	1.36098	2.1043	68.	-0.2279	0.0646	0.2926	985.803	0.134879	-458.89173	-458.883528	-458.882583	-458.923791	32.363	
O	-0.0746118878	 1.4976851051	 0.1123519881	-0.443463
C	 0.0072960234	 0.0902129944	 0.0936779438	 0.069524
C	 0.2539675531	-0.6912896852	 1.4287543191	-0.2052
C	-0.8239294567	-0.1380041259	 2.3987242056	-0.223027
C	-1.8477893402	-0.7990107007	 1.4808055819	-0.226405
C	-1.3128225084	-0.6461456703	 0.018823726	 0.328994
O	-2.1407053958	-0.7849262426	-1.07082963	-0.467276
C	-0.8153771572	-1.7498230549	 0.8994668223	 0.320992
O	-0.7709069956	-3.0917018131	 0.6460283772	-0.446851
H	 0.8182096975	 1.8570025858	 0.1063135365	 0.283168
H	 0.6845151121	-0.2688775021	-0.693317092	 0.077761
H	 1.2686941612	-0.9080269032	 1.7568710649	 0.068217
H	-0.7788682804	-0.6160006532	 3.3817389872	 0.089111
H	-0.8576239594	 0.9498071159	 2.5070829102	 0.102376
H	-2.9074065739	-0.9726288722	 1.621575598	 0.087822
H	-2.6767100031	 0.0128901969	-1.142232713	 0.291912
H	-0.8364312188	-3.5656508149	 1.4827818643	 0.292344
164.4575	199.2966	238.482	261.5494	294.5572	305.6004	330.0924	378.3756	389.2158	532.8286	600.6594	625.0827	672.8966	737.0613	796.0294	826.4905	909.3928	931.864	968.0702	988.6389	1000.0125	1028.3111	1082.4386	1115.387	1122.2471	1152.5764	1194.3645	1211.2722	1237.2501	1274.1271	1285.8007	1297.6166	1316.2939	1367.8697	1436.9646	1487.4097	1544.3559	3017.1645	3048.3498	3103.901	3134.4121	3197.5546	3788.1908	3793.6998	3816.741
OC1C2CC3C1(O)C23O	O[C@H]1[C@H]2C[C@H]3[C@]1(O)[C@@]23O	
InChI=1S/C6H8O3/c7-4-2-1-3-5(2,8)6(3,4)9/h2-4,7-9H,1H2	InChI=1S/C6H8O3/c7-4-2-1-3-5(2,8)6(3,4)9/h2-4,7-9H,1H2/t2-,3-,4+,5-,6-/m1/s1
