19
gdb 39837	2.85514	1.73405	1.38238	1.8554	78.2	-0.2541	0.0741	0.3282	990.6064	0.160872	-385.850124	-385.843087	-385.842143	-385.881271	29.425	
C	-0.0935433573	 1.486150068	-0.0254310993	-0.303461
C	 1.256942708	 0.8189314994	 0.0014357453	-0.327623
C	 0.0003569489	-0.0202829285	 0.0086598767	 0.376464
C	-0.3697652149	-0.8374159811	 1.2316806236	-0.140226
C	-1.8032649063	-1.2599127019	 1.4404770443	-0.297193
C	-0.8415353574	-2.2030574202	 0.7574449381	-0.066579
C	-0.8230824743	-2.1636005394	-0.7571728437	 0.026202
O	-1.7153824113	-1.2036707423	-1.3425728767	-0.261017
C	-0.326540007	-0.8519783422	-1.2036862873	-0.061676
H	-0.4367527951	 1.9846424215	 0.8746235023	 0.117219
H	-0.4168653288	 1.9579788905	-0.9471387125	 0.117351
H	 1.8573018389	 0.8345525451	-0.9027742112	 0.112698
H	 1.8357198901	 0.8638598019	 0.9181000703	 0.113527
H	 0.2631085673	-0.7423413423	 2.1080283988	 0.082612
H	-2.098337339	-1.5050413779	 2.4551305731	 0.104878
H	-2.5730928997	-0.8088359829	 0.8271229696	 0.137032
H	-0.536971541	-3.1206503438	 1.2459637297	 0.084193
H	-0.6893294921	-3.0808274235	-1.32387387	 0.093926
H	 0.1973288111	-0.6789243606	-2.141926881	 0.091672
126.4476	208.7001	281.2462	322.7809	374.4026	467.3229	540.6581	575.3663	693.7351	751.2065	777.3894	797.489	805.4567	856.3739	874.0167	897.7461	932.7712	935.7313	965.6603	980.7384	999.7862	1035.2268	1056.4866	1064.0003	1077.8128	1081.4665	1095.9766	1101.9325	1109.3599	1188.5227	1194.4619	1254.8662	1281.2284	1286.8422	1322.4541	1347.7154	1396.0775	1430.8296	1468.1524	1473.585	1503.0992	3124.1797	3127.5867	3132.663	3138.6471	3152.5952	3156.6834	3186.321	3204.1666	3220.9548	3235.5739
C1CC11C2CC2C2OC12	C1CC21[C@H]1C[C@H]1[C@H]1O[C@@H]21	
InChI=1S/C8H10O/c1-2-8(1)5-3-4(5)6-7(8)9-6/h4-7H,1-3H2	InChI=1S/C8H10O/c1-2-8(1)5-3-4(5)6-7(8)9-6/h4-7H,1-3H2/t4-,5+,6-,7-/m1/s1
