21
gdb 84926	2.12957	1.59345	1.08226	2.7922	84.82	-0.2329	-0.0088	0.2241	1197.6788	0.183706	-387.123982	-387.115079	-387.114135	-387.158082	33.699	
C	-0.6545741335	 1.3576913941	 0.2086580665	-0.400105
C	 0.0062611284	-0.0338547376	 0.0218425192	-0.118325
C	 0.713812209	-0.0882174551	-1.3104483503	-0.061391
C	 1.9963251383	-0.1736069205	-1.6692870607	-0.061197
C	 3.2705731159	-0.2486848478	-0.8684046228	-0.245796
C	 3.1885610989	-0.6608711579	 0.6023710611	-0.208327
C	 2.2029563751	 0.1781060854	 1.443156963	-0.28761
C	 0.794920238	-0.3647775215	 1.2861639675	 0.374717
O	 0.2922381736	-1.0496244333	 2.1495416201	-0.321757
H	 0.0978492931	 2.1495472527	 0.2738583736	 0.12407
H	-1.3017485882	 1.5835913731	-0.6441803336	 0.122903
H	-1.2632681771	 1.375305431	 1.117077853	 0.133655
H	-0.8072008752	-0.7692127268	 0.0041323487	 0.104255
H	 0.0014803589	-0.0103461411	-2.132395181	 0.0898
H	 2.180545619	-0.1513149843	-2.7430197017	 0.087869
H	 3.9540725761	-0.934843765	-1.3854086528	 0.108385
H	 3.7619215815	 0.7353159108	-0.9335145643	 0.112731
H	 2.9169360891	-1.7200741351	 0.68389686	 0.116932
H	 4.1885013464	-0.5670009294	 1.0388720724	 0.105267
H	 2.4541379941	 0.1092892586	 2.5040917866	 0.118443
H	 2.2585225884	 1.2296084198	 1.1367338156	 0.105481
42.8373	82.2358	216.4874	234.336	239.0746	276.4832	319.1157	362.6054	442.8022	497.2339	559.7638	676.9356	682.2163	745.3074	805.7343	825.689	879.7116	892.1108	924.7602	975.5639	995.7597	1018.3301	1027.1477	1085.6961	1091.1149	1110.3985	1164.3501	1205.74	1247.9351	1286.8967	1292.4635	1307.6317	1348.9652	1363.7558	1377.1779	1397.6217	1400.4108	1438.6861	1469.7469	1478.8707	1495.032	1496.064	1498.9477	1735.8781	1798.9984	2984.5253	3027.6741	3034.19	3036.502	3039.1229	3042.2778	3075.893	3107.8295	3108.7914	3111.3464	3119.574	3135.2731
CC1C=CCCCC1=O	C[C@H]1C=CCCCC1=O	
InChI=1S/C8H12O/c1-7-5-3-2-4-6-8(7)9/h3,5,7H,2,4,6H2,1H3	InChI=1S/C8H12O/c1-7-5-3-2-4-6-8(7)9/h3,5,7H,2,4,6H2,1H3/t7-/m0/s1
