16
gdb 124778	2.62417	1.4086	0.96371	1.8913	66.23	-0.2578	-0.0038	0.254	1170.2871	0.123753	-475.015728	-475.007254	-475.00631	-475.049108	31.543	
C	 0.2203929602	 1.3574060048	 0.4226357499	-0.415268
C	-0.1024862228	-0.0866681396	 0.0293876893	 0.000192
O	-1.5012259744	-0.2832976978	-0.1524268867	-0.421159
C	 0.6539322265	-0.5402388352	-1.1921782288	 0.052257
C	 0.1683400484	-1.1623804021	-2.2972288646	 0.004733
O	 1.1413676373	-1.4262587653	-3.1831626943	-0.176715
N	 2.354311732	-0.9741432552	-2.6610123617	-0.252282
C	 2.0482597616	-0.4614174987	-1.4948767749	 0.377111
O	 2.9834351604	 0.0706395316	-0.6882752276	-0.417835
H	 1.2875068463	 1.4784006799	 0.6244172451	 0.145935
H	-0.0469576882	 2.044343463	-0.3894755743	 0.110911
H	-0.3469845543	 1.6320467578	 1.3157039585	 0.125736
H	 0.1579232808	-0.742141372	 0.8701631397	 0.11305
H	-1.8124841501	 0.404185833	-0.7525247718	 0.280191
H	-0.8252257061	-1.478969511	-2.5713780519	 0.159411
H	 3.8367073225	-0.0098107333	-1.1357375561	 0.31373
53.547	160.2327	174.0083	264.6418	303.4115	313.5204	338.3989	367.1181	445.3875	497.8334	541.9951	595.4387	645.4897	740.2823	761.0054	864.5643	903.826	926.8895	960.796	1037.5603	1068.0859	1115.7056	1157.2909	1209.3411	1244.3564	1287.5703	1312.1999	1351.3703	1404.4026	1414.8846	1488.5152	1493.9206	1498.0492	1552.5263	1673.1974	3026.7491	3035.413	3108.1249	3135.6205	3275.8825	3777.789	3794.1423
CC(O)C1=CON=C1O	C[C@@H](O)c1conc1O	
InChI=1S/C5H7NO3/c1-3(7)4-2-9-6-5(4)8/h2-3,7H,1H3,(H,6,8)	InChI=1S/C5H7NO3/c1-3(7)4-2-9-6-5(4)8/h2-3,7H,1H3,(H,6,8)/t3-/m1/s1
