20
gdb 14968	4.07178	1.36094	1.07041	1.4029	77.45	-0.2231	0.0383	0.2614	1131.8455	0.178515	-349.022903	-349.014682	-349.013738	-349.055576	30.978	
O	 0.0920595512	 1.4294567825	-0.04391462	-0.41492
C	 0.0170953348	 0.018641608	 0.0370076466	-0.149577
C	-1.4135399	-0.4491594146	 0.035108237	 0.276779
C	-2.4447452234	 0.3963282549	 0.0517078648	-0.125553
C	-3.8878905398	-0.0357957733	 0.0305540138	-0.243809
C	-4.0530438343	-1.5172730189	-0.3376852271	-0.193343
C	-3.0165160337	-2.3765371114	 0.3945354513	-0.197599
C	-1.5920846769	-1.9511325009	 0.0128569797	-0.282072
H	 1.0169869353	 1.6820904068	 0.0185012493	 0.287942
H	 0.5478048092	-0.4578354109	-0.8079442665	 0.087801
H	 0.5112363225	-0.353557774	 0.9530004294	 0.089464
H	-2.2430797274	 1.4623253146	 0.0816533184	 0.099491
H	-4.3396260817	 0.1590211056	 1.0155905812	 0.102396
H	-4.4502734929	 0.5930821049	-0.6717316883	 0.098864
H	-5.0693750678	-1.8555331383	-0.1084287888	 0.08793
H	-3.9171352079	-1.6384826491	-1.4204542977	 0.095477
H	-3.1510542469	-2.2596072129	 1.477841961	 0.096683
H	-3.1639889255	-3.4389009076	 0.1716949253	 0.088286
H	-1.3430836715	-2.3335347748	-0.9890803364	 0.102951
H	-0.8652849533	-2.4213059407	 0.6899567771	 0.092807
77.0192	127.3947	214.7969	221.6496	238.0745	296.902	380.6307	435.4765	480.6446	523.1829	648.2404	777.7359	820.8943	835.2063	867.0246	925.8651	947.2329	971.9241	1034.9888	1059.7663	1072.6925	1098.0523	1104.1886	1158.459	1161.0763	1192.3108	1232.7411	1256.3942	1270.5335	1298.6174	1335.766	1367.8254	1373.7586	1381.7991	1397.3198	1461.1093	1474.1081	1480.6498	1490.1814	1500.6829	1509.8703	1747.9641	2929.5805	2941.5769	2988.7896	2989.0073	3013.3856	3017.7387	3029.302	3036.1734	3066.3562	3070.4729	3183.3185	3842.5405
OCC1=CCCCC1	OCC1=CCCCC1	
InChI=1S/C7H12O/c8-6-7-4-2-1-3-5-7/h4,8H,1-3,5-6H2	InChI=1S/C7H12O/c8-6-7-4-2-1-3-5-7/h4,8H,1-3,5-6H2
