20
gdb 81409	3.9512	1.0913	1.04046	4.5371	81.41	-0.2298	0.0395	0.2693	1231.9149	0.172684	-403.158905	-403.150775	-403.14983	-403.192479	31.269	
C	-0.0805967672	 1.5711816819	 0.006804251	-0.43727
C	 0.0313715322	 0.0528673074	 0.0125331374	 0.051529
C	 0.8011701525	-0.6347547475	-1.172935355	-0.063699
C	 2.1179042838	-0.320399459	-0.3930556184	-0.238687
C	 1.1930204163	-0.6121983307	 0.8222860347	-0.025638
N	 0.8896135662	-2.0306400473	 0.6091978549	-0.010476
C	 0.5975327441	-2.1264619343	-0.8327583336	-0.18164
C	 1.0093817177	-3.070852559	 1.4595271063	 0.127878
O	 0.8170307307	-4.2342504408	 1.1617842496	-0.348277
H	 0.8647068978	 2.0762319099	-0.2073269385	 0.121078
H	-0.8042372948	 1.8936320657	-0.7495724971	 0.123758
H	-0.4377414601	 1.9340615075	 0.9766178929	 0.122876
H	-0.9486071389	-0.3853177066	 0.2303841762	 0.077559
H	 0.651629492	-0.3424759353	-2.2117311768	 0.074934
H	 2.9714581462	-0.9873460382	-0.5358775012	 0.105438
H	 2.4322902718	 0.7189961359	-0.4703621737	 0.110525
H	 1.4370543644	-0.3661870782	 1.8552148333	 0.08079
H	-0.4208775253	-2.4832067354	-1.0154380856	 0.122169
H	 1.2983748345	-2.798168208	-1.3379914632	 0.124352
H	 1.2970887861	-2.7426017181	 2.4794598469	 0.062802
23.7147	178.6842	190.4651	270.776	282.6125	315.693	397.0464	435.6676	489.9582	565.6797	703.3106	782.9778	822.6006	840.2583	848.0799	887.8489	935.7721	974.8948	1000.169	1028.4436	1029.4346	1064.2662	1082.3345	1096.1334	1113.3941	1125.6103	1184.9711	1190.6228	1220.2149	1246.3037	1261.288	1266.2676	1277.2156	1334.2039	1392.1562	1416.0192	1418.6873	1464.3612	1490.2485	1497.2025	1509.5056	1522.4536	1785.3214	2919.8833	3035.7951	3046.1155	3049.4075	3077.9009	3090.8464	3094.6652	3114.9226	3124.276	3129.285	3153.6391
CC1C2CC1N(C2)C=O	C[C@H]1[C@H]2C[C@@H]1N(C2)C=O	
InChI=1S/C7H11NO/c1-5-6-2-7(5)8(3-6)4-9/h4-7H,2-3H2,1H3	InChI=1S/C7H11NO/c1-5-6-2-7(5)8(3-6)4-9/h4-7H,2-3H2,1H3/t5-,6-,7-/m0/s1
