12
gdb 27618	3.76916	1.30396	0.9688	1.9261	71.76	-0.2819	-0.0748	0.2072	1101.9328	0.079102	-431.695035	-431.688033	-431.687089	-431.726689	26.039	
O	 0.1128999038	 1.289033313	 0.0865654724	-0.377194
C	 0.071316406	-0.0401172354	 0.0521832472	 0.456811
N	 0.078205287	-0.6236834792	-1.1484309972	-0.37203
C	 0.0349027036	-1.9606212722	-1.1117511213	 0.173537
N	-0.0123250413	-2.7008814126	 0.0060404149	-0.288306
C	-0.0133377982	-1.9842501316	 1.1297621251	 0.071376
N	 0.0266485337	-0.6587768246	 1.2321158028	-0.274641
C	 0.0394383887	-2.6528217037	-2.3642773567	 0.273401
C	 0.0431749404	-3.2356707436	-3.4153527134	-0.325401
H	 0.1419734565	 1.5901065004	-0.8331522901	 0.313576
H	-0.0508451966	-2.5419318201	 2.0627839978	 0.139296
H	 0.0463628663	-3.7534091205	-4.3433957216	 0.209575
127.7789	149.4438	189.7445	332.7673	424.5547	482.5425	513.3265	582.1034	601.8815	603.4477	655.3408	679.0086	762.2233	802.9343	859.2227	992.0618	1010.3671	1025.3999	1186.3302	1260.6916	1291.9348	1381.2779	1440.8479	1486.4071	1589.264	1611.6618	2243.9124	3168.9396	3498.5649	3767.7529
OC1=NC(=NC=N1)C#C	Oc1nc(ncn1)C#C	
InChI=1S/C5H3N3O/c1-2-4-6-3-7-5(9)8-4/h1,3H,(H,6,7,8,9)	InChI=1S/C5H3N3O/c1-2-4-6-3-7-5(9)8-4/h1,3H,(H,6,7,8,9)
