23
gdb 80864	2.09352	1.6503	1.40702	1.4648	84.35	-0.247	0.0678	0.3148	1106.8198	0.206627	-388.293274	-388.284314	-388.28337	-388.325946	36.111	
C	-0.0981101022	 1.5113856785	-0.012829131	-0.425326
C	 0.0765249229	-0.0069210971	 0.0169298472	-0.000087
C	 1.0317604516	-0.5792406279	-1.0887423753	-0.257245
C	 2.0134782307	-1.3703794875	-0.2034173183	-0.072021
C	 2.288807783	-0.3582935742	 0.9413456574	-0.27343
C	 0.7812984839	-0.5865578618	 1.2757363079	 0.303205
C	 0.1826561361	-0.2865398893	 2.6307750159	-0.511143
C	 1.059354833	-2.0585202705	 0.8130438744	 0.141647
O	 0.0256844463	-2.9156420069	 0.4069864177	-0.452712
H	 0.8562006571	 2.0349468576	 0.1075679449	 0.116065
H	-0.5291329237	 1.8315819918	-0.9675827099	 0.113096
H	-0.7693697983	 1.8533304264	 0.7816884066	 0.116165
H	-0.9232791897	-0.4539088058	-0.067361797	 0.057168
H	 0.5147830025	-1.207624738	-1.8231339367	 0.086949
H	 1.5342769951	 0.2160760492	-1.6481255321	 0.098608
H	 2.815168005	-1.9153868477	-0.7023525824	 0.058938
H	 2.9516635797	-0.755092475	 1.7144689507	 0.095405
H	 2.6095989806	 0.6473621463	 0.6602055916	 0.092367
H	 0.1485137742	 0.7893379283	 2.8342258975	 0.115417
H	-0.8423587732	-0.6703550456	 2.6956343341	 0.120019
H	 0.763552397	-0.7563235622	 3.4315527153	 0.112398
H	 1.6131953522	-2.6074276985	 1.5793338263	 0.080892
H	-0.4411058336	-2.51621175	-0.333504905	 0.283627
159.9221	192.0249	212.375	225.9558	252.6908	261.093	282.7265	335.8145	394.6681	460.126	522.1209	580.3217	614.2623	700.9754	769.67	812.9134	836.5046	851.7845	892.633	926.4657	935.6268	982.8248	998.1427	1017.0516	1057.9018	1074.5525	1097.0965	1138.6181	1156.009	1162.6788	1175.0814	1201.5003	1227.0959	1247.0042	1260.6755	1285.2124	1306.7019	1320.7544	1348.7479	1388.4162	1410.3687	1415.6643	1447.788	1489.7572	1492.6641	1497.9551	1502.2887	1506.2553	1520.6575	3001.9764	3024.5131	3031.018	3036.2627	3062.8189	3077.4874	3081.6341	3088.1712	3092.6025	3095.483	3102.1786	3112.8477	3118.9438	3822.8738
CC1CC2CC1(C)C2O	C[C@H]1C[C@H]2C[C@]1(C)[C@H]2O	
InChI=1S/C8H14O/c1-5-3-6-4-8(5,2)7(6)9/h5-7,9H,3-4H2,1-2H3	InChI=1S/C8H14O/c1-5-3-6-4-8(5,2)7(6)9/h5-7,9H,3-4H2,1-2H3/t5-,6-,7-,8-/m0/s1
