18
gdb 11301	4.95094	1.2613	1.14507	2.6723	68.35	-0.2447	-0.0211	0.2235	1071.109	0.153402	-384.95869	-384.950482	-384.949538	-384.992464	29.305	
C	 0.1376526777	 1.3827853516	 0.2791331405	-0.397221
C	-0.1045971712	-0.0467501816	-0.2009884047	 0.148166
C	 0.8529437721	-0.4856396954	-1.3423095694	-0.282327
C	 1.6148351022	-1.7152697163	-0.7754074221	-0.08185
C	 1.3833248025	-1.5465081698	 0.7407783322	-0.116486
O	 0.0903704954	-0.9879794823	 0.8624679801	-0.256327
C	 1.003694191	-3.0093397584	-1.2639091474	 0.159496
O	 1.5779623819	-3.8321688167	-1.9299013553	-0.255182
H	 1.1749431529	 1.5177817865	 0.6040908256	 0.11732
H	-0.0598237413	 2.0974176705	-0.5270878254	 0.117132
H	-0.519944956	 1.6197496753	 1.1197410408	 0.128044
H	-1.1522594083	-0.1513081491	-0.5035454624	 0.085199
H	 0.3083715519	-0.7257895718	-2.2596668608	 0.119055
H	 1.56194097	 0.309478143	-1.5879492563	 0.115983
H	 2.6724740992	-1.715647512	-1.0471607787	 0.095427
H	 1.394123601	-2.4885242265	 1.2982150616	 0.119132
H	 2.1588468582	-0.8907607093	 1.1670652623	 0.098883
H	-0.056579089	-3.1573950276	-0.9524079907	 0.085558
32.58	74.5231	140.6097	251.8923	263.0078	319.3745	364.5882	417.46	466.3585	693.1201	738.9015	816.9632	864.5259	894.1092	915.9888	951.6162	971.1082	1018.616	1032.4665	1093.0025	1116.2783	1133.1738	1164.1653	1227.5712	1233.3916	1243.2213	1311.21	1322.5158	1344.1382	1374.8509	1396.3156	1406.3714	1425.9121	1487.2481	1494.2409	1499.7366	1517.2651	1832.4964	2866.7366	2976.8854	3034.4474	3041.7851	3061.6162	3077.3752	3095.7892	3103.5551	3106.2004	3120.327
CC1CC(CO1)C=O	C[C@H]1C[C@@H](CO1)C=O	
InChI=1S/C6H10O2/c1-5-2-6(3-7)4-8-5/h3,5-6H,2,4H2,1H3	InChI=1S/C6H10O2/c1-5-2-6(3-7)4-8-5/h3,5-6H,2,4H2,1H3/t5-,6+/m0/s1
