17
gdb 64987	3.38489	1.10189	0.90732	3.4223	71.32	-0.2559	-0.0283	0.2275	1272.6628	0.13512	-455.161303	-455.152347	-455.151403	-455.195338	32.422	
C	-0.1598954904	 1.2194949871	-1.1359038597	-0.459736
C	-0.1193068709	 0.0628112152	-0.1709510661	 0.356327
C	 0.9674331262	-0.9336154109	-0.2303895684	-0.21093
O	 0.9531948257	 0.0657551066	 0.7949647217	-0.288976
C	-1.4527405193	-0.3796583603	 0.3883146391	 0.30625
N	-2.5042743254	-0.2590332427	-0.3095650947	-0.516504
N	-1.3398853571	-0.9067152308	 1.6875184673	-0.347407
C	-2.3535093002	-1.4301520756	 2.4473228489	 0.163872
O	-3.5041404211	-1.5638831877	 2.0944538942	-0.299923
H	 0.841790262	 1.4326436785	-1.5159164358	 0.121424
H	-0.8280859095	 0.9813506446	-1.9655243454	 0.160031
H	-0.5486256334	 2.1147179078	-0.6422488736	 0.136249
H	 0.791577527	-1.9529908269	 0.1088860087	 0.12355
H	 1.7477436912	-0.8173369698	-0.9799602312	 0.131425
H	-3.3135952677	-0.6236256285	 0.1941794948	 0.255548
H	-0.4242772426	-0.7955763953	 2.1060593648	 0.271782
H	-1.9948844944	-1.7304197812	 3.4502855056	 0.097018
66.1712	94.8895	175.9322	187.6415	251.7668	269.5858	305.3232	330.2837	380.1712	479.9749	497.3933	656.4111	713.6385	738.3332	805.2019	869.2436	923.0056	940.3994	967.4629	996.6246	1028.3653	1048.8709	1102.3943	1137.163	1163.7361	1193.7115	1244.618	1361.1019	1373.9755	1413.2411	1437.2967	1475.8575	1493.5112	1510.0532	1527.8408	1728.8336	1809.674	2954.4564	3055.218	3091.4908	3126.2916	3148.2883	3182.8837	3486.7401	3565.7122
CC1(CO1)C(=N)NC=O	C[C@]1(CO1)C(=N)NC=O	
InChI=1S/C5H8N2O2/c1-5(2-9-5)4(6)7-3-8/h3H,2H2,1H3,(H2,6,7,8)	InChI=1S/C5H8N2O2/c1-5(2-9-5)4(6)7-3-8/h3H,2H2,1H3,(H2,6,7,8)/t5-/m0/s1
