18
gdb 85690	2.35529	1.42632	1.08879	5.2707	76.72	-0.2551	0.0153	0.2703	1160.3154	0.148069	-398.090566	-398.081913	-398.080969	-398.124062	32.304	
C	-0.8663485344	 1.2334859114	-0.0142967183	-0.394109
C	-0.0134640667	-0.0219635874	-0.0452526072	-0.028869
N	 1.2902989498	 0.1220474536	-0.7553873013	-0.327457
C	 2.0132099499	-0.6268498855	 0.3017024102	-0.183739
C	 3.2785829586	-0.0305242324	 0.7304390684	 0.306624
N	 4.2717101639	 0.4335570332	 1.0965354354	-0.332295
C	 0.7784395463	-0.4371070465	 1.2050143507	 0.317432
C	 0.7006588207	 0.0952506385	 2.5771111007	-0.29519
N	 0.4137140935	-1.3279483928	 2.2836501911	-0.362196
H	-0.2832855395	 2.0840500574	 0.3476835185	 0.134581
H	-1.2355365621	 1.472497722	-1.0169906456	 0.124204
H	-1.7385256684	 1.0964230425	 0.6352564006	 0.112941
H	-0.6070598051	-0.8732829712	-0.415420974	 0.074738
H	 1.3391642847	-0.3004461695	-1.6755913422	 0.229737
H	 2.1803251315	-1.6913431175	 0.0886398975	 0.120396
H	 1.612125982	 0.2692538895	 3.1415818408	 0.145539
H	-0.1250788029	 0.7590520843	 2.8190250396	 0.121746
H	-0.5894642219	-1.5005516695	 2.280941795	 0.235915
64.6068	121.4649	200.1302	211.4032	218.9276	280.958	347.2332	385.5292	489.6345	524.4448	544.6797	585.9435	688.9472	817.0984	843.6388	895.4211	931.4082	941.9011	967.3998	990.9703	1016.8135	1057.7589	1083.0841	1098.781	1126.325	1157.4396	1178.851	1254.9283	1262.6046	1305.8198	1342.6132	1379.606	1397.6862	1412.3932	1426.3791	1486.7611	1492.9346	1518.985	2357.2046	2969.4734	3015.4437	3033.2202	3098.208	3112.8845	3125.1543	3201.8088	3489.3576	3540.317
CC1NC(C#N)C11CN1	C[C@H]1N[C@@H](C#N)[C@]21CN2	
InChI=1S/C6H9N3/c1-4-6(3-8-6)5(2-7)9-4/h4-5,8-9H,3H2,1H3	InChI=1S/C6H9N3/c1-4-6(3-8-6)5(2-7)9-4/h4-5,8-9H,3H2,1H3/t4-,5+,6-/m1/s1
