19
gdb 18089	4.99915	1.2261	1.19435	2.946	71.92	-0.244	0.0861	0.33	1080.042	0.166416	-365.007154	-364.999464	-364.99852	-365.039617	29.355	
O	 0.174860752	 1.2490017537	-0.3660106332	-0.422806
C	 0.0210582608	-0.0843071908	 0.0708434457	-0.043904
C	-1.4516995823	-0.4259449693	 0.3001829668	-0.158732
N	-2.1733687708	-0.1447528024	-0.9387938903	-0.086543
C	-2.52812728	-1.1537011973	-1.9188546023	-0.042722
C	-2.9717984956	-2.4838582026	-1.2816289309	-0.244129
C	-4.0478558843	-1.7049772689	-0.4600206579	-0.244166
C	-3.5800773242	-0.4001194304	-1.1346745623	-0.040825
H	-0.5320186026	 1.3779801435	-1.013307264	 0.283237
H	 0.4477728233	-0.7980748208	-0.6552741854	 0.080925
H	 0.5818355584	-0.1936123925	 1.0055432868	 0.101118
H	-1.5472423922	-1.4626264248	 0.6530865015	 0.090632
H	-1.8588542955	 0.2342810863	 1.0742492694	 0.110939
H	-2.1892539295	-1.0202333243	-2.9404660671	 0.094871
H	-3.4243295436	-3.1535839055	-2.0158076862	 0.110305
H	-2.2124632797	-3.043507375	-0.7272280575	 0.104408
H	-5.0648041628	-1.9808640238	-0.7459064152	 0.109048
H	-3.9720515127	-1.736537511	 0.630716518	 0.104191
H	-4.2169247987	 0.4261163359	-1.4330121458	 0.094151
53.0446	129.3556	192.5119	232.4672	304.6094	410.0937	498.4841	523.9155	549.9793	707.2463	778.107	786.9383	836.9498	876.5059	906.2459	946.5227	948.873	961.3249	994.1322	1037.5303	1063.9453	1093.2422	1100.4788	1129.9146	1142.6629	1217.2121	1222.6903	1229.9374	1250.6744	1270.1654	1280.5665	1284.2516	1370.2998	1380.8032	1396.9996	1445.615	1469.71	1488.0308	1500.5562	1510.9868	2953.6187	3005.6221	3055.8126	3063.0003	3064.4982	3072.4947	3105.1487	3122.5129	3161.75	3174.1566	3745.9551
OCCN1C2CCC12	OCCN1[C@H]2CC[C@@H]12	
InChI=1S/C6H11NO/c8-4-3-7-5-1-2-6(5)7/h5-6,8H,1-4H2	InChI=1S/C6H11NO/c8-4-3-7-5-1-2-6(5)7/h5-6,8H,1-4H2/t5-,6+,7?
