18
gdb 48586	3.33572	1.45276	1.26801	2.9546	75.99	-0.2365	-0.022	0.2145	1020.764	0.149491	-401.900603	-401.893512	-401.892568	-401.932341	28.529	
O	-0.6685732638	 0.8044605503	 0.6698311389	-0.252945
C	 0.1208932188	 1.0039058459	-0.2213949366	 0.02576
C	 1.3523808714	 1.8338496463	-0.0969777874	 0.266682
C	 1.8245721981	 2.4880959988	 1.2443461892	-0.255611
C	 3.1984720948	 2.5253196393	 0.4844354038	-0.057857
C	 2.7719044807	 1.1682117799	-0.136853556	-0.273813
C	 2.8522512052	 3.5366656729	-0.6271369177	-0.026352
N	 2.6872502915	 2.9560277763	-1.9810184511	-0.340937
C	 1.5289066493	 3.0367849423	-1.0625291295	-0.106677
H	-0.0275543843	 0.5501709815	-1.2294682648	 0.073954
H	 1.3709558729	 3.4423922145	 1.5250290498	 0.095868
H	 1.8043132425	 1.7921572373	 2.0849475022	 0.112642
H	 4.1479919752	 2.6402579662	 1.0058390899	 0.069957
H	 2.8405067871	 0.3535915463	 0.5854671793	 0.105796
H	 3.1784443942	 0.8855539529	-1.1047693784	 0.133535
H	 3.078787555	 4.5902295444	-0.5120313038	 0.09636
H	 2.6153256656	 3.7160420066	-2.6548648612	 0.23277
H	 0.6868386057	 3.6779789481	-1.2956026665	 0.100868
70.0632	166.3228	266.3579	346.7625	408.3791	466.5309	525.8479	586.1052	670.0931	705.6462	785.5741	804.3158	853.2516	876.7845	889.7029	902.3637	924.5124	958.7359	964.166	1006.7036	1040.0447	1046.894	1077.0739	1089.5572	1129.1845	1155.7733	1175.4628	1193.7603	1220.3906	1233.3893	1238.7053	1274.0549	1303.6552	1342.3509	1392.135	1424.1212	1475.2371	1514.4391	1815.2793	2857.3	3064.8712	3093.341	3122.1157	3134.6997	3173.1588	3176.0562	3186.4599	3491.1828
O=CC12CC(C1)C1NC21	O=C[C@@]12C[C@@H](C1)[C@H]1N[C@@H]21	
InChI=1S/C7H9NO/c9-3-7-1-4(2-7)5-6(7)8-5/h3-6,8H,1-2H2	InChI=1S/C7H9NO/c9-3-7-1-4(2-7)5-6(7)8-5/h3-6,8H,1-2H2/t4-,5-,6-,7+/m1/s1
