17
gdb 8163	2.83336	2.68372	1.76626	2.8154	69.05	-0.2545	0.0329	0.2875	794.5103	0.143791	-363.864396	-363.857629	-363.856685	-363.894944	27.072	
C	-0.0272194963	 1.5530415151	 0.028737314	-0.490812
C	 0.0301743279	 0.0485376878	 0.0307381068	 0.206702
C	 0.9348322488	-0.8146289319	-0.9315189813	-0.268244
C	 0.5673377806	-1.9053071088	 0.0951732137	 0.092863
C	 0.65113287	-0.822653617	 1.1904185302	-0.268243
O	-0.873943044	-2.0395176795	-0.0980258031	-0.26498
C	-1.2643752825	-0.7173120731	-0.1452331254	 0.43244
N	-2.4317361806	-0.2710755636	-0.299589667	-0.582534
H	 0.9680683183	 1.9871758873	 0.1639489261	 0.110384
H	-0.4422889911	 1.9197946067	-0.9147127461	 0.136143
H	-0.6767346563	 1.9131688929	 0.8320566033	 0.136167
H	 0.6026470901	-0.9612066417	-1.9615766315	 0.114145
H	 1.9836802397	-0.5142093671	-0.8923044852	 0.10801
H	 1.0176110785	-2.8932633696	 0.1516396684	 0.092694
H	 1.6731462048	-0.522988524	 1.4303383527	 0.108009
H	 0.0601739038	-0.9765542948	 2.0959198332	 0.114146
H	-3.1038866617	-1.0351771987	-0.3923189888	 0.223109
162.626	195.3764	246.7799	307.8363	453.029	466.9375	509.2325	605.8806	664.1889	712.9367	788.6885	830.887	866.2524	893.832	898.8639	920.4805	966.0598	988.4483	1005.5314	1031.5956	1044.994	1104.8738	1120.982	1195.9658	1218.403	1230.7797	1244.4399	1247.3615	1317.7469	1382.6645	1420.1352	1473.9124	1485.9333	1488.718	1511.2542	1804.0129	3041.3366	3067.8185	3073.5368	3112.6137	3115.0308	3135.7914	3140.4155	3155.5824	3467.2128
CC12CC(C1)OC2=N	C[C@@]12C[C@@H](C1)O[C]2[NH]	
InChI=1S/C6H9NO/c1-6-2-4(3-6)8-5(6)7/h4,7H,2-3H2,1H3	InChI=1S/C6H9NO/c1-6-2-4(3-6)8-5(6)7/h4,7H,2-3H2,1H3/t4-,6+
