16
gdb 124184	5.15756	0.77768	0.68145	4.3932	77.97	-0.2465	0.0008	0.2473	1594.6042	0.124569	-396.908314	-396.899423	-396.898478	-396.944407	30.484	
C	 0.2415136698	 1.334532047	-0.7773685317	-0.497731
C	 0.0731522503	-0.0109982674	-0.245843852	 0.073253
C	-0.0524397397	-1.1216996173	 0.2010466093	 0.061092
C	-0.2050346561	-2.4687022511	 0.742812276	-0.470672
C	-1.4666598968	-3.1566439217	 0.3006403677	 0.319956
C	-2.4777881279	-2.7189717069	-0.5198551584	-0.145475
N	-3.3409282224	-3.7621102652	-0.5525544085	-0.160213
N	-2.9045398279	-4.7897808008	 0.1967771269	-0.116979
N	-1.7679797817	-4.4225420494	 0.714152087	-0.251007
H	 1.1749721506	 1.7849397432	-0.4223485486	 0.151831
H	 0.2727832145	 1.3314472498	-1.8725325539	 0.147129
H	-0.5793021806	 1.9920272295	-0.4702330288	 0.147129
H	 0.655396085	-3.087535494	 0.455875183	 0.152131
H	-0.1852715246	-2.4355640597	 1.8401437794	 0.152133
H	-2.6379288737	-1.7975004131	-1.0513637067	 0.155514
H	-4.2160635887	-3.8472328329	-1.0440198105	 0.281909
25.266	32.4032	75.4495	198.3536	236.3289	258.4683	339.1156	379.4086	452.6986	571.7545	668.5577	728.4454	728.7253	781.31	794.097	953.5277	987.0932	1033.1895	1053.0722	1054.9191	1055.084	1127.0013	1166.9091	1220.3884	1243.3116	1281.2439	1335.1811	1374.0518	1415.6744	1464.6	1478.978	1479.6695	1489.2377	1595.4689	2377.3983	3018.6537	3027.358	3041.5267	3087.3241	3088.829	3299.12	3660.4805
CC#CCC1=CNN=N1	CC#CCc1c[nH]nn1	
InChI=1S/C6H7N3/c1-2-3-4-6-5-7-9-8-6/h5H,4H2,1H3,(H,7,8,9)	InChI=1S/C6H7N3/c1-2-3-4-6-5-7-9-8-6/h5H,4H2,1H3,(H,7,8,9)
