18
gdb 38502	3.0631	1.78708	1.61977	1.3782	73.76	-0.2244	0.0755	0.2999	903.1135	0.150154	-401.882301	-401.87566	-401.874716	-401.912962	27.794	
C	 0.0076525688	 1.5760535857	 0.0293593124	-0.267774
C	 1.5797160395	 1.5615657519	 0.1159200841	-0.270734
C	 1.5298511428	 0.0356691959	-0.074731511	 0.225818
N	 0.7098678248	-0.5308701169	 1.017816651	-0.39911
C	 0.0410744079	 0.0488541573	-0.1638885975	 0.260517
C	-0.453971	-0.8729871423	-1.2645584522	-0.356491
C	 0.8574245236	-1.4411444238	-1.831015103	 0.057893
O	 1.6833355998	-0.4520995858	-2.4509590455	-0.251445
C	 2.0421038165	-0.8863177308	-1.127875399	-0.088915
H	-0.5342178412	 1.9289994093	 0.9095976374	 0.107063
H	-0.3509650944	 2.1022699792	-0.857851671	 0.10888
H	 2.0440145947	 2.0717711116	-0.7293683642	 0.117125
H	 2.0283679594	 1.9061112776	 1.0499805127	 0.107163
H	 0.7080293225	-1.5456545006	 0.9228531681	 0.227566
H	-1.119962999	-1.6698477568	-0.9117010658	 0.105232
H	-0.9908801879	-0.3193469184	-2.0421498427	 0.122924
H	 0.8752141749	-2.4178504708	-2.3101607709	 0.098002
H	 2.9885173174	-1.4189846524	-1.0621489527	 0.096286
161.2711	210.6023	318.7893	376.7815	462.9557	481.5193	520.2029	646.9372	678.9805	740.9088	767.2877	793.6476	830.4927	849.7501	877.9738	919.1134	933.0973	954.2557	973.745	1024.2315	1047.1762	1069.6096	1099.0867	1120.0462	1130.8021	1184.075	1225.9385	1234.4574	1238.0705	1252.0014	1282.8947	1301.5953	1352.8945	1367.2099	1379.8177	1410.5755	1462.3234	1480.2507	1486.0159	3030.7584	3065.8553	3074.8543	3078.0916	3120.2084	3129.6051	3139.8559	3142.1357	3481.1851
C1CC23NC12CC1OC31	C1C[C@@]23N[C@@]12C[C@H]1O[C@@H]31	
InChI=1S/C7H9NO/c1-2-7-5-4(9-5)3-6(1,7)8-7/h4-5,8H,1-3H2	InChI=1S/C7H9NO/c1-2-7-5-4(9-5)3-6(1,7)8-7/h4-5,8H,1-3H2/t4-,5-,6-,7+/m1/s1
