22
gdb 9912	4.50712	0.96283	0.90133	0.9513	79.34	-0.2429	0.0897	0.3327	1411.651	0.198057	-350.193362	-350.183628	-350.182684	-350.228248	35.519	
C	 0.141052281	 1.3965615637	-0.2582169299	-0.382422
C	-0.0440662773	-0.0735048859	 0.1251655996	-0.178908
C	-1.4867325848	-0.5377409577	-0.0267965354	-0.052783
O	-1.5602547526	-1.896855327	 0.3733635559	-0.291329
C	-2.788013543	-2.5288905972	 0.1283636899	 0.457
C	-3.9377025369	-2.0674809328	 0.9983811459	-0.456232
C	-3.0455881178	-2.9838259582	-1.2894249546	-0.317597
C	-2.6500199657	-3.9805211661	-0.2151590328	-0.312089
H	 1.1836059875	 1.705818893	-0.1402971483	 0.116335
H	-0.1421951012	 1.5766858052	-1.3012915179	 0.115113
H	-0.4724063094	 2.0533115473	 0.3686720217	 0.115542
H	 0.5951637502	-0.7129806386	-0.4944831903	 0.102974
H	 0.2656861276	-0.2376193025	 1.1637188692	 0.106318
H	-2.1491547556	 0.0895445302	 0.5906537251	 0.085716
H	-1.81866098	-0.4294592313	-1.0718655916	 0.084397
H	-4.2050436852	-1.023733675	 0.8019574507	 0.117499
H	-4.8282005409	-2.6751043506	 0.8142808217	 0.115674
H	-3.6733920929	-2.1581237382	 2.0573641747	 0.123134
H	-4.0653322191	-2.9931544234	-1.6595968221	 0.108568
H	-2.2952836029	-2.7388536827	-2.0326468051	 0.11433
H	-1.6406078215	-4.3730404279	-0.2527999783	 0.120833
H	-3.3979441595	-4.6733562242	 0.154878732	 0.107927
55.5546	67.9442	128.8973	159.7775	224.7723	229.7841	287.6899	301.5997	345.7378	409.6376	426.9808	525.6021	722.3451	765.6163	777.8367	856.7154	900.2015	904.8837	923.8389	934.0987	963.917	1034.1124	1049.3425	1058.1871	1076.1814	1103.4529	1122.3891	1156.2042	1190.025	1192.8663	1267.0302	1289.2816	1313.2851	1332.251	1342.1552	1412.4189	1414.5118	1430.7397	1452.7466	1485.5765	1491.1902	1492.5646	1500.3822	1507.1584	1508.4377	1528.9173	2968.1669	2996.9157	3030.9864	3033.8532	3037.9696	3070.4825	3096.3507	3098.7954	3107.1494	3112.8532	3132.2449	3137.8088	3216.5556	3231.7872
CCCOC1(C)CC1	CCCOC1(C)CC1	
InChI=1S/C7H14O/c1-3-6-8-7(2)4-5-7/h3-6H2,1-2H3	InChI=1S/C7H14O/c1-3-6-8-7(2)4-5-7/h3-6H2,1-2H3
