20
gdb 63782	3.30762	1.24841	1.17652	2.3379	79.08	-0.2273	-0.027	0.2003	1145.3037	0.169359	-403.127948	-403.119243	-403.118298	-403.161384	33.813	
C	 0.3466190618	 1.4284481366	-0.1288625865	-0.450032
C	 0.0325827004	-0.062056844	-0.0647285555	 0.343298
C	-1.4687551893	-0.3031378663	-0.1990088374	-0.410023
C	 0.8930671701	-0.97127271	-1.0020209584	-0.316138
C	 1.382692427	-1.695067699	 0.272035486	-0.095743
C	 2.6434676328	-1.1183654589	 0.9363657146	 0.38686
O	 3.8198787974	-1.2725023766	 0.7988904395	-0.284897
C	 1.7401486563	-0.2675874313	 1.8504437879	-0.314455
N	 0.5285401464	-0.8168883525	 1.1675834471	-0.170093
H	 1.4199570939	 1.6368198158	-0.1545581529	 0.120425
H	-0.0871127319	 1.8546288291	-1.0394796964	 0.122966
H	-0.0880917368	 1.9587786195	 0.7259830427	 0.125473
H	-1.8370661237	 0.053779472	-1.1675327994	 0.108328
H	-1.6973228865	-1.3688807292	-0.1114582417	 0.118637
H	-2.0119894771	 0.220437123	 0.5942956727	 0.118554
H	 0.3160514964	-1.6006590201	-1.6827069464	 0.11227
H	 1.672293328	-0.4621585307	-1.5744506283	 0.116322
H	 1.2578534789	-2.7801290531	 0.328632295	 0.101168
H	 1.7833476393	-0.584756068	 2.8993679177	 0.136801
H	 1.8862597666	 0.8153617237	 1.8188118498	 0.130278
40.2529	145.8891	216.2006	258.0824	284.255	343.0806	349.3451	374.8256	424.1759	451.8034	511.8555	592.6725	677.8336	747.9745	785.5752	847.3699	883.8608	927.9734	942.4729	961.1385	975.1899	982.2847	1017.0463	1055.9831	1067.5867	1114.2284	1157.4281	1174.7816	1205.9074	1231.538	1254.7886	1260.7066	1288.539	1295.059	1399.5543	1415.4475	1453.4849	1478.632	1482.3836	1487.8543	1498.4002	1508.7416	1899.1876	3027.713	3032.4825	3037.5816	3063.2517	3070.9869	3096.2998	3096.8835	3103.9674	3107.0195	3113.1227	3119.1226
CC1(C)CC2C(=O)CN12	CC1(C)C[C@H]2C(=O)CN12	
InChI=1S/C7H11NO/c1-7(2)3-5-6(9)4-8(5)7/h5H,3-4H2,1-2H3	InChI=1S/C7H11NO/c1-7(2)3-5-6(9)4-8(5)7/h5H,3-4H2,1-2H3/t5-/m0/s1
