15
gdb 66303	2.70021	1.50647	1.20646	4.3602	61.99	-0.2651	-0.0555	0.2096	1025.2446	0.11159	-494.94634	-494.938174	-494.93723	-494.979385	29.628	
O	-0.0854224312	 1.356347988	-0.2412896487	-0.468891
C	-0.0293760508	-0.024230607	 0.0064339426	 0.170107
C	-1.4197044555	-0.6617743491	-0.0674020901	-0.282894
C	-1.5670130627	-0.932207963	-1.5724531347	-0.089309
O	-0.2340447429	-1.2016043401	-2.0442935929	-0.218578
C	 0.6959961009	-0.717073683	-1.1902423304	 0.415217
O	 1.873759258	-0.8006879561	-1.3723902031	-0.333238
C	 0.7252083824	-0.2978068845	 1.2929945629	 0.118335
O	 1.235655989	 0.5970784194	 1.9169170642	-0.259412
H	 0.5350423159	 1.7576669511	 0.3897585202	 0.302895
H	-1.435281561	-1.6070369194	 0.4860722944	 0.120652
H	-2.1881692123	 0.0014789862	 0.3307087621	 0.139053
H	-2.1811105288	-1.8037834652	-1.8044923541	 0.1332
H	-1.9572653558	-0.0610342878	-2.1069632633	 0.141218
H	 0.7857534448	-1.3554680995	 1.6157215407	 0.111645
85.1425	102.0694	195.6436	216.3525	291.7327	303.4412	352.4862	432.3334	439.5338	558.6354	672.1431	702.071	728.426	813.7577	848.955	924.6286	969.6897	1022.3518	1038.4319	1057.3419	1111.4267	1171.4837	1193.4282	1241.0165	1266.2718	1321.5061	1388.0688	1396.8575	1440.3882	1470.5194	1520.4674	1817.2237	1879.1265	2949.4353	3053.423	3065.0914	3124.9106	3139.4494	3677.2297
OC1(CCOC1=O)C=O	O[C@]1(CCOC1=O)C=O	
InChI=1S/C5H6O4/c6-3-5(8)1-2-9-4(5)7/h3,8H,1-2H2	InChI=1S/C5H6O4/c6-3-5(8)1-2-9-4(5)7/h3,8H,1-2H2/t5-/m1/s1
