22
gdb 6500	3.50382	1.26372	1.07078	1.2295	78.42	-0.2459	0.0719	0.3178	1210.8894	0.198184	-350.19868	-350.189108	-350.188164	-350.232794	36.3	
C	-0.8247074146	 0.7966892707	 1.0255959944	-0.390849
C	 0.6620978471	 0.4965555739	 0.7869780274	 0.0575
C	 1.2279764673	-0.3568530021	 1.9314684503	-0.390617
C	 0.857759866	-0.1513631923	-0.6006994444	-0.260664
C	 2.2806155558	-0.1804315211	-1.1313842752	 0.419329
O	 3.1919415239	-0.9783386544	-0.4107351996	-0.458015
C	 2.5235085335	-0.0759435662	-2.6187866177	-0.326567
C	 2.8998165242	 1.0639553343	-1.6897731261	-0.289084
H	-1.2315287254	 1.4611424703	 0.2554889976	 0.105075
H	-1.4178079236	-0.1261526864	 1.0151362448	 0.109026
H	-0.9792528878	 1.2756140426	 1.9982230711	 0.108745
H	 1.2022018054	 1.4536305262	 0.7780839469	 0.074891
H	 0.7060878334	-1.3211834525	 1.9871179087	 0.098254
H	 2.291076353	-0.5571442161	 1.7913658346	 0.136671
H	 1.0887248768	 0.1454851996	 2.894880424	 0.10244
H	 0.4597733675	-1.1782116553	-0.5823293084	 0.08033
H	 0.2444349533	 0.3911858529	-1.3307523568	 0.091404
H	 2.9111960749	-1.8960301162	-0.5017920594	 0.278162
H	 3.3366335169	-0.6691845694	-3.021996304	 0.111797
H	 1.6757722625	 0.0527019175	-3.2835201678	 0.108067
H	 2.3056080489	 1.9709543082	-1.7156702342	 0.111598
H	 3.9540456008	 1.2147567959	-1.4894466561	 0.122507
45.9015	105.0323	175.9678	230.1045	249.6717	294.2883	304.923	317.771	355.8466	391.0576	422.1944	443.13	521.5493	742.8369	775.8864	820.0966	881.0456	909.8665	926.7654	931.7028	935.7174	966.0939	974.9024	996.4912	1044.5626	1077.3847	1108.4837	1148.0006	1188.7605	1193.856	1234.3094	1253.8293	1306.2894	1323.4357	1363.2677	1383.7892	1395.1998	1405.567	1421.7978	1452.174	1469.2073	1490.301	1494.0591	1499.4264	1505.5175	1516.9943	2985.7146	3007.752	3019.272	3025.1724	3047.3615	3080.5698	3087.8153	3095.8056	3129.7204	3138.1734	3142.384	3215.9978	3231.6491	3790.2885
CC(C)CC1(O)CC1	CC(C)CC1(O)CC1	
InChI=1S/C7H14O/c1-6(2)5-7(8)3-4-7/h6,8H,3-5H2,1-2H3	InChI=1S/C7H14O/c1-6(2)5-7(8)3-4-7/h6,8H,3-5H2,1-2H3
