19
gdb 106795	2.71518	1.55925	1.21247	2.3944	75.97	-0.2227	0.0156	0.2383	1068.2679	0.159348	-423.013651	-423.005366	-423.004422	-423.045973	33.174	
O	 0.7284462788	-0.1799083485	-0.6741224508	-0.41432
C	-0.1509942401	 0.3201742694	 0.3390873959	-0.192025
C	-1.5220521751	-0.3206659167	 0.29636519	 0.204083
C	-2.176350533	-0.7127422147	-1.0340955942	-0.39711
C	-1.7341890218	-1.7828305826	-0.063603297	 0.408541
O	-0.6980714715	-2.6547350284	-0.3860254685	-0.48921
C	-2.7774644426	-2.3542668646	 0.8916001348	-0.320452
C	-3.201103358	-1.1513424012	 1.7070906874	-0.080227
C	-2.5003707447	-0.0572091465	 1.3963868912	-0.14856
H	 0.473129611	 0.2197751977	-1.5114736141	 0.294138
H	 0.3377583774	 0.0831983998	 1.2904530338	 0.125843
H	-0.2247174781	 1.416019713	 0.2748343327	 0.102354
H	-3.2289747901	-0.487062043	-1.1757679027	 0.109528
H	-1.5719109741	-0.6363282478	-1.9341745267	 0.089617
H	 0.058300349	-2.1094405951	-0.6472040466	 0.2881
H	-3.6183729967	-2.821936686	 0.3653400707	 0.112398
H	-2.3219883159	-3.1334799676	 1.5160726319	 0.119966
H	-3.999020757	-1.195383971	 2.4397700266	 0.096042
H	-2.6270813273	 0.9207561537	 1.8498570456	 0.091296
108.5362	195.4289	201.5283	240.8848	317.2817	340.5225	400.401	433.9807	464.0024	535.354	555.6978	585.4722	701.6375	736.809	750.7575	765.6001	887.7422	916.1934	946.6099	951.8136	961.9229	999.4538	1013.5279	1040.8977	1053.0863	1099.497	1151.0294	1166.0353	1186.7112	1222.5294	1242.2008	1309.1371	1353.3157	1366.7764	1384.9555	1412.8197	1448.647	1469.4907	1481.9985	1504.2925	1665.9685	2991.3127	3026.691	3058.7705	3067.2775	3108.1024	3174.5145	3198.0055	3204.4059	3720.5234	3825.389
OCC12CC1(O)CC=C2	OC[C@@]12C[C@]1(O)CC=C2	
InChI=1S/C7H10O2/c8-5-6-2-1-3-7(6,9)4-6/h1-2,8-9H,3-5H2	InChI=1S/C7H10O2/c8-5-6-2-1-3-7(6,9)4-6/h1-2,8-9H,3-5H2/t6-,7-/m1/s1
