16
gdb 77113	3.08142	1.20251	0.98585	3.7982	70.84	-0.2554	-0.0027	0.2527	1189.7464	0.122776	-437.851398	-437.842914	-437.841969	-437.884947	31.297	
O	 0.0922094809	 1.1536732542	-0.2532064399	-0.41398
C	-0.0003114751	-0.2287673569	-0.0907407623	-0.046505
C	-0.0248215779	-0.7886249303	 1.374572184	-0.032742
O	-1.2898634177	-1.4349749359	 1.1330261435	-0.306717
C	-1.4183912352	-0.7768668388	-0.1369208213	 0.45371
C	-2.6576610184	-0.0569993256	-0.5447817574	-0.326839
C	-2.2239315888	-1.3337344369	-1.2549210332	-0.341732
C	 1.0319467392	-1.7199062581	 1.7568671496	 0.262676
N	 1.8971124989	-2.4355828766	 2.0310500713	-0.316139
H	 1.0099826435	 1.3897919443	-0.4202147301	 0.300521
H	 0.7037352224	-0.7742138081	-0.7287944122	 0.108887
H	-0.1081245163	 0.0163003992	 2.1145646025	 0.132692
H	-3.5072194605	-0.1237869158	 0.125875063	 0.131894
H	-2.5423540025	 0.8924088737	-1.0557188162	 0.135542
H	-1.8268928565	-1.2654888355	-2.2627183008	 0.123501
H	-2.7879860759	-2.2365937629	-1.0473949505	 0.135231
48.718	142.1542	194.6118	206.5723	251.2184	282.4914	373.6181	383.3925	470.9557	515.6515	567.7432	632.9043	754.9029	784.1075	869.3776	902.9757	949.1834	973.7576	991.8426	1010.572	1049.2542	1052.92	1071.9672	1148.2974	1186.0244	1196.693	1219.8039	1247.4079	1276.4471	1350.6534	1381.0079	1446.9738	1459.1565	1505.6375	2356.0562	3040.8836	3048.9388	3131.0647	3138.5266	3217.1711	3233.5292	3827.4849
OC1C(OC11CC1)C#N	O[C@H]1[C@@H](OC21CC2)C#N	
InChI=1S/C6H7NO2/c7-3-4-5(8)6(9-4)1-2-6/h4-5,8H,1-2H2	InChI=1S/C6H7NO2/c7-3-4-5(8)6(9-4)1-2-6/h4-5,8H,1-2H2/t4-,5-/m0/s1
