12
gdb 21091	5.44888	1.80987	1.44353	3.9312	63.01	-0.2512	-0.0874	0.1638	815.4003	0.083459	-406.92521	-406.918364	-406.91742	-406.956824	24.141	
C	-0.1358194031	 1.3713158126	 0.0208583221	-0.306192
N	-0.0702418407	-0.0875284406	 0.0060969883	 0.022307
N	 0.280742715	-0.648332051	-1.1970044942	-0.031998
N	 0.4209435426	-1.8952894863	-1.2314889425	-0.155364
C	 0.1320927116	-2.5959885886	-0.0345816718	 0.426149
N	-0.3616760614	-3.7597289891	-0.0789323519	-0.454946
N	 0.4953489757	-1.9208097062	 1.1599677562	-0.198946
N	 0.3385450356	-0.6724147581	 1.1700537528	-0.035604
H	 0.8603899029	 1.8161678079	-0.0550091593	 0.159884
H	-0.7453824861	 1.6900286332	-0.8241356295	 0.166246
H	-0.6044443095	 1.6741760037	 0.9564483393	 0.16591
H	-0.4724358226	-4.1155963375	 0.8740026604	 0.242553
61.669	105.3954	235.6336	324.5604	416.2092	451.2232	526.7919	550.5574	680.6108	725.8254	802.2322	839.9175	869.8705	927.468	1012.4516	1052.8262	1143.5469	1190.2575	1297.5258	1318.2939	1446.7188	1481.1868	1486.0962	1510.6101	1588.4585	1741.0338	3060.9911	3146.9501	3180.0895	3459.2174
CN1N=NC(=N)N=N1	CN1N=N[C@@H]([NH])N=N1	
InChI=1S/C2H4N6/c1-8-6-4-2(3)5-7-8/h3H,1H3	InChI=1S/C2H5N6/c1-8-6-4-2(3)5-7-8/h2-3H,1H3
