17
gdb 53429	2.66733	1.07534	0.8989	2.2048	77.32	-0.237	-0.0275	0.2096	1358.0394	0.134399	-421.820087	-421.81085	-421.809905	-421.856699	31.955	
C	-0.0445671857	 1.4465087889	 0.0827671796	-0.498834
C	-0.0306083504	-0.0065813573	 0.012238351	 0.037367
C	-0.0083398629	-1.2087424594	-0.0602647693	 0.128763
C	-0.0098451447	-2.6699307616	-0.1137044559	-0.2043
O	 0.6975176443	-3.2755163978	 0.9611188583	-0.239584
C	-0.2094273617	-3.3933163678	 2.0635445295	-0.090182
C	-1.5436258671	-3.8092759537	 1.4390132587	-0.339687
C	-1.4628483296	-3.2082792761	 0.0342798249	 0.394653
O	-2.3208544919	-3.1676895531	-0.8004364166	-0.29492
H	 0.6560233245	 1.8098489118	 0.8424430844	 0.15381
H	 0.2454545431	 1.8902111027	-0.8757220653	 0.155377
H	-1.0404299203	 1.8244651416	 0.3382371707	 0.152827
H	 0.4273284971	-3.0287869202	-1.0509989673	 0.130614
H	 0.2122550587	-4.1297685886	 2.7495315639	 0.120248
H	-0.3001926671	-2.4318489856	 2.5884681461	 0.109889
H	-1.6205913068	-4.8974212849	 1.3379042954	 0.144793
H	-2.4343271197	-3.4550724188	 1.9621989518	 0.139164
12.7232	59.3551	83.9418	125.2101	215.3289	251.9818	339.3802	404.6323	449.2141	494.7341	562.6543	619.1298	668.8583	777.152	823.9192	862.5308	933.5698	982.9332	1040.5108	1050.8347	1052.8379	1069.7747	1133.3489	1166.323	1202.254	1229.2234	1249.5757	1283.6843	1325.6618	1386.7977	1413.3729	1446.2622	1475.1961	1477.2042	1514.52	1868.6077	2362.6744	3008.5405	3029.5314	3057.6393	3062.6656	3091.7546	3093.1615	3113.1146	3121.8636
CC#CC1OCCC1=O	CC#C[C@H]1OCCC1=O	
InChI=1S/C7H8O2/c1-2-3-7-6(8)4-5-9-7/h7H,4-5H2,1H3	InChI=1S/C7H8O2/c1-2-3-7-6(8)4-5-9-7/h7H,4-5H2,1H3/t7-/m1/s1
