20
gdb 120580	4.11527	0.74235	0.69285	4.3598	81.76	-0.2921	0.0082	0.3003	1690.0978	0.168276	-403.154137	-403.143832	-403.142888	-403.190111	36.437	
C	 0.08511282	 1.5353836005	 0.2195346873	-0.384962
C	-0.051231968	 0.0115150007	 0.1954431136	-0.160992
C	-1.391098163	-0.4554549826	-0.3954004373	-0.226803
C	-1.4935225589	-1.9596547039	-0.4193171948	 0.031235
O	-1.7419121551	-2.6381731295	 0.8177155297	-0.271568
C	-2.7432260711	-2.7323938437	-0.2024721433	 0.218247
C	-4.0958296924	-2.1198322576	 0.0895881274	-0.468661
C	-2.815355259	-4.0421487311	-0.839782136	 0.254796
N	-2.897924882	-5.0707644019	-1.3604065286	-0.331839
H	 1.0457732201	 1.8391212202	 0.6457589781	 0.11964
H	 0.0199082467	 1.9566676267	-0.7898157672	 0.116722
H	-0.7064001454	 1.9949256273	 0.8217263305	 0.118006
H	 0.7716195369	-0.4244311468	-0.3854798005	 0.103036
H	 0.0431626291	-0.3894655803	 1.2112985599	 0.119415
H	-2.2146410488	-0.0249065585	 0.1819147028	 0.106674
H	-1.4924100652	-0.0863297348	-1.4247873824	 0.110509
H	-0.733865839	-2.4535296336	-1.0289600791	 0.110565
H	-3.9839490904	-1.15178267	 0.5777420186	 0.140887
H	-4.6654671654	-1.992298842	-0.8356292562	 0.144336
H	-4.6658857692	-2.7769471789	 0.7524171574	 0.150755
56.6321	77.3524	98.0322	153.7929	156.6271	206.5701	243.6958	267.3674	315.9727	373.7365	409.6136	489.4077	579.8621	611.4348	685.8106	745.6539	813.4993	879.9082	894.0679	903.517	966.6249	1044.1107	1063.0713	1093.2735	1104.3102	1150.898	1159.3923	1237.7313	1261.7165	1304.2564	1327.7641	1340.8959	1386.8145	1413.4655	1414.7427	1457.863	1469.6007	1484.682	1492.5009	1498.2911	1500.1219	1509.5893	2355.9421	3023.6749	3028.0701	3032.2487	3053.7875	3061.6222	3082.6402	3095.7728	3102.9929	3107.5102	3120.2785	3155.7042
CCCC1OC1(C)C#N	CCC[C@H]1O[C@]1(C)C#N	
InChI=1S/C7H11NO/c1-3-4-6-7(2,5-8)9-6/h6H,3-4H2,1-2H3	InChI=1S/C7H11NO/c1-3-4-6-7(2,5-8)9-6/h6H,3-4H2,1-2H3/t6-,7-/m1/s1
