19
gdb 113657	2.63202	0.94619	0.85894	1.2925	72.44	-0.2526	-0.029	0.2237	1443.1039	0.156005	-460.152871	-460.142727	-460.141783	-460.189428	35.403	
C	 0.124484107	 1.66482684	-0.9928475936	-0.382509
C	 0.3242183715	 0.1677439996	-1.2099949779	-0.280019
C	 0.3656466919	-0.6243979356	 0.0827077868	 0.333056
O	 0.1116514656	-0.1469118242	 1.1652574191	-0.304248
C	 0.663577939	-2.1069497816	-0.0051681144	-0.043976
O	 1.0980645425	-2.6596557465	-1.2486119702	-0.257182
C	 2.0219850339	-2.6667102342	-0.1498446049	 0.047329
C	 3.2761648553	-1.8460547723	-0.31721219	-0.094651
O	 4.1845906322	-2.4846261646	-1.1958923053	-0.413552
H	-0.7848659366	 1.8569945259	-0.418590833	 0.136493
H	 0.9587754392	 2.0946890484	-0.4315328332	 0.12879
H	 0.0497393463	 2.1863984347	-1.9507546687	 0.113462
H	-0.4923063937	-0.2637060419	-1.8083978738	 0.135426
H	 1.2236177641	-0.0516566732	-1.7954093889	 0.128467
H	-0.0572565228	-2.7105998035	 0.5476932547	 0.122791
H	 2.1930766537	-3.6611666293	 0.2649238453	 0.111721
H	 3.0325504315	-0.828376547	-0.6524575303	 0.097298
H	 3.7866433587	-1.7627478232	 0.6480993067	 0.12726
H	 3.7318862308	-2.5995978416	-2.0389982282	 0.294042
43.8339	55.4536	73.3848	139.0364	166.5296	199.613	245.9898	288.6322	380.1824	423.0112	471.7286	517.5297	545.5389	617.4682	746.2105	795.3479	821.6086	899.0534	954.359	999.5068	1017.0947	1064.2315	1074.3016	1096.1911	1111.0231	1132.8778	1189.581	1227.3692	1266.2122	1283.3356	1348.3267	1365.7192	1381.2033	1415.9637	1419.738	1441.7037	1469.2048	1490.5296	1493.2408	1499.2354	1801.6731	3010.9925	3016.6878	3052.1096	3070.7162	3079.5912	3103.9046	3116.0717	3121.0553	3130.6286	3803.5964
CCC(=O)C1OC1CO	CCC(=O)[C@H]1O[C@H]1CO	
InChI=1S/C6H10O3/c1-2-4(8)6-5(3-7)9-6/h5-7H,2-3H2,1H3	InChI=1S/C6H10O3/c1-2-4(8)6-5(3-7)9-6/h5-7H,2-3H2,1H3/t5-,6+/m0/s1
