15
gdb 18043	3.59393	2.40422	1.76951	1.6588	61.18	-0.2521	0.0176	0.2697	747.372	0.121596	-399.786074	-399.779868	-399.778924	-399.816603	23.382	
C	 0.0429717179	 1.5258186616	 0.1519137091	-0.072307
O	 1.4565250848	 1.5539931597	-0.1463126176	-0.291671
C	 1.4367352586	 0.1686696926	-0.5449266216	 0.098443
C	 2.4959257917	-0.6799741044	 0.119265665	-0.103098
O	 2.2627293794	-0.8958127165	 1.5165846689	-0.218968
C	 0.9741058215	-0.9996586491	 1.9119477425	 0.134359
N	-0.0902527436	-0.6803762034	 1.3053888622	-0.268455
C	 0.0092727046	-0.018080325	 0.0228022783	-0.041701
H	-0.1840969609	 1.9195387507	 1.146782019	 0.11783
H	-0.5430430274	 2.0588852983	-0.6075180552	 0.1015
H	 1.5182005098	 0.0652421172	-1.6363614446	 0.076965
H	 2.5320843552	-1.6579509065	-0.3796226888	 0.115255
H	 3.4799039263	-0.2101508451	 0.0447198058	 0.134384
H	 0.9301176727	-1.4221087528	 2.9143852584	 0.127557
H	-0.7430976106	-0.4222822773	-0.6567518714	 0.089908
113.1274	153.6519	317.6604	335.9588	490.9394	550.1735	637.2871	776.1174	820.0528	848.2371	871.8372	900.4075	969.0329	978.4548	1009.9992	1038.762	1062.8483	1098.4294	1124.7281	1168.1431	1202.464	1242.8588	1257.6354	1296.192	1348.7123	1353.1415	1369.8115	1403.5341	1421.6039	1483.2328	1518.0049	1725.3514	2999.184	3019.6235	3025.0255	3086.6182	3094.8794	3103.4696	3157.3399
C1OC2COC=NC12	C1O[C@H]2COC=N[C@@H]12	
InChI=1S/C5H7NO2/c1-4-5(8-1)2-7-3-6-4/h3-5H,1-2H2	InChI=1S/C5H7NO2/c1-4-5(8-1)2-7-3-6-4/h3-5H,1-2H2/t4-,5-/m0/s1
