18
gdb 12520	2.82073	2.27423	1.6841	0.2683	81.85	-0.2103	-0.033	0.1774	858.8287	0.155964	-310.689698	-310.682514	-310.68157	-310.720638	28.436	
C	-0.3768111779	 1.5247700019	 0.0140262926	-0.38295
C	-0.0315108336	 0.0207960233	 0.0024854602	-0.073477
C	 0.7252424337	-0.3952607951	-1.2401905985	-0.097397
C	 1.9841992933	-0.0267666688	-1.5480768091	-0.052193
C	 2.9263753986	 0.6646631633	-0.7017183037	-0.09931
C	 2.9396232647	 0.6572871043	 0.6557852282	-0.099311
C	 2.0140702574	-0.0433980087	 1.5128067131	-0.052193
C	 0.7493055466	-0.4086581507	 1.2255624927	-0.097397
H	 0.5287155894	 2.1352703289	 0.0085137001	 0.133046
H	-0.9721037715	 1.786481343	-0.8670750311	 0.108183
H	-0.9547809571	 1.7768272397	 0.9093607139	 0.108183
H	-0.9799052727	-0.527224914	 0.0087633243	 0.074002
H	 0.1853686933	-1.012706319	-1.954571652	 0.089956
H	 2.3577555949	-0.301147679	-2.5332034851	 0.087541
H	 3.7622928111	 1.142435992	-1.207510506	 0.087909
H	 3.7853028871	 1.12962459	 1.1503292803	 0.087909
H	 2.4067516994	-0.3284272096	 2.4874161009	 0.087541
H	 0.2234103234	-1.0338863914	 1.9435922793	 0.089956
126.9542	227.8423	232.2629	287.8734	352.5925	400.7178	445.3498	497.7393	639.8372	716.7419	770.4203	780.909	801.1349	850.9643	879.5201	935.7559	939.4754	978.6916	992.458	1008.2437	1031.2849	1036.8809	1097.1635	1134.5067	1243.1029	1251.2571	1253.8986	1352.0909	1363.8607	1393.0614	1394.5962	1440.	1477.041	1487.316	1496.6356	1594.8348	1675.5072	1681.7746	3033.8802	3039.4378	3099.7612	3128.9828	3130.9441	3132.409	3143.5245	3156.0952	3157.7961	3167.3077
CC1C=CC=CC=C1	C[C@H]1C=CC=CC=C1	
InChI=1S/C8H10/c1-8-6-4-2-3-5-7-8/h2-8H,1H3	InChI=1S/C8H10/c1-8-6-4-2-3-5-7-8/h2-8H,1H3
