19
gdb 97363	2.74678	1.04246	0.80572	8.1757	76.87	-0.2273	0.0121	0.2394	1418.925	0.15793	-456.361515	-456.351721	-456.350777	-456.396483	35.557	
C	-0.6721334466	 1.4328383588	-0.7487026244	-0.392409
C	 0.188172068	 0.4138263264	 0.0059070768	-0.125398
C	 0.7729755607	 1.0580038322	 1.2851815771	-0.161212
N	 2.065917658	 0.5132939708	 1.7198957267	-0.221682
H	 2.686100042	 1.1912300077	 2.1617262784	 0.214093
C	 2.3883719384	-0.7689388223	 1.6257197892	-0.0021
N	 3.5895683102	-1.1052569817	 2.0983853243	-0.476871
C	-0.6362413302	-0.865577435	 0.2917328074	 0.396155
O	-1.8032562739	-0.9431770461	-0.0131262371	-0.344132
O	 0.0106744444	-1.8652680756	 0.8738191109	-0.386281
H	-0.0669005964	 2.2877255831	-1.0682179255	 0.096207
H	-1.1270590683	 0.9720438255	-1.6264440881	 0.138502
H	-1.4899034562	 1.7971685711	-0.1202820376	 0.129153
H	 1.0383705222	 0.1201981621	-0.6228576489	 0.102092
H	 0.9388731776	 2.1217921022	 1.088785152	 0.110679
H	 0.0452266767	 0.9971943782	 2.1050366035	 0.131817
H	 0.9761944918	-1.6041142501	 1.0893084415	 0.281741
H	 4.2490771312	-0.4544675582	 2.5176841321	 0.229498
H	 3.8864972202	-2.0636493992	 2.0480001917	 0.280149
57.9606	94.7427	150.6227	189.6334	210.4672	236.7791	265.95	318.8985	334.7154	393.1091	421.3869	516.4933	584.7476	616.1473	681.7734	728.5462	742.7685	817.5666	896.8166	936.0802	1016.3616	1065.9357	1084.8014	1113.0866	1131.17	1174.6676	1241.0643	1271.6282	1291.7035	1341.3395	1356.4426	1403.6118	1417.6278	1423.2404	1487.0081	1493.1261	1504.2937	1536.0739	1598.7156	1661.7579	1829.4314	2676.4117	3019.3729	3034.836	3041.9732	3074.2697	3111.1569	3142.6518	3426.3912	3460.4443	3697.3922
CC(C[NH+]=CN)C([O-])=O	C[C@@H](CN[C]N)C(=O)O	
InChI=1S/C5H10N2O2/c1-4(5(8)9)2-7-3-6/h3-4H,2H2,1H3,(H2,6,7)(H,8,9)	InChI=1S/C5H10N2O2/c1-4(5(8)9)2-7-3-6/h4,7H,2,6H2,1H3,(H,8,9)/t4-/m0/s1
