21
gdb 75367	2.58845	1.70315	1.35682	1.4591	82.98	-0.2267	0.0224	0.2492	1052.7586	0.185534	-387.116879	-387.109187	-387.108243	-387.148747	31.098	
C	-0.0288207516	 1.5251729985	 0.0557236047	-0.500014
C	 0.0264680827	 0.0294198695	-0.0521056472	 0.345445
C	 0.0096464373	-0.6378719708	-1.2091812706	-0.154319
C	 0.0139667606	-2.1471011029	-1.2850211391	-0.259386
C	-0.1056788925	-2.780217757	 0.1145907412	-0.048232
C	-1.4650429262	-2.450008457	 0.7772905599	-0.071298
O	-1.2677486545	-1.2606185811	 1.5562289805	-0.269505
C	 0.0469154425	-0.7708414007	 1.2482027942	 0.012376
C	 0.8599468882	-2.0555287874	 1.0700094795	-0.232376
H	 0.8500738603	 1.9213620095	 0.5812086358	 0.12034
H	-0.0817384015	 2.0032748947	-0.926366245	 0.11774
H	-0.9059219711	 1.8377039525	 0.6369108004	 0.134831
H	-0.0203485821	-0.0941468475	-2.1516267166	 0.077569
H	-0.8121360387	-2.4894157071	-1.9235400057	 0.102775
H	 0.9323380712	-2.4965809247	-1.7807029705	 0.101111
H	 0.0613447133	-3.8589031507	 0.0617247942	 0.067141
H	-2.2541942552	-2.2858467892	 0.0321545482	 0.094926
H	-1.795083366	-3.2482006529	 1.45352457	 0.097345
H	 0.3583762611	-0.1499150526	 2.0923502709	 0.066484
H	 0.9573881353	-2.5809874477	 2.0246700284	 0.09779
H	 1.8531445568	-1.8923604455	 0.6448358768	 0.099257
105.0497	195.3238	219.5901	286.1056	324.5218	364.5237	418.2908	452.6007	578.5184	615.205	709.7834	778.6292	809.6824	830.7643	888.9995	910.1108	923.8887	944.2304	948.0944	977.0649	1024.9013	1036.6326	1062.9137	1074.4476	1084.9816	1109.2345	1152.0632	1175.4355	1184.1252	1214.9773	1264.0138	1310.5192	1314.7737	1326.1936	1350.8732	1368.7411	1381.8865	1391.6946	1410.8773	1477.3453	1478.9531	1490.6338	1491.7546	1525.1955	1732.9356	2993.1514	3011.4818	3012.8869	3023.4612	3047.2377	3054.7323	3060.4335	3076.2723	3082.0512	3107.6187	3111.8713	3141.6871
CC1=CCC2COC1C2	CC1=CC[C@@H]2CO[C@H]1C2	
InChI=1S/C8H12O/c1-6-2-3-7-4-8(6)9-5-7/h2,7-8H,3-5H2,1H3	InChI=1S/C8H12O/c1-6-2-3-7-4-8(6)9-5-7/h2,7-8H,3-5H2,1H3/t7-,8-/m0/s1
