20
gdb 39078	2.21332	1.92226	1.33728	1.5279	85.14	-0.2248	0.0179	0.2428	1036.4378	0.173995	-365.982027	-365.974347	-365.973403	-366.013841	31.124	
C	 0.0508798764	 1.495939094	-0.4022287124	-0.291703
C	 1.4033226729	 2.0454361728	 0.0061458608	-0.025218
C	 2.1577121641	 1.7931417157	 1.0762012545	-0.047308
C	 1.9614854675	 0.8175636056	 2.2186603422	-0.282701
C	 0.6425891774	 0.8477448435	 2.9951760344	-0.010803
N	-0.4583235329	 1.686474004	 2.5201164994	-0.329519
C	-0.6086677012	 0.2215414239	 2.4437384356	-0.072773
C	-0.5782455315	-0.4570926444	 1.1295698429	-0.020492
C	-0.2466187433	 0.0537617699	-0.0582389534	-0.090462
H	-0.7132623488	 2.1440436943	 0.0393640369	 0.142381
H	-0.0379125757	 1.6082889869	-1.4886459319	 0.089669
H	 1.7842196677	 2.8009149849	-0.6799163883	 0.079929
H	 3.0851010834	 2.3584643949	 1.1434633356	 0.07913
H	 2.1107161882	-0.2064365031	 1.8501427507	 0.121319
H	 2.7661129475	 0.9895849586	 2.9409045529	 0.096905
H	 0.7652415971	 0.766899708	 4.0740352675	 0.08295
H	-0.9954899182	 2.05048738	 3.3012754654	 0.231004
H	-1.2587065226	-0.2476997107	 3.1800490956	 0.079746
H	-0.7774602512	-1.5260026261	 1.1863537955	 0.080047
H	-0.1950414069	-0.6414822023	-0.893228974	 0.087898
110.3236	197.0142	232.4168	254.9723	309.8125	383.1802	421.6402	559.4895	590.0311	627.5562	689.1189	739.0025	770.8116	791.5384	827.3144	855.8399	890.9703	930.7225	947.7836	968.0018	999.2079	1001.0926	1008.6049	1062.8932	1067.8212	1106.9564	1170.093	1194.9482	1237.9684	1242.0953	1268.4399	1285.5886	1292.4634	1363.5284	1373.1151	1386.5019	1426.6205	1432.0795	1463.8925	1473.3503	1479.8844	1721.2943	1732.0768	3017.4208	3035.6277	3060.987	3073.2975	3109.0058	3118.8946	3120.548	3133.0236	3148.255	3156.4894	3513.2106
C1C=CCC2NC2C=C1	C1C=CC[C@H]2N[C@H]2C=C1	
InChI=1S/C8H11N/c1-2-4-6-8-7(9-8)5-3-1/h1,3-4,6-9H,2,5H2/b3-1-,6-4-	InChI=1S/C8H11N/c1-2-4-6-8-7(9-8)5-3-1/h1,3-4,6-9H,2,5H2/b3-1-,6-4-/t7-,8+/m1/s1
