24
gdb 99749	1.79607	1.40876	0.97457	3.4315	86.88	-0.2293	0.036	0.2654	1379.6434	0.215159	-405.59139	-405.580162	-405.579218	-405.627566	41.061	
C	-0.0229225398	 1.73239732	 0.3512618799	-0.377928
C	-0.0610774428	 0.2311079128	 0.0330717972	-0.158538
N	-1.3957723711	-0.3655182192	 0.0330740086	-0.087874
C	-2.1003391895	-0.559633385	-1.2498056992	 0.042863
C	-2.1933055387	 0.7271549577	-2.0756948953	-0.398418
C	-1.4885391913	-1.7166308541	-2.0529873959	-0.389124
C	-1.9698551833	-0.9105868148	 1.1594389643	 0.405694
C	-1.1892668058	-0.8174701094	 2.4652502598	-0.507812
O	-3.0573800037	-1.4668706526	 1.1341241843	-0.381862
H	 1.0132823284	 2.0873408682	 0.3547161716	 0.115781
H	-0.5782456031	 2.3127853857	-0.3888631755	 0.128349
H	-0.455135717	 1.9442494755	 1.3333801751	 0.125355
H	 0.3812304586	 0.0604253197	-0.9532360693	 0.112149
H	 0.5777053184	-0.3072571809	 0.7385370513	 0.114996
H	-3.1083349136	-0.8545305132	-0.955007134	 0.129145
H	-2.8113741374	 0.5466593055	-2.960675147	 0.119156
H	-2.6554166805	 1.5340178519	-1.5000346556	 0.123007
H	-1.214642938	 1.0700405731	-2.4294395834	 0.111365
H	-1.4911724532	-2.635917677	-1.4611900166	 0.129565
H	-2.0712067739	-1.8952917655	-2.9624078151	 0.116549
H	-0.4578477411	-1.5057369803	-2.3605124465	 0.108802
H	-0.8185047603	 0.1878766775	 2.6777592234	 0.132615
H	-1.8602920894	-1.1326422159	 3.2635459094	 0.146126
H	-0.3268409019	-1.4932443196	 2.4513427386	 0.140037
52.7152	95.3136	140.8517	148.721	175.8519	204.3376	227.4305	239.4765	284.9194	311.2347	333.7183	369.5593	453.0261	470.6679	525.8953	590.6982	616.4021	692.3472	779.9254	858.9217	927.236	946.3431	950.8078	963.4582	1028.5973	1048.5362	1081.3874	1105.1658	1146.2369	1157.0174	1204.6939	1246.5981	1310.8513	1359.2793	1372.2815	1393.4218	1396.615	1404.9452	1408.5442	1416.4663	1441.0603	1468.8402	1483.377	1488.294	1489.2685	1491.9484	1495.7305	1506.3057	1510.0539	1516.9953	1748.802	3031.1041	3035.2174	3043.1205	3046.6415	3056.6845	3088.1399	3090.8191	3095.1207	3110.9663	3113.8765	3116.3879	3117.0641	3122.7385	3132.5071	3162.1759
CCN(C(C)C)C(C)=O	CCN(C(C)C)C(=O)C	
InChI=1S/C7H15NO/c1-5-8(6(2)3)7(4)9/h6H,5H2,1-4H3	InChI=1S/C7H15NO/c1-5-8(6(2)3)7(4)9/h6H,5H2,1-4H3
