18
gdb 8015	3.25513	1.93064	1.50843	3.0194	71.74	-0.2352	-0.0176	0.2176	897.6367	0.153193	-347.805109	-347.797511	-347.796567	-347.837108	29.184	
C	-0.2856642542	 1.5629480953	 0.0698321767	-0.491717
C	 0.0285835849	 0.0842226692	 0.0188903615	 0.367717
C	-1.1488433796	-0.9236881942	 0.1530353217	-0.275388
C	-0.3746980067	-1.7113991481	 1.2489959491	-0.226388
C	 0.8043515625	-0.6891114647	 1.1696754421	-0.20205
C	 1.8505465872	-1.0976623022	 0.1348862544	 0.420569
O	 2.8780350699	-1.7106234183	 0.1930693744	-0.304586
C	 1.1101665466	-0.376093493	-1.0076794858	-0.412936
H	 0.6273990589	 2.1656252356	 0.1349390576	 0.116775
H	-0.8278949987	 1.8797923141	-0.8294438821	 0.121036
H	-0.9104379512	 1.8082553916	 0.9355858618	 0.116751
H	-2.0643321052	-0.4600306616	 0.5302815362	 0.10306
H	-1.4008789086	-1.477275033	-0.7558675358	 0.099712
H	-0.8679766689	-1.7054769398	 2.2226180898	 0.114352
H	-0.1089646458	-2.7443146567	 1.0115331423	 0.116194
H	 1.1557799909	-0.2487015559	 2.1042665198	 0.085005
H	 0.7837467761	-1.0004375406	-1.8450324884	 0.122543
H	 1.710976652	 0.4479984124	-1.4092304752	 0.129351
54.5956	167.8743	226.8676	277.7451	327.5134	354.5804	441.2035	521.9503	580.3262	609.2157	716.6324	768.0545	829.2489	853.3937	899.9471	926.1067	957.7148	968.5671	1006.6443	1018.6139	1072.8911	1118.4672	1137.9055	1153.1486	1203.1687	1226.2113	1228.4036	1243.8413	1266.8787	1279.9613	1330.4507	1415.8548	1433.612	1480.0514	1491.3445	1495.012	1500.2038	1883.4902	3019.6727	3042.9575	3052.581	3068.6295	3082.9063	3090.5391	3096.1024	3097.2565	3102.3923	3123.2107
CC12CCC1C(=O)C2	C[C@]12CC[C@H]1C(=O)C2	
InChI=1S/C7H10O/c1-7-3-2-5(7)6(8)4-7/h5H,2-4H2,1H3	InChI=1S/C7H10O/c1-7-3-2-5(7)6(8)4-7/h5H,2-4H2,1H3/t5-,7+/m0/s1
