23
gdb 118495	2.38164	0.9798	0.75431	2.4828	82.86	-0.2485	0.083	0.3315	1605.0695	0.203334	-425.395603	-425.384877	-425.383933	-425.432136	37.989	
C	 4.2514384633	-0.6367748226	-0.6314900924	-0.380917
C	 2.74369254	-0.770798999	-0.4022916207	-0.174064
C	 2.4023635043	-1.7000600463	 0.7657513338	-0.168634
C	 0.8977488852	-1.8766909919	 0.9898949093	 0.070188
O	 0.3480764513	-2.4833586605	-0.1706849646	-0.23986
C	-0.9825730162	-2.104546115	-0.4454556436	-0.240095
C	 0.636194307	-2.6917582368	 2.2518283013	 0.062648
C	-0.1450741088	-3.9352804184	 2.2670419629	-0.171478
O	 1.2798390026	-3.9653500185	 2.3363031496	-0.231134
H	 4.7050750479	-1.6095552406	-0.8510114057	 0.117235
H	 4.4693058355	 0.029458316	-1.4721742472	 0.109481
H	 4.7547298112	-0.2314156129	 0.2536240966	 0.110917
H	 2.3118724545	 0.2224044067	-0.2166935203	 0.084773
H	 2.2604944903	-1.1537221742	-1.3071111691	 0.111908
H	 2.8298110135	-2.6954113596	 0.6011869697	 0.123072
H	 2.8484022691	-1.3185182444	 1.6936247378	 0.091121
H	 0.4355952641	-0.8854522622	 1.1368217182	 0.059263
H	-1.2883322171	-2.63434018	-1.3512411314	 0.128094
H	-1.6723162242	-2.3724828183	 0.3685318139	 0.104383
H	-1.0649990643	-1.0212819182	-0.6225371436	 0.108863
H	 0.6924294619	-2.1124051692	 3.1761820271	 0.08983
H	-0.6668151532	-4.2327413353	 3.1762936328	 0.108719
H	-0.5628405877	-4.3106308587	 1.3366122856	 0.125685
63.0734	80.7675	97.5483	124.1684	145.0341	175.662	240.6105	260.0003	276.4796	314.6637	332.9655	410.8758	566.4463	657.3533	745.5924	788.8695	837.1178	876.3926	919.5688	931.8569	973.9856	1016.9706	1046.776	1076.6696	1095.9311	1125.684	1149.3925	1158.509	1171.8494	1177.9975	1187.257	1226.903	1266.8294	1286.1413	1297.134	1330.508	1355.805	1392.5556	1400.0212	1412.0668	1422.3971	1476.7908	1481.3271	1487.9784	1495.0357	1498.5205	1509.9237	1512.3454	1519.1113	2956.7776	2980.0967	3014.0572	3026.2039	3027.0532	3029.6179	3067.6687	3080.7305	3083.2914	3091.1914	3100.1543	3100.6917	3112.3954	3185.7961
CCCC(OC)C1CO1	CCC[C@@H](OC)[C@H]1CO1	
InChI=1S/C7H14O2/c1-3-4-6(8-2)7-5-9-7/h6-7H,3-5H2,1-2H3	InChI=1S/C7H14O2/c1-3-4-6(8-2)7-5-9-7/h6-7H,3-5H2,1-2H3/t6-,7-/m1/s1
