24
gdb 122359	3.09823	0.90763	0.79842	0.7874	87.57	-0.2098	0.0894	0.2993	1577.1093	0.215091	-405.50871	-405.497697	-405.496753	-405.545229	39.44	
C	-2.8137640025	 0.7430151034	 4.37453619	-0.224848
O	-2.4472909017	 0.0011835341	 3.2376440184	-0.22526
C	-1.0535590268	 0.0076932842	 3.0036349031	-0.045938
C	-0.7386661798	-0.8899907377	 1.8152919629	-0.155241
N	-0.9141985771	-2.2899528162	 2.1756699038	-0.105744
C	-2.1444836417	-3.0121456894	 1.831415583	 0.012753
C	-3.320977104	-2.373362926	 1.1247050017	-0.420362
C	-0.8492717418	-3.3427819209	 1.1559426463	-0.004509
C	-0.5727266881	-3.0656644332	-0.3063632224	-0.412174
H	-3.9004281406	 0.6804476208	 4.4729390286	 0.123968
H	-2.3497255045	 0.3433276599	 5.2900657031	 0.105798
H	-2.5267368795	 1.803111034	 4.2816429095	 0.100699
H	-0.7090480295	 1.0356245009	 2.794952383	 0.075904
H	-0.5134213697	-0.3591062899	 3.890666737	 0.093954
H	-1.3405256815	-0.5500529934	 0.9598896582	 0.092833
H	 0.3150239554	-0.7392708106	 1.5502379821	 0.09936
H	-2.4583047735	-3.6796439824	 2.6346153869	 0.080904
H	-3.049633209	-1.8597619334	 0.2000537683	 0.113226
H	-4.0552156335	-3.1442385026	 0.8675277939	 0.111883
H	-3.7997550763	-1.642663845	 1.7827148546	 0.143859
H	-0.3217115165	-4.2277604392	 1.5150707328	 0.080113
H	-1.1207271017	-2.2060761243	-0.6959988924	 0.119444
H	 0.4951394725	-2.879420704	-0.4683151366	 0.119897
H	-0.8470365787	-3.937428479	-0.9104408759	 0.119484
55.5044	76.77	99.644	145.0421	181.4194	188.363	217.6499	227.8525	265.015	317.4619	319.6773	422.6728	489.4531	527.1904	580.8704	713.3462	765.7263	812.705	866.2051	955.9351	971.8254	1018.5623	1055.5042	1059.318	1067.5414	1109.7774	1128.2048	1161.8783	1169.7011	1181.1834	1190.8914	1196.7338	1226.0208	1263.9942	1308.605	1351.1175	1380.1877	1385.7646	1412.6732	1417.0426	1423.077	1441.4473	1477.2078	1478.9432	1484.6579	1488.2505	1495.2412	1498.814	1505.6038	1513.2741	1523.4844	2950.0425	2968.6704	2989.9151	3005.7393	3011.0512	3034.0855	3044.4206	3054.2403	3079.0438	3087.7467	3091.8529	3110.5475	3111.1571	3125.5386	3134.9404
COCCN1C(C)C1C	COCCN1[C@@H](C)[C@H]1C	
InChI=1S/C7H15NO/c1-6-7(2)8(6)4-5-9-3/h6-7H,4-5H2,1-3H3	InChI=1S/C7H15NO/c1-6-7(2)8(6)4-5-9-3/h6-7H,4-5H2,1-3H3/t6-,7+,8?
