19
gdb 19163	3.90711	1.49124	1.26017	2.6119	71.09	-0.2348	0.0643	0.2991	1015.8056	0.165763	-365.016348	-365.007983	-365.007039	-365.049115	31.359	
O	-0.0715657791	 1.5186269058	 0.2648590362	-0.425678
C	 0.0363008185	 0.1063541494	 0.3777292017	-0.155695
C	-1.2950426033	-0.5286397324	 0.0143272607	 0.31452
C	-2.5457882263	 0.1999984627	 0.3430126953	-0.271772
N	-2.0803911643	 0.0956156616	-1.0583716607	-0.357694
C	-1.2514642704	-2.0308484685	 0.0162249838	-0.062989
C	-2.2416478728	-2.833562176	-0.7828910874	-0.272058
C	-0.8005081489	-2.7741104932	-1.220538296	-0.264206
H	 0.7993114224	 1.9019950841	 0.397263726	 0.294553
H	 0.810539555	-0.2852208145	-0.3005157352	 0.097723
H	 0.3134321267	-0.1912277173	 1.4018636206	 0.093876
H	-3.4466550701	-0.3650580334	 0.5650333302	 0.110377
H	-2.4630202265	 1.1653653822	 0.8314541062	 0.123622
H	-1.6314962122	 0.9750519295	-1.3062831927	 0.238563
H	-0.9443875898	-2.4568629765	 0.9689250145	 0.077012
H	-2.6148929885	-3.7558877138	-0.3518108651	 0.102782
H	-2.9557694637	-2.27580011	-1.3772880698	 0.135664
H	-0.5822115493	-2.1788704506	-2.1007088825	 0.116937
H	-0.1784331473	-3.6541855092	-1.1001811657	 0.104465
81.2306	117.8739	184.4948	209.2135	242.3468	278.4044	351.1536	411.4448	469.294	571.9883	680.822	794.3355	827.435	847.6099	864.4569	928.4213	943.8141	963.5297	1003.1501	1014.9782	1062.5099	1078.3919	1093.3515	1112.149	1134.4568	1139.7152	1142.9902	1204.0621	1208.4342	1226.5574	1252.9373	1290.2923	1304.7602	1382.5272	1426.3378	1456.0377	1456.778	1496.2281	1504.6793	1518.3726	2968.5401	2999.4779	3116.0709	3127.002	3132.3052	3139.4974	3209.4907	3215.6975	3232.981	3494.7565	3848.1683
OCC1(CN1)C1CC1	OC[C@]1(CN1)C1CC1	
InChI=1S/C6H11NO/c8-4-6(3-7-6)5-1-2-5/h5,7-8H,1-4H2	InChI=1S/C6H11NO/c8-4-6(3-7-6)5-1-2-5/h5,7-8H,1-4H2/t6-/m1/s1
