20
gdb 90612	3.38789	1.39652	1.23468	2.8411	78.36	-0.2151	0.058	0.2731	1087.6889	0.171033	-403.074461	-403.066254	-403.06531	-403.106625	32.847	
C	 0.1796643124	 1.5691541976	 0.068594254	-0.492384
C	-0.0673006941	 0.0931993612	-0.0398244359	 0.347724
C	-1.015061121	-0.6421796913	 0.8179755192	-0.290895
N	 0.4304538863	-0.8984482713	 1.0202584842	-0.185752
C	 0.9475498115	-1.7687020358	-0.1044467416	 0.010357
C	 0.0859470432	-2.8841405645	-0.7642284164	 0.109646
O	-0.8154809395	-3.5521670823	 0.087456678	-0.417645
C	-0.4535351335	-1.8469951397	-1.8145589409	-0.308741
C	 0.4829500035	-0.7730875476	-1.1940167994	-0.088703
H	 1.2182908026	 1.8185537355	-0.1755737278	 0.119407
H	-0.4699753019	 2.124070919	-0.6195512517	 0.118192
H	-0.0227983558	 1.9207501321	 1.0845661526	 0.128095
H	-1.4352477228	-0.086767449	 1.6526716743	 0.111805
H	-1.6519030186	-1.4358808771	 0.4500803586	 0.133265
H	 1.9926242142	-2.0151262446	 0.0839790347	 0.076395
H	 0.7573924264	-3.6033296869	-1.2553695082	 0.073717
H	-1.2342177015	-4.2597914365	-0.4127694082	 0.286389
H	-0.2178760527	-2.1085779608	-2.8493302558	 0.097354
H	-1.5227429019	-1.6316033525	-1.7429448394	 0.103396
H	 1.1857082432	-0.2657837855	-1.8536429402	 0.068377
142.9517	175.2086	190.3739	265.5973	273.5287	302.9294	395.1959	416.3625	459.487	593.6879	605.6097	665.9467	709.7547	745.8735	830.6345	862.874	885.4528	906.3286	949.1934	986.291	989.3503	1032.1904	1066.2788	1077.3909	1097.8404	1123.8489	1142.019	1150.1464	1192.1471	1206.4254	1222.4206	1242.6805	1251.667	1314.644	1316.8449	1323.7849	1386.0346	1419.0443	1425.7649	1472.6265	1481.3874	1493.4332	1524.6644	2986.8352	3022.6672	3056.5095	3082.6002	3101.1401	3107.9554	3109.1787	3121.8067	3125.9681	3227.6973	3816.7074
CC12CN1C1C(O)CC21	C[C@]12CN1[C@H]1[C@@H](O)C[C@@H]21	
InChI=1S/C7H11NO/c1-7-3-8(7)6-4(7)2-5(6)9/h4-6,9H,2-3H2,1H3	InChI=1S/C7H11NO/c1-7-3-8(7)6-4(7)2-5(6)9/h4-6,9H,2-3H2,1H3/t4-,5+,6-,7-,8?/m1/s1
