21
gdb 100704	2.80922	1.01261	0.78834	6.8157	75.22	-0.2442	0.0328	0.277	1455.2723	0.183243	-457.576973	-457.566926	-457.565982	-457.612068	37.256	
C	-0.0113556656	 1.5690280187	 0.0756579977	-0.400039
C	-0.0379634878	 0.0364618711	 0.0571525573	-0.146826
C	 0.8357537099	-0.6190581939	 1.1512635416	 0.022768
N	 0.8655213775	-2.0813387976	 0.9348208606	-0.523268
H	-0.8195863906	-2.1398828002	 0.6739442914	 0.317834
H	 1.3438089171	-2.277523268	 0.0566826419	 0.234441
H	 1.443901482	-2.4940371901	 1.6632505417	 0.252069
C	 2.2563523496	-0.0396345997	 1.2644418197	-0.175981
N	 2.9958302931	-0.7700753556	 2.3042175204	-0.518723
C	-1.5109349303	-0.4570928267	 0.0954369611	 0.416053
O	-1.7014061731	-1.7298162539	 0.4470683296	-0.382692
O	-2.4313017332	 0.2625553721	-0.200891359	-0.339104
H	 0.965521335	 1.9609114412	-0.2181513518	 0.107345
H	-0.7676039402	 1.9496067765	-0.6109670126	 0.150229
H	-0.2524675192	 1.9549059867	 1.0720820575	 0.119116
H	 0.3557169042	-0.3027110705	-0.9152802832	 0.096156
H	 0.3376669472	-0.4655608505	 2.1202764192	 0.096058
H	 2.7770611681	-0.1883605757	 0.3091846684	 0.100704
H	 2.2105254815	 1.0433085784	 1.4409045486	 0.10287
H	 3.9898842309	-0.5841531225	 2.2242925706	 0.237333
H	 2.720160844	-0.4341830997	 3.2228498394	 0.233656
57.3417	100.8545	128.473	189.535	228.0554	247.0042	295.6824	331.5111	345.6724	368.0903	397.6582	427.2303	505.4186	541.1907	623.1166	731.5621	827.0816	834.1983	885.101	932.7343	946.631	1011.0658	1030.2252	1042.5483	1081.8684	1086.8997	1113.1128	1143.401	1179.5661	1220.3553	1256.156	1316.3214	1326.8458	1343.8586	1371.8679	1403.9963	1412.0894	1416.3211	1493.7595	1497.7419	1505.5693	1525.259	1659.0402	1660.4762	1842.6338	2975.795	3002.0804	3006.0398	3044.6547	3052.2324	3112.1124	3125.0914	3152.6629	3464.6383	3496.0292	3542.0942	3575.6383
CC(C([NH3+])CN)C([O-])=O	C[C@@H]([C@@H](N)CN)C(=O)O	
InChI=1S/C5H12N2O2/c1-3(5(8)9)4(7)2-6/h3-4H,2,6-7H2,1H3,(H,8,9)	InChI=1S/C5H12N2O2/c1-3(5(8)9)4(7)2-6/h3-4H,2,6-7H2,1H3,(H,8,9)/t3-,4-/m0/s1
