21
gdb 94823	3.73934	1.15658	1.01988	1.0639	86.86	-0.2291	0.021	0.2501	1258.9527	0.183181	-387.089386	-387.080974	-387.08003	-387.122163	33.41	
C	 0.0608702427	 1.5390629968	-0.0557501921	-0.396573
C	-0.0026246671	 0.0144733684	 0.0048447635	 0.092229
O	 0.5948842619	-0.4680914283	-1.1921138162	-0.262227
C	 0.8290397113	-1.8646096853	-1.1704598866	-0.169223
C	 1.8369916006	-2.2364484461	-0.0986431607	 0.333922
C	 2.3752683011	-3.6502264166	-0.0809878833	-0.31568
C	 3.2791853208	-2.5163733877	-0.4790612045	-0.301364
C	 1.5469951666	-1.5439759796	 1.1781624677	-0.132323
C	 0.676807084	-0.5363328566	 1.2359535261	-0.099422
H	 1.1018983452	 1.8741667053	-0.0585216275	 0.126281
H	-0.4241363969	 1.8976111487	-0.9675082581	 0.123236
H	-0.447733653	 1.9787826229	 0.807421961	 0.111469
H	-1.0677448307	-0.2890995159	 0.0214403209	 0.07027
H	-0.1156668006	-2.4055828753	-0.9889556068	 0.087242
H	 1.1867962853	-2.1358156809	-2.1686576048	 0.099702
H	 2.5299518982	-4.122700531	 0.8835802934	 0.113028
H	 2.0304874199	-4.3281532301	-0.855872749	 0.112999
H	 3.5498246226	-2.415235408	-1.5250625376	 0.116967
H	 4.0546177028	-2.2087471717	 0.2140919902	 0.114525
H	 2.0557939531	-1.8944168689	 2.0736233053	 0.085871
H	 0.4330730423	-0.0590503902	 2.1812741891	 0.089072
69.5828	191.9922	214.013	246.5713	275.7185	323.344	362.2836	392.9026	439.866	546.6755	588.8502	680.0517	743.7098	777.4991	809.6698	817.634	893.4634	933.87	944.3998	948.3586	976.2906	988.2489	1038.8892	1052.3067	1067.5813	1081.7653	1097.1747	1128.9897	1148.1815	1189.2584	1200.3313	1272.4316	1318.0336	1331.5601	1347.52	1361.3631	1397.9563	1404.381	1437.9442	1467.1687	1484.2948	1490.9706	1498.6244	1503.7125	1711.4369	2905.0154	2957.0618	3043.5925	3074.2092	3119.5473	3122.9158	3125.1589	3129.3083	3141.9	3170.4765	3202.2491	3219.0353
CC1OCC2(CC2)C=C1	C[C@H]1OCC2(CC2)C=C1	
InChI=1S/C8H12O/c1-7-2-3-8(4-5-8)6-9-7/h2-3,7H,4-6H2,1H3	InChI=1S/C8H12O/c1-7-2-3-8(4-5-8)6-9-7/h2-3,7H,4-6H2,1H3/t7-/m1/s1
