17
gdb 84507	3.07006	1.85465	1.49579	2.6306	72.86	-0.2396	-0.0174	0.2223	904.1244	0.137437	-421.735507	-421.728924	-421.72798	-421.766042	27.862	
O	 0.2733543504	 1.3702684029	-0.2204168823	-0.435318
C	 0.0852293823	-0.0253025148	-0.0808985822	 0.041935
C	 0.5653835797	-0.5020339986	 1.3119672426	-0.08282
C	-0.4322556783	-0.7340440758	 2.1799416975	-0.236297
C	-1.6975941841	-0.461955495	 1.4489559495	 0.410018
C	-3.1925078995	-0.7331862841	 1.1691802356	-0.311284
C	-2.6652121769	 0.3460255811	 0.1613750264	 0.015372
O	-2.0263058108	 1.0341925542	 1.2933984328	-0.364292
C	-1.3836398309	-0.5106220918	-0.0467090473	-0.041806
H	-0.3570885512	 1.762474056	 0.4037483532	 0.286499
H	 0.6573170802	-0.4891838389	-0.8896056266	 0.085357
H	 1.6213798586	-0.5182912742	 1.5618406295	 0.112437
H	-0.3341475616	-0.9615561719	 3.233537335	 0.116748
H	-3.4566745674	-1.7213718914	 0.7856389138	 0.105903
H	-3.8992263295	-0.3529958632	 1.9070142656	 0.116473
H	-3.2349737082	 0.9571757961	-0.5382996331	 0.101529
H	-1.5228454526	-1.4842265006	-0.5237337297	 0.079546
193.5318	223.6932	340.2741	368.9721	459.9544	530.2928	549.5318	622.0236	646.6793	669.8876	735.5144	777.435	819.479	848.3805	867.8482	893.6706	909.1851	967.2789	977.3346	983.9445	1025.112	1049.7384	1090.1345	1114.6856	1136.2785	1143.9299	1189.643	1194.3809	1231.8349	1263.2358	1293.591	1298.8247	1364.3335	1376.3102	1470.031	1488.0304	1615.1801	3063.7259	3069.2328	3082.3445	3122.5499	3154.7222	3187.9908	3220.3391	3696.9283
OC1C=CC23CC(O2)C13	O[C@H]1C=C[C@@]23C[C@@H](O2)[C@@H]13	
InChI=1S/C7H8O2/c8-4-1-2-7-3-5(9-7)6(4)7/h1-2,4-6,8H,3H2	InChI=1S/C7H8O2/c8-4-1-2-7-3-5(9-7)6(4)7/h1-2,4-6,8H,3H2/t4-,5+,6+,7-/m0/s1
