15
gdb 20833	4.89532	1.59355	1.31432	2.247	69.02	-0.2336	-0.0703	0.1633	934.5426	0.120226	-358.861156	-358.854052	-358.853108	-358.893431	25.458	
C	-0.0169261145	 1.5306981533	 0.0894061127	-0.380568
C	-0.0293890947	 0.0021728054	-0.0830555506	-0.247742
C	-1.4245011542	-0.5554278344	-0.0294352309	 0.388447
N	-2.0423708713	-0.5742851398	 1.1657215027	-0.260141
C	-3.2731465026	-1.0587571298	 1.1581828018	-0.00865
C	-3.8560195953	-1.5061966561	-0.0276700531	 0.014819
N	-3.1973698736	-1.4589479697	-1.1807904586	-0.166742
N	-1.95837418	-0.9759152989	-1.1839774219	-0.229148
H	 1.009496556	 1.9077951628	 0.0822299466	 0.120811
H	-0.5646425466	 2.0202184913	-0.7217498554	 0.12834
H	-0.4814070087	 1.8151895078	 1.0378125631	 0.134562
H	 0.4151892669	-0.279230235	-1.040260403	 0.126354
H	 0.5558493629	-0.4581133881	 0.7201680825	 0.120659
H	-3.8082237262	-1.0962025876	 2.1048736533	 0.129278
H	-4.8628990981	-1.909595371	-0.0625271091	 0.129719
34.6087	127.4094	221.6757	266.3738	375.2229	381.3723	526.7714	613.093	653.8927	793.1752	823.8899	847.2383	890.6793	980.6696	1011.3072	1035.0981	1067.7965	1083.4027	1088.537	1121.3173	1197.0869	1282.4048	1301.3051	1353.6425	1397.4568	1411.0433	1453.1835	1475.5834	1497.3397	1509.042	1569.4479	1594.2219	3042.0029	3053.1565	3105.988	3117.4181	3128.1333	3151.1837	3190.0044
CCC1=NC=CN=N1	CCc1nccnn1	
InChI=1S/C5H7N3/c1-2-5-6-3-4-7-8-5/h3-4H,2H2,1H3	InChI=1S/C5H7N3/c1-2-5-6-3-4-7-8-5/h3-4H,2H2,1H3
