18
gdb 105331	2.33906	1.56337	1.17129	4.1077	75.92	-0.2384	0.0228	0.2612	1101.4873	0.148888	-398.079686	-398.071168	-398.070224	-398.112689	32.462	
N	-0.0808560298	 1.4237947127	 0.0610433105	-0.507193
C	 0.2293200547	 0.0180144521	-0.1743817458	-0.207425
C	 0.8632783744	-0.5655911677	 1.0915254628	 0.163422
N	-0.026791285	-0.4585200203	 2.3151283549	-0.372489
C	 0.1911429952	-1.9005641486	 2.5901764011	 0.015177
C	-0.4489883404	-2.6821172646	 1.4929487147	-0.292416
C	 0.9315289336	-2.0988814479	 1.2797541506	-0.131042
C	 2.1792131188	 0.0292336098	 1.3443247094	 0.284362
N	 3.2275901232	 0.4647236461	 1.5637582033	-0.345841
H	-0.3998195806	 1.866811346	-0.7933333777	 0.23382
H	-0.8395475986	 1.4826092941	 0.7337945156	 0.238385
H	-0.6384964003	-0.6076280435	-0.4329545636	 0.092417
H	 0.9464168579	-0.0573344263	-0.9993624635	 0.118519
H	 0.4104712653	 0.1307263574	 3.0163002641	 0.243401
H	 0.3889396191	-2.2728306822	 3.5870611088	 0.108456
H	-0.4448046403	-3.7604861934	 1.6162668549	 0.123022
H	-1.3233123522	-2.2803542243	 0.9906858686	 0.121068
H	 1.7937343951	-2.7017195994	 1.0307683013	 0.114358
101.6558	140.4938	168.8464	186.9851	233.7699	302.4974	380.1133	424.1704	499.305	506.2901	579.528	658.8133	760.3508	781.8245	823.5222	863.2673	873.6651	930.7402	949.1328	969.9017	1016.5771	1033.4535	1051.1971	1063.5491	1084.6192	1088.8253	1128.3919	1174.4481	1201.3597	1225.9083	1282.4181	1307.1076	1343.4115	1397.8441	1421.9462	1478.2353	1500.4638	1647.2484	2349.3017	2984.5925	3068.44	3124.7649	3196.0168	3207.4891	3217.9269	3502.1625	3534.5144	3587.0084
NCC1(NC2CC12)C#N	NC[C@]1(N[C@H]2C[C@@H]12)C#N	
InChI=1S/C6H9N3/c7-2-6(3-8)4-1-5(4)9-6/h4-5,9H,1-2,7H2	InChI=1S/C6H9N3/c7-2-6(3-8)4-1-5(4)9-6/h4-5,9H,1-2,7H2/t4-,5+,6+/m1/s1
