16
gdb 12054	3.47219	1.86645	1.54718	0.9217	64.5	-0.256	-0.0332	0.2228	853.55	0.128603	-383.709027	-383.701493	-383.700549	-383.740822	28.07	
C	 0.0548910549	 1.6670162164	 0.3897633416	-0.472828
C	-0.0127970396	 0.1662842257	 0.1212636019	 0.198521
C	 0.9220126482	-0.4375939928	-0.9868077791	-0.314743
C	 1.6170939952	-1.2680077928	 0.0951419172	 0.048036
O	 2.1274771884	-0.3556493521	 1.0846917183	-0.245388
C	 0.7553385004	-0.728157674	 1.1525676942	-0.014249
C	-1.4464238692	-0.3093409083	 0.0083559714	 0.106825
O	-1.8638273705	-1.1083904192	-0.7905975697	-0.246194
H	 1.0807168026	 1.9461091969	 0.6404122171	 0.146626
H	-0.2553146159	 2.2403577337	-0.4900977419	 0.126597
H	-0.5948959666	 1.9536826459	 1.2248496326	 0.118471
H	 0.3467928077	-1.0411856551	-1.6909859904	 0.139378
H	 1.5619580471	 0.2710759782	-1.5166957599	 0.110457
H	 2.1107634654	-2.2286575387	 0.0139967174	 0.111783
H	 0.3917948038	-1.1533151743	 2.0816859434	 0.1084
H	-2.124695322	 0.1364350607	 0.7730680059	 0.078308
79.7899	175.2359	224.9659	243.1686	299.3734	326.6892	394.8518	475.0929	617.6572	686.1409	783.6248	824.5426	844.5597	867.6744	921.4704	936.0567	980.8706	991.6464	1029.7064	1052.1513	1124.8298	1147.3255	1200.8198	1231.4116	1247.0295	1267.4385	1273.5595	1379.354	1402.4557	1428.3026	1466.5496	1489.9527	1504.1675	1823.1209	2860.7368	3030.9994	3075.2477	3094.7855	3128.0587	3142.355	3176.1565	3200.3483
CC1(CC2OC12)C=O	C[C@]1(C[C@H]2O[C@@H]12)C=O	
InChI=1S/C6H8O2/c1-6(3-7)2-4-5(6)8-4/h3-5H,2H2,1H3	InChI=1S/C6H8O2/c1-6(3-7)2-4-5(6)8-4/h3-5H,2H2,1H3/t4-,5-,6+/m1/s1
