18
gdb 94598	3.25818	1.07774	0.88114	3.2831	68.44	-0.2486	0.0487	0.2973	1314.0814	0.146454	-476.249294	-476.239809	-476.238865	-476.284955	33.531	
C	-0.2065685456	 1.5665183211	 0.0335818207	-0.392852
C	 0.0916635164	 0.0819241894	-0.0324858646	 0.114688
O	 1.3591447453	-0.2064765169	-0.6745431208	-0.295272
C	 1.8663573198	-0.8809469574	 0.4974636702	-0.089137
C	 0.5510773422	-0.644182859	 1.2528135811	 0.078607
O	 0.6177651373	 0.2209454209	 2.3824809283	-0.266028
C	 1.1345130459	-0.3531359924	 3.5020611087	 0.497673
N	 1.1681905771	 0.5563982002	 4.5175331118	-0.565621
O	 1.5297524085	-1.493845199	 3.5633332641	-0.398444
H	 0.5741261278	 2.1004233181	 0.5793837359	 0.126378
H	-0.2634186292	 1.9691076064	-0.9821889307	 0.127203
H	-1.1658563804	 1.7463217388	 0.5298884656	 0.115981
H	-0.7235039069	-0.446819069	-0.5449671228	 0.078886
H	 2.1169011397	-1.9290750513	 0.3026774651	 0.11316
H	 2.7356659417	-0.3717169474	 0.9287287824	 0.110659
H	-0.0010380852	-1.5459188915	 1.5189088073	 0.105636
H	 0.6353574154	 1.4050908601	 4.4362473326	 0.26691
H	 1.3607798504	 0.1973299391	 5.4362518649	 0.271573
37.5542	55.3021	110.4828	134.0188	211.8498	248.5471	305.36	374.1879	387.9714	447.5528	513.8552	552.5335	647.5962	760.7991	784.3194	855.2776	882.6096	909.0572	954.4506	1016.2113	1043.1897	1069.9156	1100.06	1110.211	1149.4958	1162.4985	1184.6523	1256.1908	1292.8558	1338.3983	1363.5428	1383.4589	1402.0523	1419.9561	1483.8868	1490.4677	1512.3401	1611.1371	1832.7998	3008.372	3032.0848	3043.3995	3079.4117	3109.5893	3112.1919	3134.7244	3619.1236	3750.1321
CC1OCC1OC(N)=O	C[C@H]1OC[C@H]1OC(=O)N	
InChI=1S/C5H9NO3/c1-3-4(2-8-3)9-5(6)7/h3-4H,2H2,1H3,(H2,6,7)	InChI=1S/C5H9NO3/c1-3-4(2-8-3)9-5(6)7/h3-4H,2H2,1H3,(H2,6,7)/t3-,4-/m1/s1
