17
gdb 17931	3.36068	2.4224	2.01785	0.7808	75.25	-0.2068	-0.034	0.1728	762.526	0.142514	-326.610451	-326.603766	-326.602822	-326.640718	26.882	
C	 0.0651674929	 1.7049985472	-0.191841648	-0.512475
C	 0.1672240718	 0.2260959958	 0.0052447216	 0.31867
C	 0.7987755328	-0.8225677816	-0.8027904065	-0.059214
C	 1.7957187186	-1.580368418	 0.093145454	-0.270082
C	 1.0446935347	-1.5040613393	 1.415242345	-0.114111
C	 0.0499790272	-0.5949733248	 1.3024053396	-0.02681
C	-1.2738292472	-1.1582329994	 0.783738267	-0.173508
N	-0.7509555254	-0.7766451174	-0.6073871524	-0.190816
H	 0.9701522055	 2.2092058776	 0.1643558698	 0.125721
H	-0.0658580022	 1.9394555696	-1.2524383455	 0.128802
H	-0.7860453575	 2.1202924838	 0.3584793434	 0.125157
H	 1.0016430268	-0.6851965474	-1.8617991227	 0.096885
H	 1.9357562652	-2.6364567798	-0.1651796122	 0.117313
H	 2.7828654158	-1.1017760922	 0.0124172992	 0.115972
H	 0.9087672112	-2.4115438977	 1.9982860711	 0.094448
H	-1.4734385055	-2.2187959328	 0.9601918039	 0.108733
H	-2.1819138847	-0.5661354637	 0.9334079529	 0.115316
191.1066	212.604	267.9317	271.1018	424.3433	473.0416	559.2796	588.8029	685.8975	724.6654	783.2983	804.7127	862.2814	900.907	911.6245	920.4032	987.6077	992.3898	1032.8818	1051.2724	1074.3437	1111.0898	1120.2787	1168.4088	1216.0945	1241.6791	1257.3185	1291.2088	1309.3048	1402.232	1439.1593	1468.5944	1482.3149	1492.0153	1509.7188	1576.9616	2997.9391	3030.7817	3042.7377	3059.8334	3094.0874	3105.3469	3110.8405	3152.1213	3155.8482
CC12C3CC=C1CN23	C[C@@]12[C@H]3C[CH][C]1CN23	
InChI=1S/C7H9N/c1-7-5-2-3-6(7)8(7)4-5/h2,6H,3-4H2,1H3	InChI=1S/C7H9N/c1-7-5-2-3-6(7)8(7)4-5/h2,6H,3-4H2,1H3/t6-,7+,8?/m1/s1
