23
gdb 113215	3.33188	0.91162	0.81139	1.8583	86.31	-0.2556	0.088	0.3437	1527.9215	0.203903	-388.261567	-388.251389	-388.250445	-388.297213	37.617	
C	-0.3005203329	 1.5116758631	 0.653129425	-0.370044
C	 0.2420622968	 0.2079778706	 0.0546437092	-0.205858
C	 0.8413933805	-0.7028284983	 1.1075798324	-0.010533
C	-0.0053788829	-1.659599109	 1.9149497877	-0.337868
C	 1.0132034325	-2.2024337727	 0.9394482344	 0.291631
C	 0.5213258302	-2.911416408	-0.3117369907	-0.470534
C	 2.3023891887	-2.7843981554	 1.4402554296	 0.025335
C	 2.6746390542	-2.9456715194	 2.8509952446	-0.183538
O	 2.2531903932	-4.0690943298	 2.0793828618	-0.242369
H	 0.4912797668	 2.0734354148	 1.160954834	 0.113391
H	-0.7228983149	 2.1584667403	-0.1221863965	 0.110434
H	-1.0852539124	 1.3088433265	 1.3893782408	 0.1188
H	-0.5657421114	-0.3085820832	-0.4748728333	 0.096597
H	 1.0016386243	 0.4433591401	-0.7027276671	 0.096889
H	 1.644558625	-0.2301719189	 1.6715524724	 0.076566
H	 0.1638051615	-1.7442324771	 2.9819881309	 0.109545
H	-1.0478431257	-1.7668446741	 1.6297182744	 0.107575
H	-0.4360084568	-2.5175289687	-0.6602951959	 0.114918
H	 1.2422673289	-2.8165661387	-1.1325632156	 0.113359
H	 0.3894241755	-3.9786113153	-0.1056572072	 0.135085
H	 3.1257421228	-2.7019006456	 0.7255349788	 0.087455
H	 3.7282841371	-2.9344633376	 3.1299551801	 0.109853
H	 1.9907586592	-2.6392101835	 3.6394746603	 0.113313
45.943	71.0462	137.1603	145.4418	206.5685	232.9553	266.5904	288.7738	324.9014	350.2998	435.2776	470.1894	594.8656	674.1802	774.8373	808.3429	836.9315	858.6219	904.2878	934.8501	954.0557	962.9876	1007.0061	1022.668	1055.5635	1064.1284	1095.4039	1110.0958	1128.1182	1143.3156	1158.1076	1171.678	1198.1833	1256.7745	1292.8786	1301.0411	1324.213	1352.3334	1408.3631	1414.4857	1426.2923	1440.3394	1480.5397	1491.9862	1495.8451	1497.9263	1505.825	1510.5888	1529.3655	3018.6326	3029.562	3031.2657	3061.8007	3069.3996	3085.5835	3091.32	3098.8792	3104.8982	3113.6325	3120.2507	3130.5822	3171.0886	3213.9346
CCC1CC1(C)C1CO1	CC[C@H]1C[C@]1(C)[C@H]1CO1	
InChI=1S/C8H14O/c1-3-6-4-8(6,2)7-5-9-7/h6-7H,3-5H2,1-2H3	InChI=1S/C8H14O/c1-3-6-4-8(6,2)7-5-9-7/h6-7H,3-5H2,1-2H3/t6-,7+,8-/m0/s1
