21
gdb 118662	2.73338	0.71157	0.58763	2.3251	81.23	-0.2574	0.0484	0.3058	1870.8075	0.179198	-424.18036	-424.169026	-424.168081	-424.217679	39.622	
O	-0.1425148387	 1.4799635301	 0.0788957338	-0.421364
C	 0.0110669701	 0.0722032523	-0.0301764527	-0.085976
C	-1.3818341041	-0.5427151322	 0.0097733728	-0.173665
C	-1.3824466351	-2.0865877515	-0.0394793455	-0.179646
C	-2.813979887	-2.6382404965	 0.1404308754	-0.173665
C	-2.8793972851	-4.1571048162	 0.233499561	-0.085978
O	-4.237244477	-4.5114106134	 0.4525831615	-0.421364
C	-0.7683713474	-2.5831648187	-1.2730604433	 0.358713
C	-0.279163186	-2.9814335001	-2.2974081023	-0.499142
H	 0.7245370055	 1.8840073886	-0.0172234588	 0.285935
H	 0.5146154977	-0.2067240787	-0.9668674008	 0.101793
H	 0.6172716605	-0.3273812321	 0.8005487338	 0.080641
H	-1.8779539953	-0.2217119132	 0.9324152826	 0.10796
H	-1.9687869298	-0.147301229	-0.8262996328	 0.115148
H	-0.7757717987	-2.4485735939	 0.8046790081	 0.102603
H	-3.2398524297	-2.214497177	 1.056684478	 0.107962
H	-3.4440614072	-2.3058818091	-0.6916870091	 0.115147
H	-2.4908358595	-4.6041064104	-0.6927608078	 0.101794
H	-2.238649379	-4.5063036504	 1.0610017503	 0.080642
H	-4.3018718014	-5.4705599903	 0.4414348345	 0.285935
H	 0.1590938172	-3.3370200382	-3.1969395387	 0.196528
70.7793	79.1705	86.8917	110.8509	112.6152	175.7815	239.7752	252.1781	255.2139	266.2289	307.0479	410.7047	432.5713	551.5115	621.2734	626.5533	636.6084	778.0655	799.2438	870.8053	973.9131	1016.2535	1039.2293	1053.4872	1070.0173	1103.6349	1103.9221	1129.1872	1213.1101	1224.2919	1227.3166	1262.1584	1299.4913	1311.116	1312.9781	1349.0935	1353.6908	1368.4335	1461.2526	1466.7482	1484.9157	1494.9193	1528.9178	1529.1823	2227.6084	2957.6953	2957.9456	2988.8853	3013.7517	3014.6011	3040.8833	3046.3706	3087.7806	3094.8003	3502.9407	3832.1517	3832.1829
OCCC(CCO)C#C	OCCC(CCO)C#C	
InChI=1S/C7H12O2/c1-2-7(3-5-8)4-6-9/h1,7-9H,3-6H2	InChI=1S/C7H12O2/c1-2-7(3-5-8)4-6-9/h1,7-9H,3-6H2
