14
gdb 128671	7.14516	0.88004	0.78743	3.2645	73.7	-0.2426	-0.044	0.1987	1357.7615	0.102386	-432.893439	-432.885382	-432.884437	-432.926378	28.667	
C	 0.0242331863	 1.417809302	-0.0569403818	-0.23851
O	 0.00964875	-0.0089340979	-0.0111964115	-0.268649
C	 0.5950674343	-0.6345163496	-1.0380925205	 0.492647
N	 1.165433218	 0.0071990264	-2.0562375722	-0.296978
N	 1.6243025099	-0.9744790073	-2.8541876337	-0.301471
C	 1.357066298	-2.2167085895	-2.3639144103	 0.334854
C	 0.6806435319	-2.0375175424	-1.1695805054	-0.464516
C	 1.7503862484	-3.3941194982	-3.0431792584	 0.234669
N	 2.0798830289	-4.3470470283	-3.6126802709	-0.333484
H	 1.0507338207	 1.7977681011	-0.0708355464	 0.137636
H	-0.4981421133	 1.7855438862	-0.9458549912	 0.137626
H	-0.4887004332	 1.7487897543	 0.8463610638	 0.135354
H	 2.1044432601	-0.7416664653	-3.7069205282	 0.291023
H	 0.3099598601	-2.7963651515	-0.5029748133	 0.139799
80.6523	138.8434	155.6228	183.6011	253.6262	345.5306	415.4938	431.1128	534.6116	560.9276	612.0257	691.5254	712.3893	736.1047	819.6277	984.5346	1040.0647	1059.6223	1180.752	1181.7516	1200.4698	1238.3271	1288.6705	1422.0516	1456.5203	1468.2147	1480.73	1501.3101	1552.0971	1603.1325	2349.3857	3035.7889	3103.9355	3151.9443	3293.2606	3678.2048
COC1=NNC(=C1)C#N	COc1n[nH]c(c1)C#N	
InChI=1S/C5H5N3O/c1-9-5-2-4(3-6)7-8-5/h2H,1H3,(H,7,8)	InChI=1S/C5H5N3O/c1-9-5-2-4(3-6)7-8-5/h2H,1H3,(H,7,8)
