21
gdb 107882	2.48503	1.54814	1.14559	1.7677	82.35	-0.2253	0.0864	0.3117	1163.5409	0.181128	-387.009054	-387.000352	-386.999408	-387.042359	33.729	
C	-1.7852250274	-1.0999031684	 0.2022384324	-0.378854
C	-0.4284710763	-0.3872049491	 0.144400927	-0.335073
C	 0.5014435392	-0.8462390333	 1.2288767672	 0.494318
O	 0.0504524372	-0.6296090895	 2.6125255007	-0.367036
C	 1.3479319781	-1.2664576269	 2.7473500058	 0.087515
C	 1.1597365331	-2.2421350024	 1.5500673304	-0.156882
C	 2.5285415326	-1.8412359334	 0.9471294775	-0.009121
C	 2.7852013111	-1.9654452254	-0.547736975	-0.423843
C	 2.0045230472	-0.5153834847	 1.5519041998	-0.168949
H	-2.2421244401	-0.9717216984	 1.186831617	 0.142347
H	-2.4686804443	-0.6989857031	-0.551712725	 0.111188
H	-1.6744654731	-2.1739226045	 0.0209137351	 0.116355
H	 0.0454167436	-0.5395050021	-0.8310989624	 0.111165
H	-0.5681123103	 0.6947838113	 0.2614008781	 0.114423
H	 1.7410861721	-1.4607185421	 3.7448481946	 0.090878
H	 0.6601652788	-3.2116710813	 1.5744957568	 0.075719
H	 3.3760558081	-2.2559595652	 1.5070728947	 0.068327
H	 1.9610667528	-1.5687109502	-1.1472362962	 0.117821
H	 3.6932292948	-1.4228961152	-0.8336285837	 0.117629
H	 2.9270506285	-3.0138275493	-0.8330501601	 0.117357
H	 2.4615787744	 0.4751199331	 1.5767886154	 0.074714
67.2487	159.0615	179.6341	199.1735	222.505	260.4137	332.0795	393.8846	524.1776	551.4565	633.0708	727.0964	740.1277	773.742	817.4264	835.8284	840.8837	892.4187	897.3974	963.4049	986.27	1008.9853	1045.0946	1069.5809	1074.347	1103.448	1115.9852	1122.6217	1144.6864	1163.7199	1183.6817	1241.0362	1247.7171	1269.0886	1300.1676	1337.7318	1394.1249	1405.5505	1409.8943	1416.4122	1467.7406	1493.9776	1495.9302	1500.2729	1508.6284	3024.5152	3031.8384	3034.5113	3042.1562	3076.3609	3089.78	3105.316	3106.4169	3109.6749	3113.2002	3126.846	3127.5075
CCC12OC3C1C(C)C23	CC[C@@]12O[C@H]3[C@@H]1[C@@H](C)[C@@H]23	
InChI=1S/C8H12O/c1-3-8-5-4(2)6(8)7(5)9-8/h4-7H,3H2,1-2H3	InChI=1S/C8H12O/c1-3-8-5-4(2)6(8)7(5)9-8/h4-7H,3H2,1-2H3/t4-,5+,6-,7+,8-
