18
gdb 70803	2.93744	1.56929	1.23758	3.1003	76.85	-0.2419	-0.0086	0.2333	1058.746	0.14644	-401.927461	-401.919126	-401.918182	-401.959962	31.84	
C	-0.0452455268	 1.4485406844	 0.104760961	-0.496228
C	 0.0570887963	-0.037595076	-0.0625685339	 0.344679
C	-0.5857156221	-0.8882976916	-1.1533793503	-0.340564
C	-0.409710437	-2.0511389955	-0.1521138039	 0.188973
C	-1.3274320335	-3.2307280596	-0.0599307727	-0.501596
N	-0.3059550357	-0.9881734227	 1.019669809	-0.209134
C	 1.1601496397	-0.831733237	 0.5872576051	-0.242817
C	 1.1113081032	-2.1939835557	-0.0144328827	 0.451745
O	 1.873974555	-3.112847156	-0.1180185528	-0.341617
H	 0.5673585689	 1.9668908494	-0.6403924928	 0.131024
H	-1.082880463	 1.7760910004	-0.0167080687	 0.130702
H	 0.2923688345	 1.7522705141	 1.0998515483	 0.136364
H	-1.6401966267	-0.6179759215	-1.2711572484	 0.111552
H	-0.111641302	-0.9720702272	-2.1363238757	 0.110976
H	-1.2272745805	-3.8482808311	-0.9588075794	 0.138607
H	-1.0773645353	-3.8517610066	 0.804859956	 0.141794
H	-2.3710625388	-2.9141647262	 0.0261307459	 0.127984
H	 1.9046736339	-0.3834727314	 1.2330068762	 0.117557
139.1697	161.9416	188.1568	190.4749	251.4369	256.5557	358.4594	433.37	492.3366	546.9267	634.32	681.4617	727.0908	760.4789	803.4452	820.6486	865.1177	927.9525	983.3247	995.6754	1009.8253	1041.5837	1101.0884	1106.0318	1130.7885	1176.2521	1206.4734	1235.5734	1301.8662	1341.9941	1383.7067	1411.0321	1423.8413	1477.5263	1481.8613	1486.7987	1491.5444	1502.3335	1885.5794	3035.4613	3039.1837	3042.4763	3094.9235	3103.3816	3110.1365	3115.8142	3118.7366	3205.6609
CC12CC3(C)N1C2C3=O	C[C@]12C[C@]3(C)N1[C@H]2C3=O	
InChI=1S/C7H9NO/c1-6-3-7(2)5(9)4(6)8(6)7/h4H,3H2,1-2H3	InChI=1S/C7H9NO/c1-6-3-7(2)5(9)4(6)8(6)7/h4H,3H2,1-2H3/t4-,6+,7-,8?/m0/s1
