23
gdb 114359	3.11466	1.00983	0.97281	1.3235	85.38	-0.2475	0.0727	0.3202	1379.6565	0.206082	-388.266213	-388.256967	-388.256023	-388.300328	35.755	
C	-0.279152183	 1.4763834218	 0.1035347599	-0.376751
C	-0.0346903961	-0.032479738	-0.0123139465	-0.199091
C	 0.7393563746	-0.5970873783	 1.172699192	 0.062434
C	 0.0778238333	-0.6442778746	 2.5866367141	-0.260725
C	 0.6730519846	-2.0649270742	 2.8163935176	-0.037152
C	-0.3171310318	-3.2223971515	 2.6186370907	 0.138262
O	-1.5791603214	-3.0201480249	 3.2153328775	-0.430806
C	-0.1771172481	-3.0769053155	 1.0712908934	-0.291387
C	 1.0332000878	-2.1154998193	 1.2850445782	-0.055664
H	 0.6661590056	 2.0286730642	 0.15261309	 0.111207
H	-0.8429188087	 1.8571789629	-0.7538785964	 0.108885
H	-0.8482382141	 1.7160637098	 1.0083153953	 0.120057
H	-0.9997729361	-0.5458705784	-0.1062649588	 0.093821
H	 0.5165385569	-0.2458300062	-0.9383554942	 0.089812
H	 1.6960282266	-0.0641632987	 1.2499553167	 0.064088
H	 0.4049561552	 0.1223275091	 3.2918033928	 0.095328
H	-1.0151583768	-0.6489790507	 2.5694823351	 0.113897
H	 1.4097662467	-2.1528207196	 3.6156608347	 0.058818
H	 0.1289542802	-4.1687793025	 2.9588308137	 0.062117
H	-2.1416675536	-3.7693024018	 2.9953228483	 0.281784
H	 0.041408985	-3.9996930228	 0.5285639786	 0.093932
H	-1.0501856934	-2.6043226846	 0.6140285432	 0.100928
H	 1.9898933565	-2.4793751163	 0.9073796441	 0.056207
65.6043	94.6879	162.7968	206.9782	245.941	255.1622	295.7843	385.437	393.7815	470.3972	535.6292	598.419	711.1345	763.6689	779.6862	790.2055	859.5197	893.372	915.7796	942.1724	957.3778	1004.5283	1023.8136	1035.8438	1061.0099	1095.1812	1099.1847	1127.3838	1142.6936	1169.7526	1191.0237	1212.0725	1234.2373	1241.1085	1259.1159	1283.7165	1291.1104	1314.9842	1319.3055	1335.2081	1351.4932	1395.3756	1412.7413	1421.2022	1474.6019	1484.07	1498.6623	1500.3522	1507.9998	2982.0778	3012.4238	3013.0964	3029.5356	3048.3303	3061.0426	3066.3063	3086.9876	3095.7083	3098.7608	3101.1079	3114.8975	3119.9537	3818.0874
CCC1CC2C(O)CC12	CC[C@H]1C[C@H]2[C@@H](O)C[C@@H]12	
InChI=1S/C8H14O/c1-2-5-3-7-6(5)4-8(7)9/h5-9H,2-4H2,1H3	InChI=1S/C8H14O/c1-2-5-3-7-6(5)4-8(7)9/h5-9H,2-4H2,1H3/t5-,6-,7+,8-/m0/s1
