21
gdb 107647	3.22404	1.26065	1.0367	1.913	83.82	-0.2401	0.0076	0.2478	1241.1859	0.183166	-387.094022	-387.085343	-387.084399	-387.127398	33.46	
C	-0.5238444965	 1.4691249344	-0.2040706336	-0.382443
C	 0.1022782879	 0.1005591153	 0.0940064525	-0.265751
C	 0.8952274062	-0.4543770946	-1.0748283073	 0.395987
O	 0.0750921008	-0.8473483647	-2.2041177425	-0.302032
C	 0.7720631909	-1.8665352334	-1.4731485988	-0.036841
C	 1.9126288266	-2.5585039116	-2.2095787643	-0.234098
C	 3.2948711208	-1.9598144175	-1.8834092585	-0.270178
C	 3.2684017982	-0.4570319971	-1.7614192398	-0.054853
C	 2.1793940298	 0.2266131487	-1.4105851827	-0.12412
H	 0.2352713881	 2.2348303214	-0.3931373373	 0.117587
H	-1.1678819904	 1.4074530474	-1.0858998955	 0.136219
H	-1.1305129381	 1.8098021702	 0.6401322595	 0.112168
H	 0.758260254	 0.1669793156	 0.9712287355	 0.100076
H	-0.6913757562	-0.6128488339	 0.3416498499	 0.102362
H	 0.1132115455	-2.5069185358	-0.8856484013	 0.083266
H	 1.9078061756	-3.6297818007	-1.9844060408	 0.097188
H	 1.7153298238	-2.4546865649	-3.2816382236	 0.122504
H	 3.6806601711	-2.3846715469	-0.9446444213	 0.114135
H	 4.0148559451	-2.2586472243	-2.6531793213	 0.107808
H	 4.1967577472	 0.073309971	-1.9596760145	 0.092355
H	 2.2110820698	 1.3094323911	-1.3313927844	 0.088661
79.8936	97.8797	167.0672	212.8995	257.7491	300.6145	369.8787	426.4634	493.9998	522.9124	569.1353	657.106	722.9574	772.63	776.0186	818.1799	872.8132	909.0889	946.5553	966.8542	983.2756	999.0696	1050.4205	1062.9621	1086.9449	1102.9491	1109.2966	1194.8212	1208.4839	1229.8516	1272.2825	1291.239	1329.8553	1345.6844	1368.5247	1385.9159	1409.601	1428.2822	1461.8681	1473.1151	1477.2063	1484.5786	1501.2854	1507.9859	1714.6237	2999.0869	3027.7375	3041.6569	3042.7497	3060.1743	3069.188	3085.1648	3101.3509	3107.7197	3119.8335	3149.8242	3175.4494
CCC12OC1CCC=C2	CC[C@]12O[C@H]1CCC=C2	
InChI=1S/C8H12O/c1-2-8-6-4-3-5-7(8)9-8/h4,6-7H,2-3,5H2,1H3	InChI=1S/C8H12O/c1-2-8-6-4-3-5-7(8)9-8/h4,6-7H,2-3,5H2,1H3/t7-,8+/m0/s1
