19
gdb 40422	3.9983	1.21938	1.08684	1.5177	80.49	-0.2293	0.0167	0.246	1153.544	0.160332	-385.863776	-385.856158	-385.855214	-385.896008	30.154	
C	 0.5505820979	 1.4186140551	 0.072648896	-0.177251
O	 1.0423470717	 0.1767240715	-0.4376991751	-0.236071
C	-0.2962645016	 0.2157364209	 0.0613317522	-0.042231
C	-0.5831158014	-0.5761484676	 1.2956156434	 0.335488
C	 0.5444615523	-1.0206163319	 2.2049230949	-0.331852
C	-0.2395141583	-2.0566182278	 1.4387021747	-0.08744
C	-1.4165323612	-2.7441275244	 2.1292991182	-0.2807
C	-2.3552672071	-1.5989098689	 2.4506900628	-0.080861
C	-1.9117275945	-0.4351321243	 1.970651567	-0.15568
H	 0.9968285535	 1.7422230247	 1.0115329131	 0.114295
H	 0.3982518862	 2.1993270658	-0.6710779488	 0.114413
H	-1.0575706538	 0.1462783712	-0.7184335518	 0.091401
H	 1.5514333875	-0.8327924047	 1.8483965	 0.126569
H	 0.3990682859	-0.9277369891	 3.2764553566	 0.106102
H	 0.2772565199	-2.5702568373	 0.63663943	 0.09702
H	-1.8971781855	-3.4816314647	 1.4723229729	 0.108441
H	-1.11092374	-3.2910178554	 3.0309733656	 0.110834
H	-3.2624174372	-1.7316915666	 3.029583169	 0.095178
H	-2.4134136441	 0.5211265136	 2.0726038791	 0.092346
74.0375	160.2431	193.0365	283.9347	315.2882	419.4702	457.7445	496.1462	644.6996	716.4079	747.6268	771.4333	830.6115	865.7085	894.1474	897.421	923.3532	936.6485	956.2266	978.1966	1018.9282	1034.2552	1079.0991	1083.9994	1090.3683	1106.0378	1136.2814	1151.6058	1174.7984	1191.249	1231.3966	1257.6597	1296.2895	1317.7241	1351.7038	1394.6017	1441.7251	1468.7401	1482.4268	1521.7842	1669.3284	3013.7475	3040.4391	3083.1017	3087.9697	3125.3404	3174.859	3180.734	3181.3213	3206.799	3220.7116
C1OC1C12CC1CC=C2	C1O[C@H]1[C@]12C[C@H]1CC=C2	
InChI=1S/C8H10O/c1-2-6-4-8(6,3-1)7-5-9-7/h1,3,6-7H,2,4-5H2	InChI=1S/C8H10O/c1-2-6-4-8(6,3-1)7-5-9-7/h1,3,6-7H,2,4-5H2/t6-,7-,8-/m1/s1
