18
gdb 40578	3.95142	1.41003	1.32092	1.3933	74.59	-0.2156	0.0736	0.2893	1008.8805	0.148591	-401.835078	-401.828073	-401.827129	-401.866843	28.101	
C	 0.7603417043	 1.2182137164	 0.3038886137	-0.228836
C	 0.5845990646	 0.1396284505	-0.7097259978	-0.224721
N	-0.4626779384	 0.424996941	 0.2688505872	-0.107153
C	-0.737831287	-0.4633963676	 1.3715399859	 0.085803
C	-1.6621981954	-1.6594128762	 1.1702642446	-0.153428
C	-0.7367687201	-2.8649269866	 0.9433443602	 0.094567
O	 0.612647852	-2.401341578	 0.8972622709	-0.282091
C	 0.2551857001	-1.5165033191	 1.9986143415	 0.006081
C	-0.9990995415	-2.4015314393	 2.3322150609	-0.14658
H	 1.4718676116	 1.0303043864	 1.1068316282	 0.105134
H	 0.6569739639	 2.2647444568	 0.0289845121	 0.111697
H	 0.3289352107	 0.4035616897	-1.7329912469	 0.108637
H	 1.166862925	-0.7662977872	-0.5918822661	 0.143422
H	-1.1248408881	 0.1489484714	 2.1938361225	 0.088029
H	-2.7060772087	-1.6591256553	 0.8851095606	 0.09633
H	-1.0045082032	-3.762033879	 0.401744177	 0.113321
H	 1.0969840796	-1.2580334147	 2.6372325999	 0.086362
H	-1.3910740195	-2.8564391291	 3.2300803356	 0.103424
60.4322	182.0048	213.3965	321.6742	392.1584	520.8733	623.3654	761.2014	765.3509	781.9853	797.7899	816.3386	831.8704	845.634	885.5876	908.8487	937.014	973.1244	993.3259	1025.5934	1029.3226	1034.8057	1059.2325	1071.1859	1103.9693	1127.9568	1129.9512	1144.9238	1169.0837	1179.1086	1185.5531	1225.0933	1237.8722	1309.3519	1351.3304	1371.3747	1396.0403	1495.6244	1522.1897	3049.4315	3090.6011	3115.0799	3146.3496	3173.6742	3204.9289	3211.0133	3223.9897	3227.4463
C1CN1C1C2C3OC1C23	C1CN1[C@H]1[C@H]2[C@H]3O[C@@H]1[C@@H]23	
InChI=1S/C7H9NO/c1-2-8(1)5-3-4-6(3)9-7(4)5/h3-7H,1-2H2	InChI=1S/C7H9NO/c1-2-8(1)5-3-4-6(3)9-7(4)5/h3-7H,1-2H2/t3-,4-,5-,6+,7+/m0/s1
