21
gdb 58993	3.2656	1.17701	1.11437	1.355	84.48	-0.2171	0.017	0.2341	1216.5503	0.183199	-387.057775	-387.049284	-387.048339	-387.090994	33.444	
C	 0.0170515546	 1.4911927354	-0.0630220131	-0.409764
C	-0.019949824	-0.0435524929	-0.0351589374	-0.030026
O	 0.625204478	-0.5451534594	 1.1394293793	-0.43985
C	-1.4139926527	-0.5749463244	-0.025176598	 0.425293
C	-2.115747092	-1.2286142723	-0.9560776755	-0.238283
C	-3.4788709203	-1.4543206518	-0.286397893	-0.062508
C	-3.7106526526	-0.0467861004	 0.3653939311	-0.211516
C	-2.411614427	-0.4569771696	 1.1428450959	-0.106561
C	-3.010356783	-1.9052897452	 1.141117704	-0.204995
H	 1.0532681067	 1.8512225561	-0.0494846549	 0.102341
H	-0.4598273941	 1.8746859171	-0.9697505328	 0.122276
H	-0.5009811127	 1.9046387709	 0.8075123239	 0.127561
H	 0.4878025402	-0.4227636849	-0.9370409932	 0.066589
H	 1.4800824938	-0.1082041819	 1.2122925714	 0.279742
H	-1.8212320408	-1.5438178049	-1.9477318948	 0.094764
H	-4.2555390192	-1.978427106	-0.8428937864	 0.057013
H	-3.6551521338	 0.826579111	-0.289533311	 0.086875
H	-4.6013230908	-0.0017823822	 1.0007106239	 0.089395
H	-2.0829898555	 0.0387784153	 2.0546735742	 0.065482
H	-3.8353555645	-2.0340756525	 1.8493947824	 0.088402
H	-2.3063139803	-2.7379278475	 1.2020316839	 0.097772
62.4095	113.8672	177.2952	253.8921	272.018	319.0115	370.6635	492.371	499.5987	528.7372	630.9785	663.1565	786.1401	797.6606	835.0916	850.9188	866.4336	869.1523	903.1986	933.0874	991.235	1005.4501	1014.3756	1064.4185	1071.4196	1084.1615	1103.3565	1110.66	1118.9968	1180.8421	1210.0179	1225.482	1234.5812	1240.9405	1262.1753	1274.5778	1340.1444	1354.8471	1398.4974	1416.6896	1479.7711	1489.3374	1497.1469	1517.8002	1692.4387	2965.3548	3024.2758	3040.3628	3050.7472	3094.4045	3109.7656	3117.7085	3119.8132	3120.7508	3132.7916	3223.2973	3810.6793
CC(O)C1=CC2CC1C2	C[C@@H](O)C1=C[C@@H]2C[C@H]1C2	
InChI=1S/C8H12O/c1-5(9)8-4-6-2-7(8)3-6/h4-7,9H,2-3H2,1H3	InChI=1S/C8H12O/c1-5(9)8-4-6-2-7(8)3-6/h4-7,9H,2-3H2,1H3/t5-,6-,7+/m1/s1
