16
gdb 5385	4.77631	1.575	1.308	1.5542	72.71	-0.2443	-0.0357	0.2086	956.9461	0.132965	-342.848779	-342.841672	-342.840727	-342.880899	25.991	
C	-0.0116538031	 1.5383574691	 0.0099995898	-0.377486
C	-0.0157961895	-0.0004561765	 0.002484125	-0.248389
C	-1.4194611819	-0.5462239122	 0.0128394601	 0.350489
N	-1.9869590913	-0.7550672779	 1.2095286844	-0.275402
C	-3.24046488	-1.2092260889	 1.2054707496	 0.008921
C	-3.9414257309	-1.4588183104	 0.0318654849	-0.133751
C	-3.2601491157	-1.2040000805	-1.152133269	 0.008941
N	-2.0068258946	-0.749807234	-1.1751161431	-0.275466
H	 1.0129313396	 1.9213797923	 0.0026036608	 0.1158
H	-0.5298143062	 1.9312692043	-0.8701246725	 0.127771
H	-0.5137897268	 1.9224907394	 0.9031821588	 0.127889
H	 0.4933725272	-0.3664337396	-0.8932881123	 0.11479
H	 0.509862202	-0.3749408799	 0.8851498732	 0.114798
H	-3.6963331671	-1.3801421942	 2.1788513342	 0.11603
H	-4.9584900585	-1.8313325213	 0.039523483	 0.109034
H	-3.7322053132	-1.3705733297	-2.1185249769	 0.116031
39.5479	127.3723	229.2338	279.8976	379.4132	411.7804	523.8662	599.2193	644.6985	798.9734	808.3391	827.4225	840.4162	983.648	1005.5153	1010.0174	1010.533	1056.2286	1083.2935	1096.9357	1136.1039	1235.5403	1269.0443	1292.7602	1326.7637	1363.7855	1403.2287	1460.1131	1467.9941	1478.7145	1497.9122	1510.3298	1599.7547	1619.9957	3039.1551	3060.2805	3101.9489	3113.974	3124.439	3147.6369	3149.3076	3209.567
CCC1=NC=CC=N1	CCc1ncccn1	
InChI=1S/C6H8N2/c1-2-6-7-4-3-5-8-6/h3-5H,2H2,1H3	InChI=1S/C6H8N2/c1-2-6-7-4-3-5-8-6/h3-5H,2H2,1H3
