21
gdb 112186	2.50854	1.22636	1.0246	2.8416	79.88	-0.2346	-0.018	0.2166	1279.1403	0.178842	-424.232383	-424.222022	-424.221078	-424.267707	37.426	
C	 0.2083791256	 1.5397084392	-0.1973088073	-0.238969
O	-0.3083157525	 0.2802693678	-0.5671872099	-0.239246
C	 0.6456088065	-0.5661036952	-1.1447166312	 0.10324
C	 1.6908594914	-1.2368060959	-0.1938343922	-0.400685
C	 1.3007028839	-2.577940085	-0.8314950211	 0.387116
O	 1.7981305245	-3.6675809835	-0.8434473412	-0.307456
C	 0.07980753	-1.9705876169	-1.5534666249	 0.135714
C	-1.2303324041	-2.3296528141	-0.8377360975	-0.422182
C	 0.0052654519	-2.2684724508	-3.0494764287	-0.445867
H	 0.9968748926	 1.4531055706	 0.5651488341	 0.110535
H	 0.6247614339	 2.0763368041	-1.0639845956	 0.108019
H	-0.6191556815	 2.1211103218	 0.2156937022	 0.130827
H	 1.1378119199	-0.0674147011	-1.9935774767	 0.069891
H	 2.741777054	-0.9482380961	-0.266997084	 0.126048
H	 1.3758238301	-1.1834741081	 0.8541664319	 0.137121
H	-1.1781093724	-2.1403737304	 0.2372858157	 0.122033
H	-2.0541827323	-1.7315335253	-1.2370480953	 0.129016
H	-1.4560080475	-3.3889742328	-0.9918443009	 0.125006
H	-0.1672227988	-3.336215663	-3.2159486508	 0.133416
H	-0.8150418627	-1.7112843536	-3.5147362937	 0.121152
H	 0.9343352378	-1.9981766418	-3.5615800628	 0.115271
57.9993	98.3969	156.5978	174.4997	192.2131	204.0212	210.8024	267.2491	306.8657	323.7633	405.2236	452.3236	490.1427	575.3207	647.4018	723.2923	772.8493	878.3138	940.8136	964.0629	975.6945	999.4337	1022.3138	1067.3283	1121.2688	1158.7398	1169.4808	1182.4929	1187.5652	1227.5407	1245.3924	1247.6525	1303.7561	1386.9141	1393.9198	1414.5519	1429.4556	1478.9908	1480.7301	1483.0621	1487.2999	1499.2578	1502.8219	1509.298	1885.6605	2975.6804	2985.9375	3026.2484	3030.7967	3043.3196	3053.3806	3099.8726	3108.6096	3117.7666	3117.9651	3118.7028	3121.7178
COC1CC(=O)C1(C)C	CO[C@H]1CC(=O)C1(C)C	
InChI=1S/C7H12O2/c1-7(2)5(8)4-6(7)9-3/h6H,4H2,1-3H3	InChI=1S/C7H12O2/c1-7(2)5(8)4-6(7)9-3/h6H,4H2,1-3H3/t6-/m0/s1
