21
gdb 115168	3.03641	1.15005	0.92539	3.211	78.91	-0.2353	-0.0164	0.2189	1314.2739	0.181518	-424.254048	-424.244466	-424.243522	-424.288781	35.123	
C	-0.1236120536	 1.4595452539	-0.0996839602	-0.239498
O	-0.0529864026	 0.096434608	 0.2528822376	-0.244969
C	-1.2667182635	-0.6046275812	 0.1076680206	 0.13715
C	-1.6896431407	-0.88743388	-1.3551720512	-0.25431
C	-2.6768543362	-2.0559983008	-1.2284191754	-0.32644
C	-2.2088782594	-2.8347058004	 0.0066469192	 0.406614
O	-2.5796750037	-3.9353751834	 0.3243741628	-0.323774
C	-1.1697874758	-1.9960543097	 0.7643243321	-0.141026
C	 0.2158648996	-2.6564173173	 0.6359530547	-0.38758
H	 0.8465939175	 1.9032995955	 0.135953709	 0.129681
H	-0.3252048102	 1.6066092461	-1.1705115428	 0.109309
H	-0.9031609648	 1.9858137553	 0.4735666625	 0.105317
H	-2.0753322532	-0.035083582	 0.5990687682	 0.064975
H	-2.1202989896	-0.0142403568	-1.8506143868	 0.10253
H	-0.8026285644	-1.1878994217	-1.9238916512	 0.116057
H	-3.6953415026	-1.7001063666	-1.0232308907	 0.131382
H	-2.7411800445	-2.7076401033	-2.1028414515	 0.131649
H	-1.4403200389	-1.9651180413	 1.8239814876	 0.098599
H	 0.533629891	-2.7387432082	-0.4082526224	 0.117386
H	 0.9655498187	-2.0672155226	 1.1666196799	 0.134831
H	 0.1759850166	-3.6633990635	 1.058764478	 0.132119
55.414	96.3187	143.5762	191.1534	211.4789	218.8218	243.1424	322.6214	367.9217	475.9696	494.0523	523.2661	610.8679	661.2575	761.3454	816.3019	828.3847	945.8757	979.4926	997.23	1012.2298	1022.5698	1071.4663	1132.9257	1151.814	1166.0714	1174.277	1186.2064	1224.9882	1235.0949	1265.6593	1294.3527	1308.9337	1334.5414	1354.0493	1390.5569	1403.6498	1451.756	1480.2266	1488.6805	1493.1741	1498.5217	1503.6396	1511.2105	1843.5614	2941.6991	2977.7951	3028.7772	3032.5371	3046.6357	3052.3105	3065.5874	3101.8194	3110.0488	3115.7654	3117.9201	3141.464
COC1CCC(=O)C1C	CO[C@H]1CCC(=O)[C@H]1C	
InChI=1S/C7H12O2/c1-5-6(8)3-4-7(5)9-2/h5,7H,3-4H2,1-2H3	InChI=1S/C7H12O2/c1-5-6(8)3-4-7(5)9-2/h5,7H,3-4H2,1-2H3/t5-,7+/m1/s1
