17
gdb 27784	2.08969	1.7585	0.96634	5.3624	82.32	-0.2248	-0.0523	0.1724	1205.1957	0.13525	-418.057819	-418.049156	-418.048212	-418.091412	31.765	
C	 0.0907884464	 1.4866246594	-0.0482926763	-0.476432
C	-0.0527446097	 0.0019143023	-0.0152106382	 0.410108
C	-1.2043869019	-0.6978259718	-0.0745991147	-0.295125
C	-1.1132836377	-2.1364012806	-0.026931092	 0.330736
C	-2.3741676873	-2.9504908812	-0.0912593615	-0.478449
N	 0.0168045395	-2.7660077433	 0.0696487459	-0.320371
C	 1.1936831403	-2.0536678743	 0.1310656621	 0.412775
N	 2.329677216	-2.6022355214	 0.2265103382	-0.521269
O	 1.1291675013	-0.6299722092	 0.0848446836	-0.266366
H	 0.7133497839	 1.7879498896	-0.8974319051	 0.154279
H	-0.8841301012	 1.969448786	-0.1299489667	 0.139425
H	 0.5913871735	 1.838934839	 0.8598446969	 0.154277
H	-2.1571153493	-0.1931207255	-0.155087496	 0.105039
H	-2.9195172701	-2.7379181349	-1.0181764306	 0.138267
H	-2.1366820609	-4.0130816275	-0.0441259285	 0.15313
H	-3.0417449082	-2.6873445212	 0.7375093433	 0.138257
H	 3.0618334353	-1.8937944955	 0.2570428597	 0.22172
79.9208	128.0996	143.1136	173.6069	215.46	273.7275	323.0417	505.6291	526.1367	537.9359	540.9939	634.8628	641.7851	769.7588	811.1169	816.5222	849.7821	943.8161	968.5836	1008.2099	1038.3477	1052.2216	1064.6982	1094.3356	1190.8613	1214.985	1337.8919	1394.7632	1413.2369	1418.6675	1467.6348	1468.1584	1479.4493	1484.3874	1605.6273	1702.7484	1746.4927	3034.2013	3042.5627	3087.8729	3100.2482	3145.8504	3158.4052	3226.0783	3506.0344
CC1=CC(C)=NC(=N)O1	C[C@H]1C=C(C)N=C([NH])O1	
InChI=1S/C6H8N2O/c1-4-3-5(2)9-6(7)8-4/h3,7H,1-2H3	InChI=1S/C6H9N2O/c1-4-3-5(2)9-6(7)8-4/h3,5,7H,1-2H3/t5-/m0/s1
