19
gdb 106635	2.77757	1.21319	1.00334	3.1027	77.13	-0.2403	-0.0086	0.2317	1230.684	0.157605	-423.02008	-423.010775	-423.009831	-423.054267	34.357	
C	 0.075124693	 1.5334915144	-0.0412459487	-0.496685
C	-0.0120101245	 0.0384182518	 0.0781557079	 0.157844
C	 1.1582383459	-0.8930590448	-0.225352577	-0.379477
C	 0.5337001588	-0.9876776757	 1.1282791314	 0.275317
C	 1.2623357681	-0.7089862141	 2.4095913485	-0.171313
O	 1.9434304215	-1.8531512901	 2.9067364032	-0.408294
C	-0.735528171	-1.8484689282	 1.0073449152	-0.414624
C	-1.2790260339	-0.7663134199	 0.0391517747	 0.377782
O	-2.3735279613	-0.5314023696	-0.391964151	-0.318835
H	 1.0479825725	 1.9051769384	 0.2948343637	 0.121014
H	-0.0577967213	 1.8448538416	-1.082809768	 0.139753
H	-0.7037804606	 2.0226219224	 0.5516207567	 0.134805
H	 1.0542177007	-1.7034547765	-0.9424401837	 0.121421
H	 2.1097243358	-0.3703027409	-0.2850227358	 0.119788
H	 1.9507663117	 0.1399376916	 2.2695116421	 0.08898
H	 0.5547406313	-0.4284272545	 3.1973311841	 0.116755
H	 2.5560418135	-2.1451737725	 2.2232848869	 0.283549
H	-0.6096109369	-2.8653998919	 0.6251603784	 0.119337
H	-1.3441264132	-1.8812641515	 1.9161948515	 0.132883
82.1883	100.4423	137.4522	153.9859	227.7281	266.0592	301.8667	371.8181	397.0203	443.5791	493.9074	563.1344	632.3108	672.079	766.9672	781.9339	861.6322	935.5211	970.0109	983.4854	994.1644	1032.0859	1051.039	1079.403	1095.9091	1109.082	1150.4118	1205.9636	1207.5624	1287.3892	1350.564	1362.6132	1394.1537	1416.4435	1429.9604	1459.188	1481.6622	1495.265	1498.7494	1508.4999	1873.0481	2974.9918	3035.2322	3056.0968	3068.3994	3099.3317	3104.722	3108.9779	3109.6043	3187.7387	3809.1857
CC12CC1(CO)CC2=O	C[C@@]12C[C@]1(CO)CC2=O	
InChI=1S/C7H10O2/c1-6-3-7(6,4-8)2-5(6)9/h8H,2-4H2,1H3	InChI=1S/C7H10O2/c1-6-3-7(6,4-8)2-5(6)9/h8H,2-4H2,1H3/t6-,7-/m0/s1
