27
gdb 122001	4.90733	0.51623	0.48783	0.8249	94.87	-0.2485	0.0871	0.3356	2410.5752	0.249395	-390.701804	-390.689605	-390.688661	-390.740331	42.974	
C	-0.0835999808	 1.5910533674	 0.0778138101	-0.378696
C	 0.0166325868	 0.0654352977	-0.0104387967	-0.175105
C	 0.7568903467	-0.5500502483	 1.1831678185	-0.1649
C	 0.8137972368	-2.0877140733	 1.186628634	 0.007217
C	 1.6084046728	-2.6632347451	 0.0064700348	-0.389733
C	 1.3887088662	-2.5811694664	 2.5157246916	-0.054499
O	 1.3041619812	-3.9892773084	 2.5697825241	-0.246841
C	 1.8459533528	-4.5403015664	 3.750778345	-0.026054
C	 1.6933118659	-6.0512575609	 3.6976476353	-0.38494
H	 0.9101909078	 2.0518936496	 0.1085287408	 0.112862
H	-0.6161932617	 2.0073904982	-0.783035538	 0.110283
H	-0.6181174337	 1.9018513543	 0.9825705953	 0.112325
H	-0.9918282513	-0.3654157187	-0.0696535348	 0.094092
H	 0.5201496872	-0.2089536391	-0.9447307618	 0.10007
H	 1.7808448137	-0.1497160114	 1.2180925889	 0.089051
H	 0.2687439605	-0.2105785641	 2.1076364774	 0.087139
H	-0.2152518038	-2.4700631607	 1.1292219829	 0.078001
H	 1.687180031	-3.7486748033	 0.0986613937	 0.129713
H	 1.1351193253	-2.4353930407	-0.9525409187	 0.110581
H	 2.6250315562	-2.2505241872	-0.0152074697	 0.103911
H	 2.4407293389	-2.2573284158	 2.6174340173	 0.07775
H	 0.8323595424	-2.1360320255	 3.358741804	 0.078263
H	 2.9095487014	-4.261979033	 3.8484920798	 0.08313
H	 1.3272351887	-4.1308014666	 4.6349073082	 0.082535
H	 0.6380872424	-6.3272670588	 3.6164533931	 0.125653
H	 2.2210514783	-6.4599831955	 2.8311523084	 0.125294
H	 2.1040080184	-6.5091287982	 4.6025684265	 0.112898
47.2852	70.3004	79.2401	94.5478	111.8705	156.4115	194.1553	235.1792	246.1884	249.9241	291.9914	311.7111	341.2237	424.5601	499.31	535.9115	747.06	820.7473	839.9416	868.1084	902.5076	909.0015	930.2228	965.9796	1022.5601	1040.2241	1048.7028	1085.6601	1127.5423	1160.2454	1167.0012	1180.4027	1188.8229	1201.514	1255.4006	1281.1007	1292.9433	1296.6543	1333.6551	1344.3912	1380.9573	1387.4206	1396.2142	1403.924	1409.2792	1414.426	1450.3248	1481.5934	1483.3456	1494.0306	1495.8823	1499.6208	1500.2547	1506.6481	1510.4726	1514.565	1537.0261	2933.3941	2951.8992	2965.3356	2971.9672	2996.0523	3008.5665	3019.2321	3028.2882	3028.9075	3032.4461	3044.1701	3061.431	3095.419	3099.7592	3101.1917	3118.3191	3120.3805	3128.7591
CCCC(C)COCC	CCC[C@@H](C)COCC	
InChI=1S/C8H18O/c1-4-6-8(3)7-9-5-2/h8H,4-7H2,1-3H3	InChI=1S/C8H18O/c1-4-6-8(3)7-9-5-2/h8H,4-7H2,1-3H3/t8-/m1/s1
