21
gdb 65570	3.0331	1.02185	0.92818	3.1002	77.81	-0.2541	0.0631	0.3172	1352.9742	0.181332	-424.191319	-424.182135	-424.181191	-424.22569	34.808	
O	-0.0547426317	 1.7134068801	-0.0640030438	-0.483394
C	 0.0478348038	 0.3054633511	 0.018285215	 0.409421
C	-1.3722475893	-0.2031029978	 0.2754379526	-0.257758
C	-2.3547100597	 0.1759264611	-0.808718739	 0.095762
C	-2.7709079744	-0.7605363111	-1.8622812698	-0.176315
O	-3.6281052531	-0.4763602927	-0.7577786081	-0.241368
C	 0.7991256085	-0.4346743678	-1.1329208275	-0.276179
C	 1.4816079351	-1.3306274241	-0.0648189604	-0.212742
C	 1.0891959889	-0.2872596408	 1.0156722542	-0.27385
H	 0.8187112227	 2.0675390019	-0.2588475207	 0.27466
H	-1.3672716696	-1.2915527844	 0.3954007567	 0.103104
H	-1.7142951598	 0.225173435	 1.2258410126	 0.115262
H	-2.4095933864	 1.2408091144	-1.0278818681	 0.109324
H	-3.1063055832	-0.3818101022	-2.8271282071	 0.112647
H	-2.3555570975	-1.7682215507	-1.882556855	 0.106151
H	 0.1999022229	-0.911409015	-1.911661667	 0.103184
H	 1.5185479206	 0.237018289	-1.6139244338	 0.090277
H	 0.9618257379	-2.2823079602	 0.0704619607	 0.108587
H	 2.5453763903	-1.5371991268	-0.1947633978	 0.101376
H	 1.8958610708	 0.4304207846	 1.1991979097	 0.090498
H	 0.7182150732	-0.6464193735	 1.9793339564	 0.101355
62.8879	80.95	140.0954	172.8791	269.4832	299.6751	326.0668	367.264	399.1181	448.5916	488.9458	644.031	732.1782	784.7706	827.7228	860.2971	872.5101	883.8754	920.4338	929.539	962.6534	988.1045	1031.5146	1046.7477	1073.797	1117.983	1126.1313	1156.0148	1180.7707	1191.7121	1196.0882	1216.4408	1244.1996	1251.0723	1269.4875	1285.8517	1306.3346	1337.1177	1406.2277	1442.6628	1467.0584	1474.6779	1485.7362	1504.9706	1529.3944	3033.6022	3043.151	3048.6987	3068.6811	3075.0103	3082.7978	3098.8821	3107.0334	3124.0098	3132.9589	3160.4211	3816.3476
OC1(CC2CO2)CCC1	OC1(C[C@H]2CO2)CCC1	
InChI=1S/C7H12O2/c8-7(2-1-3-7)4-6-5-9-6/h6,8H,1-5H2	InChI=1S/C7H12O2/c8-7(2-1-3-7)4-6-5-9-6/h6,8H,1-5H2/t6-/m0/s1
