21
gdb 87130	2.79608	1.23502	1.07232	0.8122	78.73	-0.2396	0.0737	0.3133	1220.0748	0.180113	-424.18859	-424.178882	-424.177938	-424.222956	37.805	
C	-0.0117870827	 1.5676233028	 0.0666784889	-0.481392
C	-0.0613430294	 0.0523527339	 0.0069687711	 0.263076
C	 1.0215794249	-0.6408321028	-0.8088124791	-0.362513
C	 1.0536927624	-0.6952167254	 0.6986310692	 0.06453
O	 1.9881138907	 0.0590917193	 1.4183420964	-0.425826
C	-1.4335191142	-0.5935336685	-0.0077535499	 0.332649
O	-1.4086635814	-2.00380013	 0.0260010052	-0.458882
C	-2.63788745	 0.0510966819	 0.6350147286	-0.331125
C	-2.535136168	-0.0570730711	-0.8751298306	-0.294752
H	 1.0235713584	 1.9076300702	 0.1075179297	 0.131854
H	-0.4860660462	 2.0190325692	-0.810840756	 0.114273
H	-0.5103501987	 1.9527227433	 0.9619640972	 0.120328
H	 0.7605177869	-1.5502200522	-1.3373700601	 0.12375
H	 1.7494308088	-0.0031137468	-1.2998672667	 0.104653
H	 0.8117034486	-1.6551885969	 1.1523111281	 0.066702
H	 2.8563506823	-0.3275489438	 1.2648035846	 0.28723
H	-1.3086611403	-2.2721976083	 0.9455415307	 0.284128
H	-3.3342043936	-0.6144100416	 1.1337044776	 0.109584
H	-2.5428283885	 1.0296747041	 1.0896063642	 0.115849
H	-2.3642983126	 0.8486223288	-1.4448540606	 0.114635
H	-3.1543331571	-0.7977415761	-1.3671097584	 0.12125
33.7704	164.5361	181.1963	237.3254	275.0841	289.6573	317.9614	320.7745	350.4533	389.5937	435.5468	460.7835	486.5231	545.9425	635.8075	770.8147	800.5834	834.014	889.2341	912.9949	922.6112	944.1502	963.8673	986.2051	1024.319	1042.728	1052.7103	1076.6671	1114.1729	1116.6865	1182.2811	1189.6737	1198.1389	1251.9596	1284.033	1311.8585	1348.0784	1359.8607	1413.3763	1417.9134	1449.8721	1474.2384	1496.5035	1498.1056	1509.7358	3040.1205	3097.7169	3105.0837	3131.4182	3138.7963	3140.3666	3145.2994	3223.7553	3228.0511	3238.1738	3803.0328	3806.4844
CC1(CC1O)C1(O)CC1	C[C@]1(C[C@H]1O)C1(O)CC1	
InChI=1S/C7H12O2/c1-6(4-5(6)8)7(9)2-3-7/h5,8-9H,2-4H2,1H3	InChI=1S/C7H12O2/c1-6(4-5(6)8)7(9)2-3-7/h5,8-9H,2-4H2,1H3/t5-,6-/m1/s1
