15
gdb 49350	1.94208	1.6037	1.23926	2.1518	79.87	-0.2371	0.0045	0.2417	1081.6632	0.109658	-379.562041	-379.55302	-379.552076	-379.595854	32.881	
N	-0.3329581879	 1.0587611741	-0.5165372602	-0.416869
C	-0.2954126527	-0.1718851331	-0.2150897098	 0.071631
N	-1.3218232303	-0.7879973472	 0.5004958329	-0.070935
C	-2.7327482811	-0.7328057662	 0.1525658687	-0.228891
C	-3.2060511038	-0.1219659692	-1.0555839641	 0.396262
C	-3.6607135255	 0.383245289	-2.045960156	-0.440894
C	-1.9437395513	-2.0434371871	 0.1029844335	-0.241271
C	-1.6303305408	-2.6650957144	-1.1521169039	 0.369068
C	-1.3428155622	-3.2169493983	-2.1806302693	-0.442657
H	 0.5401539292	 1.3357594541	-0.9630642231	 0.228079
H	 0.5391491558	-0.8589621902	-0.3969891428	 0.105749
H	-3.3848435082	-0.6033536405	 1.0140672735	 0.130996
H	-4.0424148898	 0.8419014682	-2.9244741293	 0.203613
H	-2.1031834256	-2.7345372127	 0.9285974679	 0.12847
H	-1.1012937557	-3.6948069867	-3.098024118	 0.20765
92.5724	102.9834	119.3947	167.0646	226.4299	257.8309	306.9132	417.5074	471.8356	590.8939	609.8237	625.0918	637.3359	659.0275	667.2215	674.0629	756.3593	835.5396	863.8515	889.9642	1036.9677	1044.5486	1058.1879	1107.6324	1143.3848	1233.2726	1352.4379	1363.3393	1397.3784	1419.0601	1713.8871	2238.7692	2245.16	3055.2114	3121.4236	3129.2945	3496.536	3501.858	3504.1041
N=CN1C(C#C)C1C#C	[NH][CH]N1[C@@H](C#C)[C@H]1C#C	
InChI=1S/C7H6N2/c1-3-6-7(4-2)9(6)5-8/h1-2,5-8H	InChI=1S/C7H6N2/c1-3-6-7(4-2)9(6)5-8/h1-2,5-8H/t6-,7+,9?
