16
gdb 43778	3.83	1.31345	1.15054	2.9649	77.66	-0.2572	0.0177	0.2749	1066.904	0.124892	-400.705293	-400.698021	-400.697077	-400.736822	29.264	
N	-0.0196696093	 1.2062551753	-0.0246562397	-0.57747
C	-0.0482545193	-0.0511857928	-0.0076418449	 0.460426
O	 1.0381504954	-0.9066258431	-0.0229734269	-0.300575
C	 0.383287808	-2.2227156254	 0.0100500313	 0.328628
C	-0.7517522394	-2.0331867161	-1.0365394369	-0.271445
C	-1.2264544366	-0.9906881148	 0.0332526643	-0.169
C	-0.6995903479	-2.0053843495	 1.1053591565	-0.271444
C	 1.3367479201	-3.2972333227	 0.0007984224	 0.10736
C	 2.0980913098	-4.2263059914	-0.0055172662	-0.324456
H	 0.944075573	 1.5451122462	-0.0525149373	 0.226261
H	-0.4539733513	-1.6715603695	-2.0220482873	 0.125418
H	-1.409249075	-2.9000462013	-1.1086140879	 0.121049
H	-2.2175584586	-0.5492668019	 0.0516677358	 0.105775
H	-1.3522471218	-2.869670055	 1.2318144668	 0.121049
H	-0.3544237349	-1.6185074771	 2.0654948382	 0.125419
H	 2.7785639776	-5.0418506809	-0.0116949881	 0.193005
136.2654	143.0454	207.2867	394.5009	425.8725	495.0403	525.307	534.6414	539.0125	639.1299	653.4049	687.2387	714.8329	804.8667	839.7027	873.6557	892.4823	922.2269	942.3365	959.5841	1012.871	1024.9775	1070.9018	1087.5961	1146.1593	1153.0895	1209.4646	1223.8705	1260.4552	1300.5363	1323.9445	1475.8264	1511.1362	1812.441	2249.644	3081.0225	3086.0682	3152.4546	3156.9787	3181.7211	3468.1221	3501.5229
N=C1OC2(CC1C2)C#C	[NH][C]1O[C@@]2(C[C@H]1C2)C#C	
InChI=1S/C7H7NO/c1-2-7-3-5(4-7)6(8)9-7/h1,5,8H,3-4H2	InChI=1S/C7H7NO/c1-2-7-3-5(4-7)6(8)9-7/h1,5,8H,3-4H2/t5-,7+
