18
gdb 19396	2.98342	2.15879	1.58638	1.7179	71.28	-0.249	0.0818	0.3308	871.6084	0.153491	-347.753041	-347.745705	-347.744761	-347.784261	28.767	
C	-0.119554409	 1.6027796323	-0.089846947	-0.414744
C	 0.0683686735	 0.0951185738	 0.0200648193	-0.068435
C	 1.0761896797	-0.6225557832	-0.9042987071	-0.062174
C	 2.492797396	-0.2621484593	-0.557913246	-0.286465
C	 1.7692426434	-1.2655582937	 0.3032955415	-0.147019
C	 0.823480609	-0.5221548468	 1.2215622347	 0.455862
C	 1.0071223604	-0.0588025124	 2.5984078193	-0.271859
O	 0.1292395443	-1.1539264087	 2.2800974186	-0.286335
H	 0.8349320647	 2.13615032	-0.0421023956	 0.115337
H	-0.6021351725	 1.8670813981	-1.0369423318	 0.117693
H	-0.7542868588	 1.9783486663	 0.7201579732	 0.119238
H	-0.9025387151	-0.409229328	-0.0362567509	 0.093363
H	 0.822463904	-1.0812487859	-1.8519447192	 0.088846
H	 3.251211669	-0.6779624602	-1.2136239562	 0.114856
H	 2.7433592048	 0.719238993	-0.1628177294	 0.10939
H	 2.111330532	-2.2826002493	 0.4473093416	 0.098582
H	 1.9099461772	-0.3285405336	 3.1453988328	 0.112477
H	 0.5090711372	 0.8465711475	 2.9436229022	 0.111385
131.6256	202.7957	210.5339	247.294	303.0981	385.5422	475.0276	540.9317	582.5727	714.7969	782.5791	798.0674	857.927	876.4863	924.5894	933.7348	961.7081	990.1233	1007.3748	1059.6217	1086.9021	1090.3325	1106.2331	1118.8428	1136.7101	1154.7871	1180.0314	1192.4764	1238.4007	1290.5052	1341.608	1363.3332	1410.4874	1438.9444	1488.504	1495.6492	1500.1468	1535.2131	3031.134	3052.0232	3077.8674	3095.3707	3104.1962	3113.6	3163.7545	3183.5353	3193.4104	3204.4201
CC1C2CC2C11CO1	C[C@H]1[C@H]2C[C@H]2[C@]21CO2	
InChI=1S/C7H10O/c1-4-5-2-6(5)7(4)3-8-7/h4-6H,2-3H2,1H3	InChI=1S/C7H10O/c1-4-5-2-6(5)7(4)3-8-7/h4-6H,2-3H2,1H3/t4-,5+,6+,7+/m0/s1
