13
gdb 11195	6.51651	1.31551	1.10198	3.7117	63.38	-0.2462	-0.0877	0.1586	990.6901	0.095612	-394.802386	-394.795153	-394.794209	-394.83432	25.562	
N	-0.0452139307	 1.2955351076	 0.0059770178	-0.543862
C	 0.0065305038	 0.028823081	 0.0005771668	 0.383488
C	-1.1824947185	-0.9312527974	 0.0027897211	-0.239882
N	-0.6335324563	-2.2913282553	-0.0065766179	-0.26395
C	 0.6387106018	-2.1543891625	-0.0125838904	 0.283069
N	 1.1029104027	-0.8402570975	-0.0085296695	-0.386614
C	 1.6264067441	-3.2793513503	-0.0229946349	 0.107382
O	 1.3257798056	-4.4407931775	-0.0278699036	-0.20948
H	 0.8826329929	 1.7218372276	 0.0030101277	 0.211803
H	-1.8135588002	-0.782511798	 0.8859206188	 0.15833
H	-1.8235470129	-0.7743359437	-0.8716751544	 0.158335
H	 2.0676030909	-0.5533702718	-0.0141502923	 0.261128
H	 2.6903105069	-2.9482111222	-0.0259795191	 0.080252
69.7701	134.9553	196.4055	229.6598	350.9243	397.9301	492.0242	496.2178	636.3734	680.5847	767.5995	852.3447	896.1365	968.5924	971.8226	1022.103	1052.7128	1089.6237	1176.0888	1178.9986	1280.3097	1314.6899	1415.0151	1441.4646	1461.0984	1665.8144	1766.5755	1840.748	2869.2935	3051.9352	3083.2584	3460.984	3656.9289
N=C1CN=C(N1)C=O	[NH][C]1CN=C(N1)C=O	
InChI=1S/C4H5N3O/c5-3-1-6-4(2-8)7-3/h2H,1H2,(H2,5,6,7)	InChI=1S/C4H5N3O/c5-3-1-6-4(2-8)7-3/h2H,1H2,(H2,5,6,7)
