19
gdb 80024	3.24228	1.49951	1.30072	1.8196	79.76	-0.2292	0.0103	0.2395	1042.6626	0.159596	-385.832456	-385.82493	-385.823986	-385.863917	30.754	
C	-0.073313001	 1.6531428309	 0.0071345701	-0.432133
C	 0.021595333	 0.1380288762	 0.0179236729	 0.059039
C	 1.1592707169	-0.6215768358	-0.7727530864	-0.20087
C	 2.4176511321	-0.0859171326	-0.0797436227	-0.079843
C	 2.0966372763	-0.0975212354	 1.2184107579	-0.07979
C	 0.6621357468	-0.6384557075	 1.2358873185	-0.2009
C	 0.8211992946	-1.7851409112	 0.1997475125	 0.539232
C	 0.0888605145	-3.0307351596	 0.0080852346	-0.307149
O	 1.4942737386	-2.996794737	 0.3561597891	-0.290596
H	 0.8833203941	 2.1220964103	 0.2477894886	 0.123324
H	-0.3918576564	 2.0106191628	-0.9781745405	 0.114091
H	-0.8159635737	 1.9962525186	 0.7357228884	 0.11409
H	-0.954094529	-0.2980599264	-0.2272812235	 0.073417
H	 1.1476129009	-0.7317342063	-1.8564067656	 0.064471
H	 3.3423274273	 0.1942018559	-0.5627512499	 0.102
H	 2.6884341223	 0.1706931213	 2.081329459	 0.102004
H	 0.1468203821	-0.7656677644	 2.1871199733	 0.064477
H	-0.5697654741	-3.4073400646	 0.7895677481	 0.117569
H	-0.1278582153	-3.392353465	-0.9962043643	 0.117567
163.9916	216.6846	231.1863	276.7202	276.8034	356.7687	455.7248	577.8244	580.2149	596.075	724.9354	768.4712	776.1371	790.461	866.9938	886.2918	907.5257	919.055	920.7008	989.6316	1013.3579	1041.3385	1056.5956	1097.7269	1111.4438	1114.1938	1134.1377	1143.7474	1177.2739	1188.9363	1199.6002	1250.4946	1251.5956	1329.0779	1387.8103	1406.0558	1439.379	1491.7925	1500.0541	1542.4987	1621.2127	3032.9992	3042.4545	3081.8772	3091.9504	3125.5927	3125.8458	3128.5253	3167.8272	3225.3632	3251.5035
CC1C2C=CC1C21CO1	C[C@H]1[C@H]2C=C[C@@H]1[C@]12CO1	
InChI=1S/C8H10O/c1-5-6-2-3-7(5)8(6)4-9-8/h2-3,5-7H,4H2,1H3	InChI=1S/C8H10O/c1-5-6-2-3-7(5)8(6)4-9-8/h2-3,5-7H,4H2,1H3/t5-,6+,7-,8+
