19
gdb 60917	3.45091	0.95677	0.93397	2.3171	78.92	-0.2409	-0.0411	0.1998	1346.1871	0.158767	-423.050124	-423.041237	-423.040293	-423.084606	32.51	
O	 0.2197831398	 1.6086704329	 0.1324057034	-0.429692
C	 0.0381990294	 0.2167388161	 0.1248702199	-0.062751
C	 0.5142592803	-0.3610261994	-1.2035727911	 0.130706
O	 0.987767326	 0.3356253348	-2.0672069266	-0.26073
C	 0.7647041719	-0.4620652275	 1.2573217571	 0.332433
C	 0.2874204008	-1.435654969	 2.0348733378	-0.187334
C	 1.3166414949	-1.9422107659	 3.015634593	-0.24722
C	 2.4316207805	-0.8654678136	 2.9358842367	-0.208727
C	 2.2066380959	-0.1339388669	 1.5882731187	-0.301709
H	 0.59134831	 1.8270091175	-0.7375446562	 0.294662
H	-1.0345612138	-0.0391696294	 0.1950533099	 0.096452
H	 0.4022930588	-1.4573855057	-1.3205900515	 0.10452
H	-0.7155790863	-1.8455689495	 1.968979923	 0.088235
H	 0.9165830464	-2.0602166639	 4.0288140657	 0.10644
H	 1.6816086463	-2.9347184292	 2.7142784423	 0.107027
H	 2.3058437732	-0.1544876057	 3.7580993106	 0.110879
H	 3.4352012236	-1.287927797	 3.0255007873	 0.099483
H	 2.8793541125	-0.5063474752	 0.8014233898	 0.103611
H	 2.3748316998	 0.9444768265	 1.6520915001	 0.123715
52.0684	78.205	121.0215	171.5353	233.6807	295.1351	327.7802	390.8518	464.0508	531.7319	628.8221	669.9728	770.1556	811.1146	844.407	848.0982	889.7126	906.256	918.5047	960.0844	1019.5953	1035.6546	1069.8674	1131.1791	1149.3947	1173.2979	1227.7034	1229.7109	1245.3029	1280.8959	1317.9614	1323.4113	1331.136	1369.1516	1388.5776	1426.3904	1483.7904	1488.9658	1506.9799	1709.1627	1811.5273	2935.8362	2952.367	2998.4796	3004.2749	3049.8016	3062.4508	3086.7183	3105.9334	3180.1057	3682.0435
OC(C=O)C1=CCCC1	O[C@@H](C=O)C1=CCCC1	
InChI=1S/C7H10O2/c8-5-7(9)6-3-1-2-4-6/h3,5,7,9H,1-2,4H2	InChI=1S/C7H10O2/c8-5-7(9)6-3-1-2-4-6/h3,5,7,9H,1-2,4H2/t7-/m0/s1
