16
gdb 49256	2.79488	1.37254	0.94588	0.8124	75.81	-0.25	-0.0804	0.1696	1181.5943	0.126215	-434.108724	-434.100928	-434.099984	-434.141329	29.155	
N	 0.1554680694	 1.3032660234	-0.0143251449	-0.517467
C	 0.0782455962	 0.0458608901	-0.1881500527	 0.389169
C	-1.2054230666	-0.7148895596	 0.0542215346	-0.277744
C	-1.3521767094	-1.906171463	-0.9056350177	-0.180815
N	-0.161703613	-2.7494757251	-0.9784196067	-0.275885
C	 0.9497543949	-2.1393927144	-0.8194865271	 0.27348
N	 1.1270087174	-0.794660333	-0.5598525522	-0.38786
C	 2.2165761055	-2.9183343833	-0.9604395675	 0.134944
O	 3.3075915122	-2.4078271504	-0.8710806061	-0.272176
H	 1.10139975	 1.6514057755	-0.1888040206	 0.208741
H	-1.1786668839	-1.088370124	 1.086311313	 0.133549
H	-2.045100285	-0.0228558771	-0.0214036155	 0.138973
H	-2.2032260504	-2.5280855512	-0.6145337185	 0.122613
H	-1.5644795641	-1.546950328	-1.92404392	 0.128625
H	 2.0849402923	-0.4680506284	-0.5453500585	 0.262614
H	 2.0550356545	-3.9926782217	-1.1626928996	 0.119239
112.1322	121.4038	178.9401	199.7822	316.2986	416.8698	457.8898	509.6882	521.1154	591.6693	635.8302	646.4785	721.1949	794.1722	887.8818	896.2917	966.6064	1001.9145	1031.1477	1063.5943	1096.5927	1141.9477	1198.8448	1244.0445	1256.6489	1328.4247	1334.3594	1372.5163	1403.2597	1468.6028	1483.665	1493.3557	1712.4815	1741.483	1803.6833	2984.671	3001.549	3033.6009	3082.6887	3129.0542	3439.8084	3579.7291
N=C1CCN=C(N1)C=O	[NH][C]1CCN=C(N1)C=O	
InChI=1S/C5H7N3O/c6-4-1-2-7-5(3-9)8-4/h3H,1-2H2,(H2,6,7,8)	InChI=1S/C5H7N3O/c6-4-1-2-7-5(3-9)8-4/h3H,1-2H2,(H2,6,7,8)
