17
gdb 73650	2.3715	1.75645	1.47811	3.989	67.37	-0.2543	0.0003	0.2547	971.3238	0.136491	-459.001753	-458.99402	-458.993076	-459.033903	29.389	
C	-0.0139419358	 1.5683234531	 0.0866605171	-0.470193
C	-0.0137443106	 0.0584564847	 0.0989998163	 0.219138
O	-1.3335039545	-0.4352010209	 0.1370617975	-0.282763
C	-1.291829209	-1.7705703394	 0.6476048502	-0.106212
C	-0.1711343445	-1.7629456545	 1.7048358278	-0.247051
C	 0.8186635704	-0.7702161831	 1.1185325568	 0.068304
O	 1.6135612613	-1.3384644677	 0.0223460516	-0.268312
C	 0.9118812306	-0.6463555751	-0.9385937083	 0.406128
O	 1.0688223913	-0.6763386392	-2.1149906362	-0.325383
H	 1.0072825635	 1.9590734555	 0.0946267119	 0.131899
H	-0.5126149977	 1.9293415185	-0.8167242413	 0.152667
H	-0.5514990275	 1.9518362031	 0.9582365379	 0.131089
H	-2.2802426013	-2.0027458277	 1.0479736573	 0.12117
H	-1.0645015475	-2.4825821062	-0.1579956358	 0.121211
H	-0.544189851	-1.3761116979	 2.6586068183	 0.119288
H	 0.2709353443	-2.7469635779	 1.8750512049	 0.128107
H	 1.466327038	-0.2550312252	 1.8271483139	 0.10091
112.0117	177.6199	202.7377	224.8747	282.4131	302.7776	377.0217	517.3177	622.4704	654.6486	689.3766	742.4518	809.4595	833.2223	889.9975	897.2876	924.3746	949.6021	1014.8896	1045.5528	1083.0186	1109.6607	1152.9677	1185.7603	1197.4206	1214.9658	1265.8305	1315.9133	1335.604	1343.099	1388.2291	1411.3324	1468.3327	1479.6218	1492.5472	1520.6884	1936.9471	3013.0902	3048.1729	3060.9476	3114.5387	3123.1027	3125.5615	3126.4439	3128.7057
CC12OCCC1OC2=O	C[C@]12OCC[C@H]1OC2=O	
InChI=1S/C6H8O3/c1-6-4(2-3-8-6)9-5(6)7/h4H,2-3H2,1H3	InChI=1S/C6H8O3/c1-6-4(2-3-8-6)9-5(6)7/h4H,2-3H2,1H3/t4-,6+/m1/s1
