15
gdb 124397	3.28974	1.17724	1.06505	1.7283	71.87	-0.2786	-0.0293	0.2493	1156.7935	0.111898	-416.775911	-416.767599	-416.766655	-416.809945	29.693	
C	-0.0313577696	 1.5360082514	-0.0337704138	-0.397659
C	-0.0172217655	-0.0107036333	 0.0373509749	-0.262139
C	 0.693529848	-0.4894234633	 1.2234240396	 0.323273
C	 1.2878457514	-0.8627580872	 2.197622662	-0.45651
C	-1.4143547412	-0.562297535	-0.0215956857	 0.450541
N	-1.9503508505	-1.2697612548	-0.9714584499	-0.319298
C	-3.2284740681	-1.4455794729	-0.4988872027	 0.037305
N	-3.4786522722	-0.8922985399	 0.6547479619	-0.108638
O	-2.2556286173	-0.29195705	 0.9827982863	-0.196642
H	 0.9938328064	 1.9120242895	-0.0336683364	 0.138604
H	-0.5303723209	 1.8666064481	-0.9485709761	 0.13445
H	-0.5567947406	 1.9533580891	 0.8276997907	 0.150495
H	 0.4797981513	-0.4013611937	-0.857056117	 0.148346
H	 1.8089498582	-1.2010130504	 3.05916045	 0.207409
H	-3.9881927994	-2.0004806474	-1.0297885338	 0.150464
30.0512	103.5717	171.9526	191.9542	232.7454	317.7523	377.6279	458.0153	538.5776	639.1694	657.9359	658.7964	706.6098	788.8902	873.8186	915.9996	930.8274	980.0511	1003.251	1021.1561	1078.3972	1111.0401	1181.313	1256.5293	1295.5177	1319.386	1343.9757	1405.6657	1491.1713	1494.9817	1516.8456	1619.282	2244.7259	3054.0761	3061.3383	3134.1341	3144.2256	3262.8888	3503.4815
CC(C#C)C1=NC=NO1	C[C@@H](C#C)c1ncno1	
InChI=1S/C6H6N2O/c1-3-5(2)6-7-4-8-9-6/h1,4-5H,2H3	InChI=1S/C6H6N2O/c1-3-5(2)6-7-4-8-9-6/h1,4-5H,2H3/t5-/m0/s1
