18
gdb 51069	3.85224	1.11183	1.05933	2.8471	76.07	-0.2327	-0.0235	0.2092	1180.3566	0.14764	-401.877692	-401.869864	-401.86892	-401.911056	29.373	
O	 0.2476658558	-0.2056544481	 0.0059133713	-0.239576
C	 0.1117424033	 0.9803765827	-0.1459932098	 0.15812
C	 1.2306048749	 1.9986589452	-0.0005796015	-0.429839
C	 1.2881613034	 2.9407732506	-1.1586448511	 0.377822
C	 1.6828226876	 2.8576721261	-2.6060105734	-0.129951
C	 0.3086631382	 3.3755952014	-2.985130482	-0.178051
N	 0.1560329753	 3.9248762025	-1.5780441978	-0.205867
C	 1.2126863534	 5.0138162026	-1.568566838	-0.175744
C	 2.2808699996	 3.9408917691	-1.6757620563	-0.151601
H	-0.87481201	 1.4236647979	-0.4066668549	 0.097458
H	 1.0423008021	 2.5675193553	 0.9226252104	 0.131523
H	 2.1783515767	 1.4649106582	 0.1187012662	 0.129784
H	 2.315606763	 2.1220032236	-3.087177462	 0.098036
H	 0.2072678882	 4.1265358458	-3.7765957763	 0.100749
H	-0.4190479968	 2.5753527996	-3.1439933129	 0.111942
H	 1.1030930864	 5.7596252493	-2.363909312	 0.100635
H	 1.2095933371	 5.5131793001	-0.5961527974	 0.110199
H	 3.3456399217	 3.9867407879	-1.4816321925	 0.094361
55.9629	66.4572	148.7563	236.9041	336.2555	425.8314	476.8035	489.3385	640.8763	714.0807	781.527	788.6615	814.5836	887.2202	906.6448	910.1355	925.9861	964.6752	995.4198	1027.4745	1044.1243	1067.4953	1095.4532	1098.335	1119.0728	1157.7636	1185.9659	1214.9345	1240.7562	1258.2531	1288.7979	1301.6948	1311.4099	1421.2431	1440.3574	1461.8951	1502.3471	1524.0634	1835.6961	2892.7601	3002.4367	3033.3553	3042.7467	3093.8295	3096.6002	3100.3351	3185.7517	3195.3203
O=CCC12C3CN1CC23	O=CC[C@@]12[C@H]3CN1C[C@@H]23	
InChI=1S/C7H9NO/c9-2-1-7-5-3-8(7)4-6(5)7/h2,5-6H,1,3-4H2	InChI=1S/C7H9NO/c9-2-1-7-5-3-8(7)4-6(5)7/h2,5-6H,1,3-4H2/t5-,6+,7-
