16
gdb 15124	7.95883	0.79308	0.75153	5.2922	67.22	-0.2579	0.0054	0.2633	1445.9966	0.130075	-379.882733	-379.874365	-379.873421	-379.916856	28.569	
N	 0.0105317563	-1.0001638182	 0.6240828503	-0.289465
C	 0.0353948363	 0.1202682513	 0.3475972304	 0.267523
C	 0.0218243672	 1.5419402119	-0.0092709403	-0.182161
O	 1.3272530234	 2.0537816411	 0.0698211235	-0.235774
C	 1.3887679175	 3.4329965905	-0.2685134074	-0.083096
C	 2.8246324962	 3.8716416525	-0.2348993188	 0.015721
C	 3.1461987394	 5.260774188	 0.1806618777	-0.246282
N	 3.4950147767	 4.125739838	 1.0459897376	-0.298409
H	-0.3949571493	 1.6447714414	-1.0250942412	 0.140489
H	-0.6649274321	 2.0673359544	 0.675449658	 0.138683
H	 0.9615542388	 3.5934587299	-1.272733841	 0.102488
H	 0.790004536	 4.0260048741	 0.4445152105	 0.087968
H	 3.4590438893	 3.3810092042	-0.9693128505	 0.107854
H	 3.9908643023	 5.7759735261	-0.266660795	 0.127585
H	 2.323098457	 5.9106641452	 0.4689551853	 0.112461
H	 2.8300110351	 4.0423291196	 1.811582671	 0.234416
48.5446	88.7643	98.3084	136.6909	228.5387	321.5543	386.1011	401.5874	463.4621	587.262	807.0853	837.8786	930.6596	943.5959	956.4703	1008.9525	1022.7445	1042.8289	1079.0367	1127.3864	1149.5721	1155.7126	1215.3269	1249.0426	1254.8112	1279.6561	1313.3272	1363.929	1409.342	1459.0822	1491.996	1511.4665	1515.7453	2375.1717	2949.9947	2967.439	2984.3808	2991.6181	3108.3583	3141.6269	3194.6837	3496.682
N#CCOCC1CN1	N#CCOC[C@H]1CN1	
InChI=1S/C5H8N2O/c6-1-2-8-4-5-3-7-5/h5,7H,2-4H2	InChI=1S/C5H8N2O/c6-1-2-8-4-5-3-7-5/h5,7H,2-4H2/t5-/m1/s1
