17
gdb 72076	2.94925	1.64145	1.46887	3.3596	71.16	-0.2237	-0.0166	0.2071	954.7515	0.137205	-421.840134	-421.833091	-421.832147	-421.871352	28.323	
C	-0.0420283543	 1.479248424	 0.0161929081	-0.498709
C	 0.0391700606	-0.0200517976	-0.01625846	 0.274883
C	 1.1437173077	-0.7819529266	-0.7645836481	-0.287383
C	 0.6846628536	-2.1906977146	-0.3310550324	-0.078185
O	 0.5340921074	-2.066801678	 1.0929487138	-0.261069
C	-0.2903104159	-0.9125403272	 1.1355387784	 0.068779
C	-1.2293044656	-0.9228593892	-0.0639158549	-0.29792
C	-0.7932640109	-2.1425121628	-0.8116701639	 0.472954
O	-1.3756972928	-2.8557664873	-1.5810327329	-0.336127
H	 0.8963113893	 1.9073224914	 0.3874724932	 0.12863
H	-0.2263379607	 1.8917042774	-0.9815900112	 0.12992
H	-0.8485734829	 1.8220831114	 0.6719053195	 0.124335
H	 1.1088440231	-0.6468858752	-1.8497887009	 0.118411
H	 2.1420927438	-0.5302684351	-0.3938905879	 0.111955
H	 1.2751328611	-3.0634430964	-0.591264067	 0.103072
H	-0.575592584	-0.5929582242	 2.1280328268	 0.117149
H	-2.2376050594	-0.53635659	-0.0582242808	 0.109303
139.3474	205.9858	236.0666	285.5025	406.5306	460.1356	516.5827	560.4302	614.8342	669.3242	739.8222	795.8599	839.0346	873.8562	880.6132	911.3016	942.1763	951.8801	991.6566	1021.5751	1024.6853	1047.2276	1088.2791	1144.6134	1151.6883	1172.5981	1226.4484	1241.1488	1270.8511	1294.3935	1315.81	1413.7822	1423.6469	1485.3098	1488.9864	1499.8425	1876.7123	3027.3236	3052.3846	3089.8926	3101.1107	3105.859	3184.7818	3220.6151	3235.4623
CC12CC3OC1C2C3=O	C[C@@]12C[C@H]3O[C@@H]1[C@@H]2C3=O	
InChI=1S/C7H8O2/c1-7-2-3-5(8)4(7)6(7)9-3/h3-4,6H,2H2,1H3	InChI=1S/C7H8O2/c1-7-2-3-5(8)4(7)6(7)9-3/h3-4,6H,2H2,1H3/t3-,4+,6-,7+/m1/s1
