15
gdb 51982	7.1678	0.6245	0.57653	3.6079	66.44	-0.2608	-0.0516	0.2092	1771.4296	0.109587	-491.105402	-491.095721	-491.094777	-491.142513	31.674	
N	-0.0204306195	 1.6099476318	-0.0596128422	-0.517804
C	 0.0352438915	 0.3513650443	-0.0984194355	 0.514076
N	-1.0812680663	-0.48298201	-0.081982983	-0.366188
C	-2.4231694722	-0.1374981815	-0.0228868144	 0.165134
O	-2.8852896459	 0.9679469359	 0.0262109777	-0.252649
O	 1.1282054543	-0.4769610708	-0.1625696251	-0.268403
C	 2.4068835991	 0.1287532134	-0.1915363284	-0.180027
C	 3.441656459	-0.9844428512	-0.2617311399	 0.141271
O	 4.6219816705	-0.7724746838	-0.2987793372	-0.22438
H	 0.8950419108	 2.0487616009	-0.0802703537	 0.232534
H	-0.8677479589	-1.4679952867	-0.1185091813	 0.261901
H	-3.0393621522	-1.0597928538	-0.0272561968	 0.084483
H	 2.522934057	 0.7824046237	-1.0667566477	 0.153666
H	 2.587698042	 0.7305880067	 0.7094875251	 0.153664
H	 3.0094289007	-2.008092969	-0.2756170975	 0.102725
34.9525	38.6887	62.4706	109.0533	127.1244	217.3963	244.0453	319.7671	373.4603	541.1884	569.533	597.3515	722.9232	740.0413	805.3959	830.8898	955.0137	1008.5527	1024.7488	1061.5433	1112.6662	1120.9442	1195.3457	1242.0918	1264.396	1353.6446	1407.281	1449.5923	1478.3737	1540.2362	1755.3299	1850.6364	1859.8342	2910.4587	2925.326	3011.7457	3055.9125	3552.2666	3632.8765
N=C(NC=O)OCC=O	N=C(NC=O)OCC=O	
InChI=1S/C4H6N2O3/c5-4(6-3-8)9-2-1-7/h1,3H,2H2,(H2,5,6,8)	InChI=1S/C4H6N2O3/c5-4(6-3-8)9-2-1-7/h1,3H,2H2,(H2,5,6,8)
