24
gdb 62788	2.83523	1.26516	1.12297	1.5353	89.73	-0.2208	0.0769	0.2977	1262.1589	0.215663	-368.380154	-368.370191	-368.369247	-368.413825	39.152	
C	 2.0167588243	 2.2486330833	 0.4577104718	-0.472339
C	 1.6464819112	 0.7818334932	 0.5719092155	 0.319774
C	 1.0439835134	 0.4525793154	 1.9295391216	-0.437354
C	 1.1751853742	-0.104020733	-0.5221322415	-0.106727
N	 2.5427135594	-0.3185618827	 0.138136245	-0.175808
C	 3.1737035673	 0.0671800808	-1.1749262321	-0.231533
C	 1.8017333604	 0.0754312321	-1.9140567444	 0.312157
C	 1.6254208026	-1.2158200067	-2.7241745779	-0.429461
C	 1.3962510395	 1.2767216319	-2.7686747866	-0.460651
H	 2.5015202037	 2.5205913333	-0.4780780576	 0.122632
H	 1.1199825478	 2.8694365247	 0.5586806821	 0.120607
H	 2.6966450316	 2.5187572484	 1.27429639	 0.119486
H	 0.1067378988	 0.9989151465	 2.0832583196	 0.109937
H	 0.8443692855	-0.6179747049	 2.0168075816	 0.125802
H	 1.7360332933	 0.7316064973	 2.7312030685	 0.117626
H	 0.3573738538	-0.8004292677	-0.3422926142	 0.076441
H	 3.7352405795	 1.0054928213	-1.1486153942	 0.096603
H	 3.8471596372	-0.7266109773	-1.5068395466	 0.10335
H	 1.8976871757	-2.0948374995	-2.1319460224	 0.125642
H	 0.5854515176	-1.3360027812	-3.0492771484	 0.10981
H	 2.2562704338	-1.1993642199	-3.6200452708	 0.110837
H	 2.0201458144	 1.3358191653	-3.6682516009	 0.112801
H	 0.3558183175	 1.1770773334	-3.0993819477	 0.114179
H	 1.4820221176	 2.2269998358	-2.2395103905	 0.116189
131.8448	159.8803	179.5571	198.4261	217.4994	255.6356	282.0327	312.8493	347.2284	363.1366	396.1754	434.1764	485.2135	541.2038	624.5231	652.017	790.5076	840.0757	872.1112	897.5015	930.4136	956.3762	962.1691	979.2292	998.9819	1024.4387	1028.6592	1056.124	1074.4468	1137.4294	1155.4999	1198.9941	1223.7717	1249.8447	1274.4054	1294.8099	1327.0367	1398.4392	1404.8104	1410.6422	1422.1083	1425.1737	1477.3016	1481.7166	1485.2352	1490.2135	1498.8049	1504.2751	1508.8721	1513.6588	1522.9716	3022.2289	3030.2667	3030.776	3036.8165	3053.8127	3083.0093	3088.2805	3089.8476	3096.5736	3100.7081	3105.7438	3113.8816	3123.956	3131.4301	3159.378
CC1(C)C2N1CC2(C)C	CC1(C)[C@@H]2N1CC2(C)C	
InChI=1S/C8H15N/c1-7(2)5-9-6(7)8(9,3)4/h6H,5H2,1-4H3	InChI=1S/C8H15N/c1-7(2)5-9-6(7)8(9,3)4/h6H,5H2,1-4H3/t6-,9?/m1/s1
