20
gdb 80490	2.07844	1.44879	1.22069	4.4532	84.9	-0.2633	0.0195	0.2828	1167.3425	0.171028	-366.010061	-366.001015	-366.000071	-366.04344	34.289	
C	 0.1115058971	 1.6168636779	-0.3739036218	-0.424975
C	 0.2484197419	 0.1167906867	-0.2167428879	-0.049397
C	 1.4925038784	-0.6859862299	-0.4258196163	-0.118131
C	 2.7398529099	 0.0153216278	 0.1273457401	-0.26726
C	 2.124157141	-0.0187920269	 1.5669529286	-0.025764
C	 2.0632870029	 1.2265480466	 2.4423017566	-0.422796
C	 0.8280130284	-0.6268814867	 0.979712046	 0.168805
C	 0.0667901284	-1.6319184908	 1.6473616054	 0.194246
N	-0.5415399254	-2.4433838578	 2.2076262718	-0.356347
H	 1.0346274017	 2.1559742435	-0.1571574047	 0.127596
H	-0.169503414	 1.8515743408	-1.4063082936	 0.125177
H	-0.6716028746	 2.0106586593	 0.2816649625	 0.13146
H	-0.6268054555	-0.4175493984	-0.5819284998	 0.111691
H	 1.5112949328	-1.5420831621	-1.0889884455	 0.110613
H	 3.6466951477	-0.585306939	 0.0440785401	 0.115123
H	 2.9447304009	 1.0052079378	-0.2906657343	 0.107475
H	 2.6260946735	-0.8131188731	 2.1270798425	 0.098749
H	 1.5871349843	 2.0726309302	 1.942225417	 0.121618
H	 1.5009641689	 1.0217015441	 3.3595129198	 0.131571
H	 3.0730568115	 1.53467497	 2.7346688235	 0.120544
120.3762	141.6307	151.2092	191.9115	233.9234	242.2062	291.2394	338.3882	440.3849	510.4556	527.7909	559.7707	632.2488	668.4737	758.527	827.4814	865.1462	892.3213	948.8434	970.7483	996.0923	1050.6761	1084.3813	1093.6315	1119.8307	1122.9874	1144.1345	1175.3148	1229.5816	1242.2342	1264.3887	1295.6527	1340.3461	1379.4844	1409.2289	1416.623	1455.9994	1486.9556	1494.0754	1498.2945	1504.2095	1507.7929	2335.8147	3038.402	3041.6179	3060.261	3062.4127	3098.452	3099.1797	3120.4027	3124.136	3130.1675	3144.434	3192.2063
CC1C2CC(C)C12C#N	C[C@H]1[C@H]2C[C@@H](C)[C@@]12C#N	
InChI=1S/C8H11N/c1-5-3-7-6(2)8(5,7)4-9/h5-7H,3H2,1-2H3	InChI=1S/C8H11N/c1-5-3-7-6(2)8(5,7)4-9/h5-7H,3H2,1-2H3/t5-,6+,7-,8+/m1/s1
