19
gdb 66343	2.92063	1.22791	1.15447	2.8472	78.03	-0.2479	-0.0416	0.2064	1157.946	0.159381	-423.054231	-423.045808	-423.044864	-423.087208	32.593	
O	-0.0271297887	 1.4354157247	-0.0457334193	-0.480884
C	 0.0055873094	 0.0251804775	-0.0098488818	 0.269195
C	-1.4360320388	-0.5298350063	 0.0429831909	-0.253539
C	-1.5171329002	-2.021303609	-0.3072793278	-0.225249
C	-0.937215458	-2.3071532081	-1.7001662465	-0.243555
C	 0.325408096	-1.5329145324	-1.9660324775	-0.061877
C	 0.7439075392	-0.5088986956	-1.2230822209	-0.096109
C	 0.7847135601	-0.403597513	 1.2320850934	 0.122482
O	 1.3114051437	 0.3991274547	 1.9646613641	-0.27467
H	 0.4997109434	 1.7292222849	 0.7151844428	 0.289832
H	-1.8729928949	-0.3297473741	 1.0275614622	 0.103411
H	-2.0085342977	 0.0603195082	-0.6809495611	 0.122621
H	-0.9714727314	-2.6125969758	 0.4383151796	 0.10297
H	-2.558568568	-2.3555855617	-0.2559701271	 0.103249
H	-0.7493202406	-3.3809766403	-1.8220314816	 0.108059
H	-1.6739636343	-2.0522433256	-2.4766470568	 0.117877
H	 0.9010034472	-1.8199091791	-2.8434812889	 0.095807
H	 1.6518420874	 0.0332438535	-1.4726100221	 0.10046
H	 0.8551690363	-1.4927996125	 1.4176122885	 0.099918
92.6839	94.5302	226.7308	249.408	307.0169	349.3563	385.7058	401.8962	459.4054	497.0696	505.7476	627.2681	689.7249	747.2062	816.384	846.1003	877.1922	919.967	954.9353	972.3795	1003.81	1008.8265	1074.316	1095.0358	1119.4951	1146.6433	1208.6984	1235.5255	1254.6561	1279.1149	1346.8351	1369.508	1376.1627	1382.3103	1407.5369	1432.1891	1473.8776	1489.0781	1498.5314	1711.1321	1805.0256	2949.1103	3001.4713	3028.5478	3039.2033	3047.2837	3072.6034	3084.9997	3145.9204	3174.9485	3677.1862
OC1(CCCC=C1)C=O	O[C@]1(CCCC=C1)C=O	
InChI=1S/C7H10O2/c8-6-7(9)4-2-1-3-5-7/h2,4,6,9H,1,3,5H2	InChI=1S/C7H10O2/c8-6-7(9)4-2-1-3-5-7/h2,4,6,9H,1,3,5H2/t7-/m1/s1
