21
gdb 94989	2.81792	1.73048	1.34862	1.3223	81.39	-0.2324	0.0868	0.3192	1030.4357	0.185003	-387.070699	-387.063197	-387.062253	-387.102182	30.926	
C	-0.0411682037	 1.5287395095	-0.0455531524	-0.403729
C	-0.00372351	 0.0074558647	-0.0061840055	 0.129469
O	 0.6173055603	-0.4111607775	-1.2201064399	-0.258793
C	 0.7278116214	-1.8150811924	-1.3763156067	-0.105511
C	 1.2085301779	-2.5516698475	-0.1395086935	-0.026563
C	 2.2691649794	-2.0909678532	 0.8365685083	-0.073477
C	 2.3278396713	-0.5682803251	 0.9942827649	-0.238915
C	 0.7719792091	-0.5531039585	 1.1892545264	-0.029595
C	 0.7870275744	-2.0973759904	 1.2243546613	-0.106853
H	 0.9730871963	 1.9397049945	-0.0335051611	 0.123829
H	-0.5362357234	 1.87212145	-0.9579131435	 0.121899
H	-0.5860495438	 1.9221771689	 0.8179545802	 0.11005
H	-1.0367904986	-0.3842189159	 0.0295082748	 0.05811
H	-0.2512252339	-2.2390792269	-1.6643725793	 0.083276
H	 1.4117496138	-1.965293782	-2.2193375332	 0.104778
H	 1.2019556939	-3.6319465382	-0.2689991815	 0.084743
H	 3.0449549713	-2.7766858927	 1.1577915685	 0.080356
H	 2.8421353918	-0.2878282155	 1.9169660619	 0.0958
H	 2.7342069776	 0.0139202195	 0.164220305	 0.105981
H	 0.4462761671	-0.0851563559	 2.1203793573	 0.067375
H	 0.256477048	-2.7231739152	 1.931689988	 0.07777
150.7062	203.9197	223.9595	280.5107	323.4629	370.2215	471.1989	486.7806	583.6722	706.8671	715.9673	761.7172	796.4865	823.5263	854.4689	903.5473	941.1854	965.0428	980.2456	988.6938	1023.5091	1032.7423	1055.2942	1078.198	1091.5107	1110.7784	1133.7272	1156.9127	1167.0829	1184.1287	1230.1606	1260.888	1284.9638	1300.8261	1305.9993	1328.4178	1362.0784	1381.9614	1405.1979	1409.4281	1448.4752	1483.6193	1489.7251	1495.0111	1501.2786	2933.5904	2941.2125	3040.7863	3055.3503	3060.6452	3086.2605	3111.9409	3115.1366	3120.0494	3134.3082	3169.5777	3184.0119
CC1OCC2C3CC1C23	C[C@H]1OC[C@H]2[C@H]3C[C@@H]1[C@@H]23	
InChI=1S/C8H12O/c1-4-5-2-6-7(3-9-4)8(5)6/h4-8H,2-3H2,1H3	InChI=1S/C8H12O/c1-4-5-2-6-7(3-9-4)8(5)6/h4-8H,2-3H2,1H3/t4-,5+,6-,7+,8-/m1/s1
