20
gdb 40378	3.79465	1.33031	1.19481	1.2618	82.27	-0.1918	0.0855	0.2773	1105.5644	0.17128	-365.900249	-365.892626	-365.891681	-365.932182	31.273	
C	-0.0396061083	 1.5153562452	-0.1208258178	-0.300762
C	 1.3039683122	 0.8513996409	 0.0201495064	-0.046241
C	 0.0353925594	 0.0196054269	 0.0399137908	-0.1007
C	 0.5190439344	-0.7503275801	-1.2227193614	 0.371207
C	 0.7937143419	 0.1277880961	-2.3968415331	-0.346764
C	 1.7936653386	 0.1052542232	-1.2525848982	-0.13925
N	 0.2457695535	-2.1460138131	-1.3180189544	-0.148344
C	 1.2503910082	-2.9992571482	-1.941009974	-0.229417
C	 1.0358902503	-3.0414205014	-0.4689443796	-0.226507
H	-0.3739816095	 2.0360073148	 0.7723560915	 0.110556
H	-0.3649535207	 1.9931113828	-1.0379509547	 0.112284
H	 1.967146426	 1.0689866948	 0.8475935567	 0.086177
H	-0.4183821487	-0.4998470541	 0.8739561604	 0.088134
H	 1.1444904276	-0.4181177787	-3.2688428329	 0.110616
H	 0.19720343	 0.9970424392	-2.6547395885	 0.109402
H	 2.8299018638	-0.1628874493	-1.4164297149	 0.085538
H	 0.8641968226	-3.7867525607	-2.5812867893	 0.118277
H	 2.1730706181	-2.5383303337	-2.2882642879	 0.112907
H	 1.8097486885	-2.5968025219	 0.1528173055	 0.116581
H	 0.4873650223	-3.8606825127	-0.0140938545	 0.116306
92.9159	154.1455	196.298	284.453	410.8625	434.8022	478.7734	501.988	576.6609	691.5449	759.6891	771.4466	811.9828	835.0454	879.0324	894.1466	897.6018	907.1478	943.6987	958.3684	987.8857	1009.8083	1028.4744	1036.8906	1056.6665	1068.1755	1095.7289	1109.4517	1110.7617	1122.7664	1159.5408	1171.2293	1186.4527	1205.9017	1232.6311	1282.406	1303.1625	1331.8619	1404.4907	1481.3046	1487.695	1513.2225	1517.3766	3100.7056	3106.4229	3114.2898	3129.341	3180.0357	3183.7518	3188.8412	3192.616	3196.4796	3199.8687	3206.3851
C1C2C1C1(CC21)N1CC1	C1[C@H]2[C@@H]1[C@]1(C[C@@H]21)N1CC1	
InChI=1S/C8H11N/c1-2-9(1)8-4-7(8)5-3-6(5)8/h5-7H,1-4H2	InChI=1S/C8H11N/c1-2-9(1)8-4-7(8)5-3-6(5)8/h5-7H,1-4H2/t5-,6+,7-,8-/m0/s1
