18
gdb 54205	2.92433	1.42429	1.19419	4.8279	70.95	-0.2487	0.0192	0.268	1073.9405	0.148789	-439.088634	-439.080584	-439.07964	-439.121275	31.501	
N	 0.0405642352	 1.0273522157	-0.0208497357	-0.601041
H	-0.5833240502	 0.7673922994	-0.7792928697	 0.244963
H	 0.6616713348	 0.2437312961	 0.147290942	 0.2435
H	 0.280961856	 2.8990624729	-0.1283836209	 0.305351
C	-0.7099267538	 1.3689320987	 1.1912283924	 0.138656
C	-1.9322286717	 0.5117441713	 1.684787438	-0.291961
C	-1.2047252059	 0.2675566918	 3.0093314479	-0.012039
C	 0.0975708841	-0.428245638	 2.755409007	-0.308529
C	 0.0058632521	 1.0584787387	 2.5181253008	-0.061371
C	-1.0622125583	 2.8722700929	 1.1457960968	 0.411914
O	-0.2792417824	 3.5735512188	 0.3159703306	-0.375623
O	-1.9241024011	 3.3773373305	 1.8151514052	-0.347941
H	-2.8222771374	 1.1319350952	 1.7853648278	 0.141899
H	-2.1540262044	-0.3804786489	 1.0897572824	 0.086649
H	-1.6654551858	 0.2998080177	 3.9875336491	 0.099507
H	 0.6704923542	-0.7031624801	 3.635094247	 0.122471
H	 0.1937360704	-1.133242156	 1.9317031322	 0.098839
H	 0.6300325542	 1.7629036533	 3.0538449573	 0.104757
70.0004	142.2878	201.8413	288.1081	326.9633	351.8339	400.57	431.0715	476.8668	598.2648	685.8065	744.95	759.8132	793.3365	850.4425	857.9576	859.7517	895.9461	943.7557	956.5134	995.5037	1005.8296	1058.2559	1074.4126	1089.9426	1116.0738	1148.8866	1179.0072	1205.2292	1244.3321	1257.8361	1281.9609	1316.856	1360.1952	1425.5162	1469.1002	1495.2094	1645.4402	1862.195	3045.0754	3101.4666	3145.2134	3187.2	3195.2376	3208.7532	3471.7752	3502.6761	3585.432
[NH3+]C1(CC2CC12)C([O-])=O	N[C@]1(C[C@H]2C[C@@H]12)C(=O)O	
InChI=1S/C6H9NO2/c7-6(5(8)9)2-3-1-4(3)6/h3-4H,1-2,7H2,(H,8,9)	InChI=1S/C6H9NO2/c7-6(5(8)9)2-3-1-4(3)6/h3-4H,1-2,7H2,(H,8,9)/t3-,4-,6+/m1/s1
