22
gdb 82213	2.40163	1.77972	1.33853	1.391	84.37	-0.2163	0.0828	0.299	1070.5349	0.195242	-367.183613	-367.175253	-367.174309	-367.215777	34.031	
C	-0.0357741509	 1.5854260708	 0.0203070229	-0.391836
C	 0.0544791862	 0.0608141952	 0.0278488973	-0.031445
N	 0.6818983256	-0.4899117625	-1.2032726329	-0.103473
C	 2.0787858708	-0.1269255947	-1.4878625115	-0.261209
C	 1.7675509846	-1.4010272251	-0.7891228302	-0.02358
C	 1.829684753	-1.4752622533	 0.7201881118	-0.087608
C	 2.1919183706	-0.2402289838	 1.5159020296	-0.35518
C	 0.7414217292	-0.5676268073	 1.260038156	 0.353508
C	-0.1457873746	-0.9480968336	 2.4235418896	-0.483784
H	 0.9515484022	 2.0537255829	 0.0712069729	 0.111491
H	-0.5313137881	 1.9338943174	-0.8904678145	 0.124886
H	-0.6152466997	 1.9372300063	 0.8798406685	 0.115382
H	-0.9712323231	-0.3308522134	 0.0158686437	 0.079586
H	 2.3269984123	-0.1335384082	-2.5466850292	 0.110131
H	 2.5630058526	 0.6705343835	-0.9342759561	 0.109232
H	 1.8450122063	-2.3438300458	-1.324761417	 0.085076
H	 2.0209241073	-2.4473274301	 1.1613457444	 0.081959
H	 2.5512307168	-0.4038443704	 2.5278621114	 0.106514
H	 2.66954051	 0.6001259796	 1.0269939686	 0.109706
H	-0.5962550079	-0.0628041341	 2.8889196019	 0.118369
H	-0.9624686182	-1.6061879173	 2.104567509	 0.118288
H	 0.422799485	-1.4700062759	 3.1996870339	 0.113987
145.1848	199.8772	220.4112	231.0939	243.7152	295.48	381.6876	406.0229	494.5462	537.1511	591.6497	678.3156	689.278	740.1384	806.0882	840.1422	849.6941	904.5972	927.088	955.7011	998.3718	1006.6771	1049.0661	1061.3228	1064.3617	1078.2163	1098.5822	1110.8997	1122.1336	1134.8372	1139.5456	1159.8186	1246.1342	1274.3505	1301.855	1337.5525	1365.2933	1376.0128	1406.8118	1409.8616	1419.1919	1487.1757	1488.8735	1492.1751	1498.2261	1501.9585	1524.0052	3008.701	3019.8472	3041.2117	3077.2249	3097.0972	3107.1199	3108.8412	3116.6028	3128.1777	3133.4131	3169.9551	3189.2698	3212.6359
CC1N2CC2C2CC12C	C[C@H]1N2C[C@H]2[C@H]2C[C@@]12C	
InChI=1S/C8H13N/c1-5-8(2)3-6(8)7-4-9(5)7/h5-7H,3-4H2,1-2H3	InChI=1S/C8H13N/c1-5-8(2)3-6(8)7-4-9(5)7/h5-7H,3-4H2,1-2H3/t5-,6-,7+,8+,9?/m1/s1
