17
gdb 125707	3.02019	1.39115	0.96373	3.486	81.92	-0.2325	-0.0629	0.1696	1205.8379	0.13511	-418.011759	-418.00319	-418.002245	-418.0449	31.915	
C	 0.0248006149	 1.5035480196	-0.1654918875	-0.473679
C	-0.0091424256	 0.0112791963	-0.0821582433	 0.250492
C	-1.1291872917	-0.7338813223	-0.117390292	-0.251513
C	-1.0516718525	-2.1755879269	-0.029164657	 0.353619
C	-2.3016454148	-3.0093504725	-0.0683140341	-0.473446
N	 0.0577705465	-2.823729793	 0.0853394545	-0.140189
O	 1.2323142959	-2.0677014364	 0.1237229122	-0.290881
C	 1.2684491086	-0.6889729848	 0.0471142113	 0.352083
N	 2.3797393059	-0.07229557	 0.089044933	-0.527265
H	 0.6328892027	 1.8217071813	-1.0181255097	 0.156798
H	-0.9812799265	 1.9184531976	-0.259824447	 0.118151
H	 0.5109193247	 1.9216235462	 0.7215818295	 0.156779
H	-2.106903807	-0.2719723187	-0.2120502142	 0.110425
H	-2.8489284785	-2.8397563357	-1.0023400011	 0.138872
H	-2.0506745994	-4.0677278799	 0.009991048	 0.153555
H	-2.9713845595	-2.7387262385	 0.7556382941	 0.138871
H	 3.1537309557	-0.732065912	 0.1808447201	 0.227328
86.0775	148.3048	167.7542	198.1987	269.4553	322.7873	325.2544	373.651	462.038	495.7207	549.5948	596.7463	684.8174	749.8511	791.4718	862.8299	912.5831	915.2907	971.1024	1020.6963	1040.9205	1061.8157	1067.3532	1068.4274	1179.389	1242.5907	1348.481	1406.3967	1412.0761	1420.6432	1463.115	1474.5128	1479.0909	1479.5157	1626.7006	1690.1515	1724.2763	3035.7017	3044.6659	3090.7589	3104.076	3131.9129	3149.802	3179.1722	3480.6509
CC1=CC(C)=NOC1=N	CC1=C(ON=C([CH]1)C)[NH]	
InChI=1S/C6H8N2O/c1-4-3-5(2)8-9-6(4)7/h3,7H,1-2H3	InChI=1S/C6H8N2O/c1-4-3-5(2)8-9-6(4)7/h3,7H,1-2H3
