17
gdb 117074	4.71252	0.76472	0.6662	2.1123	67.85	-0.2536	-0.0719	0.1817	1663.4997	0.131771	-496.118029	-496.107592	-496.106648	-496.155069	34.167	
C	-0.0829159014	 1.3755195774	 0.0100011868	-0.22665
O	 0.0060909877	-0.0317896051	 0.0015574473	-0.217576
C	-1.2419223357	-0.6501254885	 0.0101607214	-0.149831
C	-1.0626012162	-2.1574154906	 0.0002275499	 0.232847
O	-0.0049261439	-2.7229636538	-0.0129057513	-0.24894
C	-2.4059167163	-2.9212660404	 0.0089876216	 0.371064
O	-3.474677368	-2.3589860012	 0.0223311143	-0.353453
O	-2.2251163238	-4.2390955462	 0.0002128621	-0.207808
C	-3.4270576914	-5.0248600563	 0.0076260122	-0.243959
H	 0.9384476799	 1.7618019613	 0.0022709695	 0.136039
H	-0.6163649173	 1.7560536278	-0.8749262991	 0.108755
H	-0.5992245992	 1.7464365997	 0.909065656	 0.108756
H	-1.8446292486	-0.3803073022	 0.8958611087	 0.125802
H	-1.8614881495	-0.3707250421	-0.8608100971	 0.125797
H	-4.0160745369	-4.8120010647	 0.9031443303	 0.146727
H	-4.0325781507	-4.8034866324	-0.87473151	 0.146709
H	-3.0996412987	-6.0635568828	-0.0004138724	 0.145721
36.4212	80.9056	88.2657	116.7316	121.2813	156.4	230.9482	232.4838	309.7231	339.9512	380.3939	434.1234	515.6273	710.9529	767.4939	861.0278	940.6257	1007.3232	1025.0982	1097.2143	1174.4587	1177.3447	1183.0945	1210.7813	1237.9711	1242.5058	1311.7525	1408.6558	1457.1756	1473.6293	1483.0487	1486.3587	1487.8164	1492.962	1512.0209	1801.5986	1845.454	2952.8054	2971.297	2975.8972	3021.381	3054.9486	3123.8133	3130.6263	3170.3955
COCC(=O)C(=O)OC	COCC(=O)C(=O)OC	
InChI=1S/C5H8O4/c1-8-3-4(6)5(7)9-2/h3H2,1-2H3	InChI=1S/C5H8O4/c1-8-3-4(6)5(7)9-2/h3H2,1-2H3
