21
gdb 126550	4.72278	0.78021	0.71319	2.0134	87.4	-0.2288	0.0283	0.257	1676.4866	0.183131	-383.306183	-383.296395	-383.295451	-383.342662	34.557	
C	 0.0824674933	 1.6042529418	 0.1005413309	-0.378858
C	 0.3029757737	 0.0955527623	-0.0304078703	-0.154354
C	 0.4595143043	-0.6049233509	 1.3326832169	-0.288607
C	 0.6786202591	-2.0831807031	 1.2160505993	 0.350605
N	-0.3250584742	-2.9374091376	 1.4257980269	-0.336869
N	 0.1957203381	-4.1614237787	 1.2011129924	 0.063042
C	-0.625533178	-5.3351977282	 1.3944061529	-0.316328
C	 1.5061982597	-4.1051101081	 0.8602917357	-0.022515
C	 1.8605964563	-2.7732179956	 0.8563992535	-0.311527
H	 0.9256044884	 2.0864428345	 0.6083581138	 0.111112
H	-0.0302529855	 2.0779693757	-0.8797638203	 0.109587
H	-0.8201228988	 1.8229446201	 0.6821361652	 0.11485
H	-0.5382975419	-0.3610175671	-0.5653195196	 0.105065
H	 1.1941040065	-0.0987990459	-0.6401802766	 0.095137
H	 1.2986210682	-0.1499176724	 1.8746429887	 0.097317
H	-0.4395500668	-0.4342652439	 1.9343814764	 0.111207
H	-0.0956691862	-6.2076683285	 1.0077891891	 0.135159
H	-0.8446928022	-5.4890849737	 2.4558262937	 0.143882
H	-1.5686327368	-5.2176379004	 0.855730914	 0.150403
H	 2.0717870664	-5.0009109405	 0.6554966529	 0.124686
H	 2.8284521664	-2.3579563197	 0.6248536345	 0.097007
35.375	42.1518	82.5047	107.1819	196.6212	237.818	274.5865	309.6919	369.2452	427.7239	628.023	658.6694	718.0667	743.6603	761.9048	778.5431	827.8293	874.5004	898.0537	1011.43	1017.59	1043.7454	1064.5805	1076.5219	1109.7799	1114.0702	1151.5155	1230.9927	1258.5458	1305.0665	1323.7634	1329.0569	1380.8078	1403.986	1410.8142	1439.6647	1457.4881	1476.0068	1477.6146	1491.5993	1498.1587	1502.4999	1509.4344	1530.8103	1567.7148	3021.2026	3026.7982	3030.4527	3044.6268	3056.0405	3080.1904	3097.0258	3099.9764	3112.4678	3144.1855	3248.3089	3268.3937
CCCC1=NN(C)C=C1	CCCc1nn(C)cc1	
InChI=1S/C7H12N2/c1-3-4-7-5-6-9(2)8-7/h5-6H,3-4H2,1-2H3	InChI=1S/C7H12N2/c1-3-4-7-5-6-9(2)8-7/h5-6H,3-4H2,1-2H3
