25
gdb 112732	2.34196	1.18604	1.00166	0.9595	89.62	-0.242	0.0813	0.3233	1384.6989	0.226439	-389.485536	-389.474675	-389.473731	-389.520774	40.748	
C	-0.2595157353	 1.3649752594	 0.1381761921	-0.237506
O	 0.3030585946	 0.1011833618	-0.1277228795	-0.24412
C	 0.7915979337	-0.5438464644	 1.0186973375	 0.143079
C	-0.2070219228	-1.1687218768	 2.0285091217	-0.296182
C	 0.7489247958	-2.3894501273	 2.1296994502	 0.017188
C	 0.1581152437	-3.782252689	 2.2934563521	-0.413984
C	 1.4121950424	-1.9501806492	 0.7711038644	 0.256545
C	 0.8048212418	-2.6327498678	-0.4583204888	-0.426927
C	 2.9364856805	-2.0090397001	 0.7189853885	-0.457138
H	 0.4733152759	 2.0471610948	 0.5984109348	 0.10177
H	-0.5824534855	 1.7868350553	-0.8168933282	 0.124329
H	-1.1307144269	 1.2971957834	 0.8070645464	 0.107306
H	 1.509463474	 0.111409217	 1.5399139899	 0.054371
H	-0.4339348154	-0.6186770836	 2.9450183498	 0.090269
H	-1.1453166993	-1.4323009745	 1.5299873344	 0.103029
H	 1.4716514337	-2.2136215049	 2.9356045694	 0.065173
H	-0.5851156168	-4.0017277293	 1.5208176172	 0.115065
H	 0.9329485864	-4.5556635002	 2.2416614495	 0.112711
H	-0.3379350385	-3.8791128094	 3.2657995546	 0.112257
H	-0.2877917188	-2.6017499151	-0.4572358007	 0.114392
H	 1.1393944894	-2.1331578537	-1.3717615391	 0.12211
H	 1.1158027622	-3.6818025907	-0.5092492966	 0.104694
H	 3.2918841897	-3.046341898	 0.7117156488	 0.109904
H	 3.3194722804	-1.5228125707	-0.1856694107	 0.116833
H	 3.3846546752	-1.5091492468	 1.5846727822	 0.104833
80.3232	105.8086	170.7281	188.0876	203.2662	218.0556	234.947	243.7176	278.2133	318.9004	331.175	371.5848	451.0531	487.7079	531.2868	583.6	718.0908	790.342	873.1886	912.8001	933.358	957.384	979.8662	1005.1429	1020.7383	1041.7282	1095.7919	1127.7973	1164.4821	1169.2538	1186.3842	1192.2657	1201.0166	1238.9721	1254.8408	1264.8847	1282.8509	1328.7774	1366.961	1396.3082	1402.0063	1411.8157	1423.7272	1479.1652	1479.902	1485.0145	1486.935	1492.5855	1495.4619	1497.1322	1505.4036	1507.5207	1511.4192	2957.3617	2972.5308	3018.2055	3019.2737	3024.313	3027.7947	3039.2032	3051.4346	3084.1933	3087.1158	3090.0473	3101.9002	3105.5197	3107.9282	3110.9692	3117.8389
COC1CC(C)C1(C)C	CO[C@H]1C[C@@H](C)C1(C)C	
InChI=1S/C8H16O/c1-6-5-7(9-4)8(6,2)3/h6-7H,5H2,1-4H3	InChI=1S/C8H16O/c1-6-5-7(9-4)8(6,2)3/h6-7H,5H2,1-4H3/t6-,7+/m1/s1
