19
gdb 58368	2.32146	1.11474	0.80093	6.2556	80.3	-0.326	0.0148	0.3408	1428.5619	0.157795	-382.108565	-382.098369	-382.097425	-382.144346	35.993	
C	 0.019206311	 1.5551474072	 0.0354419398	-0.412575
C	 0.0151520416	 0.0200160708	 0.0213018779	 0.024306
C	 0.7806331913	-0.526728341	 1.2346560401	-0.411877
C	-1.4333615805	-0.5524822477	-0.0168327837	-0.141552
C	-2.2455178705	-0.0641191844	-1.248554454	-0.365137
C	-3.6369499736	-0.5084576832	-1.2276370081	 0.27349
N	-4.7423762503	-0.8418445415	-1.1969473531	-0.291909
C	-1.4088079672	-2.0195938553	-0.0003729048	 0.295076
N	-1.3653695183	-3.1742225938	-0.0071343189	-0.320935
H	 1.0437597993	 1.9207983162	 0.1485219793	 0.130428
H	-0.3773374937	 1.993662451	-0.8842538816	 0.123087
H	-0.5640666741	 1.9440146811	 0.878519873	 0.125176
H	 0.5226382853	-0.3242365693	-0.8895668839	 0.098387
H	 1.8090786774	-0.1547332672	 1.2300888083	 0.124071
H	 0.3132489398	-0.2005021149	 2.1711221913	 0.121827
H	 0.8154390161	-1.6188023171	 1.2357958075	 0.151069
H	-1.9580882577	-0.2221955038	 0.8887644777	 0.143587
H	-2.2399473519	 1.0282720068	-1.2751764469	 0.164346
H	-1.7699540239	-0.416471924	-2.17006688	 0.169137
54.0488	62.613	120.0349	159.8487	199.1386	226.2684	257.3019	276.3973	362.5152	386.6906	389.5611	427.9779	498.4057	540.6376	612.1254	809.2031	859.1932	931.7837	935.2107	947.3393	970.5057	1032.2597	1043.803	1134.3549	1147.2454	1186.9814	1221.6531	1273.5047	1331.9559	1348.3057	1350.5034	1372.9132	1407.678	1428.5715	1466.4714	1486.7793	1496.0852	1505.1581	1516.2633	2359.554	2368.366	3018.9571	3033.667	3036.508	3042.4446	3062.3169	3101.897	3107.5932	3110.8023	3117.5123	3126.9117
CC(C)C(CC#N)C#N	CC(C)[C@@H](CC#N)C#N	
InChI=1S/C7H10N2/c1-6(2)7(5-9)3-4-8/h6-7H,3H2,1-2H3	InChI=1S/C7H10N2/c1-6(2)7(5-9)3-4-8/h6-7H,3H2,1-2H3/t7-/m0/s1
