17
gdb 15550	2.8087	2.0753	1.40889	4.0457	72.8	-0.2645	-0.0017	0.2628	913.2113	0.143404	-326.75894	-326.751348	-326.750404	-326.790903	28.417	
C	-0.6638509516	 1.3306773845	-0.0207888333	-0.416205
C	 0.0927149778	 0.0059973542	-0.0511572861	 0.020988
C	 1.2638094904	-0.0608879075	-1.0643134407	-0.262616
C	 2.2253455315	-1.0307898846	-0.4256921957	-0.052599
C	 1.9438411087	-1.2552417705	 0.8548815231	-0.071823
C	 0.7290415236	-0.4563625462	 1.3083748805	-0.20648
C	 1.1329571626	 0.6517260459	 2.1836703539	 0.27686
N	 1.4574652172	 1.5228661638	 2.8715232321	-0.336072
H	-0.0066884997	 2.1592342894	 0.2599952497	 0.142358
H	-1.084589105	 1.5502505028	-1.0072020745	 0.117
H	-1.4910503804	 1.304308564	 0.6957153717	 0.122262
H	-0.6075683558	-0.7940358532	-0.3166772637	 0.092046
H	 0.9254475836	-0.3782473571	-2.0566565855	 0.110716
H	 1.7391715099	 0.9215870171	-1.1978729574	 0.120304
H	 3.0648236391	-1.463428908	-0.9584404255	 0.106067
H	 2.50807393	-1.8752325266	 1.5404194612	 0.113557
H	 0.0179613081	-1.065196528	 1.8790889304	 0.123638
75.4692	150.5961	194.2417	244.7737	312.9253	394.8593	413.2893	492.6705	584.3287	643.5684	731.57	775.9599	810.5301	899.9873	928.7469	955.7826	977.2293	984.76	1004.1435	1068.8445	1120.9703	1136.8619	1157.8664	1187.581	1248.497	1301.7599	1305.026	1349.402	1363.7434	1367.9421	1418.7108	1486.9015	1498.3733	1498.8838	1688.1807	2347.8562	3009.8724	3031.95	3037.7445	3045.0256	3066.7699	3104.4701	3114.7544	3192.6239	3220.9099
CC1CC=CC1C#N	C[C@H]1CC=C[C@H]1C#N	
InChI=1S/C7H9N/c1-6-3-2-4-7(6)5-8/h2,4,6-7H,3H2,1H3	InChI=1S/C7H9N/c1-6-3-2-4-7(6)5-8/h2,4,6-7H,3H2,1H3/t6-,7-/m0/s1
