21
gdb 70752	2.44832	1.57556	1.16355	1.4458	77.73	-0.2467	0.0798	0.3265	1134.1682	0.183465	-424.218009	-424.209657	-424.208713	-424.250475	33.09	
C	 0.1009006599	 1.5219624218	-0.0699189852	-0.473243
C	-0.0334316361	 0.0217109657	 0.0339672005	 0.399831
C	-1.3236622214	-0.5677468402	-0.5284112094	-0.159364
O	-2.372878086	-0.5538373536	 0.4253039109	-0.242664
C	-2.4240710885	-1.6960176628	 1.2641840887	-0.06358
C	-1.2956618699	-1.8198529465	 2.2971586465	-0.200299
C	 0.1046683646	-2.0076318107	 1.6857217259	-0.251843
C	 0.6543128323	-0.717266472	 1.1022373345	 0.011697
O	 1.1642455362	-0.7301987633	-0.2380527285	-0.302098
H	 1.0119198831	 1.8713190961	 0.4221571621	 0.122882
H	 0.136778841	 1.8332569855	-1.1199764143	 0.123957
H	-0.7624316697	 2.0086418417	 0.3961906038	 0.133216
H	-1.6713850184	 0.0335258661	-1.3759471988	 0.101657
H	-1.1298075039	-1.5852189374	-0.8939806076	 0.102707
H	-3.385571719	-1.6282151079	 1.7836373222	 0.106378
H	-2.4457306906	-2.6081480981	 0.6431392004	 0.087685
H	-1.305142376	-0.937612231	 2.9491743075	 0.105096
H	-1.5350857026	-2.6820638724	 2.9326463998	 0.097774
H	 0.7966197681	-2.3798788712	 2.4488803144	 0.101381
H	 0.0731333925	-2.7686950298	 0.8982711707	 0.112514
H	 1.2597724042	-0.12294154	 1.7895886457	 0.086315
120.4378	166.9512	219.5725	254.9096	307.9665	332.0232	344.5659	406.345	432.0593	469.5754	528.1499	575.1603	743.9375	765.2675	820.6226	894.0205	909.8813	930.8345	950.5456	977.2838	995.7564	1059.6146	1078.9674	1101.3644	1107.8287	1138.5572	1151.5049	1208.8614	1254.379	1264.1465	1280.4535	1330.1718	1350.29	1368.0913	1384.0503	1392.2656	1407.7628	1420.1856	1469.9079	1479.9472	1485.1603	1487.0077	1490.3317	1505.1882	1509.8884	2959.124	3010.8594	3022.5387	3033.2637	3039.347	3064.5456	3067.9606	3072.3634	3075.7781	3092.9614	3097.9585	3123.166
CC12COCCCC1O2	C[C@]12COCCC[C@H]1O2	
InChI=1S/C7H12O2/c1-7-5-8-4-2-3-6(7)9-7/h6H,2-5H2,1H3	InChI=1S/C7H12O2/c1-7-5-8-4-2-3-6(7)9-7/h6H,2-5H2,1H3/t6-,7+/m1/s1
