15
gdb 131890	2.73443	1.61525	1.02177	6.2955	73.27	-0.2333	-0.0575	0.1758	1088.1236	0.1133	-453.915377	-453.907464	-453.90652	-453.948305	28.896	
C	-0.033135911	 1.5321529134	 0.079630539	-0.483073
C	-0.010864982	 0.0475242837	-0.0461847126	 0.265
C	 0.0158022234	-0.7992974728	-1.1479818987	 0.27867
C	 0.0285981512	-2.1526766336	-0.7103996344	-0.240682
C	 0.009465807	-2.1086603607	 0.6551968985	-0.065704
N	-0.0140653683	-0.7797925831	 1.035901919	-0.298415
N	 0.02842664	-0.3748716465	-2.5101266802	 0.346575
O	 0.0523295405	-1.2446494295	-3.3773741964	-0.373409
O	 0.0146544812	 0.8373514871	-2.7380826775	-0.407422
H	 0.8421422907	 1.9790563409	-0.3991892119	 0.162775
H	-0.907635025	 1.9547796039	-0.4221254009	 0.162749
H	-0.0510950088	 1.831415871	 1.132227312	 0.110438
H	 0.0492575889	-3.0210951379	-1.3459601737	 0.136087
H	 0.0103849612	-2.8950314234	 1.3916351203	 0.13688
H	-0.031624869	-0.4536186526	 1.9879406376	 0.269531
74.905	108.5631	199.0383	211.8847	254.978	337.9345	444.7572	549.1642	549.5192	629.7987	650.9993	688.5076	723.9122	795.3713	838.3015	864.1217	913.3581	988.6075	1057.1278	1067.8623	1102.1665	1181.4811	1253.6803	1308.3622	1398.2708	1423.6456	1446.7968	1460.1733	1462.9977	1503.6854	1519.6992	1587.5815	1627.5235	3043.8411	3114.7116	3118.371	3271.8687	3296.2995	3663.0162
CC1=C(C=CN1)N(=O)=O	Cc1c(cc[nH]1)N(=O)=O	
InChI=1S/C5H6N2O2/c1-4-5(7(8)9)2-3-6-4/h2-3,6H,1H3	InChI=1S/C5H6N2O2/c1-4-5(7(8)9)2-3-6-4/h2-3,6H,1H3
