18
gdb 81303	2.63505	1.57914	1.23567	3.4544	71.07	-0.2183	-0.0138	0.2045	1038.5535	0.149326	-439.076334	-439.068539	-439.067594	-439.108574	30.538	
O	-0.0304651199	 1.3541255441	-0.1062418428	-0.437968
C	 0.0566782869	-0.0508792115	-0.0014008385	 0.12319
C	 0.1653615612	-0.5976545268	 1.4597940264	-0.045603
C	-1.3716011836	-0.4324264264	 1.553165749	-0.242308
C	-1.388780958	-0.634883493	 0.0026857166	-0.13268
C	-1.3025206228	-2.1196331711	-0.2810803454	 0.398878
O	-1.9112552706	-2.6850856994	-1.1555689289	-0.324706
C	-0.3831083559	-2.8737312068	 0.6970266288	-0.28072
N	 0.5204752433	-2.0158278706	 1.4868717375	-0.295978
H	 0.8336541361	 1.723270074	 0.1053106683	 0.28538
H	 0.768182564	-0.4661925039	-0.7312825486	 0.063133
H	 0.7996728461	-0.0455190594	 2.1601388762	 0.067997
H	-1.9227109957	-1.1365397129	 2.1799901847	 0.109122
H	-1.6451708831	 0.5902824036	 1.8074244829	 0.128345
H	-2.1373462202	-0.144701475	-0.6189787307	 0.092954
H	-1.0478137029	-3.4417453406	 1.3642879054	 0.138594
H	 0.1824988195	-3.6198958069	 0.1332643042	 0.132079
H	 1.4692648955	-2.1234138774	 1.1457675348	 0.220292
83.9149	166.65	254.9873	277.7438	299.2	387.6807	422.8344	456.6106	482.3295	546.8458	619.8894	751.1331	767.3587	853.9677	880.3167	899.6648	918.3279	952.0647	988.8976	1014.3586	1057.7894	1090.5017	1107.0629	1130.1351	1157.7388	1197.6042	1224.8534	1238.5126	1257.1397	1265.4558	1283.263	1308.1861	1329.5266	1364.3308	1411.4617	1467.0305	1474.9611	1491.1783	1827.6738	2981.7683	3002.1548	3058.8114	3083.4114	3096.4075	3126.7133	3155.3791	3525.3583	3807.357
OC1C2CC1C(=O)CN2	O[C@H]1[C@H]2C[C@@H]1C(=O)CN2	
InChI=1S/C6H9NO2/c8-5-2-7-4-1-3(5)6(4)9/h3-4,6-7,9H,1-2H2	InChI=1S/C6H9NO2/c8-5-2-7-4-1-3(5)6(4)9/h3-4,6-7,9H,1-2H2/t3-,4-,6-/m1/s1
