16
gdb 10416	2.67543	1.97842	1.4156	2.0627	66.49	-0.2543	0.0244	0.2787	921.0852	0.127913	-383.66332	-383.654906	-383.653961	-383.696443	30.019	
C	-0.0138878796	 1.4259389284	 0.0569830353	-0.256912
O	-0.1053772004	 0.0170891595	-0.0640969612	-0.267757
C	 0.6187553064	-0.5354483788	-1.1392303209	 0.165348
C	 2.1617460486	-0.6498135641	-0.9190318674	-0.112139
O	 2.0894853584	-2.0837671061	-0.8552181547	-0.267437
C	 0.6598898029	-2.0792962227	-1.0124461161	-0.109753
C	 0.2050127511	-0.0107377191	-2.4367129557	 0.320075
C	-0.1305327689	 0.4180618615	-3.5086442929	-0.495139
H	 1.0240847813	 1.7554747344	 0.2098877077	 0.109208
H	-0.4180072522	 1.9354024684	-0.826557918	 0.125942
H	-0.602895546	 1.6998748191	 0.9344159574	 0.133663
H	 2.7929904586	-0.3014843585	-1.7430158132	 0.111619
H	 2.4947486449	-0.2056827678	 0.0270570906	 0.106903
H	 0.1332858889	-2.4312001764	-0.1184874792	 0.117729
H	 0.334826919	-2.6395056587	-1.8944770907	 0.11448
H	-0.4291427432	 0.7921133809	-4.457096991	 0.204171
65.3663	119.422	165.2509	183.6566	196.1475	271.8449	393.8251	423.1005	515.1246	555.2329	633.2851	643.8549	669.9423	836.8081	879.0793	953.5064	983.9606	1048.4375	1057.5959	1080.7538	1154.2564	1162.3557	1182.2785	1189.4957	1215.6926	1258.1955	1304.334	1372.1806	1476.5624	1487.6919	1494.2693	1508.5081	1520.4111	2229.8641	2996.6745	3019.3722	3036.4373	3060.3827	3080.6103	3093.7502	3129.0047	3498.7099
COC1(COC1)C#C	COC1(COC1)C#C	
InChI=1S/C6H8O2/c1-3-6(7-2)4-8-5-6/h1H,4-5H2,2H3	InChI=1S/C6H8O2/c1-3-6(7-2)4-8-5-6/h1H,4-5H2,2H3
