21
gdb 119837	4.18883	0.78487	0.73638	2.0606	82.12	-0.235	0.0258	0.2608	1620.4138	0.181691	-424.22567	-424.216077	-424.215133	-424.260739	35.058	
C	-0.0053453159	 1.3913010709	-0.0362741698	-0.223385
O	-0.0221177366	-0.0146753715	 0.0085666599	-0.227858
C	 0.5961920417	-0.6054687733	-1.1090311796	-0.165458
C	 0.5494241381	-2.0945953992	-1.0088707308	 0.287075
C	 0.0271604457	-2.823689272	-0.0194347951	-0.16723
C	 0.2111494094	-4.3045547604	-0.2570459228	-0.277989
C	 0.5623974178	-4.3708552477	-1.7649004685	 0.130903
O	-0.5918811617	-4.6177573527	-2.5576325082	-0.436581
C	 1.1704398838	-2.9785875127	-2.0717499877	-0.328326
H	 1.0222740854	 1.7881225659	-0.0576963023	 0.104568
H	-0.539691725	 1.7793295001	-0.9182852883	 0.104207
H	-0.5044009597	 1.7530572553	 0.8658056521	 0.128571
H	 0.1033488012	-0.2766062181	-2.0443762808	 0.091509
H	 1.6475483343	-0.2689013418	-1.1947765875	 0.093082
H	-0.4393830794	-2.4075235019	 0.8642198905	 0.104383
H	 1.0238516076	-4.7061792717	 0.3650016122	 0.105554
H	-0.6770239187	-4.9096393434	-0.0447711638	 0.106858
H	 1.2478743747	-5.1872392825	-2.0042946671	 0.081759
H	-1.2355094283	-3.9329894036	-2.3409038866	 0.278526
H	 0.9379631339	-2.6784877518	-3.1000540721	 0.105056
H	 2.2662051018	-2.9865208477	-1.9815078935	 0.104776
62.0023	76.0764	121.5385	141.5085	220.5917	235.6152	335.5733	362.1601	371.425	403.1105	438.9061	469.2307	701.9058	769.8384	809.0651	856.8449	884.5052	907.1277	952.2342	967.9534	1005.1718	1019.6522	1048.8802	1080.1859	1132.5897	1162.4854	1171.8428	1182.5788	1190.4734	1222.504	1254.3051	1258.4532	1277.3362	1305.5151	1320.635	1344.7248	1428.7921	1434.203	1471.1474	1479.1889	1481.2778	1484.9067	1497.3563	1520.6974	1715.685	2916.4121	2925.6465	2968.4504	3006.5861	3007.0196	3011.2803	3060.9038	3066.2159	3088.6473	3115.5601	3219.7512	3789.0026
COCC1=CCC(O)C1	COCC1=CC[C@@H](O)C1	
InChI=1S/C7H12O2/c1-9-5-6-2-3-7(8)4-6/h2,7-8H,3-5H2,1H3	InChI=1S/C7H12O2/c1-9-5-6-2-3-7(8)4-6/h2,7-8H,3-5H2,1H3/t7-/m1/s1
