18
gdb 111665	2.74574	1.37418	1.2848	3.792	72.12	-0.2122	-0.0114	0.2008	1078.1483	0.148072	-439.067326	-439.059022	-439.058078	-439.100493	31.005	
C	 0.0399016241	 1.10758433	-0.3633798112	-0.239511
O	-0.1885003709	 0.046383356	 0.553605949	-0.240443
C	-1.371680212	-0.6326030597	 0.293831478	 0.118238
C	-1.4452782152	-1.6758804	-0.7678407236	-0.074769
N	-0.1812265184	-2.0631446967	-1.381975448	-0.304793
C	 0.6921287089	-2.6019037141	-0.3250318274	-0.288289
C	-0.1687632202	-2.7921917322	 0.9367236515	 0.432202
O	 0.1441366851	-3.4382344747	 1.904319491	-0.328882
C	-1.4717373047	-2.0891673214	 0.7146916974	-0.257629
H	 0.9761862289	 1.5845726886	-0.0659606015	 0.130386
H	 0.1276296792	 0.7308850043	-1.3891166152	 0.133781
H	-0.7680404239	 1.8528470614	-0.3186288926	 0.106641
H	-2.2774405621	-0.0474382392	 0.4652767235	 0.097508
H	-2.317180201	-1.7408522385	-1.4083420028	 0.101515
H	-0.3711150627	-2.7903215462	-2.060629806	 0.230987
H	 1.1472537381	-3.5521856021	-0.6159795122	 0.126685
H	 1.4983289959	-1.9025182469	-0.0784343592	 0.145844
H	-2.3364307489	-2.4260862386	 1.2714616094	 0.11053
90.1433	101.0258	170.9628	177.9522	248.1304	289.9843	412.0468	450.8005	595.6004	603.1343	638.4582	696.4323	741.1846	783.8664	823.8382	861.8966	931.7718	970.6119	1018.6537	1026.8028	1039.6858	1087.6282	1102.3337	1139.8297	1175.4646	1179.993	1201.4031	1221.1082	1256.3058	1289.6598	1303.971	1363.8561	1396.1423	1461.6891	1471.081	1487.5043	1490.5577	1506.5563	1838.2455	2993.8977	3050.0511	3067.191	3081.8919	3101.7813	3127.4073	3179.2992	3201.521	3546.8013
COC1C2NCC(=O)C12	CO[C@H]1[C@H]2NCC(=O)[C@@H]12	
InChI=1S/C6H9NO2/c1-9-6-4-3(8)2-7-5(4)6/h4-7H,2H2,1H3	InChI=1S/C6H9NO2/c1-9-6-4-3(8)2-7-5(4)6/h4-7H,2H2,1H3/t4-,5+,6-/m1/s1
