16
gdb 114595	2.93843	1.17872	0.97374	3.3607	70.35	-0.2721	0.0032	0.2753	1200.4573	0.124024	-437.846784	-437.838567	-437.837623	-437.879937	30.466	
O	 0.0434094011	 1.3835892827	-0.2639715238	-0.412873
C	 0.0953830787	 0.0352562587	 0.1570781993	-0.085723
C	-1.2895707537	-0.5815611904	 0.1085298086	 0.064081
O	-1.861820356	-0.5383349075	-1.2364551527	-0.305963
C	-2.1734049748	-1.9234433337	-1.1821579985	 0.075144
C	-0.9523915241	-2.76361152	-1.0922650744	-0.344306
C	-1.4899238905	-2.1046143408	 0.1775513946	 0.097451
C	-1.8841078823	-2.8347294281	 1.3316639857	 0.199072
N	-2.2007057678	-3.4193905071	 2.2795401155	-0.345489
H	-0.3341553896	 1.3841488872	-1.1515989905	 0.297672
H	 0.7988383791	-0.5542584666	-0.4488629166	 0.093279
H	 0.459493521	 0.0337115152	 1.1900380284	 0.128227
H	-1.9651830474	-0.0602154722	 0.7945239541	 0.115629
H	-3.1469682967	-2.2465256485	-1.5302350573	 0.137644
H	-1.1179340104	-3.8353803123	-1.1222978731	 0.14986
H	-0.0223214867	-2.4214462367	-1.5330055791	 0.136293
80.3336	129.6525	164.4642	188.3838	260.72	386.2634	419.1513	451.5728	487.2532	517.8893	574.8639	628.742	750.391	826.3084	856.5589	893.3776	990.746	1000.3968	1029.8511	1050.8738	1072.1507	1090.6439	1097.4475	1128.2032	1212.2731	1218.7174	1242.7515	1291.935	1349.0926	1380.2514	1401.5123	1436.7906	1475.8207	1497.1807	2347.5043	3001.1208	3062.8536	3082.9549	3136.9884	3198.2292	3231.4295	3796.4749
OCC1OC2CC12C#N	OC[C@H]1O[C@H]2C[C@@]12C#N	
InChI=1S/C6H7NO2/c7-3-6-1-4(6)9-5(6)2-8/h4-5,8H,1-2H2	InChI=1S/C6H7NO2/c7-3-6-1-4(6)9-5(6)2-8/h4-5,8H,1-2H2/t4-,5+,6-/m0/s1
