13
gdb 24954	5.30022	1.34721	1.07704	4.6759	65.76	-0.1889	0.0172	0.2061	1006.5323	0.093297	-448.988	-448.981309	-448.980365	-449.018945	25.966	
O	 0.0066254201	-0.0217762929	-0.0815385103	-0.402364
C	-0.0095043161	 1.1875360264	-0.0768923741	 0.420035
N	-1.1695871749	 2.0102910798	-0.0881194839	-0.453205
C	-0.7548692283	 3.3158210194	 0.1433406925	 0.307468
C	 0.6092024843	 3.3670465902	 0.1257222826	 0.338943
N	 1.0755638201	 2.0645465376	-0.0355238037	-0.447689
N	 1.0874086326	 4.6362372562	 0.0238529834	-0.340329
C	-0.0110215377	 5.3719389849	-0.0173171356	-0.007708
N	-1.1702190042	 4.6165662324	-0.0099480224	-0.366389
H	-2.0393329775	 1.5922551373	 0.2009740635	 0.266859
H	 2.0165937556	 1.7253312417	 0.0625132292	 0.275037
H	-0.044529565	 6.4498898895	 0.0019822988	 0.136183
H	-2.1063889589	 4.9791606674	 0.0497867598	 0.273158
124.5333	237.8356	331.1384	354.6753	413.6237	447.4042	476.8639	576.351	600.0194	639.9341	719.2447	746.3833	749.5508	776.4336	878.5489	938.9515	979.4643	1084.1712	1114.6112	1234.2258	1285.3286	1287.7257	1316.097	1385.9234	1459.18	1493.9074	1563.6971	1613.3652	1849.7804	3265.2908	3648.2982	3673.3099	3686.9819
O=C1NC2=C(N1)N=CN2	O=c1[nH]c2c([nH]1)nc[nH]2	
InChI=1S/C4H4N4O/c9-4-7-2-3(8-4)6-1-5-2/h1H,(H,5,6)(H2,7,8,9)	InChI=1S/C4H4N4O/c9-4-7-2-3(8-4)6-1-5-2/h1H,(H,5,6)(H2,7,8,9)
