13
gdb 24765	3.50837	1.69965	1.14497	1.9866	71.29	-0.2188	-0.0883	0.1306	961.3112	0.092713	-415.65399	-415.647663	-415.646719	-415.684777	24.547	
O	-0.0212098332	-0.0481845878	 0.004627184	-0.319751
C	 0.0059328312	 1.1590437953	 0.009920761	 0.282371
C	-1.1984943983	 2.1046805727	 0.0311538834	-0.191713
C	-0.7873922225	 3.3831472517	 0.0314611687	-0.193297
C	 0.6995330055	 3.3865395259	 0.0108483265	 0.277309
C	 1.1537039928	 2.0940886068	-0.001545936	 0.198754
N	 2.5204440906	 2.1887338538	-0.020112401	-0.388123
C	 2.8079131292	 3.5256969629	-0.0176757067	-0.00323
N	 1.7172262136	 4.2865404216	 0.0009191867	-0.342534
H	-2.2109685535	 1.7275099594	 0.0434458794	 0.124658
H	-1.4081958104	 4.2692797518	 0.0442615025	 0.128659
H	 3.1867759409	 1.4336916246	-0.0329352731	 0.28409
H	 3.8240821542	 3.8903699413	-0.0300166355	 0.142808
128.7274	213.8899	298.3336	378.8906	529.1039	560.3645	607.2942	656.4549	657.0346	680.3099	741.1197	742.403	804.6197	840.1225	952.5908	962.7015	1025.4944	1057.0535	1095.1474	1150.2488	1248.304	1295.3125	1357.9329	1406.4359	1426.3277	1508.4217	1555.5229	1614.5305	1813.0896	3221.8509	3250.1214	3257.1706	3659.3007
O=C1C=CC2=C1NC=N2	O=C1C=Cc2c1[nH]cn2	
InChI=1S/C6H4N2O/c9-5-2-1-4-6(5)8-3-7-4/h1-3H,(H,7,8)	InChI=1S/C6H4N2O/c9-5-2-1-4-6(5)8-3-7-4/h1-3H,(H,7,8)
