14
gdb 23986	6.61037	1.05428	0.91992	8.1079	77.4	-0.2418	-0.0167	0.2251	1189.6582	0.103807	-395.749413	-395.742375	-395.741431	-395.78129	25.849	
N	 0.1437982713	-1.1406480301	-0.3449128418	-0.343771
C	 0.0725511245	-0.0019799097	-0.1461203675	 0.215235
C	-0.048921901	 1.3921956546	 0.0931367315	 0.152734
C	-1.2402045275	 2.1150176004	 0.0759474491	-0.229385
N	-0.828806326	 3.3834245306	 0.3589612107	 0.015916
C	-0.9683396672	 4.8365872471	 0.6065289168	-0.17082
C	 0.6011503034	 4.8590037843	 0.8071945482	-0.374142
C	 0.5134977547	 3.3690229573	 0.5243807262	 0.386375
N	 1.0587668595	 2.1921912317	 0.3778443049	-0.404938
H	-2.2561023112	 1.8114134474	-0.1066308647	 0.163484
H	-1.3423810541	 5.3898696104	-0.2572102589	 0.147014
H	-1.5615726531	 5.0706960518	 1.4927231124	 0.147009
H	 1.1458242918	 5.4530120372	 0.070769996	 0.147645
H	 0.9278042549	 5.1354304468	 1.8115469171	 0.147644
84.4772	157.1456	166.6116	244.737	440.7852	499.6712	510.4912	599.6965	667.5565	701.3105	768.6307	798.1454	807.7825	829.3668	911.6452	995.5362	1057.2686	1105.0234	1136.9075	1159.6266	1178.983	1228.0223	1254.7941	1269.8715	1408.2927	1434.3681	1480.5509	1496.2149	1513.7567	1587.4281	2347.8591	3076.2158	3083.4036	3129.0858	3141.9256	3292.9368
N#CC1=CN2CCC2=N1	N#Cc1cn2CCc2n1	
InChI=1S/C6H5N3/c7-3-5-4-9-2-1-6(9)8-5/h4H,1-2H2	InChI=1S/C6H5N3/c7-3-5-4-9-2-1-6(9)8-5/h4H,1-2H2
