18
gdb 56240	3.76111	0.89755	0.76781	8.7867	70.49	-0.2309	0.0267	0.2577	1439.5368	0.148622	-472.457844	-472.448609	-472.447665	-472.492213	34.224	
N	-0.8411880769	 0.8710764693	-0.750850512	-0.552211
C	-0.28621682	-0.1240227538	-0.1482183795	 0.424333
N	 0.9805061477	-0.6295605929	-0.4121320069	-0.560843
H	 1.5488860956	-0.0554017302	-1.0159709332	 0.25713
H	 1.4889034704	-0.9643476831	 0.3942690746	 0.257745
N	-0.9532587874	-0.8121542215	 0.8327774129	-0.292364
C	-2.332237918	-0.4746279871	 1.1678386837	-0.191563
C	-3.3910069561	-0.8080771086	 0.0777661687	-0.326218
C	-4.2071728228	 0.4016598694	-0.3938096829	 0.381728
O	-3.4927470296	 1.444016079	-0.8182067958	-0.382062
O	-5.412905773	 0.4096295917	-0.3836198347	-0.338642
H	-0.2016638502	 1.3623486499	-1.3668647907	 0.217718
H	-2.5090394262	 1.2512189675	-0.8007287599	 0.336468
H	-0.6988961684	-1.7842863074	 0.9208548195	 0.247984
H	-2.569134261	-1.0083604254	 2.0910928459	 0.119568
H	-2.3547879955	 0.5922856911	 1.401969836	 0.149327
H	-2.8817797171	-1.2308106682	-0.7954011202	 0.12724
H	-4.1042803916	-1.5514121997	 0.4364761845	 0.124663
71.0502	98.7968	118.4973	178.4226	235.7077	305.9219	340.2585	363.3643	441.6807	473.4938	514.2567	577.7653	601.0015	645.6542	705.9815	725.4513	755.2207	797.7735	898.9931	961.1866	967.0581	1009.2652	1053.4754	1099.6362	1146.4952	1173.5663	1205.7208	1285.8707	1302.8107	1330.9205	1388.4123	1418.3591	1466.9425	1483.4121	1509.2354	1564.7203	1640.4575	1711.1142	1848.0464	3050.346	3054.766	3072.7239	3112.9369	3128.5601	3541.4726	3568.1602	3617.6531	3674.9095
NC(=[NH2+])NCCC([O-])=O	N=C(N)NCCC(=O)O	
InChI=1S/C4H9N3O2/c5-4(6)7-2-1-3(8)9/h1-2H2,(H,8,9)(H4,5,6,7)	InChI=1S/C4H9N3O2/c5-4(6)7-2-1-3(8)9/h1-2H2,(H,8,9)(H4,5,6,7)
