17
gdb 61003	2.15461	1.34981	1.11613	1.5391	69.61	-0.2596	-0.0483	0.2112	1168.987	0.131938	-458.955358	-458.945818	-458.944874	-458.991059	32.746	
C	 0.3139593464	 1.4248613257	 0.1033303744	-0.421439
C	-0.0747874418	-0.0627730717	 0.016776611	-0.130785
C	-1.5550555708	-0.2569611074	 0.2770061715	 0.157101
O	-2.2892417826	-0.9288392718	-0.4031695865	-0.253327
C	 0.3306814116	-0.6695603781	-1.306398282	 0.084867
O	 1.68882033	-1.0498943545	-1.4485866732	-0.240395
C	 0.7169110328	-2.0945049383	-1.4751655348	-0.042659
C	 0.6738007394	-3.0492994935	-0.3232711884	 0.147635
O	 1.1336006391	-2.8335567941	 0.7701801724	-0.25465
H	 1.3971082853	 1.5341452643	 0.0115642434	 0.149275
H	-0.159365526	 2.0085166452	-0.6933240411	 0.127975
H	 0.0090386935	 1.8519813249	 1.0635049185	 0.12757
H	 0.4522846816	-0.6012166379	 0.8159363149	 0.149149
H	-1.934030412	 0.275751874	 1.1790362664	 0.084968
H	-0.1021605433	-0.1936408797	-2.1880059664	 0.111911
H	 0.5502584369	-2.5496625323	-2.4517336612	 0.109926
H	 0.1491068299	-4.0014040445	-0.555796259	 0.092878
25.2633	104.6646	122.0616	131.8648	205.6201	218.9177	248.7242	273.6753	339.0773	422.1617	481.8541	656.6906	751.3161	787.7554	831.1842	906.1952	929.1956	941.8976	959.7602	993.5259	1076.0445	1093.5101	1136.6773	1140.2805	1194.8548	1272.2711	1300.4304	1316.3025	1387.7857	1404.5624	1419.764	1425.3492	1467.8921	1496.5046	1505.6745	1820.5475	1822.105	2874.1068	2899.5394	3035.6727	3040.4666	3098.4268	3108.4041	3117.6169	3127.7621
CC(C=O)C1OC1C=O	C[C@@H](C=O)[C@H]1O[C@H]1C=O	
InChI=1S/C6H8O3/c1-4(2-7)6-5(3-8)9-6/h2-6H,1H3	InChI=1S/C6H8O3/c1-4(2-7)6-5(3-8)9-6/h2-6H,1H3/t4-,5-,6+/m0/s1
