20
gdb 6891	2.8157	1.42635	1.26396	1.3281	71.51	-0.2408	0.0718	0.3125	1081.9697	0.174357	-386.120883	-386.111039	-386.110095	-386.155042	35.941	
C	-0.2624141062	 0.8999820735	-1.9680009698	-0.408217
C	-0.0150189134	-0.2093482468	-0.9679056557	-0.0766
C	 1.3603078425	-0.486623443	-0.3690535006	-0.09086
C	 2.5813574566	 0.3291028894	-0.7256917761	-0.085606
O	 3.0566649778	 0.0620710413	-2.0412286759	-0.416593
C	 0.2406579574	 0.0107036063	 0.508967183	 0.359399
C	 0.2368510591	 1.3836903319	 1.1443288128	-0.451473
O	-0.2389276863	-0.9919856375	 1.3780605276	-0.463675
H	 0.2924040347	 1.8113866735	-1.7331035063	 0.116033
H	 0.0442467751	 0.5891567359	-2.9717154391	 0.129427
H	-1.3252284454	 1.1641064158	-2.0057530895	 0.109781
H	-0.5867983474	-1.1134267019	-1.1633681887	 0.083388
H	 1.5744401677	-1.5421130285	-0.2122124064	 0.087399
H	 2.3690199843	 1.4010401173	-0.712006223	 0.103668
H	 3.372084176	 0.1532916045	 0.0210333459	 0.091422
H	 3.2166664174	-0.8849565019	-2.1055433198	 0.280127
H	 0.6342390327	 2.1585714503	 0.4859586402	 0.121028
H	-0.7876240147	 1.6756504943	 1.4081002231	 0.107293
H	 0.8288177996	 1.3753760061	 2.0648793485	 0.12768
H	-1.1760090876	-0.8228693303	 1.5293326399	 0.276379
71.969	119.5511	159.2597	195.5945	211.9388	251.471	261.61	297.7589	317.1441	341.0685	419.9312	454.8153	485.5041	589.0246	700.2705	789.872	849.5245	933.7196	975.8609	1008.6771	1019.1018	1025.4462	1073.3089	1090.0482	1131.1326	1134.6805	1155.3677	1206.1862	1256.568	1290.0123	1342.3397	1350.9231	1382.9658	1410.9393	1418.9632	1430.8165	1456.6806	1485.2022	1490.3108	1496.1162	1510.0519	1518.7878	2977.3091	3026.7508	3035.5953	3088.863	3091.1676	3094.5122	3113.0722	3124.595	3131.6492	3140.4018	3785.3866	3814.1037
CC1C(CO)C1(C)O	C[C@H]1[C@@H](CO)[C@]1(C)O	
InChI=1S/C6H12O2/c1-4-5(3-7)6(4,2)8/h4-5,7-8H,3H2,1-2H3	InChI=1S/C6H12O2/c1-4-5(3-7)6(4,2)8/h4-5,7-8H,3H2,1-2H3/t4-,5+,6+/m0/s1
