19
gdb 83325	2.2054	1.72249	1.44072	2.8392	75.15	-0.2235	-0.0176	0.206	1027.3502	0.158508	-423.020945	-423.012346	-423.011402	-423.053765	32.632	
C	-0.1038142218	 1.5959954307	-0.0408056213	-0.440953
C	 0.0198146491	 0.0800442907	 0.0025889899	-0.028992
C	 1.1853389413	-0.6052188181	-0.7770146017	-0.043823
O	 2.3609294868	 0.0157381822	-0.2331463477	-0.277129
C	 2.0989618521	-0.0021640044	 1.1952807786	-0.118641
C	 0.6981795295	-0.6390404818	 1.2449503863	 0.129252
C	 0.027125594	-0.8562767734	 2.5752098748	-0.506543
C	 0.9419245228	-1.7664971888	 0.2101488614	 0.418532
O	 0.8063230865	-2.9521503498	 0.1831470275	-0.321564
H	 0.8756143049	 2.0782894842	-0.0189990425	 0.142095
H	-0.6070959518	 1.9088833659	-0.9609799691	 0.125489
H	-0.6953961023	 1.9678624145	 0.8024604231	 0.121747
H	-0.9359224589	-0.4049849172	-0.2225895563	 0.093535
H	 1.2542500341	-0.6871035359	-1.8585324287	 0.097491
H	 2.8544361439	-0.6077971711	 1.7103948859	 0.114354
H	 2.1331383376	 1.0184196218	 1.5933252752	 0.10593
H	-0.1806529669	 0.0946668054	 3.0781872761	 0.123315
H	-0.9195608461	-1.3909292088	 2.4528289761	 0.132814
H	 0.6607429152	-1.453317826	 3.2396402025	 0.133093
135.9672	154.9265	177.697	188.0025	229.9433	277.1964	300.8251	331.3484	498.8967	538.0804	607.5055	681.5156	703.1725	748.3213	770.9983	835.0386	910.1544	927.2979	985.2919	999.441	1032.9068	1054.9329	1065.1503	1106.5804	1128.7731	1171.9147	1196.5239	1213.8321	1226.2724	1261.0674	1298.9267	1371.502	1399.9937	1404.4043	1416.6454	1489.6269	1490.0196	1492.0453	1501.9416	1534.0916	1904.6995	3020.8327	3031.8067	3040.2807	3058.8829	3060.4833	3095.1247	3100.5336	3107.6241	3132.0724	3165.8986
CC1C2OCC1(C)C2=O	C[C@H]1[C@H]2OC[C@]1(C)C2=O	
InChI=1S/C7H10O2/c1-4-5-6(8)7(4,2)3-9-5/h4-5H,3H2,1-2H3	InChI=1S/C7H10O2/c1-4-5-6(8)7(4,2)3-9-5/h4-5H,3H2,1-2H3/t4-,5+,7-/m0/s1
