19
gdb 72439	2.35472	2.21786	1.54066	2.7395	72.89	-0.25	0.0861	0.3361	929.5631	0.160923	-423.020058	-423.012966	-423.012022	-423.051061	29.444	
C	-0.0161266959	 1.4803964717	 0.0848902523	-0.490754
C	-0.010942472	-0.0256538204	-0.020939793	 0.362833
C	 0.7612527899	-0.6690372185	-1.2109212094	-0.254141
C	 1.1085079079	-2.0786355016	-0.6380228372	-0.22347
C	 0.4662652247	-1.9869441142	 0.7725242462	 0.009868
O	 0.6532426729	-0.6142036654	 1.108459776	-0.270729
C	-1.0511299234	-2.0701358984	 0.550325349	 0.034974
O	-1.8043555611	-1.1260397091	 1.3129488875	-0.244814
C	-1.371832154	-0.750744411	 0.0046566123	-0.007389
H	 1.0065499618	 1.8643246962	 0.1427130908	 0.126181
H	-0.5026889631	 1.9252273381	-0.7887522046	 0.116903
H	-0.5571865841	 1.7951501955	 0.981326283	 0.140136
H	 0.1579688411	-0.7162210019	-2.1224005709	 0.098935
H	 1.661148867	-0.0902769502	-1.4328360494	 0.106683
H	 0.6969778282	-2.8972989965	-1.2356295009	 0.100103
H	 2.187381294	-2.2272896076	-0.5591799141	 0.109928
H	 0.894387229	-2.6228681491	 1.5468783161	 0.084814
H	-1.5477118342	-2.9938674269	 0.2699869752	 0.100701
H	-2.1408261586	-0.5555477307	-0.736937789	 0.099237
192.2122	214.2319	262.4373	293.8872	349.4922	403.1634	484.2134	607.667	632.0907	642.0825	782.1817	825.4563	843.115	857.	883.3997	890.7942	906.9073	919.205	943.5276	973.8036	993.3371	1024.0802	1046.2911	1083.5608	1126.4647	1149.297	1200.3025	1210.7789	1241.8411	1247.9941	1256.5999	1293.8032	1318.9448	1324.4356	1342.462	1411.6314	1422.1259	1479.7863	1484.7774	1496.8946	1503.3959	3042.4441	3055.7869	3066.1529	3098.2924	3113.3982	3117.2195	3122.9414	3127.2046	3156.7813	3170.9897
CC12CCC(O1)C1OC21	C[C@@]12CC[C@@H](O1)[C@H]1O[C@@H]21	
InChI=1S/C7H10O2/c1-7-3-2-4(9-7)5-6(7)8-5/h4-6H,2-3H2,1H3	InChI=1S/C7H10O2/c1-7-3-2-4(9-7)5-6(7)8-5/h4-6H,2-3H2,1H3/t4-,5-,6-,7+/m1/s1
