17
gdb 133716	3.02987	1.03097	0.93414	2.2908	61.86	-0.2344	0.083	0.3174	1263.3613	0.13153	-549.488072	-549.479167	-549.478223	-549.52258	32.323	
C	-0.3376759978	 1.3527238217	 0.070197549	-0.321884
N	 0.0495301866	-0.0500554881	 0.0829787254	-0.069261
C	 1.4281786609	-0.3786599621	-0.2478668816	-0.267494
C	 0.9141954293	-0.5765074923	 1.1382623943	 0.01912
C	 1.4600521865	 0.2552839486	 2.2827345173	-0.367801
C	 0.5341686436	 0.2805419915	 3.484622222	 0.284834
F	 0.3015843831	-0.9567264046	 3.9530522496	-0.08221
F	 1.0670035143	 0.9961561788	 4.4874701532	-0.078795
F	-0.6592036357	 0.8255708736	 3.1947217615	-0.077953
H	 0.4736498822	 2.0552951924	 0.3205452714	 0.095988
H	-0.6900810718	 1.6023657819	-0.9353051576	 0.126865
H	-1.1580001505	 1.5087904679	 0.7746616945	 0.137677
H	 1.5816857682	-1.2258288462	-0.9113876092	 0.119482
H	 2.1244141155	 0.4472372606	-0.3994714682	 0.105034
H	 0.6404430134	-1.5850364533	 1.4421764979	 0.107031
H	 2.409545811	-0.1680025602	 2.627168122	 0.137846
H	 1.6533223311	 1.2898465098	 1.9912311686	 0.131521
45.4861	92.2971	143.0634	189.5002	248.3566	305.5805	355.9763	373.6486	404.7451	500.7556	536.7857	555.6724	659.8385	747.6502	800.3497	844.6095	917.8674	954.2815	1034.7117	1069.9046	1097.5287	1120.0203	1133.6295	1165.1144	1182.5833	1192.8711	1206.7999	1271.5918	1299.8404	1342.8321	1356.7472	1429.1745	1446.82	1464.4404	1490.3185	1505.8763	1517.2719	2972.1967	3063.3126	3075.1994	3080.2151	3114.0141	3125.1391	3129.9348	3170.4305
CN1CC1CC(F)(F)F	CN1C[C@H]1CC(F)(F)F	
InChI=1S/C5H8F3N/c1-9-3-4(9)2-5(6,7)8/h4H,2-3H2,1H3	InChI=1S/C5H8F3N/c1-9-3-4(9)2-5(6,7)8/h4H,2-3H2,1H3/t4-,9?/m1/s1
