14
gdb 20960	7.80965	1.19947	1.05347	0.5683	59.72	-0.2551	-0.0253	0.2299	1073.9789	0.108519	-412.021118	-412.013871	-412.012926	-412.053438	25.172	
C	 0.0171054571	 1.4754535744	-0.0537251093	-0.39248
C	 0.0054588043	-0.0390439257	-0.0021682372	-0.043524
O	 0.6785324731	-0.5128811645	-1.1860221425	-0.253685
C	 0.7684434812	-1.8275259647	-1.3190047618	 0.506659
N	 1.3677476944	-2.3807582279	-2.3703515226	-0.312597
N	 1.2132746023	-3.6688030206	-2.0704216192	-0.055402
N	 0.5797149185	-3.9162384802	-0.9425927069	-0.113647
N	 0.2822520797	-2.7402339029	-0.4386432052	-0.286813
H	 1.0419775049	 1.8558570667	-0.0732627033	 0.13446
H	-0.503188225	 1.8381114862	-0.9443557973	 0.134457
H	-0.4858588124	 1.8780180546	 0.8302485552	 0.12537
H	 0.5259473473	-0.4223025671	 0.8821117685	 0.126737
H	-1.013701117	-0.4400370354	 0.013852871	 0.126749
H	 1.5575030314	-4.406886043	-2.6657379995	 0.303715
63.0393	93.7503	166.5244	251.4541	352.5427	353.9769	494.3071	563.5866	728.171	754.2209	781.2612	812.8412	931.8609	1027.9109	1047.3537	1097.0592	1131.2391	1159.7786	1182.4431	1195.0361	1278.9011	1295.7823	1364.338	1393.6437	1420.6241	1484.4924	1497.4763	1505.2647	1518.7158	1605.7267	3041.9125	3049.2768	3082.2604	3125.1283	3129.556	3652.9927
CCOC1=NNN=N1	CCOc1n[nH]nn1	
InChI=1S/C3H6N4O/c1-2-8-3-4-6-7-5-3/h2H2,1H3,(H,4,5,6,7)	InChI=1S/C3H6N4O/c1-2-8-3-4-6-7-5-3/h2H2,1H3,(H,4,5,6,7)
