15
gdb 74353	3.115	1.22054	0.97479	2.8658	69.09	-0.2409	-0.0639	0.177	1169.3575	0.111998	-453.993893	-453.985489	-453.984545	-454.0275	30.451	
N	-0.0106189549	 1.3989904434	-0.2196387547	-0.566422
C	-0.0831362665	 0.0551053093	-0.1138576798	 0.294866
N	-1.1409157556	-0.6738314098	-0.1522055009	-0.301612
C	-0.7526989284	-2.0831355819	 0.0597871678	-0.075687
C	 0.7691789025	-2.1583044057	 0.2570889281	-0.371649
C	 1.2025989753	-0.7140004478	 0.0857506688	 0.353875
O	 2.3058462505	-0.2287435979	 0.0764224244	-0.317732
C	-1.5608453163	-2.6068167246	 1.2438192444	 0.158007
O	-1.0996443425	-3.2249755847	 2.1675917271	-0.238392
H	 0.9069961403	 1.7972110027	-0.3387505804	 0.274923
H	-0.8136888832	 1.9259722201	-0.5170182378	 0.269345
H	-1.0838644236	-2.6657464596	-0.8137012395	 0.108501
H	 1.0192775562	-2.521206838	 1.2593973059	 0.169175
H	 1.2826564898	-2.800962112	-0.4622030932	 0.1428
H	-2.6396759637	-2.3510412235	 1.1868527096	 0.100002
59.9291	86.5086	180.2717	241.261	270.1519	292.5228	380.3199	403.185	507.7527	540.9097	607.0541	623.0201	692.4028	706.8544	752.237	841.1364	914.1818	981.4031	1035.3186	1089.3107	1105.2635	1148.3114	1160.0501	1250.1165	1273.2592	1327.1214	1406.2614	1421.5892	1446.5634	1605.3293	1723.6256	1831.283	1837.8438	2920.5002	2989.2972	3066.622	3113.0027	3600.3453	3729.2316
NC1=NC(CC1=O)C=O	NC1=N[C@@H](CC1=O)C=O	
InChI=1S/C5H6N2O2/c6-5-4(9)1-3(2-8)7-5/h2-3H,1H2,(H2,6,7)	InChI=1S/C5H6N2O2/c6-5-4(9)1-3(2-8)7-5/h2-3H,1H2,(H2,6,7)/t3-/m0/s1
