17
gdb 69426	4.70645	0.92808	0.84214	3.516	73.33	-0.231	0.0219	0.2529	1329.0524	0.1352	-417.958636	-417.950238	-417.949294	-417.991997	31.543	
O	 0.0522823256	 1.4175401954	-0.2190771769	-0.453772
C	 0.0304934735	 0.0466390937	-0.116731341	 0.395182
C	-0.2205042189	-0.8010209893	-1.3212756588	-0.327868
C	-1.1165405656	-0.9601723289	-0.1014204513	-0.109394
N	-0.4786596891	-1.6976151854	 0.99056376	-0.080356
C	-0.2505732583	-3.1213708077	 0.7913983549	-0.293595
C	 0.4164354233	-3.7156045886	 1.9549101651	 0.27794
N	 0.9601137377	-4.1796479035	 2.86220636	-0.304398
C	 0.7046755078	-0.7807086126	 0.9822883668	-0.26072
H	-0.2539137586	 1.7931898236	 0.614634749	 0.291021
H	-0.6914529583	-0.2633914728	-2.1382087134	 0.129814
H	 0.4804023578	-1.5727662156	-1.6307867269	 0.110326
H	-2.193280245	-0.8384136371	-0.1370757131	 0.10652
H	-1.2223405243	-3.6117448196	 0.6613770433	 0.156974
H	 0.351183248	-3.3645213671	-0.1029114894	 0.130544
H	 1.662540034	-1.244995457	 0.7156304146	 0.114619
H	 0.8140984004	-0.2649524276	 1.9421578573	 0.117164
61.2163	103.2929	170.5267	253.4568	338.7943	352.8649	388.9427	403.845	421.7369	483.097	516.6648	636.1355	720.7271	845.2488	856.2424	907.9053	945.9991	958.253	972.3453	996.4348	1034.7917	1055.702	1081.9605	1109.8004	1133.5903	1191.8045	1205.4922	1254.3128	1275.7445	1299.6687	1341.7478	1378.4613	1427.3021	1473.13	1488.0021	1513.0469	2366.5056	2944.7651	3020.7955	3060.7181	3074.52	3108.6699	3175.8915	3206.933	3788.915
OC12CC1N(CC#N)C2	O[C@]12C[C@H]1N(CC#N)C2	
InChI=1S/C6H8N2O/c7-1-2-8-4-6(9)3-5(6)8/h5,9H,2-4H2	InChI=1S/C6H8N2O/c7-1-2-8-4-6(9)3-5(6)8/h5,9H,2-4H2/t5-,6+/m1/s1
