17
gdb 45526	3.01713	1.54629	1.18688	2.918	74.65	-0.2311	-0.0196	0.2115	1040.9851	0.13663	-421.834802	-421.827464	-421.82652	-421.866845	28.592	
O	-0.1199688285	-0.0735320679	-0.1229975508	-0.287243
C	-0.0907468886	 1.1115331647	 0.0128532668	 0.384228
C	-1.1554835205	 2.2030599933	 0.2312335573	-0.357388
C	-0.0131279384	 3.1511149216	 0.6715998142	 0.091635
O	 0.010386992	 3.1886899085	 2.0830459769	-0.262961
C	 1.2813727398	 3.490819507	 2.6367415013	-0.124622
C	 2.3739861153	 2.5915749875	 2.1208957653	-0.073089
C	 2.2528505821	 1.9435739299	 0.9647236425	-0.077214
C	 1.0520765735	 2.1639607431	 0.1058194903	-0.175825
H	-1.6260998487	 2.4943924988	-0.7132146553	 0.130626
H	-1.9252544078	 2.0042909328	 0.979105788	 0.142912
H	-0.0091110014	 4.1628166181	 0.2467340986	 0.06896
H	 1.5393698597	 4.5513096481	 2.463566909	 0.101548
H	 1.165263989	 3.3667668374	 3.7185878435	 0.122686
H	 3.2608732832	 2.4863402884	 2.7387284011	 0.100347
H	 3.0194119087	 1.260514673	 0.6123221519	 0.106171
H	 1.3393422105	 2.4348268953	-0.9194549307	 0.109231
72.171	157.4966	208.7885	352.4606	391.3238	420.074	478.8607	517.8249	549.4602	691.6729	724.9002	728.5209	814.2914	863.1159	913.9289	931.5319	965.4334	987.2856	1028.4093	1041.9544	1050.6495	1055.0259	1108.8714	1129.7501	1191.0914	1209.7793	1226.3207	1265.4295	1277.8584	1314.8859	1356.8216	1402.4836	1407.1514	1425.1543	1488.7293	1715.2526	1900.2029	2944.0168	3016.4686	3027.5764	3065.2333	3068.0574	3133.9892	3165.9439	3187.4718
O=C1CC2OCC=CC12	O=C1C[C@H]2OCC=C[C@@H]12	
InChI=1S/C7H8O2/c8-6-4-7-5(6)2-1-3-9-7/h1-2,5,7H,3-4H2	InChI=1S/C7H8O2/c8-6-4-7-5(6)2-1-3-9-7/h1-2,5,7H,3-4H2/t5-,7+/m0/s1
