15
gdb 79177	2.73012	1.93836	1.47809	3.3269	63.75	-0.2381	-0.0352	0.2029	885.0147	0.113007	-457.724701	-457.717784	-457.71684	-457.75615	27.029	
O	 0.1623809599	 1.3768572711	 0.3035381914	-0.436208
C	-0.0170832422	 0.0083277151	 0.0319477185	 0.052071
C	-1.458136722	-0.4322931274	-0.1000568582	-0.127166
C	-2.1825713414	-0.1959561477	-1.402763904	 0.11597
O	-1.2750540656	 0.1513645564	-2.4520809941	-0.298179
C	-0.4794527473	-1.0457212614	-2.1393794798	-0.029413
C	-1.5520673717	-1.5365088166	-1.1499655197	-0.171621
C	 0.6294606846	-0.4081082906	-1.3079981002	 0.391932
O	 1.7577860227	-0.1422090104	-1.6300899037	-0.33187
H	 1.0430536047	 1.6089304207	-0.0194657358	 0.294908
H	 0.4519470874	-0.6146360621	 0.816122189	 0.092992
H	-2.0735459144	-0.526901919	 0.787022615	 0.107819
H	-3.2081228686	 0.1410948504	-1.489480051	 0.12043
H	-0.2026121346	-1.6139231326	-3.0255096519	 0.105257
H	-1.9495598114	-2.5322708759	-1.0191362655	 0.113078
82.9138	197.8582	249.9536	328.4345	399.4607	467.1062	526.3534	583.0729	688.9828	741.086	752.8306	806.5724	811.7502	864.3022	912.0543	939.1347	967.5889	1004.4883	1036.5242	1061.1835	1064.3278	1103.9375	1122.1678	1171.7267	1211.9958	1229.7271	1245.8992	1265.6318	1311.9064	1340.7305	1403.4954	1415.5674	1850.0975	2932.5689	3140.5671	3186.4758	3196.1245	3223.4032	3766.1826
OC1C2C3OC(C23)C1=O	O[C@H]1[C@H]2[C@H]3O[C@H]([C@@H]23)C1=O	
InChI=1S/C6H6O3/c7-3-1-2-5(1)9-6(2)4(3)8/h1-3,5-7H	InChI=1S/C6H6O3/c7-3-1-2-5(1)9-6(2)4(3)8/h1-3,5-7H/t1-,2-,3-,5+,6+/m0/s1
