17
gdb 37149	3.99667	1.90355	1.65456	1.5338	74.35	-0.2175	0.0546	0.272	836.1137	0.138729	-380.697245	-380.691571	-380.690626	-380.726804	25.39	
C	-0.0277713965	 1.5134250111	-0.1281471269	-0.295997
C	 1.2996775435	 0.811834186	 0.0184168702	 0.011198
C	-0.0127952136	 0.0025437898	-0.0453906255	-0.210613
C	 0.3540477626	-0.7068634695	-1.3294533437	 0.336539
N	 0.0248851882	-1.6292705289	-2.4801316544	-0.430797
C	 1.4506121962	-1.1285757551	-2.7538325817	-0.096331
C	 1.8727599542	-1.0578878294	-1.2696746941	-0.027852
N	 2.1328516739	 0.4453265241	-1.182471235	-0.186686
C	 1.0841158089	 0.2813306248	-2.2602290794	-0.006882
H	-0.3778994614	 2.0487915527	 0.7495443973	 0.11506
H	-0.3005425036	 1.9923743657	-1.0612157601	 0.122545
H	 1.8598053269	 0.9175462455	 0.9392685189	 0.098442
H	-0.3991493874	-0.5283711454	 0.815047906	 0.097794
H	 0.0555388298	-2.605084492	-2.1694755387	 0.209764
H	 1.9996138831	-1.437806761	-3.6416125195	 0.091449
H	 2.3795310723	-1.7912318985	-0.6400260329	 0.080015
H	 0.667074393	 1.1023759901	-2.8392100604	 0.092352
290.3798	349.0489	429.3633	494.1362	525.4754	641.7308	709.1873	778.0761	793.1957	804.3165	805.5819	839.2029	842.8606	880.3045	893.5929	908.5891	940.8116	957.0165	1007.6979	1038.3085	1054.878	1081.4194	1087.7008	1092.2017	1105.3838	1118.3663	1148.2826	1163.326	1179.4849	1192.4864	1226.5908	1250.0643	1288.215	1319.1641	1336.3979	1342.5722	1479.1203	3103.1335	3127.5549	3132.6832	3143.5783	3188.629	3196.1054	3215.7885	3393.1763
C1C2C1C13NC4C1N2C34	C1[C@H]2[C@@H]1[C@]13N[C@@H]4[C@H]1N2[C@H]34	
InChI=1S/C7H8N2/c1-2-3(1)9-5-4-6(9)7(2,5)8-4/h2-6,8H,1H2	InChI=1S/C7H8N2/c1-2-3(1)9-5-4-6(9)7(2,5)8-4/h2-6,8H,1H2/t2-,3+,4-,5-,6+,7+/m1/s1
