19
gdb 93733	3.31522	1.15733	1.07343	1.4255	72.51	-0.2583	-0.041	0.2173	1186.7572	0.157921	-460.18158	-460.172626	-460.171682	-460.215464	33.531	
C	 0.6710690911	 1.3387852158	 0.2046543745	-0.405768
C	-0.1623177032	 0.1095591744	-0.1598437255	 0.114196
C	 0.4053811558	-0.6993495405	-1.3393772506	-0.27194
C	 1.4572333804	-1.6171352325	-0.6633702897	 0.279242
O	 2.7511725223	-1.0685742126	-0.7039985416	-0.477077
C	 0.9225494987	-1.6930353918	 0.8073659377	-0.132126
O	-0.2085567516	-0.8487355703	 0.9010390622	-0.257521
C	 1.4775818726	-2.9889256844	-1.3021904076	 0.105604
O	 2.4868276197	-3.4741416587	-1.753043635	-0.274084
H	 1.726936321	 1.0816871561	 0.3248327776	 0.146042
H	 0.5952504183	 2.095410419	-0.5833340174	 0.114284
H	 0.3032777931	 1.7749411464	 1.1375282513	 0.122998
H	-1.2003891143	 0.4084007043	-0.3374941448	 0.083263
H	-0.3958381579	-1.2968201569	-1.7874700824	 0.10339
H	 0.8772237812	-0.0975861136	-2.1175622904	 0.124541
H	 3.3022499565	-1.7280633912	-1.1561555614	 0.292692
H	 0.6121997632	-2.7000885771	 1.1108270471	 0.106121
H	 1.7456244896	-1.3703525627	 1.4567310847	 0.122252
H	 0.5068666536	-3.5249786237	-1.3281392588	 0.10389
59.5551	96.6421	144.6909	242.7956	282.2928	304.0412	360.5791	393.1559	404.3235	424.5649	459.1398	504.682	724.1686	760.7713	817.0668	840.2309	878.2806	909.0631	913.5568	978.3116	1019.3792	1050.5508	1081.0533	1088.3095	1113.3902	1140.4046	1199.306	1229.5442	1281.4202	1301.9339	1328.6846	1372.3119	1388.2428	1392.5145	1410.6217	1434.9365	1467.0196	1493.3678	1497.9568	1511.4366	1809.4298	2930.4627	3019.2534	3041.1929	3045.5612	3061.0731	3062.642	3111.8413	3129.5442	3131.1103	3677.003
CC1CC(O)(CO1)C=O	C[C@H]1C[C@@](O)(CO1)C=O	
InChI=1S/C6H10O3/c1-5-2-6(8,3-7)4-9-5/h3,5,8H,2,4H2,1H3	InChI=1S/C6H10O3/c1-5-2-6(8,3-7)4-9-5/h3,5,8H,2,4H2,1H3/t5-,6-/m0/s1
