23
gdb 70606	2.01573	1.82587	1.39617	1.739	83.96	-0.2496	0.0783	0.3279	1098.1036	0.204957	-388.307175	-388.297848	-388.296904	-388.340211	37.054	
C	-0.574143245	 1.2910476028	 0.2515754172	-0.500721
C	 0.0187451294	-0.0736764072	 0.0169785116	 0.421968
O	-0.193824609	-1.0248697647	 1.0809468661	-0.319306
C	 1.151829311	-0.6165239272	 0.7797916259	-0.014663
C	 1.9062273287	-1.6271130448	-0.0557736291	-0.252805
C	 0.8926190205	-1.9963396448	-1.1625259446	-0.248549
C	-0.0208705587	-0.7480969512	-1.3667603029	 0.234357
C	-1.4461045882	-1.1578501112	-1.7605655402	-0.440304
C	 0.5802589097	 0.1910118816	-2.4280595443	-0.434079
H	-0.072395066	 2.056232146	-0.3482131008	 0.123121
H	-1.6389457455	 1.3073398295	-0.0050690179	 0.126086
H	-0.4795402716	 1.5604666816	 1.3062939038	 0.129146
H	 1.6504570573	-0.0524507856	 1.5656606063	 0.083174
H	 2.8084745082	-1.1552901233	-0.4640623858	 0.100526
H	 2.2295407873	-2.4983697008	 0.522780819	 0.106183
H	 1.3798233846	-2.2957629582	-2.094733142	 0.090287
H	 0.2834321394	-2.8383723756	-0.8269394917	 0.110669
H	-1.903622483	-1.7598746855	-0.9699166969	 0.129246
H	-2.0837320297	-0.2847279709	-1.9385526171	 0.107244
H	-1.4393870846	-1.7516102573	-2.6811968418	 0.109279
H	 0.6276197146	-0.3154656437	-3.3978674231	 0.113881
H	-0.0233449716	 1.0947186488	-2.5588067688	 0.114069
H	 1.5969710424	 0.5029562615	-2.1646407127	 0.11119
115.2364	183.98	209.4142	236.5041	249.811	268.1639	291.9213	330.7607	359.6049	395.1234	457.3317	499.9413	570.315	629.4018	678.0868	779.1132	818.2381	854.257	912.0224	925.6499	939.6243	950.3681	990.3897	997.055	1025.7802	1041.6673	1061.8526	1113.1039	1149.7876	1175.9646	1221.6767	1235.1372	1244.3677	1291.4853	1308.4049	1330.9867	1353.8329	1396.3248	1407.4389	1419.4168	1451.2089	1479.2003	1483.4342	1487.1234	1495.3154	1495.8519	1500.5026	1508.2135	1511.6753	3025.9717	3029.8182	3034.7333	3039.1847	3063.2171	3077.8427	3088.7179	3096.1009	3098.8637	3103.3432	3108.0155	3111.8302	3123.9324	3132.2194
CC12OC1CCC2(C)C	C[C@]12O[C@H]1CCC2(C)C	
InChI=1S/C8H14O/c1-7(2)5-4-6-8(7,3)9-6/h6H,4-5H2,1-3H3	InChI=1S/C8H14O/c1-7(2)5-4-6-8(7,3)9-6/h6H,4-5H2,1-3H3/t6-,8-/m0/s1
