18
gdb 13006	2.62503	2.46288	1.6641	1.6235	72.02	-0.231	0.0084	0.2394	849.0103	0.154178	-347.800457	-347.792907	-347.791963	-347.831686	29.782	
C	-0.0757650046	 1.4819293215	 0.0041411411	-0.493311
C	 0.0633108089	-0.0206292382	-0.0009573886	 0.337012
C	-0.8070254952	-0.8537279242	 0.9143803844	-0.332357
C	 0.6981538628	-0.8088802902	 1.1247272912	-0.115197
C	 1.4343877417	-1.9330015147	 0.4696385643	-0.07442
C	 1.3004556012	-1.8983684196	-0.8572069123	-0.13441
C	 0.4995646872	-0.6915869823	-1.3161565774	 0.029151
O	-0.5618157279	-0.9927648708	-2.2140931468	-0.433254
H	 0.8676285308	 1.9685174613	-0.2695410076	 0.117448
H	-0.8356881044	 1.7997690855	-0.7190476526	 0.12847
H	-0.372106385	 1.857969677	 0.9884749905	 0.111235
H	-1.433389809	-0.3050546915	 1.6110668201	 0.110827
H	-1.234082082	-1.7920084087	 0.5715191282	 0.099394
H	 1.0933676514	-0.3301771691	 2.0140932327	 0.087541
H	 1.9649369913	-2.6930602277	 1.0331069595	 0.099052
H	 1.6799389914	-2.628780147	-1.5622784399	 0.099435
H	 1.1338406653	-0.0006712954	-1.8880530932	 0.088541
H	-1.1813214738	-1.5609934357	-1.7425617036	 0.274843
139.001	201.7725	241.0234	269.6734	292.3735	327.9836	433.5493	473.9729	572.7821	600.5895	717.5775	751.5105	799.1626	852.3551	866.9433	914.3215	962.4879	970.6236	1009.1625	1017.6372	1049.4793	1059.1217	1074.8239	1084.6498	1119.3552	1149.6647	1226.8076	1260.184	1282.9024	1310.2364	1364.4681	1396.0481	1418.9058	1429.3757	1480.9781	1490.0709	1501.8263	1669.5983	3015.5729	3023.6397	3084.2743	3098.2171	3111.8441	3167.8919	3183.6927	3200.0772	3211.5507	3796.6962
CC12CC1C=CC2O	C[C@]12C[C@H]1C=C[C@H]2O	
InChI=1S/C7H10O/c1-7-4-5(7)2-3-6(7)8/h2-3,5-6,8H,4H2,1H3	InChI=1S/C7H10O/c1-7-4-5(7)2-3-6(7)8/h2-3,5-6,8H,4H2,1H3/t5-,6-,7+/m1/s1
