22
gdb 106112	2.98909	1.32085	1.13813	0.7168	86.52	-0.2025	0.0945	0.297	1209.8647	0.194352	-367.148388	-367.139624	-367.13868	-367.181723	34.023	
C	 0.1051089154	 1.5306945848	 0.2141106493	-0.36886
C	-0.0862957499	 0.0288028854	-0.0369401382	-0.338304
C	 0.6198948412	-0.460935283	-1.2598047428	 0.362767
C	 1.0287865769	-1.8360130024	-1.767042244	-0.159835
C	 0.3359503613	-1.5947629005	-3.1045344819	-0.250673
C	 0.535031159	-0.077753768	-2.8001237088	-0.077156
N	 2.0007005034	 0.1896562738	-2.7685201016	-0.074664
C	 2.8152938144	-0.1275259153	-3.9332299496	-0.327127
C	 2.0578674425	-0.6788822498	-1.5999511402	-0.075717
H	 1.1647984467	 1.7757580105	 0.3330751357	 0.124395
H	-0.2777359238	 2.121688379	-0.62407588	 0.120168
H	-0.4238274009	 1.8479741574	 1.118191248	 0.107577
H	 0.2805341834	-0.5410362388	 0.8270338515	 0.101121
H	-1.1585629004	-0.198308194	-0.1121641626	 0.099149
H	 1.1007601925	-2.754803977	-1.1973992929	 0.079094
H	 0.7600041821	-2.0051466049	-4.0271825591	 0.087888
H	-0.7248891993	-1.8536685848	-3.047250538	 0.099218
H	-0.089221959	 0.6826258071	-3.2694365641	 0.070294
H	 2.5092270062	 0.5101956428	-4.7696646854	 0.115726
H	 3.8614749061	 0.1031007501	-3.7043380728	 0.117221
H	 2.7679781712	-1.1776391524	-4.2616991391	 0.100598
H	 2.9249029108	-0.75194711	-0.9531061733	 0.087121
83.5664	110.8563	182.2838	185.5608	246.2786	272.9135	333.4263	384.987	497.3185	563.7524	620.8243	678.712	737.5605	787.1344	799.5618	869.029	893.4589	923.439	936.8493	962.0839	975.5376	1001.9577	1015.6876	1035.833	1070.9954	1106.7419	1120.7457	1123.8303	1156.1289	1169.453	1171.5794	1211.81	1236.1165	1244.1962	1265.2392	1304.3744	1326.0177	1355.975	1410.6235	1442.0876	1463.1164	1479.0662	1481.066	1495.96	1497.1524	1506.5927	1517.009	2979.4768	3009.061	3037.5249	3040.0499	3041.8535	3059.6363	3094.6816	3096.8696	3105.9344	3111.792	3114.0109	3176.0387	3189.3863
CCC12C3CC1N(C)C23	CC[C@@]12[C@H]3C[C@@H]1N(C)[C@@H]23	
InChI=1S/C8H13N/c1-3-8-5-4-6(8)9(2)7(5)8/h5-7H,3-4H2,1-2H3	InChI=1S/C8H13N/c1-3-8-5-4-6(8)9(2)7(5)8/h5-7H,3-4H2,1-2H3/t5-,6-,7+,8+/m0/s1
