19
gdb 102215	3.11722	0.7761	0.645	0.929	87.61	-0.243	0.0326	0.2756	1753.2569	0.154681	-385.819472	-385.80827	-385.807326	-385.858388	37.96	
C	-0.3412024176	 1.3735412635	-0.0789727164	-0.237652
O	 0.0718750475	 0.030454647	 0.0639077537	-0.221718
C	 0.6752047861	-0.5113560695	-1.0943762882	-0.065274
C	 1.3082904547	-1.8608123507	-0.6869003129	-0.367696
C	 2.4069416011	-1.7081001378	 0.257764858	 0.050858
C	 3.324706432	-1.5751560524	 1.0250190537	 0.08832
C	 4.428298833	-1.4204103502	 1.96180287	-0.497338
C	-0.2896077681	-0.69468025	-2.1886600677	 0.341361
C	-1.0824012923	-0.8558931489	-3.0778511981	-0.464963
H	 0.5069956784	 2.0316228504	-0.3230300161	 0.105876
H	-1.1065383338	 1.4845743016	-0.859253422	 0.118546
H	-0.761950234	 1.6787261947	 0.8815607501	 0.129808
H	 1.4786218461	 0.1585473326	-1.4431619751	 0.100213
H	 0.5119700012	-2.4818284947	-0.2608116396	 0.144191
H	 1.6517926278	-2.3649277038	-1.597327902	 0.135545
H	 4.4353932073	-2.2267917131	 2.7036160748	 0.147662
H	 5.3962554786	-1.434809893	 1.4485041488	 0.144717
H	 4.3563054932	-0.4725184216	 2.5066641048	 0.147815
H	-1.7809408414	-0.9927347642	-3.8662867958	 0.199726
10.6841	52.0653	67.3938	110.0634	155.3526	188.6876	206.3493	249.7537	267.0195	301.0407	385.1211	408.4884	466.2419	556.1748	581.5201	635.9484	675.3	776.3951	829.9634	962.9023	1028.2029	1047.7426	1053.9008	1059.9139	1145.8408	1171.2176	1183.6747	1199.89	1257.9138	1294.5894	1360.7617	1369.0225	1415.0326	1459.6226	1478.5708	1478.8147	1479.3659	1485.0728	1509.7793	2229.4047	2377.3475	2965.6762	2983.5587	3025.3201	3037.6432	3041.9227	3076.0069	3084.9896	3086.056	3121.9887	3502.015
COC(CC#CC)C#C	CO[C@@H](CC#CC)C#C	
InChI=1S/C8H10O/c1-4-6-7-8(5-2)9-3/h2,8H,7H2,1,3H3	InChI=1S/C8H10O/c1-4-6-7-8(5-2)9-3/h2,8H,7H2,1,3H3/t8-/m1/s1
