21
gdb 74016	2.32002	1.89691	1.2266	0.2438	89.79	-0.2087	0.0254	0.2341	1089.7154	0.184112	-349.93241	-349.924538	-349.923593	-349.96438	31.913	
C	 0.0426651213	 1.4417985341	-0.023824241	-0.493491
C	-0.1308921146	-0.0443438987	 0.003342653	 0.161923
C	-0.2489880372	-0.8908708097	-1.0256815978	 0.170401
C	 0.2651757074	-1.1123084907	-2.4340709173	-0.309639
C	 0.8641019043	-2.451437589	-1.8631336028	-0.24376
C	-0.1322288488	-2.3438244241	-0.6447292346	-0.036154
C	 0.1792528046	-2.3151630662	 0.84123356	-0.068114
C	 1.3682957418	-1.5477342406	 1.3563816256	-0.288201
C	 0.0252439848	-0.846360011	 1.2687281719	-0.115244
H	 0.9852783951	 1.7432882059	 0.450996739	 0.12249
H	 0.0317591195	 1.8281284222	-1.0469026851	 0.120399
H	-0.7597739377	 1.9462051544	 0.5301107436	 0.124424
H	-0.5241691141	-1.3113629512	-3.1672021147	 0.106266
H	 0.9565634084	-0.3757172997	-2.8510751093	 0.103198
H	 0.7728752287	-3.3392253587	-2.493601248	 0.097626
H	 1.9044413939	-2.3259654027	-1.5550570496	 0.107723
H	-1.0312425603	-2.9374801349	-0.8518255674	 0.069406
H	-0.2117728295	-3.100907679	 1.476987346	 0.079706
H	 1.7269868189	-1.825778978	 2.3423493102	 0.106453
H	 2.1486982815	-1.2390922844	 0.6676172574	 0.106693
H	-0.4740005978	-0.5591514179	 2.1894116709	 0.077896
147.9263	177.0095	202.2288	205.1061	242.1215	395.0046	469.9008	518.8533	587.3421	665.2407	672.6018	711.0224	781.1241	788.8266	829.0224	880.8897	892.9673	915.6673	940.6199	980.7007	1020.6647	1043.8769	1056.5709	1065.7397	1078.6035	1091.998	1095.4243	1123.4751	1142.0951	1187.6987	1193.7757	1215.2295	1220.9974	1245.7686	1256.0955	1336.9489	1345.0295	1371.2302	1410.7241	1469.6091	1477.0175	1478.4011	1485.0302	1490.674	1739.1266	3013.2217	3020.3976	3041.3591	3057.635	3061.6441	3095.8583	3106.1056	3119.4106	3125.7765	3148.3084	3174.4011	3205.5124
CC1=C2CCC2C2CC12	C[C]1[C]2CC[C@H]2[C@H]2C[C@@H]12	
InChI=1S/C9H12/c1-5-6-2-3-7(6)9-4-8(5)9/h7-9H,2-4H2,1H3	InChI=1S/C9H12/c1-5-6-2-3-7(6)9-4-8(5)9/h7-9H,2-4H2,1H3/t7-,8+,9-/m1/s1
