18
gdb 41304	3.7116	1.74312	1.66091	2.9392	74.94	-0.2294	0.0623	0.2917	877.1915	0.150766	-401.834973	-401.829022	-401.828078	-401.864867	25.986	
C	-0.013620089	 1.5194620906	 0.1198091744	-0.158291
C	 1.5021666297	 1.3801081089	-0.0824576982	-0.06716
C	 1.8714574908	 0.7786556742	 1.3222222794	-0.335772
C	 1.0725571015	-0.4783238344	 1.0326926166	 0.289151
C	 0.7416937132	-1.9046067578	 1.4494670171	-0.175932
O	 1.0426994389	-2.3451302592	 0.0874969222	-0.301419
C	 1.7482265676	-1.1039482064	-0.188094066	 0.116905
C	 1.0800699235	 0.0492370165	-0.901784393	-0.059849
N	-0.0836513747	 0.0244378821	 0.0829792727	-0.175538
H	-0.3822369589	 2.0059198396	 1.0292349599	 0.097548
H	-0.5525589582	 1.9059950374	-0.7502102942	 0.110123
H	 2.1424129096	 2.1664485649	-0.4862744781	 0.069474
H	 2.9331809021	 0.5677483041	 1.4696197432	 0.106884
H	 1.5213308865	 1.4255198999	 2.1310421888	 0.105246
H	 1.4319473417	-2.3565689464	 2.1740146403	 0.101149
H	-0.2972116887	-2.1027284511	 1.7236076269	 0.121723
H	 2.8276152483	-1.255147732	-0.2803646236	 0.075964
H	 0.8696660661	 0.1599573192	-1.9682167385	 0.079793
266.1092	299.5594	363.8644	435.5652	496.8302	547.5391	679.1268	706.552	729.3606	778.08	831.1218	855.8258	886.3049	922.0832	941.9899	951.2926	961.6907	993.2492	1006.2704	1020.6776	1032.0955	1055.6592	1096.0696	1141.2372	1150.9523	1157.597	1179.4526	1205.5521	1229.8523	1236.4189	1249.4629	1286.523	1286.6552	1293.0694	1335.1034	1368.2517	1496.8367	1501.1589	1524.5073	3015.1913	3039.9001	3058.8524	3063.8026	3085.7	3097.3679	3100.5197	3105.5849	3112.3098
C1C2CC34COC3C2N14	C1[C@H]2C[C@]34CO[C@H]3[C@H]2N14	
InChI=1S/C7H9NO/c1-4-2-8-5(4)6-7(1,8)3-9-6/h4-6H,1-3H2	InChI=1S/C7H9NO/c1-4-2-8-5(4)6-7(1,8)3-9-6/h4-6H,1-3H2/t4-,5+,6+,7+/m1/s1
