21
gdb 86895	2.90843	1.15401	0.9504	2.1586	78.48	-0.2413	-0.0282	0.2131	1306.001	0.181174	-424.251062	-424.241544	-424.2406	-424.286115	34.902	
C	-0.0886215914	 1.5190304842	-0.0951498647	-0.400638
C	 0.0996970324	 0.0109175198	 0.1030145869	 0.010307
C	 0.7333034592	-0.6626936085	-1.139011381	-0.273495
C	 2.235567493	-0.7548699422	-0.7810542782	 0.026633
O	 2.3976530865	-0.2174543576	 0.5269008517	-0.275054
C	 1.1342456869	-0.3472067563	 1.1933090698	 0.129941
C	 1.1650324275	 0.4887537815	 2.4595603882	-0.41404
C	 2.788860357	-2.1794794101	-0.8110519781	 0.130878
O	 2.361371977	-3.0713503985	-1.4964463685	-0.235355
H	 0.8699077337	 2.013808763	-0.2839729658	 0.126597
H	-0.7398956068	 1.7117528144	-0.9534275293	 0.114373
H	-0.5458476116	 1.991487482	 0.779278264	 0.115981
H	-0.8666129321	-0.4460711792	 0.3398189111	 0.075036
H	 0.3404738517	-1.6671481233	-1.3144997477	 0.126178
H	 0.5657268527	-0.0826901209	-2.0489078529	 0.107433
H	 2.8701814331	-0.1645199094	-1.4572161423	 0.104823
H	 0.9820977282	-1.4054582556	 1.4702751423	 0.066574
H	 1.3693414384	 1.5386828704	 2.2365478648	 0.128711
H	 0.2068972617	 0.421129851	 2.9841583516	 0.118091
H	 1.9479521938	 0.1255735548	 3.1308519472	 0.126816
H	 3.6529403693	-2.3230268695	-0.1240282491	 0.090209
41.8197	74.6996	125.0144	206.1937	223.8854	246.0565	286.9486	301.4684	385.1978	409.3081	522.7314	590.4562	675.1767	703.6683	770.301	829.8629	869.1966	882.1134	921.1891	993.6425	1009.1929	1031.5952	1055.5898	1077.0136	1110.7033	1122.0459	1147.341	1176.0741	1222.0704	1256.9331	1300.5382	1316.5208	1341.5629	1352.1305	1380.2212	1390.7081	1398.3482	1411.6997	1417.1736	1481.6815	1494.7026	1498.1927	1509.0446	1512.266	1832.3181	2888.2272	2939.7758	3009.2276	3035.3704	3046.6132	3052.4912	3074.6994	3103.8405	3108.2443	3117.0607	3117.4882	3128.5442
CC1CC(OC1C)C=O	C[C@H]1C[C@@H](O[C@H]1C)C=O	
InChI=1S/C7H12O2/c1-5-3-7(4-8)9-6(5)2/h4-7H,3H2,1-2H3	InChI=1S/C7H12O2/c1-5-3-7(4-8)9-6(5)2/h4-7H,3H2,1-2H3/t5-,6-,7+/m0/s1
