21
gdb 13728	4.86687	0.89057	0.81475	0.6292	76.58	-0.2233	0.0851	0.3084	1464.3723	0.187117	-366.216095	-366.20653	-366.205586	-366.250992	33.777	
C	 0.0170744781	 1.3209824812	 0.1501136104	-0.22836
O	-0.0240680642	-0.0310235117	-0.2356335619	-0.230602
C	-1.2435748985	-0.6589981301	 0.0922336541	-0.045141
C	-1.1764067736	-2.1122080408	-0.367923793	-0.23685
C	-2.4788075824	-2.8535314225	-0.1445970292	 0.021404
C	-2.5101092601	-4.3376879825	-0.0032890697	-0.263484
N	-2.8615074597	-3.4837614628	 1.124520077	-0.077646
C	-1.9513861704	-3.4632800573	 2.2590162345	-0.313759
H	 0.992723069	 1.716814463	-0.142635859	 0.126136
H	-0.7694436306	 1.9127694159	-0.3452667856	 0.102835
H	-0.1022897124	 1.4406261432	 1.2390356446	 0.10256
H	-1.4260080641	-0.6025425651	 1.1791141035	 0.089497
H	-2.0877713787	-0.1431008199	-0.3990022248	 0.084782
H	-0.9436456658	-2.1215306199	-1.4397306651	 0.112253
H	-0.3405787573	-2.609147082	 0.1330580535	 0.108059
H	-3.3308781538	-2.3840333719	-0.6377285045	 0.086784
H	-3.3165674313	-4.9271696724	-0.4325842381	 0.111863
H	-1.5452239423	-4.8450020237	 0.0251038344	 0.103003
H	-0.8866338134	-3.5760804295	 2.0019230878	 0.101748
H	-2.0742591798	-2.524710829	 2.8096871914	 0.121256
H	-2.2186563886	-4.2844159422	 2.9321897696	 0.123664
62.7638	81.0329	119.4305	128.5023	202.0147	233.6498	273.1621	306.4557	347.015	388.7771	491.8826	521.8845	738.8906	782.3403	827.4994	921.0659	981.4243	1027.5836	1047.0725	1063.4232	1098.5547	1114.8891	1133.0197	1161.9293	1165.7372	1177.8673	1195.5438	1206.0336	1226.9343	1242.5082	1301.5047	1309.4452	1339.8625	1418.6179	1431.3124	1446.0486	1480.8825	1482.2387	1485.8203	1490.8297	1503.3236	1506.5963	1513.9724	1530.8576	2943.8243	2967.9217	2973.1971	2978.1351	3009.6046	3042.2064	3063.5863	3079.9718	3086.0755	3097.3094	3103.2371	3112.2914	3167.2438
COCCC1CN1C	COCC[C@H]1CN1C	
InChI=1S/C6H13NO/c1-7-5-6(7)3-4-8-2/h6H,3-5H2,1-2H3	InChI=1S/C6H13NO/c1-7-5-6(7)3-4-8-2/h6H,3-5H2,1-2H3/t6-,7?/m0/s1
