16
gdb 78414	3.25372	1.35955	1.20613	4.2412	67.93	-0.237	0.0231	0.2601	1038.2835	0.124773	-437.847827	-437.840481	-437.839537	-437.879498	29.053	
O	-0.0143713482	 1.2857569985	-0.1095845268	-0.435492
C	-0.0238901051	-0.1099570229	-0.0353653248	 0.076159
C	-0.4695659406	-0.6914929906	 1.2866239781	-0.124261
C	-1.4029468191	-0.6705267332	 0.0619723226	-0.065899
C	-1.4199188457	-2.2206858219	 0.0327874221	-0.209746
C	-0.4899224053	-2.2418764855	 1.2741217522	-0.004544
N	 0.4893410639	-2.9722158584	 0.4616206407	-0.324713
C	-0.2554491271	-2.9373699687	-0.7108530898	 0.403779
O	-0.0205943336	-3.3153253499	-1.8250920276	-0.354789
H	 0.7897217598	 1.6006974238	 0.3164389999	 0.289142
H	 0.7380313822	-0.6062110929	-0.6366078627	 0.101669
H	-0.5045429834	-0.0722348653	 2.1746124228	 0.093324
H	-2.2612820028	-0.0402561542	-0.1284261312	 0.109696
H	-2.3969355166	-2.698284621	 0.033618554	 0.103878
H	-0.7757843832	-2.7273807545	 2.2072024328	 0.09501
H	 1.481768265	-3.1216658032	 0.5808341577	 0.246787
112.3773	201.7451	259.7796	283.9715	329.0057	405.7433	447.4477	485.3727	561.1803	689.3412	749.8224	769.2485	814.7784	822.6673	863.2161	901.8199	935.5911	972.3094	983.6587	1016.6645	1048.2398	1091.7814	1106.1586	1137.8168	1156.0803	1165.0754	1199.5976	1233.5883	1243.7936	1292.9924	1302.5728	1339.686	1352.1495	1452.6893	1888.6117	3096.8895	3110.5094	3149.7697	3187.1921	3208.5382	3592.0771	3807.3662
OC1C2C1C1C2NC1=O	O[C@H]1[C@H]2[C@@H]1[C@@H]1[C@H]2NC1=O	
InChI=1S/C6H7NO2/c8-5-1-2(5)4-3(1)6(9)7-4/h1-5,8H,(H,7,9)	InChI=1S/C6H7NO2/c8-5-1-2(5)4-3(1)6(9)7-4/h1-5,8H,(H,7,9)/t1-,2+,3-,4+,5-/m1/s1
