19
gdb 83818	2.16419	1.73372	1.37994	1.8316	76.92	-0.2285	0.0022	0.2307	1042.9722	0.158885	-423.00734	-422.998859	-422.997915	-423.039956	32.966	
C	-0.0853383233	 1.5329165657	-0.0935345881	-0.407626
C	 0.0238147093	 0.0336846232	 0.0457318059	-0.073274
C	 1.3471663917	-0.6912787751	-0.1366892924	-0.016065
O	 2.4875011793	 0.0955821517	-0.3452507698	-0.253406
C	 3.3907488707	 0.1538294257	 0.7490453147	-0.118797
C	 2.7135761292	 0.4272306136	 2.0704880153	-0.076057
C	 1.4405826186	 0.0897585887	 2.2699981067	-0.159264
C	 0.6896274756	-0.646033883	 1.2210222301	 0.32175
O	 0.0021588871	-1.7861817791	 1.6743533716	-0.462323
H	 0.8159841049	 2.0316141374	 0.2671791102	 0.126317
H	-0.2224944038	 1.811657189	-1.1435015494	 0.119803
H	-0.9410687552	 1.9170554412	 0.4714584195	 0.11541
H	-0.8313898736	-0.5326326249	-0.3143934794	 0.097218
H	 1.3487900436	-1.6371249479	-0.6761130659	 0.090171
H	 3.9836472761	-0.7761741734	 0.8180507877	 0.100907
H	 4.0931667365	 0.95788034	 0.5059877588	 0.118943
H	 3.3056967409	 0.9080561398	 2.8440579002	 0.100015
H	 0.9294029353	 0.2862217904	 3.2085934996	 0.098728
H	 0.6523925171	-2.3841659026	 2.0616245749	 0.277551
129.3892	155.0335	168.0803	224.6327	282.7961	302.	358.455	403.5866	476.3044	512.4729	538.2801	579.8812	686.9982	735.9364	796.9172	867.4213	891.5753	916.1966	952.729	993.9174	1015.789	1028.4566	1050.1285	1077.128	1122.8911	1142.2617	1171.2065	1187.1339	1228.2553	1265.7356	1286.4845	1318.2845	1348.4354	1396.6467	1415.4657	1416.9703	1446.5494	1491.9416	1493.5069	1500.883	1708.6475	2942.1206	3039.3758	3067.7936	3096.6334	3113.9162	3130.2053	3149.4445	3156.9448	3179.5208	3781.1252
CC1C2OCC=CC12O	C[C@H]1[C@H]2OCC=C[C@@]12O	
InChI=1S/C7H10O2/c1-5-6-7(5,8)3-2-4-9-6/h2-3,5-6,8H,4H2,1H3	InChI=1S/C7H10O2/c1-5-6-7(5,8)3-2-4-9-6/h2-3,5-6,8H,4H2,1H3/t5-,6+,7+/m0/s1
