19
gdb 33169	2.80402	1.32305	1.01978	3.591	78.8	-0.1808	0.0508	0.2316	1198.6938	0.160444	-419.227728	-419.21856	-419.217616	-419.261879	34.115	
N	 0.3993674927	 1.472121904	-0.0634492564	-0.622515
C	 0.1577656569	 0.0877089215	 0.0002268843	 0.250076
C	-1.0444932963	-0.5797822405	 0.0690457876	-0.184331
C	-0.7685636626	-1.9739405519	 0.1153818143	-0.16648
C	 0.59596917	-2.1216561462	 0.0854238998	-0.117925
N	 1.1674407288	-0.8689378553	 0.0026144248	-0.008259
C	 2.5912791368	-0.6155866357	-0.0492984532	-0.174662
C	 3.2224459297	-0.2976765396	 1.3057937706	-0.071223
O	 2.8296052693	 1.0131647575	 1.6953666479	-0.403094
H	 1.2175850673	 1.7355305352	 0.4749480123	 0.25014
H	 0.4846340771	 1.8233808902	-1.0112474191	 0.23315
H	-2.0106436737	-0.1000771549	 0.0898795565	 0.086652
H	-1.4885137793	-2.7760788645	 0.1726562884	 0.086531
H	 1.2162449855	-3.0039739428	 0.1193674355	 0.101918
H	 3.0798631159	-1.5001350863	-0.4687066799	 0.118738
H	 2.7841137121	 0.2220084359	-0.728466298	 0.119303
H	 2.8982479014	-1.0473062135	 2.0393600498	 0.109709
H	 4.3179279862	-0.3591118149	 1.2126158385	 0.094357
H	 2.8638128921	 1.080796512	 2.6529610063	 0.297917
57.2965	121.2106	139.0985	159.5561	242.9689	263.5446	300.113	340.8732	456.6952	491.4444	624.5371	636.3409	649.0505	686.0364	723.9858	773.6699	808.8591	836.0658	877.6433	904.3299	956.7067	1036.4018	1064.0782	1082.321	1100.9533	1159.9135	1187.3136	1240.6589	1267.9149	1286.4862	1299.452	1332.2144	1392.9497	1408.2074	1443.066	1452.9585	1472.6168	1509.6256	1522.963	1611.4867	1654.0922	2983.1017	3036.9469	3053.3647	3099.0721	3236.6803	3251.9187	3262.926	3494.7753	3580.6901	3851.3827
NC1=CC=CN1CCO	Nc1cccn1CCO	
InChI=1S/C6H10N2O/c7-6-2-1-3-8(6)4-5-9/h1-3,9H,4-5,7H2	InChI=1S/C6H10N2O/c7-6-2-1-3-8(6)4-5-9/h1-3,9H,4-5,7H2
