18
gdb 50713	3.32204	1.10443	0.87941	2.5943	75.01	-0.2432	-0.0301	0.2131	1277.5075	0.148087	-439.094777	-439.086207	-439.085262	-439.129308	30.649	
O	-0.2086947133	 0.010560466	 0.0823959229	-0.24347
C	-0.0604883464	 1.2033569741	 0.0266816233	 0.148586
C	 1.2788329724	 1.9148780873	-0.0050473713	-0.096275
C	 1.3302491642	 2.8957873971	-1.1831664963	-0.232841
C	 2.7318520869	 3.4359828058	-1.4326638806	-0.072121
O	 3.2064868976	 4.3993897622	-0.49155572	-0.223434
C	 3.3198757825	 4.1133324838	 0.833361203	 0.123653
N	 2.6775630109	 3.3702876891	 1.6208660924	-0.256337
C	 1.4719373552	 2.6144905256	 1.3610118542	-0.156806
H	-0.9414503798	 1.8896774756	 0.0080406763	 0.072995
H	 2.0490704735	 1.1446820011	-0.1274788977	 0.100279
H	 1.0157238922	 2.3863513262	-2.1030125271	 0.116913
H	 0.6351473279	 3.7303995981	-1.0265686859	 0.114696
H	 3.4468295168	 2.6026729329	-1.4736603757	 0.113903
H	 2.7692732854	 3.9604718633	-2.3906087185	 0.122534
H	 4.1303282895	 4.7202660542	 1.2400037204	 0.122884
H	 0.6226733085	 3.2970432211	 1.5232291334	 0.117648
H	 1.397281116	 1.8524858466	 2.1444672373	 0.127193
37.9525	82.1918	96.999	235.5191	267.4371	286.8179	381.933	393.0198	473.4731	502.8625	577.3776	751.3891	816.1362	868.0255	887.6371	940.8824	972.8116	983.9325	1008.2947	1051.877	1084.139	1128.3776	1142.7804	1168.9133	1227.2759	1247.9396	1304.7843	1323.1282	1351.7173	1371.6776	1404.3999	1422.2033	1431.948	1440.167	1472.3599	1487.3075	1498.851	1771.2646	1834.1036	2841.4248	2987.8732	3014.9472	3023.3472	3047.8007	3059.1668	3071.1041	3100.0392	3127.2405
O=CC1CCOC=NC1	O=C[C@H]1CCOC=NC1	
InChI=1S/C6H9NO2/c8-4-6-1-2-9-5-7-3-6/h4-6H,1-3H2	InChI=1S/C6H9NO2/c8-4-6-1-2-9-5-7-3-6/h4-6H,1-3H2/t6-/m0/s1
