17
gdb 10038	3.33491	1.25556	0.97894	4.1628	74.23	-0.276	0.0301	0.3061	1190.9044	0.140148	-326.715406	-326.706225	-326.705281	-326.749519	32.492	
C	 0.0574167815	 1.556503787	-0.0012674497	-0.395062
C	-0.0133129634	 0.0291663093	-0.023596485	-0.178445
C	-1.4571947269	-0.5202299631	 0.047939104	-0.152219
C	-1.4445175164	-2.0673467163	-0.102116767	-0.35108
C	-2.7800109023	-2.650717935	-0.1993972688	 0.267708
N	-3.8364383529	-3.1086505126	-0.2937390502	-0.303257
C	-2.129963653	-0.1262578862	 1.2830532709	 0.351282
C	-2.6630743749	 0.180798508	 2.3153710818	-0.470315
H	 1.0959311941	 1.8959984707	-0.0513309229	 0.119548
H	-0.4774321858	 1.9899590963	-0.8533512923	 0.119396
H	-0.3883669787	 1.9563345148	 0.9136302731	 0.138036
H	 0.4475134296	-0.3508279479	-0.9436425712	 0.100754
H	 0.5612076689	-0.3853788859	 0.8134302154	 0.11091
H	-2.0210922626	-0.1110335589	-0.8009203891	 0.125841
H	-0.8827918308	-2.3367358418	-1.0034209926	 0.150871
H	-0.9237251367	-2.5140406233	 0.7514955122	 0.159734
H	-3.1531550199	 0.453678375	 3.2173615614	 0.206297
64.7277	95.9278	130.8593	161.1902	209.0941	257.7207	275.7486	372.8737	394.7882	475.2975	524.0888	604.8439	641.8336	655.3307	762.9061	828.8004	904.9945	940.7461	990.8704	1025.1469	1067.1415	1118.9639	1134.1135	1220.4071	1272.973	1297.3539	1345.7294	1366.9291	1376.6754	1415.2863	1462.6118	1486.0428	1498.25	1507.2392	2237.691	2365.646	3020.1317	3027.1956	3039.456	3048.7318	3066.5988	3092.9285	3107.5889	3121.6605	3502.8958
CCC(CC#N)C#C	CC[C@@H](CC#N)C#C	
InChI=1S/C7H9N/c1-3-7(4-2)5-6-8/h1,7H,4-5H2,2H3	InChI=1S/C7H9N/c1-3-7(4-2)5-6-8/h1,7H,4-5H2,2H3/t7-/m0/s1
