17
gdb 36374	3.79389	0.93152	0.84351	5.7591	73.45	-0.2701	0.0375	0.3076	1358.4279	0.136159	-417.967022	-417.958496	-417.957552	-418.001138	30.722	
N	 0.033706891	-0.7276309333	-1.2690428295	-0.30893
C	-0.0114945274	 0.2719728025	-0.6910241944	 0.259
C	-0.0424247592	 1.5313198335	 0.0522823613	-0.353566
C	 1.3614476333	 2.071427536	 0.2851184351	-0.015094
N	 1.9088258559	 2.9399590906	-0.760767479	-0.323214
C	 1.6523769062	 3.5084300775	 0.5646206377	-0.067768
C	 0.6260436882	 4.5981709699	 0.6809466992	 0.070981
C	 0.3725523506	 5.5397430774	-0.4193566059	-0.172602
O	-0.5611911502	 4.5033204518	-0.1026796113	-0.226802
H	-0.6260249566	 2.2725966612	-0.4972539731	 0.190623
H	-0.5457149812	 1.3571925311	 1.0106011392	 0.147872
H	 2.039287818	 1.3534366319	 0.7434198434	 0.10672
H	 2.8986526243	 2.7685857306	-0.9082748222	 0.243376
H	 2.5090612904	 3.6870092708	 1.2150509196	 0.093407
H	 0.4561449285	 4.9406960065	 1.7028681746	 0.100481
H	 0.0337590172	 6.5507771509	-0.2016265605	 0.119612
H	 0.9098253609	 5.3970825211	-1.3537222241	 0.135903
57.2487	93.9094	111.222	190.7274	223.1895	308.9847	378.7514	394.6779	513.4813	562.0079	643.4708	735.6298	839.4014	862.6098	892.1486	912.7229	930.7471	961.801	998.2543	1007.1214	1074.1119	1098.1821	1110.445	1161.4494	1171.7403	1184.7249	1220.5501	1258.694	1268.2778	1297.3475	1318.0061	1406.6925	1434.06	1461.4745	1483.2799	1514.1067	2362.1417	3051.2648	3093.9167	3098.5168	3109.1864	3118.847	3132.5484	3196.4951	3522.8725
N#CCC1NC1C1CO1	N#CC[C@H]1N[C@H]1[C@H]1CO1	
InChI=1S/C6H8N2O/c7-2-1-4-6(8-4)5-3-9-5/h4-6,8H,1,3H2	InChI=1S/C6H8N2O/c7-2-1-4-6(8-4)5-3-9-5/h4-6,8H,1,3H2/t4-,5-,6-/m1/s1
