19
gdb 57694	3.11023	0.8265	0.75555	1.0619	83.99	-0.2567	0.0312	0.2879	1552.3024	0.154287	-385.822748	-385.812047	-385.811103	-385.858435	39.437	
C	 0.1747225107	 1.5844992641	 0.0251856754	-0.403761
C	 0.0072451059	 0.0586592666	-0.0098346356	 0.151662
O	 0.6439551022	-0.4216053266	 1.1819774561	-0.446344
C	-1.479936445	-0.3794450307	-0.0376216611	-0.196149
C	-2.2755233266	 0.0687055288	 1.2051454118	-0.375316
C	-3.6063960959	-0.5230970528	 1.24906804	 0.281642
C	-4.6983865566	-1.0255641171	 1.2621676536	-0.429531
C	 0.6777931153	-0.496509013	-1.1960083714	 0.297281
C	 1.2150476293	-0.9843369871	-2.1546151955	-0.454949
H	 1.2354194987	 1.8390822995	-0.01751009	 0.135354
H	-0.3350426385	 2.0487147943	-0.8225114902	 0.125056
H	-0.2365704638	 1.9841005872	 0.9551094694	 0.130919
H	 0.7524297424	-1.3749918617	 1.092378148	 0.285396
H	-1.952950104	 0.0016296805	-0.9482328744	 0.118979
H	-1.5115969628	-1.4722455608	-0.1051957093	 0.110705
H	-1.7098872206	-0.209154968	 2.1015964767	 0.14544
H	-2.3667587408	 1.1610054909	 1.2229996734	 0.132319
H	-5.6651181194	-1.4635799506	 1.2871768847	 0.192045
H	 1.6977232696	-1.4049573736	-3.0023145817	 0.199253
59.2089	90.4526	106.0162	177.9924	183.0261	239.1568	246.0816	308.0486	340.5236	365.1675	395.5122	440.1794	474.721	566.3168	591.621	614.7686	632.6524	635.1867	666.9371	756.1844	769.0378	912.2915	946.2468	966.6677	986.7796	1037.4864	1098.6421	1153.3188	1182.0251	1217.4536	1283.7798	1309.8011	1366.1227	1383.9941	1411.1133	1471.6394	1483.3524	1490.1369	1499.4901	2229.944	2239.0868	3035.3706	3049.4087	3056.2843	3069.6901	3096.652	3135.1108	3139.9966	3499.3081	3507.5679	3806.5886
CC(O)(CCC#C)C#C	C[C@@](O)(CCC#C)C#C	
InChI=1S/C8H10O/c1-4-6-7-8(3,9)5-2/h1-2,9H,6-7H2,3H3	InChI=1S/C8H10O/c1-4-6-7-8(3,9)5-2/h1-2,9H,6-7H2,3H3/t8-/m0/s1
