11
gdb 130876	2.26472	1.60708	0.94002	2.5833	64.75	-0.2878	-0.0893	0.1985	1102.5183	0.06593	-451.550555	-451.543335	-451.542391	-451.582905	25.085	
O	-0.0575633226	 0.0024925164	-0.0007333849	-0.254035
C	-0.0183747001	 1.2096955831	 0.0084136297	 0.062761
C	 1.2396252335	 1.9716616899	 8.7097*^-6	-0.040487
C	 2.5146188544	 1.4831736546	-0.0182217064	 0.043084
O	 3.396833698	 2.4804806642	-0.020443148	-0.139609
N	 2.7351166463	 3.6970250243	-0.0034598678	-0.179351
C	 1.454571198	 3.3874582291	 0.0083857159	 0.244685
C	 0.4623103385	 4.4096366494	 0.027516732	 0.262954
N	-0.3808153505	 5.2002808435	 0.0431919737	-0.313107
H	-0.9386884573	 1.8273356363	 0.023308256	 0.110072
H	 2.9108133518	 0.4799322494	-0.0304382699	 0.203032
113.934	132.1396	175.8946	220.7108	266.4244	436.9494	499.549	561.5028	613.6332	618.355	740.7094	802.5121	893.6196	927.8985	952.4586	1040.787	1155.1257	1186.3177	1302.7483	1392.7693	1448.4786	1478.3656	1595.6335	1798.4937	2367.7226	2937.283	3279.9214
O=CC1=CON=C1C#N	O=Cc1conc1C#N	
InChI=1S/C5H2N2O2/c6-1-5-4(2-8)3-9-7-5/h2-3H	InChI=1S/C5H2N2O2/c6-1-5-4(2-8)3-9-7-5/h2-3H
