20
gdb 68045	2.06814	1.9008	1.29418	1.4116	80.18	-0.2332	0.0696	0.3029	1080.4062	0.168941	-403.063813	-403.054904	-403.05396	-403.096701	34.586	
C	 0.0585852178	 1.4565741924	 0.1237533001	-0.518624
C	-0.0251089895	-0.0265748985	-0.0490840467	 0.300586
C	 0.5908082131	-0.9486761003	-1.1386271303	-0.302125
C	 0.0264049075	-1.8545542608	-0.0104839977	 0.333858
C	 0.1886671023	-3.3202682164	 0.2255525536	-0.51944
O	 0.6052852522	-0.8972660351	 0.9793854974	-0.375294
C	-1.2358617991	-0.9760176994	-0.0018792727	 0.362716
C	-2.5068818955	-0.9766068662	 0.719591531	-0.343893
N	-2.4524948993	-1.0919544785	-0.7737113167	-0.400513
H	 1.1018981574	 1.7855438478	 0.1231119647	 0.138067
H	-0.4613751132	 1.9668136464	-0.6938503014	 0.123336
H	-0.3991611506	 1.7589579862	 1.0707015858	 0.13445
H	 0.1051328965	-0.9889037373	-2.117417056	 0.099399
H	 1.6807386526	-0.9178605472	-1.194888484	 0.097412
H	 1.245857054	-3.6013815014	 0.2181797018	 0.131677
H	-0.2389454046	-3.6012690772	 1.1928672648	 0.133192
H	-0.3280516627	-3.8821530991	-0.5586215747	 0.137194
H	-2.8608967435	-1.8700525749	 1.2264171739	 0.12335
H	-2.8582945968	-0.0429415805	 1.1521800336	 0.114687
H	-2.7021115988	-0.2013847301	-1.1994622865	 0.229967
164.5318	168.1854	185.7495	197.8577	221.5703	232.1049	237.7801	396.7778	461.68	480.3593	592.2044	601.9352	668.3901	680.8758	703.0284	787.6815	854.7263	895.3099	917.405	952.9184	965.1239	1002.2055	1013.5066	1055.8883	1072.4081	1114.0025	1145.2629	1151.8595	1168.4522	1196.559	1203.7459	1252.6543	1306.2859	1355.0493	1408.7823	1412.3639	1450.1187	1475.9312	1478.7775	1488.0719	1489.2759	1496.1396	1547.3657	3037.6194	3040.5332	3056.6242	3106.0337	3108.8403	3114.5608	3115.2083	3116.9357	3137.5869	3189.3977	3482.2473
CC12CC(C)(O1)C21CN1	C[C@@]12C[C@@](C)(O1)[C@]12CN1	
InChI=1S/C7H11NO/c1-5-3-6(2,9-5)7(5)4-8-7/h8H,3-4H2,1-2H3	InChI=1S/C7H11NO/c1-5-3-6(2,9-5)7(5)4-8-7/h8H,3-4H2,1-2H3/t5-,6+,7+
