19
gdb 74935	2.95763	1.75421	1.48123	1.6923	79.65	-0.2283	0.0102	0.2385	967.4368	0.16125	-385.857612	-385.850689	-385.849745	-385.888554	28.956	
C	 0.0485293228	 1.4732888483	 0.032794919	-0.504231
C	-0.0102502223	-0.0217998062	-0.0113699871	 0.377155
C	-0.1135363648	-0.7756710233	-1.114253616	-0.191446
C	 0.0508971776	-2.244634781	-0.8549640247	 0.041645
O	 1.386150037	-2.386684059	-0.2270562765	-0.291116
C	 0.7417760758	-2.2451467336	 1.0255181171	 0.129078
C	-0.623440856	-2.7206194931	 0.5028749279	-0.074655
C	-1.3417458028	-1.6278433694	 1.2980345109	-0.238982
C	 0.003233294	-0.8250520519	 1.2672201557	-0.196277
H	 0.9968272473	 1.8130776519	 0.4689716882	 0.130567
H	-0.0400315355	 1.9085931716	-0.9664523139	 0.123344
H	-0.7492585241	 1.8888551358	 0.6614903583	 0.124596
H	-0.174837199	-0.3775009217	-2.1209378803	 0.087534
H	-0.0492221746	-2.893458782	-1.7254458639	 0.074039
H	 1.3100479842	-2.647013484	 1.8664325443	 0.07834
H	-0.9557421587	-3.7591235684	 0.5107267952	 0.072134
H	-2.2202533202	-1.1370434135	 0.8715447336	 0.097514
H	-1.5732132066	-1.992265438	 2.3041971338	 0.099621
H	 0.277201366	-0.2488568724	 2.1520279186	 0.06114
150.3124	192.7843	303.1194	364.9671	378.4618	476.6198	512.8314	621.1289	657.3607	725.5652	738.4327	782.3295	792.7798	814.1954	848.6718	899.5747	933.7149	952.3725	994.87	1008.8894	1029.664	1060.0232	1063.2816	1071.8183	1097.6404	1122.1379	1176.533	1197.3015	1216.475	1235.487	1251.8844	1278.5454	1309.713	1324.9443	1341.0583	1363.5612	1411.1621	1477.8088	1483.881	1486.4694	1697.1521	3014.9385	3046.4537	3062.0363	3091.6806	3099.6765	3103.5621	3105.4192	3109.012	3114.6692	3187.3833
CC1=CC2OC3C2CC13	CC1=C[C@H]2O[C@@H]3[C@H]2C[C@H]13	
InChI=1S/C8H10O/c1-4-2-7-6-3-5(4)8(6)9-7/h2,5-8H,3H2,1H3	InChI=1S/C8H10O/c1-4-2-7-6-3-5(4)8(6)9-7/h2,5-8H,3H2,1H3/t5-,6+,7-,8+/m1/s1
