18
gdb 14839	2.91381	1.60591	1.14369	1.989	73.45	-0.2517	0.0218	0.2735	1074.6102	0.152108	-347.750524	-347.741801	-347.740857	-347.784785	31.234	
C	-0.096216399	 1.58222553	 0.0500806134	-0.387952
C	-0.0415666032	 0.0517498	 0.0002291596	-0.19588
C	 0.7508791451	-0.5389831362	 1.158428765	-0.036825
C	 0.0920666024	-0.5306764911	 2.5551360212	-0.076145
O	 0.1499626887	-1.9693699863	 2.6533636515	-0.278619
C	 0.7634382733	-2.0921152912	 1.3463396273	-0.073395
C	-0.0078573391	-2.9048888922	 0.4189489843	 0.356399
C	-0.6322262639	-3.5823640267	-0.3536881947	-0.468178
H	 0.9084188648	 2.0173083308	 0.0042492631	 0.115654
H	-0.6720848246	 1.9834030141	-0.7891071973	 0.117798
H	-0.5677393823	 1.9368096714	 0.9734179547	 0.118828
H	-1.0569393064	-0.3611320164	 0.0084582514	 0.111949
H	 0.4093914324	-0.2729036388	-0.9453750785	 0.105381
H	 1.7656201945	-0.1310712184	 1.1639875759	 0.081891
H	 0.6584999368	-0.0446600151	 3.3580637389	 0.102338
H	-0.9429414826	-0.1645960703	 2.5770989519	 0.102675
H	 1.7746027286	-2.511129239	 1.4358018507	 0.102546
H	-1.1860142654	-4.1849204146	-1.0307513681	 0.201535
30.0029	100.0225	117.0987	200.6284	213.6374	255.8446	353.0631	402.5538	522.1573	562.119	623.6372	670.471	760.4967	792.2321	818.9442	900.9307	962.1505	971.3013	980.3822	1026.7234	1041.2897	1096.9488	1140.8116	1156.1933	1185.0143	1240.0686	1263.4434	1291.7878	1333.3971	1360.1167	1361.3687	1399.0553	1413.2316	1484.0945	1500.2429	1506.1242	1525.2739	2230.8565	3006.3574	3012.1013	3029.3942	3033.1341	3050.6776	3060.7998	3075.9187	3097.5823	3105.9882	3502.0993
CCC1COC1C#C	CC[C@H]1CO[C@H]1C#C	
InChI=1S/C7H10O/c1-3-6-5-8-7(6)4-2/h2,6-7H,3,5H2,1H3	InChI=1S/C7H10O/c1-3-6-5-8-7(6)4-2/h2,6-7H,3,5H2,1H3/t6-,7-/m0/s1
