15
gdb 125693	3.07371	1.40195	1.0176	2.9693	69.38	-0.2388	-0.0124	0.2264	1109.9885	0.114466	-450.161739	-450.153578	-450.152634	-450.19503	29.134	
C	-0.9180648404	 0.9991703549	 0.5669350037	-0.505856
C	-0.2309240167	-0.2767830743	 0.2135205101	 0.270176
N	-0.1748400071	-0.7168741933	-1.0475170063	-0.246676
N	 0.5414854704	-1.8279507122	-0.9742783121	-0.0801
N	 0.9644323898	-2.180916239	 0.2318141438	-0.282016
C	 0.4820811246	-1.2095784518	 1.0064328521	 0.316045
N	 0.7847007695	-1.2240235562	 2.3729408388	-0.39383
C	-0.0505317592	-0.8614814035	 3.3960683317	 0.139443
O	-1.1574740549	-0.3901426006	 3.2767109849	-0.300146
H	-0.2157750349	 1.7114322119	 1.0142128223	 0.128782
H	-1.3357058466	 1.447506461	-0.3365349928	 0.134856
H	-1.7074439431	 0.8277071693	 1.3006347846	 0.172102
H	 0.7561159298	-2.3769769705	-1.7899431734	 0.294744
H	 1.6141964585	-1.7437368965	 2.6208809834	 0.265685
H	 0.4286851106	-1.0445286692	 4.3769919191	 0.086789
58.0969	122.1228	184.1704	206.8217	253.2176	305.9277	378.8665	462.0904	474.2925	560.0464	618.22	707.8933	713.8428	740.4702	873.6849	985.2365	1023.8968	1028.3666	1074.4953	1138.5626	1202.6792	1222.6194	1282.0954	1340.7912	1416.1914	1432.8664	1455.0688	1476.6622	1482.8407	1507.7974	1554.2844	1592.3291	1813.924	2952.2094	3045.806	3113.6319	3152.5376	3612.7039	3677.3633
CC1=NNN=C1NC=O	Cc1n[nH]nc1NC=O	
InChI=1S/C4H6N4O/c1-3-4(5-2-9)7-8-6-3/h2H,1H3,(H2,5,6,7,8,9)	InChI=1S/C4H6N4O/c1-3-4(5-2-9)7-8-6-3/h2H,1H3,(H2,5,6,7,8,9)
