21
gdb 107940	3.71071	1.16299	1.06224	1.1195	82.09	-0.2379	0.0823	0.3202	1223.9107	0.182092	-387.042924	-387.034338	-387.033394	-387.075721	34.215	
C	-0.0471673879	 1.5109706006	-0.0682617175	-0.381785
C	-0.0156213653	-0.0213914986	-0.0053023532	-0.301519
C	 0.7107872114	-0.547327959	 1.2087362312	 0.347744
C	 2.247421205	-0.3376893607	 1.3997891521	-0.276071
C	 2.2104624851	-1.6142333245	 2.2305330393	-0.137817
C	 0.9221172669	-2.0798433615	 1.5751106263	-0.201918
C	 0.8732991542	-1.6212404093	 3.0006740439	 0.40362
O	 0.6686479457	-2.4363096198	 4.0956781042	-0.466297
C	 0.1369789378	-0.3338112633	 2.6487405594	-0.3437
H	 0.9652877216	 1.9269372208	-0.1005488206	 0.119814
H	-0.5784745576	 1.8576125388	-0.9596935195	 0.112424
H	-0.5520525553	 1.9334747707	 0.8068835635	 0.120474
H	-1.0419901569	-0.4110863604	-0.0092449289	 0.096595
H	 0.4652041763	-0.4164711614	-0.9100811744	 0.09519
H	 2.7907554449	-0.4824438809	 0.4598652471	 0.093883
H	 2.5775353287	 0.595281922	 1.8727877574	 0.08333
H	 3.0294244558	-2.237540739	 2.5681713818	 0.082404
H	 0.6430173644	-3.0072859746	 1.0967408835	 0.091683
H	 1.1915179539	-2.095186671	 4.8298355074	 0.283697
H	 0.396978698	 0.596032286	 3.1698632786	 0.079869
H	-0.9466277167	-0.4858012749	 2.6732734383	 0.098379
87.9111	153.4475	192.0476	250.46	302.0872	320.2855	354.4191	392.6426	443.6829	465.506	588.1758	631.5393	732.698	746.7374	792.1859	834.6053	878.3503	905.3653	918.9281	943.2004	964.8108	986.5613	1012.4971	1015.9897	1056.1093	1077.4523	1110.4128	1124.1959	1133.0326	1181.0791	1196.4082	1227.6731	1242.3084	1282.1014	1295.3345	1319.759	1333.6778	1377.9121	1411.176	1437.1859	1484.8212	1493.5606	1499.3981	1507.7058	1511.6851	3013.6412	3017.0516	3024.5053	3034.9204	3044.8093	3076.2836	3088.5421	3102.2548	3106.0464	3189.9107	3225.2255	3788.6327
CCC12CC3C1C3(O)C2	CC[C@]12C[C@@H]3[C@H]1[C@]3(O)C2	
InChI=1S/C8H12O/c1-2-7-3-5-6(7)8(5,9)4-7/h5-6,9H,2-4H2,1H3	InChI=1S/C8H12O/c1-2-7-3-5-6(7)8(5,9)4-7/h5-6,9H,2-4H2,1H3/t5-,6-,7-,8+/m1/s1
