18
gdb 38012	3.42552	2.1499	1.79853	1.3744	80.51	-0.2055	-0.0268	0.1786	818.1651	0.150885	-364.679226	-364.673493	-364.672548	-364.708769	25.734	
C	-0.0530145753	 1.5667330242	-0.0481007793	-0.170904
C	 1.4874771391	 1.5772916319	 0.0307392671	-0.084587
C	 2.0114279402	 1.4077732523	 1.4252993766	-0.110438
C	 1.5180634687	 0.3057737479	 2.0276522619	 0.032619
C	 2.4857050156	-0.884171941	 1.9393951853	-0.273939
C	 1.6604566844	-1.1146121635	 0.6165627963	-0.028311
C	 1.3872787573	 0.0284361761	-0.4619005552	-0.029626
N	-0.067609838	 0.0755404031	-0.0340319298	-0.13088
C	 0.4097138627	-0.4751924726	 1.2639665404	-0.034286
H	-0.5933772262	 2.047955005	 0.7713444649	 0.110636
H	-0.4471161122	 1.9265535281	-1.003558892	 0.103921
H	 2.0398307264	 2.2951530825	-0.5781213736	 0.070809
H	 3.0371388269	 1.712029919	 1.6278824984	 0.086558
H	 3.5503290366	-0.6504370089	 1.8908268467	 0.106532
H	 2.3120017102	-1.7321773073	 2.6129234474	 0.103825
H	 1.6183918695	-2.1210182572	 0.1907449123	 0.091105
H	 1.5921505788	-0.1733078779	-1.5154341556	 0.079036
H	-0.3112198349	-1.0291902818	 1.8669445482	 0.077929
286.453	363.3556	429.0305	474.6399	554.6958	614.8446	632.7597	707.8292	781.2959	792.7473	805.5449	837.9002	853.9132	883.567	902.9711	908.1385	955.4671	971.9227	1002.7423	1016.7926	1047.1109	1065.8633	1073.6997	1096.5769	1125.7066	1135.6791	1179.4067	1194.4075	1197.5144	1219.9625	1242.4033	1263.8908	1273.0163	1309.8237	1322.8518	1336.6741	1495.5524	1499.5607	1605.5297	3027.2923	3044.9663	3072.6123	3085.8236	3093.491	3098.2141	3103.2988	3116.2383	3127.0806
C1C2C=C3CC4C2N1C34	C1[C@H]2[CH][C]3C[C@@H]4[C@H]2N1[C@H]34	
InChI=1S/C8H9N/c1-4-2-6-7(4)9-3-5(1)8(6)9/h1,5-8H,2-3H2	InChI=1S/C8H9N/c1-4-2-6-7(4)9-3-5(1)8(6)9/h1,5-8H,2-3H2/t5-,6+,7-,8+/m1/s1
