18
gdb 73884	2.47202	1.55421	1.11653	5.9152	83.6	-0.2002	-0.0239	0.1763	1111.7086	0.14915	-401.942822	-401.934919	-401.933975	-401.975105	30.883	
N	 0.0667560703	 1.3039872905	 0.1163380202	-0.628059
C	-0.0048321564	-0.0425115861	 0.0250250681	 0.313963
C	-1.0537279042	-0.9255853037	 0.0097975332	 0.182324
C	-2.4614627012	-0.6886728518	 0.0304382623	 0.009826
O	-3.3344008086	-1.5425114839	 0.011186982	-0.321114
C	-0.324791478	-2.2773327757	-0.0450291936	-0.116153
C	 0.8029541327	-2.0432387508	 1.0127274966	-0.213432
C	 1.2263550414	-0.9421381247	-0.0243261304	-0.110501
C	 0.7719953932	-1.973189593	-1.1173203497	-0.214673
H	 0.9351542891	 1.7666525616	-0.0914539674	 0.266141
H	-0.7670881915	 1.8596793731	 0.018987412	 0.270624
H	-2.7439889026	 0.3944702315	 0.0649992302	 0.014841
H	-0.9418545724	-3.1719259074	-0.0660208433	 0.088461
H	 0.50417407	-1.711619246	 2.0095397472	 0.101917
H	 1.532705843	-2.8562976712	 1.0726365437	 0.09886
H	 2.2087902371	-0.4662819174	-0.0216480694	 0.059826
H	 1.4987639121	-2.780100866	-1.2505725634	 0.09903
H	 0.4441601059	-1.5792942988	-2.0820779381	 0.09812
114.9421	159.8301	192.0354	267.0652	277.8866	323.3959	470.9148	488.9842	556.8019	566.2313	606.8571	707.3455	744.7999	821.0166	841.6055	856.9426	884.861	914.8881	1004.0475	1016.698	1017.8448	1062.2535	1064.7122	1091.2583	1103.4748	1176.0451	1223.2186	1223.8863	1238.3496	1254.2727	1277.3869	1284.6857	1413.3265	1470.3966	1480.0516	1517.3646	1623.0659	1682.1067	1745.7698	2786.7847	3047.3764	3055.3496	3097.9653	3117.4161	3122.3759	3156.9531	3601.7933	3716.6008
NC1=C(C=O)C2CC1C2	NC1=C(C=O)[C@@H]2C[C@H]1C2	
InChI=1S/C7H9NO/c8-7-5-1-4(2-5)6(7)3-9/h3-5H,1-2,8H2	InChI=1S/C7H9NO/c8-7-5-1-4(2-5)6(7)3-9/h3-5H,1-2,8H2/t4-,5+
