16
gdb 57743	7.58651	0.46245	0.44438	6.5747	109.13	-0.2633	-0.07	0.1934	2363.8787	0.122922	-363.59399	-363.584247	-363.583303	-363.629457	33.917	
C	-0.0047097286	 1.5565376845	-0.0045450759	-0.380235
C	-0.0110032387	 0.0132845092	 0.0389388974	-0.178605
C	 0.7729372539	-0.5264424341	 1.2545535195	-0.380228
C	-1.3737385603	-0.5021351287	 0.0278695174	 0.374147
C	-2.5100930541	-0.9280779736	 0.0255344737	-0.337021
C	-3.7753678076	-1.3997771625	 0.0270321399	-0.184975
C	-4.915206248	-1.824646908	 0.0286514065	 0.428479
C	-6.1884347422	-2.2989110314	 0.0309104598	 0.074251
N	-7.2791268398	-2.7052089352	 0.0328907572	-0.330316
H	 1.0263679314	 1.9195442177	-0.0465889868	 0.125307
H	-0.5404407179	 1.9300111266	-0.8805312827	 0.134606
H	-0.4797702611	 1.9693482507	 0.8899669587	 0.134478
H	 0.4816849805	-0.3538259638	-0.8726768922	 0.125714
H	 0.3224128227	-0.1793713898	 2.18879954	 0.134477
H	 0.7845023929	-1.6189643479	 1.2647173132	 0.134609
H	 1.805750267	-0.1680812136	 1.2153305641	 0.125312
55.4374	60.8478	139.4904	157.7894	222.291	248.6685	263.5037	277.0852	337.9382	455.507	490.5693	524.8144	565.1459	584.2678	630.7538	633.9867	813.9012	931.5926	933.8766	966.4067	1107.8103	1112.391	1179.5694	1295.7377	1310.224	1356.8174	1397.091	1419.541	1485.7875	1487.8936	1498.9015	1509.7114	2213.0081	2337.2461	2356.7188	3007.9867	3043.5207	3046.3543	3117.8097	3122.507	3127.3154	3128.8264
CC(C)C#CC#CC#N	CC(C)C#CC#CC#N	
InChI=1S/C8H7N/c1-8(2)6-4-3-5-7-9/h8H,1-2H3	InChI=1S/C8H7N/c1-8(2)6-4-3-5-7-9/h8H,1-2H3
