20
gdb 126197	1.87312	1.70953	0.96717	3.2412	82.3	-0.2371	0.0039	0.2409	1273.1775	0.169472	-403.173173	-403.163326	-403.162382	-403.2083	35.13	
C	 0.0626924816	 1.558540419	 0.1997703769	-0.368882
C	-0.0244194702	 0.0337543265	 0.0085204897	-0.312406
C	 0.6620680154	-0.4579381766	-1.2311639423	-0.003882
C	 0.128063758	-0.7562442888	-2.4498290453	 0.357087
C	-1.2557048032	-0.7330022601	-2.9966520125	-0.494438
O	 1.0990995166	-1.1520933511	-3.2956065549	-0.220615
N	 2.3249252057	-1.123213906	-2.6327423115	-0.212911
C	 2.0606683144	-0.7120519701	-1.4162100317	 0.331971
C	 3.1664728825	-0.5770439353	-0.4184951687	-0.502585
H	 1.1032781997	 1.8929431288	 0.2574141479	 0.122888
H	-0.4061536972	 2.0843733275	-0.6376156648	 0.12065
H	-0.4410160661	 1.8659094964	 1.1217185878	 0.114336
H	 0.4093664881	-0.4632657525	 0.8850011992	 0.108032
H	-1.0783816826	-0.2660148756	-0.0133598967	 0.105378
H	-1.3555386232	 0.0180594051	-3.7879045315	 0.148759
H	-1.520214195	-1.7028699876	-3.4300564597	 0.149402
H	-1.9741669484	-0.4968670871	-2.2089958502	 0.13703
H	 3.2724099443	 0.4587391003	-0.0790025868	 0.135946
H	 2.9745243936	-1.1921176434	 0.4674765106	 0.134114
H	 4.111071086	-0.8944791195	-0.8641914154	 0.150126
59.1024	98.1815	128.3316	151.9996	178.8561	191.7234	259.9785	278.0329	341.7323	414.6265	465.003	573.3467	639.4765	667.8702	731.3925	748.7168	797.1958	930.9102	967.5062	994.2363	1015.0445	1034.1519	1061.1611	1064.5135	1086.1223	1144.4437	1222.2003	1287.6487	1298.1816	1360.5249	1404.1591	1408.5768	1414.6081	1458.4169	1474.2549	1476.2641	1481.3617	1485.4346	1490.1757	1496.2628	1506.5807	1544.9252	1674.9022	3028.2597	3036.3815	3038.2775	3039.8709	3061.9046	3091.6046	3095.6165	3107.9006	3111.3093	3132.7897	3137.7771
CCC1=C(C)ON=C1C	CCc1c(C)onc1C	
InChI=1S/C7H11NO/c1-4-7-5(2)8-9-6(7)3/h4H2,1-3H3	InChI=1S/C7H11NO/c1-4-7-5(2)8-9-6(7)3/h4H2,1-3H3
