18
gdb 55176	3.3675	1.27902	1.06179	2.7708	73.27	-0.2405	0.0242	0.2647	1152.9634	0.147191	-439.075019	-439.066465	-439.065521	-439.109405	30.615	
C	-0.0110854364	 1.4712789427	 0.067431465	-0.489244
C	 0.0499235556	-0.04517982	 0.1351534742	 0.365397
O	 1.0870374033	-0.677104308	 0.2389241181	-0.368971
N	-1.1569502899	-0.6783815665	 0.0828305574	-0.067558
C	-2.5295017984	-0.2707810067	-0.2639596245	-0.205621
C	-2.8573135341	-1.7723256154	-0.4662416496	 0.094479
O	-2.6035470231	-2.2250235627	-1.8039465329	-0.292649
C	-1.2600028981	-2.6654075709	-1.4623463879	-0.086219
C	-1.4032875378	-2.1114582305	-0.0340080721	-0.047102
H	 0.9778164541	 1.8690712645	 0.2935849504	 0.149598
H	-0.3040598808	 1.7980185222	-0.9365613676	 0.14101
H	-0.7428870919	 1.8779944368	 0.772365011	 0.133836
H	-3.062525128	 0.2158825573	 0.562200451	 0.113935
H	-2.6274744316	 0.329586634	-1.174177046	 0.125499
H	-3.7758059875	-2.1741557447	-0.036904267	 0.093407
H	-1.1792053905	-3.7577137343	-1.5172593892	 0.110905
H	-0.4883930447	-2.2036733258	-2.0852625184	 0.12479
H	-1.0885911901	-2.7200681419	 0.8125418482	 0.104509
41.9459	82.836	118.3438	153.4055	187.3532	343.5979	385.9109	436.2372	548.4118	596.0346	638.2868	753.2342	815.9248	833.8678	920.7468	947.0327	963.6731	1002.531	1009.1924	1050.1777	1059.0468	1079.8568	1114.9789	1144.971	1164.2273	1176.6948	1199.6271	1243.2179	1292.3035	1307.9814	1332.4895	1355.6036	1380.592	1435.6333	1471.3786	1482.1317	1497.9678	1513.2939	1765.3176	3019.9313	3028.639	3041.7855	3080.8641	3093.1993	3103.6241	3107.4282	3126.5097	3161.2022
CC(=O)N1CC2OCC12	CC(=O)N1C[C@H]2OC[C@@H]12	
InChI=1S/C6H9NO2/c1-4(8)7-2-6-5(7)3-9-6/h5-6H,2-3H2,1H3	InChI=1S/C6H9NO2/c1-4(8)7-2-6-5(7)3-9-6/h5-6H,2-3H2,1H3/t5-,6-/m1/s1
