16
gdb 75968	2.37421	1.96565	1.12787	2.8195	69.21	-0.2422	0.0119	0.2541	1032.8861	0.1263	-471.234848	-471.226813	-471.225869	-471.267873	29.438	
C	 0.0320360643	 1.3558491597	 0.009727259	-0.315004
N	-0.0469150376	-0.1067475237	 0.0018312024	-0.185786
C	 0.0977086576	-0.7570062896	-1.2231579365	 0.462056
N	 0.3497595897	-0.1286480413	-2.2912496124	-0.567153
O	-0.0482750366	-2.1151629328	-1.1659792001	-0.22926
C	-0.7049404536	-2.5740378167	-0.0083903611	-0.017951
O	-0.0347630482	-2.1283495565	 1.1466087974	-0.229261
C	 0.1119799167	-0.7709273421	 1.2175501511	 0.462056
N	 0.3765545224	-0.1547590925	 2.289707779	-0.567154
H	 1.0729866353	 1.6920000597	 0.0057441597	 0.144061
H	-0.463104083	 1.727583945	-0.8852112315	 0.155223
H	-0.4528884797	 1.7173305647	 0.9144091184	 0.155211
H	 0.348506132	-0.770936179	-3.0806537665	 0.232051
H	-1.7471290783	-2.2269720823	-0.000319509	 0.123281
H	-0.6518381239	-3.661841017	-0.0149021628	 0.145579
H	 0.384496123	-0.8059967155	 3.0717063827	 0.232051
94.2575	99.3353	123.7233	206.7879	326.2858	365.3692	392.8425	515.9021	536.5844	553.7584	692.486	711.1901	728.7158	795.1267	824.9388	829.2484	960.1136	998.0928	1049.2707	1068.8278	1127.1894	1158.6573	1177.7091	1219.5458	1243.8651	1295.3668	1340.2621	1417.7015	1458.3251	1465.1869	1490.6584	1508.7791	1523.9676	1743.5089	1771.7733	3018.3971	3063.9043	3145.366	3151.1422	3189.4932	3527.6614	3528.1256
CN1C(=N)OCOC1=N	CN1[C]([NH])OCO[C]1[NH]	
InChI=1S/C4H7N3O2/c1-7-3(5)8-2-9-4(7)6/h5-6H,2H2,1H3	InChI=1S/C4H7N3O2/c1-7-3(5)8-2-9-4(7)6/h5-6H,2H2,1H3
