17
gdb 83412	2.74762	1.40455	1.14557	4.8898	69.02	-0.2492	0.0053	0.2545	1093.413	0.138077	-455.132894	-455.124832	-455.123888	-455.16556	30.726	
N	-0.1201489307	 1.5515811534	 0.1031203539	-0.520729
C	-0.038074347	 0.1160625947	 0.0698718139	-0.080227
C	-0.3910599417	-0.6972178905	 1.2813731149	-0.146596
C	-1.553284658	-0.069146476	 2.0542796657	-0.17211
N	-2.4078713401	-0.0776013667	 0.8218241843	-0.392092
H	-3.3405608493	-1.573312804	-0.2307082697	 0.303341
H	-2.6081819877	 0.8678873359	 0.5001895049	 0.233366
C	-1.3153419158	-0.6836345077	 0.0480890596	 0.182036
C	-1.6142425142	-1.7746568891	-0.9204459418	 0.377596
O	-2.9153022266	-2.1202895177	-0.9203069922	-0.380897
O	-0.7936385924	-2.3084648839	-1.620602894	-0.355263
H	 0.6864356782	 1.9425483369	 0.5799052447	 0.23954
H	-0.118354391	 1.9272404275	-0.8400724055	 0.240992
H	 0.7318347894	-0.3627181925	-0.5364301504	 0.115555
H	 0.2299700163	-1.5147899589	 1.6229726897	 0.116826
H	-1.9696304254	-0.7243461639	 2.8234442378	 0.121239
H	-1.3717427339	 0.9242777225	 2.4724496242	 0.117422
93.3972	147.3039	190.5581	242.5753	278.2831	287.4527	388.0945	477.273	519.4246	608.626	694.1046	734.9885	753.149	769.6823	814.1176	879.4661	906.5054	932.0304	984.4456	985.7947	1004.1163	1037.2285	1095.6596	1116.3685	1174.4466	1189.2472	1221.8613	1268.4845	1269.3046	1324.7446	1334.3408	1385.9966	1406.0076	1471.7493	1499.5546	1655.6604	1858.9844	3058.9165	3107.4997	3110.818	3206.7551	3476.3517	3497.8753	3573.1986	3576.5648
NC1C2C[NH2+]C12C([O-])=O	N[C@H]1[C@H]2CN[C@@]12C(=O)O	
InChI=1S/C5H8N2O2/c6-3-2-1-7-5(2,3)4(8)9/h2-3,7H,1,6H2,(H,8,9)	InChI=1S/C5H8N2O2/c6-3-2-1-7-5(2,3)4(8)9/h2-3,7H,1,6H2,(H,8,9)/t2-,3+,5-/m1/s1
