21
gdb 91167	2.41045	1.78832	1.47634	1.3784	81.77	-0.2343	0.0107	0.245	1024.6188	0.184089	-387.096706	-387.088771	-387.087827	-387.12849	32.463	
C	-0.1098744101	 1.5803524158	-0.0377992891	-0.40935
C	 0.0414610898	 0.0674213851	 0.0238437406	 0.156005
O	 0.8058146045	-0.4128874291	-1.0980662362	-0.300012
C	 1.884535605	-1.2243353658	-0.541031112	 0.057141
C	 2.8308866228	-0.2840958162	 0.1845169043	-0.08185
C	 2.1714160837	 0.1342149867	 1.2719175853	-0.084312
C	 0.8074405469	-0.5283377782	 1.2527668872	-0.118379
C	 1.1863980197	-1.9209678348	 0.6466121251	 0.027573
C	 0.0631760323	-2.8898741189	 0.2917049845	-0.430931
H	 0.8604383165	 2.0796424217	 0.0133731621	 0.121704
H	-0.5899248772	 1.8664617744	-0.9783279561	 0.12277
H	-0.7380006974	 1.9379778887	 0.7858635858	 0.105278
H	-0.957606738	-0.3885359774	-0.0179411739	 0.069742
H	 2.2870783478	-1.8378318312	-1.3462819524	 0.068731
H	 3.7933796951	 0.0475341145	-0.1830191653	 0.098092
H	 2.4871063978	 0.8819195811	 1.9886695811	 0.098144
H	 0.2349591351	-0.5212789178	 2.1809943667	 0.061222
H	 1.9169899604	-2.411100107	 1.2949463425	 0.075172
H	-0.5656875102	-2.510553617	-0.5165220007	 0.137575
H	 0.4807129761	-3.8474335145	-0.0372173353	 0.113896
H	-0.5729071104	-3.0921646703	 1.1605866857	 0.111787
157.4898	194.8149	232.966	245.5267	286.2324	306.5514	421.0915	487.2097	522.8547	559.1568	675.8026	726.5362	745.9373	796.1654	826.5892	862.2407	888.399	912.7097	928.2715	945.0272	961.577	984.6588	1038.1833	1066.1342	1071.0068	1100.4074	1117.6312	1131.2917	1147.5541	1193.0689	1250.1481	1259.1384	1283.7589	1300.8384	1336.4681	1357.9702	1379.2905	1394.2269	1406.4174	1413.5001	1485.1727	1491.9245	1501.9827	1511.8237	1633.5582	2997.9599	3036.1238	3037.5108	3076.2604	3093.2674	3104.8232	3111.0573	3127.5993	3128.7705	3130.4278	3198.1199	3224.3404
CC1OC2C=CC1C2C	C[C@H]1O[C@H]2C=C[C@@H]1[C@H]2C	
InChI=1S/C8H12O/c1-5-7-3-4-8(5)9-6(7)2/h3-8H,1-2H3	InChI=1S/C8H12O/c1-5-7-3-4-8(5)9-6(7)2/h3-8H,1-2H3/t5-,6-,7-,8+/m1/s1
