21
gdb 92455	2.32747	1.76507	1.44787	2.3981	76.72	-0.2448	0.0852	0.33	1037.4168	0.184379	-424.242081	-424.234048	-424.233104	-424.274207	32.108	
C	-0.1154987757	 1.5832479732	-0.0738931861	-0.417241
C	 0.027010733	 0.0713043605	 0.0199548479	 0.154007
O	 0.6672322668	-0.4455853874	-1.1784358529	-0.287023
C	 1.7723332848	-1.2060234036	-0.7197067516	 0.208439
O	 2.7889261898	-0.345071876	-0.2301053281	-0.274419
C	 2.3085742916	 0.1164943008	 1.0531271406	-0.087864
C	 0.9114480737	-0.5145493196	 1.1479702856	-0.113654
C	 1.2434228973	-1.906705854	 0.5410705117	-0.004108
C	 0.110754213	-2.9080008527	 0.3432029822	-0.435336
H	 0.8474441259	 2.0742141437	-0.2317650715	 0.134794
H	-0.7598800035	 1.8385177734	-0.919943255	 0.127667
H	-0.5756029638	 1.9852092619	 0.8354769869	 0.109855
H	-0.9792819686	-0.3646846432	 0.0855748027	 0.073499
H	 2.1703487064	-1.7903234539	-1.5482686109	 0.086843
H	 2.9725332839	-0.2428893668	 1.850577721	 0.096502
H	 2.3113992587	 1.209947653	 1.0709735234	 0.105043
H	 0.45881889	-0.4938943829	 2.1400262754	 0.072071
H	 2.0672656489	-2.3756109369	 1.0885062437	 0.079483
H	-0.6581459885	-2.5316810409	-0.334657425	 0.137303
H	 0.4982839328	-3.8380415072	-0.0855936564	 0.119111
H	-0.3632489466	-3.1606254512	 1.2976038865	 0.115029
127.7563	179.1119	223.4157	235.9736	270.8403	316.724	376.9768	488.119	506.173	571.9795	601.5127	742.0438	790.3074	801.4914	852.1437	912.4651	925.8752	934.5343	957.4642	968.5397	1016.5385	1031.4563	1056.8355	1095.0206	1106.3139	1114.9799	1138.7891	1143.9613	1190.0994	1222.7928	1258.6527	1287.4341	1315.2625	1325.2986	1361.7345	1374.8035	1393.4225	1409.2891	1410.712	1416.7392	1484.5304	1495.6526	1499.3115	1507.845	1537.9771	3000.9626	3014.1724	3039.1981	3041.066	3058.3135	3080.7201	3096.6184	3109.2127	3113.7705	3129.0251	3129.8111	3141.2738
CC1OC2OCC1C2C	C[C@H]1O[C@H]2OC[C@@H]1[C@H]2C	
InChI=1S/C7H12O2/c1-4-6-3-8-7(4)9-5(6)2/h4-7H,3H2,1-2H3	InChI=1S/C7H12O2/c1-4-6-3-8-7(4)9-5(6)2/h4-7H,3H2,1-2H3/t4-,5-,6-,7-/m1/s1
