18
gdb 38818	3.14607	1.81172	1.4773	0.8794	75.52	-0.2038	0.0219	0.2258	925.1991	0.150426	-401.931975	-401.925274	-401.92433	-401.963089	27.164	
C	 0.4225072202	 1.5166475638	 0.5120499572	-0.206859
C	 1.590150054	 1.9399815773	-0.337916001	-0.069763
C	 2.0418764683	 0.9293094374	-1.0714823596	-0.065386
C	 1.2437109317	-0.3194973585	-0.8080789371	-0.06825
C	 1.9479485162	-1.4202433793	-0.0161606375	 0.02419
O	 2.3220730077	-1.0015379583	 1.2998245193	-0.251116
C	 1.1100705337	-1.7494521815	 1.1404393725	 0.04433
C	-0.1245939106	-0.8648219535	 1.0985889147	-0.210482
N	 0.1452706252	 0.1423262874	 0.071714733	-0.073972
H	 0.6776950944	 1.5688827734	 1.5831031549	 0.105016
H	-0.4512368304	 2.170122684	 0.3642043191	 0.099273
H	 1.9856213006	 2.9482989644	-0.3226920563	 0.100433
H	 2.8729694048	 0.9545086182	-1.7651648354	 0.099425
H	 0.8601967742	-0.7682761907	-1.739920176	 0.076459
H	 2.6088876857	-2.1335829273	-0.5027284376	 0.092761
H	 1.087664503	-2.7320721976	 1.6059524129	 0.093822
H	-1.0017478939	-1.4794443115	 0.8457799318	 0.099562
H	-0.3281305946	-0.3899228777	 2.064549195	 0.110557
96.2912	172.3935	334.5449	386.9447	396.3988	476.0617	607.8118	680.5409	687.655	743.1607	806.5065	845.1707	879.3028	891.5363	905.676	945.6669	960.9777	962.6281	1003.9772	1033.589	1048.4564	1062.4416	1105.5012	1134.4744	1144.9975	1155.0129	1207.8476	1254.787	1264.7311	1298.1876	1312.2999	1319.5342	1344.1197	1361.6792	1380.5212	1437.8351	1497.0885	1516.4939	1696.2453	2952.7634	2965.3031	2982.8042	2992.0182	3065.1228	3137.6505	3151.0196	3199.484	3224.2694
C1C=CC2C3OC3CN12	C1C=C[C@H]2[C@H]3O[C@H]3CN12	
InChI=1S/C7H9NO/c1-2-5-7-6(9-7)4-8(5)3-1/h1-2,5-7H,3-4H2	InChI=1S/C7H9NO/c1-2-5-7-6(9-7)4-8(5)3-1/h1-2,5-7H,3-4H2/t5-,6-,7+/m0/s1
