20
gdb 87931	3.87715	1.04949	0.95313	3.1886	79.67	-0.2286	-0.0163	0.2122	1289.2209	0.1704	-403.152508	-403.143836	-403.142892	-403.186001	33.162	
C	-0.2293709028	 1.4249093981	-0.0421947795	-0.316617
N	 0.0626545849	 0.0001586984	 0.0346201332	-0.134398
C	 1.4438845735	-0.4221710591	-0.1918219138	-0.304543
C	 0.8224389663	-0.5146958863	 1.1627646041	 0.360768
C	 1.3292825749	 0.348431731	 2.3256023888	-0.303112
C	 1.9985421737	-0.6677159276	 3.2659747249	-0.321379
C	 1.2515124621	-1.9880657652	 3.0349878173	 0.401079
O	 1.3285255167	-2.9669481733	 3.7303951495	-0.312193
C	 0.3972872687	-1.8429940172	 1.7728423051	-0.391965
H	 0.5892021928	 2.0777999552	 0.2985491083	 0.100871
H	-0.4543201316	 1.680626816	-1.0822183031	 0.126771
H	-1.1178758427	 1.6466766321	 0.5578454265	 0.123792
H	 1.5757675057	-1.3088700852	-0.807884385	 0.113952
H	 2.1954488778	 0.3527217985	-0.3442101616	 0.103693
H	 2.0049223039	 1.1457870313	 2.0114200489	 0.109769
H	 0.4770161965	 0.8207311359	 2.8311324268	 0.110698
H	 3.044865992	-0.8377445632	 2.9800346551	 0.134584
H	 1.9955138758	-0.3933951922	 4.3233174195	 0.128819
H	-0.6574001209	-1.8063920592	 2.0777621429	 0.136376
H	 0.5077639527	-2.7066422382	 1.1132011824	 0.133034
59.3634	123.4601	181.2531	201.3386	236.9155	343.4441	379.172	441.8853	466.743	496.5042	536.8219	578.2517	719.1068	722.3154	805.5868	836.5388	902.1651	922.8	939.2432	989.992	1004.2768	1045.0125	1094.9996	1117.9717	1137.2889	1152.3665	1171.8094	1185.901	1205.8288	1224.1182	1254.3881	1272.2494	1299.4705	1324.5649	1412.9854	1442.2749	1449.4894	1450.9928	1491.4134	1494.9888	1500.1665	1514.367	1849.3353	2980.7371	3027.0091	3031.1753	3036.8559	3069.0758	3079.278	3102.7032	3106.0957	3107.361	3111.5504	3165.9741
CN1CC11CCC(=O)C1	CN1C[C@]21CCC(=O)C2	
InChI=1S/C7H11NO/c1-8-5-7(8)3-2-6(9)4-7/h2-5H2,1H3	InChI=1S/C7H11NO/c1-8-5-7(8)3-2-6(9)4-7/h2-5H2,1H3/t7-,8?/m0/s1
