21
gdb 120157	3.39741	0.90834	0.82168	2.4965	79.68	-0.2325	0.0789	0.3115	1474.5651	0.180751	-424.158995	-424.149545	-424.148601	-424.193641	35.251	
C	 0.0272812253	 1.4650221319	 0.1212672474	-0.514738
C	-0.0183999372	-0.0210356728	-0.0503520917	 0.394008
C	 0.6272750588	-0.9211923236	-1.1378751277	-0.262694
C	 0.0794176238	-1.8137921606	-0.0050566113	 0.040093
O	 0.6544052112	-0.8700088058	 0.9783533794	-0.344397
C	-1.2416008252	-0.9938104155	-0.0034420579	-0.021115
C	-2.1310849487	-0.9963388142	 1.2262934214	-0.218385
C	-3.0122054267	-2.2376827583	 1.3148264647	-0.072105
O	-3.850369604	-2.0947317654	 2.4515603862	-0.419111
H	 1.0634980964	 1.8139758194	 0.1613801112	 0.134445
H	-0.4726207846	 1.9576478078	-0.718777977	 0.125872
H	-0.4754453836	 1.7631376919	 1.046336523	 0.136943
H	 0.1486194119	-0.97019885	-2.1198098738	 0.090116
H	 1.7152242738	-0.865034014	-1.1917637378	 0.103649
H	 0.2402008857	-2.8772375064	 0.1739403554	 0.089612
H	-1.8172344899	-1.0478491139	-0.9352608025	 0.062997
H	-1.5121715461	-0.9272657329	 2.1245833857	 0.124611
H	-2.7875380785	-0.1170192881	 1.2110871443	 0.101104
H	-3.6084988877	-2.3413771046	 0.3923645129	 0.079001
H	-2.3817950685	-3.1382211755	 1.3954539219	 0.085705
H	-4.3876346363	-2.8881420894	 2.5311365364	 0.284389
74.4297	86.0417	111.5603	185.0033	234.2789	262.1839	280.579	322.2574	366.1466	417.2908	563.9962	636.3208	669.1881	726.446	760.8189	804.9026	864.1146	894.6394	911.0453	959.2951	1011.9357	1026.2276	1030.4674	1067.6246	1081.7815	1111.4812	1135.1435	1149.6655	1172.3223	1199.0183	1220.9048	1239.6239	1247.9853	1252.1216	1311.0055	1325.5883	1329.5881	1406.8519	1420.3134	1460.8904	1476.3756	1488.8514	1494.8021	1495.4085	1528.1786	2953.4636	2980.9915	3031.9403	3036.4804	3039.4265	3059.6383	3106.3309	3113.054	3114.2952	3115.4074	3144.0247	3830.6414
CC12CC(O1)C2CCO	C[C@@]12C[C@@H](O1)[C@H]2CCO	
InChI=1S/C7H12O2/c1-7-4-6(9-7)5(7)2-3-8/h5-6,8H,2-4H2,1H3	InChI=1S/C7H12O2/c1-7-4-6(9-7)5(7)2-3-8/h5-6,8H,2-4H2,1H3/t5-,6-,7+/m1/s1
