18
gdb 27535	5.08263	0.96117	0.85966	0.9506	79.19	-0.2234	0.0127	0.2361	1373.8678	0.148165	-401.979773	-401.971368	-401.970424	-402.013914	30.774	
C	 0.0194257285	 1.4535956796	-0.1006658874	-0.488508
C	-0.033451954	-0.0308528017	-0.0545688928	 0.380646
N	-1.0727542811	-0.8023519015	-0.0903397586	-0.350159
C	-0.5644286397	-2.1025986152	-0.0198938986	 0.252571
C	 0.7869675725	-2.0240776298	 0.0497692316	-0.137203
O	 1.1439005484	-0.7008822584	 0.036052896	-0.174567
C	-1.4588609602	-3.2748089015	-0.0235185004	-0.108393
C	-0.9434526695	-4.6557302351	 0.2947348129	-0.272417
C	-1.844816714	-3.9565355252	 1.2764282013	-0.248026
H	 0.5992407803	 1.8009857894	-0.9620994843	 0.144749
H	-0.9965972776	 1.8414709841	-0.1747321561	 0.156318
H	 0.4925766581	 1.8593568708	 0.7995441464	 0.144683
H	 1.5916919953	-2.736095403	 0.1006421283	 0.139605
H	-2.2510191731	-3.2105999238	-0.763196353	 0.100871
H	-1.3415665126	-5.4869723396	-0.2759375439	 0.114855
H	 0.10234466	-4.7647942277	 0.5601186211	 0.112223
H	-1.3995942285	-3.5742683041	 2.1879243653	 0.117417
H	-2.8669673029	-4.3021536474	 1.382398632	 0.115334
33.9923	96.2319	136.3565	166.4588	249.3424	318.4134	398.689	458.5086	596.6507	662.8491	714.2256	722.4433	752.0464	792.884	830.5268	901.997	929.7391	942.3047	998.7151	1044.8694	1059.179	1066.4611	1081.8945	1096.5542	1128.5193	1141.9061	1196.4213	1206.8334	1235.339	1242.6472	1345.4337	1411.725	1415.1548	1467.749	1476.3494	1481.4414	1503.0072	1626.6363	1637.3337	3043.6965	3097.6757	3135.6697	3139.9942	3153.8004	3157.7173	3214.6073	3230.9043	3295.1043
CC1=NC(=CO1)C1CC1	Cc1nc(co1)C1CC1	
InChI=1S/C7H9NO/c1-5-8-7(4-9-5)6-2-3-6/h4,6H,2-3H2,1H3	InChI=1S/C7H9NO/c1-5-8-7(4-9-5)6-2-3-6/h4,6H,2-3H2,1H3
