17
gdb 89340	1.9516	1.81238	1.14513	4.8304	75.28	-0.2293	0.0079	0.2371	1098.4193	0.134469	-417.965755	-417.956885	-417.955941	-417.999095	32.845	
C	-0.204057695	 1.4604395929	 0.0817270168	-0.341746
N	 0.0833644639	 0.03667472	 0.0134964297	-0.121944
C	 1.1526009027	-0.4352594585	-0.9136233218	-0.223309
C	 1.8570795234	-1.1445807578	 0.2350179165	 0.344563
O	 2.3685640227	-2.4010549595	 0.0575334315	-0.440392
C	 2.2039386201	-0.1856475743	 1.3227368261	-0.406526
C	 0.7321898263	-0.5933352723	 1.1574687781	 0.146343
C	-0.007589013	-1.1924355968	 2.2184840993	 0.227537
N	-0.5902828774	-1.6907298882	 3.0865020658	-0.356074
H	 0.6754855302	 2.0917142726	 0.2969570251	 0.098014
H	-0.6300393474	 1.7848135197	-0.8723508786	 0.130644
H	-0.9509193194	 1.6366477718	 0.8612778674	 0.140592
H	 0.7600585818	-1.1209146681	-1.6699152274	 0.13309
H	 1.7359605594	 0.356283205	-1.4006511396	 0.107454
H	 2.9945593743	-2.5989656419	 0.761154182	 0.300639
H	 2.6775752265	-0.6302405109	 2.194520313	 0.134984
H	 2.5177977112	 0.8347520462	 1.1144603361	 0.126132
104.045	144.4554	169.2294	176.5879	217.4325	247.5201	357.2918	403.6571	408.0216	458.1919	545.203	568.8496	622.5385	678.4791	756.8399	817.4095	850.4291	948.0462	969.9993	1009.4224	1056.9721	1087.0221	1117.6804	1139.2406	1168.4353	1213.3861	1232.4907	1269.2399	1325.2092	1386.3203	1416.817	1450.0382	1480.3395	1488.2393	1500.8389	1512.5893	2338.9441	2956.5925	3024.2325	3072.5337	3090.6862	3103.9621	3115.1063	3192.6436	3831.6407
CN1CC2(O)CC12C#N	CN1C[C@@]2(O)C[C@@]12C#N	
InChI=1S/C6H8N2O/c1-8-4-6(9)2-5(6,8)3-7/h9H,2,4H2,1H3	InChI=1S/C6H8N2O/c1-8-4-6(9)2-5(6,8)3-7/h9H,2,4H2,1H3/t5-,6-/m0/s1
