17
gdb 12390	2.94297	2.20251	1.36168	3.3869	65.22	-0.2345	0.0262	0.2607	905.95	0.143728	-401.039882	-401.032285	-401.031341	-401.071859	28.382	
C	-0.0054805524	 1.5275785986	-0.0509698618	-0.397079
C	 0.0563250918	 0.0081887882	-0.0021156611	 0.018368
O	 0.6834399768	-0.4473761889	-1.1958048238	-0.256758
C	 0.9514480808	-1.8323611928	-1.1640732664	-0.077759
C	 2.0152424227	-2.1282799919	-0.1144379639	-0.156178
N	 1.6051693394	-1.5297578899	 1.1460402804	-0.324671
C	 0.7495193061	-0.4761015407	 1.2832301232	 0.393181
O	 0.5026872613	 0.0282971066	 2.3636997384	-0.380839
H	 1.0014712198	 1.9440085588	-0.1448833533	 0.125285
H	-0.5970508242	 1.8500064116	-0.9111029128	 0.119767
H	-0.4560239227	 1.9023422617	 0.8687251887	 0.147052
H	-0.9697009202	-0.3989854971	 0.0461342624	 0.096959
H	 0.0340752189	-2.4029463544	-0.9441292572	 0.098022
H	 1.3054535769	-2.1167155837	-2.1584796823	 0.11639
H	 2.1301158295	-3.2111909542	 0.0126839402	 0.11267
H	 2.9816091353	-1.7243490537	-0.447561835	 0.117157
H	 2.07593137	-1.7975680181	 1.9986303943	 0.248433
73.7496	154.016	214.5985	275.0548	309.2018	393.5143	436.9735	475.5202	501.3438	577.0446	686.3151	693.0161	789.6623	875.6734	910.2262	964.9374	1050.7709	1076.9805	1115.4007	1118.2826	1154.6513	1166.0392	1263.4896	1282.9516	1322.522	1348.213	1364.5874	1393.898	1399.7764	1414.5729	1478.9842	1485.6323	1495.1396	1498.5679	1519.1392	1786.9952	2946.0113	2974.4297	3004.9608	3055.204	3057.1213	3097.5922	3126.5971	3156.6149	3603.1281
CC1OCCNC1=O	C[C@H]1OCCNC1=O	
InChI=1S/C5H9NO2/c1-4-5(7)6-2-3-8-4/h4H,2-3H2,1H3,(H,6,7)	InChI=1S/C5H9NO2/c1-4-5(7)6-2-3-8-4/h4H,2-3H2,1H3,(H,6,7)/t4-/m1/s1
