17
gdb 72876	2.95323	1.44242	1.15495	1.8108	69.26	-0.246	-0.0368	0.2092	1074.7742	0.133668	-458.926305	-458.917971	-458.917027	-458.959612	30.474	
C	-0.3518503704	 1.5845308205	-0.053850089	-0.486816
C	-0.0525975743	 0.1163970053	 0.0442573715	 0.39218
C	-1.1582766143	-0.9315806523	 0.2826609065	-0.119682
O	-0.3333762114	-1.6255355145	 1.2603941358	-0.292201
C	 0.7111937737	-0.6582360339	 1.1478184281	 0.002531
C	 1.7268933654	-0.977399355	 0.0144498103	-0.007304
O	 0.8888232625	-0.339655237	-0.9600884169	-0.314719
C	 3.0586493103	-0.2874104249	 0.2131817525	 0.136033
O	 3.3222867345	 0.8188843417	-0.1779112179	-0.233633
H	 0.5789620802	 2.1565406423	-0.0636396571	 0.153343
H	-0.8900408744	 1.7938930154	-0.985114099	 0.136464
H	-0.9740864646	 1.9148855758	 0.7832859077	 0.123927
H	-2.076341441	-0.5509268259	 0.7465942487	 0.107404
H	-1.3999666881	-1.553069027	-0.5850529537	 0.118651
H	 1.0702541984	-0.2858059747	 2.1089981525	 0.099103
H	 1.8712720516	-2.050148982	-0.1659745061	 0.105781
H	 3.7810668917	-0.8857337738	 0.8167510359	 0.078938
66.6719	107.3429	207.023	209.0112	242.9275	291.8642	334.6325	372.3035	428.8617	630.4363	691.07	788.4365	833.1667	853.4416	901.4342	917.6613	935.5964	966.1288	991.7306	1026.2642	1065.143	1081.1708	1138.3594	1159.8794	1175.4716	1207.7969	1210.3683	1284.859	1303.2201	1343.4943	1383.5258	1412.1826	1414.6382	1478.5983	1493.4333	1504.4337	1833.8235	2858.8658	3024.6234	3038.1873	3039.3433	3090.7687	3095.7496	3106.995	3132.489
CC12COC1C(O2)C=O	C[C@]12CO[C@H]1[C@@H](O2)C=O	
InChI=1S/C6H8O3/c1-6-3-8-5(6)4(2-7)9-6/h2,4-5H,3H2,1H3	InChI=1S/C6H8O3/c1-6-3-8-5(6)4(2-7)9-6/h2,4-5H,3H2,1H3/t4-,5-,6-/m0/s1
