21
gdb 109822	2.16155	1.2303	0.91103	0.6253	85.23	-0.2396	0.0581	0.2977	1364.5493	0.179506	-387.031303	-387.020825	-387.019881	-387.066935	37.857	
C	 0.6594684568	 0.9217163462	-0.424799279	-0.247027
O	-0.1583856063	-0.0163981012	 0.2551104774	-0.239609
C	 0.5103157312	-0.6694632532	 1.2867914073	 0.111709
C	-0.1012488902	-1.9500628728	 1.7797776972	-0.091924
C	-1.4060943856	-2.4682444533	 1.2109496087	-0.402653
C	 1.209698405	-1.9864282444	 1.0051506907	-0.06197
C	 1.270528361	-2.5452314869	-0.411097065	-0.374512
C	 2.5260942025	-2.2266136688	-1.086176386	 0.308715
C	 3.5680769965	-1.9621861009	-1.6250808807	-0.455962
H	 1.5349150653	 0.4426136501	-0.8817606861	 0.13086
H	 0.0436297462	 1.3754998813	-1.204807467	 0.124788
H	 1.0079303971	 1.7115784844	 0.2575964635	 0.106458
H	 0.9658861252	 0.0063511639	 2.0126342521	 0.080199
H	 0.0070205764	-2.1224788167	 2.8477110127	 0.086299
H	-1.5579412281	-2.1461994223	 0.1796164411	 0.134153
H	-1.4448006313	-3.5625366454	 1.2431461187	 0.113607
H	-2.2508952703	-2.0893384202	 1.7954450463	 0.118274
H	 2.1022116678	-2.1896301007	 1.5898638757	 0.09134
H	 1.1435901816	-3.635609234	-0.3873341594	 0.130409
H	 0.4364781442	-2.1500530229	-0.9997348937	 0.143578
H	 4.4845360348	-1.7341737223	-2.1100859644	 0.193269
62.7532	107.8481	120.1436	153.8099	158.9849	182.5134	216.5106	250.1153	324.764	342.6027	445.4908	495.8267	577.3293	595.9781	615.2851	633.6049	750.4418	817.6364	885.9946	925.1176	943.4023	980.6635	1003.065	1066.7191	1101.1523	1116.0942	1147.5428	1156.5762	1168.561	1189.6285	1229.7778	1249.5609	1266.1072	1311.7676	1368.7759	1385.6209	1416.837	1444.0955	1467.6577	1485.7804	1489.5871	1494.8041	1505.9884	1512.8699	2235.231	2988.4631	3021.0257	3037.6147	3053.2797	3075.1565	3080.8167	3092.3533	3120.264	3126.3067	3140.8611	3150.8144	3506.4187
COC1C(C)C1CC#C	CO[C@H]1[C@@H](C)[C@H]1CC#C	
InChI=1S/C8H12O/c1-4-5-7-6(2)8(7)9-3/h1,6-8H,5H2,2-3H3	InChI=1S/C8H12O/c1-4-5-7-6(2)8(7)9-3/h1,6-8H,5H2,2-3H3/t6-,7+,8-/m0/s1
