18
gdb 92012	2.80292	1.53681	1.26263	2.2418	71.32	-0.2357	-0.0416	0.1941	1028.128	0.148671	-439.070271	-439.062535	-439.061591	-439.102543	30.053	
O	-0.213650127	 1.1831806003	 1.037155514	-0.427283
C	-0.1382064654	 0.0759015406	 0.1563576996	 0.058465
C	 0.84057269	-0.9568220876	 0.7491942103	-0.165603
N	 0.0772201272	-1.9565729269	 1.5246237696	-0.101195
C	-0.8667378891	-1.3751036561	 2.4957256714	-0.24726
C	-1.3364726174	-1.8062940308	 1.1512762704	-0.056127
C	-1.4611251826	-0.7341793117	 0.0614537083	-0.12906
C	-2.7451951379	 0.0540023443	 0.1339418107	 0.159844
O	-2.8310826016	 1.2594283927	 0.1969257786	-0.267058
H	-0.9991004298	 1.6877249173	 0.7785003632	 0.298255
H	 0.1816400007	 0.4050852024	-0.8425955337	 0.077562
H	 1.3614212452	-1.4932394858	-0.0509216642	 0.106934
H	 1.5864656046	-0.4623295108	 1.3765160644	 0.127063
H	-1.0675006234	-2.0113375153	 3.3530775055	 0.115521
H	-0.8054124845	-0.3114604378	 2.6991377678	 0.146684
H	-1.9151717832	-2.718402019	 1.0338504097	 0.095932
H	-1.4914509635	-1.2603137648	-0.9056000398	 0.108491
H	-3.6674851024	-0.5671862312	 0.1165906243	 0.098836
87.448	146.5998	232.5439	243.4722	334.4068	373.7666	417.5114	438.2179	594.7452	641.3602	705.2462	715.6488	782.5148	815.0427	874.4316	901.0527	932.5627	978.3302	992.3648	1013.6946	1037.8843	1083.1698	1120.0382	1131.5917	1148.2788	1183.0501	1225.9619	1248.1817	1264.8217	1286.8061	1323.7432	1340.1418	1365.4304	1388.4734	1429.9307	1438.4326	1483.1447	1500.9386	1801.7342	2893.932	2987.484	3000.7295	3051.9196	3110.6914	3117.5659	3141.5926	3217.5799	3714.6024
OC1CN2CC2C1C=O	O[C@H]1CN2C[C@H]2[C@H]1C=O	
InChI=1S/C6H9NO2/c8-3-4-5-1-7(5)2-6(4)9/h3-6,9H,1-2H2	InChI=1S/C6H9NO2/c8-3-4-5-1-7(5)2-6(4)9/h3-6,9H,1-2H2/t4-,5+,6+,7?/m1/s1
