22
gdb 95159	2.57764	1.39569	1.06317	1.1674	81.95	-0.2198	0.075	0.2948	1211.5529	0.195207	-404.335628	-404.326848	-404.325904	-404.368486	35.045	
C	 0.0673700624	 1.5082505464	-0.0290179237	-0.455609
C	-0.1117866063	 0.0044786303	 0.015187454	 0.33373
C	-0.8728242672	-0.6113106739	 1.146330136	-0.287093
N	 0.585425074	-0.6560442439	 1.1312750213	-0.118708
C	 1.25805182	-1.9368185045	 0.915601759	-0.15304
C	 0.8234325573	-2.7266340957	-0.3296212634	-0.249843
C	 0.8301489744	-1.8029702333	-1.5464123109	 0.146558
O	 0.4766605545	-2.4691716045	-2.7514422381	-0.442797
C	-0.1902083128	-0.6799183651	-1.3587312483	-0.287365
H	 0.9909278706	 1.7757970402	-0.555639558	 0.114595
H	-0.7672757855	 1.983384823	-0.5574977092	 0.113693
H	 0.1222617544	 1.9203476798	 0.981486369	 0.122513
H	-1.3106060243	 0.0089183942	 1.9260320255	 0.105148
H	-1.4320254751	-1.5207978097	 0.9313757351	 0.102023
H	 2.3305752714	-1.7169983096	 0.8299038803	 0.103528
H	 1.1326214449	-2.5406234132	 1.821174371	 0.104313
H	 1.5165022461	-3.5646707545	-0.4785903071	 0.084528
H	-0.1778091533	-3.1588913199	-0.2123569086	 0.104139
H	 1.8380244385	-1.3613461739	-1.6389320293	 0.062932
H	 1.1091612608	-3.1808204617	-2.8936618646	 0.277399
H	-1.1827546918	-1.1164110195	-1.5167873618	 0.113211
H	-0.0498166729	 0.0641700289	-2.1479512284	 0.106144
98.1327	174.1677	221.7885	260.4769	289.1526	302.1624	364.0618	369.1083	414.7791	432.9687	474.1901	507.1529	602.9645	719.0659	746.0964	834.5188	899.0796	911.8162	925.8797	951.6761	956.6009	1011.458	1055.2488	1069.3138	1088.5443	1102.0586	1121.278	1134.819	1174.948	1191.0772	1234.4825	1249.2881	1274.894	1298.7341	1337.1646	1344.6614	1376.1052	1392.6109	1408.847	1412.8577	1434.7812	1484.7323	1487.8069	1490.3942	1493.661	1497.5489	1522.3234	2943.1419	3014.4618	3022.2978	3025.3259	3044.8856	3059.3231	3070.4793	3084.9364	3085.3498	3090.194	3120.9584	3165.1936	3813.9562
CC12CN1CCC(O)C2	C[C@]12CN1CC[C@@H](O)C2	
InChI=1S/C7H13NO/c1-7-4-6(9)2-3-8(7)5-7/h6,9H,2-5H2,1H3	InChI=1S/C7H13NO/c1-7-4-6(9)2-3-8(7)5-7/h6,9H,2-5H2,1H3/t6-,7+,8?/m1/s1
