20
gdb 111446	2.86655	1.44616	1.16033	2.5635	77.05	-0.2248	0.0723	0.2971	1108.6234	0.172659	-403.095944	-403.087989	-403.087045	-403.128382	31.587	
O	-0.0206530902	 1.4186318213	 0.139306206	-0.422128
C	 0.0571272543	 0.002068037	 0.0655896067	-0.079242
C	-1.3705129487	-0.5347622126	 0.0612906423	-0.019065
C	-1.4948292328	-2.0537750596	-0.1018469556	-0.06804
C	-0.9242736783	-2.9764758006	 0.9531757384	-0.308351
C	-2.369987508	-2.5481889005	 1.0255728125	 0.005982
N	-2.8214040499	-1.4278372763	 1.8534893833	-0.110498
C	-1.8015939809	-0.7283604894	 2.6489371987	-0.253637
C	-2.1886935436	-0.2020564193	 1.3159769705	-0.014224
H	 0.8733051018	 1.7689836516	 0.1892683911	 0.287155
H	 0.5747752509	-0.3224120068	-0.8512893176	 0.086399
H	 0.6142124747	-0.4110518327	 0.9200006191	 0.081946
H	-1.8772609687	-0.064421909	-0.7895651251	 0.089034
H	-1.5973640573	-2.4410477995	-1.1097818627	 0.087788
H	-0.7451261816	-4.0030361561	 0.6495239573	 0.111575
H	-0.1991425123	-2.6134355467	 1.6706266807	 0.113268
H	-3.1375787694	-3.2972845718	 0.8687096136	 0.095183
H	-2.1870966321	-0.2443326412	 3.542622271	 0.113549
H	-0.8254446119	-1.1800215231	 2.7870149444	 0.108148
H	-2.818523346	 0.6815510053	 1.2706973155	 0.095157
93.3651	144.2554	186.8169	257.6851	282.329	377.8114	424.0249	498.475	535.2729	661.4033	682.02	710.9183	794.5866	814.0908	835.0946	853.0458	946.706	963.1849	989.0803	1018.0069	1046.3566	1058.5889	1061.4875	1083.3557	1093.6994	1112.6287	1119.6648	1123.9454	1143.5416	1164.5577	1205.0926	1243.3276	1246.0019	1281.4478	1309.1937	1323.9385	1354.411	1382.6969	1394.7462	1455.8023	1479.5467	1514.9328	1523.1948	2970.5569	3001.5359	3042.813	3115.8204	3137.782	3146.2041	3160.8718	3173.1993	3198.248	3219.5512	3831.7972
OCC1C2CC2N2CC12	OC[C@H]1[C@H]2C[C@H]2N2C[C@@H]12	
InChI=1S/C7H11NO/c9-3-5-4-1-6(4)8-2-7(5)8/h4-7,9H,1-3H2	InChI=1S/C7H11NO/c9-3-5-4-1-6(4)8-2-7(5)8/h4-7,9H,1-3H2/t4-,5+,6-,7+,8?/m1/s1
