21
gdb 110291	2.3187	1.33563	1.22694	1.3923	78.07	-0.2452	0.0704	0.3156	1163.4496	0.182092	-424.183299	-424.173906	-424.172961	-424.216977	35.883	
C	-0.3941059234	 1.5814832471	 0.1631530732	-0.419295
C	-0.040720882	 0.09896155	 0.0840086286	 0.021422
C	 0.4537002291	-0.5031248329	-1.2425273298	-0.141505
C	 1.8338642894	-0.0655504689	-1.6269334015	 0.105915
O	 2.3701188548	 1.2146711778	-1.4069970231	-0.417076
C	 1.7237585261	-1.0607404967	-0.5272782233	-0.13609
C	 1.2421235515	-0.4636083009	 0.8021113415	 0.016101
C	 2.1671552899	 0.4558843352	 1.580867347	-0.110202
O	 1.4925110748	 0.7964197101	 2.7913527354	-0.428196
H	 0.4247152255	 2.2133945851	-0.1855648361	 0.112395
H	-1.2766076367	 1.8003146875	-0.4491418427	 0.100424
H	-0.6180331602	 1.859923425	 1.1972601803	 0.126919
H	-0.9018751596	-0.4795624441	 0.4318351577	 0.075711
H	-0.1886059927	-1.0003834794	-1.962019802	 0.079364
H	 2.1712808218	-0.515737199	-2.5625816259	 0.088022
H	 1.9547666789	 1.8179366305	-2.0325230254	 0.285383
H	 2.1815925429	-2.0396125497	-0.6178824126	 0.084989
H	 0.9434742115	-1.2664258853	 1.4830803424	 0.08106
H	 3.1092026897	-0.0784796595	 1.7903675726	 0.07844
H	 2.4171058915	 1.3455834421	 0.993842276	 0.11221
H	 2.0095122572	 1.471652726	 3.2396142375	 0.284009
105.0866	136.0055	167.3728	221.429	229.014	253.9557	265.0867	307.7262	352.8093	382.8867	488.5236	543.9166	649.9678	717.0135	739.9939	764.1098	812.401	903.5432	966.9573	978.0497	986.6498	1007.4596	1037.4183	1053.2329	1071.1654	1084.3555	1112.3523	1146.789	1165.3433	1216.3571	1221.342	1254.0843	1261.6117	1284.3519	1300.4537	1311.8749	1354.7917	1365.9725	1387.0673	1404.1756	1454.1614	1464.4124	1489.268	1513.0912	1532.1365	2961.1919	3035.5354	3044.2185	3060.155	3074.8557	3083.895	3101.5066	3135.4344	3158.0343	3171.4005	3804.4926	3832.496
CC1C2C(O)C2C1CO	C[C@H]1[C@H]2[C@@H](O)[C@H]2[C@H]1CO	
InChI=1S/C7H12O2/c1-3-4(2-8)6-5(3)7(6)9/h3-9H,2H2,1H3	InChI=1S/C7H12O2/c1-3-4(2-8)6-5(3)7(6)9/h3-9H,2H2,1H3/t3-,4+,5-,6+,7-/m1/s1
