18
gdb 72851	3.03908	1.32056	1.10241	4.4759	76.21	-0.2724	0.0052	0.2776	1138.4511	0.14726	-401.935576	-401.927248	-401.926304	-401.968698	31.388	
C	-0.4051632917	 1.5820531571	 0.0772092557	-0.475171
C	-0.0691056068	 0.1166405216	 0.0834815484	 0.449281
C	-1.1843212772	-0.9571508446	 0.1103684964	-0.268916
C	-0.3693132803	-1.7663772087	 1.1686938912	-0.24509
C	 0.7256257617	-0.6672678933	 1.1783056094	-0.134776
C	 1.7888618934	-0.8516135957	 0.0742512868	-0.030693
O	 0.9489518318	-0.2231039769	-0.9118702485	-0.32148
C	 3.0402994505	-0.1122396087	 0.2848435717	 0.279407
N	 4.0208384258	 0.469545245	 0.4740708424	-0.320624
H	 0.4944984972	 2.1909513965	 0.2033702684	 0.138854
H	-0.871478006	 1.8552083949	-0.876125335	 0.135592
H	-1.1088245437	 1.8213961243	 0.8807441277	 0.121511
H	-2.1394425607	-0.584914749	 0.490047323	 0.107867
H	-1.349216894	-1.4407444899	-0.8543527186	 0.116935
H	-0.8791762495	-1.8682334146	 2.1283359143	 0.114591
H	-0.0282873384	-2.7573589996	 0.8581218718	 0.109884
H	 1.0519623809	-0.2526086203	 2.1299654567	 0.101048
H	 2.033125507	-1.888710108	-0.1878135119	 0.121778
61.0001	151.633	172.4037	213.1257	271.6458	329.5134	360.8998	395.191	479.4794	551.3547	637.8149	721.514	741.3277	839.6544	869.2106	905.959	918.3825	945.9353	950.0172	986.9851	1009.9631	1042.968	1113.8295	1139.7453	1163.1019	1197.6398	1224.2068	1234.8025	1244.35	1277.0902	1296.2732	1329.8167	1371.0277	1411.9243	1466.2067	1480.149	1487.8145	1490.1877	2353.8448	3031.9889	3034.6258	3063.996	3069.0281	3103.6051	3112.6391	3118.3039	3130.3863	3137.2593
CC12CCC1C(O2)C#N	C[C@]12CC[C@H]1[C@@H](O2)C#N	
InChI=1S/C7H9NO/c1-7-3-2-5(7)6(4-8)9-7/h5-6H,2-3H2,1H3	InChI=1S/C7H9NO/c1-7-3-2-5(7)6(4-8)9-7/h5-6H,2-3H2,1H3/t5-,6-,7-/m0/s1
