17
gdb 49759	2.93158	1.53808	1.23663	3.4543	73.06	-0.2429	-0.0163	0.2267	1026.9028	0.136486	-421.821066	-421.813513	-421.812569	-421.853733	28.178	
O	-0.7339727934	 1.012860597	-0.6169900175	-0.246195
C	 0.0529167285	 1.1614936221	 0.2806399877	 0.168815
C	 1.3707943008	 1.9111230231	 0.1499903748	-0.174144
C	 1.5058816562	 2.7278159222	-1.1148986525	-0.054718
C	 1.8332846748	 3.9967387742	-0.873329263	-0.094203
C	 1.9537126504	 4.2934295289	 0.5955562803	-0.121103
C	 0.6707319953	 4.8393468459	 1.2746257678	-0.074051
O	 0.3082152364	 3.5166235264	 1.7314667328	-0.287852
C	 1.5595271733	 2.9557959528	 1.2742401473	 0.097013
H	-0.1256946947	 0.7175718156	 1.2845898341	 0.085058
H	 2.1539067747	 1.1368488771	 0.219418737	 0.102195
H	 1.3264203503	 2.2968208596	-2.0916380409	 0.116926
H	 1.9738122409	 4.7578489094	-1.6330658307	 0.102623
H	 2.8891328896	 4.776398857	 0.8865273352	 0.086177
H	 0.8502996138	 5.5188717401	 2.1172896495	 0.101768
H	-0.087887663	 5.2684648802	 0.6115534172	 0.113298
H	 2.1662174059	 2.6005233683	 2.1133120908	 0.078392
65.527	113.3879	181.0757	210.6814	284.7844	446.9897	453.6535	661.4739	681.5789	735.4261	778.182	829.8772	836.315	881.5936	894.735	926.2892	974.0976	996.2913	1025.8769	1041.0566	1054.9366	1076.9232	1104.88	1136.6169	1164.5473	1218.5074	1245.4635	1260.8708	1289.0687	1313.6468	1325.4183	1357.6013	1381.086	1430.0162	1518.7421	1679.6928	1830.1307	2890.573	2966.5924	3017.4272	3052.3803	3073.7038	3087.4401	3190.086	3225.1379
O=CC1C=CC2COC12	O=C[C@H]1C=C[C@H]2CO[C@@H]12	
InChI=1S/C7H8O2/c8-3-5-1-2-6-4-9-7(5)6/h1-3,5-7H,4H2	InChI=1S/C7H8O2/c8-3-5-1-2-6-4-9-7(5)6/h1-3,5-7H,4H2/t5-,6+,7+/m1/s1
