19
gdb 75276	2.85087	1.44569	1.14264	2.8649	81.32	-0.2376	-0.0177	0.2199	1122.0355	0.159459	-385.921928	-385.913845	-385.912901	-385.954711	31.239	
C	-0.4336458327	 1.3401774669	-0.0430080772	-0.494139
C	-0.0549337364	-0.1082889754	-0.043908857	 0.331445
C	 0.0428519291	-0.9159317151	-1.1050347607	-0.161292
C	 0.4779735702	-2.3237079279	-0.7699316923	-0.276509
C	 0.4669216904	-2.3151516494	 0.7723516325	-0.141092
C	 0.2730824592	-0.8333461825	 1.2425137658	-0.131944
C	-0.9676277299	-1.2448548355	 2.1043948178	-0.35653
C	-0.888502796	-2.62971492	 1.4377018438	 0.404792
O	-1.6241494708	-3.5721469945	 1.3904505806	-0.296292
H	 0.3764853293	 1.9586252944	 0.3646172118	 0.125932
H	-0.6614849691	 1.6999544598	-1.0497652314	 0.125863
H	-1.3108746173	 1.523906579	 0.5903040442	 0.126759
H	-0.1512595382	-0.6034339649	-2.1264719547	 0.088109
H	-0.1999623528	-3.0876233476	-1.1694454163	 0.125327
H	 1.4726760659	-2.5474653199	-1.1770617722	 0.10765
H	 1.2877251136	-2.8729218363	 1.2302539044	 0.095604
H	 1.0818332278	-0.359863846	 1.8064862298	 0.073739
H	-0.7615962144	-1.3024043535	 3.178940571	 0.126774
H	-1.9004038279	-0.6929952418	 1.9581157102	 0.125805
62.7437	164.4658	185.7896	230.7444	266.3371	326.8093	425.9106	512.4495	535.2964	577.1787	661.1916	742.124	758.9774	796.9102	835.996	877.9447	935.2805	947.6272	969.7954	1005.3797	1013.935	1040.2834	1067.0023	1078.8464	1097.6483	1160.6625	1169.5692	1190.3924	1223.1128	1241.3146	1266.449	1288.713	1324.6817	1353.6375	1414.9606	1437.5778	1479.0569	1487.7542	1491.0658	1713.4471	1888.3691	3016.9459	3017.9992	3047.5525	3053.7585	3061.9171	3064.4185	3086.3351	3105.4369	3112.6525	3179.9434
CC1=CCC2C1CC2=O	CC1=CC[C@H]2[C@@H]1CC2=O	
InChI=1S/C8H10O/c1-5-2-3-6-7(5)4-8(6)9/h2,6-7H,3-4H2,1H3	InChI=1S/C8H10O/c1-5-2-3-6-7(5)4-8(6)9/h2,6-7H,3-4H2,1H3/t6-,7+/m0/s1
