21
gdb 84848	2.47903	1.76243	1.32733	1.4854	83.41	-0.2358	0.0281	0.2639	1058.0134	0.184832	-387.09293	-387.085142	-387.084198	-387.124776	31.617	
C	-0.9248614276	 1.1857136735	 0.2219618575	-0.395289
C	-0.0134932199	-0.0320140076	-0.0315418775	-0.029591
C	 0.6965514285	 0.1221881945	-1.3576090016	-0.054944
C	 1.9938467474	 0.2681100715	-1.6381367534	-0.059211
C	 3.184321477	 0.3005203712	-0.7143728623	-0.261041
C	 2.9087279818	-0.0443845297	 0.7407767957	 0.114504
C	 2.0305752005	-1.2921712542	 0.9686301174	-0.302591
C	 0.9056272193	-0.2578105983	 1.1660302096	 0.112823
O	 1.8786380981	 0.8116935405	 1.2987301682	-0.300407
H	-0.3130813804	 2.0763790839	 0.3894974515	 0.139463
H	-1.5825501614	 1.3751207236	-0.6316986618	 0.109702
H	-1.5532997418	 1.0268044955	 1.1047689601	 0.108419
H	-0.6568828972	-0.9240237375	-0.1041439758	 0.076603
H	 0.0105951331	 0.1472256845	-2.2041013851	 0.082013
H	 2.2556067655	 0.3947227846	-2.6877863016	 0.083489
H	 3.956073007	-0.3848278243	-1.0961143943	 0.103529
H	 3.6373889937	 1.3021495742	-0.7565174632	 0.118034
H	 3.8310693675	 0.01721649	 1.3290333964	 0.07196
H	 1.9291088099	-1.995813883	 0.1409939016	 0.108197
H	 2.2821161993	-1.8277058589	 1.8854492329	 0.105307
H	 0.3085741597	-0.357132114	 2.0803419058	 0.069031
112.8945	213.6684	246.5999	276.836	314.0771	335.0152	393.8584	437.2946	499.9843	623.3774	706.414	750.4509	796.9017	835.7364	866.5053	884.4177	899.1691	946.6704	953.1775	987.6757	1013.6724	1022.6505	1034.1661	1051.7079	1096.3965	1108.2069	1132.789	1163.9497	1209.2518	1241.2573	1258.8624	1268.8267	1300.3281	1339.4366	1345.716	1374.2734	1380.3577	1395.5395	1403.8297	1439.8401	1453.4597	1487.326	1494.5118	1504.3469	1726.7686	2975.4848	2996.2189	3023.2786	3030.845	3036.3336	3042.7887	3080.1147	3102.0814	3116.0938	3122.0597	3136.5084	3141.8894
CC1C=CCC2CC1O2	C[C@H]1C=CC[C@@H]2C[C@H]1O2	
InChI=1S/C8H12O/c1-6-3-2-4-7-5-8(6)9-7/h2-3,6-8H,4-5H2,1H3	InChI=1S/C8H12O/c1-6-3-2-4-7-5-8(6)9-7/h2-3,6-8H,4-5H2,1H3/t6-,7+,8+/m0/s1
