17
gdb 69748	3.10691	1.4998	1.2907	4.3908	71.28	-0.2524	0.0059	0.2583	1019.326	0.136186	-421.81388	-421.806479	-421.805535	-421.845591	29.098	
C	-0.007316102	 1.5596735902	 0.067154659	-0.498378
C	 0.0293173605	 0.0602799153	 0.0128173138	 0.351295
C	-0.8793119517	-0.831222089	 0.8042608994	-0.357098
C	 0.6069481814	-0.9712509166	 1.0044479346	-0.113011
C	 1.2528306154	-1.7287412772	-0.16709496	 0.109921
O	 0.4530133182	-2.8017940496	-0.7793809318	-0.266221
C	-0.0601445969	-1.9346626627	-1.7303605725	 0.440963
O	-0.8069827701	-2.2009502535	-2.6149980751	-0.324102
C	 0.6908557837	-0.7200885682	-1.170674235	-0.29345
H	 0.9686233213	 1.9956946442	-0.1740465187	 0.12137
H	-0.7376147629	 1.9612777066	-0.6451819524	 0.134125
H	-0.2930169953	 1.9062520373	 1.0653720112	 0.125139
H	-1.3894903509	-0.3334328869	 1.6230528076	 0.118894
H	-1.4568759728	-1.6287051947	 0.347158935	 0.144893
H	 1.0773378071	-0.8179369842	 1.9678138176	 0.094761
H	 2.3021788756	-2.0054896412	-0.0959217903	 0.104309
H	 1.3063046495	-0.1373533398	-1.8527057524	 0.10659
137.1455	155.0604	211.5699	265.0468	333.7684	401.3503	476.0415	525.1098	601.0657	693.202	750.5236	776.7252	794.1317	858.2973	889.6346	902.3605	945.5369	967.2467	972.3313	999.568	1035.5943	1074.6254	1084.5852	1104.9294	1110.7565	1180.4221	1185.2546	1219.9913	1270.0112	1285.6642	1310.6065	1394.1823	1423.2235	1484.163	1497.0788	1503.7442	1931.8203	3024.1205	3084.5286	3100.9827	3126.8289	3141.6207	3150.1313	3189.0072	3209.0008
CC12CC1C1OC(=O)C21	C[C@]12C[C@H]1[C@H]1OC(=O)[C@@H]21	
InChI=1S/C7H8O2/c1-7-2-3(7)5-4(7)6(8)9-5/h3-5H,2H2,1H3	InChI=1S/C7H8O2/c1-7-2-3(7)5-4(7)6(8)9-5/h3-5H,2H2,1H3/t3-,4-,5+,7-/m0/s1
