20
gdb 11410	4.1226	1.24406	1.00839	2.9363	75.07	-0.2343	-0.0117	0.2227	1190.5043	0.177029	-349.051485	-349.043106	-349.042162	-349.084649	31.305	
C	 0.0197329504	 1.5895792512	-0.0844518516	-0.386472
C	-0.0036877845	 0.0578176665	-0.0635705336	-0.186234
C	-1.4001511997	-0.5424250902	 0.1138664922	 0.040502
C	-1.428450049	-2.0885057017	 0.0321108777	-0.232184
C	-2.778604551	-2.4864197383	 0.6431226285	-0.322085
C	-3.0791492094	-1.3917497899	 1.6748677419	 0.39955
O	-3.9510134238	-1.4237230261	 2.5038871506	-0.312856
C	-2.0780274701	-0.2496064205	 1.4650932702	-0.323826
H	 1.0354179918	 1.9668247878	-0.2376351621	 0.114509
H	-0.6062679671	 1.983074242	-0.8932294245	 0.11514
H	-0.3511452749	 2.010891457	 0.8556393014	 0.120331
H	 0.4282941846	-0.3241203269	-0.9978684809	 0.094557
H	 0.6444128932	-0.3102375317	 0.7439694208	 0.093326
H	-2.0489846168	-0.1517558529	-0.6840566216	 0.073697
H	-1.2894833181	-2.4525447837	-0.9893836514	 0.101938
H	-0.6079395591	-2.4977150886	 0.635619284	 0.101893
H	-3.5806413063	-2.4542576049	-0.1064551653	 0.129868
H	-2.8133494514	-3.4773138199	 1.1021808227	 0.126693
H	-1.3445495444	-0.305675888	 2.2832521618	 0.125004
H	-2.5726216644	 0.7207461486	 1.5471714794	 0.126647
75.7444	97.1385	143.979	187.1591	248.6133	368.0963	403.4573	462.6882	487.0116	544.5991	578.8853	725.8674	780.3314	811.5087	855.1742	904.1731	946.2114	955.174	980.4293	1018.2381	1048.9249	1092.088	1141.1618	1155.5461	1166.0698	1213.062	1241.5953	1256.9206	1286.6502	1303.5791	1307.5375	1347.0986	1368.2053	1390.56	1413.4794	1447.5014	1450.2869	1484.7296	1500.2703	1500.7037	1507.3814	1846.7152	2992.1151	3008.9914	3013.9214	3028.5255	3032.4058	3033.775	3044.0419	3091.4071	3098.5482	3103.986	3106.4736	3108.0015
CCC1CCC(=O)C1	CC[C@H]1CCC(=O)C1	
InChI=1S/C7H12O/c1-2-6-3-4-7(8)5-6/h6H,2-5H2,1H3	InChI=1S/C7H12O/c1-2-6-3-4-7(8)5-6/h6H,2-5H2,1H3/t6-/m0/s1
