20
gdb 114169	4.4653	0.93214	0.86276	3.0457	81.41	-0.2438	-0.0305	0.2133	1395.3419	0.169935	-403.120062	-403.111026	-403.110082	-403.15407	33.553	
C	 0.1672736084	 1.6488649631	 0.0282949318	-0.378691
C	 0.0418581292	 0.1224109638	 0.070224142	-0.199572
C	 0.5474359483	-0.5427886828	-1.200440693	 0.088303
C	 0.3432005967	-2.0664720459	-1.4251242302	-0.362799
C	-0.3744059247	-1.6941680639	-2.7149624738	 0.265514
C	-1.5050358533	-0.7676769801	-2.4467431504	-0.281878
N	-0.1724405535	-0.1772872718	-2.4948459579	-0.17732
C	-0.1248215138	-2.2787546532	-4.0442467314	 0.07066
O	 0.4626364051	-3.3178307262	-4.226537763	-0.261809
H	 1.2119936904	 1.955100352	-0.0916438815	 0.119468
H	-0.3964916373	 2.0646585879	-0.8121484081	 0.134735
H	-0.2112850083	 2.1015972461	 0.9493043198	 0.114257
H	 0.6216304511	-0.2821107212	 0.9102359643	 0.105917
H	-0.9996741716	-0.1624064705	 0.2632752843	 0.09661
H	 1.5937947073	-0.2658239898	-1.3582111641	 0.093337
H	 1.2684924754	-2.6166612996	-1.5970024695	 0.133285
H	-0.2586041136	-2.6033760892	-0.6864205564	 0.107135
H	-2.1248589019	-0.4689744234	-3.2874366069	 0.130966
H	-2.0397213279	-0.8707817124	-1.5056518913	 0.124149
H	-0.517190736	-1.6672303428	-4.8878599745	 0.077731
72.0456	101.6762	139.495	184.6653	220.8173	252.7323	317.091	385.2416	419.5928	476.7122	548.8596	671.6895	728.3024	746.6821	801.2195	826.5686	876.987	947.5562	955.3082	989.2303	995.1845	1028.9118	1079.7545	1106.6764	1116.5725	1125.0383	1137.7946	1202.6566	1245.0974	1269.7629	1291.0024	1312.7277	1341.103	1355.5387	1406.9985	1414.0597	1428.8352	1480.7433	1490.8481	1498.1322	1502.6684	1509.8012	1807.5873	2881.4341	3023.7277	3038.1918	3047.9305	3063.1584	3068.1571	3105.8068	3108.7787	3115.1268	3135.9165	3194.8376
CCC1CC2(CN12)C=O	CC[C@H]1C[C@]2(CN12)C=O	
InChI=1S/C7H11NO/c1-2-6-3-7(5-9)4-8(6)7/h5-6H,2-4H2,1H3	InChI=1S/C7H11NO/c1-2-6-3-7(5-9)4-8(6)7/h5-6H,2-4H2,1H3/t6-,7-,8?/m0/s1
