18
gdb 13732	3.06035	1.68757	1.39449	2.2584	64.24	-0.2458	0.0676	0.3134	954.1948	0.153062	-422.035359	-422.027019	-422.026075	-422.068212	31.085	
O	-0.9129979888	 1.3374282382	-1.0527346546	-0.424085
C	-0.5035975347	 0.2756139982	-0.2160401803	-0.064238
C	-1.6534560546	-0.6227534667	 0.2321917656	-0.081838
O	-2.1966568364	-1.3155458154	-0.8935244232	-0.271615
C	-3.4932694533	-1.0149716112	-1.3069483099	 0.060297
C	-3.9776004006	 0.4105328611	-1.4571976172	-0.35831
C	-3.5822585026	-0.381059582	-2.6746710145	 0.09602
O	-2.356309963	-0.0350650595	-3.2692832746	-0.417351
H	-1.2460252608	 0.9616173681	-1.8828352438	 0.295325
H	 0.2628304786	-0.3499117245	-0.7010674065	 0.089154
H	-0.0427070177	 0.7280936102	 0.6701694945	 0.104492
H	-1.2816740077	-1.3735242872	 0.9422614161	 0.098959
H	-2.4292256566	-0.0296921741	 0.727816091	 0.112516
H	-4.2267436573	-1.7719988824	-1.0349322207	 0.093784
H	-5.031454585	 0.5988341666	-1.2840927926	 0.117793
H	-3.304852452	 1.2074838118	-1.1637640274	 0.154375
H	-4.3425323828	-0.7112197821	-3.3786267984	 0.098141
H	-1.7890652648	-0.8137886792	-3.1964265434	 0.296578
76.3471	125.6327	150.8218	223.453	243.2515	323.2628	383.2978	423.1222	499.9437	541.5715	612.6932	665.5435	767.2361	808.347	851.6863	886.7129	903.065	1002.8185	1038.3094	1065.8006	1081.3029	1098.3469	1119.1724	1133.3023	1162.7548	1184.9569	1245.0513	1248.0501	1294.3887	1340.7426	1367.1096	1390.8746	1407.408	1409.	1439.7218	1471.8997	1489.1717	1494.4806	2979.6575	3017.3853	3061.729	3081.9135	3113.2724	3131.4052	3142.7373	3238.2544	3682.3816	3766.9823
OCCOC1CC1O	OCCO[C@H]1C[C@H]1O	
InChI=1S/C5H10O3/c6-1-2-8-5-3-4(5)7/h4-7H,1-3H2	InChI=1S/C5H10O3/c6-1-2-8-5-3-4(5)7/h4-7H,1-3H2/t4-,5+/m1/s1
