17
gdb 12676	2.87718	2.18973	1.42768	4.9393	64.63	-0.2434	0.0604	0.3039	898.7835	0.142841	-401.056892	-401.048754	-401.047809	-401.08981	28.784	
C	 0.0895589577	 1.6071569115	 0.0096200669	-0.402841
C	-0.0084961966	 0.0773615113	 0.020529519	 0.006515
C	 0.7759889731	-0.598170767	-1.1287522193	-0.099861
O	 1.9855808946	-1.0816939493	-0.5374170229	-0.24602
C	 1.8455177939	-1.1216535751	 0.8238971734	 0.486164
O	 2.6673867126	-1.599382762	 1.5594996983	-0.406933
N	 0.6481259694	-0.5408524234	 1.158673576	-0.125062
C	 0.246582031	-0.3616794381	 2.5336305228	-0.344754
H	 1.1365485461	 1.9272059953	 0.0000908903	 0.135032
H	-0.4043273814	 2.010015932	-0.8805223204	 0.123415
H	-0.3964734858	 2.0451634774	 0.8862057612	 0.126068
H	-1.0651344149	-0.2169261279	-0.0121339042	 0.089131
H	 0.2263029366	-1.4445694948	-1.5551173574	 0.118523
H	 1.0348090081	 0.0990502085	-1.9290120893	 0.123149
H	 0.9336928634	-0.9414788311	 3.1519594755	 0.16976
H	 0.2948902027	 0.6886654714	 2.8471939332	 0.124767
H	-0.7760892606	-0.723961199	 2.6914044968	 0.122948
64.4383	117.3314	161.6566	181.9502	245.6668	291.5099	342.9149	423.6757	527.5302	652.3761	721.845	758.4894	767.3739	872.7654	950.303	971.983	1049.4611	1084.1679	1119.012	1129.6466	1154.9473	1165.6509	1246.0938	1271.3599	1305.1053	1382.9627	1387.3225	1408.2973	1431.5526	1456.7476	1487.0006	1491.9142	1501.9005	1520.5479	1527.4215	1871.1744	3014.6458	3018.8642	3036.7114	3044.0354	3065.8924	3103.99	3110.3305	3115.9805	3145.1958
CC1COC(=O)N1C	C[C@H]1COC(=O)N1C	
InChI=1S/C5H9NO2/c1-4-3-8-5(7)6(4)2/h4H,3H2,1-2H3	InChI=1S/C5H9NO2/c1-4-3-8-5(7)6(4)2/h4H,3H2,1-2H3/t4-/m0/s1
