15
gdb 50387	3.06859	1.22494	0.97998	1.7931	75.51	-0.2364	-0.0401	0.1963	1178.7954	0.112032	-416.790569	-416.782362	-416.781418	-416.823884	29.85	
O	 0.1937184764	-0.1614685793	 0.0048822782	-0.244368
C	 0.0964049488	 1.0354918062	 0.0916283652	 0.157969
C	 1.2743197361	 1.9909658247	-0.000598419	-0.106631
C	 1.468206985	 2.8474472763	 1.2967188903	-0.199554
N	 2.5994686629	 2.2416147227	 2.0013806694	-0.293112
C	 3.1168487372	 1.3889413598	 1.1950963445	 0.227874
N	 2.5480642659	 1.2859843051	-0.0839313157	-0.346193
C	 4.2495801596	 0.5790911601	 1.5044825369	 0.264236
C	 5.1918951529	-0.1312803382	 1.7315948115	-0.369693
H	-0.8888763936	 1.5321566951	 0.2398889736	 0.090056
H	 1.0994509557	 2.6351855349	-0.8722509775	 0.109448
H	 1.7046953458	 3.8879043562	 1.0456212321	 0.128283
H	 0.577084104	 2.8647183627	 1.9343941246	 0.118837
H	 2.4827491289	 0.3435154658	-0.4531364018	 0.255333
H	 6.0276255045	-0.7500429422	 1.9498569677	 0.207515
69.678	117.8496	156.8819	171.8074	257.0324	341.2787	387.5489	527.3533	552.4322	626.6291	652.3579	666.4894	682.5203	727.5908	778.2243	850.7717	904.7228	945.2734	1009.307	1034.2288	1080.8683	1128.8141	1205.9162	1243.1251	1248.428	1323.6708	1349.6104	1405.6616	1435.4856	1493.7545	1670.2855	1826.7316	2246.9769	2884.6432	3019.8574	3035.6138	3064.7601	3499.646	3552.6485
O=CC1CN=C(N1)C#C	O=C[C@H]1C[N][C](N1)C#C	
InChI=1S/C6H6N2O/c1-2-6-7-3-5(4-9)8-6/h1,4-5H,3H2,(H,7,8)	InChI=1S/C6H6N2O/c1-2-6-7-3-5(4-9)8-6/h1,4-5H,3H2,(H,7,8)/t5-/m1/s1
