19
gdb 38286	3.67821	1.59636	1.3879	1.529	81.09	-0.2274	0.0159	0.2433	977.8606	0.162995	-385.860613	-385.854177	-385.853232	-385.89116	27.302	
C	-0.1067838857	 1.503881012	-0.1356049795	-0.212917
C	 1.4438725246	 1.4590746729	-0.002865498	-0.086885
C	 1.2051375391	 0.2599896092	 0.9793348926	-0.228957
C	 0.0165562611	-0.0660531955	 0.0156493026	-0.137606
C	 0.7147679704	-0.3103010623	-1.2891912566	 0.314266
C	 0.4708116552	-0.6124733088	-2.5579967902	-0.285498
C	 1.4630110187	 0.1717801539	-3.4079424164	-0.115526
O	 1.9774352482	 1.1891204058	-2.5294199101	-0.292135
C	 1.9016985104	 0.6374071745	-1.2271014377	 0.120098
H	-0.5846650861	 1.9609154541	 0.7344979076	 0.098412
H	-0.5355297738	 1.887536062	-1.0632748719	 0.107225
H	 2.0301144475	 2.3288109698	 0.2895738946	 0.07101
H	 1.9984067686	-0.4854098859	 1.0885134443	 0.097854
H	 0.8637734972	 0.5920149356	 1.9617917606	 0.102376
H	-0.8306780401	-0.6833476508	 0.3082492854	 0.071822
H	-0.3487265724	-1.1833296573	-2.974896805	 0.099653
H	 2.2887679528	-0.4475715878	-3.7986678257	 0.096947
H	 0.9838273509	 0.6634716125	-4.2625560219	 0.112288
H	 2.8527943333	 0.128940586	-0.9902541747	 0.067574
165.4469	221.9372	311.6236	397.4721	468.8055	548.2538	619.3434	665.0724	755.9435	791.2387	820.693	838.5841	852.9747	873.0711	895.6723	929.1194	932.9994	987.9603	1009.6206	1013.6252	1021.6602	1048.8253	1068.2027	1085.7886	1099.9568	1119.9703	1168.6109	1204.8576	1220.6019	1223.708	1234.2934	1248.1636	1273.4993	1298.7827	1332.3605	1360.1693	1391.7355	1482.3326	1509.942	1517.0888	1736.8891	2939.8336	2954.4054	3052.0358	3056.2785	3064.4315	3121.1783	3129.3762	3130.81	3135.7263	3215.597
C1C2CC1C1=CCOC21	C1[C@H]2C[C@@H]1[C]1[CH]CO[C@@H]21	
InChI=1S/C8H10O/c1-2-9-8-6-3-5(4-6)7(1)8/h1,5-6,8H,2-4H2	InChI=1S/C8H10O/c1-2-9-8-6-3-5(4-6)7(1)8/h1,5-6,8H,2-4H2/t5-,6+,8-/m0/s1
