18
gdb 75621	2.04038	1.77167	1.10296	2.8423	72.38	-0.2401	-0.0334	0.2067	1117.2897	0.145545	-439.055595	-439.046219	-439.045275	-439.090012	33.777	
C	-0.7521622954	 1.2148502241	-0.0606955724	-0.407964
C	 0.0067670445	-0.103609797	-0.0550159764	-0.191535
C	 1.3765008047	-0.145596296	-0.7600000982	 0.326681
O	 1.8813408925	 0.5258576387	-1.6163161934	-0.306985
C	 1.9884538617	-1.0477598546	 0.3227425671	 0.006588
O	 3.3080938292	-0.8206144515	 0.7134230637	-0.426835
C	 0.7935990654	-0.5801728627	 1.1898359176	 0.27429
C	 0.8863605126	 0.0891111305	 2.501011538	-0.296459
N	 0.3232623634	-1.2782312916	 2.3746217107	-0.370239
H	-0.1105782157	 2.0385352204	 0.2647104664	 0.129001
H	-1.1078481548	 1.4461572723	-1.0687887563	 0.138723
H	-1.6230617504	 1.1746437137	 0.601956529	 0.119061
H	-0.6259275725	-0.9212506357	-0.4271122795	 0.109176
H	 1.8649855353	-2.1126155223	 0.0822690209	 0.117215
H	 3.5869992407	 0.0185238758	 0.3277659949	 0.295607
H	 1.8481934177	 0.1360003279	 3.003122528	 0.135567
H	 0.210596624	 0.9132381741	 2.7138782575	 0.116495
H	-0.6930372531	-1.235706676	 2.4262627025	 0.231615
68.254	90.5698	172.053	186.4984	197.3719	210.791	234.6712	282.2366	418.731	474.8869	528.2314	590.2216	627.4587	746.548	826.363	838.8383	919.2999	931.3166	941.0994	979.3105	998.4841	1041.5244	1073.1806	1119.6827	1126.5836	1158.5387	1178.7166	1232.3637	1257.8715	1267.2203	1325.0782	1353.2748	1402.5519	1408.5139	1419.041	1493.0423	1494.4188	1509.5372	1876.1354	3015.9226	3025.5709	3039.3845	3107.185	3110.5055	3119.664	3200.8419	3478.4892	3788.589
CC1C(=O)C(O)C11CN1	C[C@H]1C(=O)[C@@H](O)[C@]21CN2	
InChI=1S/C6H9NO2/c1-3-4(8)5(9)6(3)2-7-6/h3,5,7,9H,2H2,1H3	InChI=1S/C6H9NO2/c1-3-4(8)5(9)6(3)2-7-6/h3,5,7,9H,2H2,1H3/t3-,5+,6+/m0/s1
