16
gdb 35391	4.2437	1.3363	1.22299	4.4794	72.31	-0.2677	0.0149	0.2825	1016.2524	0.12655	-400.712128	-400.705561	-400.704617	-400.743252	26.13	
N	-0.091145171	-1.1550644245	-0.0625700482	-0.324315
C	-0.0589370737	-0.0012036134	-0.0153898753	 0.287356
C	 0.0041988833	 1.4670539435	 0.0185927379	-0.060481
O	-0.4717706304	 1.9712961493	 1.274559866	-0.277313
C	 0.6631595314	 2.6743521589	 1.765083509	 0.144456
C	 1.349964105	 3.4604073425	 0.6128644668	-0.097559
C	 2.7144194773	 3.2283481213	 1.3025182738	-0.25725
C	 1.9699006097	 1.8838324455	 1.4753459769	-0.083555
C	 1.4361895851	 2.0182469313	 0.0086167172	-0.052573
H	-0.6106934025	 1.863418103	-0.7987519724	 0.12953
H	 0.447327018	 3.1190962119	 2.734596121	 0.100418
H	 0.9811748416	 4.3553094295	 0.1114134888	 0.084497
H	 3.5910096148	 3.2161004231	 0.6515535105	 0.107485
H	 2.9094707568	 3.8036755082	 2.2113232673	 0.103684
H	 2.3120002466	 0.9704113984	 1.9602463742	 0.098306
H	 2.075674548	 1.7988771014	-0.8449574835	 0.097314
104.4028	158.8079	325.1321	399.6442	419.8268	492.5119	574.5688	690.8966	740.0401	800.7648	816.399	888.2064	897.5724	914.6623	931.538	970.5682	975.5963	995.3883	1021.1619	1050.6027	1073.1486	1080.0431	1120.2483	1122.9526	1167.2067	1184.8296	1232.5396	1240.5752	1260.6642	1269.5674	1275.9513	1345.1295	1366.6522	1523.1844	2360.6651	3037.6003	3061.1107	3115.255	3123.2698	3126.4132	3139.8893	3153.8409
N#CC1OC2C3CC2C13	N#C[C@H]1O[C@@H]2[C@H]3C[C@@H]2[C@@H]13	
InChI=1S/C7H7NO/c8-2-5-6-3-1-4(6)7(3)9-5/h3-7H,1H2	InChI=1S/C7H7NO/c8-2-5-6-3-1-4(6)7(3)9-5/h3-7H,1H2/t3-,4+,5-,6-,7+/m1/s1
