21
gdb 120198	3.85016	0.90401	0.82151	2.6206	80.47	-0.2323	0.0826	0.3149	1506.035	0.180457	-424.14536	-424.135998	-424.135054	-424.180168	34.532	
C	-0.8787606122	 1.5066217645	 1.09405744	-0.385075
C	-0.4379663935	 0.1048483241	 0.7105016152	-0.043885
O	-0.1168068939	-0.6023911128	 1.8964058582	-0.254644
C	 0.2342446363	-1.9258925819	 1.680344468	 0.181018
C	 1.7210580048	-2.2891122975	 1.3519967305	-0.021919
O	 2.0873705415	-1.8389355006	 2.7120895974	-0.308565
C	 0.8609668451	-2.6499371104	 2.8898566364	-0.020533
C	 1.4888881737	-3.7123160736	 1.9382159214	 0.041463
C	 0.7101974608	-4.8177046494	 1.2408534965	-0.445764
H	-0.0779514229	 2.0254125438	 1.6279659605	 0.133514
H	-1.1339665621	 2.0839334713	 0.2003939198	 0.11356
H	-1.7558586997	 1.4673429173	 1.7461806068	 0.12656
H	-1.2401693864	-0.4193617024	 0.1635910461	 0.084509
H	 0.4368606832	 0.1441876617	 0.0421810614	 0.090936
H	-0.54062988	-2.4571384708	 1.112350209	 0.061721
H	 2.3620668589	-1.9738285886	 0.5275840471	 0.08954
H	 0.4708074302	-2.758362314	 3.9024918696	 0.092864
H	 2.4189763269	-4.0859930525	 2.3725347667	 0.090991
H	-0.2268605252	-4.4817309878	 0.7910723358	 0.122853
H	 1.3182758221	-5.2624911952	 0.4457396726	 0.12496
H	 0.4693423824	-5.616098065	 1.9509275111	 0.125896
63.2889	70.4622	120.8621	166.5294	236.2619	253.6708	282.8455	329.3696	382.3643	440.7138	584.3901	652.5089	750.3692	795.0357	807.4972	821.3343	868.0989	887.4085	910.7053	954.1784	1024.1878	1028.167	1076.8218	1105.3513	1109.1905	1127.9218	1151.5647	1160.1206	1186.4579	1191.4376	1210.0343	1231.2224	1258.6725	1282.0529	1297.2348	1379.9368	1393.6185	1408.0422	1417.8503	1453.5946	1483.2551	1495.6253	1499.7909	1501.4734	1528.3714	2958.4318	2991.4262	3018.5158	3038.6463	3046.0974	3087.4742	3095.9513	3109.2851	3117.8318	3120.0905	3122.9814	3124.9269
CCOC1C2OC1C2C	CCO[C@H]1[C@H]2O[C@@H]1[C@H]2C	
InChI=1S/C7H12O2/c1-3-8-7-5-4(2)6(7)9-5/h4-7H,3H2,1-2H3	InChI=1S/C7H12O2/c1-3-8-7-5-4(2)6(7)9-5/h4-7H,3H2,1-2H3/t4-,5-,6+,7-
