18
gdb 6435	4.2836	1.38376	1.26896	1.4598	74.13	-0.2506	0.0529	0.3036	1011.1844	0.151747	-347.759915	-347.751373	-347.750429	-347.792307	32.835	
C	 0.32911894	 1.2522382806	 0.0909986131	-0.452177
C	-0.0825212002	-0.2247749519	-0.0073511464	 0.167578
C	 0.8724369653	-1.0534418233	-0.9425160151	-0.257456
C	 1.6258191524	-1.5791588662	 0.2978131348	 0.115548
O	 2.8334879546	-0.8528277149	 0.4569153255	-0.428365
C	 0.4582370454	-1.0827070219	 1.1945183538	-0.288084
C	-1.5033130493	-0.3591207995	-0.2811045944	 0.261976
C	-2.6793528491	-0.4757092437	-0.5075282499	-0.464999
H	 1.4010736388	 1.3248315407	 0.2910189868	 0.133189
H	 0.1097079629	 1.7759233878	-0.8444628138	 0.121326
H	-0.2171694204	 1.7520880271	 0.8969828477	 0.11843
H	 0.3427737501	-1.8428824976	-1.4779733977	 0.110616
H	 1.4791878641	-0.4762090874	-1.6432390426	 0.115352
H	 1.8165412089	-2.6596926242	 0.3223342746	 0.067305
H	 3.1896127135	-1.0575870094	 1.3278972493	 0.282641
H	 0.7411249687	-0.5236808895	 2.0910084595	 0.098586
H	-0.2302786231	-1.8845513055	 1.4693975647	 0.109735
H	-3.7169453727	-0.5776985213	-0.7079065201	 0.188801
96.7589	147.4392	180.4153	272.7129	303.5839	312.4973	335.4339	400.2278	406.1399	532.0081	542.4363	597.1957	618.3118	620.7664	824.4807	833.2072	848.9065	906.6807	934.208	962.0499	969.857	1021.9746	1075.7316	1153.0816	1181.6508	1194.7461	1217.805	1248.2235	1264.681	1302.8013	1327.8321	1407.6344	1417.0807	1454.5818	1476.1856	1495.387	1502.7734	2228.2217	3011.592	3038.0047	3058.0056	3076.5041	3108.6378	3121.9601	3128.5569	3138.6516	3502.6336	3809.019
CC1(CC(O)C1)C#C	C[C@]1(C[C@@H](O)C1)C#C	
InChI=1S/C7H10O/c1-3-7(2)4-6(8)5-7/h1,6,8H,4-5H2,2H3	InChI=1S/C7H10O/c1-3-7(2)4-6(8)5-7/h1,6,8H,4-5H2,2H3/t6-,7-
