17
gdb 114479	3.39437	1.35246	1.2423	3.6213	66.79	-0.2484	0.0437	0.2921	1040.1657	0.135788	-458.874291	-458.866792	-458.865847	-458.906577	29.008	
O	-0.0384951901	 1.4886340341	-0.1927560302	-0.421867
C	 0.1028511996	 0.1214940609	 0.1613545487	-0.098822
C	-1.2466785087	-0.569179748	 0.0889135355	 0.130055
O	-1.8115604483	-0.5401726063	-1.2631010729	-0.320845
C	-2.1137388041	-1.9426060486	-1.2121672962	 0.09846
C	-1.0560775233	-2.9035059178	-1.8346109277	-0.010085
O	 0.232731615	-2.3473909051	-1.5911048877	-0.216676
C	-0.3955896322	-3.0429172388	-0.5159019552	 0.013863
C	-1.4312174273	-2.1068138532	 0.1639111924	-0.178789
H	-0.3886078836	 1.4975349979	-1.0911833816	 0.293698
H	 0.8301208084	-0.3886806377	-0.4773900162	 0.120224
H	 0.4654616866	 0.0993314896	 1.195848857	 0.101931
H	-1.9400556013	-0.053972353	 0.767152044	 0.087226
H	-3.1614817944	-2.1822763742	-1.4085603106	 0.087309
H	-1.1508276825	-3.5859302787	-2.6718819598	 0.109951
H	 0.1489798271	-3.8714758722	-0.0778829135	 0.11361
H	-1.9490853308	-2.5278105389	 1.023509294	 0.090757
73.1845	150.7491	179.4671	289.8991	341.6913	414.9214	464.3914	501.0729	640.7943	728.757	771.1276	798.4502	832.2851	858.1626	881.6288	891.3077	952.3352	983.7551	994.3539	1026.7921	1039.5699	1053.9632	1075.939	1131.3817	1161.3598	1199.4411	1215.4522	1228.3279	1244.838	1265.5494	1288.6436	1323.944	1348.4338	1380.7276	1404.8702	1428.9658	1500.9693	3014.5636	3040.849	3084.1314	3094.8305	3136.0771	3175.9527	3191.374	3798.8359
OCC1OC2C3OC3C12	OC[C@H]1O[C@H]2[C@H]3O[C@H]3[C@@H]12	
InChI=1S/C6H8O3/c7-1-2-3-4(8-2)6-5(3)9-6/h2-7H,1H2	InChI=1S/C6H8O3/c7-1-2-3-4(8-2)6-5(3)9-6/h2-7H,1H2/t2-,3+,4-,5+,6-/m1/s1
