18
gdb 116611	2.66794	1.03142	0.80916	1.747	82.11	-0.2527	0.0192	0.2719	1454.3779	0.145729	-401.90762	-401.89813	-401.897186	-401.943194	33.724	
C	-0.6458702737	-0.0057344072	 0.7762832263	-0.359947
C	 0.4234000562	 0.5511475924	-0.1640945517	-0.15186
N	 0.6849991742	-0.3956227707	-1.2464587838	-0.322757
C	 1.8550627681	-0.7308353101	-1.5091931808	 0.467113
O	 3.0656618796	-0.3464073652	-0.9514105787	-0.263443
C	 3.809399729	-1.262044786	-1.8026610209	-0.085875
C	 2.4977031325	-1.677152606	-2.5274064403	-0.345324
C	 2.1113322848	-3.0713453819	-2.5036344075	 0.337302
C	 1.8090457583	-4.2336922955	-2.4770394207	-0.450179
H	-1.5560112875	-0.2484574426	 0.2207276492	 0.126345
H	-0.2952539111	-0.9197183193	 1.2652270095	 0.119881
H	-0.8930439131	 0.7253284656	 1.5525747068	 0.108536
H	 0.0556760422	 1.4788036278	-0.620732331	 0.109872
H	 1.331777902	 0.8043433895	 0.3979274456	 0.110498
H	 4.5465768856	-0.7307526199	-2.4084261088	 0.125232
H	 4.2813619885	-2.0540389487	-1.2180538162	 0.133076
H	 2.4336151982	-1.2719924174	-3.5421583943	 0.137121
H	 1.5278465863	-5.2574722349	-2.4523633825	 0.20441
34.3237	76.3106	109.2405	160.592	183.8387	228.2431	271.7851	379.8694	386.183	498.9136	561.6865	631.3994	645.6322	666.4392	741.4388	798.5513	828.3516	905.3016	939.6208	977.6828	1058.9328	1064.3153	1084.5108	1111.4837	1121.7858	1161.16	1174.0182	1198.2081	1300.9773	1319.1385	1352.7093	1382.3928	1406.6901	1487.4286	1492.9124	1509.8369	1516.2165	1849.4735	2244.8284	3012.6292	3039.6862	3048.9841	3063.6199	3070.3312	3111.2036	3120.309	3134.5479	3503.9563
CCN=C1OCC1C#C	CCN=C1OC[C@H]1C#C	
InChI=1S/C7H9NO/c1-3-6-5-9-7(6)8-4-2/h1,6H,4-5H2,2H3	InChI=1S/C7H9NO/c1-3-6-5-9-7(6)8-4-2/h1,6H,4-5H2,2H3/t6-/m1/s1
