19
gdb 34739	2.85853	1.61897	1.44252	0.7836	83.29	-0.2475	0.0481	0.2956	991.8536	0.161145	-348.70428	-348.696968	-348.696024	-348.735738	30.162	
C	-0.1966663472	-1.2722524548	-0.2115889061	-0.462645
C	-0.0984174091	-0.0804613143	-0.0747374566	 0.323184
C	 0.0139919683	 1.3608873645	 0.0764415433	-0.178707
C	-0.2290879438	 2.0293986426	 1.4386332685	-0.076465
C	 0.9925426505	 1.9491929771	 2.3391176475	-0.029203
C	 2.0538893899	 0.8788127851	 2.0854741385	-0.238009
C	 2.5257726247	 1.1595631366	 0.6312577299	-0.208993
C	 1.4319640692	 2.0629955497	 0.0507594839	-0.057866
C	 0.9543198155	 2.9585925463	 1.2277606241	-0.097203
H	-0.2866677408	-2.3238833422	-0.3274464588	 0.191796
H	-0.6238066825	 1.8480062329	-0.6689912654	 0.101518
H	-1.2092842365	 2.2524728561	 1.8441044066	 0.086097
H	 0.8197916146	 2.2940116202	 3.3530885707	 0.081714
H	 2.8764609168	 0.9734499472	 2.8011277514	 0.093609
H	 1.6460219039	-0.1303887111	 2.1891428989	 0.114572
H	 3.4805982486	 1.696963752	 0.6313671227	 0.093442
H	 2.6559285082	 0.2438706842	 0.0477842175	 0.108015
H	 1.6845266951	 2.5375306283	-0.8970898361	 0.070029
H	 1.0308110548	 4.0331367697	 1.3222074196	 0.085115
125.7774	143.7107	225.1503	338.2051	380.1141	521.9555	535.7096	609.4187	624.343	630.5986	693.6481	748.2658	787.336	798.9378	818.7536	850.8075	894.96	904.6531	957.3044	988.7628	997.3719	1034.1802	1038.6619	1050.9358	1068.3371	1092.8181	1107.4253	1144.5193	1192.3573	1224.3169	1234.7439	1269.4108	1281.2525	1301.0124	1317.7289	1339.8149	1352.2558	1408.618	1480.1844	1502.7192	2223.9828	3040.1186	3043.9879	3054.2122	3086.1547	3102.5517	3115.1558	3166.4654	3175.4375	3206.5956	3502.8875
C#CC1C2C3CCC1C23	C#C[C@H]1[C@H]2[C@H]3CC[C@@H]1[C@@H]23	
InChI=1S/C9H10/c1-2-5-6-3-4-7-8(5)9(6)7/h1,5-9H,3-4H2	InChI=1S/C9H10/c1-2-5-6-3-4-7-8(5)9(6)7/h1,5-9H,3-4H2/t5-,6+,7-,8+,9-/m1/s1
