20
gdb 121200	2.31053	1.01809	0.77112	5.3251	79.64	-0.271	0.0273	0.2984	1488.2435	0.170914	-403.148908	-403.139325	-403.138381	-403.184113	34.468	
O	-0.1556879026	 1.4257993775	 0.4268230073	-0.418033
C	-0.0437150915	 0.0568726534	 0.0756424902	-0.079096
C	-1.4332986691	-0.5623088867	 0.1781087187	-0.185008
C	-1.4274513826	-2.0566124334	-0.133111557	-0.01404
C	-0.9113405417	-2.9691946529	 1.0224210525	-0.23162
C	-2.37652313	-3.3094625219	 1.3982132969	-0.225977
C	-2.8213895084	-2.7747624473	 0.0012348347	-0.153034
C	-4.0357768616	-1.9821473297	-0.0834719095	 0.275658
N	-4.9971915906	-1.3415164334	-0.1403906036	-0.336584
H	 0.7149621115	 1.8280036528	 0.3580106678	 0.287196
H	 0.3382555294	-0.0643478755	-0.9517522462	 0.086044
H	 0.6564974479	-0.4701170075	 0.744509669	 0.086109
H	-1.8236426591	-0.3779895049	 1.1864508298	 0.113612
H	-2.1019247651	-0.0366222747	-0.5127107788	 0.127825
H	-0.9536311296	-2.2274947206	-1.1045790965	 0.079719
H	-0.3631263698	-3.8398004528	 0.6535694075	 0.10846
H	-0.3098518782	-2.4822422218	 1.7929883373	 0.110661
H	-2.6220777107	-4.3502170636	 1.615170281	 0.115666
H	-2.7582172712	-2.6830730247	 2.206351989	 0.129548
H	-2.8918494171	-3.5947198225	-0.7192076003	 0.122893
72.5509	97.8425	110.0291	110.4792	187.1577	241.0976	265.175	318.8551	366.5719	455.4476	534.7233	563.797	673.191	757.7893	790.633	865.362	890.2523	943.754	953.911	974.4338	1020.0627	1050.403	1069.8489	1097.0461	1105.1032	1154.7575	1209.1186	1223.3726	1235.6792	1253.1647	1263.0286	1279.1919	1281.3393	1312.7115	1332.4687	1343.1715	1388.0434	1466.0173	1482.6374	1488.3072	1501.6168	1528.1948	2349.776	2957.581	2982.1471	3036.4786	3051.4293	3065.2647	3071.8511	3081.0656	3083.8698	3113.952	3138.9744	3831.7527
OCCC1CCC1C#N	OCC[C@H]1CC[C@H]1C#N	
InChI=1S/C7H11NO/c8-5-7-2-1-6(7)3-4-9/h6-7,9H,1-4H2	InChI=1S/C7H11NO/c8-5-7-2-1-6(7)3-4-9/h6-7,9H,1-4H2/t6-,7+/m1/s1
