16
gdb 74097	2.72396	1.57107	1.14004	5.7335	73.66	-0.2155	-0.0243	0.1912	1050.4922	0.124783	-437.906327	-437.898355	-437.897411	-437.93836	31.427	
N	 0.1033725243	 1.3278045886	-0.005174273	-0.589912
C	-0.0507497689	-0.0215750788	-0.0103722457	 0.336596
C	-1.1680297089	-0.7873808286	-0.1132271028	-0.36229
C	-0.8181752435	-2.2067880397	-0.0174076676	 0.417325
O	-1.5635324936	-3.1640002567	 0.0044617714	-0.364712
C	 0.706020169	-2.2849828975	 0.0683862446	-0.217832
C	 1.4537277718	-1.7395377685	-1.1424275422	-0.345995
C	 1.1942503899	-0.8667961896	 0.0588435467	 0.318858
O	 2.2343068326	-0.3669998994	 0.8484572141	-0.471155
H	 0.9573792321	 1.659669702	 0.4191920963	 0.260605
H	-0.7086688102	 1.9008200307	 0.1613954302	 0.264202
H	-2.1840357562	-0.4371511795	-0.2328369359	 0.095045
H	 1.1719887909	-3.0597651453	 0.6625402465	 0.114616
H	 2.4727542631	-2.098449931	-1.2661655881	 0.116829
H	 0.9143521791	-1.5497382085	-2.0643310902	 0.132835
H	 2.9860980286	-0.1844567383	 0.2770143156	 0.294983
150.0901	167.1832	202.8044	295.7338	299.5721	346.421	420.2867	498.2762	509.5511	522.4363	576.1905	598.678	685.0607	708.1735	740.7488	802.7297	825.5071	896.0652	936.6268	966.5759	988.6383	1063.7917	1069.096	1085.6589	1159.3288	1197.9049	1251.0692	1271.5072	1320.3822	1368.8713	1428.3451	1477.7278	1621.5292	1680.1149	1796.5757	3111.9924	3205.8433	3213.8059	3225.6305	3572.6636	3685.9192	3828.1756
NC1=CC(=O)C2CC12O	NC1=CC(=O)[C@H]2C[C@@]12O	
InChI=1S/C6H7NO2/c7-5-1-4(8)3-2-6(3,5)9/h1,3,9H,2,7H2	InChI=1S/C6H7NO2/c7-5-1-4(8)3-2-6(3,5)9/h1,3,9H,2,7H2/t3-,6+/m1/s1
