23
gdb 114920	3.13355	1.06458	0.86826	1.3481	87.87	-0.2391	0.0206	0.2597	1436.0067	0.205312	-388.315535	-388.305538	-388.304593	-388.350249	37.644	
C	 0.0454513108	 1.5434754248	-0.0011710104	-0.385981
C	 0.0258863808	 0.0120015656	 0.0301119466	-0.174431
C	-1.3826499337	-0.5796902185	-0.0606941977	 0.000464
C	-2.1498417416	-0.2962311691	-1.380773746	-0.275415
C	-2.9746993032	-1.5444315313	-1.5730133562	-0.169633
C	-2.634794707	-2.5329390823	-0.741062957	 0.295038
C	-3.2056955203	-3.9134699608	-0.6602052111	-0.496374
C	-1.4478404275	-2.1256166432	 0.1114206986	 0.016341
O	-0.2668290675	-2.8304252813	-0.2906327026	-0.42946
H	 1.067369782	 1.9270815276	 0.0796782824	 0.110483
H	-0.3808895222	 1.9339347022	-0.9315626454	 0.115226
H	-0.5341625945	 1.9646890583	 0.828279609	 0.111446
H	 0.639625321	-0.3824008709	-0.7886091075	 0.087109
H	 0.5021993693	-0.3429045134	 0.9519273214	 0.099794
H	-1.9848551256	-0.1593084235	 0.7557118797	 0.073534
H	-2.7656934873	 0.6080641624	-1.3175600656	 0.105362
H	-1.4673952669	-0.1356671255	-2.2292538752	 0.098362
H	-3.7530480702	-1.6172645768	-2.3271542611	 0.086538
H	-3.9624866816	-4.0885188584	-1.4298102611	 0.118757
H	-2.4140529987	-4.6633129215	-0.7716221496	 0.13455
H	-3.6682385413	-4.0927319881	 0.3189756142	 0.125416
H	-1.5628806074	-2.399437252	 1.1662408694	 0.078153
H	-0.2059432875	-2.7608739744	-1.2501192149	 0.274722
68.9374	100.4131	166.3692	174.9442	221.8533	236.4282	267.2546	295.6131	307.0864	363.1561	420.9188	470.7874	592.0838	640.5728	709.4592	779.2328	809.5679	840.7985	886.9217	930.1694	956.7488	971.3738	991.5078	1032.631	1050.0923	1063.4358	1081.7188	1131.9978	1146.9215	1169.7297	1205.5945	1241.1142	1276.9989	1289.7037	1309.614	1318.794	1327.4106	1371.3367	1384.3945	1407.848	1413.5047	1430.3072	1476.8604	1480.0469	1491.3311	1494.2685	1502.2157	1507.5223	1720.0745	2993.3419	3010.9068	3020.5701	3028.3118	3030.2608	3046.9915	3053.2212	3061.5276	3072.5233	3095.6268	3100.5924	3111.0564	3172.2375	3796.6571
CCC1CC=C(C)C1O	CC[C@H]1CC=C(C)[C@H]1O	
InChI=1S/C8H14O/c1-3-7-5-4-6(2)8(7)9/h4,7-9H,3,5H2,1-2H3	InChI=1S/C8H14O/c1-3-7-5-4-6(2)8(7)9/h4,7-9H,3,5H2,1-2H3/t7-,8+/m0/s1
