18
gdb 60907	3.56842	1.1143	1.04362	3.5897	72.83	-0.253	-0.0335	0.2195	1198.2761	0.146817	-439.045282	-439.036741	-439.035797	-439.079031	31.728	
O	-0.5033188586	 1.1978746813	 0.2350470837	-0.421413
C	-0.05301881	-0.1001416208	-0.021013591	-0.049173
C	 0.8777569392	-0.1125955345	-1.2217650217	 0.142486
O	 1.204894804	 0.9024136176	-1.7846023243	-0.258295
C	 0.6727170817	-0.7007733439	 1.1719933697	 0.31224
C	 0.7224494159	-2.1839249485	 1.5869495663	-0.317948
C	 0.6936422633	-1.7269959617	 3.0846529339	-0.235929
C	 0.6439877375	-0.2669200463	 2.608825258	-0.073955
N	 1.7815445686	 0.0490682896	 1.7508885336	-0.34982
H	 0.0439352336	 1.7777844543	-0.3172400897	 0.298481
H	-0.9092649123	-0.7552141732	-0.2585633661	 0.093652
H	 1.2596579752	-1.1056934848	-1.5368394174	 0.095611
H	-0.1771377947	-2.7400133835	 1.3100029311	 0.11166
H	 1.5983004695	-2.7468289633	 1.2470372653	 0.099052
H	-0.2167407645	-2.0482056376	 3.5953508998	 0.114557
H	 1.5557042518	-1.9913324511	 3.7059996956	 0.102481
H	 0.1089776794	 0.5580464586	 3.0624910125	 0.112712
H	 2.5966694305	-0.5308972522	 1.9447742506	 0.2236
54.4262	88.0326	160.836	219.5877	281.0076	304.803	344.1042	412.1963	444.8717	501.1619	699.893	750.1831	779.1107	784.5951	833.451	863.5921	924.31	934.9737	950.0673	1007.2701	1043.7597	1066.4869	1093.1726	1109.0973	1153.8624	1187.0669	1200.3145	1226.068	1244.4142	1265.4296	1271.0765	1294.0343	1346.41	1402.2314	1416.7334	1443.1707	1479.5446	1499.775	1818.7296	2921.1718	2963.4341	3041.6318	3051.4396	3094.9304	3115.2057	3198.1719	3456.1566	3703.0131
OC(C=O)C12CCC1N2	O[C@@H](C=O)[C@]12CC[C@H]1N2	
InChI=1S/C6H9NO2/c8-3-5(9)6-2-1-4(6)7-6/h3-5,7,9H,1-2H2	InChI=1S/C6H9NO2/c8-3-5(9)6-2-1-4(6)7-6/h3-5,7,9H,1-2H2/t4-,5+,6+/m1/s1
