16
gdb 35539	4.58861	1.06092	0.96506	3.7692	75.77	-0.2634	-0.0229	0.2406	1194.5269	0.125664	-400.724352	-400.716992	-400.716048	-400.756466	27.989	
N	-0.132723772	-1.1650583667	-0.2352775223	-0.319041
C	-0.0725357469	-0.0158984215	-0.1259141027	 0.266437
C	 0.0076906272	 1.4358752875	 0.0194209708	-0.176933
C	-0.615316805	 1.9544614459	 1.3739608269	-0.267586
C	 0.1816620158	 3.2463826287	 1.6046837852	 0.100409
O	 0.9309197365	 3.4923972483	 2.8426661418	-0.301896
C	 2.1788741579	 3.6277929124	 2.0907286416	-0.155537
C	 1.4810597004	 2.9879228863	 0.9180915657	 0.189511
C	 1.4609253582	 1.9479443678	 0.0975995597	-0.207248
H	-0.5298511908	 1.8733230202	-0.8331968351	 0.137059
H	-1.6982735144	 2.0822683228	 1.3139018326	 0.118613
H	-0.3847077098	 1.2401264921	 2.1684959958	 0.145659
H	-0.3753084489	 4.15159363	 1.3294958626	 0.090696
H	 2.4541858424	 4.6833071417	 1.9730467502	 0.117606
H	 3.0085621288	 3.0740828516	 2.5403848904	 0.13213
H	 2.2852929605	 1.426795713	-0.3704156631	 0.130122
82.1559	154.675	205.8706	286.491	337.7292	388.6243	486.3519	556.8545	570.2732	663.5835	764.6103	814.053	850.2348	865.671	908.0105	961.0454	981.6062	1006.8244	1011.4137	1039.1315	1059.0892	1126.27	1140.2694	1164.4786	1226.0711	1252.1502	1256.162	1298.1028	1327.7306	1347.9893	1358.2913	1480.1109	1507.661	1749.031	2357.3074	3013.5148	3015.9438	3025.0242	3073.5319	3088.1455	3131.5773	3226.5908
N#CC1CC2OCC2=C1	N#C[C@H]1C[C@H]2OC[C]2[CH]1	
InChI=1S/C7H7NO/c8-3-5-1-6-4-9-7(6)2-5/h1,5,7H,2,4H2	InChI=1S/C7H7NO/c8-3-5-1-6-4-9-7(6)2-5/h1,5,7H,2,4H2/t5-,7-/m1/s1
