18
gdb 24413	3.49633	1.51011	1.09395	2.6127	78.45	-0.1957	0.0451	0.2408	1079.6874	0.151675	-401.99103	-401.983879	-401.982935	-402.022458	28.688	
C	-0.0011018087	 1.4145974077	 0.0172746947	-0.065579
C	 1.4431530092	 1.953274795	 0.0020496522	-0.34582
C	 2.1668829665	 1.2049502558	-1.0669486201	 0.260222
C	 1.7211612547	 0.0382965845	-1.6412967085	 0.225836
C	 0.4248526566	-0.576969504	-1.2019741342	-0.196131
O	-0.0350179046	-0.0004080103	 0.0168607517	-0.246851
C	 2.6777089396	-0.3526654648	-2.6222009821	-0.282267
C	 3.6806627746	 0.588379898	-2.6061660145	-0.082104
N	 3.3623716533	 1.5324841005	-1.6571815726	-0.340965
H	-0.5254010193	 1.7313932698	 0.9232448282	 0.104451
H	-0.547985126	 1.8132467586	-0.8530638431	 0.089797
H	 1.4271684575	 3.0354075374	-0.1844127112	 0.098144
H	 1.9046562643	 1.8041082451	 0.9880483666	 0.113668
H	-0.3507104352	-0.4673985008	-1.9812665771	 0.092689
H	 0.5288605326	-1.6486852145	-0.9999353833	 0.114452
H	 2.6398766597	-1.2228746212	-3.2602596401	 0.089891
H	 4.5886244553	 0.6653466773	-3.1822308294	 0.115577
H	 3.9208277199	 2.3370454858	-1.4315363073	 0.254989
111.5856	208.129	271.0974	328.5635	364.7086	453.2962	460.8701	518.8527	629.7395	654.3263	697.6132	709.0832	743.6505	815.4937	865.0857	925.0868	939.564	976.2948	1026.6851	1075.8699	1088.5419	1109.2189	1122.7129	1183.4372	1202.6153	1236.5157	1258.3555	1288.1074	1316.4262	1355.3019	1382.202	1414.4788	1443.8318	1477.6404	1490.0224	1495.4967	1502.4115	1516.923	1633.5956	2938.3548	2970.6827	3003.6466	3039.3231	3057.4227	3086.6674	3240.4266	3269.0919	3678.5685
C1CC2=C(CO1)C=CN2	C1Cc2c(CO1)cc[nH]2	
InChI=1S/C7H9NO/c1-3-8-7-2-4-9-5-6(1)7/h1,3,8H,2,4-5H2	InChI=1S/C7H9NO/c1-3-8-7-2-4-9-5-6(1)7/h1,3,8H,2,4-5H2
