21
gdb 96366	2.30902	1.62546	1.25644	1.5239	77.67	-0.2465	0.0832	0.3296	1099.2634	0.183445	-424.218647	-424.210227	-424.209283	-424.251318	33.02	
C	-0.051457564	 1.6066023159	-0.0332517401	-0.402475
C	 0.0247500543	 0.074555045	 0.0352309925	-0.061617
C	 0.7564486546	-0.5110259104	-1.1868287539	-0.091405
O	 2.1371524961	-0.1808470246	-1.179694353	-0.250733
C	 2.8076270101	-0.7510365307	-0.0669914868	-0.075576
C	 2.2468546263	-0.2170935538	 1.25781916	-0.284958
C	 0.743862143	-0.4216999879	 1.2842127757	 0.433704
C	 0.0234430033	-0.5924769419	 2.5495425313	-0.253209
O	 0.3286415458	-1.7270986689	 1.7313208105	-0.2939
H	 0.9386710233	 2.0443014609	-0.1861112071	 0.132257
H	-0.6824231961	 1.9190791611	-0.8715074045	 0.115746
H	-0.4770685756	 2.0275870009	 0.8830390049	 0.111905
H	-0.9898707906	-0.3404782604	 0.0566621664	 0.078414
H	 0.6300315008	-1.6056464789	-1.2006632657	 0.099998
H	 0.3488618462	-0.1061668218	-2.1182630292	 0.10231
H	 2.7112132889	-1.8489802803	-0.0899028648	 0.101178
H	 3.8654537668	-0.4984990819	-0.180373742	 0.106177
H	 2.7068304721	-0.7367509964	 2.1041667195	 0.104605
H	 2.4809266446	 0.8500200005	 1.3472127812	 0.109491
H	 0.5651921267	-0.5383241848	 3.4936453068	 0.109081
H	-1.0332691268	-0.3322136216	 2.6096943084	 0.109008
105.3045	159.6057	207.4137	222.9745	269.4693	314.4707	379.8355	403.107	435.9429	487.0264	567.5755	639.0725	712.8706	814.8149	854.0013	865.7651	894.3831	936.5073	955.4488	986.1752	991.5951	1050.5526	1064.9962	1104.371	1126.5573	1145.5657	1153.5624	1166.7098	1222.7435	1251.0181	1287.5915	1294.3311	1320.9629	1346.5134	1356.6774	1383.4218	1402.8351	1415.7096	1441.8914	1467.1185	1488.5944	1495.4525	1504.5338	1507.3076	1531.0757	2975.035	2979.4464	3036.9353	3040.5069	3042.5653	3073.6511	3080.0957	3088.6192	3093.3816	3103.2993	3118.016	3157.8724
CC1COCCC11CO1	C[C@H]1COCC[C@]21CO2	
InChI=1S/C7H12O2/c1-6-4-8-3-2-7(6)5-9-7/h6H,2-5H2,1H3	InChI=1S/C7H12O2/c1-6-4-8-3-2-7(6)5-9-7/h6H,2-5H2,1H3/t6-,7+/m0/s1
