16
gdb 34771	2.14185	1.8334	1.21763	4.3559	77.9	-0.2621	0.0229	0.285	1034.6665	0.124174	-363.559702	-363.551702	-363.550757	-363.592318	30.401	
C	-0.1625005056	-1.2506881962	-0.2857946548	-0.437673
C	-0.0727115807	-0.0634151184	-0.1219142353	 0.323192
C	 0.0148171178	 1.3718890057	 0.0639990281	-0.185109
C	-0.1840592251	 2.0055363963	 1.4967286295	-0.266347
C	 1.138894645	 2.7584894714	 1.3184535541	-0.07005
C	 2.2839165113	 1.7804456759	 1.1613608496	-0.171086
C	 2.3485048754	 0.5315494728	 1.8760971698	 0.301246
N	 2.4226491193	-0.4480630426	 2.4865545724	-0.346251
C	 1.3834687486	 2.0756635391	-0.0205212426	-0.078939
H	-0.221915664	-2.3036006226	-0.4106207367	 0.202453
H	-0.6696424263	 1.8691626196	-0.6304294966	 0.117164
H	-1.0576941718	 2.6566253706	 1.5391433041	 0.118826
H	-0.2170310296	 1.298282337	 2.3278031795	 0.138578
H	 1.3325608204	 3.7819640027	 1.6134773815	 0.107906
H	 3.2542542269	 2.2606883962	 1.0705695638	 0.137355
H	 1.8170981885	 2.4672169824	-0.9326727563	 0.108733
93.1584	119.5837	161.2573	207.2444	311.3235	373.4697	489.6652	507.3045	564.3004	607.6678	631.1537	650.5141	726.4968	768.6842	794.9564	823.105	915.8488	956.8391	972.0668	1005.271	1015.9795	1059.938	1075.571	1093.4453	1150.7107	1175.6304	1219.1786	1256.2786	1290.1773	1331.8011	1345.6802	1414.0854	1487.7923	2238.3346	2353.5892	3054.8799	3081.1942	3140.059	3155.3958	3184.75	3198.4807	3503.3232
C#CC1CC2C(C#N)C12	C#C[C@H]1C[C@H]2[C@@H](C#N)[C@@H]12	
InChI=1S/C8H7N/c1-2-5-3-6-7(4-9)8(5)6/h1,5-8H,3H2	InChI=1S/C8H7N/c1-2-5-3-6-7(4-9)8(5)6/h1,5-8H,3H2/t5-,6-,7+,8-/m0/s1
