18
gdb 51424	3.95344	1.04151	0.99165	1.7585	74.23	-0.2605	0.0188	0.2793	1243.3055	0.148779	-439.059481	-439.051623	-439.050679	-439.093955	29.302	
N	 0.0408061692	 1.3657242633	 0.0328222382	-0.4406
C	 0.0445362604	 0.1062728734	-0.0167675484	 0.121465
O	-1.0922070292	-0.5810474396	 0.2226267052	-0.198375
C	-1.052723832	-1.9876592742	 0.1589703161	 0.149753
C	-1.7121102491	-2.8044624834	 1.2931773826	 0.025443
C	-3.112105496	-2.1789160565	 1.4365318433	-0.218289
C	-3.4679251851	-2.1200877517	-0.0840559837	-0.218288
C	-2.1602849355	-2.7303574591	-0.6221040281	 0.025442
O	-1.9231761306	-3.8477545134	 0.2906910683	-0.299169
H	 0.9713015464	 1.7241111449	-0.1710374557	 0.231987
H	 0.9036450143	-0.5403340891	-0.2427984146	 0.091124
H	-0.0576249566	-2.3647284941	-0.0884680499	 0.099359
H	-1.1758431871	-3.1383359303	 2.1807437726	 0.084367
H	-3.7761955688	-2.83161226	 2.0056878687	 0.1093
H	-3.081855983	-1.194517463	 1.9079227679	 0.121408
H	-4.326524168	-2.740633253	-0.3461583059	 0.1093
H	-3.6328087021	-1.1034303024	-0.4465269274	 0.121408
H	-2.0786050373	-2.9890691318	-1.6771986292	 0.084367
12.2286	110.9728	135.0875	255.0474	320.8512	380.9442	442.7655	524.559	690.8502	739.0243	817.7577	830.4989	851.6805	856.5041	862.2377	876.1431	924.4915	997.7762	1000.3955	1005.3422	1030.7819	1041.4279	1069.0862	1136.6039	1164.1752	1172.5265	1198.0471	1228.0547	1254.536	1271.1715	1289.146	1307.0742	1311.0989	1345.0454	1389.9141	1428.1207	1471.3637	1492.2031	1746.6132	3022.8031	3076.6635	3083.714	3088.5839	3124.7793	3130.7055	3135.6509	3140.4874	3520.9609
N=COC1C2CCC1O2	[NH][CH]O[C@H]1[C@H]2CC[C@@H]1O2	
InChI=1S/C6H9NO2/c7-3-8-6-4-1-2-5(6)9-4/h3-7H,1-2H2	InChI=1S/C6H9NO2/c7-3-8-6-4-1-2-5(6)9-4/h3-7H,1-2H2/t4-,5+,6+
