25
gdb 123151	5.70068	0.46391	0.4432	1.9243	88.42	-0.2466	0.0848	0.3314	2562.3316	0.225273	-426.616861	-426.604813	-426.603869	-426.6559	41.392	
C	-0.060944125	 1.3369357773	-0.0445840103	-0.227426
O	-0.1175075909	-0.0627131323	 0.0742886095	-0.228744
C	 0.7383569599	-0.5638674541	 1.0773038249	-0.050695
C	 0.5944367929	-2.0787271946	 1.1212430718	-0.20835
C	 1.4835827894	-2.719193266	 2.1800742718	-0.061544
O	 1.2851363033	-4.1151834012	 2.1315233039	-0.257614
C	 1.9094023361	-4.8597079553	 3.1711259575	 0.161047
C	 1.2397847747	-6.229859211	 3.1776024603	-0.386636
C	 3.4256407221	-4.9637712885	 2.9761907703	-0.392721
H	 0.9500240492	 1.6862655053	-0.3104331173	 0.101218
H	-0.7534278106	 1.6274718725	-0.8385583228	 0.12636
H	-0.3600552457	 1.8407902899	 0.8889082555	 0.101163
H	 1.7844934694	-0.2792146491	 0.864810737	 0.082386
H	 0.4809311821	-0.1203755113	 2.05594324	 0.082019
H	-0.4503746333	-2.3381334169	 1.3206381822	 0.114332
H	 0.8464756424	-2.4936383946	 0.1397377209	 0.115966
H	 2.5382154479	-2.4573260239	 1.9949288917	 0.085719
H	 1.2289123593	-2.3328561154	 3.1828357434	 0.081109
H	 1.7095122961	-4.3580976884	 4.1342449697	 0.060552
H	 1.4141072834	-6.7407919287	 2.2252435945	 0.122465
H	 1.6394217245	-6.8532851413	 3.9829494788	 0.110046
H	 0.1605573825	-6.1259255105	 3.3163482484	 0.11995
H	 3.9082193199	-3.9823975201	 2.992408595	 0.114696
H	 3.8723063217	-5.5642159707	 3.7751728341	 0.113245
H	 3.6509882686	-5.4416484012	 2.0171784091	 0.121456
36.6446	46.465	82.1452	100.8979	107.9456	148.175	208.1644	211.4791	236.0713	256.8164	258.0186	363.4238	387.7597	444.5952	517.6031	525.5291	778.1614	830.9313	890.2965	925.7556	930.2965	944.002	984.7573	1062.0444	1088.4554	1116.452	1153.0647	1163.1726	1169.1681	1179.3866	1193.3795	1201.7096	1228.9583	1237.4012	1296.958	1301.614	1304.9247	1365.1494	1372.5974	1396.4698	1412.9401	1428.2808	1443.9627	1480.5865	1482.3647	1485.385	1485.4012	1494.9901	1497.4275	1505.5687	1510.3398	1527.056	1536.6575	2935.0708	2944.5536	2951.7789	2959.7121	2966.2406	2979.873	3006.6456	3036.7817	3042.5667	3052.9713	3099.0574	3106.911	3111.905	3112.8507	3116.0378	3122.6784
COCCCOC(C)C	COCCCOC(C)C	
InChI=1S/C7H16O2/c1-7(2)9-6-4-5-8-3/h7H,4-6H2,1-3H3	InChI=1S/C7H16O2/c1-7(2)9-6-4-5-8-3/h7H,4-6H2,1-3H3
