21
gdb 118535	2.40527	0.91004	0.69842	1.1465	82.58	-0.2412	0.0554	0.2967	1656.2307	0.178157	-424.167629	-424.156287	-424.155342	-424.205512	38.891	
C	-0.3554860531	 1.3031592704	-0.7924914508	-0.224795
O	-0.3073833349	-0.0975339271	-0.9287887836	-0.236074
C	 0.8500705872	-0.6681185037	-0.3621193803	-0.076225
C	 0.8173147637	-2.1808191562	-0.5839373508	 0.085177
C	 0.7666067967	-2.5156017846	-2.0896910225	-0.347721
C	 0.5415608425	-3.924908037	-2.3840226236	 0.29799
C	 0.3385599316	-5.0838855072	-2.6327535961	-0.447388
O	 1.9915019342	-2.6881497294	 0.0234386893	-0.254143
C	 1.8254254594	-3.886149093	 0.7570740253	-0.243362
H	-0.3538608112	 1.6093223482	 0.2652639962	 0.106968
H	 0.4966781472	 1.7907691408	-1.2914486395	 0.106913
H	-1.2824049939	 1.6459201123	-1.2583838503	 0.128885
H	 1.7636991886	-0.2510097763	-0.8188004825	 0.094416
H	 0.903211637	-0.4692021555	 0.719685461	 0.094325
H	-0.0802342805	-2.5858919573	-0.09665842	 0.087219
H	-0.0271730278	-1.9095120696	-2.5403220313	 0.147905
H	 1.7144920304	-2.188480396	-2.5355045276	 0.130684
H	 0.1626849996	-6.1062071205	-2.8586319656	 0.192995
H	 2.8008695758	-4.1314252226	 1.1851446668	 0.124087
H	 1.1031435916	-3.7600367081	 1.5780876716	 0.102844
H	 1.4947540559	-4.7149861875	 0.1205127543	 0.1293
34.8376	65.6432	84.6003	106.2793	146.7685	153.4806	183.8867	231.7086	303.798	330.694	348.12	375.0548	419.1034	506.5681	584.9267	608.4711	629.5043	828.0597	898.2688	979.5649	987.7257	1040.1193	1099.2989	1105.0082	1154.7309	1169.4767	1182.5985	1184.8087	1211.6108	1227.499	1234.6494	1266.5641	1310.7368	1357.5603	1380.7551	1419.0787	1462.7531	1480.1372	1483.8106	1485.8812	1488.403	1503.0566	1513.0852	1524.9604	2234.7497	2961.3236	2975.7181	2986.0926	2999.3383	3018.3515	3020.0538	3033.1945	3063.5308	3078.7753	3114.9416	3116.1159	3506.0678
COCC(CC#C)OC	COC[C@@H](CC#C)OC	
InChI=1S/C7H12O2/c1-4-5-7(9-3)6-8-2/h1,7H,5-6H2,2-3H3	InChI=1S/C7H12O2/c1-4-5-7(9-3)6-8-2/h1,7H,5-6H2,2-3H3/t7-/m1/s1
