18
gdb 84845	2.23308	1.9326	1.26864	1.9611	71.69	-0.2404	0.0206	0.261	1020.4382	0.147562	-439.078294	-439.070098	-439.069154	-439.110709	31.961	
C	 0.2296879834	 1.5700600338	-0.1185297099	-0.392561
C	 0.0247368497	 0.058101132	 0.0170640501	-0.023865
N	 0.3784383791	-0.592628583	-1.2441882705	-0.27694
C	 0.9721615993	-1.706511307	-1.2459632153	 0.120732
O	 1.4290193057	-2.4514589799	-0.2070587943	-0.222976
C	 1.3951975114	-1.845730877	 1.0646752572	 0.060554
C	 2.2280652703	-0.6066215062	 1.3066800941	-0.383047
C	 0.7139494578	-0.5331622326	 1.2430274987	 0.342392
O	 0.0186245376	-0.3937290916	 2.4516490145	-0.468226
H	 1.2875068296	 1.8077106905	-0.2680088683	 0.118718
H	-0.3281863397	 1.9456337658	-0.9796810564	 0.130922
H	-0.1200768871	 2.0968676053	 0.7760771323	 0.098959
H	-1.0466056651	-0.1274733062	 0.175208465	 0.105091
H	 1.1941219287	-2.2171561723	-2.1808187747	 0.126129
H	 1.3141694115	-2.5926058883	 1.8442717936	 0.124238
H	 2.6964756213	-0.5072725203	 2.2792061359	 0.122057
H	 2.7986916788	-0.2179285973	 0.4693687097	 0.131076
H	 0.1382649478	 0.5110622544	 2.7611507083	 0.286747
84.9922	206.318	239.2154	255.1059	279.883	308.3802	383.7866	411.1421	451.3351	525.912	555.5895	598.3566	685.2371	799.398	861.7906	879.9211	903.2414	929.2195	962.6789	1003.7995	1016.9512	1056.3658	1066.6024	1099.9359	1110.1057	1142.2378	1195.092	1221.1556	1293.4519	1330.8949	1336.2987	1360.9642	1398.0259	1402.7444	1420.3513	1482.3095	1487.4615	1495.9895	1732.788	3012.1009	3035.2938	3103.6488	3125.5995	3132.8244	3163.4012	3198.5447	3228.5109	3797.2384
CC1N=COC2CC12O	C[C@H]1N=CO[C@H]2C[C@@]12O	
InChI=1S/C6H9NO2/c1-4-6(8)2-5(6)9-3-7-4/h3-5,8H,2H2,1H3	InChI=1S/C6H9NO2/c1-4-6(8)2-5(6)9-3-7-4/h3-5,8H,2H2,1H3/t4-,5+,6-/m1/s1
