19
gdb 16903	3.83723	1.80984	1.41127	2.4976	71.31	-0.2394	0.0717	0.3111	931.0155	0.167596	-365.046919	-365.039632	-365.038688	-365.078198	28.684	
C	 0.0427846001	 1.5318685837	 0.0680390994	-0.403012
C	 0.0158650576	 0.0123831211	 0.0032669927	 0.146419
C	 0.6872150941	-0.5435697718	-1.2628537426	-0.202819
C	 0.9481196732	-2.0389157418	-1.1485586051	-0.047519
N	 2.1682327862	-2.4245336684	-0.4100185749	-0.32296
C	 0.8532916166	-2.6952021507	 0.1841620702	-0.038287
C	 0.4734605295	-1.8516794787	 1.3838060624	-0.080676
O	 0.6702416935	-0.4697128986	 1.1715466581	-0.250937
H	 1.0768147982	 1.8883140266	 0.1029199465	 0.127943
H	-0.4443883468	 1.9645631413	-0.8113027393	 0.110595
H	-0.4725878581	 1.8874604117	 0.9641627686	 0.119776
H	-1.0334316143	-0.3349089931	 0.0209374597	 0.056119
H	 0.0445402325	-0.3398808238	-2.1267569513	 0.092024
H	 1.6385497031	-0.0259579054	-1.4286651438	 0.112205
H	 0.6894618289	-2.6382677651	-2.0181578817	 0.081836
H	 2.5545489489	-3.2803573329	-0.7996119201	 0.227758
H	 0.5060927864	-3.726245676	 0.2270489606	 0.08073
H	-0.5839179025	-2.0548700989	 1.6325572684	 0.080656
H	 1.0837358129	-2.1179164092	 2.2532628024	 0.110149
104.18	204.8744	234.511	308.7835	346.2231	383.9615	439.203	485.3977	542.1226	727.2338	776.3631	789.7358	844.0488	887.7822	913.1143	923.6089	961.112	1004.7152	1042.6091	1083.231	1111.5289	1122.0328	1150.2496	1165.2708	1171.1488	1213.8173	1252.6794	1263.5009	1295.735	1325.52	1377.2471	1390.203	1400.146	1412.9319	1417.1181	1462.7381	1467.9975	1483.145	1486.6782	1501.1026	2931.7674	2946.1869	3034.6025	3042.1133	3069.3251	3080.5764	3114.8487	3117.4451	3121.1004	3132.7676	3501.7029
CC1CC2NC2CO1	C[C@H]1C[C@H]2N[C@H]2CO1	
InChI=1S/C6H11NO/c1-4-2-5-6(7-5)3-8-4/h4-7H,2-3H2,1H3	InChI=1S/C6H11NO/c1-4-2-5-6(7-5)3-8-4/h4-7H,2-3H2,1H3/t4-,5+,6-/m0/s1
