15
gdb 75997	2.13726	1.62715	1.05865	3.2099	67.72	-0.2664	-0.009	0.2574	1109.4772	0.111609	-453.966435	-453.957358	-453.956414	-454.000796	31.322	
C	-0.0739745806	 1.3863820475	-0.0676435741	-0.355109
N	-0.0021670767	-0.0536545878	-0.0112834891	-0.054944
C	-1.0480909964	-1.071635611	-0.0555175444	-0.217682
C	-1.7743007386	-1.1358110621	-1.3224700755	 0.303781
N	-2.3143627693	-1.1880518413	-2.3431000031	-0.319853
C	 0.1194419845	-2.1527272421	 0.0759046465	 0.003588
O	 0.216886861	-3.1829728574	-0.8394569871	-0.397373
C	 1.0701038476	-0.9200833649	-0.0110473744	 0.35439
O	 2.2541485799	-0.7338764984	-0.0612205344	-0.353698
H	 0.9514398143	 1.7626870877	-0.0726436914	 0.171377
H	-0.5818572628	 1.7221916872	-0.9784831866	 0.15119
H	-0.6004792054	 1.7942082188	 0.8025401677	 0.13908
H	-1.75449327	-1.0390187059	 0.7809140315	 0.130456
H	 0.1156121738	-2.6026321682	 1.0714808023	 0.138488
H	 0.3513785086	-2.8232044621	-1.7244137278	 0.306311
71.9796	96.6784	131.6216	155.2529	201.964	241.7096	275.0297	342.337	386.7237	463.7215	537.8122	606.8351	687.9942	767.9896	818.5411	829.5043	959.2549	1015.8257	1049.6327	1133.2847	1153.6887	1167.7146	1229.7638	1276.1932	1296.8252	1356.3899	1404.6802	1435.7202	1451.4856	1482.0781	1514.5166	1890.9753	2354.4773	3027.2967	3054.91	3086.7508	3099.8923	3136.9949	3796.4525
CN1C(C#N)C(O)C1=O	CN1[C@@H](C#N)[C@@H](O)C1=O	
InChI=1S/C5H6N2O2/c1-7-3(2-6)4(8)5(7)9/h3-4,8H,1H3	InChI=1S/C5H6N2O2/c1-7-3(2-6)4(8)5(7)9/h3-4,8H,1H3/t3-,4+/m0/s1
