20
gdb 122499	3.20845	0.74199	0.64993	3.6579	78.47	-0.2516	0.0015	0.2531	1743.8171	0.169016	-440.264085	-440.254078	-440.253133	-440.300306	34.565	
C	-0.2843547548	 1.1887708926	-0.2300050166	-0.231169
O	-0.075012567	-0.201586127	-0.1526660843	-0.228746
C	 0.605867094	-0.7184366871	-1.2708505069	-0.049853
C	 0.7629089958	-2.2242142182	-1.0754179294	-0.231326
C	 1.5910082877	-2.8812190041	-2.1566272265	-0.013181
C	 1.4211207695	-4.3420812895	-2.4709421224	-0.25293
N	 0.9931179994	-3.3316584657	-3.4074609357	-0.061084
C	-0.3114008427	-3.1626704968	-3.8313110896	 0.13579
O	-1.0844916101	-4.0598896944	-4.0649319518	-0.289372
H	 0.6663018072	 1.7423045885	-0.2881538169	 0.10512
H	-0.894027558	 1.4621682759	-1.1056088093	 0.107184
H	-0.8137143078	 1.49028592	 0.6767881843	 0.130929
H	 0.048546412	-0.5017450971	-2.1988044282	 0.090847
H	 1.5971660912	-0.242201459	-1.3764747251	 0.087164
H	 1.2495402055	-2.3921481929	-0.1072595795	 0.122468
H	-0.2273954763	-2.6900951564	-1.0214230992	 0.122888
H	 2.5895237196	-2.4628771259	-2.2832821669	 0.103467
H	 2.2813834563	-4.9361083872	-2.7663611106	 0.128971
H	 0.6386000205	-4.8867841465	-1.9481739923	 0.13899
H	-0.5493377819	-2.0967152191	-4.0122124532	 0.083843
51.9245	78.5579	107.9873	124.3864	137.0249	219.5879	237.1958	257.7604	337.8735	353.3322	488.9925	495.7968	617.9974	799.1311	817.1261	883.0013	947.988	987.1185	1034.8762	1037.2101	1064.6569	1104.7346	1116.5949	1137.1965	1156.9862	1166.6771	1177.9332	1196.1868	1228.4487	1243.8345	1306.3458	1310.5519	1380.0053	1416.4899	1425.2737	1438.5167	1479.9131	1482.5572	1486.6152	1504.3113	1513.2231	1530.941	1796.8056	2941.4752	2947.2698	2969.8389	2973.1083	3016.0749	3038.8794	3082.7597	3110.4838	3112.4174	3117.8775	3199.5746
COCCC1CN1C=O	COCC[C@H]1CN1C=O	
InChI=1S/C6H11NO2/c1-9-3-2-6-4-7(6)5-8/h5-6H,2-4H2,1H3	InChI=1S/C6H11NO2/c1-9-3-2-6-4-7(6)5-8/h5-6H,2-4H2,1H3/t6-,7?/m0/s1
