23
gdb 63981	2.85151	1.38775	1.22504	1.4772	84.08	-0.2402	0.074	0.3142	1155.1702	0.206798	-388.296936	-388.288302	-388.287358	-388.329683	34.729	
C	 0.2974787265	 1.5015744855	-0.0624346678	-0.451789
C	 0.0719792847	-0.0076213921	-0.0084192317	 0.340675
C	-1.4056330166	-0.329959895	-0.2487576355	-0.437345
C	 1.0160361882	-0.8646500369	-0.9160159757	-0.309731
C	 1.4175093351	-1.7338092962	 0.3088308449	 0.13047
O	 2.7795727137	-1.7003849138	 0.6917439579	-0.256407
C	 3.0138772273	-0.461998953	 1.3513705085	-0.089692
C	 1.7169161319	-0.1452009265	 2.1182878794	-0.250505
C	 0.6178055511	-0.7804222146	 1.2503786849	-0.079451
H	 1.3512831648	 1.7691734178	 0.0629141614	 0.111317
H	-0.0263204833	 1.9000636117	-1.0310319276	 0.112402
H	-0.2749466184	 2.0208435675	 0.7152669559	 0.111304
H	-1.732704934	 0.0357565788	-1.2290118872	 0.110295
H	-1.5916164546	-1.4091960059	-0.2188127403	 0.11095
H	-2.0405252675	 0.1374815076	 0.5132242602	 0.110166
H	 0.5249918568	-1.3976546715	-1.7347573383	 0.093704
H	 1.8654117611	-0.3110675613	-1.3258455792	 0.100554
H	 1.1177276811	-2.7823292848	 0.2576081611	 0.075853
H	 3.8880672179	-0.5875885075	 1.9959858714	 0.106977
H	 3.243353152	 0.3319542514	 0.6229112027	 0.090045
H	 1.735282681	-0.6372133576	 3.095400009	 0.105256
H	 1.5827423765	 0.9260303075	 2.2889420604	 0.10218
H	-0.1680114952	-1.2296214614	 1.8612754458	 0.062774
82.7401	191.9697	225.3388	250.2581	272.1244	306.7028	329.6838	366.9393	422.8498	466.2224	568.2709	645.6269	703.6214	761.8367	826.3468	866.3407	883.7719	901.7763	932.1429	941.5365	959.9803	975.1598	993.0938	1017.2662	1056.7779	1067.9278	1083.5355	1133.8233	1179.7621	1207.6921	1220.3677	1235.4757	1236.9377	1254.903	1271.5675	1289.1782	1318.9619	1336.5012	1358.8137	1394.7484	1400.8928	1420.4759	1475.739	1479.792	1486.4683	1490.56	1501.3758	1509.4947	1521.279	2976.3528	3017.2009	3022.6488	3053.5077	3054.6089	3077.4927	3081.4363	3085.74	3086.7498	3088.9306	3092.1434	3095.8122	3106.4515	3110.0907
CC1(C)CC2OCCC12	CC1(C)C[C@H]2OCC[C@@H]12	
InChI=1S/C8H14O/c1-8(2)5-7-6(8)3-4-9-7/h6-7H,3-5H2,1-2H3	InChI=1S/C8H14O/c1-8(2)5-7-6(8)3-4-9-7/h6-7H,3-5H2,1-2H3/t6-,7-/m1/s1
