12
gdb 23619	4.02747	1.85475	1.26992	2.9692	60.9	-0.2294	-0.03	0.1994	853.1759	0.084996	-422.648062	-422.641994	-422.641049	-422.678385	23.134	
F	 0.0577742179	 0.0667439896	 0.0490470953	-0.040153
C	-0.0639114442	 1.3726233339	-0.0096112369	 0.396984
C	-1.2182005418	 2.0327852515	 0.1204911663	-0.370722
C	-1.2398288322	 3.4905624889	 0.0383579375	 0.309692
N	-2.3456706032	 4.1348715803	 0.162235028	-0.536371
C	 0.0923521176	 4.0645409832	-0.190019354	-0.226766
C	 1.1768448092	 3.2915599291	-0.303306495	 0.068101
O	 1.1431659486	 1.9269841219	-0.2185082344	-0.210404
H	-2.137360883	 1.4885933407	 0.2867067257	 0.13537
H	-2.1810034231	 5.1401418621	 0.0792691804	 0.206868
H	 0.2069246938	 5.1396628172	-0.269720729	 0.116979
H	 2.1871352705	 3.6384859517	-0.471315244	 0.150423
156.385	209.4731	359.4811	410.0363	477.4088	522.0844	550.1623	650.8924	707.0274	767.5594	799.0449	868.8028	896.2972	938.6338	949.9128	951.6444	1068.6487	1150.1243	1244.5741	1270.3119	1315.1242	1415.6389	1434.4353	1642.0082	1683.0979	1747.2301	3198.2022	3237.9091	3240.6528	3446.2046
FC1=CC(=N)C=CO1	F[C@H]1C=C([NH])C=CO1	
InChI=1S/C5H4FNO/c6-5-3-4(7)1-2-8-5/h1-3,7H	InChI=1S/C5H5FNO/c6-5-3-4(7)1-2-8-5/h1-3,5,7H/t5-/m1/s1
