19
gdb 99920	2.3147	1.32542	1.03928	2.8815	75.69	-0.2448	0.0109	0.2557	1222.5082	0.158607	-419.195146	-419.1854	-419.184456	-419.229588	36.135	
N	 0.0065985736	 1.3664655501	-0.2726303362	-0.510613
C	 0.106090084	-0.0634651883	-0.054290288	-0.154502
C	 0.8570438852	-0.5081925669	 1.233236591	 0.151344
O	 2.1673122155	 0.0363299203	 1.1130753659	-0.448013
C	 0.1843425222	 0.0831912265	 2.4140329557	 0.239629
N	-0.3394919266	 0.5501495566	 3.3328996019	-0.337713
C	 0.8618239321	-2.0299299307	 1.3631114419	 0.015721
C	 1.8586401138	-2.8473757104	 0.5853099597	-0.275204
C	 1.9619094095	-2.760149343	 2.0873278329	-0.286172
H	-0.5585368649	 1.7975349535	 0.453439787	 0.240139
H	 0.9321952757	 1.7792682544	-0.2072224825	 0.239404
H	-0.8969357272	-0.5013656716	-0.0397771265	 0.116904
H	 0.6517769373	-0.5181663376	-0.8877846323	 0.125205
H	 2.5931084253	 0.0237970696	 1.9769304832	 0.299732
H	-0.1368361078	-2.4433711965	 1.4692209752	 0.104055
H	 1.5200851562	-3.7732772251	 0.135143468	 0.11954
H	 2.6023001369	-2.305104505	 0.0132736372	 0.131787
H	 2.78789255	-2.1855690449	 2.4928429175	 0.104604
H	 1.6874613993	-3.6203607911	 2.6865739285	 0.124153
77.5291	112.7206	145.5101	159.46	203.8039	266.9028	300.8555	310.3744	356.5712	394.6678	426.4438	484.3613	574.6022	629.0143	704.6256	787.645	828.2331	861.2981	891.8477	900.1636	932.1669	1026.679	1035.7502	1055.5831	1063.2243	1091.0458	1136.2558	1138.2843	1157.9215	1197.8563	1226.373	1246.7367	1343.142	1372.3992	1391.9664	1404.7556	1462.5711	1471.5147	1503.3894	1671.3169	2345.5129	3050.4778	3099.5739	3137.0176	3144.4386	3154.2093	3217.8781	3236.2158	3495.8996	3576.1233	3817.6588
NCC(O)(C#N)C1CC1	NC[C@@](O)(C#N)C1CC1	
InChI=1S/C6H10N2O/c7-3-6(9,4-8)5-1-2-5/h5,9H,1-3,7H2	InChI=1S/C6H10N2O/c7-3-6(9,4-8)5-1-2-5/h5,9H,1-3,7H2/t6-/m1/s1
