16
gdb 105160	2.58388	1.17203	0.97707	1.781	71.31	-0.2795	-0.0655	0.214	1229.5616	0.12125	-437.885013	-437.875718	-437.874774	-437.919656	32.47	
C	 0.2545355886	 0.3692584307	 1.2339121088	-0.392495
C	-0.2410860672	-0.5214269155	 0.0863574323	-0.278044
C	 0.7565367148	-0.5978159299	-1.0438445532	 0.282541
O	 2.0081754825	-1.2619615374	-0.7958659336	-0.2558
C	 1.1274004807	-1.8785392443	-1.7205241232	-0.164054
C	 0.5049868468	-3.1221287994	-1.3230208386	 0.317777
N	 0.0020300622	-4.1216790373	-1.0341859762	-0.319682
C	 0.9265897593	 0.6192752284	-1.9194452219	 0.132237
O	 0.1620842462	 1.5461186584	-1.9328785937	-0.239159
H	 1.197748311	-0.0086766537	 1.638748601	 0.135559
H	 0.4076518406	 1.3984550178	 0.8983509057	 0.138819
H	-0.4804816518	 0.3850433503	 2.0426525104	 0.127277
H	-0.4493803437	-1.5304502688	 0.4521896692	 0.134357
H	-1.1727615703	-0.120469841	-0.3260074219	 0.134188
H	 1.4574115251	-1.8602455214	-2.7588082007	 0.146273
H	 1.8386067552	 0.5819190131	-2.5553895846	 0.100207
69.2771	86.5294	124.1373	180.3034	203.7508	221.157	279.0242	320.6176	382.7296	427.9546	538.3191	585.3001	619.5831	732.1199	786.4762	818.9246	916.5867	975.5952	994.3364	1038.2471	1072.0329	1099.7863	1112.5453	1241.6991	1304.2508	1320.5116	1368.3222	1394.5746	1408.961	1441.095	1469.3066	1500.0244	1508.8229	1834.553	2362.4821	2897.3127	3048.9001	3059.3362	3102.0077	3121.732	3123.8799	3129.3252
CCC1(OC1C#N)C=O	CC[C@]1(O[C@H]1C#N)C=O	
InChI=1S/C6H7NO2/c1-2-6(4-8)5(3-7)9-6/h4-5H,2H2,1H3	InChI=1S/C6H7NO2/c1-2-6(4-8)5(3-7)9-6/h4-5H,2H2,1H3/t5-,6-/m0/s1
