21
gdb 82523	2.21722	1.62042	1.37314	1.8317	82.26	-0.2354	0.0821	0.3175	1084.6847	0.181489	-387.045583	-387.036536	-387.035592	-387.078704	35.262	
C	-0.0298308304	 1.5603586907	 0.0234463862	-0.504737
C	 0.0395222728	 0.0597490969	 0.0340823893	 0.214769
C	-0.8545133403	-0.8217246565	 0.8565863105	 0.081545
O	-1.6444645338	-1.8563907373	 0.3407927094	-0.438154
C	 0.6282939855	-0.9334936563	 1.0785395154	-0.151247
C	 1.2639117568	-1.7692268758	-0.0397782311	-0.317711
C	 0.6582163587	-0.7926100006	-1.0678760609	 0.308609
C	 0.0735521845	-1.1048198294	-2.4278928036	-0.343806
C	 1.3382205357	-0.282673332	-2.2969952395	-0.349425
H	 0.9450468077	 2.005350319	-0.2062282857	 0.119436
H	-0.7466959413	 1.9252225952	-0.7231776381	 0.118519
H	-0.3511450495	 1.944954377	 0.9965688335	 0.121215
H	-1.3833194955	-0.3022594402	 1.6525264775	 0.094402
H	-1.4807637349	-1.9048160298	-0.6070219468	 0.294983
H	 1.0867222052	-0.7202830428	 2.0376213047	 0.082582
H	 2.3561559979	-1.7392695874	-0.0321911704	 0.104321
H	 0.9321628663	-2.8114128041	-0.0927543742	 0.102276
H	 0.1649875978	-2.1184652833	-2.8059928199	 0.117267
H	-0.8309242964	-0.5904631663	-2.7395891658	 0.115186
H	 1.2767453467	 0.7779698098	-2.5191866153	 0.115738
H	 2.2768504462	-0.7437624067	-2.5879917253	 0.114231
109.5671	170.2506	182.9344	199.9367	231.4613	234.1297	290.8516	353.682	384.5031	510.6798	545.653	598.2394	655.0984	769.7633	785.7284	827.4322	856.607	889.411	904.3066	932.6278	962.5072	985.5422	1000.9597	1034.6416	1046.8814	1078.4259	1083.8268	1109.7749	1135.5424	1162.4529	1180.8918	1190.6928	1240.8266	1253.1116	1283.2945	1316.1766	1365.1245	1382.7975	1415.819	1458.8728	1462.0455	1485.3128	1490.3628	1498.9754	1503.0374	3017.5093	3044.3771	3074.8395	3097.5047	3101.1105	3116.4171	3123.7856	3138.3297	3174.0542	3196.025	3211.6325	3808.3054
CC12C(O)C1CC21CC1	C[C@]12[C@@H](O)[C@H]1CC12CC1	
InChI=1S/C8H12O/c1-7-5(6(7)9)4-8(7)2-3-8/h5-6,9H,2-4H2,1H3	InChI=1S/C8H12O/c1-7-5(6(7)9)4-8(7)2-3-8/h5-6,9H,2-4H2,1H3/t5-,6+,7-/m1/s1
