23
gdb 123008	4.58037	0.55888	0.52778	2.2324	84.	-0.2413	0.0776	0.319	2143.136	0.203419	-425.39847	-425.38753	-425.386586	-425.435771	38.623	
C	 0.3152593745	 1.5859197069	-0.1404375657	-0.396152
C	 0.165491117	 0.0842345832	-0.0378430723	-0.028513
C	 1.3789218972	-0.7944855029	 0.2097389139	-0.323831
C	 0.3244060717	-0.6159801792	 1.2783166614	 0.129414
O	 0.6082820752	 0.1724942707	 2.38980893	-0.248673
C	 1.3351543693	-0.5137283343	 3.3943905365	-0.055958
C	 1.576609749	 0.4459230243	 4.5503340021	-0.183797
C	 2.3508923795	-0.1981502056	 5.6926700157	-0.071715
O	 2.5211090897	 0.7813831979	 6.7055024918	-0.419521
H	 1.0336467802	 1.9563741227	 0.5940631552	 0.128146
H	 0.6582916716	 1.8774693862	-1.13891603	 0.111451
H	-0.6386166788	 2.0904355216	 0.0478807331	 0.117085
H	-0.5934998558	-0.3398647579	-0.6903486739	 0.083557
H	 1.4624643831	-1.7478720583	-0.300863675	 0.106987
H	 2.321878194	-0.2825465128	 0.3744131437	 0.114118
H	-0.3284974965	-1.4641134207	 1.4932855823	 0.078365
H	 0.7663216545	-1.3959916576	 3.7345814589	 0.084314
H	 2.2886102092	-0.8847185019	 2.9849939194	 0.088949
H	 2.1308081191	 1.3187280862	 4.1888260014	 0.114572
H	 0.6154812949	 0.8104419741	 4.9278734518	 0.11647
H	 1.7982135027	-1.0729403491	 6.0737963164	 0.084803
H	 3.3241209854	-0.5650222766	 5.3262103967	 0.084594
H	 3.0085285932	 0.381115073	 7.4312342768	 0.285336
48.7395	62.1985	86.2667	121.9131	134.8992	179.7459	201.0618	261.5807	267.2472	336.1925	355.2232	448.614	507.8665	579.1129	755.2775	779.5861	831.5561	878.1229	889.6401	923.2436	974.6056	1016.8888	1030.8996	1055.5709	1062.7862	1088.3102	1108.0854	1119.6635	1149.453	1177.5912	1188.1099	1196.8205	1230.702	1245.4723	1254.3021	1302.1546	1305.489	1319.0774	1371.0473	1400.3837	1419.2211	1443.2776	1466.7237	1486.0912	1494.1508	1499.6248	1504.9486	1522.9979	1534.6441	2952.1832	2960.6076	2978.9474	2989.4864	3035.0258	3051.0351	3078.3605	3092.1233	3097.1576	3122.2282	3127.7046	3142.0367	3215.2771	3831.1287
CC1CC1OCCCO	C[C@H]1C[C@H]1OCCCO	
InChI=1S/C7H14O2/c1-6-5-7(6)9-4-2-3-8/h6-8H,2-5H2,1H3	InChI=1S/C7H14O2/c1-6-5-7(6)9-4-2-3-8/h6-8H,2-5H2,1H3/t6-,7+/m0/s1
