19
gdb 59913	3.86527	0.7396	0.678	3.2332	74.38	-0.2563	-0.0298	0.2265	1689.9164	0.155147	-460.217748	-460.207296	-460.206352	-460.254855	35.93	
C	-0.3236113734	 1.484805331	-0.1382066048	-0.393606
C	 0.0074544122	 0.0067074684	-0.0020269469	 0.141504
C	 0.8208230119	-0.3258133701	 1.2434884387	-0.397644
O	-1.2750077305	-0.6869915949	 0.0568154796	-0.251366
C	-1.3027884917	-1.9582952926	-0.3659067397	 0.429556
O	-0.3539683023	-2.5689788843	-0.7965485924	-0.365685
C	-2.6955105061	-2.547802282	-0.2483046682	-0.393413
C	-3.0702125988	-3.3488722274	-1.488482159	 0.164343
O	-4.1830687472	-3.3872714228	-1.9405687165	-0.235928
H	 0.5985738896	 2.0675407184	-0.2196030981	 0.123936
H	-0.9276636897	 1.668152687	-1.0306441461	 0.128047
H	-0.8796903271	 1.8407187109	 0.7345839153	 0.127645
H	 0.5301856846	-0.3580048668	-0.8902479579	 0.114089
H	 0.2827316892	-0.0241199268	 2.1476953535	 0.123297
H	 1.0299074629	-1.3966605333	 1.2928137528	 0.141348
H	 1.7760186885	 0.2075918728	 1.2178770099	 0.123269
H	-2.6683502841	-3.2601729951	 0.5886851268	 0.161537
H	-3.4545761391	-1.7956468211	-0.0336984078	 0.146915
H	-2.2255587788	-3.9096895414	-1.937861839	 0.112156
31.9208	53.8169	93.662	107.5955	157.9796	216.9001	245.5276	274.881	292.538	394.8153	422.27	461.0036	492.3837	596.5976	736.5653	789.5228	826.9586	905.2417	934.4525	951.1531	977.85	1049.2445	1058.6801	1135.1033	1162.337	1168.1104	1204.3437	1233.6247	1323.0946	1363.3719	1387.5063	1402.9054	1411.5205	1418.6208	1438.262	1481.5783	1486.119	1496.0514	1510.8749	1799.0809	1840.6436	2935.9647	3029.2262	3041.8565	3045.9149	3078.8135	3112.249	3122.4102	3124.0431	3133.9079	3142.3772
CC(C)OC(=O)CC=O	CC(C)OC(=O)CC=O	
InChI=1S/C6H10O3/c1-5(2)9-6(8)3-4-7/h4-5H,3H2,1-2H3	InChI=1S/C6H10O3/c1-5(2)9-6(8)3-4-7/h4-5H,3H2,1-2H3
