19
gdb 87640	2.71982	1.25284	1.10212	2.9543	78.4	-0.2294	0.0226	0.2521	1196.9195	0.157973	-419.179373	-419.169985	-419.169041	-419.21347	34.945	
C	-0.0188311602	 1.5349481023	 0.3340678315	-0.415298
C	-0.0642219915	 0.0276405156	 0.2214992816	-0.0457
C	 1.0863251768	-0.7300002346	-0.4382028732	-0.375376
C	 0.8442059412	-0.8397647055	 1.0290104614	 0.35607
N	 1.7404659489	-0.4211505348	 2.1137949521	-0.39056
C	 1.1796448706	-1.321302373	 3.0141531793	 0.345557
N	 1.1323959579	-1.4984600934	 4.2655962313	-0.558485
C	 0.4245793406	-2.0476033096	 1.8981093974	-0.030828
O	-0.9446099891	-2.2447022276	 2.119863657	-0.433922
H	 1.0048477512	 1.8977336831	 0.4826162073	 0.105297
H	-0.3998348803	 2.009391607	-0.576268457	 0.127605
H	-0.6249284526	 1.8911424495	 1.1744047318	 0.123322
H	-1.056736205	-0.3895028246	 0.0706877008	 0.107494
H	 0.8635261764	-1.5866830024	-1.0666173226	 0.120138
H	 1.9404366706	-0.1442272896	-0.7664267968	 0.111351
H	 2.0120217506	 0.5292678026	 2.3293537398	 0.23938
H	 1.6464742649	-0.7831071721	 4.7822179212	 0.213453
H	 0.9042116374	-2.9810997239	 1.5778348084	 0.100255
H	-1.0886332585	-2.1395520991	 3.0683429087	 0.300247
69.6307	131.1571	162.2935	185.3286	199.9328	211.4084	271.7772	374.7673	400.8615	471.3488	495.0835	549.3738	572.5756	702.9545	786.1554	804.2399	844.0867	876.096	899.1884	909.699	978.8666	1020.2315	1045.0945	1059.504	1105.2416	1127.8891	1151.9499	1171.0771	1185.9155	1217.5682	1259.3551	1326.7381	1346.1124	1363.5971	1387.9112	1413.2181	1439.9179	1491.7919	1495.1099	1513.6777	1799.0512	3025.1667	3029.3078	3086.5548	3094.5634	3118.1485	3145.5527	3203.9801	3463.0166	3573.6666	3784.6073
CC1CC11NC(=N)C1O	C[C@H]1C[C@]21N[C]([NH])[C@H]2O	
InChI=1S/C6H10N2O/c1-3-2-6(3)4(9)5(7)8-6/h3-4,9H,2H2,1H3,(H2,7,8)	InChI=1S/C6H10N2O/c1-3-2-6(3)4(9)5(7)8-6/h3-4,9H,2H2,1H3,(H2,7,8)/t3-,4+,6+/m0/s1
