16
gdb 105024	2.43935	1.30406	1.07044	3.7256	64.67	-0.28	0.0029	0.283	1148.7401	0.122218	-474.992875	-474.983555	-474.982611	-475.027418	33.243	
O	 0.1453784591	 1.2818512071	 0.1810540828	-0.41393
C	 0.0058499458	-0.0336614898	-0.3243651421	-0.13187
C	-1.3977912034	-0.5499680836	-0.0782728038	 0.332092
C	-1.6370160355	-1.9175585477	 0.4025924735	-0.237219
O	-1.6838023529	-0.8002735916	 1.300115585	-0.263911
C	-2.4756437098	 0.2279945584	-0.8409745082	-0.086851
O	-2.3253187205	 0.0839011022	-2.2416749443	-0.40093
C	-3.8363507806	-0.1347238011	-0.4038480834	 0.272131
N	-4.9085433496	-0.4543574241	-0.1159546587	-0.324844
H	-0.003853844	 1.2348757078	 1.1328584534	 0.298256
H	 0.2017329326	 0.0225812615	-1.3984443428	 0.132931
H	 0.7293291418	-0.7250111564	 0.1296113533	 0.099581
H	-2.5966045423	-2.398056703	 0.2222237612	 0.141286
H	-0.791276692	-2.5887744989	 0.5399282381	 0.127064
H	-2.3134544622	 1.2915558861	-0.6363244341	 0.1594
H	-2.5288624265	-0.829763937	-2.47494964	 0.296814
56.2001	89.4069	143.0709	178.3814	238.3255	247.1142	323.611	356.713	373.1501	415.8245	463.5902	511.4289	599.6922	637.4526	747.2598	840.4875	911.7821	948.5714	982.3539	1024.8178	1070.8473	1079.1779	1127.0936	1172.8328	1198.8545	1239.1805	1273.9517	1330.1461	1361.4789	1414.8612	1424.2926	1433.3085	1488.2254	1524.1592	2359.156	3011.0772	3074.237	3094.6204	3104.3702	3185.8102	3794.4979	3796.1111
OCC1(CO1)C(O)C#N	OC[C@]1(CO1)[C@@H](O)C#N	
InChI=1S/C5H7NO3/c6-1-4(8)5(2-7)3-9-5/h4,7-8H,2-3H2	InChI=1S/C5H7NO3/c6-1-4(8)5(2-7)3-9-5/h4,7-8H,2-3H2/t4-,5-/m0/s1
