14
gdb 23542	1.93859	1.80733	1.02884	2.8753	66.59	-0.2508	-0.0367	0.2141	1094.1993	0.098337	-473.730014	-473.721924	-473.72098	-473.763326	29.142	
O	-0.0707690117	 1.3008600977	 0.0139312488	-0.376813
N	 0.0595054888	-0.0859048349	-0.0806244009	-0.243467
C	-1.0614719156	-0.6632157564	 0.0080635725	 0.427918
C	-1.4264042213	-2.1109180559	-0.0754780411	-0.085538
O	-2.2484062272	-2.3773153464	 1.083703401	-0.228956
C	-2.8601727743	-1.7461622362	-0.0349510549	 0.010388
C	-2.5417756154	-0.2237470701	 0.0609548389	-0.225955
C	-3.0477699543	 0.4833657035	 1.2988522402	 0.168551
O	-3.6335170955	 1.534813863	 1.2766957285	-0.248259
H	 0.8400145753	 1.6050427005	-0.0703650332	 0.316409
H	-0.9021748597	-2.9443666241	-0.5225564479	 0.130971
H	-3.7204671201	-2.2206612734	-0.4896494124	 0.130496
H	-2.8182505131	 0.3469993952	-0.8297687535	 0.123165
H	-2.847901246	-0.0578404926	 2.246040934	 0.101089
73.4329	99.8234	169.7769	190.077	272.5575	347.2326	419.7919	449.7204	488.4747	591.0914	641.7032	706.9945	800.3133	836.1322	846.9989	941.1516	985.1606	1005.7908	1040.0094	1054.1294	1099.5803	1129.223	1178.8996	1215.3225	1254.7828	1262.3196	1352.0202	1416.1402	1421.3807	1786.2031	1824.6642	2929.3565	3091.5575	3205.0838	3226.6417	3811.3066
ON=C1C2OC2C1C=O	ON=C1[C@H]2O[C@H]2[C@H]1C=O	
InChI=1S/C5H5NO3/c7-1-2-3(6-8)5-4(2)9-5/h1-2,4-5,8H	InChI=1S/C5H5NO3/c7-1-2-3(6-8)5-4(2)9-5/h1-2,4-5,8H/t2-,4-,5+/m0/s1
