18
gdb 64721	4.01692	1.09067	1.03805	2.4278	77.43	-0.2307	0.0402	0.2709	1193.7741	0.146088	-401.861662	-401.853058	-401.852113	-401.894724	33.534	
O	-0.0751749787	 1.4393192828	-0.0608570361	-0.477628
C	-0.017401279	 0.0431069601	 0.0265334419	 0.434502
C	 0.9033226774	-0.5399903602	-1.0702765628	-0.40729
C	 2.2589286139	-0.0152651126	-0.9579243538	 0.263903
C	 3.3510316242	 0.4700465236	-0.8200285254	-0.422648
C	 0.2528649469	-0.6167242686	 1.4403203749	-0.294745
C	-1.0920847034	-1.3342680441	 1.296338634	-0.040841
N	-2.1058740209	-0.2570910758	 1.2421157373	-0.329873
C	-1.3851087738	-0.6428080888	 0.007690153	-0.098039
H	 0.8331086913	 1.767310579	-0.0736451165	 0.28207
H	 0.9112456337	-1.6344406278	-1.0107906737	 0.130829
H	 0.4855652244	-0.2724899391	-2.0491610448	 0.135611
H	 4.3283681697	 0.8734336201	-0.7192776434	 0.200879
H	 1.1301070007	-1.2666014927	 1.4506073626	 0.104199
H	 0.2935799077	 0.09112766	 2.2699585858	 0.112851
H	-1.3520073306	-2.3370763144	 1.610185575	 0.092437
H	-3.0220373151	-0.7029868392	 1.1881861207	 0.22794
H	-1.9248358485	-0.9794744122	-0.8704832887	 0.085844
76.3794	115.6158	170.3186	259.4278	333.0335	359.6648	370.4707	414.0962	425.1789	454.0933	589.7072	627.0051	655.1758	695.4513	780.2246	812.9406	838.837	883.7973	901.257	944.5224	965.9047	970.665	1008.9592	1036.2535	1075.1189	1104.2741	1138.0328	1146.5262	1197.7566	1221.9409	1269.5221	1291.717	1300.2457	1317.0562	1378.013	1418.2208	1461.63	1472.0271	2231.2601	3026.9848	3067.1707	3073.8097	3136.2883	3172.5018	3198.2409	3466.1354	3503.8998	3767.6963
OC1(CC#C)CC2NC12	O[C@@]1(CC#C)C[C@H]2N[C@@H]12	
InChI=1S/C7H9NO/c1-2-3-7(9)4-5-6(7)8-5/h1,5-6,8-9H,3-4H2	InChI=1S/C7H9NO/c1-2-3-7(9)4-5-6(7)8-5/h1,5-6,8-9H,3-4H2/t5-,6-,7+/m1/s1
