17
gdb 97212	2.79507	1.27523	0.89035	3.0136	78.09	-0.256	-0.0317	0.2244	1299.9512	0.134624	-455.155922	-455.146374	-455.14543	-455.192003	31.679	
C	-0.0406717981	 1.4274870564	 0.139426642	-0.340431
N	-0.0237975518	-0.0229535575	 0.1701753697	-0.289641
C	-1.0773968679	-0.6708746387	-0.0348173188	 0.347507
O	-2.3224555198	-0.1447789333	-0.3014576949	-0.253655
C	-3.2456956475	-1.2019895041	-0.4740376751	 0.021912
O	-2.5499680789	-2.4216731107	-0.306141659	-0.253654
C	-1.2256209996	-2.1534206189	-0.037458253	 0.347508
N	-0.3213258078	-2.9978116635	 0.1653977275	-0.28964
C	-0.6249601893	-4.416089498	 0.1294353568	-0.340437
H	 0.6868014615	 1.7710945885	-0.6044198239	 0.135728
H	-1.0173825581	 1.8694730365	-0.0873626174	 0.124148
H	 0.3022254942	 1.8032900521	 1.1100731067	 0.13589
H	-4.0393227861	-1.12420329	 0.2790380702	 0.129538
H	-3.6722661202	-1.1573215985	-1.4835575524	 0.129456
H	-1.6715182203	-4.6550222957	-0.0905050511	 0.124149
H	 0.0141952072	-4.8928188603	-0.6221621781	 0.135775
H	-0.3553394874	-4.8574115443	 1.0955645806	 0.135848
49.9319	53.9439	98.8289	115.996	141.1222	172.3911	254.1011	271.0789	376.2361	561.0925	576.779	671.0712	758.1386	759.599	781.7019	963.9494	1044.129	1049.1632	1093.4622	1099.8469	1129.0328	1129.3085	1149.6761	1175.7736	1176.223	1210.899	1295.1463	1435.1649	1440.4163	1444.0653	1492.3922	1492.5577	1494.5438	1495.6418	1550.3653	1796.0788	1823.5611	3018.6234	3018.8582	3020.2009	3064.6617	3082.2871	3082.353	3091.3085	3091.4617
CN=C1OCOC1=NC	CN=C1OCOC1=NC	
InChI=1S/C5H8N2O2/c1-6-4-5(7-2)9-3-8-4/h3H2,1-2H3	InChI=1S/C5H8N2O2/c1-6-4-5(7-2)9-3-8-4/h3H2,1-2H3
