22
gdb 92977	3.00459	1.27856	1.01467	1.0888	88.	-0.2262	0.0255	0.2518	1252.8692	0.195028	-367.191722	-367.183036	-367.182092	-367.225155	33.767	
C	-0.1106761398	 1.5073151191	 0.0731804678	-0.374737
C	 0.0511396579	-0.0171953647	 0.0808841346	-0.016684
C	 0.834161305	-0.4972559155	-1.1758070225	-0.264774
C	 2.2491254955	-0.6434865058	-0.669522394	-0.068014
C	 2.3000378435	-0.6463879454	 0.6598579041	-0.06809
C	 0.9219061663	-0.5293758423	 1.2718047827	 0.019744
N	 0.8933820677	 0.3471707151	 2.4411555119	-0.065509
C	-0.1543257205	 0.0787941829	 3.4219368775	-0.222069
C	 1.2631279843	-0.2690446907	 3.7106945733	-0.22628
H	 0.8627129375	 2.0046646841	 0.0263014977	 0.123402
H	-0.6961682975	 1.8157440174	-0.7996565459	 0.099485
H	-0.6189168315	 1.865186134	 0.9711011735	 0.119414
H	-0.942587622	-0.4752079307	 0.116768425	 0.062714
H	 0.4546876752	-1.4596174278	-1.547799251	 0.100926
H	 0.7475707919	 0.2093281932	-2.0098993646	 0.099321
H	 3.1007553224	-0.7637208366	-1.3304612476	 0.09063
H	 3.1910926159	-0.7632393437	 1.2663321572	 0.091484
H	 0.5747016066	-1.5443243643	 1.558893064	 0.053772
H	-0.6147975896	 0.9510767275	 3.8768639423	 0.114456
H	-0.8367053633	-0.7474073115	 3.2257575893	 0.107855
H	 1.5226059257	-1.3271079812	 3.710682927	 0.107691
H	 1.8587475386	 0.3451167969	 4.3799953575	 0.115263
80.6598	89.5067	181.9622	215.2254	243.573	319.2593	352.9022	388.0662	472.7203	486.3279	686.841	736.5457	772.1757	790.3442	830.0353	881.733	901.456	904.4124	933.5887	967.9892	975.8093	1001.9699	1033.1942	1059.3843	1076.4738	1096.3018	1111.5008	1114.5522	1118.7307	1135.3699	1173.4908	1190.2753	1225.1081	1250.0623	1303.0622	1316.8412	1322.0897	1352.5835	1371.5113	1388.4879	1412.1233	1484.2025	1491.2441	1495.2143	1495.2308	1519.2309	1688.5451	2861.4016	3004.4512	3037.8926	3047.5637	3051.2653	3090.1341	3094.4053	3105.8782	3126.0338	3173.6947	3181.023	3187.9234	3207.6102
CC1CC=CC1N1CC1	C[C@H]1CC=C[C@H]1N1CC1	
InChI=1S/C8H13N/c1-7-3-2-4-8(7)9-5-6-9/h2,4,7-8H,3,5-6H2,1H3	InChI=1S/C8H13N/c1-7-3-2-4-8(7)9-5-6-9/h2,4,7-8H,3,5-6H2,1H3/t7-,8+/m0/s1
