18
gdb 65233	2.90533	1.23127	1.11027	3.4386	71.29	-0.2579	0.0076	0.2655	1157.7757	0.147777	-439.08365	-439.075152	-439.074207	-439.117474	31.399	
C	 0.1316866689	 1.4441053118	-0.4456415889	-0.494849
C	 0.0898406451	-0.0318540736	-0.1032563637	 0.326951
C	 1.2816502327	-0.8643339027	-0.4137633926	-0.272702
N	 0.9482890143	-0.5408966353	 0.9856679429	-0.352657
C	-1.2709311035	-0.6967937945	-0.1341769615	-0.230975
C	-2.4430191929	-0.1032277709	 0.6753186153	-0.097816
O	-3.2070856751	 0.0965824209	-0.5592165215	-0.243224
C	-2.1833851003	-0.3904910762	-1.3327740423	 0.448989
O	-2.1428404144	-0.4717278894	-2.5179011574	-0.329492
H	 1.1610021348	 1.8145108383	-0.4274602057	 0.118443
H	-0.2720467039	 1.6260338514	-1.4469397624	 0.152676
H	-0.4492717731	 2.0428282023	 0.2648276094	 0.125902
H	 1.1659293084	-1.9102733566	-0.6838150363	 0.123971
H	 2.1325843828	-0.3724558564	-0.877191774	 0.117672
H	 1.5550820672	 0.2030411979	 1.3223747267	 0.230959
H	-1.155328353	-1.7713108907	 0.0223396854	 0.119259
H	-2.9627886736	-0.788820212	 1.3462392991	 0.130946
H	-2.2580176244	 0.8509247357	 1.1715678474	 0.125949
44.2045	115.4556	137.4085	224.392	269.9134	313.7581	352.6543	398.8968	446.0282	544.268	631.9557	747.2408	774.6548	841.9753	870.3386	926.2485	938.3914	959.5792	974.1083	990.8139	1058.1184	1071.185	1078.7568	1117.3857	1124.7334	1153.6583	1161.9165	1201.4616	1263.8138	1285.3478	1344.9082	1354.4479	1402.1224	1423.4142	1489.0558	1502.8039	1516.2288	1522.4983	1932.988	3032.8617	3081.0308	3096.5751	3097.3418	3109.5655	3111.0653	3141.5633	3194.7861	3494.8069
CC1(CN1)C1COC1=O	C[C@]1(CN1)[C@H]1COC1=O	
InChI=1S/C6H9NO2/c1-6(3-7-6)4-2-9-5(4)8/h4,7H,2-3H2,1H3	InChI=1S/C6H9NO2/c1-6(3-7-6)4-2-9-5(4)8/h4,7H,2-3H2,1H3/t4-,6-/m0/s1
