17
gdb 88508	2.50806	1.38266	1.1786	2.7262	74.42	-0.236	0.0162	0.2522	1112.0312	0.133378	-421.742147	-421.733427	-421.732483	-421.775521	33.42	
O	 0.0669352304	 1.1999165665	 1.1064335065	-0.428973
C	 0.0429477607	 0.0337815059	 0.3498079175	 0.156809
C	-0.6275185783	-1.220339796	 0.8412539321	-0.362113
C	-1.2161859295	-0.4583604215	-0.334809688	-0.156965
C	-2.4956424976	 0.3159657737	-0.1742259046	 0.168806
C	-3.6235708918	-0.2213058714	 0.6184805991	-0.208042
O	-2.7692610014	 0.7798632364	 1.1723256609	-0.283621
C	-2.7739147096	 1.2730996449	-1.2195852523	 0.317837
C	-2.9831696242	 2.0454112185	-2.1158542858	-0.410371
H	-0.7795477519	 1.280231703	 1.5629742841	 0.303518
H	 0.973990006	-0.067477718	-0.1980658363	 0.109397
H	-0.172883184	-2.1872884193	 0.6554415274	 0.11328
H	-1.1503618068	-1.1381944468	 1.7889257575	 0.123566
H	-1.1027943049	-0.8914641012	-1.3238493311	 0.099478
H	-4.6357276625	 0.1117906519	 0.4011933704	 0.130851
H	-3.5256853527	-1.2145371008	 1.0522644076	 0.124619
H	-3.1691243719	 2.7383945843	-2.8991411252	 0.201926
59.4957	135.0951	174.8355	231.8851	241.944	336.6006	394.7841	426.9995	480.9419	497.2082	549.3159	604.369	626.7493	670.7097	695.4357	792.2931	798.2764	841.7756	870.6661	941.0551	995.4787	1031.3115	1066.3452	1075.5689	1122.5742	1132.8988	1134.3164	1171.6499	1204.0122	1226.5473	1344.3953	1348.3345	1392.7141	1445.3003	1482.4899	1511.6156	2242.2407	3095.4705	3129.0956	3155.5554	3169.4479	3193.0011	3218.8326	3501.2314	3785.4953
OC1CC1C1(CO1)C#C	O[C@H]1C[C@H]1[C@]1(CO1)C#C	
InChI=1S/C7H8O2/c1-2-7(4-9-7)5-3-6(5)8/h1,5-6,8H,3-4H2	InChI=1S/C7H8O2/c1-2-7(4-9-7)5-3-6(5)8/h1,5-6,8H,3-4H2/t5-,6+,7-/m1/s1
