18
gdb 42830	2.58179	1.78869	1.60664	1.8881	74.68	-0.2404	-0.009	0.2314	929.6046	0.150768	-401.931271	-401.924412	-401.923468	-401.962303	28.191	
O	 0.041278096	 0.0070728859	-0.2115598883	-0.331782
C	-0.0080421373	 1.1802575692	 0.0211115112	 0.413965
C	-1.1102577217	 2.2505856323	 0.0257199691	-0.124733
C	-1.3825359219	 2.795570524	 1.4364039149	-0.219972
C	-0.0836951352	 3.1134364337	 2.1770140334	-0.021869
C	 0.8825969789	 2.038867051	 2.6182593033	-0.311806
C	 1.2105324298	 2.9017890244	 1.4213691874	 0.002956
C	 1.0088670281	 2.3393713198	 0.0277035615	-0.15311
N	-0.0876579696	 3.1510869734	-0.6414593878	-0.315241
H	-2.0269975714	 2.0604083937	-0.536728705	 0.087874
H	-1.9645769799	 3.7166676535	 1.3257617191	 0.115084
H	-2.0026543134	 2.0826799906	 1.9933790819	 0.110956
H	-0.1319186429	 3.9879738172	 2.8167440202	 0.091575
H	 1.4361362401	 2.2104233315	 3.534826807	 0.112257
H	 0.631140933	 0.997071295	 2.445545095	 0.132979
H	 1.9961857451	 3.6435153232	 1.518471805	 0.091963
H	 1.9338217663	 2.2169525509	-0.5389824013	 0.088943
H	-0.0814772941	 2.9283316007	-1.6363136667	 0.229959
128.2956	204.5767	271.2839	383.9698	431.3654	469.0121	502.297	529.1085	692.3256	750.019	779.4434	826.2355	843.4091	846.7192	866.2638	887.7042	950.5792	974.588	1010.4023	1038.6106	1064.7505	1070.7782	1079.9731	1105.6492	1118.954	1127.0165	1173.7293	1201.2101	1215.3437	1237.4322	1280.6108	1328.3278	1343.1909	1368.9217	1378.1516	1407.1146	1476.7392	1496.66	1878.7083	3032.0039	3075.4875	3095.0084	3100.1553	3129.3961	3157.2714	3166.1133	3214.5522	3469.9418
O=C1C2CC3CC3C1N2	O=C1[C@H]2C[C@H]3C[C@H]3[C@@H]1N2	
InChI=1S/C7H9NO/c9-7-5-2-3-1-4(3)6(7)8-5/h3-6,8H,1-2H2	InChI=1S/C7H9NO/c9-7-5-2-3-1-4(3)6(7)8-5/h3-6,8H,1-2H2/t3-,4-,5-,6+/m1/s1
