20
gdb 10347	2.13257	1.94499	1.15218	3.6309	72.43	-0.2278	0.0537	0.2815	1107.4808	0.176802	-382.366925	-382.357237	-382.356293	-382.401553	34.89	
C	-0.036979042	 1.524246423	 0.155655604	-0.37459
C	 0.01020572	-0.0013750673	-0.0006030199	-0.172143
N	 0.6513579897	-0.4478163614	-1.2305193549	-0.085377
C	 2.0903326644	-0.7052852692	-1.2081632286	-0.149652
C	 2.4459945363	-2.1266333469	-0.7634397443	-0.375468
C	-0.0346094913	-0.7916502775	-2.3711598699	 0.44121
N	-1.4063056857	-0.5299501269	-2.3597307633	-0.57267
O	 0.5011882004	-1.3301548544	-3.3275979013	-0.415129
H	 0.9701181979	 1.9518137134	 0.1347298796	 0.128305
H	-0.6090801013	 1.9931526526	-0.6521696171	 0.115065
H	-0.5038591168	 1.8001417968	 1.1068364787	 0.11904
H	 0.5591421754	-0.4355593405	 0.8429248234	 0.112818
H	-0.9980071552	-0.4229905007	 0.0473822874	 0.125778
H	 2.4723491296	-0.5310174079	-2.215543407	 0.136526
H	 2.5511769841	 0.033133013	-0.5421634312	 0.0932
H	 2.0560087504	-2.3462634608	 0.2362802905	 0.109269
H	 2.0277058396	-2.8494083555	-1.4678183474	 0.146952
H	 3.5328310025	-2.2572874935	-0.7359482894	 0.111734
H	-1.7264562135	 0.3052414644	-1.893585527	 0.248186
H	-1.7961537045	-0.6455106107	-3.2835752822	 0.256945
74.2597	82.7267	110.505	119.5886	224.3482	235.3016	317.8529	328.3915	394.1736	432.9569	447.5343	528.2243	575.8894	607.688	732.9192	775.9438	788.6265	798.9825	937.4806	957.1588	1055.7935	1085.2525	1102.591	1106.7904	1117.4848	1231.9091	1255.9153	1330.2031	1349.2072	1382.4026	1400.3571	1410.6663	1412.5306	1458.3138	1476.0713	1489.6341	1491.8305	1500.1944	1505.7347	1518.5436	1624.7902	1773.4168	3032.6224	3035.5686	3036.712	3044.3184	3082.5922	3096.7391	3104.418	3113.7276	3118.9032	3133.5625	3574.4175	3683.525
CCN(CC)C(N)=O	CCN(CC)C(=O)N	
InChI=1S/C5H12N2O/c1-3-7(4-2)5(6)8/h3-4H2,1-2H3,(H2,6,8)	InChI=1S/C5H12N2O/c1-3-7(4-2)5(6)8/h3-4H2,1-2H3,(H2,6,8)
