17
gdb 94027	4.4051	0.99465	0.865	3.9218	74.55	-0.245	-0.01	0.235	1290.524	0.13729	-418.008605	-418.000203	-417.999259	-418.041894	31.416	
O	-0.046881663	 1.4317498428	 0.0381520741	-0.425939
C	 0.040905786	 0.0124181534	-0.0146117187	 0.068237
C	-1.3966086128	-0.521052049	 0.0316967996	-0.179081
N	-1.4979980336	-1.9409645816	-0.2991472751	-0.314013
C	-0.9817048123	-2.2344445691	-1.6414692582	-0.13059
C	 0.2706381981	-1.4590889824	-2.0254646034	-0.060216
C	 0.7235601174	-0.4577652017	-1.2778017314	-0.100028
C	-0.7470674396	-3.6804357886	-1.7711111983	 0.255936
N	-0.5395904872	-4.8119178992	-1.8756013198	-0.314643
H	 0.8430108146	 1.7916994687	 0.1096606238	 0.286701
H	 0.5944404108	-0.3638700902	 0.8634443977	 0.076167
H	-1.8342513306	-0.3566599733	 1.0196166393	 0.118004
H	-1.9903969424	 0.0543718285	-0.6881681605	 0.125662
H	-0.9854051675	-2.4928997855	 0.3818987552	 0.234615
H	-1.771812006	-1.9824636851	-2.3678696791	 0.145616
H	 0.7567038353	-1.7451796762	-2.9536298683	 0.117087
H	 1.6153040026	 0.0872147383	-1.5820442768	 0.096486
55.7376	144.0769	184.0258	227.7572	275.1004	320.0215	361.8093	411.5711	478.2022	514.4082	584.7281	617.6403	691.4077	762.4254	771.0438	889.4286	914.9194	981.3958	1007.3646	1021.4051	1061.3965	1088.3642	1103.7629	1135.6525	1198.211	1238.5572	1276.3703	1291.7138	1330.061	1348.4668	1357.1275	1401.1467	1427.3357	1485.793	1499.3623	1720.5868	2364.127	2942.4944	2975.3412	3047.1979	3104.0275	3141.7305	3177.7975	3516.5898	3815.7143
OC1CNC(C=C1)C#N	O[C@H]1CN[C@@H](C=C1)C#N	
InChI=1S/C6H8N2O/c7-3-5-1-2-6(9)4-8-5/h1-2,5-6,8-9H,4H2	InChI=1S/C6H8N2O/c7-3-5-1-2-6(9)4-8-5/h1-2,5-6,8-9H,4H2/t5-,6+/m0/s1
