16
gdb 62377	2.65439	1.87711	1.38499	3.7327	73.62	-0.2361	-0.0174	0.2188	935.0049	0.126481	-396.880697	-396.873413	-396.872469	-396.911995	29.411	
N	 0.2040498051	 1.4233293808	-0.0235846698	-0.567529
C	 0.0651746637	-0.0049414476	-0.0205599462	 0.224205
C	 1.027889613	-0.5850635268	-0.9585142404	 0.247037
N	 1.7788857586	-0.994134311	-1.7355358586	-0.338769
C	-0.0378925256	-0.6305521374	 1.4404674089	-0.070899
N	-1.4570815907	-0.1372124852	 1.3981233993	-0.325544
C	-1.4153710337	-0.6573335065	-0.0090023829	-0.102138
C	-1.0752057736	-2.1376495688	 0.1485869763	-0.092463
C	-0.1524777118	-2.1227033245	 1.1199325786	-0.095792
H	 0.1739955875	 1.8051058418	-0.9623871665	 0.242993
H	-0.5402818288	 1.8258669884	 0.5366751662	 0.253335
H	 0.6094989673	-0.2772227491	 2.2416054139	 0.089914
H	-2.0681100039	-0.7028639591	 1.9879993188	 0.213227
H	-2.189298411	-0.333634279	-0.7044330784	 0.080228
H	-1.4402798917	-2.9549346867	-0.4559867941	 0.120659
H	 0.4438583556	-2.9218837193	 1.5342764048	 0.121537
148.4477	163.2181	292.5311	317.9977	368.2441	456.563	461.5148	523.2172	565.1644	601.1588	649.6616	722.6398	775.5529	813.6017	827.0098	874.9974	905.2304	926.2425	938.305	975.1133	980.2086	1019.3683	1084.7327	1131.4839	1143.1323	1181.5569	1231.9325	1259.676	1284.8325	1304.608	1322.8814	1349.7236	1601.9311	1633.1526	2360.4972	3127.0214	3138.5705	3233.473	3259.0265	3453.5361	3508.0242	3602.98
NC1(C#N)C2NC1C=C2	N[C@@]1(C#N)[C@H]2N[C@@H]1C=C2	
InChI=1S/C6H7N3/c7-3-6(8)4-1-2-5(6)9-4/h1-2,4-5,9H,8H2	InChI=1S/C6H7N3/c7-3-6(8)4-1-2-5(6)9-4/h1-2,4-5,9H,8H2/t4-,5+,6-
