18
gdb 38176	2.88737	1.64765	1.19401	1.3591	82.	-0.216	-0.0092	0.2068	1039.9889	0.149033	-401.892989	-401.885485	-401.88454	-401.92465	30.059	
C	 0.1566318211	 1.5595524461	-0.1685837163	-0.316443
C	 1.4333650243	 0.7987079008	 0.0687356352	-0.100312
C	 2.0414288253	 0.7035012072	 1.384748442	-0.026157
C	 1.496882699	 1.2616408627	 2.471379678	-0.132942
C	 1.3493493062	 0.4485905905	 3.694026639	-0.09747
O	 0.0848918769	-0.2870089887	 3.6082079951	-0.253143
C	-0.662337881	-0.5670748811	 2.4896244866	 0.142352
N	-0.6467389231	-0.410127587	 1.242803859	-0.242297
C	 0.014639925	 0.0858557393	 0.1183093375	 0.057928
H	-0.1966614403	 2.2551890049	 0.5816302923	 0.129076
H	-0.0384977254	 1.8818681152	-1.1854548811	 0.120002
H	 2.0259493114	 0.541851337	-0.8030488082	 0.092576
H	 2.7267130393	-0.1347948199	 1.5167814598	 0.090826
H	 0.8048815163	 2.0931027118	 2.3757650383	 0.091095
H	 2.1526051419	-0.2889313594	 3.799651081	 0.11243
H	 1.2564437248	 1.0121648699	 4.6264244687	 0.11417
H	-1.5336471914	-1.0821312107	 2.9063940078	 0.112001
H	-0.1828779504	-0.5264233086	-0.7583506248	 0.106308
123.6447	183.124	244.7243	302.6631	338.7426	405.983	407.5956	515.8367	555.8415	620.5418	681.9943	692.8736	791.8222	810.5666	864.7011	872.9405	892.2479	950.7849	979.6408	1007.0059	1028.058	1055.5549	1084.6003	1111.0077	1115.7804	1161.9345	1162.9714	1222.0495	1230.7093	1327.9038	1343.5163	1388.536	1393.9277	1408.5343	1471.2551	1482.8676	1507.703	1700.8605	1805.7078	3039.9465	3077.4094	3093.1026	3115.0528	3126.5656	3148.6014	3164.4458	3169.6221	3236.4288
C1C2C=CCOC=NC12	C1[C@H]2[CH][CH]COC=N[C@@H]12	
InChI=1S/C7H9NO/c1-2-6-4-7(6)8-5-9-3-1/h1-2,5-7H,3-4H2/b2-1-,8-5-	InChI=1S/C7H9NO/c1-2-6-4-7(6)8-5-9-3-1/h1-2,5-7H,3-4H2/b2-1?,8-5-/t6-,7+/m1/s1
