18
gdb 61992	3.91198	0.76306	0.67426	2.6874	74.97	-0.2664	0.0496	0.316	1635.2125	0.145067	-439.100714	-439.090351	-439.089407	-439.137514	36.672	
C	-0.0791845888	 1.5502253354	 0.0621101628	-0.385993
C	-0.0456123275	 0.0108174793	-0.0023628368	-0.171131
C	-1.4566159451	-0.5949245621	-0.0101460153	-0.052489
O	-2.0756315839	-0.2420346249	 1.234457692	-0.264534
C	-3.3959710767	-0.5463799151	 1.3305104083	 0.49522
N	-3.8807705148	-0.1240310995	 2.5367606074	-0.564291
O	-4.0431009304	-1.0813114756	 0.4625421462	-0.392378
C	 0.6875254957	-0.4624002265	-1.1746472094	 0.31018
C	 1.270866367	-0.8446584283	-2.153492369	-0.462207
H	 0.9341964817	 1.9556011515	 0.1117661011	 0.126216
H	-0.5665359288	 1.9601174051	-0.8276848959	 0.127836
H	-0.6341794935	 1.8746072224	 0.9450395638	 0.127679
H	 0.4613212551	-0.3626526855	 0.8978381635	 0.113867
H	-2.0496030533	-0.2062717485	-0.842664462	 0.133924
H	-1.4148895706	-1.6838694696	-0.1041175318	 0.126676
H	-3.2299550609	 0.0999557785	 3.27006939	 0.2638
H	-4.7831205836	-0.4809235802	 2.7997072839	 0.269687
H	 1.7950009384	-1.1855085864	-3.011822989	 0.197937
21.7649	58.765	99.0323	168.4626	194.8651	215.9624	251.7347	290.3949	345.4576	377.6043	464.6438	508.0939	530.1642	555.8792	632.24	648.7998	672.0747	782.6575	825.1263	919.3607	935.1662	947.4859	1082.0882	1099.0761	1117.7536	1127.388	1169.7162	1261.857	1305.9539	1343.1703	1345.0238	1399.7613	1423.6847	1494.5402	1498.7736	1514.058	1612.218	1838.5733	2238.276	3016.6986	3049.3138	3059.6375	3110.1807	3122.9904	3136.7131	3504.9419	3614.9106	3744.1118
CC(COC(N)=O)C#C	C[C@@H](COC(=O)N)C#C	
InChI=1S/C6H9NO2/c1-3-5(2)4-9-6(7)8/h1,5H,4H2,2H3,(H2,7,8)	InChI=1S/C6H9NO2/c1-3-5(2)4-9-6(7)8/h1,5H,4H2,2H3,(H2,7,8)/t5-/m1/s1
