19
gdb 86378	2.61025	1.46308	1.10996	1.0755	69.99	-0.2551	0.0708	0.326	1129.7584	0.158474	-460.157619	-460.148759	-460.147815	-460.190933	34.001	
C	-0.1847363008	 1.4565334037	 0.0388822963	-0.49311
C	 0.1485770437	-0.0053875348	-0.0336904835	 0.373797
O	-0.691228975	-0.9018514161	 0.7359478499	-0.321122
C	 0.7166444927	-0.8172360874	 1.0447585323	-0.069145
C	 1.4910778339	-1.9921007168	 0.4723097893	 0.13053
O	 1.3334685821	-3.191721177	 1.2062697489	-0.43754
C	 1.0014633519	-2.0672918308	-0.9955691515	-0.297642
C	 0.5179266098	-0.6462985374	-1.3710823408	 0.087642
O	-0.538980175	-0.6105876077	-2.3124537313	-0.437566
H	 0.6819315518	 2.0635369671	-0.243818059	 0.125247
H	-0.9964631213	 1.6900086725	-0.6570911764	 0.139255
H	-0.4959313492	 1.7347522916	 1.0483406614	 0.130555
H	 0.9516799325	-0.4220850614	 2.0301310038	 0.098003
H	 2.5631221059	-1.7669612982	 0.5158887819	 0.093856
H	 0.3851627171	-3.3573935682	 1.2689146315	 0.286232
H	 1.7660463558	-2.4467591058	-1.6754701398	 0.111673
H	 0.1507031933	-2.7543530997	-1.0458616256	 0.101174
H	 1.328384168	-0.0674207612	-1.8294986286	 0.092062
H	-1.2887470973	-1.0601902926	-1.9041275587	 0.286099
85.5834	119.419	190.8	228.4269	251.2684	302.6263	377.5582	393.0816	415.7551	466.1654	494.2773	567.1922	617.1072	654.8013	694.4902	826.7869	876.1667	893.	958.3339	1000.6797	1014.9281	1045.5681	1074.5916	1092.2879	1107.1945	1115.1859	1151.1067	1234.2446	1244.598	1292.731	1302.68	1323.7799	1331.5098	1342.1393	1407.011	1428.6456	1436.8947	1463.1626	1477.782	1484.0682	1500.857	3040.1031	3047.1687	3048.0374	3060.8873	3105.54	3121.6185	3129.8183	3148.7756	3786.3808	3789.1753
CC12OC1C(O)CC2O	C[C@]12O[C@H]1[C@@H](O)C[C@H]2O	
InChI=1S/C6H10O3/c1-6-4(8)2-3(7)5(6)9-6/h3-5,7-8H,2H2,1H3	InChI=1S/C6H10O3/c1-6-4(8)2-3(7)5(6)9-6/h3-5,7-8H,2H2,1H3/t3-,4+,5-,6+/m0/s1
