18
gdb 100568	3.17585	0.90843	0.77888	3.9074	72.68	-0.2683	-0.0437	0.2246	1450.0196	0.144784	-439.1097	-439.099324	-439.09838	-439.14635	35.673	
C	 0.3874419668	 1.2600225141	-0.493578685	-0.409912
C	-0.0171538626	-0.1801978007	-0.1163673937	-0.088084
C	-1.5318336091	-0.3264771525	 0.0336294138	-0.082531
O	-1.9300187829	 0.5251171688	 1.0973776866	-0.426025
C	 0.5235333165	-1.1976438966	-1.1042591713	 0.374718
O	-0.1737820862	-1.9388508974	-1.7488793022	-0.285123
C	 2.0698356067	-1.282234741	-1.2549692345	-0.413587
C	 2.5460075805	-0.446967066	-2.3516386554	 0.268666
N	 2.9093046385	 0.2231924985	-3.2203341236	-0.302726
H	 1.4706243956	 1.4042294305	-0.4845649189	 0.128714
H	 0.02140048	 1.5190302166	-1.491955132	 0.137895
H	-0.0592537139	 1.9464474325	 0.2276111948	 0.152026
H	 0.4392192357	-0.410314948	 0.8584551379	 0.108483
H	-2.0212686124	-0.0541010846	-0.9128025423	 0.105064
H	-1.7830933675	-1.3757721356	 0.2394874681	 0.103237
H	-2.8885205412	 0.4952262619	 1.1636184539	 0.29255
H	 2.574101401	-0.9815317098	-0.3313834669	 0.159169
H	 2.3159687148	-2.3263103006	-1.4681228692	 0.177467
38.9463	44.5837	109.9187	139.8491	188.9411	210.8724	249.2305	265.2003	327.1995	355.3049	380.3785	438.9958	459.7165	595.4175	701.0479	819.3962	872.0542	909.6694	933.861	956.566	1034.0964	1071.8857	1097.7719	1115.5999	1166.3892	1220.6989	1253.0802	1265.5981	1295.2186	1322.6806	1344.5235	1404.6517	1451.7915	1460.7484	1488.8553	1507.0718	1517.6726	1818.7082	2360.4376	2994.8554	3002.2062	3035.1206	3049.9374	3060.0526	3113.8126	3119.9309	3143.7617	3838.5186
CC(CO)C(=O)CC#N	C[C@@H](CO)C(=O)CC#N	
InChI=1S/C6H9NO2/c1-5(4-8)6(9)2-3-7/h5,8H,2,4H2,1H3	InChI=1S/C6H9NO2/c1-5(4-8)6(9)2-3-7/h5,8H,2,4H2,1H3/t5-/m0/s1
