20
gdb 108806	2.92432	1.13272	0.93506	3.7558	83.08	-0.2253	0.0033	0.2286	1343.1595	0.171343	-399.373716	-399.364187	-399.363243	-399.408447	34.889	
C	 0.4338280143	 0.7531803045	-0.7395386155	-0.380516
C	-0.2997092605	 0.4302160147	 0.5735392016	-0.289138
C	-1.6065018388	-0.2695605763	 0.3605905169	 0.364703
N	-2.7571870458	 0.2127218994	 0.639568053	-0.299387
C	-3.7533142903	-0.8001193965	 0.2494994488	-0.037933
C	-4.776250641	-0.2496699501	-0.746260606	-0.377793
C	-2.9535919836	-1.9769723474	-0.3168476957	 0.378703
N	-3.4394904835	-3.0552085903	-0.7811788739	-0.554818
N	-1.6330302771	-1.5546556149	-0.1925575033	-0.379154
H	 1.3739861968	 1.271951014	-0.5336126093	 0.12664
H	 0.6719774773	-0.1519915493	-1.3077442118	 0.112017
H	-0.1788147381	 1.3965128089	-1.3775037376	 0.137691
H	 0.3415220924	-0.1927429831	 1.210759926	 0.113201
H	-0.5170998382	 1.347565087	 1.1247243335	 0.138816
H	-4.2829201752	-1.1345990821	 1.1506122312	 0.114799
H	-4.2753798229	 0.1248691541	-1.6440510136	 0.115449
H	-5.4667910581	-1.0439313724	-1.0402286948	 0.138692
H	-5.3354775885	 0.5738412367	-0.2955635943	 0.124012
H	-2.7132986794	-3.6951007356	-1.1076899708	 0.202911
H	-0.8301798899	-2.0789740614	-0.4973465444	 0.251104
54.1224	97.8752	119.7919	194.1537	220.3984	236.4483	253.1778	331.5366	385.3469	435.3443	496.7304	600.7757	641.4762	702.5833	724.0392	797.4709	813.5827	851.7341	912.2383	955.3786	1001.5378	1048.8128	1061.7615	1088.0492	1100.0865	1123.8306	1128.3948	1224.1667	1274.7664	1294.8306	1306.0745	1332.7439	1355.3731	1397.6932	1413.5533	1445.141	1477.3784	1487.0952	1495.1151	1498.7213	1506.9605	1708.0068	1758.7603	3029.7688	3029.8886	3041.927	3046.364	3100.6838	3120.2261	3120.7485	3124.0405	3135.6071	3450.9864	3657.7543
CCC1=NC(C)C(=N)N1	CCC1=N[C@@H](C)[C]([NH])N1	
InChI=1S/C6H11N3/c1-3-5-8-4(2)6(7)9-5/h4H,3H2,1-2H3,(H2,7,8,9)	InChI=1S/C6H11N3/c1-3-5-8-4(2)6(7)9-5/h4H,3H2,1-2H3,(H2,7,8,9)/t4-/m0/s1
