20
gdb 13021	2.57093	2.41786	1.54922	1.7884	73.88	-0.2504	0.0856	0.336	912.0085	0.17736	-349.018501	-349.010533	-349.009588	-349.050238	31.055	
C	-0.0349047499	 1.5353512015	 0.0125206456	-0.408721
C	 0.0076325059	 0.0059615426	-0.0029442506	-0.0249
C	 0.8004177968	-0.5786983395	-1.2001841903	-0.224783
C	 1.3492808435	-1.9434089651	-0.724696205	-0.24829
C	 1.4925762421	-1.7611764062	 0.77209276	-0.009392
O	 2.1252109863	-0.5239742806	 1.1428131272	-0.307846
C	 0.6864133105	-0.6167343414	 1.2179846393	 0.42354
C	 0.0870775113	-0.4781573765	 2.5907209144	-0.491425
H	 0.9764988221	 1.9418591705	 0.1162221675	 0.129599
H	-0.4630127745	 1.925203661	-0.916692244	 0.112236
H	-0.6410657099	 1.9175008389	 0.8404887395	 0.110927
H	-1.0217919346	-0.3805936897	-0.0255987635	 0.067663
H	 0.1867071444	-0.661196594	-2.1009733497	 0.093504
H	 1.635043071	 0.0877582219	-1.4330396539	 0.11429
H	 0.6360872496	-2.7555680194	-0.9149800672	 0.099313
H	 2.2903033896	-2.2137438503	-1.2141828467	 0.106371
H	 1.715685659	-2.606365967	 1.4202694616	 0.083515
H	 0.0545665079	 0.571865878	 2.9008337025	 0.127916
H	-0.9383382479	-0.863401675	 2.6082001697	 0.118544
H	 0.6798691868	-1.0275735195	 3.3262591636	 0.127935
123.5789	187.2735	225.4826	240.7967	256.2656	297.9893	368.6825	442.6561	534.1682	557.8674	663.9796	670.17	817.7478	830.7524	863.1628	918.7043	927.5266	961.8606	993.0413	1023.6582	1028.9429	1062.9261	1088.6531	1143.2044	1146.6676	1194.2352	1231.1058	1249.9293	1294.0539	1321.1061	1329.5746	1341.4043	1370.885	1406.3957	1412.4122	1457.2242	1478.9496	1485.7141	1493.621	1498.1333	1503.2237	1504.7383	2999.9995	3031.1226	3031.8474	3034.9065	3062.853	3079.6983	3094.5081	3099.0341	3104.5112	3109.8655	3121.0198	3134.1875
CC1CCC2OC12C	C[C@H]1CC[C@H]2O[C@@]12C	
InChI=1S/C7H12O/c1-5-3-4-6-7(5,2)8-6/h5-6H,3-4H2,1-2H3	InChI=1S/C7H12O/c1-5-3-4-6-7(5,2)8-6/h5-6H,3-4H2,1-2H3/t5-,6+,7-/m0/s1
