13
gdb 70171	2.73311	1.77211	1.20475	3.774	59.57	-0.2663	-0.0945	0.1718	956.0603	0.087826	-493.719226	-493.711688	-493.710744	-493.751394	27.957	
O	 0.0809788955	 1.384365269	-0.2223599165	-0.461274
C	 0.0106928977	 0.017665731	-0.061808224	 0.324266
C	-0.47476347	-0.86138239	-1.2223502547	-0.362444
C	-1.2665729481	-0.7852711156	 0.0394839818	 0.002386
O	-1.0721896096	-1.8933158071	 0.9187421203	-0.215581
C	 0.1853015628	-1.8880429687	 1.4442699521	 0.360401
O	 0.6048758301	-2.7232657885	 2.1819925607	-0.296977
C	 0.9011219137	-0.6117590311	 0.9363578243	 0.191532
O	 1.9149578785	-0.1438619953	 1.3843106925	-0.302193
H	 0.9036254374	 1.6645875526	 0.2045535493	 0.307444
H	-0.8306610415	-0.2745360348	-2.0623280299	 0.156695
H	 0.0315072897	-1.7884021575	-1.4699697991	 0.148473
H	-2.2547854562	-0.3504068339	 0.1074803933	 0.147272
85.3001	148.2551	256.1161	275.0943	327.2622	332.3599	448.8566	470.9017	546.877	595.3655	611.8013	705.9055	808.412	868.1022	909.1115	910.4534	982.2634	1006.3164	1051.1615	1068.6615	1103.2186	1157.5597	1198.8769	1327.2765	1391.2488	1417.7166	1478.6968	1844.5573	1895.5851	3135.0634	3215.0645	3235.125	3742.4448
OC12CC1OC(=O)C2=O	O[C@]12C[C@H]1OC(=O)C2=O	
InChI=1S/C5H4O4/c6-3-4(7)9-2-1-5(2,3)8/h2,8H,1H2	InChI=1S/C5H4O4/c6-3-4(7)9-2-1-5(2,3)8/h2,8H,1H2/t2-,5-/m1/s1
