21
gdb 8673	2.58994	1.56041	1.27373	3.8495	78.34	-0.3101	0.0432	0.3534	1103.718	0.187084	-329.160214	-329.150269	-329.149324	-329.1944	36.158	
C	 0.1383726212	 1.5530621974	 0.0627549948	-0.409823
C	-0.0302093882	 0.0333393793	-0.0084327247	-0.187998
C	-1.4950887314	-0.4914187175	-0.0234870422	 0.092228
C	-2.2627466044	 0.0345857613	-1.2565001157	-0.412566
C	-1.4592473737	-2.0470249439	-0.0062156196	-0.187995
C	-2.8172324357	-2.7495621459	 0.0670530374	-0.409822
C	-2.1751750346	-0.0229854709	 1.1966801449	 0.288866
N	-2.7040714534	 0.3413311414	 2.1584966615	-0.361855
H	 1.1992637393	 1.8091386488	 0.1382131985	 0.120227
H	-0.2556647806	 2.0544552767	-0.8259200152	 0.120881
H	-0.3688269452	 1.9677299387	 0.9392143162	 0.144086
H	 0.4574372951	-0.3550484323	-0.9109565871	 0.101508
H	 0.4828714777	-0.4259673857	 0.8440587174	 0.111994
H	-1.7643640115	-0.3088892538	-2.1688963425	 0.119625
H	-3.2929284944	-0.3265606045	-1.2688899774	 0.135977
H	-2.2951057529	 1.1257366771	-1.2705621189	 0.135973
H	-0.9224642372	-2.3641375018	-0.908710353	 0.101507
H	-0.8457455799	-2.3598900792	 0.8462419045	 0.111997
H	-2.6755544316	-3.8315713783	 0.1441341851	 0.120228
H	-3.3856479232	-2.4235379851	 0.9434078815	 0.144083
H	-3.4272436052	-2.5630633718	-0.8214879054	 0.12088
94.4535	102.0371	158.4207	159.4328	217.6909	228.6235	241.4277	285.0301	323.1561	372.7631	393.0761	425.6581	580.8163	613.6463	664.3475	786.1839	791.2962	888.7958	896.3196	980.1339	1008.382	1024.7692	1058.1211	1091.2763	1101.4184	1178.2339	1204.3509	1233.3355	1291.8227	1353.075	1353.3884	1377.5764	1413.4308	1417.0372	1421.2516	1473.2291	1485.0303	1492.1292	1498.4996	1503.7362	1507.5193	1508.3111	1519.616	2345.8733	3026.2012	3032.1487	3044.0241	3044.1456	3048.9983	3065.3993	3071.8674	3111.5867	3111.9387	3117.2396	3118.2151	3125.0945	3138.9748
CCC(C)(CC)C#N	CCC(C)(CC)C#N	
InChI=1S/C7H13N/c1-4-7(3,5-2)6-8/h4-5H2,1-3H3	InChI=1S/C7H13N/c1-4-7(3,5-2)6-8/h4-5H2,1-3H3
