16
gdb 77329	2.52536	1.50523	1.15041	4.2767	69.6	-0.2595	0.0106	0.2702	1074.3299	0.126123	-434.124762	-434.116325	-434.115381	-434.158097	30.244	
C	-0.0944518904	 1.398602923	-0.0213296116	-0.353724
N	-0.0496109533	-0.042916625	-0.147522244	-0.09409
C	-1.2136585765	-0.8823623143	 0.0499283166	-0.143261
C	-0.6145554683	-2.3040467617	-0.1317746471	-0.18484
N	 0.7595015225	-2.0818660245	 0.2783777775	-0.354514
C	 1.1252980395	-0.7547021387	 0.092542872	 0.463274
O	 2.2421977282	-0.2944345251	 0.1294579573	-0.408057
C	-1.8288794954	-0.6982945148	 1.3848681088	 0.285941
N	-2.3179685075	-0.5289589058	 2.4179113534	-0.31636
H	 0.9335521056	 1.7577237106	-0.0872388955	 0.172257
H	-0.6850903073	 1.8389427194	-0.8314087479	 0.126639
H	-0.522706846	 1.7116446403	 0.9397969267	 0.142195
H	-1.9880526887	-0.6812798398	-0.6981883669	 0.13687
H	-1.12153213	-3.0438625973	 0.4906270284	 0.143976
H	-0.7033739354	-2.6018013063	-1.1853793118	 0.121916
H	 1.4688339532	-2.7744595299	 0.0985163541	 0.261777
83.0273	116.486	170.172	188.0489	228.269	284.8741	304.5769	456.0106	485.1529	515.9206	585.8328	685.1242	752.5518	762.9925	812.8494	846.5543	990.9949	1019.2714	1090.6252	1098.1094	1161.7151	1175.9419	1229.1074	1244.6678	1283.4581	1325.5384	1363.0872	1407.9228	1430.7606	1457.8955	1493.1501	1519.6572	1525.5458	1847.5444	2353.7317	3010.4672	3018.0046	3052.2919	3079.5815	3106.7547	3149.8791	3647.3216
CN1C(CNC1=O)C#N	CN1[C@@H](CNC1=O)C#N	
InChI=1S/C5H7N3O/c1-8-4(2-6)3-7-5(8)9/h4H,3H2,1H3,(H,7,9)	InChI=1S/C5H7N3O/c1-8-4(2-6)3-7-5(8)9/h4H,3H2,1H3,(H,7,9)/t4-/m1/s1
