15
gdb 25821	4.19545	1.09447	0.87256	6.4097	85.19	-0.1857	-0.0482	0.1375	1242.1597	0.114682	-450.1801	-450.171862	-450.170918	-450.212849	31.279	
N	 0.1124914856	 1.3821376907	 0.1736390825	-0.564675
C	-0.0067762044	 0.0183751391	 0.0081632996	 0.23625
N	 1.1849294061	-0.6460602925	-0.2010386251	-0.545294
H	 1.9328462173	-0.3582920538	 0.4182193098	 0.254425
H	 1.0500906098	-1.6506318783	-0.2145746387	 0.275384
C	-1.1929876091	-0.6658743802	 0.0368603119	 0.380786
N	-1.2341320936	-2.0391560353	 0.0792111193	-0.269487
C	-2.4919440297	-2.3888847912	 0.0772726844	-0.183292
C	-3.404870875	-1.22810065	 0.027914112	 0.373646
O	-4.6179250516	-1.1438805887	-0.0064841543	-0.404075
N	-2.4947226728	-0.1639512228	 0.0280310891	-0.449052
H	 0.794397973	 1.8289408007	-0.4239224921	 0.264324
H	-0.743941529	 1.9053319515	 0.2602303507	 0.257816
H	-2.8155733502	-3.4208295409	 0.1068859785	 0.123889
H	-2.7912648565	 0.7863815717	-0.1117598876	 0.249354
90.9747	132.5794	179.4423	272.8083	346.1594	373.4789	425.0851	429.8498	441.0772	522.0033	566.1787	593.7211	623.1763	672.325	740.242	753.8245	768.5106	869.9358	912.2894	964.9705	1053.5064	1136.6501	1170.8816	1235.5361	1271.7974	1343.5158	1384.7345	1457.4817	1513.8724	1626.0129	1638.9522	1734.5261	1805.3136	3226.7435	3517.5316	3564.3667	3621.9661	3673.0138	3684.4941
NC(=[NH2+])C1=NC=C([O-])N1	NC(=[NH2])[C]1N=CC(=O)N1	
InChI=1S/C4H6N4O/c5-3(6)4-7-1-2(9)8-4/h1,9H,(H3,5,6)(H,7,8)	InChI=1S/C4H6N4O/c5-3(6)4-7-1-2(9)8-4/h1H,5-6H2,(H,7,8,9)
