13
gdb 124350	4.52577	1.1505	0.92251	2.4501	63.09	-0.278	-0.0786	0.1994	1169.1102	0.088768	-486.071537	-486.06368	-486.062736	-486.104572	27.703	
C	-0.0381772343	 1.4759854843	-0.0844977479	-0.487526
C	-0.0469088302	-0.0203797436	 0.0811700493	 0.449543
O	-0.0981171076	-0.6227272441	 1.1115503657	-0.257663
N	 0.0140429267	-0.7504133698	-1.1655028082	 0.03702
N	 0.0727448575	-0.1418158184	-2.355818434	-0.10526
N	 0.1164160726	-1.0836233115	-3.2469878476	-0.289031
C	 0.0813601168	-2.2578043535	-2.5462245655	 0.503356
O	 0.1094352623	-3.4519705197	-3.1261930163	-0.387245
N	 0.017180183	-2.0918956546	-1.2425657732	-0.285739
H	 0.8673229395	 1.802017025	-0.6021689938	 0.170054
H	-0.8866658995	 1.8026792354	-0.6907164021	 0.170084
H	-0.0880394715	 1.9209132776	 0.9084351943	 0.157095
H	 0.1565680345	-3.3130961172	-4.0808712508	 0.325313
73.4799	122.8172	133.0519	192.0735	357.8997	362.338	415.6927	444.6092	532.6656	581.8677	627.6306	689.3024	776.5513	784.1598	956.5877	1000.7146	1059.057	1096.4976	1164.9998	1201.6804	1218.4096	1290.0472	1379.6693	1401.7042	1459.7157	1469.3914	1470.0921	1655.9928	1868.9794	3066.1467	3134.3948	3174.9107	3801.301
CC(=O)N1N=NC(O)=N1	CC(=O)n1nnc(O)n1	
InChI=1S/C3H4N4O2/c1-2(8)7-5-3(9)4-6-7/h1H3,(H,5,9)	InChI=1S/C3H4N4O2/c1-2(8)7-5-3(9)4-6-7/h1H3,(H,5,9)
