19
gdb 111465	2.72878	1.47053	1.0686	4.0179	74.49	-0.2648	0.0085	0.2732	1156.9733	0.159824	-423.061902	-423.053664	-423.05272	-423.094957	31.427	
C	-0.0313068779	 1.5446713632	 0.1650633453	-0.39166
C	-0.0994577957	 0.0235630054	 0.0000446465	-0.176283
C	 0.6360300386	-0.5010029	-1.2490938148	-0.162314
C	 0.8189128306	-2.0037277794	-1.3444758513	-0.084581
C	-0.4188867704	-2.8686148718	-1.5254660538	-0.320814
C	 0.3518999171	-2.3892531482	-2.7180130723	 0.087972
O	-0.1679718022	-1.2455793406	-3.3698639263	-0.21631
C	-0.0776470932	-0.1431366833	-2.565186331	 0.424593
O	-0.5270865348	 0.914056957	-2.9011015241	-0.329498
H	 1.0068047678	 1.8806243898	 0.2688679256	 0.109693
H	-0.463698426	 2.0509334244	-0.6998734243	 0.156894
H	-0.5732725419	 1.859234088	 1.0620730553	 0.110185
H	 0.3456218555	-0.465035252	 0.8749869572	 0.101198
H	-1.1455374404	-0.3026361666	-0.0324601994	 0.104324
H	 1.6223693389	-0.0190954328	-1.2934192535	 0.111089
H	 1.7022273098	-2.4526587112	-0.907490077	 0.102383
H	-0.3278986071	-3.9151730656	-1.2568891668	 0.125264
H	-1.4010277816	-2.439227473	-1.3564592993	 0.131566
H	 0.872393283	-3.0529551635	-3.3958170361	 0.116298
80.8264	109.5322	178.4372	211.6618	263.0386	330.9963	407.4601	458.7259	493.4347	637.3547	697.8856	707.3643	751.7187	802.275	819.9197	849.3356	924.4423	958.6853	988.4768	1024.8865	1043.6032	1049.9375	1081.4737	1092.579	1114.7413	1145.7576	1148.2451	1168.0883	1203.3259	1263.8168	1294.1842	1329.2857	1360.603	1371.5805	1390.8473	1412.5181	1476.9963	1488.6075	1496.891	1514.6507	1871.6124	3018.3031	3031.2064	3036.5786	3066.6175	3100.4715	3133.5017	3141.2074	3184.2528	3202.0077	3224.6516
CCC1C2CC2OC1=O	CC[C@H]1[C@H]2C[C@H]2OC1=O	
InChI=1S/C7H10O2/c1-2-4-5-3-6(5)9-7(4)8/h4-6H,2-3H2,1H3	InChI=1S/C7H10O2/c1-2-4-5-3-6(5)9-7(4)8/h4-6H,2-3H2,1H3/t4-,5+,6+/m0/s1
