21
gdb 72656	2.02303	1.86533	1.54308	2.2568	77.16	-0.242	0.0672	0.3092	1024.1668	0.182321	-424.234236	-424.225476	-424.224532	-424.266953	34.483	
C	-0.4916548433	 1.3825927334	 0.1407738924	-0.456128
C	 0.0805660448	-0.0081570193	-0.0285232379	 0.40343
C	 0.9729265401	-0.2318469543	-1.2518528366	-0.245016
C	 1.7925139332	-1.4872731213	-0.8971884228	-0.219813
C	 2.078701288	-1.3212433306	 0.6091113902	-0.292979
C	 0.8091124061	-0.6761763034	 1.1837205072	 0.319961
O	 1.0271491124	 0.1705303809	 2.286512724	-0.485
C	-0.4322875734	-1.5924506955	 1.2461134306	-0.127849
O	-0.9607177186	-1.032080029	 0.0284079086	-0.335925
H	 0.307561626	 2.1282950596	 0.1885645885	 0.118397
H	-1.1432153658	 1.6246815833	-0.7053454683	 0.118538
H	-1.0772183444	 1.4519526225	 1.0604871796	 0.127465
H	 0.3795181411	-0.3428898004	-2.1639240718	 0.1058
H	 1.6339961589	 0.633812646	-1.3829892807	 0.096437
H	 1.187704979	-2.3828567496	-1.0717323526	 0.11573
H	 2.7056191122	-1.5879406491	-1.4894058917	 0.096486
H	 2.343257929	-2.2619413715	 1.1048115086	 0.090786
H	 2.9059528741	-0.6168322035	 0.7596478407	 0.103105
H	 1.57636255	-0.2953818723	 2.9253160625	 0.280115
H	-0.2640832523	-2.6742413102	 1.1645324343	 0.089338
H	-1.073903467	-1.3839495155	 2.111892455	 0.097122
114.9789	185.0759	190.5193	224.6004	237.7961	291.0301	338.579	366.59	403.5351	490.9047	558.1221	581.3086	623.7816	687.8069	819.0882	845.1263	895.5643	912.4066	915.9025	957.9456	968.0073	1008.0494	1019.0193	1028.7692	1079.6028	1150.1806	1156.2431	1174.2596	1194.3136	1220.2405	1238.0735	1250.8321	1276.9348	1314.1485	1324.9134	1343.996	1352.6289	1400.2006	1408.0038	1469.4586	1482.0859	1487.0627	1489.0396	1500.2356	1516.7521	3002.4239	3028.5447	3034.2769	3041.6746	3051.0865	3054.0005	3075.6681	3093.2695	3105.4189	3110.8622	3126.0219	3812.7391
CC12CCCC1(O)CO2	C[C@@]12CCC[C@]1(O)CO2	
InChI=1S/C7H12O2/c1-6-3-2-4-7(6,8)5-9-6/h8H,2-5H2,1H3	InChI=1S/C7H12O2/c1-6-3-2-4-7(6,8)5-9-6/h8H,2-5H2,1H3/t6-,7+/m1/s1
