18
gdb 46402	3.88542	0.80997	0.71275	2.4412	79.25	-0.2595	0.0205	0.2801	1553.4117	0.146732	-401.915173	-401.906097	-401.905152	-401.949816	33.017	
N	-0.1170432063	 1.1810450387	-0.335102416	-0.543009
C	-0.0395602934	-0.0362231042	-0.0426306192	 0.446338
O	 1.0259090254	-0.7883182657	 0.4035599986	-0.251136
C	 0.1877851249	-1.9815372324	 0.5199537648	-0.115179
C	-1.0289712946	-1.1887023291	-0.0096221626	-0.136107
C	-2.2449909293	-1.0306078289	 0.9002851782	-0.207123
C	-3.2600744671	-0.0137882834	 0.3362298765	-0.358975
C	-4.4184924396	 0.1561606537	 1.2035570461	 0.291284
C	-5.3628467686	 0.2756323624	 1.9376164225	-0.436155
H	 0.7774942978	 1.6574021659	-0.2081128675	 0.230368
H	 0.5647418106	-2.7881899327	-0.1126182048	 0.123214
H	 0.1236012773	-2.3097782692	 1.5608863015	 0.123387
H	-1.3361360624	-1.4952507062	-1.0143835502	 0.109052
H	-2.7337988752	-2.0028776168	 1.0291335083	 0.114316
H	-1.9233071537	-0.7028673974	 1.8950799264	 0.118781
H	-2.7547909261	 0.9471903993	 0.1848417039	 0.170627
H	-3.5915603915	-0.343922187	-0.6573460967	 0.127032
H	-6.2023238682	 0.394739333	 2.5764356601	 0.193284
62.0708	88.0261	109.1293	154.5832	200.2192	297.419	346.5879	354.9473	454.0007	515.2467	614.4733	640.2126	665.8395	747.9868	770.7915	834.9721	865.4145	913.5899	945.5751	968.4633	1005.2448	1028.2677	1055.2992	1089.91	1130.7491	1158.1453	1188.2117	1234.0467	1247.3505	1291.0192	1318.9962	1343.5687	1382.3729	1388.0679	1478.6128	1497.1355	1516.6644	1819.0783	2239.6871	3020.8975	3039.6872	3059.6873	3062.1763	3067.8934	3089.2211	3122.2188	3476.754	3507.4606
N=C1OCC1CCC#C	[NH][C]1OC[C@H]1CCC#C	
InChI=1S/C7H9NO/c1-2-3-4-6-5-9-7(6)8/h1,6,8H,3-5H2	InChI=1S/C7H9NO/c1-2-3-4-6-5-9-7(6)8/h1,6,8H,3-5H2/t6-/m1/s1
