20
gdb 75117	2.82452	1.24669	0.9818	3.9438	82.29	-0.2281	0.016	0.244	1258.9287	0.17248	-403.201233	-403.192492	-403.191547	-403.234671	33.46	
C	-0.042991172	 1.5914768981	 0.0658570552	-0.465064
C	 0.0239224959	 0.0865540502	-0.0203307288	 0.315636
C	 0.028111296	-0.5254808741	-1.2095328515	-0.15225
C	 0.0470596203	-2.0061567228	-1.5304929481	-0.374858
C	-0.9155947166	-2.8627428863	-0.7049230767	 0.385496
O	-1.8300639098	-3.4899062693	-1.2033829414	-0.364935
N	-0.6630757593	-2.8859113806	 0.6380057232	-0.284308
C	 0.3526557967	-2.1025870015	 1.3176045502	-0.191893
C	 0.0730658124	-0.5970940829	 1.3285878993	-0.268913
H	 0.8377889742	 1.9998511657	 0.5784730035	 0.120119
H	-0.1063158358	 2.0527076962	-0.9226856194	 0.122421
H	-0.9164186569	 1.9140031204	 0.6477339833	 0.123346
H	-0.0061778959	 0.1135141541	-2.0891487859	 0.086686
H	-0.2473536168	-2.1574446983	-2.5697591635	 0.130353
H	 1.0619432249	-2.416787169	-1.4304279043	 0.124721
H	-1.3304019557	-3.4090749623	 1.1843145051	 0.245506
H	 0.4129813016	-2.4671820368	 2.3466626493	 0.112911
H	 1.3340223253	-2.2918570893	 0.865716159	 0.120149
H	 0.8486366695	-0.1101585508	 1.9378956878	 0.104067
H	-0.872478268	-0.4101335106	 1.8591992836	 0.110812
77.0255	97.8373	179.1765	255.1947	297.5394	322.6645	336.4716	417.7732	439.9119	466.9849	500.2446	586.2774	606.9034	724.0182	742.3034	803.1523	884.1746	913.395	946.7474	965.6377	1004.1824	1040.7108	1081.7945	1095.6243	1128.2685	1162.6379	1195.1363	1249.5663	1290.6874	1314.8827	1334.8212	1380.4481	1404.5207	1412.9129	1418.2458	1454.7116	1469.283	1475.2047	1479.2269	1492.233	1501.9564	1735.1642	1797.4844	2995.102	3008.1211	3013.8334	3018.1136	3038.4377	3058.1802	3091.7115	3114.8937	3118.5436	3146.4509	3623.58
CC1=CCC(=O)NCC1	CC1=CCC(=O)NCC1	
InChI=1S/C7H11NO/c1-6-2-3-7(9)8-5-4-6/h2H,3-5H2,1H3,(H,8,9)	InChI=1S/C7H11NO/c1-6-2-3-7(9)8-5-4-6/h2H,3-5H2,1H3,(H,8,9)
