16
gdb 126883	4.79151	0.97974	0.85755	0.6662	78.39	-0.2427	-0.0942	0.1484	1334.3673	0.125481	-430.219751	-430.211559	-430.210615	-430.253778	29.18	
C	-0.0084087106	 1.6082073739	-0.0003090298	-0.360148
C	 0.0349572096	 0.0780308849	-0.0215403471	-0.14398
N	 0.8074829435	-0.3910639286	-1.1631719665	-0.34189
C	 1.8328586581	-1.1083132868	-0.9792682151	 0.479264
N	 2.5518879523	-1.5251086242	-2.1245741903	-0.237887
N	 3.6341361391	-2.2769681234	-2.146441029	-0.010601
N	 4.1187199416	-2.691053225	-1.0361359248	-0.221908
C	 3.443696377	-2.2988809577	 0.1196070802	 0.110252
N	 2.3863112458	-1.5717327395	 0.2172380328	-0.281843
H	 0.9925448287	 2.0237928935	 0.1527625243	 0.116443
H	-0.3951901549	 1.9973788244	-0.9465548103	 0.122792
H	-0.6525354125	 1.9612207455	 0.8111965445	 0.111209
H	 0.4226943876	-0.3042851908	 0.9300185183	 0.118059
H	-0.9870030884	-0.3051902521	-0.1388166891	 0.105387
H	 2.2131440349	-1.2274898471	-3.0309906198	 0.289787
H	 3.9008192581	-2.6757403571	 1.032224202	 0.145065
34.9172	86.4696	146.5863	191.9294	276.7266	351.8169	386.5855	470.2141	507.6752	619.9117	685.5787	743.1891	793.3998	803.1177	836.6428	917.3209	999.4335	1008.2756	1061.0695	1079.9453	1114.0673	1147.6564	1191.3928	1238.3949	1304.2876	1370.5119	1379.3457	1405.2098	1415.4023	1489.1947	1494.3147	1510.4169	1522.2178	1640.8448	1762.8617	3015.9347	3038.0457	3058.0567	3109.7397	3117.6091	3164.3786	3589.0867
CCN=C1NN=NC=N1	CC[N]c1[nH]nncn1	
InChI=1S/C4H7N5/c1-2-5-4-6-3-7-9-8-4/h3H,2H2,1H3,(H,5,6,7,8)	InChI=1S/C4H12N5/c1-2-5-4-6-3-7-9-8-4/h4,6-9H,2-3H2,1H3
