17
gdb 110759	2.50482	1.44271	1.18613	4.6093	69.31	-0.2614	0.0035	0.2649	1115.1622	0.133653	-458.946519	-458.9376	-458.936656	-458.980465	31.799	
C	 0.2230333504	 0.9292524878	 0.4508352029	-0.240318
O	-0.4448856178	 0.0079062132	-0.3982645526	-0.228637
C	 0.3839782508	-0.5592291727	-1.3451445659	 0.064414
C	 1.391896865	-1.6118075202	-1.0101746498	-0.00817
O	 0.9378115203	-2.3602984349	 0.1451108432	-0.261794
C	-0.1798037746	-2.788748635	-0.5605713353	 0.448088
O	-0.9935466392	-3.5792009439	-0.2166183954	-0.322545
C	 0.1445529591	-1.9878276259	-1.8084284931	 0.027899
C	-0.1299757128	-2.4185213585	-3.2189015704	-0.497248
H	 1.0168050043	 0.4339875396	 1.0243110514	 0.128854
H	 0.6595633881	 1.7607407831	-0.1213948396	 0.108413
H	-0.5275736384	 1.3246094795	 1.1374545845	 0.139057
H	 0.6870091379	 0.1092056232	-2.1573303271	 0.099243
H	 2.4464557407	-1.6549840138	-1.2461110129	 0.127557
H	-1.2052722513	-2.3923581181	-3.4223532648	 0.149452
H	 0.363586549	-1.7556552703	-3.9353209947	 0.126989
H	 0.2215139085	-3.438962183	-3.3984311203	 0.138748
74.6041	120.9431	148.0552	171.4039	198.6782	236.8254	268.2796	317.175	444.8255	509.0088	635.7265	682.1135	748.5928	764.7996	820.1789	908.8666	928.8783	947.0501	995.857	1040.5197	1060.9481	1083.0767	1116.4269	1166.0536	1183.794	1229.2946	1253.218	1271.0446	1336.2824	1417.9211	1447.1276	1484.7538	1487.7212	1490.8225	1496.4405	1503.1943	1948.9949	2994.9948	3040.2186	3058.5059	3061.4979	3107.688	3114.5812	3134.2072	3215.5351
COC1C2OC(=O)C12C	CO[C@H]1[C@H]2OC(=O)[C@@]12C	
InChI=1S/C6H8O3/c1-6-3(8-2)4(6)9-5(6)7/h3-4H,1-2H3	InChI=1S/C6H8O3/c1-6-3(8-2)4(6)9-5(6)7/h3-4H,1-2H3/t3-,4+,6-/m0/s1
