23
gdb 88167	2.3316	1.41044	1.05671	1.7199	85.28	-0.2485	0.0785	0.327	1264.9839	0.205699	-388.302356	-388.293031	-388.292087	-388.336498	36.022	
C	-0.0497567906	 1.6577815459	 0.1505445607	-0.423523
C	-0.197185645	 0.1652154937	 0.3073096208	 0.000065
O	 0.8655047953	-0.6541177648	-0.1990225845	-0.308134
C	 0.6326132266	-0.64437174	 1.2171604404	 0.415173
C	 1.7092176194	-0.0291379086	 2.1233338292	-0.286624
C	 2.0043559165	-1.1102943218	 3.1820214584	-0.222702
C	 0.6731334183	-1.8702829979	 3.3012632206	-0.214289
C	 0.1842470024	-1.9766006607	 1.8450376154	-0.022756
C	-1.2895792586	-2.34033806	 1.6849521074	-0.423774
H	 0.9543601796	 1.9920990584	 0.4203459251	 0.126524
H	-0.2396440126	 1.9519032194	-0.8871362178	 0.127152
H	-0.7745677045	 2.182457335	 0.783332747	 0.117726
H	-1.1900695617	-0.2137723565	 0.0601128597	 0.080676
H	 2.5870063801	 0.2635977156	 1.5425602045	 0.112522
H	 1.319947966	 0.874603822	 2.6071184143	 0.102435
H	 2.7840283467	-1.7905417599	 2.8197331361	 0.102973
H	 2.3525666951	-0.6932396359	 4.1306318375	 0.094229
H	 0.7716775382	-2.8469446373	 3.7840842648	 0.094769
H	-0.0440692129	-1.2848266469	 3.8927917665	 0.092702
H	 0.7860086533	-2.7497820825	 1.3460092858	 0.087151
H	-1.9388120777	-1.588944341	 2.1481327382	 0.111348
H	-1.5674673481	-2.4271507651	 0.6297534647	 0.125344
H	-1.5029583658	-3.3037195709	 2.1598762151	 0.111013
42.1089	163.6615	176.3208	207.4026	216.7204	265.289	274.5353	365.4352	444.5509	458.8467	500.9079	520.5496	562.3565	674.4719	772.857	840.6494	859.4127	890.3942	924.1539	927.8819	981.8807	988.9974	995.6499	1025.6082	1059.015	1092.9955	1129.9601	1149.1273	1164.5035	1183.5049	1214.0856	1221.917	1247.6871	1303.232	1316.5089	1332.6	1342.9001	1354.7282	1379.5159	1407.4044	1411.3137	1464.2243	1479.0676	1489.1337	1490.5303	1496.7039	1504.2174	1505.778	1509.7144	3001.9375	3019.3429	3028.9163	3033.6768	3036.0651	3040.1798	3084.6385	3092.1419	3092.9234	3096.0709	3097.0668	3101.3514	3104.1407	3132.0538
CC1OC11CCCC1C	C[C@H]1O[C@]21CCC[C@H]2C	
InChI=1S/C8H14O/c1-6-4-3-5-8(6)7(2)9-8/h6-7H,3-5H2,1-2H3	InChI=1S/C8H14O/c1-6-4-3-5-8(6)7(2)9-8/h6-7H,3-5H2,1-2H3/t6-,7-,8-/m1/s1
