21
gdb 92468	2.49525	1.65397	1.63391	1.3024	80.81	-0.2386	0.0231	0.2617	987.1831	0.186609	-387.112457	-387.104962	-387.104018	-387.143989	31.245	
O	-0.0527783482	 1.4356186262	-0.0682933233	-0.44621
C	 0.017979237	 0.0137618029	 0.0016438161	 0.147143
C	 0.7512848376	-0.4962629843	 1.2766910054	-0.243012
C	-0.1953974748	-1.4108889852	 2.0949595704	-0.044053
C	-1.4045932682	-0.547772741	 2.5507775357	-0.199096
C	-2.1312631237	 0.0132382261	 1.2985587801	-0.200932
C	-1.4342337801	-0.5214365198	 0.0155866367	-0.058573
C	-1.3636283347	-2.0273834364	 0.0995583027	-0.085665
C	-0.7206010678	-2.4889277644	 1.1740142202	-0.071313
H	 0.8458099948	 1.7783250535	-0.0492124918	 0.27994
H	 0.5207484803	-0.3718138187	-0.8960828949	 0.061292
H	 1.6630630885	-1.0394040544	 1.0114299324	 0.092445
H	 1.0435689228	 0.3686610877	 1.8838737819	 0.087768
H	 0.3277395124	-1.8254008584	 2.9604903684	 0.05574
H	-2.0801752596	-1.15785789	 3.1571020213	 0.092964
H	-1.0462965735	 0.2667134731	 3.1901971095	 0.091574
H	-3.1825242069	-0.2864441492	 1.2885849186	 0.090093
H	-2.0985416336	 1.1045353896	 1.2835632685	 0.115654
H	-1.9551823445	-0.1717399674	-0.878545087	 0.063823
H	-1.8150399455	-2.6586044054	-0.6582543325	 0.085766
H	-0.5899772324	-3.5421002943	 1.3993705013	 0.084652
97.4943	249.1354	270.5326	319.7051	353.3622	383.8963	425.5192	495.8807	619.3087	628.0349	643.3413	722.7362	791.8953	818.8155	825.7777	860.2728	919.3029	964.8198	969.6457	972.4419	1003.4492	1010.4781	1024.7232	1054.9453	1078.8508	1115.8406	1141.1756	1159.8424	1194.3987	1220.8681	1236.9125	1260.0501	1294.1642	1300.1128	1329.2222	1335.8685	1347.1698	1375.0529	1384.0432	1392.9552	1421.058	1479.7684	1487.7121	1505.6918	1682.7767	2992.136	3031.3571	3036.4236	3061.4811	3071.1758	3079.0777	3082.8534	3085.2421	3114.3883	3170.6975	3195.0162	3823.0743
OC1CC2CCC1C=C2	O[C@H]1C[C@H]2CC[C@@H]1C=C2	
InChI=1S/C8H12O/c9-8-5-6-1-3-7(8)4-2-6/h1,3,6-9H,2,4-5H2	InChI=1S/C8H12O/c9-8-5-6-1-3-7(8)4-2-6/h1,3,6-9H,2,4-5H2/t6-,7+,8+/m1/s1
