21
gdb 42107	2.25887	1.62894	1.0585	1.2405	91.98	-0.2167	-0.0147	0.202	1183.7097	0.185105	-349.934064	-349.925687	-349.924743	-349.966522	33.256	
C	 0.059874084	 1.5355535856	 0.0770445853	-0.176344
C	 1.5338552003	 1.988916713	-0.0270729146	-0.189375
C	 2.5304052608	 1.5418087112	 1.077148882	-0.245307
C	 2.4203423507	 2.1829133945	 2.4408434193	-0.038194
C	 1.6018644859	 1.7551710966	 3.4206347354	-0.198296
C	 0.6686516381	 0.7321340186	 3.1193001791	 0.112373
C	-0.0496033127	-0.0248848925	 2.508132909	 0.002008
C	-0.809230561	-0.5575890399	 1.383786718	-0.335456
C	-0.1838258451	 0.0006026527	 0.0711464385	-0.182272
H	-0.392951292	 1.9779877402	 0.9687771689	 0.116434
H	-0.4636057476	 1.9784858863	-0.7783477875	 0.089576
H	 1.9362038321	 1.6194758048	-0.9802004998	 0.093306
H	 1.5510398479	 3.0834749718	-0.0982970963	 0.093997
H	 2.4531327647	 0.4547679355	 1.197347729	 0.115023
H	 3.5379185524	 1.7414648624	 0.6936139585	 0.094308
H	 3.0840451281	 3.018674438	 2.6520108042	 0.093692
H	 1.6115708352	 2.2224749371	 4.4004978576	 0.103522
H	-0.8171437577	-1.6536805897	 1.3583913387	 0.121363
H	-1.8591764647	-0.2452216834	 1.4613074231	 0.127969
H	-0.8423629859	-0.2761915186	-0.7596214513	 0.094736
H	 0.7614672065	-0.5259119643	-0.102256327	 0.106935
147.2109	157.3937	187.0804	228.6481	281.0345	344.141	366.2166	394.0742	445.5579	537.3475	571.0197	643.5705	703.716	749.8678	796.4754	806.0446	839.2474	870.8257	947.1776	978.7427	991.0602	1011.1816	1046.4051	1080.3198	1096.7636	1160.5731	1181.7867	1204.5692	1222.7131	1253.3825	1261.8357	1326.9008	1331.0329	1347.9727	1363.3213	1388.8477	1391.3558	1420.0413	1474.9127	1481.016	1482.1587	1491.4902	1497.5474	1644.9674	2317.4389	3009.1217	3018.8533	3025.9733	3030.5922	3039.0042	3050.8634	3054.1587	3067.5666	3076.556	3091.0165	3148.0057	3174.9939
C1CCC=CC#CCC1	C1CCC=CC#CCC1	
InChI=1S/C9H12/c1-2-4-6-8-9-7-5-3-1/h1-2H,3,5,7-9H2/b2-1-	InChI=1S/C9H12/c1-2-4-6-8-9-7-5-3-1/h1-2H,3,5,7-9H2/b2-1-
