25
gdb 90432	2.36677	1.40685	1.17183	0.1846	91.88	-0.2555	0.0722	0.3277	1239.7945	0.229447	-352.334875	-352.325372	-352.324427	-352.368503	37.643	
C	-0.0177961785	 1.6107816066	-0.117047298	-0.42215
C	 0.024083585	 0.0919682231	-0.0014974175	 0.066128
C	 0.8485090457	-0.7701552505	-1.0024637937	-0.267522
C	 1.1870404234	-1.7617318069	 0.1540729702	-0.025058
C	 2.6104957351	-1.6980503513	 0.7567646704	 0.023478
C	 3.8303721887	-1.6421834571	-0.1543075823	-0.412452
C	 2.1767706835	-0.4446180479	 1.609814088	-0.005005
C	 2.8800480854	 0.8847413479	 1.3468948279	-0.408982
C	 0.6834201331	-0.6796155193	 1.1743591931	-0.059505
H	 0.9760052528	 2.0561742419	-0.1941207106	 0.114994
H	-0.5811999571	 1.9088349545	-1.0090772089	 0.108716
H	-0.5177069971	 2.058337485	 0.7498928126	 0.110263
H	-1.0113670424	-0.2714843147	-0.0354551232	 0.071853
H	 0.2960818689	-1.1854300368	-1.849263112	 0.093149
H	 1.7248621185	-0.2503554091	-1.4007497484	 0.093123
H	 0.7198239483	-2.7445172657	 0.0648208484	 0.054238
H	 2.734398855	-2.5499181171	 1.4354053878	 0.066996
H	 3.7857838758	-0.816056114	-0.8701247105	 0.114267
H	 4.7518529597	-1.5226075941	 0.4264888151	 0.11134
H	 3.9231130567	-2.5698976592	-0.7304992498	 0.111096
H	 2.2778508243	-0.6570813605	 2.6791004343	 0.068103
H	 2.9130175428	 1.1502207103	 0.2871117162	 0.117174
H	 2.3883880259	 1.7048752653	 1.880437319	 0.113656
H	 3.9167519422	 0.8387121936	 1.6997598526	 0.109021
H	 0.0258181844	-0.9218611739	 2.0125379893	 0.053078
75.9166	168.9632	206.4801	219.3262	232.2825	261.7036	268.7828	291.5502	349.5696	423.3662	497.7019	556.2271	571.6654	696.0221	736.4684	748.6849	830.3425	850.1645	885.7018	904.176	937.6091	960.9746	1001.3943	1018.4994	1036.6197	1076.6325	1095.6669	1114.5154	1135.513	1138.8431	1172.3517	1184.7989	1186.5529	1210.7043	1246.9673	1263.7483	1279.1668	1309.1474	1315.7389	1340.4396	1366.2529	1371.4672	1387.0822	1407.7885	1408.8731	1417.2501	1486.6352	1487.4751	1489.0851	1497.5945	1499.04	1509.6631	1512.7602	3008.7025	3020.3086	3028.2953	3029.2331	3031.7066	3041.662	3054.5077	3069.0578	3082.8368	3083.0171	3087.1085	3090.7429	3100.6209	3104.0102	3112.9398	3128.8914
CC1CC2C(C)C(C)C12	C[C@H]1C[C@H]2[C@@H](C)[C@@H](C)[C@@H]12	
InChI=1S/C9H16/c1-5-4-8-6(2)7(3)9(5)8/h5-9H,4H2,1-3H3	InChI=1S/C9H16/c1-5-4-8-6(2)7(3)9(5)8/h5-9H,4H2,1-3H3/t5-,6-,7+,8-,9+/m0/s1
