20
gdb 111631	2.49712	1.47771	1.19472	1.3577	80.11	-0.2153	0.0114	0.2268	1129.3612	0.170979	-403.123876	-403.115146	-403.114202	-403.156913	33.714	
C	-0.0851515912	 1.4226503084	 0.0717654659	-0.480087
C	-0.0347448218	-0.0864473707	 0.0129146056	 0.28312
C	-0.6676016302	-0.7888952878	-1.1456847243	-0.138401
C	-1.3288288734	-1.8709910708	-0.7352078439	-0.085723
C	-1.2098178851	-2.0231786043	 0.7645035986	-0.221517
N	-0.3985829169	-0.8693333002	 1.2227069689	-0.153708
C	 1.0070591085	-0.8584981423	 0.7745826642	-0.07375
C	 1.7339999648	-2.0822596618	 0.2663905224	-0.102415
O	 1.8200119353	-3.1140347154	 1.2474413993	-0.412317
H	 0.5140222955	 1.8642758951	-0.7326992293	 0.115655
H	-1.1139053171	 1.7824248014	-0.0363141239	 0.123677
H	 0.3035190321	 1.7848518213	 1.0268340179	 0.127075
H	-0.5894710124	-0.4294971215	-2.1648775675	 0.097843
H	-1.8612835224	-2.5740469996	-1.3658113389	 0.101574
H	-2.1897581565	-1.9869630805	 1.2585376213	 0.109214
H	-0.7305172259	-2.9627918701	 1.0622733352	 0.139666
H	 1.6207472597	-0.2618813117	 1.453965142	 0.078887
H	 1.2222462232	-2.5312117488	-0.5859896965	 0.117421
H	 2.7371015356	-1.7776635928	-0.0722923148	 0.089328
H	 2.1912486381	-2.7299097679	 2.0486376978	 0.284457
94.7087	157.8613	179.195	231.9313	241.0285	283.9713	324.5061	365.3452	387.1342	536.2419	602.5373	614.8918	727.8252	763.1886	770.3288	784.1724	870.4743	926.7795	948.651	959.9575	996.6694	1022.4327	1036.3403	1071.8108	1080.2932	1102.8549	1119.1911	1148.9732	1210.6373	1221.6076	1256.9962	1320.311	1340.9698	1364.1635	1366.8678	1409.3183	1411.2113	1440.071	1484.0508	1493.3647	1496.1628	1511.5149	1669.1857	2977.7345	3014.3509	3031.0685	3066.3205	3068.0996	3093.8751	3119.0595	3120.3508	3189.468	3214.6899	3810.4497
CC12C=CCN1C2CO	C[C@]12C=CCN1[C@H]2CO	
InChI=1S/C7H11NO/c1-7-3-2-4-8(7)6(7)5-9/h2-3,6,9H,4-5H2,1H3	InChI=1S/C7H11NO/c1-7-3-2-4-8(7)6(7)5-9/h2-3,6,9H,4-5H2,1H3/t6-,7+,8?/m0/s1
