16
gdb 43963	3.14687	1.65929	1.42564	2.6389	74.05	-0.2331	-0.0198	0.2133	936.4532	0.125827	-400.716788	-400.710012	-400.709068	-400.747843	27.382	
O	-0.0661936512	-0.0176381246	 0.0518685364	-0.30483
C	-0.0356424248	 1.1723746927	-0.0695870781	 0.356809
C	-1.1612246005	 2.2579749459	-0.1423504374	-0.425725
C	-0.0466473457	 3.2835430308	 0.1381552334	 0.234194
C	 0.238126428	 4.190762169	 1.325120564	-0.337687
C	 1.5430763643	 3.6201963687	 1.8803267046	-0.056987
C	 1.9726873486	 2.5250656057	 1.2384463486	-0.150776
C	 1.0456320762	 2.2132335525	 0.1211987669	 0.077019
N	 0.9399893133	 3.2711317141	-0.9146060521	-0.362132
H	-1.7292182197	 2.3928292947	-1.06766665	 0.120671
H	-1.86120982	 2.0956731398	 0.6834580813	 0.137832
H	 0.3463311993	 5.2403719525	 1.0303882204	 0.130678
H	-0.5684996308	 4.1494146818	 2.0675815443	 0.119108
H	 2.0703803436	 4.10205495	 2.6975947289	 0.104242
H	 2.8676073411	 1.9639165496	 1.4734270158	 0.115361
H	 0.5574546583	 2.9120210969	-1.787474827	 0.242223
104.1939	213.0137	307.3154	382.022	414.8803	519.412	551.9887	597.5467	605.5454	678.4658	730.9284	749.0559	800.1817	866.4088	898.351	919.9321	927.5817	953.1066	982.931	1054.4611	1068.3562	1094.3816	1112.457	1135.4922	1165.9925	1202.4192	1237.4751	1263.0126	1331.0071	1384.1637	1396.4003	1460.8676	1469.248	1637.7869	1871.8126	3033.1489	3049.907	3071.4152	3104.0864	3184.172	3224.3712	3476.248
O=C1CC23CC=CC12N3	O=C1C[C@@]23CC=C[C@@]12N3	
InChI=1S/C7H7NO/c9-5-4-6-2-1-3-7(5,6)8-6/h1,3,8H,2,4H2	InChI=1S/C7H7NO/c9-5-4-6-2-1-3-7(5,6)8-6/h1,3,8H,2,4H2/t6-,7+/m0/s1
