14
gdb 16085	4.83053	1.72709	1.4802	1.8816	68.71	-0.247	-0.0072	0.2397	842.9166	0.106497	-345.354467	-345.347791	-345.346847	-345.385018	26.186	
C	-0.0133217009	-1.1790538726	 0.0901341506	-0.371251
C	 0.0387892472	 0.019535138	 0.0128164624	 0.208817
C	 0.0587372354	 1.4478116914	-0.1087039131	 0.243939
C	-0.9422761369	 2.1645652992	-1.0217752206	-0.345967
C	-0.2038417749	 3.4219171539	-1.4283038797	-0.080574
C	 1.0339290802	 3.4698915807	-0.9298327043	-0.077885
C	 1.2869078029	 2.2848755543	-0.0593043567	-0.066546
O	 0.3944189625	 2.199960222	 1.0695810667	-0.289519
H	-0.0484827744	-2.2374072265	 0.1685904509	 0.192835
H	-1.1984316103	 1.5400305187	-1.8856883682	 0.126452
H	-1.8764126099	 2.3790805551	-0.490151313	 0.134419
H	-0.6666329276	 4.1894310513	-2.0380133194	 0.108125
H	 1.7594728027	 4.2575270718	-1.0877268676	 0.10806
H	 2.2773715039	 1.8725835525	 0.1059602319	 0.109095
146.4805	156.111	308.0634	365.0555	463.843	513.8641	538.2588	585.6817	613.7754	669.2533	713.2023	735.2572	804.8356	870.5228	917.9045	944.0254	949.8831	979.5273	1000.7843	1066.1403	1137.7788	1167.4521	1191.8457	1260.013	1309.1699	1364.6689	1401.3595	1457.7896	1662.0691	2241.475	3040.269	3076.786	3169.5814	3195.8963	3224.451	3503.6899
C#CC12CC=CC1O2	C#C[C@]12CC=C[C@H]1O2	
InChI=1S/C7H6O/c1-2-7-5-3-4-6(7)8-7/h1,3-4,6H,5H2	InChI=1S/C7H6O/c1-2-7-5-3-4-6(7)8-7/h1,3-4,6H,5H2/t6-,7+/m1/s1
