18
gdb 86039	2.73478	1.19117	1.00093	4.325	72.06	-0.2695	0.0256	0.2951	1212.5225	0.146257	-439.087479	-439.078429	-439.077484	-439.121226	34.209	
O	-0.9557916104	 1.0968197112	 0.7954398101	-0.429529
C	-0.1598052848	 0.1483278467	 0.100257477	 0.113367
C	 0.5568056664	-0.8686832974	 1.0342844131	-0.307428
C	-0.634506685	-1.8396165123	 0.8445142104	 0.418275
O	-0.2163648387	-3.1618536826	 0.6200735397	-0.482086
C	-1.6444321272	-1.7630883982	 2.0125967398	-0.387762
C	-2.8202325248	-2.5841540642	 1.7336272601	 0.241274
N	-3.7145122869	-3.2641285692	 1.4596877252	-0.311496
C	-1.0697161772	-0.9974540982	-0.396965891	-0.286991
H	-0.3647119078	 1.7099146214	 1.245051031	 0.286492
H	 0.4664857991	 0.6405365754	-0.6523840483	 0.077706
H	 1.4522655407	-1.2923483541	 0.5739837918	 0.12142
H	 0.7890906148	-0.5353456482	 2.0498683008	 0.097056
H	-0.9931204516	-3.7024330767	 0.4273995356	 0.292188
H	-1.165963086	-2.1305084119	 2.9271571383	 0.150978
H	-1.9456482058	-0.7238113226	 2.1718743637	 0.169367
H	-2.1272432935	-0.7516728247	-0.5143091763	 0.121911
H	-0.6884429111	-1.4546146344	-1.3121151112	 0.115257
71.3125	119.1451	135.201	241.9488	314.82	340.4693	357.847	379.1794	396.9706	413.0968	436.5423	447.6211	548.9116	709.7045	815.5277	827.4489	854.933	906.5491	928.4833	950.1078	967.2579	992.0695	1052.7621	1072.1609	1141.8302	1170.9431	1195.5165	1239.3407	1250.7658	1266.4188	1296.1116	1309.9129	1320.8856	1389.1273	1415.119	1451.2204	1465.8001	1479.1544	2353.6781	3032.3047	3051.8471	3058.934	3075.5146	3108.6098	3124.5891	3138.0325	3773.5688	3810.3261
OC1CC(O)(CC#N)C1	O[C@H]1C[C@@](O)(CC#N)C1	
InChI=1S/C6H9NO2/c7-2-1-6(9)3-5(8)4-6/h5,8-9H,1,3-4H2	InChI=1S/C6H9NO2/c7-2-1-6(9)3-5(8)4-6/h5,8-9H,1,3-4H2/t5-,6-
