23
gdb 40919	3.66044	1.21745	1.12473	0.1027	88.84	-0.2513	0.0822	0.3335	1210.2049	0.207552	-351.119744	-351.111612	-351.110668	-351.152851	32.645	
C	 0.28270757	 1.4375381357	-0.5941653587	-0.21288
C	 1.5274119061	 1.5730374324	 0.3240555549	-0.282207
C	 1.2608481498	 0.1357991636	 0.8442111363	 0.408413
C	-0.1868152559	 0.251746185	 0.2890348694	-0.286926
C	 2.1116698851	-1.0599433845	 0.3091315315	-0.311255
C	 2.2354970505	-1.6284263508	 1.7510484199	-0.00114
C	 3.5280766576	-1.2228027504	 2.4988317832	-0.218518
C	 2.8634395899	 0.1250601445	 2.9149807489	-0.233712
C	 1.5141094033	-0.3395698576	 2.2893379326	-0.109586
H	-0.3818479917	 2.3006906281	-0.6769164548	 0.093791
H	 0.5540952159	 1.1132869802	-1.6026116404	 0.101911
H	 2.4936236485	 1.765102033	-0.1513879833	 0.090378
H	 1.3727547332	 2.3204353797	 1.1097532249	 0.097025
H	-0.8865695597	 0.577454892	 1.0663394061	 0.094615
H	-0.6069281003	-0.6267309767	-0.2096547113	 0.091712
H	 1.5819343149	-1.706211525	-0.3967653316	 0.095699
H	 3.0694170668	-0.7783597593	-0.1421788058	 0.090022
H	 1.8569146765	-2.6397632126	 1.9053237204	 0.058418
H	 3.7386298788	-1.8649686446	 3.3584831259	 0.096492
H	 4.4365198816	-1.1610697392	 1.8912732138	 0.090707
H	 2.8272695158	 0.2921745543	 3.9939453835	 0.09739
H	 3.2890433481	 1.0199193033	 2.4515503126	 0.098486
H	 0.6503345853	-0.3605598311	 2.958079222	 0.051162
47.8704	106.8173	172.3458	254.0645	341.3406	356.1632	410.1394	488.6469	664.4491	717.908	736.8386	764.4072	792.6789	832.8301	853.7297	872.0789	900.2066	903.9227	938.1336	942.9869	952.4673	961.5609	988.6245	1032.2416	1039.041	1089.5116	1139.5749	1141.5966	1156.602	1188.5857	1193.5307	1212.0723	1224.0459	1238.7946	1252.4188	1255.6317	1258.4577	1273.4259	1276.489	1288.7455	1292.7518	1306.2817	1327.5347	1470.9595	1473.2936	1477.0978	1484.2589	1495.7148	1503.8439	3033.7449	3036.5726	3041.9322	3043.8575	3056.1408	3058.3658	3071.0667	3082.707	3085.7011	3087.4783	3090.5441	3098.2259	3111.8602	3113.7764
C1CC2(C1)CC1CCC21	C1CC2(C1)C[C@H]1CC[C@@H]21	
InChI=1S/C9H14/c1-4-9(5-1)6-7-2-3-8(7)9/h7-8H,1-6H2	InChI=1S/C9H14/c1-4-9(5-1)6-7-2-3-8(7)9/h7-8H,1-6H2/t7-,8-/m1/s1
