16
gdb 65066	2.33786	1.57795	1.22925	2.6738	69.03	-0.2791	-0.003	0.2762	1050.6721	0.122254	-437.850771	-437.84216	-437.841216	-437.884108	32.09	
O	 0.154458341	 1.2995072933	 0.5875534026	-0.456084
C	 0.0902000518	-0.0044746768	 0.0896411078	 0.302795
C	 0.9736846844	-0.3160967631	-1.0753833031	-0.312377
C	 1.2657958566	-0.9258939671	 0.2822707894	-0.319945
C	-1.3079761281	-0.5763570176	 0.1313343532	 0.217845
C	-2.2289997016	-0.4670476467	-1.0159416153	-0.206354
O	-1.5849820309	-1.7032322369	-0.6954499104	-0.254355
C	-1.8719634442	-0.6301735895	 1.47356249	 0.246504
N	-2.2664564871	-0.6326066698	 2.5599475667	-0.328139
H	 0.1030850937	 1.2606649691	 1.5504806776	 0.298816
H	 0.5908063415	-0.9732457357	-1.8468093974	 0.135355
H	 1.6097122193	 0.4929125494	-1.4138318112	 0.131731
H	 2.1045336818	-0.5303149185	 0.8434462358	 0.125814
H	 1.0744037195	-1.9850976835	 0.4132627445	 0.134881
H	-3.3025346369	-0.445423707	-0.845374459	 0.143897
H	-1.8672502308	 0.0320191105	-1.9118581513	 0.139616
61.7602	126.9358	179.5762	240.8063	257.1688	318.9925	350.5218	370.738	449.2135	499.5209	555.1671	591.7198	618.2224	777.5687	822.1971	890.9274	907.8103	917.9015	951.6531	975.9346	998.2745	1057.7502	1092.7441	1131.3394	1150.5274	1170.9609	1195.7365	1273.3678	1303.8181	1371.3401	1391.0635	1443.239	1491.8223	1515.9105	2355.778	3104.0708	3139.6525	3148.8052	3204.1011	3229.6558	3246.0996	3782.6991
OC1(CC1)C1(CO1)C#N	OC1(CC1)[C@]1(CO1)C#N	
InChI=1S/C6H7NO2/c7-3-6(4-9-6)5(8)1-2-5/h8H,1-2,4H2	InChI=1S/C6H7NO2/c7-3-6(4-9-6)5(8)1-2-5/h8H,1-2,4H2/t6-/m1/s1
