17
gdb 69398	4.27786	1.14303	1.02673	3.5157	76.65	-0.2418	-0.0288	0.2131	1176.2888	0.136434	-418.033815	-418.025861	-418.024917	-418.066279	30.076	
C	-0.0090797705	 1.5216623916	 0.0015626906	-0.46696
C	 0.0585670043	 0.0180539387	 0.0246664176	 0.340907
C	-0.8268865338	-0.8074895005	 0.9338943036	-0.341064
C	 0.6688973742	-0.8348996542	 1.1399099944	-0.08357
N	 1.3809898073	-1.8584299442	 0.4133444936	-0.059266
C	 2.1820956876	-2.8470740447	 0.9361658136	 0.15325
O	 2.7588200121	-3.678487854	 0.2752921598	-0.309488
C	 1.1331266814	-1.6473889675	-0.9484855426	 0.050169
N	 0.424138566	-0.622917858	-1.2275612478	-0.293067
H	 0.9399300702	 1.9505854043	-0.3343281368	 0.129403
H	-0.791558075	 1.8526320386	-0.6883892794	 0.137954
H	-0.2371324637	 1.9197276969	 0.9945426308	 0.115001
H	-1.3976552542	-0.2627992231	 1.67818117	 0.123857
H	-1.3149611354	-1.6876430094	 0.5286910095	 0.12737
H	 1.1372004702	-0.4559265534	 2.0398988143	 0.118155
H	 2.2371801413	-2.7916234107	 2.0393278332	 0.089344
H	 1.5416205279	-2.3491873502	-1.6633534544	 0.168006
85.622	188.3519	201.1053	241.534	254.7201	322.4304	369.6848	422.442	525.9713	615.9214	647.3863	752.0646	772.9226	826.4113	876.988	929.8029	949.5717	961.473	979.1165	1029.6173	1044.8125	1055.8666	1093.95	1121.3156	1239.228	1247.2489	1266.7105	1300.0299	1357.8187	1418.437	1427.4612	1439.1734	1471.705	1480.9233	1499.2894	1658.3022	1801.915	2962.2457	3039.6723	3109.2365	3115.7511	3129.7694	3187.3381	3223.4169	3242.7985
CC12CC1N(C=O)C=N2	C[C@]12C[C@H]1N(C=O)C=N2	
InChI=1S/C6H8N2O/c1-6-2-5(6)8(4-9)3-7-6/h3-5H,2H2,1H3	InChI=1S/C6H8N2O/c1-6-2-5(6)8(4-9)3-7-6/h3-5H,2H2,1H3/t5-,6+/m1/s1
