19
gdb 74958	2.43474	1.82822	1.43088	2.4466	75.43	-0.2331	0.0121	0.2452	990.1276	0.159872	-423.027458	-423.019514	-423.01857	-423.059346	31.893	
C	-0.1253811651	 1.4966313626	 0.0447794115	-0.504776
C	 0.0313604811	 0.0158095427	-0.0383256963	 0.261976
C	 0.0547276883	-0.7993489293	-1.1017050814	-0.196025
C	 0.0526522725	-2.2185192843	-0.5591946491	 0.059838
C	 0.9231496376	-2.06527187	 0.6949111061	-0.283833
C	 0.0362944453	-0.8917785289	 1.1953453999	 0.28274
O	 0.2776195439	-0.3077039306	 2.4448781079	-0.493279
C	-1.3402218911	-1.6207509932	 1.1756603126	-0.086497
O	-1.2648438901	-2.4678277657	 0.0296215313	-0.278565
H	 0.7019445554	 1.9603231946	 0.5963657248	 0.11819
H	-0.1673419547	 1.9500165092	-0.9489085485	 0.127494
H	-1.0401041999	 1.7657799683	 0.5870647989	 0.139378
H	-0.0594807985	-0.5257324813	-2.1433914523	 0.097192
H	 0.2613629749	-3.029852946	-1.2534917756	 0.075682
H	 0.9013384366	-2.9410916313	 1.3488382471	 0.103867
H	 1.9499452686	-1.7602072136	 0.4830099203	 0.093332
H	 1.1645264329	 0.0666106958	 2.4393132489	 0.281065
H	-1.4631302944	-2.2185958992	 2.0871308434	 0.10433
H	-2.1807703834	-0.9226691797	 1.0885435605	 0.097894
143.1333	169.1164	240.5538	267.7668	285.2832	348.9384	429.3718	452.3831	492.8267	554.8851	597.6844	646.07	730.8511	788.5723	816.9281	869.5446	891.143	923.4528	957.2404	965.9982	1005.8885	1030.4578	1049.8792	1066.8131	1091.9246	1140.6892	1177.3986	1199.6674	1248.5893	1251.5166	1278.7699	1289.8718	1337.0116	1355.667	1370.0238	1414.5771	1476.8174	1480.9339	1485.4496	1524.6906	1686.4682	3019.3304	3021.8376	3062.1624	3065.0114	3067.2232	3114.8652	3127.7209	3142.8824	3204.2355	3815.3603
CC1=CC2CC1(O)CO2	CC1=C[C@H]2C[C@]1(O)CO2	
InChI=1S/C7H10O2/c1-5-2-6-3-7(5,8)4-9-6/h2,6,8H,3-4H2,1H3	InChI=1S/C7H10O2/c1-5-2-6-3-7(5,8)4-9-6/h2,6,8H,3-4H2,1H3/t6-,7-/m0/s1
