17
gdb 91694	3.00026	1.26387	1.08808	3.9699	68.74	-0.2407	-0.023	0.2177	1129.1124	0.135823	-458.939217	-458.931366	-458.930422	-458.97182	29.79	
O	 0.0047376982	 1.3988531652	-0.0598567632	-0.433694
C	 0.0340009276	-0.0100637547	 0.037931108	 0.11456
C	 0.4232380101	-0.5770000206	 1.4447745885	-0.26518
C	-0.9276566253	-1.2449656319	 1.7588858388	 0.054704
O	-1.2256001268	-1.9174234387	 0.4916406972	-0.30161
C	-1.4092448014	-0.559205046	-0.0003909753	 0.044865
C	-1.9776025612	-0.153665022	 1.3886418435	-0.087067
C	-3.3994005868	-0.5851855904	 1.6118221802	 0.143622
O	-4.2336082333	 0.1095487736	 2.1373418252	-0.262267
H	 0.9097605834	 1.7232852562	-0.0844987518	 0.292058
H	 0.6302885812	-0.4574271332	-0.7663831414	 0.083765
H	 1.2275764321	-1.3145831009	 1.4057733256	 0.113634
H	 0.6898725362	 0.221397402	 2.1420241805	 0.109973
H	-1.022569021	-1.8823425258	 2.6378158322	 0.093756
H	-1.9738478727	-0.4795634535	-0.9284750348	 0.09588
H	-1.817756535	 0.8681203468	 1.7328071193	 0.107645
H	-3.6358898855	-1.6101220261	 1.2565193171	 0.095356
88.5967	141.1166	209.0544	244.3256	267.7442	340.2036	417.1901	473.0907	532.1618	553.629	705.7493	814.1162	849.6709	875.215	913.6201	925.9287	945.8197	965.9987	1017.5932	1063.1068	1064.3524	1069.6999	1108.9345	1168.4205	1185.8299	1187.7555	1219.1036	1238.1642	1260.0944	1284.3149	1305.6488	1323.2491	1357.5234	1417.6273	1423.5791	1476.3442	1822.5187	2915.829	3031.6842	3069.2369	3122.8394	3127.3342	3128.1132	3137.105	3830.17
OC1CC2OC1C2C=O	O[C@H]1C[C@@H]2O[C@H]1[C@H]2C=O	
InChI=1S/C6H8O3/c7-2-3-5-1-4(8)6(3)9-5/h2-6,8H,1H2	InChI=1S/C6H8O3/c7-2-3-5-1-4(8)6(3)9-5/h2-6,8H,1H2/t3-,4-,5-,6-/m0/s1
