20
gdb 10232	2.73771	1.16772	0.91252	2.1473	67.73	-0.2487	0.0692	0.3179	1305.0978	0.174844	-423.254516	-423.244375	-423.243431	-423.290238	35.126	
C	-0.1768505181	 1.3219591328	 0.0797463001	-0.242482
O	 0.0249095213	-0.0766081009	 0.0490130122	-0.257953
C	 0.7160642775	-0.6086492528	 1.1865835716	 0.078801
C	-0.3020352687	-0.8575725856	 2.307942801	-0.06658
O	-1.3587875723	-1.6835324026	 1.8600748875	-0.420517
C	 1.4144739555	-1.8916272196	 0.7383871671	-0.203348
C	 2.4263381605	-1.6766479556	-0.3881385554	-0.066418
O	 3.1158696397	-2.8696401129	-0.7320465622	-0.419327
H	 0.7796207543	 1.8629354681	 0.1267135722	 0.11356
H	-0.6902898177	 1.5923717377	-0.8462369521	 0.131498
H	-0.7963941373	 1.642069529	 0.9292737482	 0.113256
H	 1.4665854537	 0.1209987454	 1.5324800366	 0.066424
H	 0.1803385002	-1.3673638328	 3.148628066	 0.10874
H	-0.6824657917	 0.1060858215	 2.6846115828	 0.083831
H	-1.6122469955	-1.32989871	 0.9977326734	 0.286025
H	 1.9297892434	-2.3324606953	 1.5993836168	 0.105962
H	 0.648118894	-2.6103351916	 0.4241328411	 0.103773
H	 1.925231721	-1.2327952925	-1.2587606003	 0.101876
H	 3.202986981	-0.9729050938	-0.0658163998	 0.102463
H	 2.4692524691	-3.4875506585	-1.0876724267	 0.280418
71.3745	77.6023	92.7911	111.8052	150.2164	220.7219	268.7113	300.1797	311.6244	355.4812	375.9937	476.6063	542.0623	673.39	772.3781	852.1705	921.1082	947.3997	1022.0888	1076.2674	1083.1668	1097.8621	1118.1659	1128.0827	1175.6746	1184.6691	1227.375	1237.0607	1273.0191	1311.1819	1344.689	1371.8745	1386.2859	1411.9714	1421.5079	1430.3059	1477.8628	1481.7865	1485.786	1508.1694	1511.984	1517.3931	2963.8008	2976.127	2991.0007	3013.3696	3037.1514	3040.1135	3056.6004	3072.4047	3088.2147	3115.2991	3771.6347	3816.1068
COC(CO)CCO	CO[C@@H](CO)CCO	
InChI=1S/C5H12O3/c1-8-5(4-7)2-3-6/h5-7H,2-4H2,1H3	InChI=1S/C5H12O3/c1-8-5(4-7)2-3-6/h5-7H,2-4H2,1H3/t5-/m1/s1
