23
gdb 117726	3.7243	0.70256	0.67977	2.9745	79.15	-0.2546	0.072	0.3266	1766.1137	0.20226	-462.549	-462.537434	-462.53649	-462.586079	41.251	
C	 0.2798026598	 1.3730173479	-0.0430586597	-0.229622
O	 0.1705139153	-0.0313565574	-0.0198124332	-0.253623
C	 0.557777023	-0.6088305998	 1.2137616095	-0.086995
C	 0.5126420329	-2.1352951734	 1.0409077419	 0.330271
C	-0.9341868923	-2.596553913	 0.7929246925	-0.426902
O	 1.3357817725	-2.4774014316	-0.0756550504	-0.477487
C	 1.1424880708	-2.8037566869	 2.2708131548	-0.212419
C	 1.2168107145	-4.3323167126	 2.1991979917	-0.079702
O	 1.8780666848	-4.8840004726	 3.3302092963	-0.42129
H	 1.3136714236	 1.7028128587	 0.1418591122	 0.110084
H	-0.0287559681	 1.709537651	-1.0357137033	 0.130358
H	-0.3713458337	 1.8419081892	 0.7102171197	 0.110311
H	 1.5825933817	-0.2964635801	 1.4695819542	 0.08925
H	-0.1140223358	-0.2818255427	 2.0236015431	 0.089044
H	-1.3788792823	-2.0107178433	-0.0156811443	 0.12433
H	-0.9540299951	-3.6499340187	 0.5053590926	 0.125164
H	-1.55311326	-2.4666310252	 1.6873824105	 0.108491
H	 1.1053726156	-1.8506306394	-0.7728315332	 0.28384
H	 2.1644664104	-2.4154848299	 2.376013572	 0.086937
H	 0.5914172249	-2.5150263922	 3.1734208594	 0.099108
H	 0.2139864053	-4.7694256159	 2.2108578871	 0.109632
H	 1.6982491964	-4.6345015813	 1.2598100452	 0.11209
H	 2.7967287557	-4.5989543608	 3.2972014813	 0.27913
62.5618	76.2037	98.2584	112.2895	131.0754	229.4967	235.0959	253.9882	291.9542	320.2754	333.892	351.6633	362.8765	420.1635	441.5345	484.3623	646.8047	778.2479	800.4159	920.9044	940.2547	972.1311	978.3333	1024.2296	1058.6348	1073.3182	1123.2684	1147.7979	1156.9853	1184.4322	1211.9273	1222.6636	1229.4879	1284.0912	1308.2102	1343.9072	1375.709	1392.4699	1411.2764	1418.6355	1426.7043	1470.9846	1479.7286	1486.3626	1492.9991	1499.5489	1504.5477	1516.751	1521.6515	2965.5929	2980.7115	3006.6738	3016.2676	3022.6687	3026.3519	3041.3524	3064.723	3092.1603	3112.9879	3116.4765	3132.9053	3778.8483	3814.8901
COCC(C)(O)CCO	COC[C@@](C)(O)CCO	
InChI=1S/C6H14O3/c1-6(8,3-4-7)5-9-2/h7-8H,3-5H2,1-2H3	InChI=1S/C6H14O3/c1-6(8,3-4-7)5-9-2/h7-8H,3-5H2,1-2H3/t6-/m0/s1
