20
gdb 40605	3.67518	1.26882	1.15502	0.9389	83.12	-0.2044	0.0665	0.2709	1142.2616	0.170978	-365.890194	-365.882454	-365.881509	-365.922798	31.303	
C	 0.5177581674	 1.6781372682	-0.0161761334	-0.273951
C	 1.5875124877	 0.6183156773	 0.1124931443	-0.284094
C	 0.144652431	 0.2242278626	-0.0896612867	 0.065775
N	-0.5366553693	-0.3692393584	 1.032906183	-0.070424
C	-1.7619556506	-0.0463393392	 1.722053728	-0.067146
C	-3.0523850172	 0.1877810493	 0.8639549413	-0.058912
C	-2.82825245	 0.1544784361	-0.6162937348	-0.308772
C	-2.8133339918	-1.1392680764	 0.1620389401	-0.075584
C	-1.5454048943	-1.3789498434	 1.0614947492	-0.069823
H	 0.2285137946	 2.2079234088	 0.8850061071	 0.118074
H	 0.471009429	 2.2746636619	-0.9207125212	 0.111913
H	 2.2819864754	 0.4795941706	-0.7091783549	 0.106903
H	 2.0003631009	 0.4442192282	 1.0995507536	 0.116448
H	-0.1048925863	-0.1886953869	-1.0625272954	 0.097731
H	-1.7087646819	 0.2198708041	 2.7725041576	 0.093047
H	-3.9702294267	 0.545377879	 1.3128329535	 0.086919
H	-3.7337778762	 0.2902460445	-1.2020890038	 0.109751
H	-1.9519235388	 0.5900163091	-1.0717239915	 0.122034
H	-3.5327900812	-1.9256943952	-0.025395589	 0.088439
H	-1.3315227118	-2.3485946503	 1.501077603	 0.091671
48.8785	140.8232	178.8228	313.3076	346.8973	371.1763	537.7911	632.2615	661.609	701.8072	721.4384	740.6742	779.8373	821.6944	849.6675	874.6566	899.5604	924.7819	943.767	950.8617	974.6806	1018.2089	1025.4257	1036.3393	1055.1107	1058.653	1073.4032	1080.5013	1086.0279	1136.9291	1155.0484	1184.3533	1197.9403	1227.8081	1250.6559	1267.3264	1279.7335	1316.621	1386.2404	1425.5947	1458.2229	1487.682	1495.2202	3131.5828	3132.7799	3135.5407	3140.9538	3146.8824	3162.3967	3189.1514	3200.4852	3213.8072	3230.1832	3248.7312
C1CC1N1C2C3CC3C12	C1CC1N1[C@H]2[C@H]3C[C@H]3[C@@H]12	
InChI=1S/C8H11N/c1-2-4(1)9-7-5-3-6(5)8(7)9/h4-8H,1-3H2	InChI=1S/C8H11N/c1-2-4(1)9-7-5-3-6(5)8(7)9/h4-8H,1-3H2/t5-,6+,7-,8+,9?
