15
gdb 45035	2.44546	1.77763	1.14681	4.0716	66.86	-0.2566	-0.0305	0.2261	1018.4059	0.115313	-453.999283	-453.992152	-453.991208	-454.031185	27.303	
O	-0.0613152829	 0.0084059862	 0.4056097791	-0.338381
C	-0.0820518317	 1.1913771579	 0.16228464	 0.41641
C	-1.3704607051	 1.9513016729	-0.1228317178	-0.333766
C	-1.2841836392	 3.4468752711	 0.0614086272	-0.042814
N	-0.6761899173	 3.8894592907	 1.3140584416	-0.325687
C	 0.0507379691	 4.1060329434	 0.0365918827	-0.163522
C	 1.2867855722	 3.2809291904	-0.1254097963	 0.475636
O	 2.3748325375	 3.7494414106	-0.3692332646	-0.348385
N	 1.1033067402	 1.9120602436	 0.0409894698	-0.373214
H	-1.6413342628	 1.721189197	-1.161364986	 0.143895
H	-2.1469118643	 1.5158764716	 0.5114814064	 0.150918
H	-2.1181527269	 4.0191782031	-0.3376924657	 0.104948
H	-1.0768605168	 4.7713094691	 1.6227720819	 0.248365
H	 0.1545546468	 5.1160242383	-0.3435246847	 0.118932
H	 1.9505838211	 1.3585452639	 0.0871842065	 0.266664
89.2715	135.2297	255.2591	338.7248	378.5611	469.0364	516.0426	534.236	567.2731	651.924	712.4272	761.2567	817.5973	863.318	872.9383	913.1177	939.482	999.6189	1008.349	1088.1739	1158.7242	1165.3696	1222.4796	1256.8302	1273.2454	1350.5773	1355.2514	1398.5965	1413.961	1448.6354	1461.3208	1810.902	1822.2446	3041.4212	3105.1685	3138.8495	3185.8222	3512.2202	3583.052
O=C1CC2NC2C(=O)N1	O=C1C[C@H]2N[C@H]2C(=O)N1	
InChI=1S/C5H6N2O2/c8-3-1-2-4(6-2)5(9)7-3/h2,4,6H,1H2,(H,7,8,9)	InChI=1S/C5H6N2O2/c8-3-1-2-4(6-2)5(9)7-3/h2,4,6H,1H2,(H,7,8,9)/t2-,4-/m1/s1
