21
gdb 61658	4.00501	0.80672	0.70304	4.4302	84.39	-0.2347	0.0301	0.2648	1613.9479	0.182631	-383.264945	-383.255324	-383.25438	-383.300204	35.391	
C	-0.0196241884	 1.5717097707	 0.0866530777	-0.389506
C	 2.2021*^-6	 0.032443714	-0.0488862787	-0.106734
N	 0.7277002596	-0.7059902228	 0.9777818271	-0.297288
C	 2.1692912774	-0.5987056855	 0.9670711476	 0.092775
C	 2.9541648249	 0.6040233287	 1.5957496563	-0.234393
C	 3.9997160754	-0.4197104592	 2.1114858684	-0.220318
C	 2.9400466403	-1.5393284272	 1.9262260329	-0.240259
C	-1.3843342728	-0.4749706997	-0.10184098	 0.273418
N	-2.4790575522	-0.842968402	-0.131406172	-0.320394
H	 1.0002707862	 1.9609495165	 0.0547171715	 0.132329
H	-0.5929562271	 2.0268516952	-0.7262702471	 0.136404
H	-0.4781819594	 1.8670324406	 1.0350468255	 0.130037
H	 0.4647490019	-0.2234593779	-1.0103056446	 0.131791
H	 0.3485647685	-0.5076555835	 1.8982118339	 0.221195
H	 2.5048415849	-0.7583572979	-0.0647175922	 0.083963
H	 3.2971220304	 1.4060422562	 0.9364593213	 0.095316
H	 2.3859808053	 1.0467846741	 2.4210766815	 0.095455
H	 4.8352752627	-0.5321577655	 1.4151230562	 0.106493
H	 4.402950027	-0.2680237456	 3.1142880439	 0.102963
H	 2.3671585558	-1.7014246091	 2.8456527427	 0.10163
H	 3.2575294075	-2.51047146	 1.540692968	 0.105124
43.3742	81.6513	113.4579	179.0668	202.5763	233.1213	284.4316	331.9838	392.8543	432.3881	552.3109	563.3176	653.5793	701.1547	778.0839	786.9338	841.4832	894.686	922.9617	928.9337	941.9662	991.0553	1037.5053	1062.5581	1072.0779	1120.8938	1178.1428	1194.8044	1197.1648	1241.2172	1249.1597	1253.413	1273.3322	1286.9074	1321.9463	1325.2625	1399.368	1404.4452	1473.6843	1484.4029	1489.5045	1490.4573	1506.3481	1512.4222	2360.7897	3028.5633	3035.9731	3042.2001	3045.8147	3052.8867	3065.2274	3097.3721	3108.9511	3119.4659	3124.1907	3136.2939	3521.8089
CC(NC1CCC1)C#N	C[C@@H](NC1CCC1)C#N	
InChI=1S/C7H12N2/c1-6(5-8)9-7-3-2-4-7/h6-7,9H,2-4H2,1H3	InChI=1S/C7H12N2/c1-6(5-8)9-7-3-2-4-7/h6-7,9H,2-4H2,1H3/t6-/m1/s1
