18
gdb 113256	3.74874	0.91148	0.85363	1.9474	72.39	-0.2676	0.018	0.2856	1370.8835	0.146276	-439.07893	-439.069424	-439.06848	-439.113687	34.742	
O	 0.1769335199	 0.6129671383	 0.8090644696	-0.426325
C	-0.2235157072	 0.2169241958	-0.4906975164	-0.075299
C	-1.5382511327	-0.5418529386	-0.4760911819	-0.091985
C	-1.7247072234	-1.7625923301	-1.3635765233	-0.354312
C	-1.554170948	-1.9145526508	 0.1259686222	 0.404334
O	-0.3186778799	-2.3482205182	 0.6272137336	-0.473419
C	-2.7379797675	-2.3409993578	 0.9884294834	-0.389176
C	-2.8321475245	-3.8006623266	 1.0586811845	 0.246649
N	-2.8488081917	-4.9558114739	 1.0923493949	-0.304642
H	 0.3811312214	-0.2011532672	 1.2838845656	 0.294149
H	-0.3327072733	 1.1361039077	-1.0752146085	 0.111872
H	 0.54903012	-0.393712962	-0.9770858553	 0.094325
H	-2.4153950752	 0.0708259797	-0.2866592226	 0.097449
H	-2.6974009811	-1.9535643048	-1.8038939072	 0.121358
H	-0.8820071156	-2.0518277763	-1.9825565242	 0.125746
H	-0.2510270418	-3.3033552904	 0.5078646888	 0.302749
H	-2.6157079226	-1.9473524112	 2.0037959659	 0.162653
H	-3.6726817569	-1.9377536334	 0.586791911	 0.153874
56.7799	93.2188	109.5521	155.4137	228.4824	328.3886	344.5297	379.3952	390.9093	404.9948	456.7035	478.2955	488.5113	631.9097	753.2526	821.4448	885.2715	899.1608	939.749	953.5526	976.9795	1043.8852	1054.8164	1073.3242	1091.6374	1148.9117	1196.9645	1211.6315	1268.5149	1297.4948	1314.4081	1348.1663	1398.9396	1419.7405	1434.7825	1454.3779	1487.0944	1502.7078	2358.9755	3012.1987	3049.9429	3078.1521	3097.8985	3133.2923	3148.7476	3222.191	3783.5464	3799.0099
OCC1CC1(O)CC#N	OC[C@H]1C[C@]1(O)CC#N	
InChI=1S/C6H9NO2/c7-2-1-6(9)3-5(6)4-8/h5,8-9H,1,3-4H2	InChI=1S/C6H9NO2/c7-2-1-6(9)3-5(6)4-8/h5,8-9H,1,3-4H2/t5-,6-/m1/s1
