20
gdb 103615	2.59338	1.26081	1.09893	4.2008	77.09	-0.2497	0.0287	0.2784	1218.5909	0.169992	-440.310772	-440.300859	-440.299914	-440.345459	35.623	
C	 0.0934498054	 1.3962356357	 0.0062294266	-0.345911
N	 0.026883543	-0.0392328898	 0.1026772455	-0.078417
C	-1.1027418089	-0.9766554757	 0.1140618369	-0.240399
C	-0.0571195667	-2.1393035718	 0.0682799381	 0.128446
C	 0.0090847012	-3.0384155036	 1.2980539782	-0.448568
C	 0.0057447232	-2.9359789206	-1.243150507	-0.101127
O	 1.2422210121	-3.6090512978	-1.3639184498	-0.42415
C	 0.9904472171	-1.0035943473	 0.0175726242	 0.400824
O	 2.1924091799	-0.957785937	-0.1260927423	-0.40766
H	 1.1472283364	 1.6763717661	-0.0637034166	 0.163293
H	-0.4296985514	 1.7633429984	-0.8855642652	 0.130063
H	-0.3440233203	 1.8785863081	 0.8881676701	 0.131875
H	-1.713585849	-0.9310244804	 1.0221420522	 0.111146
H	-1.7498038598	-0.8922081267	-0.7675758093	 0.109795
H	-0.8816505092	-3.6738428569	 1.3578133892	 0.117005
H	 0.8844136505	-3.6885514215	 1.2333052467	 0.148212
H	 0.0755245098	-2.4550002547	 2.2215144164	 0.117038
H	-0.7760169105	-3.7043700947	-1.2682094056	 0.105067
H	-0.1708675081	-2.2566829404	-2.0942518164	 0.084148
H	 1.9373227755	-2.9501545593	-1.2237845517	 0.299319
85.7023	121.5822	140.4349	150.5501	202.7421	213.3244	242.1813	259.2678	306.2899	370.8211	406.625	522.7146	560.2244	633.6123	750.2459	791.9484	835.1971	923.4295	944.0105	984.233	990.9698	1056.5251	1080.9547	1126.3599	1144.2912	1170.1607	1189.5573	1234.7009	1250.5721	1284.3625	1330.3521	1383.5048	1404.5658	1422.6143	1447.3594	1459.7675	1482.1454	1488.1426	1499.6302	1510.0107	1511.6285	1531.0754	1844.4857	2958.8443	3015.8704	3024.7725	3034.5903	3053.4366	3069.0725	3073.3669	3099.3804	3130.4793	3131.7821	3737.1901
CN1CC(C)(CO)C1=O	CN1C[C@@](C)(CO)C1=O	
InChI=1S/C6H11NO2/c1-6(4-8)3-7(2)5(6)9/h8H,3-4H2,1-2H3	InChI=1S/C6H11NO2/c1-6(4-8)3-7(2)5(6)9/h8H,3-4H2,1-2H3/t6-/m0/s1
