19
gdb 71889	2.77683	1.69632	1.29971	2.4682	74.52	-0.2438	0.0765	0.3203	1008.9352	0.158656	-422.985251	-422.977255	-422.976311	-423.017083	32.455	
O	 0.0303425702	 1.4054745637	 0.0247940901	-0.48273
C	 0.0199649438	 0.0080956056	 0.0016053896	 0.420962
C	 0.4842227037	-0.7202884215	-1.28590544	-0.295324
C	-0.6876488725	-1.7242409763	-1.1297061825	-0.034933
C	-0.4505702431	-2.7948812101	-0.0328175456	-0.295415
C	-0.7663050938	-1.7367951611	 1.0555004612	 0.420929
O	-1.5537820408	-2.1100091541	 2.1481560181	-0.482705
C	 0.4078411869	-0.7499654136	 1.3005435385	-0.369232
C	-1.3319855402	-0.7808753278	-0.0485390906	-0.146308
H	 0.9446640654	 1.6993611218	 0.1108142754	 0.27491
H	 0.3136434476	-0.0646919355	-2.1447774743	 0.106054
H	 1.5055356589	-1.1154533677	-1.3266455255	 0.08241
H	-1.1933707108	-2.0456061701	-2.0389759491	 0.072299
H	-1.2519310797	-3.5393417868	-0.0461618401	 0.106014
H	 0.5192643131	-3.3043002633	-0.0044276873	 0.082441
H	-1.0172784058	-2.6557800387	 2.7347227029	 0.274897
H	 1.4235910524	-1.1495504498	 1.3966712338	 0.079251
H	 0.1654454713	-0.1206295402	 2.1618955349	 0.10929
H	-2.3254511664	-0.3431211246	-0.0649290095	 0.077191
177.5119	184.6019	221.2049	236.8046	311.8107	381.6333	395.739	415.0682	431.4565	565.6025	588.8616	687.1148	734.2455	824.4259	838.5939	887.91	900.453	901.6243	933.925	944.3818	979.7758	1018.9941	1042.7712	1060.4812	1105.4438	1114.1616	1135.6955	1168.9517	1186.2374	1216.2155	1228.0554	1235.1829	1262.955	1268.9471	1305.0387	1323.6799	1357.1071	1376.9834	1469.3688	1474.2754	1491.869	3030.6909	3032.1886	3037.4491	3096.7012	3097.2955	3104.2981	3115.1226	3168.4278	3787.2274	3787.4611
OC12CC3CC(O)(C1)C23	O[C@@]12C[C@H]3C[C@@](O)(C1)[C@@H]23	
InChI=1S/C7H10O2/c8-6-1-4-2-7(9,3-6)5(4)6/h4-5,8-9H,1-3H2	InChI=1S/C7H10O2/c8-6-1-4-2-7(9,3-6)5(4)6/h4-5,8-9H,1-3H2/t4-,5+,6-,7+
