17
gdb 110254	2.49737	1.32505	0.97845	4.0965	69.2	-0.2381	0.0032	0.2413	1190.4141	0.134593	-458.901719	-458.893061	-458.892117	-458.936241	32.086	
O	-0.1182881327	 1.2390440179	 0.9617884344	-0.432132
C	 0.0215048016	 0.2234958236	-0.0271441026	-0.119853
C	-1.3512595784	-0.4597099701	-0.1162142788	 0.042693
C	-1.9811889911	-0.8840979781	-1.5009491763	-0.231662
C	-1.0312267543	-2.1188890828	-1.4927896497	 0.141198
O	 0.303544411	-1.828440682	-1.8108609334	-0.427929
C	-1.5078614688	-2.0249748577	 0.0120628944	-0.258875
C	-2.8771026844	-1.7680042732	-0.6206751067	 0.446395
O	-4.0233945601	-2.0664372794	-0.4873934584	-0.321575
H	 0.7241432171	 1.6970804122	 1.0366971698	 0.285693
H	 0.3048962055	 0.6502598036	-0.9977678646	 0.105437
H	 0.802153782	-0.4937858755	 0.252063978	 0.090927
H	-2.0302205138	 0.1098946605	 0.5225410082	 0.111622
H	-2.2391395347	-0.2486775006	-2.3450393097	 0.096426
H	-1.385089467	-2.9985007032	-2.0442953745	 0.089863
H	 0.8337264512	-2.6097826382	-1.6238831567	 0.291161
H	-1.2372479331	-2.662013067	 0.8518112965	 0.090612
17.8125	136.3198	213.3844	234.0235	270.5259	288.5362	313.0271	362.8264	405.3928	525.2101	563.2828	677.9391	730.2672	757.1891	770.2026	880.1233	939.4272	992.4668	1025.162	1039.2291	1063.8594	1068.6475	1083.9981	1116.8452	1131.2616	1174.1755	1183.2631	1207.3103	1244.5532	1254.4956	1264.0577	1315.0638	1374.3067	1451.2562	1458.3338	1508.4561	1922.5943	3011.5097	3028.5223	3045.9738	3087.6419	3142.2758	3151.898	3817.9175	3828.9035
OCC1C2C(O)C1C2=O	OC[C@H]1[C@H]2[C@@H](O)[C@@H]1C2=O	
InChI=1S/C6H8O3/c7-1-2-3-5(8)4(2)6(3)9/h2-5,7-8H,1H2	InChI=1S/C6H8O3/c7-1-2-3-5(8)4(2)6(3)9/h2-5,7-8H,1H2/t2-,3-,4+,5+
