13
gdb 44560	3.72872	1.61456	1.53326	6.1614	56.49	-0.2864	0.0411	0.3276	854.2402	0.090365	-493.698486	-493.692452	-493.691508	-493.729137	23.448	
O	 0.0036075733	 0.027970784	 0.1277270811	-0.357901
C	-0.0133705357	 1.2107951572	 0.059341309	 0.510315
O	-1.15251601	 1.9674697213	 0.0055961309	-0.241472
C	-0.8194026242	 3.3400212524	 0.0199750071	 0.034782
C	-0.775272692	 4.0155233558	 1.4077490562	-0.006445
O	-0.0093591268	 3.1591137701	 2.2474990238	-0.212602
C	 0.7093779681	 4.0356835224	 1.3871123674	-0.006446
C	 0.7332634185	 3.3610651533	-0.0015852134	 0.034787
O	 1.102922257	 1.9980359004	-0.0256986206	-0.24147
H	-1.3570895329	 3.8771632115	-0.7612422887	 0.115344
H	-1.4932707366	 4.6778946751	 1.8747335034	 0.127884
H	 1.4218332046	 4.7174799094	 1.8342061912	 0.127883
H	 1.2343047767	 3.9122718671	-0.7972336073	 0.115341
119.7336	197.0278	313.9082	433.861	555.7768	636.4127	693.9363	735.9348	769.0227	792.8984	840.2987	880.9754	907.0857	911.8731	921.4271	957.1329	1020.1812	1034.1998	1093.203	1106.994	1120.7913	1204.4352	1226.2999	1232.0153	1281.7268	1347.9612	1357.0333	1379.4699	1941.0684	3117.3376	3125.4854	3198.1187	3212.1465
O=C1OC2C3OC3C2O1	O=C1O[C@H]2[C@H]3O[C@H]3[C@H]2O1	
InChI=1S/C5H4O4/c6-5-8-3-1-2(7-1)4(3)9-5/h1-4H	InChI=1S/C5H4O4/c6-5-8-3-1-2(7-1)4(3)9-5/h1-4H/t1-,2+,3-,4+
