17
gdb 70495	2.75556	1.51508	1.13656	3.3087	80.47	-0.2415	-0.0505	0.191	1084.7827	0.136623	-380.875185	-380.867206	-380.866261	-380.907529	30.467	
C	 0.0615761265	 1.5266996411	 0.0255157058	-0.486297
C	-0.0180397442	 0.0221073775	-0.0120290635	 0.214489
C	-0.878577807	-0.7764373058	 0.9085126087	-0.273718
N	 0.5807309942	-0.7791340693	 1.0824890992	-0.135892
C	 1.2707456733	-1.9307882762	 0.4670010821	-0.209403
C	 1.0236464377	-1.8208162548	-1.0167886897	-0.191442
C	 0.3189023439	-0.713114708	-1.2852395954	 0.189368
C	-0.0858182538	-0.261351488	-2.5692658149	 0.204261
N	-0.4302940618	 0.1401601354	-3.5999309553	-0.3432
H	 1.0532367935	 1.8752912088	-0.2805004989	 0.130208
H	-0.6771104933	 1.9697671399	-0.6503174498	 0.139837
H	-0.1324000283	 1.8900575253	 1.0371551546	 0.133929
H	-1.4203298639	-0.2792579828	 1.7088232011	 0.122518
H	-1.3616680192	-1.6651829921	 0.507759998	 0.115525
H	 2.3434905035	-1.883174373	 0.6978730325	 0.13095
H	 0.9002835421	-2.875019941	 0.8861458104	 0.129183
H	 1.3577935567	-2.5480892371	-1.7464821548	 0.129684
120.6175	140.6448	184.5671	246.2598	274.6137	340.1257	432.9811	449.2405	524.3237	539.2401	653.991	679.6863	755.2875	767.0941	823.452	844.8617	930.336	960.0996	981.9818	1015.3424	1071.5253	1104.7678	1119.2671	1136.0824	1164.7805	1217.3961	1244.3559	1328.6723	1336.7227	1357.7387	1419.661	1478.7413	1484.3884	1494.0775	1501.6562	1666.8857	2338.9354	3014.7452	3040.6593	3047.8888	3097.3542	3105.8401	3129.7998	3187.056	3216.8684
CC12CN1CC=C2C#N	C[C@]12CN1CC=C2C#N	
InChI=1S/C7H8N2/c1-7-5-9(7)3-2-6(7)4-8/h2H,3,5H2,1H3	InChI=1S/C7H8N2/c1-7-5-9(7)3-2-6(7)4-8/h2H,3,5H2,1H3/t7-,9?/m1/s1
