16
gdb 23052	3.05773	1.20306	0.99432	2.2098	68.97	-0.2546	-0.0152	0.2394	1183.5458	0.122645	-474.925577	-474.917254	-474.91631	-474.95914	30.078	
O	-0.1733182181	 1.4101315534	 0.0429071701	-0.384208
N	-0.0085869839	 0.0287148394	 0.2112541104	-0.223622
C	-1.0974988661	-0.5855708484	 0.037349809	 0.265504
C	-2.5371198587	-0.2925007425	-0.2990285375	-0.168529
O	-2.8161567629	-1.7157649317	-0.221610256	-0.320806
C	-1.4508715231	-2.0449735468	 0.1023211885	 0.299305
C	-0.741164614	-3.1513741898	-0.7041546293	-0.122476
O	-0.4517123745	-3.8963788283	 0.4945348195	-0.271514
C	-1.1732322972	-2.9568921508	 1.3145607954	-0.122476
H	 0.7160794691	 1.7459218865	 0.2009366754	 0.314086
H	-3.0950508507	 0.2880271822	 0.4449400549	 0.134087
H	-2.7220522839	 0.1201060479	-1.2977004204	 0.134087
H	-1.4199898724	-3.683944637	-1.3817576807	 0.116263
H	 0.1663975666	-2.8481721161	-1.2378570413	 0.117017
H	-0.5491563825	-2.5260864778	 2.1053671857	 0.117018
H	-2.0888389577	-3.3828823203	 1.7432539563	 0.116263
79.0494	96.0019	139.9414	176.7459	290.3619	306.0204	366.3768	456.1353	470.1978	525.1834	582.1907	772.8796	829.6128	889.3052	917.6223	983.4725	987.8575	990.1784	1006.182	1037.8327	1092.293	1103.7039	1130.8114	1147.7471	1151.7396	1189.4959	1289.5274	1293.483	1316.2131	1367.2769	1422.5201	1486.9198	1500.714	1515.4877	1812.3873	3015.0855	3026.3845	3028.5207	3072.8988	3077.6262	3077.65	3813.283
ON=C1COC11COC1	ON=C1COC21COC2	
InChI=1S/C5H7NO3/c7-6-4-1-9-5(4)2-8-3-5/h7H,1-3H2	InChI=1S/C5H7NO3/c7-6-4-1-9-5(4)2-8-3-5/h7H,1-3H2
