20
gdb 54305	2.51781	1.48036	1.0828	2.9434	79.72	-0.2294	-0.0079	0.2216	1169.0102	0.169008	-403.121928	-403.112739	-403.111794	-403.156145	34.597	
C	 0.5441448272	 1.189704582	 0.0016105817	-0.482839
C	-0.1469309508	-0.1564502323	 0.0373265698	 0.347344
O	-0.5712113311	-0.6332896419	 1.0696022463	-0.32286
C	-0.3095879502	-0.8941786991	-1.2701245374	 0.225944
C	-0.4306118411	-2.4094650318	-1.1431324852	-0.302421
C	-1.6483195798	-1.5895211762	-1.4337234234	-0.276117
N	 0.2893737344	-0.2281829272	-2.4035457357	-0.135468
C	 1.6133174595	-0.6581888484	-2.8541229159	-0.230744
C	 0.4045580071	-0.9024245164	-3.687279929	-0.23831
H	 1.5840055401	 1.0742372902	-0.3234153973	 0.139445
H	 0.0662333051	 1.8456253855	-0.7313324589	 0.150983
H	 0.5167151108	 1.6317980954	 0.9980307951	 0.13223
H	-0.0172698923	-3.0215904619	-1.9369844951	 0.114286
H	-0.3174485874	-2.8048184289	-0.1409083937	 0.140984
H	-2.3674407435	-1.446362133	-0.636044618	 0.13776
H	-2.0573399699	-1.6132696642	-2.4379748787	 0.120512
H	 2.3089227043	 0.1372810502	-3.1056407898	 0.119677
H	 2.0567992787	-1.523818925	-2.3660110129	 0.119277
H	 0.0646989913	-1.931576816	-3.7810553369	 0.118539
H	 0.1961972577	-0.2822718509	-4.554686995	 0.121779
55.5515	80.2411	167.6733	197.3047	225.9106	272.6416	300.1296	365.6952	436.8038	483.188	530.3767	617.8428	630.162	770.8234	804.9161	831.9233	862.3771	894.2339	919.9924	955.3383	976.3945	1004.6697	1043.6635	1054.7426	1061.7492	1092.0177	1114.0651	1123.5358	1158.2435	1173.7916	1181.4703	1203.6318	1240.6336	1322.484	1361.7423	1384.5147	1444.5791	1455.4542	1468.8943	1473.5818	1493.8777	1522.1403	1788.5399	3045.7023	3100.1793	3103.5055	3110.0982	3138.451	3141.4485	3157.4356	3178.9627	3194.0751	3227.9983	3240.4406
CC(=O)C1(CC1)N1CC1	CC(=O)C1(CC1)N1CC1	
InChI=1S/C7H11NO/c1-6(9)7(2-3-7)8-4-5-8/h2-5H2,1H3	InChI=1S/C7H11NO/c1-6(9)7(2-3-7)8-4-5-8/h2-5H2,1H3
