15
gdb 75240	3.13231	1.50614	1.09854	1.4998	68.89	-0.2395	-0.0703	0.1692	1054.9761	0.113001	-453.954354	-453.946445	-453.945501	-453.986831	29.682	
N	 0.0329696075	 1.3151919897	 0.0662443697	-0.569684
C	-0.0420666189	-0.0376644116	 0.0249923833	 0.305314
N	-1.1131826113	-0.7497346078	 0.0309116785	-0.304807
C	-0.7613320267	-2.1787940293	 0.0129713782	-0.266514
C	 0.7581314437	-2.2615982442	 0.0520025952	 0.311977
C	 1.5800940597	-3.3044330034	 0.6905315964	-0.230324
O	 1.4732199268	-3.2239905789	-0.7240370052	-0.253781
C	 1.2318579178	-0.8326192628	-0.0033498992	 0.277458
O	 2.3577869336	-0.4036278621	-0.063993721	-0.325854
H	 0.9269967893	 1.722707842	-0.1572084966	 0.272598
H	-0.7940729317	 1.8529519666	-0.134173304	 0.266458
H	-1.2376463384	-2.6825306524	 0.8617242307	 0.120412
H	-1.1482804221	-2.6489668689	-0.8986062332	 0.134291
H	 2.5509264588	-3.0304218783	 1.1006404997	 0.136227
H	 1.077779362	-4.1507144185	 1.1573586774	 0.126229
67.0994	218.0753	236.5192	250.044	270.0567	343.4442	372.8713	451.7412	475.1112	537.5691	580.3332	657.2626	732.4403	796.5387	858.5429	894.1817	933.3439	973.3031	1044.5059	1046.8288	1133.4734	1150.2502	1171.0595	1201.7096	1220.7453	1298.7534	1417.0134	1430.6551	1490.5316	1513.4432	1609.3516	1715.365	1835.0277	3034.777	3066.1142	3083.067	3179.4452	3593.7731	3717.5023
NC1=NCC2(CO2)C1=O	NC1=NC[C@]2(CO2)C1=O	
InChI=1S/C5H6N2O2/c6-4-3(8)5(1-7-4)2-9-5/h1-2H2,(H2,6,7)	InChI=1S/C5H6N2O2/c6-4-3(8)5(1-7-4)2-9-5/h1-2H2,(H2,6,7)/t5-/m0/s1
