19
gdb 128104	1.85034	1.82814	0.98853	3.2465	79.1	-0.2186	0.0038	0.2224	1231.0952	0.15805	-419.207614	-419.197755	-419.196811	-419.24303	34.617	
C	 0.217717618	 1.4433548822	 0.3154615744	-0.329193
N	-0.1547364645	 0.0894731858	-0.1092392798	-0.388736
C	 0.5732729156	-0.4271392295	-1.2049580229	-0.061468
C	 0.256749679	-0.2938816576	-2.5258493159	 0.425253
C	-0.8772535391	 0.370530212	-3.2165251501	-0.498784
O	 1.1881675449	-0.9064900419	-3.2771111623	-0.223474
N	 2.1466427672	-1.4922254382	-2.4440802422	-0.218239
C	 1.7835587831	-1.1956432588	-1.2198486535	 0.355247
C	 2.5892053392	-1.6730133313	-0.0546916239	-0.506049
H	 1.2757222179	 1.5513607589	 0.6032748536	 0.106509
H	 0.021172743	 2.145201518	-0.4999403159	 0.130809
H	-0.4048914687	 1.733519253	 1.1668666417	 0.120906
H	-0.1099223871	-0.5447703048	 0.6794953795	 0.227529
H	-0.5638768342	 1.2926467784	-3.7191295528	 0.142706
H	-1.30950923	-0.2880153218	-3.9760580068	 0.14657
H	-1.6444660475	 0.6190171167	-2.4794606121	 0.150126
H	 2.9421195683	-0.8337665175	 0.5540552088	 0.135525
H	 1.9965050131	-2.3244759344	 0.5975815214	 0.131167
H	 3.4553456119	-2.2367258592	-0.4062379312	 0.153598
39.7935	112.0995	136.6324	146.8185	168.3446	184.494	246.6077	252.8077	339.6966	429.2024	489.1522	571.412	641.5646	669.5927	713.533	765.3791	803.6839	921.8391	1007.8075	1019.4616	1043.1679	1048.5966	1065.6882	1067.172	1152.0118	1178.0523	1268.6331	1303.8183	1395.4188	1414.1481	1433.3059	1454.5623	1472.1219	1477.302	1482.1735	1484.4339	1489.642	1501.207	1522.6607	1547.1536	1683.5497	2974.8936	3035.4431	3036.3058	3074.09	3088.677	3095.0036	3115.3139	3132.9324	3137.8166	3540.7865
CNC1=C(C)ON=C1C	CNc1c(C)onc1C	
InChI=1S/C6H10N2O/c1-4-6(7-3)5(2)9-8-4/h7H,1-3H3	InChI=1S/C6H10N2O/c1-4-6(7-3)5(2)9-8-4/h7H,1-3H3
