21
gdb 105226	1.91369	1.45469	1.09377	2.2973	74.86	-0.2535	0.0659	0.3194	1236.9701	0.17939	-461.337975	-461.327442	-461.326498	-461.373151	38.752	
C	-1.3720082177	-0.2734358828	-0.6387823632	-0.413724
C	-1.6204669033	-0.6440670895	 0.8283577616	 0.038098
O	-2.423998907	-1.8112107358	 0.9397737611	-0.422768
C	-0.3060890876	-0.8551407059	 1.5826404366	 0.347479
C	 0.3503053335	 0.4445104372	 2.0269021348	-0.126269
O	-0.4227620575	 1.0770721812	 3.0326199477	-0.417611
O	-0.3052228164	-1.8156278959	 2.6496339868	-0.302205
C	 0.5259623532	-2.0711744971	 1.5032096877	 0.029228
C	 0.2263780842	-3.2986146607	 0.6803541365	-0.436291
H	-0.8774930592	-1.0939833151	-1.1667276328	 0.12861
H	-2.3220423077	-0.0632418295	-1.1431018537	 0.109448
H	-0.7522666557	 0.6237447536	-0.7302429102	 0.123966
H	-2.1214378611	 0.1975716651	 1.3305328189	 0.090209
H	-3.2450149695	-1.6393222187	 0.4680635313	 0.283473
H	 1.3682965445	 0.229180839	 2.3821711957	 0.092585
H	 0.4276454979	 1.1602603412	 1.2020874546	 0.107967
H	-0.5425027554	 0.4190437584	 3.7284968605	 0.295665
H	 1.5893749197	-1.93011366	 1.7149799434	 0.07976
H	-0.8413683144	-3.3919085629	 0.4909623612	 0.156442
H	 0.7639357849	-3.2492983208	-0.2734905488	 0.112982
H	 0.5771260843	-4.1913957708	 1.2093763503	 0.122954
75.422	84.3177	173.3891	190.645	209.312	234.1905	245.0539	252.9378	292.5653	332.9348	365.0251	450.7245	466.4556	490.6967	495.9801	668.9261	690.7242	790.1625	893.636	920.9948	942.5438	1005.1646	1023.3223	1045.7527	1078.1862	1105.3854	1129.4574	1141.3869	1178.0257	1197.029	1241.7293	1260.1554	1342.6593	1374.1233	1391.6225	1405.0382	1410.9269	1428.3294	1438.5962	1470.7174	1490.5755	1497.8239	1501.3657	1505.5827	1513.7149	2989.6273	2999.8804	3033.1931	3036.2223	3067.3293	3080.4126	3091.7867	3099.2554	3120.3829	3173.9431	3786.0318	3821.6227
CC(O)C1(CO)OC1C	C[C@@H](O)[C@@]1(CO)O[C@H]1C	
InChI=1S/C6H12O3/c1-4(8)6(3-7)5(2)9-6/h4-5,7-8H,3H2,1-2H3	InChI=1S/C6H12O3/c1-4(8)6(3-7)5(2)9-6/h4-5,7-8H,3H2,1-2H3/t4-,5+,6-/m1/s1
