14
gdb 25200	2.67818	1.83618	1.14965	2.3216	75.64	-0.2581	-0.0726	0.1855	993.6474	0.104735	-429.070107	-429.06292	-429.061976	-429.102387	26.647	
N	-0.0355960074	 1.3670696289	-0.2065231268	-0.489767
C	 0.0410755548	 0.1392397616	 0.0958906194	 0.351009
N	-1.1618622086	-0.5009202253	 0.4413672085	-0.316498
C	-1.4246390776	-1.8012541127	 0.7298468785	 0.124277
N	-0.6456338046	-2.7395697931	 1.1421161437	-0.279375
C	 0.6915066491	-2.5401973494	 1.4040864698	 0.075402
N	 1.5575499463	-1.7110861356	 0.9428857352	-0.282566
C	 1.3086105742	-0.6872127229	 0.0398573454	 0.264494
N	 2.1722190951	-0.2837534854	-0.808154796	-0.47982
H	 0.8838675354	 1.6842037491	-0.5181597354	 0.254871
H	-1.9600174136	 0.0983505112	 0.2696089264	 0.273666
H	-2.4821338543	-2.0434053244	 0.6205791007	 0.139875
H	 1.0782865437	-3.2711198623	 2.115742592	 0.129765
H	 3.0118136276	-0.8623072998	-0.7284931813	 0.234668
55.3273	115.9915	299.1678	321.5187	363.4365	411.3426	458.386	548.0442	604.5701	687.5585	703.3172	790.3893	807.4376	898.2998	917.6679	943.5878	970.4778	1008.995	1025.46	1028.3358	1122.1754	1255.6092	1319.4991	1393.179	1449.711	1465.8362	1504.2435	1628.3523	1675.8022	1693.9163	1725.1639	3123.9365	3133.8473	3460.2437	3485.8771	3576.4497
N=C1NC=NC=NC1=N	[NH][C]1NC=NC=N[C]1[NH]	
InChI=1S/C4H5N5/c5-3-4(6)9-2-7-1-8-3/h1-2H,(H3,5,6,7,8,9)	InChI=1S/C4H5N5/c5-3-4(6)9-2-7-1-8-3/h1-2H,(H3,5,6,7,8,9)
