15
gdb 43748	4.68204	0.96492	0.8947	2.861	71.61	-0.2485	-0.032	0.2165	1265.4653	0.109554	-420.563527	-420.555235	-420.554291	-420.597026	30.679	
O	 0.2546832071	-0.0008943786	 0.0183134061	-0.292594
C	 0.1007417073	 1.1813592649	 0.0678240106	 0.43111
C	-1.1484850155	 2.1135732766	 0.0056373644	-0.411226
C	-0.1484277174	 3.2771493425	-0.1244036705	 0.42774
C	-0.3069316343	 4.5716786029	-0.8755846458	-0.467205
C	-1.3852668611	 5.3976714538	-0.3388772095	 0.300371
C	-2.282585881	 6.0582451434	 0.1090890138	-0.436641
O	 0.6203137188	 3.2535937803	 1.0705144495	-0.266411
C	 1.0385140609	 2.3845102384	-0.0102519344	-0.189918
H	-1.7366226182	 1.9012837476	-0.8924314139	 0.135949
H	-1.7990533021	 2.1532384921	 0.8805026867	 0.143832
H	 0.6439707758	 5.1152183637	-0.8345603472	 0.151632
H	-0.5040503406	 4.348568643	-1.9321200947	 0.144817
H	-3.0692763513	 6.6512643686	 0.5057134254	 0.205376
H	 2.0579930217	 2.4810053207	-0.3653745205	 0.123168
57.2077	84.8259	135.0134	272.2152	332.9414	347.2277	425.739	430.3807	469.0691	576.6888	630.0199	655.7882	667.6314	722.7538	771.2978	865.3655	898.9423	943.8272	971.7967	992.1266	1018.0029	1044.9095	1108.2383	1178.3112	1189.6925	1208.7513	1290.1784	1323.775	1421.0699	1450.0442	1454.4421	1903.4118	2245.2255	3026.1721	3069.5686	3070.0592	3136.9801	3194.2331	3504.9332
O=C1CC2(CC#C)OC12	O=C1C[C@@]2(CC#C)O[C@@H]12	
InChI=1S/C7H6O2/c1-2-3-7-4-5(8)6(7)9-7/h1,6H,3-4H2	InChI=1S/C7H6O2/c1-2-3-7-4-5(8)6(7)9-7/h1,6H,3-4H2/t6-,7+/m0/s1
