25
gdb 114096	2.91497	1.1062	0.94426	0.1233	92.77	-0.2537	0.0825	0.3362	1411.2778	0.229009	-352.344269	-352.334611	-352.333667	-352.378729	37.507	
C	 0.0911785095	 1.5202360678	 0.2277219254	-0.37752
C	-0.0472780097	 0.0036981902	 0.0520758137	-0.201378
C	 0.6314682797	-0.5088206289	-1.2128186715	 0.068714
C	 2.1894276886	-0.4959518216	-1.3092062645	-0.310504
C	 2.1675231869	-1.9293262017	-1.9329314516	 0.394343
C	 2.7044237679	-2.0645615414	-3.3407158644	-0.495412
C	 2.481814313	-3.0464339265	-0.9056181796	-0.275372
C	 1.0033203761	-3.0121971974	-0.4166100832	-0.231037
C	 0.6360548122	-2.0200956867	-1.5602674331	-0.102225
H	 1.144026456	 1.8187992868	 0.2787637365	 0.117996
H	-0.3631766367	 2.0583520063	-0.6118500931	 0.111598
H	-0.3959249055	 1.8630290267	 1.1459963188	 0.109169
H	 0.3741366506	-0.4996627243	 0.9312177157	 0.092717
H	-1.1114721877	-0.2674834543	 0.0261269748	 0.091343
H	 0.2187990339	 0.0354871161	-2.0718091946	 0.064305
H	 2.6180964175	 0.2835536938	-1.9448570751	 0.093549
H	 2.6922114736	-0.453985288	-0.3366229603	 0.088747
H	 3.794672812	-1.9391832272	-3.3593603248	 0.11314
H	 2.4772439326	-3.0501538337	-3.7631025612	 0.109263
H	 2.276414076	-1.3081617729	-4.0091147507	 0.110459
H	 2.7381336351	-3.9946745031	-1.388860716	 0.092156
H	 3.2567971129	-2.8217131767	-0.1656766609	 0.088431
H	 0.487433709	-3.9730510184	-0.4783921479	 0.098417
H	 0.86000477	-2.6258123306	 0.5955543988	 0.097819
H	-0.1251735436	-2.3716865644	-2.2607894111	 0.051284
57.4742	96.2503	158.0383	203.2674	236.5654	243.991	290.3497	335.2404	364.5324	395.573	478.2794	609.0356	614.4707	743.1848	764.2636	784.8667	838.7983	868.2508	885.7091	912.4683	936.4001	954.0232	959.0495	994.8545	1031.1233	1033.8417	1055.4203	1105.882	1124.5284	1156.35	1159.649	1194.0958	1220.4576	1241.1799	1245.6773	1252.6681	1272.0458	1281.7411	1293.2068	1324.3847	1336.1552	1345.6418	1393.7431	1411.6444	1412.2253	1475.1741	1479.5916	1485.7001	1491.6855	1493.6317	1499.4149	1500.1981	1506.4558	3012.6926	3014.294	3014.7992	3029.2822	3035.2223	3038.5038	3050.8026	3062.7984	3073.317	3074.7658	3081.0382	3085.1737	3092.5137	3096.165	3100.6192	3112.691
CCC1CC2(C)CCC12	CC[C@H]1C[C@@]2(C)CC[C@@H]12	
InChI=1S/C9H16/c1-3-7-6-9(2)5-4-8(7)9/h7-8H,3-6H2,1-2H3	InChI=1S/C9H16/c1-3-7-6-9(2)5-4-8(7)9/h7-8H,3-6H2,1-2H3/t7-,8-,9+/m0/s1
