23
gdb 93099	2.12747	1.65764	1.19881	1.177	86.01	-0.2387	0.0294	0.2681	1160.1693	0.205538	-388.317296	-388.307862	-388.306918	-388.350446	37.656	
C	-0.0041647194	 1.57548357	-0.0293560448	-0.420416
C	 0.0667965219	 0.0455712866	 0.0183961927	 0.029394
C	 0.658969573	-0.533809346	-1.2792663667	-0.268376
C	 0.9375518655	-2.0094529557	-1.1984953089	-0.054995
C	 0.9341897159	-2.6877759694	-0.0523739093	-0.05146
C	 0.6572481658	-2.0438753939	 1.2807701377	-0.302587
C	 0.8033465231	-0.506544053	 1.2624278219	 0.363907
C	 2.2836703428	-0.1020282667	 1.3181814425	-0.432093
O	 0.1139960857	 0.0478381761	 2.3894374344	-0.479077
H	 0.9819538908	 2.0231547146	-0.1943146277	 0.108032
H	-0.6483018879	 1.8992127665	-0.8539889083	 0.104724
H	-0.4098079999	 1.9750935035	 0.9018370416	 0.133705
H	-0.9614844918	-0.3296605724	 0.1093515892	 0.07974
H	-0.0311897007	-0.3313300841	-2.1090243321	 0.103194
H	 1.583232085	 0.0034308792	-1.5436059967	 0.104278
H	 1.1536510153	-2.5238583279	-2.1321033758	 0.082138
H	 1.1309878461	-3.7572935746	-0.0531900662	 0.082228
H	-0.3639007216	-2.2791229953	 1.6110056683	 0.113659
H	 1.3234310316	-2.467081774	 2.0462042031	 0.085205
H	 2.8529856858	-0.5318883068	 0.489404079	 0.126116
H	 2.3970576443	 0.9843807925	 1.3004557618	 0.122379
H	 2.7347239203	-0.4707720995	 2.2476090414	 0.099124
H	 0.5621677486	-0.2557650696	 3.1859517331	 0.271182
127.1759	147.1196	226.9088	243.5593	266.3629	274.4151	290.1709	345.7754	386.7808	398.6538	445.3456	471.6421	500.2346	535.0921	673.5891	700.0736	780.4281	875.939	903.947	923.2666	930.6988	964.0764	972.5453	1003.2335	1019.0238	1046.061	1093.2979	1107.5692	1128.7115	1140.2363	1196.1694	1205.5361	1226.9766	1254.7608	1324.6105	1334.7936	1364.8833	1376.7197	1395.1816	1404.9226	1411.228	1414.6373	1472.8777	1476.6761	1492.9759	1501.4852	1504.1024	1511.9471	1726.6908	2987.1347	3001.6412	3012.4192	3029.6012	3031.8734	3033.2718	3037.2771	3092.5427	3098.6964	3131.0309	3135.0575	3140.3017	3164.2952	3806.4772
CC1CC=CCC1(C)O	C[C@H]1CC=CC[C@]1(C)O	
InChI=1S/C8H14O/c1-7-5-3-4-6-8(7,2)9/h3-4,7,9H,5-6H2,1-2H3	InChI=1S/C8H14O/c1-7-5-3-4-6-8(7,2)9/h3-4,7,9H,5-6H2,1-2H3/t7-,8-/m0/s1
