18
gdb 65002	1.91673	1.67512	1.05102	3.7249	81.15	-0.2838	0.0115	0.2953	1178.0105	0.145299	-364.777142	-364.767676	-364.766732	-364.811357	35.173	
C	-0.1731854676	 1.4751921507	 0.422307131	-0.465875
C	 0.0370708572	 0.0300483718	 0.0148504569	 0.345378
C	 1.3924786602	-0.3933103153	-0.485851716	-0.292026
C	 0.9178109689	-0.8366488182	 0.8794529852	-0.32155
C	-1.2248270798	-0.5930153242	-0.6268503007	-0.383936
C	-1.6164664102	 0.0939947374	-1.8628284893	 0.349336
C	-1.9333510474	 0.6724646567	-2.8656002879	-0.438223
C	-1.0803536126	-2.0359366545	-0.881406139	 0.293093
N	-0.9619892599	-3.1703062172	-1.0641005834	-0.334814
H	 0.7389625546	 1.881500291	 0.8674120226	 0.121871
H	-0.4366998475	 2.0970809774	-0.4386642119	 0.136711
H	-0.9754338535	 1.5668636343	 1.1644997022	 0.117953
H	 1.4437810686	-1.1476910537	-1.2633340635	 0.136942
H	 2.1635111996	 0.3665015552	-0.5488137032	 0.115944
H	 1.3563304425	-0.3739181856	 1.7568448926	 0.115017
H	 0.6656289534	-1.8835622608	 1.0043633473	 0.139896
H	-2.0466197691	-0.4898943432	 0.0978525269	 0.154513
H	-2.2163561075	 1.1768557483	-3.7567190297	 0.20977
55.4045	132.5656	153.3894	157.5549	220.2595	319.0527	323.2885	344.0747	363.2665	383.6286	499.8053	538.2811	582.0426	643.2716	666.0097	744.6737	786.9103	864.2518	887.5652	953.2725	956.4394	990.2788	1020.819	1054.2256	1074.1167	1091.109	1126.7307	1188.8785	1245.7774	1292.0107	1308.3763	1357.3818	1418.2354	1467.83	1488.9134	1499.1661	1510.7554	2245.3613	2363.1827	2998.701	3029.0507	3094.5398	3116.6568	3136.1303	3138.7815	3216.5379	3228.9463	3501.5727
CC1(CC1)C(C#C)C#N	CC1(CC1)[C@@H](C#C)C#N	
InChI=1S/C8H9N/c1-3-7(6-9)8(2)4-5-8/h1,7H,4-5H2,2H3	InChI=1S/C8H9N/c1-3-7(6-9)8(2)4-5-8/h1,7H,4-5H2,2H3/t7-/m0/s1
