20
gdb 6900	2.82729	1.52779	1.34517	1.1117	72.07	-0.232	0.0803	0.3123	1053.2371	0.173669	-386.115138	-386.105321	-386.104377	-386.149041	35.596	
C	 0.0248173623	 1.2056727529	-0.3802797541	-0.2322
O	-0.0974963782	 0.0733532729	 0.4596858345	-0.240295
C	-1.310518754	-0.5927809191	 0.2990011524	 0.035932
C	-1.4388028956	-1.7090938153	-0.736629018	-0.082438
C	-0.3098223808	-2.0493302945	-1.6845519091	-0.419088
C	-1.3813885132	-2.0306544685	 0.7390602848	 0.329219
C	-0.1855450716	-2.7033008808	 1.3711864889	-0.449326
O	-2.6231995978	-2.4603640008	 1.2457063671	-0.465175
H	 0.9995277991	 1.6550841908	-0.1755393955	 0.125698
H	-0.0321071033	 0.9344688421	-1.4433299245	 0.112282
H	-0.7604203538	 1.9472167365	-0.1694309686	 0.107484
H	-2.1942592191	 0.0212552282	 0.4812511067	 0.082233
H	-2.4380004118	-1.8153900519	-1.1501469447	 0.094218
H	 0.6567945996	-1.7295606157	-1.287972039	 0.128752
H	-0.258520895	-3.1271162228	-1.8734816536	 0.119354
H	-0.4523439469	-1.5524124938	-2.650118177	 0.114994
H	 0.7535488285	-2.2990543908	 0.9913136446	 0.134998
H	-0.1935256336	-2.5418741771	 2.4563364473	 0.106288
H	-0.2131299387	-3.7826323536	 1.1910546564	 0.121205
H	-2.6609528162	-2.2114434487	 2.1766725514	 0.275867
107.0705	144.061	166.0037	173.6078	176.8251	220.365	246.7166	279.8524	316.2074	347.4511	410.6061	463.2233	517.9679	604.0828	716.4037	796.6007	879.4967	951.6327	987.4064	1016.5201	1033.2123	1077.1625	1093.4995	1126.0507	1159.0621	1166.3353	1182.712	1220.9499	1252.7438	1290.9433	1340.2774	1352.5762	1408.1494	1417.5052	1448.6467	1482.5749	1483.9759	1485.3133	1493.3879	1502.2442	1510.372	1516.3162	2986.7068	3028.5194	3033.8864	3041.4863	3085.5512	3088.3606	3090.184	3116.4989	3116.8807	3144.1255	3151.1489	3782.3058
COC1C(C)C1(C)O	CO[C@H]1[C@@H](C)[C@]1(C)O	
InChI=1S/C6H12O2/c1-4-5(8-3)6(4,2)7/h4-5,7H,1-3H3	InChI=1S/C6H12O2/c1-4-5(8-3)6(4,2)7/h4-5,7H,1-3H3/t4-,5+,6+/m1/s1
