18
gdb 17797	5.43664	1.27011	1.11102	2.5512	67.46	-0.2428	0.0771	0.3198	1075.0813	0.154595	-384.892405	-384.884719	-384.883775	-384.925781	27.107	
C	-0.0152405379	 1.3533129498	-0.1639924456	-0.060439
C	 1.4818076987	 1.5146714192	 0.1666855121	-0.306115
C	 1.3574686887	 0.0856808102	 0.7462491964	 0.154605
O	-0.0166736033	-0.0141426359	 0.2980641387	-0.297334
C	 2.2266186869	-1.0066479506	 0.1649434849	-0.042578
C	 3.631305635	-1.1338250176	 0.7984907019	-0.089665
O	 3.2726211808	-2.3632517738	 1.4579684675	-0.271955
C	 2.0021808332	-2.4096768225	 0.7720381656	-0.085171
H	-0.6918197094	 1.983448697	 0.4271005085	 0.103268
H	-0.2955370931	 1.4288051296	-1.22090335	 0.105857
H	 2.1359134946	 1.5881407272	-0.7049835143	 0.109794
H	 1.7384006821	 2.3022402121	 0.8760431144	 0.113216
H	 1.408335221	 0.0496668618	 1.8450409412	 0.078733
H	 2.2015052423	-0.9628584289	-0.9265238639	 0.076094
H	 4.4507678766	-1.2738214018	 0.0815434978	 0.098222
H	 3.9167765919	-0.3500731266	 1.5124302193	 0.099959
H	 1.1585854711	-2.5068819216	 1.4652220564	 0.113986
H	 1.9611616907	-3.2278879876	 0.0421304692	 0.099523
63.5261	69.5775	82.5178	177.8273	321.3822	351.8429	454.2538	736.1797	806.6058	831.6678	859.4973	881.4495	939.2475	953.8124	966.9769	1003.1627	1027.2515	1040.3196	1056.7995	1064.9986	1107.7202	1156.0517	1162.3964	1165.2619	1207.7076	1230.6364	1246.7639	1259.1051	1291.6873	1310.0488	1313.3698	1360.7136	1380.4932	1419.1059	1489.8096	1513.7359	1532.1109	1539.6574	2986.929	3003.359	3016.5033	3018.7075	3044.0489	3057.8965	3062.6443	3076.3988	3083.538	3134.1453
C1CC(O1)C1COC1	C1C[C@@H](O1)C1COC1	
InChI=1S/C6H10O2/c1-2-8-6(1)5-3-7-4-5/h5-6H,1-4H2	InChI=1S/C6H10O2/c1-2-8-6(1)5-3-7-4-5/h5-6H,1-4H2/t6-/m1/s1
