17
gdb 24442	3.4218	1.59843	1.13119	1.2247	74.27	-0.1961	0.024	0.2201	1043.3109	0.139295	-421.86183	-421.855018	-421.854074	-421.892976	27.347	
C	-0.0133446902	 1.4979049592	-0.0121555348	-0.221876
C	 1.4148131186	 2.0568367004	 0.0417857253	-0.080529
O	 2.1090825371	 1.7122736489	 1.2475680778	-0.27797
C	 1.9487309877	 0.4000699682	 1.5615288367	 0.292635
C	 1.0179025429	-0.4283807327	 1.0150621759	 0.230614
C	-0.0202594003	-0.0488953042	 0.0239680988	-0.340678
O	 1.1401567023	-1.6752264512	 1.5617566137	-0.194045
C	 2.1596750755	-1.6112142581	 2.4600637986	-0.004604
C	 2.6999958487	-0.3636561165	 2.5100335001	-0.326929
H	-0.5742620328	 1.8874413013	 0.8444522464	 0.119761
H	-0.5017119019	 1.8673080373	-0.9192849872	 0.105619
H	 1.994363307	 1.6841556269	-0.8161064058	 0.10387
H	 1.4103350665	 3.1488448038	 0.0084938356	 0.114168
H	-1.0109398409	-0.4190190066	 0.3131051922	 0.118401
H	 0.1890792669	-0.4626959538	-0.9724009381	 0.113014
H	 2.3829896452	-2.5286098864	 2.9788222832	 0.13248
H	 3.5175068779	-0.0288801864	 3.1274793316	 0.116068
122.5986	206.974	297.6444	361.4327	391.0728	456.4172	517.0093	609.6397	679.8439	688.9864	709.6377	734.4188	810.8417	863.8376	883.3515	902.6647	926.4104	998.0706	1054.3274	1070.7189	1094.3542	1153.2559	1170.6568	1202.6501	1224.0215	1267.5753	1297.1473	1300.7728	1352.6785	1367.1444	1408.7692	1470.542	1476.7043	1499.8053	1505.597	1537.0377	1680.035	2997.5905	3004.1668	3043.4712	3055.7171	3094.4678	3103.5791	3263.0429	3286.5676
C1COC2=C(C1)OC=C2	C1COc2c(C1)occ2	
InChI=1S/C7H8O2/c1-2-6-7(8-4-1)3-5-9-6/h3,5H,1-2,4H2	InChI=1S/C7H8O2/c1-2-6-7(8-4-1)3-5-9-6/h3,5H,1-2,4H2
