18
gdb 83138	2.09316	1.75177	1.38142	2.1217	72.36	-0.2151	-0.0261	0.189	1029.007	0.14724	-439.081156	-439.072455	-439.071511	-439.114384	32.791	
C	 0.0851853902	 1.6220977427	-0.1351405534	-0.428499
C	 0.0887986681	 0.1154200861	 0.0094824548	-0.067886
C	 1.2812410387	-0.7709144057	-0.1991578024	-0.110797
N	 2.5864916142	-0.1147560622	-0.1793906642	-0.305421
C	 2.8248862647	 0.3997426241	 1.1835074897	-0.297061
C	 1.6754540233	-0.104396115	 2.0562248608	 0.328637
O	 1.64745065	-0.159328734	 3.2666080291	-0.351841
C	 0.6276595081	-0.6930515253	 1.1870415412	 0.294654
O	-0.1839850585	-1.6430504784	 1.7854382232	-0.474893
H	 1.06906022	 2.0619074637	 0.0378583861	 0.13342
H	-0.2100573062	 1.8968507049	-1.1533893835	 0.12586
H	-0.6273158827	 2.0839375457	 0.5557347023	 0.127093
H	-0.830978816	-0.3633526705	-0.3217978016	 0.112232
H	 1.1980172123	-1.6484777123	-0.8297534084	 0.10852
H	 3.2979775196	-0.7967302695	-0.4095154789	 0.232916
H	 3.7710721164	 0.0406554378	 1.5982673205	 0.139247
H	 2.8609183077	 1.496719441	 1.2122301861	 0.139651
H	 0.0087956802	-1.5779750331	 2.7336165684	 0.294169
89.987	111.1115	180.6911	201.3487	251.8173	283.7809	350.5588	383.5392	466.0842	550.7959	571.6458	611.6682	640.2774	694.6363	772.532	802.6237	890.1008	914.083	964.2909	1000.709	1012.8297	1038.95	1093.2941	1109.713	1121.361	1153.3152	1201.3425	1227.2152	1280.8066	1330.1117	1361.0595	1404.6036	1417.4062	1421.8892	1469.4406	1480.4555	1490.9136	1507.8319	1806.8484	3024.5638	3041.5434	3088.6566	3097.9097	3126.0625	3141.4589	3182.9349	3556.5849	3709.6345
CC1C2NCC(=O)C12O	C[C@H]1[C@H]2NCC(=O)[C@@]12O	
InChI=1S/C6H9NO2/c1-3-5-6(3,9)4(8)2-7-5/h3,5,7,9H,2H2,1H3	InChI=1S/C6H9NO2/c1-3-5-6(3,9)4(8)2-7-5/h3,5,7,9H,2H2,1H3/t3-,5+,6-/m0/s1
