22
gdb 53666	4.5229	0.573	0.54938	1.3365	92.56	-0.2233	0.0607	0.284	2098.1383	0.19194	-367.159229	-367.148325	-367.14738	-367.197508	38.001	
C	 0.0667797133	 1.5223619885	 0.1731746969	-0.497011
C	 0.0059696481	 0.0788066821	-0.0089520523	 0.106373
C	-0.0323727829	-1.1147248851	-0.1647170478	 0.026156
C	-0.1158126828	-2.5605697636	-0.3378617098	-0.354308
C	-1.411957808	-3.1649922428	 0.2482228817	-0.208476
C	-1.4571802156	-4.673467709	 0.1177821449	 0.026253
C	-2.7518867906	-5.413239863	 0.1024642137	-0.268932
N	-1.9058128704	-5.3854024898	-1.0843745962	-0.078305
C	-2.3940439653	-4.6469387937	-2.2386819653	-0.31459
H	 1.0522098669	 1.8380855929	 0.5337427852	 0.146143
H	-0.1261427791	 2.0526198009	-0.7661698506	 0.145398
H	-0.6757835805	 1.8641760134	 0.9029179914	 0.145319
H	-0.0476746003	-2.8112796043	-1.4041920252	 0.130455
H	 0.7494910065	-3.0426049581	 0.1370714494	 0.125744
H	-1.4717328561	-2.9044812987	 1.3115894147	 0.112584
H	-2.2781766647	-2.6973397331	-0.2280747839	 0.10905
H	-0.6068698192	-5.1687311288	 0.5888951521	 0.086175
H	-2.8571600413	-6.3748387703	 0.5989062271	 0.1119
H	-3.6592339514	-4.8082538283	 0.092707089	 0.102396
H	-2.9928391351	-3.7539624188	-2.0001394659	 0.10142
H	-1.5472221564	-4.3371368254	-2.8601029688	 0.122061
H	-3.0215368952	-5.3156559753	-2.8369263802	 0.124195
18.2433	43.6257	77.7291	90.6633	167.594	214.7052	222.4432	276.257	306.724	340.7917	386.4463	413.5381	495.6852	522.2074	732.2386	744.0108	789.7093	815.6101	915.9326	1005.4525	1025.0213	1041.9526	1053.4627	1055.0451	1083.73	1115.5413	1132.9668	1143.8525	1168.6749	1170.8407	1202.6516	1223.0141	1279.5254	1311.3893	1340.896	1368.519	1415.4269	1425.0897	1447.8024	1472.1802	1479.2298	1479.8116	1482.8806	1492.4957	1506.6879	1514.6907	2373.6932	2978.2909	3014.0275	3024.9159	3038.7894	3048.397	3063.4639	3079.1754	3084.027	3084.481	3084.5912	3097.0603	3101.5064	3166.6206
CC#CCCC1CN1C	CC#CCC[C@H]1CN1C	
InChI=1S/C8H13N/c1-3-4-5-6-8-7-9(8)2/h8H,5-7H2,1-2H3	InChI=1S/C8H13N/c1-3-4-5-6-8-7-9(8)2/h8H,5-7H2,1-2H3/t8-,9?/m0/s1
