17
gdb 68171	3.62794	1.4558	1.24537	4.7016	67.86	-0.247	0.0009	0.248	1017.9329	0.136446	-458.9861	-458.978526	-458.977582	-459.017937	29.356	
C	-0.0085167069	 1.5543626161	 0.0163378334	-0.477548
C	 0.0056445205	 0.0480477874	-0.0654906409	 0.365957
C	 0.7347207675	-0.6835085721	-1.218688333	-0.300117
C	 1.0899959792	-1.6529768401	-0.0754746975	-0.059387
O	 0.9196142828	-0.5831558703	 0.891565552	-0.317547
C	-0.055379852	-2.638700829	 0.1042085176	 0.454358
O	 0.0449902134	-3.8320227667	 0.1284502178	-0.332446
O	-1.2711982458	-2.0393566903	 0.2071699889	-0.246245
C	-1.3532844978	-0.5991840365	 0.1836641659	-0.088674
H	 1.0040624029	 1.9454693719	-0.1094044548	 0.136181
H	-0.6468430879	 1.9783041853	-0.7657797991	 0.129297
H	-0.3874365251	 1.8869703538	 0.9881223808	 0.136987
H	 0.1505161904	-1.0546992228	-2.063124582	 0.121464
H	 1.6070431262	-0.1263657064	-1.5633914048	 0.120166
H	 2.0584587506	-2.1484264896	-0.0224218285	 0.110079
H	-1.7444587463	-0.2811393071	 1.1557650275	 0.127487
H	-2.0754269316	-0.3311515335	-0.5953364934	 0.119989
125.0831	176.4385	203.7246	264.3284	334.2167	384.4899	430.8719	453.71	496.5953	652.6764	687.1538	748.2695	789.625	839.788	907.9985	912.4348	934.3891	974.9763	989.5652	1031.8066	1057.1536	1080.7705	1148.1118	1207.2492	1230.7207	1245.2993	1252.7303	1289.2257	1305.2223	1319.6934	1410.2955	1422.7859	1478.2297	1487.4838	1494.9378	1499.6549	1867.2304	3037.463	3042.8999	3075.785	3088.2799	3110.7122	3125.7679	3134.7209	3142.1446
CC12CC(O1)C(=O)OC2	C[C@@]12C[C@@H](O1)C(=O)OC2	
InChI=1S/C6H8O3/c1-6-2-4(9-6)5(7)8-3-6/h4H,2-3H2,1H3	InChI=1S/C6H8O3/c1-6-2-4(9-6)5(7)8-3-6/h4H,2-3H2,1H3/t4-,6+/m1/s1
