18
gdb 111402	2.50111	1.55567	1.08366	5.206	73.59	-0.2467	0.0107	0.2574	1114.6936	0.148365	-439.068032	-439.059985	-439.059041	-439.100765	30.663	
O	-0.0423464412	 1.4842318288	-0.0210131567	-0.427512
C	 0.0473163798	 0.0833709993	-0.0660725363	-0.074817
C	-1.3248671639	-0.5837584842	-0.0647743879	 0.003928
C	-1.4640690866	-2.1181703002	-0.1150844092	-0.110057
C	-0.974157093	-2.7787460625	 1.1530858179	-0.293686
C	-2.2912561151	-2.0554305745	 1.1627423378	-0.01903
N	-2.074288353	-0.6185788912	 1.2236832973	-0.055042
C	-2.1399534714	 0.2472995351	 2.2499624413	 0.143898
O	-1.6852172714	 1.3830935945	 2.2537641481	-0.354167
H	-0.543750284	 1.7032072102	 0.785801084	 0.303244
H	 0.5449335114	-0.1817301884	-1.0073682365	 0.109344
H	 0.6624715687	-0.3249096734	 0.7520966794	 0.083586
H	-1.944473322	-0.1037364676	-0.8305510374	 0.111389
H	-1.6704592182	-2.6791615926	-1.015162605	 0.111802
H	-1.0449117443	-3.8619737185	 1.1460002505	 0.127494
H	-0.1339194765	-2.382463092	 1.7137133513	 0.128468
H	-3.2496954393	-2.4963199757	 1.4061760735	 0.12021
H	-2.69414712	-0.1691253271	 3.112355298	 0.090947
84.8527	155.6043	186.3605	223.8945	273.6244	304.9944	416.2408	463.859	514.9629	583.9698	676.5346	736.0357	767.8505	795.9601	838.0829	929.2655	987.9038	993.8257	1002.6051	1028.9206	1060.5269	1078.04	1082.1408	1107.2634	1125.1432	1164.5132	1194.4802	1230.9811	1264.6812	1293.2869	1328.2035	1360.2886	1402.9755	1409.3202	1449.1458	1478.9569	1491.3247	1496.857	1753.0546	2958.6433	2973.2975	3046.456	3057.7578	3127.287	3193.1247	3213.3935	3223.068	3594.9566
OCC1C2CC2N1C=O	OC[C@H]1[C@H]2C[C@H]2N1C=O	
InChI=1S/C6H9NO2/c8-2-6-4-1-5(4)7(6)3-9/h3-6,8H,1-2H2	InChI=1S/C6H9NO2/c8-2-6-4-1-5(4)7(6)3-9/h3-6,8H,1-2H2/t4-,5+,6-/m0/s1
