16
gdb 24193	4.10924	1.60249	1.39798	2.0868	73.94	-0.2079	0.0069	0.2148	923.8065	0.128081	-400.718886	-400.712773	-400.711828	-400.749985	24.749	
C	-0.0357219337	 1.5747745975	-0.0630857833	-0.20371
C	 1.5317911416	 1.3675125189	-0.0076711079	-0.181698
C	 1.1906869039	 0.1671761992	 0.9649266065	-0.203709
C	-0.0536237786	-0.0028224384	 0.0073809371	-0.155483
C	 0.6797306306	-0.3163426046	-1.2968855646	 0.259373
C	 1.6912949072	 0.570779365	-1.2888403252	 0.331474
O	 2.4402132222	 0.4108217526	-2.4016615537	-0.211209
C	 1.7926523765	-0.6240816405	-3.0457284341	 0.003225
N	 0.7419348219	-1.0935858003	-2.43595506	-0.36488
H	-0.4263303287	 2.0468234416	 0.8440408922	 0.100409
H	-0.4496024534	 2.0457340562	-0.9572495866	 0.10601
H	 2.2245069391	 2.1631982857	 0.2554256561	 0.085346
H	 1.9052601902	-0.65704133	 1.0166731036	 0.106006
H	 0.9140046532	 0.5084849391	 1.9675430591	 0.100423
H	-0.9393765491	-0.5627111309	 0.2974346868	 0.083129
H	 2.221557177	-0.9355990111	-3.9838557061	 0.145293
43.712	308.8448	403.5961	477.1477	501.4135	636.1796	659.0767	692.3418	744.522	763.6274	789.5245	827.8708	853.4647	891.0847	934.0457	995.1815	997.9293	1018.4044	1043.5008	1070.2395	1082.8032	1096.4801	1152.5119	1212.1804	1213.1983	1226.7738	1241.9482	1248.2864	1289.7349	1364.498	1416.8476	1477.5202	1487.3927	1513.241	1612.2486	3043.9179	3054.694	3120.4456	3125.0448	3150.0863	3150.6011	3288.9059
C1C2CC1C1=C2OC=N1	C1[C@H]2C[C@@H]1c1c2ocn1	
InChI=1S/C7H7NO/c1-4-2-5(1)7-6(4)8-3-9-7/h3-5H,1-2H2	InChI=1S/C7H7NO/c1-4-2-5(1)7-6(4)8-3-9-7/h3-5H,1-2H2/t4-,5+
