21
gdb 15428	4.72962	0.84877	0.79918	2.2604	75.7	-0.2459	0.072	0.3178	1506.6099	0.188493	-366.237867	-366.228355	-366.227411	-366.273033	34.048	
C	-0.3566012124	 1.4707820797	-0.0213646103	-0.382918
C	-0.2067616536	-0.0416535228	-0.2009076345	-0.1592
C	 1.0288287697	-0.4290144165	-1.0252137763	-0.180298
C	 1.1501689428	-1.9268338041	-1.1970074098	-0.01436
N	 0.3521909549	-2.5538408204	-2.2686414147	-0.351337
C	 1.8289441802	-2.6215081601	-2.3248201837	-0.046622
C	 2.4407296554	-1.9423141718	-3.5286996079	-0.064575
O	 2.1085845743	-2.6383615633	-4.7190956846	-0.42312
H	 0.5106061694	 1.8978645631	 0.4948284905	 0.112748
H	-0.4456312496	 1.9765303167	-0.9892631425	 0.116278
H	-1.2470877579	 1.716891333	 0.5653744313	 0.111934
H	-0.1522349214	-0.5253782528	 0.7836995952	 0.090037
H	-1.0973981831	-0.4487667324	-0.6947971816	 0.109058
H	 0.9704088704	 0.052647464	-2.0062266993	 0.104539
H	 1.9354142683	-0.047568322	-0.5354551299	 0.094027
H	 1.1833343612	-2.4669437966	-0.2495401217	 0.080699
H	-0.0337111881	-3.4408150465	-1.9584516995	 0.232322
H	 2.279300586	-3.5858518136	-2.0931601413	 0.086965
H	 2.1213449533	-0.8925932895	-3.5825518309	 0.08974
H	 3.533601375	-1.9541533443	-3.4568691967	 0.106158
H	 1.1455386352	-2.6987114099	-4.7218840921	 0.287925
51.8447	77.061	93.2486	121.7965	207.5354	244.3696	285.144	321.53	438.1028	454.6543	481.519	572.9511	742.358	794.9127	843.9509	870.7703	903.7298	923.2311	971.72	990.6653	1026.673	1056.2199	1067.0607	1084.7437	1125.8081	1160.6471	1185.6771	1234.8273	1268.1291	1272.1118	1283.364	1304.2131	1329.3838	1362.0342	1384.7001	1406.1023	1411.6431	1442.7358	1472.5873	1482.1448	1492.4661	1499.6762	1501.1915	1509.5399	3009.739	3015.1268	3019.4778	3029.0733	3053.5069	3071.7329	3078.38	3092.7884	3098.3406	3101.874	3118.8944	3510.0313	3785.1619
CCCC1NC1CO	CCC[C@H]1N[C@H]1CO	
InChI=1S/C6H13NO/c1-2-3-5-6(4-8)7-5/h5-8H,2-4H2,1H3	InChI=1S/C6H13NO/c1-2-3-5-6(4-8)7-5/h5-8H,2-4H2,1H3/t5-,6+/m1/s1
