19
gdb 124942	2.88304	1.24112	0.92621	3.2722	79.2	-0.2252	0.0238	0.249	1283.9236	0.159356	-419.239314	-419.229509	-419.228565	-419.274541	34.781	
C	 0.1240368999	 1.4815860722	 0.1148864524	-0.504288
C	 0.0813731192	-0.002621099	-0.0461679416	 0.29541
C	 0.0382492246	-0.8091127282	-1.169833369	 0.069716
C	 0.0372257711	-0.4000568135	-2.6115966331	-0.525403
C	-0.0076772309	-2.1339034208	-0.6556450372	 0.233912
C	-0.0360321227	-3.4183562152	-1.4258878749	-0.167382
O	 1.0972763614	-3.574414116	-2.2816908625	-0.414593
N	 0.0138195263	-2.1494364998	 0.6759239672	-0.294967
N	 0.0597283765	-0.8492928158	 1.0205712509	-0.261813
H	 0.7912326654	 1.7799751829	 0.9309271591	 0.128811
H	 0.4886038049	 1.953070373	-0.8009377887	 0.143183
H	-0.8665059622	 1.9017547885	 0.3274755231	 0.14004
H	 0.4984762206	 0.5824500606	-2.7543987441	 0.115338
H	 0.5916509754	-1.1276625356	-3.209900402	 0.149917
H	-0.9780869962	-0.3418968744	-3.0241324355	 0.12479
H	-0.1279285254	-4.2514304855	-0.7157974671	 0.108126
H	-0.9012842739	-3.4542511658	-2.0967231153	 0.111276
H	 1.8802281533	-3.4889187347	-1.7274276152	 0.282196
H	 0.0925526927	-0.6037018729	 1.9957120835	 0.265731
58.8318	77.9475	119.9567	122.1902	207.9949	251.6669	262.3504	290.6377	366.6699	420.0765	467.3804	495.7192	601.7177	674.8609	694.7824	727.4593	800.7518	958.8976	968.5013	999.6573	1044.9145	1054.7649	1069.6921	1128.1821	1177.1675	1208.7305	1235.9989	1298.7423	1358.7301	1410.6517	1415.4539	1424.1496	1439.0864	1479.4925	1482.7406	1486.3653	1493.6044	1499.4887	1507.5832	1526.2915	1629.7758	3015.6679	3022.4031	3027.4874	3069.6684	3078.1048	3079.9438	3118.9143	3120.0831	3666.5424	3810.5704
CC1=C(C)C(CO)=NN1	Cc1c(C)c(CO)n[nH]1	
InChI=1S/C6H10N2O/c1-4-5(2)7-8-6(4)3-9/h9H,3H2,1-2H3,(H,7,8)	InChI=1S/C6H10N2O/c1-4-5(2)7-8-6(4)3-9/h9H,3H2,1-2H3,(H,7,8)
