21
gdb 73272	2.49403	1.63715	1.30479	0.9734	77.3	-0.2402	0.0746	0.3147	1071.0806	0.18419	-424.21801	-424.209897	-424.208953	-424.25048	32.085	
C	-0.0658500899	 1.5156728934	 0.0389716149	-0.440448
C	 0.0265410851	-0.0071057666	 0.0173605419	 0.427002
C	-1.2995850155	-0.646391732	-0.3809329178	-0.25171
C	-1.3876109248	-2.1067748225	 0.0534289876	-0.095311
O	-1.101998037	-2.2217285564	 1.4384029899	-0.240694
C	 0.2713365391	-2.002842449	 1.6901691118	-0.099027
C	 0.7743795771	-0.610371404	 1.2478452909	-0.112797
C	 1.9747144387	-0.6568897874	 0.2823566946	-0.094855
O	 1.1204388668	-0.4296504113	-0.8559544791	-0.325483
H	 0.9028845644	 1.9657623873	 0.2752478896	 0.116276
H	-0.3832097027	 1.8868620079	-0.941029472	 0.122593
H	-0.7924151181	 1.8514588459	 0.7863678215	 0.116615
H	-2.1180042763	-0.0929479381	 0.0930513169	 0.102784
H	-1.4199096897	-0.5518432791	-1.4668659878	 0.107485
H	-2.3976812978	-2.499388952	-0.0925784575	 0.104156
H	-0.6893753581	-2.7271201627	-0.5312220753	 0.097131
H	 0.406881471	-2.1354410749	 2.7671128736	 0.107261
H	 0.8610612744	-2.7843219872	 1.1820208647	 0.087906
H	 0.86395334	 0.0663234185	 2.1000402729	 0.074395
H	 2.7043755543	 0.1529141275	 0.4169052569	 0.095565
H	 2.5118390589	-1.6098030971	 0.2098472717	 0.101158
92.6709	130.4329	236.8762	272.287	327.9799	361.832	372.6294	411.0702	478.668	497.0198	617.0404	652.9759	782.8959	842.6049	877.8265	890.1752	927.356	954.7691	989.5832	1006.5696	1013.1802	1022.3758	1077.4656	1114.1421	1127.8683	1149.3701	1169.3823	1183.0438	1243.3896	1257.0823	1262.0315	1283.2414	1338.0816	1339.6051	1358.1083	1388.9685	1393.6097	1405.8439	1424.8669	1455.6994	1487.6028	1488.8115	1493.548	1504.4025	1525.9582	2958.7317	2980.7785	3005.412	3030.4866	3035.9543	3055.4492	3074.6143	3078.6475	3089.2478	3093.7745	3105.4108	3110.6785
CC12CCOCC1CO2	C[C@]12CCOC[C@H]1CO2	
InChI=1S/C7H12O2/c1-7-2-3-8-4-6(7)5-9-7/h6H,2-5H2,1H3	InChI=1S/C7H12O2/c1-7-2-3-8-4-6(7)5-9-7/h6H,2-5H2,1H3/t6-,7-/m0/s1
