18
gdb 74594	3.51014	1.73105	1.38569	1.4416	80.25	-0.2199	0.0191	0.239	962.3338	0.149499	-364.756114	-364.749351	-364.748407	-364.78689	28.31	
C	-0.0149580087	 1.5372070062	 0.0534269118	-0.495999
C	 0.0176563347	 0.0391412902	-0.0378542799	 0.359958
C	-0.0444065117	-0.6667497374	-1.1749682756	-0.208819
C	-0.0333211831	-2.1252394991	-1.0667103627	-0.067051
C	 0.8022118382	-2.8630561889	-0.007122842	-0.128507
C	-0.6895391575	-2.8212245076	 0.1226084296	-0.036573
N	-0.6366919253	-2.0535417825	 1.4130936681	-0.17511
C	 0.848535214	-2.0467352109	 1.2833432373	-0.059773
C	 0.1134786736	-0.7446477877	 1.2018500576	-0.131367
H	 0.8796901124	 1.9312230695	 0.5521506719	 0.124703
H	-0.0731381236	 1.9899251403	-0.9402567686	 0.121888
H	-0.8781612247	 1.8840689346	 0.6353750946	 0.12919
H	-0.1272764215	-0.1974036364	-2.1495817207	 0.088299
H	-0.1255065043	-2.6969734879	-1.984822299	 0.089767
H	 1.4738642261	-3.6715941486	-0.2602457883	 0.096229
H	-1.4604386724	-3.5711648527	 0.0077319574	 0.105063
H	 1.4900175532	-2.290276659	 2.1238988188	 0.097755
H	 0.0993934106	-0.1805196622	 2.1307177697	 0.090346
157.1524	175.7692	307.4129	384.4383	461.5631	481.3398	568.6202	648.97	664.5992	723.143	741.0901	768.1284	814.141	828.1556	863.4057	908.4084	913.0814	954.0495	962.0854	1014.9612	1033.214	1046.1855	1053.1534	1064.9374	1071.2343	1086.7948	1140.6627	1184.538	1215.867	1246.5002	1283.809	1308.4359	1346.3896	1394.664	1414.6405	1449.0893	1479.3628	1494.7607	1713.5072	3016.2945	3063.3416	3109.6223	3145.6781	3161.6207	3163.3361	3182.2055	3199.4208	3212.8485
CC1=CC2C3C2N2C3C12	CC1=C[C@H]2[C@@H]3[C@H]2N2[C@@H]3[C@@H]12	
InChI=1S/C8H9N/c1-3-2-4-5-7(4)9-6(3)8(5)9/h2,4-8H,1H3	InChI=1S/C8H9N/c1-3-2-4-5-7(4)9-6(3)8(5)9/h2,4-8H,1H3/t4-,5+,6+,7-,8-,9?/m0/s1
