14
gdb 42966	3.44477	1.42877	1.08742	4.7883	76.97	-0.2582	-0.0828	0.1754	1047.723	0.102902	-395.729045	-395.721993	-395.721048	-395.760706	26.79	
N	-0.0973674499	 1.2799586147	-0.002865695	-0.498684
C	 0.0098218234	 0.0209933725	 0.0236828497	 0.256621
N	-1.1434742662	-0.836327243	 0.0787665871	-0.093297
C	-1.3649768766	-1.6070886118	-1.1550678116	-0.233835
C	-0.6442057664	-2.2203863716	 0.0067414122	-0.076312
C	 0.8337795015	-2.152793468	-0.0084230333	-0.19547
C	 1.2190360831	-0.862905684	 0.0032991527	 0.156421
C	 2.5389872092	-0.34755327	-0.0631159513	 0.214128
N	 3.5941136583	 0.1273459183	-0.1120788849	-0.331946
H	 0.8220985278	 1.721883351	-0.0550757239	 0.241034
H	-2.3997071683	-1.8784367291	-1.3397365856	 0.145102
H	-0.7805853951	-1.3456560642	-2.0330005591	 0.141188
H	-1.143493943	-2.965252735	 0.6188808839	 0.12716
H	 1.4857117221	-3.0164391097	-0.012255221	 0.14789
112.7568	140.2238	206.6901	332.7795	403.8624	443.6212	526.811	562.4545	581.7692	713.578	754.5753	783.7142	828.0707	846.3739	898.3239	912.9402	946.0789	978.3615	1052.2378	1066.6713	1114.1541	1151.6042	1190.2223	1228.1048	1285.0591	1329.7905	1357.8754	1495.1744	1647.5703	1739.0453	2342.9856	3117.3288	3162.2487	3214.6327	3229.0231	3471.8278
N=C1N2CC2C=C1C#N	[NH]C1=C([CH][C@H]2N1C2)C#N	
InChI=1S/C6H5N3/c7-2-4-1-5-3-9(5)6(4)8/h1,5,8H,3H2	InChI=1S/C6H5N3/c7-2-4-1-5-3-9(5)6(4)8/h1,5,8H,3H2/t5-,9?/m1/s1
