20
gdb 36942	3.24949	1.17107	1.10159	0.9273	75.2	-0.2316	0.0916	0.3233	1203.3699	0.171736	-440.24607	-440.237583	-440.236639	-440.28011	31.183	
C	-0.1008229453	 1.5003176078	 0.2498731659	-0.173977
C	-0.2017755959	-0.0122797762	 0.0496113091	 0.221623
O	 0.4295713716	-0.3848142835	-1.1659667719	-0.271089
C	 1.3275851644	-1.452368171	-0.8859605232	-0.084056
C	 1.6408143427	-1.2509921759	 0.5949213726	-0.094257
O	 0.4082791577	-0.7445035565	 1.0937144084	-0.2631
N	 1.2811727738	 1.9529719244	 0.2644027178	-0.060509
C	 1.8242106228	 2.4236032571	-1.0050445103	-0.206961
C	 1.4894700799	 3.3860583295	 0.0789449574	-0.225288
H	-0.7054530421	 1.9943652297	-0.5329392598	 0.083217
H	-0.5575857816	 1.7342195905	 1.2182853421	 0.112711
H	-1.2652132839	-0.3002679412	 0.0297717272	 0.07451
H	 0.8449800171	-2.4240501822	-1.0658420574	 0.098613
H	 2.1978059133	-1.3570559668	-1.540693069	 0.111142
H	 1.8735744359	-2.176991809	 1.1267918954	 0.107707
H	 2.4470632596	-0.5219456013	 0.7399695892	 0.116169
H	 2.8578855099	 2.1561368518	-1.2048121432	 0.111808
H	 1.1726455245	 2.3973482934	-1.875466941	 0.118057
H	 0.6108722541	 4.0130497189	-0.0661643182	 0.10768
H	 2.2700198014	 3.8327682304	 0.6882396489	 0.115997
66.0448	76.9487	105.7169	180.4816	236.6424	321.249	325.9527	415.9278	647.513	656.9159	723.5092	785.9393	823.7718	868.135	896.6471	908.9199	935.4977	952.7325	1014.7329	1024.4542	1055.1094	1061.0204	1080.8622	1115.7597	1119.2545	1151.1386	1171.4246	1185.7601	1192.6829	1227.2944	1248.3795	1280.596	1324.1989	1332.4051	1381.7898	1384.2047	1396.8011	1414.4825	1473.597	1494.0079	1508.73	1518.654	1523.4378	2935.6728	2975.2471	2998.6834	3033.3513	3064.5203	3092.3322	3093.8082	3104.6346	3105.5807	3177.0047	3193.0768
C(C1OCCO1)N1CC1	C(C1OCCO1)N1CC1	
InChI=1S/C6H11NO2/c1-2-7(1)5-6-8-3-4-9-6/h6H,1-5H2	InChI=1S/C6H11NO2/c1-2-7(1)5-6-8-3-4-9-6/h6H,1-5H2
