21
gdb 68191	3.50781	1.18826	1.10682	0.8632	88.57	-0.2528	0.0555	0.3083	1201.2758	0.183115	-349.922751	-349.91441	-349.913466	-349.955147	33.915	
C	-0.0136334467	 1.5384722983	 0.0639166388	-0.498917
C	 0.0322349787	 0.0281335043	 0.0330419725	 0.355795
C	 0.9939056694	-0.7645414806	-0.9093520429	-0.261054
C	 0.7207561777	-1.9160253692	 0.0937523911	-0.019401
C	 0.6570101182	-0.8175435934	 1.1882214416	-0.269331
C	-0.7882181755	-2.2068827924	-0.1410875489	-0.16788
C	-1.300311136	-0.7171877917	-0.1991380315	-0.265413
C	-1.0679084225	-2.9909162705	-1.3336688158	 0.314514
C	-1.2909365241	-3.636244818	-2.3241488472	-0.461468
H	 0.9804834587	 1.964108665	 0.2367000704	 0.112359
H	-0.3900826207	 1.9415296583	-0.8834808989	 0.116504
H	-0.6744638944	 1.8987916479	 0.8611308165	 0.114278
H	 0.698706668	-0.9098570351	-1.9522012306	 0.100688
H	 2.022135199	-0.3981486749	-0.8532640092	 0.092549
H	 1.3722487802	-2.7854554792	 0.1741916621	 0.067813
H	 1.6481506874	-0.4583986376	 1.4766163398	 0.093376
H	 0.0507055468	-1.0059114678	 2.0807912712	 0.084251
H	-1.2097324273	-2.7252179609	 0.727589164	 0.097004
H	-2.0382145204	-0.5072969943	 0.5810202679	 0.096201
H	-1.747998003	-0.4779429472	-1.1669801126	 0.108317
H	-1.4916361336	-4.2102230611	-3.1943217981	 0.189814
107.1142	144.3535	217.9325	270.0065	291.2505	341.9751	417.1124	457.5761	502.0178	541.047	609.4738	620.7478	625.5834	683.5987	811.4883	824.2626	834.1682	873.2124	922.2327	926.7897	954.9919	982.7941	1007.2518	1029.4771	1040.7972	1062.2098	1108.5435	1115.2916	1152.4529	1188.037	1222.3032	1243.0669	1248.5327	1255.071	1269.705	1300.1945	1345.398	1352.6425	1414.9458	1485.0424	1490.2336	1493.995	1496.4818	1524.4464	2231.3705	3021.8993	3035.7055	3039.9619	3053.2331	3057.9584	3084.5832	3092.8223	3103.6285	3106.9627	3115.2549	3122.9602	3505.9655
CC12CC(C1)C(C2)C#C	C[C@@]12C[C@@H](C1)[C@@H](C2)C#C	
InChI=1S/C9H12/c1-3-7-4-9(2)5-8(7)6-9/h1,7-8H,4-6H2,2H3	InChI=1S/C9H12/c1-3-7-4-9(2)5-8(7)6-9/h1,7-8H,4-6H2,2H3/t7-,8-,9+/m1/s1
