18
gdb 94162	2.36429	1.41707	1.20245	3.8054	67.5	-0.247	0.0174	0.2644	1102.8924	0.147234	-476.239727	-476.230719	-476.229775	-476.273613	33.365	
C	-0.0732464052	 1.613521861	 0.1326422551	-0.452335
C	 0.0354568395	 0.0988683791	 0.0495972772	 0.110991
N	 1.1022766897	-0.4443926932	-0.8463669203	-0.375946
H	-0.3288059511	-1.5388680678	-1.4357883449	 0.301978
H	 1.4812362992	 0.2274816137	-1.5059780308	 0.231227
C	 1.9855477096	-0.7496734637	 0.3138124459	-0.187195
C	 0.790282744	-0.5729543597	 1.267022752	 0.085929
O	 1.0840664861	 0.217744446	 2.3816392017	-0.414191
C	-1.3231009971	-0.5492818737	-0.2309994065	 0.401756
O	-1.2717801318	-1.5191481497	-1.1516183446	-0.377944
O	-2.3278737505	-0.2470090296	 0.3605954359	-0.35933
H	 0.8499597708	 2.055055353	 0.5143975721	 0.127482
H	-0.2912808371	 2.0337956099	-0.8554518855	 0.121094
H	-0.8950779681	 1.8865402153	 0.797991016	 0.150474
H	 2.4607279255	-1.7330771098	 0.2712129735	 0.118284
H	 2.745936826	 0.0139864045	 0.5084350567	 0.12237
H	 0.3260249542	-1.5234667793	 1.5546259594	 0.096363
H	 0.3157586463	 0.226526094	 2.9623118172	 0.298994
64.0626	108.7165	164.2704	207.5246	245.7369	269.1857	334.3491	359.7067	396.0248	459.5426	481.4861	600.2295	696.6542	742.6624	758.877	825.0783	888.6014	901.3443	946.3893	953.8604	1005.9356	1018.1528	1128.5405	1134.1831	1174.2189	1176.0685	1190.8129	1250.5888	1253.5592	1310.796	1331.034	1363.7143	1402.6774	1436.6771	1446.9667	1480.5485	1497.114	1513.411	1856.1647	3034.5511	3041.9643	3045.9559	3101.9922	3115.4428	3141.0789	3433.6315	3521.7908	3816.4312
CC1([NH2+]CC1O)C([O-])=O	C[C@]1(NC[C@H]1O)C(=O)O	
InChI=1S/C5H9NO3/c1-5(4(8)9)3(7)2-6-5/h3,6-7H,2H2,1H3,(H,8,9)	InChI=1S/C5H9NO3/c1-5(4(8)9)3(7)2-6-5/h3,6-7H,2H2,1H3,(H,8,9)/t3-,5-/m1/s1
