23
gdb 109924	2.18122	1.30689	1.01166	1.3609	81.78	-0.2497	0.0698	0.3195	1305.1356	0.203297	-425.41692	-425.406349	-425.405405	-425.451769	39.961	
C	-0.894047712	 0.9856061258	-0.0328746117	-0.40112
C	 0.1484145512	-0.1229490659	 0.0126754198	 0.046339
C	 1.5189532988	 0.1161618808	-0.6808828403	-0.302329
C	 2.2150020386	-0.6207737862	 0.5002581551	 0.402917
C	 2.5554123634	-2.077355465	 0.2011114321	-0.445658
O	 3.3231120754	 0.0395639323	 1.0936796119	-0.477497
C	 0.9126970153	-0.4490122696	 1.3412623959	-0.041317
C	 0.979439955	 0.6628673838	 2.3759052907	-0.09939
O	-0.2961607321	 0.7314332724	 3.0069256548	-0.428252
H	-0.4846726824	 1.9406455646	 0.3110924228	 0.108634
H	-1.2502123349	 1.1306071052	-1.0593840912	 0.102226
H	-1.7529734304	 0.7497560635	 0.6009855623	 0.127031
H	-0.3016149465	-1.0460806365	-0.3684090551	 0.068659
H	 1.6635430467	-0.2861237656	-1.6881748273	 0.08472
H	 1.7920232061	 1.1757599474	-0.6772511573	 0.097554
H	 3.371164032	-2.141517934	-0.5307137828	 0.101562
H	 2.8713901531	-2.58921113	 1.115445929	 0.122568
H	 1.6969150339	-2.6123108921	-0.2168193658	 0.12044
H	 4.0839433651	-0.0751004411	 0.5143231928	 0.273478
H	 0.5756933047	-1.3561434761	 1.8531133488	 0.067854
H	 1.7722921631	 0.4317738145	 3.1007200996	 0.099941
H	 1.245558315	 1.6212068837	 1.9068197204	 0.088322
H	-0.2696182192	 1.4437050782	 3.6523389454	 0.283319
74.1754	128.1197	175.4004	212.0635	235.7924	239.779	251.1623	266.6716	273.6391	335.3721	340.3354	360.6794	436.7425	498.8539	553.0174	606.5257	750.4872	816.2475	871.0475	909.9058	927.5089	948.3938	985.756	996.7434	1030.9633	1062.1226	1105.4349	1112.1394	1145.8363	1162.8897	1181.2157	1209.3315	1240.4777	1245.9467	1271.256	1288.1127	1296.7026	1351.0987	1371.6273	1382.331	1406.1837	1413.0564	1456.8939	1480.9362	1486.5382	1490.9375	1493.7899	1496.3412	1522.8184	2992.2362	3017.9008	3021.3703	3030.5935	3035.6526	3044.3147	3056.6752	3086.4358	3092.998	3100.8293	3111.0507	3115.9778	3803.5332	3828.0343
CC1CC(C)(O)C1CO	C[C@H]1C[C@@](C)(O)[C@H]1CO	
InChI=1S/C7H14O2/c1-5-3-7(2,9)6(5)4-8/h5-6,8-9H,3-4H2,1-2H3	InChI=1S/C7H14O2/c1-5-3-7(2,9)6(5)4-8/h5-6,8-9H,3-4H2,1-2H3/t5-,6-,7+/m0/s1
