22
gdb 116774	3.59002	0.62514	0.58812	2.3712	82.55	-0.2415	0.02	0.2615	1954.8357	0.190929	-441.467677	-441.456102	-441.455158	-441.505794	39.426	
C	 0.1067810838	 0.9104506751	-0.5261085668	-0.250478
O	-0.3423515803	-0.0111407937	 0.4580005215	-0.194483
C	-1.2047586862	-0.9558831943	 0.0193265587	 0.132618
N	-1.6082678181	-1.8462246585	 0.8075733017	-0.235436
C	-2.580359936	-2.8469821397	 0.395888687	-0.137228
C	-2.8039578642	-3.1304458347	-1.103865077	-0.002207
C	-1.5751547747	-3.7765882301	-1.7574322644	-0.404892
C	-4.04692856	-4.0224699186	-1.2585734356	-0.077674
O	-4.3941761793	-4.2852303872	-2.6092467546	-0.425455
H	 0.7413628302	 1.6300145962	-0.0073171893	 0.145726
H	 0.6955428703	 0.4125577975	-1.3068026529	 0.124669
H	-0.7303172031	 1.4444377538	-0.9931415689	 0.12516
H	-1.4858278319	-0.8385733374	-1.0361752484	 0.076668
H	-2.2912985819	-3.7866890846	 0.8863825149	 0.106947
H	-3.5395450397	-2.567511663	 0.8559213232	 0.108839
H	-3.0353516423	-2.1930216633	-1.6267467398	 0.080618
H	-0.6750322797	-3.172489058	-1.6194876069	 0.121862
H	-1.3754966068	-4.7612918118	-1.3161445604	 0.114676
H	-1.7212020464	-3.9063164798	-2.8346860521	 0.109552
H	-3.9009778483	-4.9601861745	-0.6965446162	 0.0865
H	-4.9169882736	-3.5185582498	-0.8239165794	 0.109386
H	-3.7452373721	-4.8963886934	-2.9693922843	 0.284632
42.9914	68.4421	86.4552	99.2672	121.0033	150.2452	200.2154	230.5581	281.456	285.1219	305.3655	331.3221	411.6809	442.2629	534.0083	617.6621	840.2967	888.0492	910.8434	924.4144	991.4165	1023.6954	1064.7221	1078.9638	1114.0656	1125.7124	1146.4451	1175.7513	1178.2994	1231.3513	1268.9762	1291.659	1301.1301	1372.7041	1386.3176	1395.8155	1407.7579	1418.8656	1421.8366	1478.0762	1487.2209	1494.1657	1497.0566	1500.2183	1501.7781	1510.9036	1781.8723	2966.0237	2997.6378	3005.4337	3013.3362	3024.4898	3026.584	3033.4875	3068.3677	3070.8551	3091.9455	3115.5341	3142.7439	3833.0771
COC=NCC(C)CO	COC=NC[C@@H](C)CO	
InChI=1S/C6H13NO2/c1-6(4-8)3-7-5-9-2/h5-6,8H,3-4H2,1-2H3	InChI=1S/C6H13NO2/c1-6(4-8)3-7-5-9-2/h5-6,8H,3-4H2,1-2H3/t6-/m1/s1
