18
gdb 53248	4.91114	0.66017	0.63909	4.3703	84.79	-0.2419	0.0245	0.2663	1778.802	0.146324	-401.934405	-401.924504	-401.92356	-401.972482	33.057	
C	 0.350026485	 1.6355978388	-0.3916365636	-0.497043
C	 0.19522559	 0.2053305163	-0.1694799241	 0.05455
C	 0.0697505237	-0.9791949099	 0.0095782409	 0.090491
C	-0.0945886322	-2.3988812017	 0.2350843288	-0.189789
C	-0.0200801915	-2.9066281592	 1.7199405272	-0.189272
N	-1.3331371475	-3.5215085486	 1.5243380447	-0.038163
C	-1.5526029076	-2.9796593483	 0.1858442289	-0.175726
C	-2.193323709	-4.1558219668	 2.3497735745	 0.133522
O	-3.3213100984	-4.4857842609	 2.0442575532	-0.330414
H	 1.0607819292	 1.8379468855	-1.2002773682	 0.151266
H	-0.6039489746	 2.1003358837	-0.6637123538	 0.15255
H	 0.7189365841	 2.1395370715	 0.5084382584	 0.150963
H	 0.5789211974	-2.9716124671	-0.4078088214	 0.113542
H	 0.7901261024	-3.6109168625	 1.9338785933	 0.120985
H	-0.0088293974	-2.0994261651	 2.4594968088	 0.125576
H	-2.3397925405	-2.2210327946	 0.145921713	 0.131521
H	-1.7386449038	-3.7361358085	-0.5814954379	 0.12805
H	-1.7425981592	-4.3543018426	 3.3446615974	 0.067388
14.0409	26.9848	80.4471	102.312	164.3056	192.9216	298.9622	308.1215	322.732	438.0517	509.5277	559.466	661.0285	801.481	886.2172	906.38	966.3475	980.315	1034.1024	1051.0119	1052.8136	1078.1411	1139.242	1172.6556	1193.1551	1201.1203	1241.3978	1283.95	1310.4334	1360.9876	1403.2238	1415.0413	1452.6861	1477.3315	1477.8257	1506.6161	1524.749	1791.9708	2371.7278	2916.2839	3028.1518	3035.0407	3051.9224	3066.2495	3087.9227	3089.5846	3090.2248	3103.4737
CC#CC1CN(C1)C=O	CC#CC1CN(C1)C=O	
InChI=1S/C7H9NO/c1-2-3-7-4-8(5-7)6-9/h6-7H,4-5H2,1H3	InChI=1S/C7H9NO/c1-2-3-7-4-8(5-7)6-9/h6-7H,4-5H2,1H3
