22
gdb 19148	3.06146	1.53645	1.24346	0.1441	81.85	-0.2425	0.0906	0.3331	1099.8258	0.200265	-313.044068	-313.035321	-313.034377	-313.077554	33.697	
C	 0.1042403697	 1.6063943433	 0.0746562688	-0.40304
C	-0.0263822757	 0.093849881	-0.133440406	-0.268805
C	-1.4302066248	-0.5010941606	-0.0394772788	 0.383488
C	-2.5107167234	 0.1974036963	 0.7590887558	-0.30223
C	-2.5733642572	 0.190822802	-0.7496845084	-0.308937
C	-1.5091160927	-2.0100360863	-0.0256480761	-0.031099
C	-0.4946003404	-2.9136929784	-0.6834971779	-0.280322
C	-0.6181682952	-2.8864039461	 0.8217134841	-0.2808
H	 1.1437354308	 1.9139898538	-0.0749047552	 0.113395
H	-0.5071230848	 2.1777287591	-0.6309288862	 0.119309
H	-0.1815854341	 1.9050061294	 1.0875602812	 0.121001
H	 0.3873585489	-0.1588053233	-1.1182294018	 0.102672
H	 0.6200542505	-0.4032095571	 0.6012026737	 0.09889
H	-3.2122474583	-0.4242898783	 1.3056511539	 0.104977
H	-2.2819300141	 1.1354890083	 1.2509142415	 0.107115
H	-2.3792195973	 1.1232316222	-1.2684877599	 0.106802
H	-3.3194584426	-0.4310375031	-1.2335673214	 0.106147
H	-2.5352497767	-2.3634995261	-0.0976755611	 0.074258
H	-0.8552216919	-3.7847905942	-1.2197207817	 0.106625
H	 0.3919630844	-2.4670581615	-1.1187376093	 0.11129
H	 0.1854140025	-2.4236143823	 1.3839532377	 0.112221
H	-1.0681109474	-3.737232738	 1.321807947	 0.107044
51.3377	77.864	201.7942	222.8869	272.857	295.9021	339.9893	366.9255	473.4157	497.8853	633.7324	772.2568	777.9929	783.9415	821.1776	845.6995	890.9525	906.6357	928.7447	973.3849	976.8491	1031.6045	1051.4349	1057.454	1069.4117	1076.4121	1077.5087	1112.1613	1138.7873	1144.8133	1189.081	1198.4188	1220.2368	1274.3059	1316.5479	1321.4091	1390.3345	1409.1996	1427.3263	1465.9849	1469.0983	1491.011	1499.7642	1508.6688	1509.9545	1515.6443	3014.3434	3039.5871	3044.3996	3103.7127	3109.4359	3122.1878	3128.9441	3132.6107	3135.1378	3138.3215	3205.1838	3208.6501	3220.9485	3223.9445
CCC1(CC1)C1CC1	CCC1(CC1)C1CC1	
InChI=1S/C8H14/c1-2-8(5-6-8)7-3-4-7/h7H,2-6H2,1H3	InChI=1S/C8H14/c1-2-8(5-6-8)7-3-4-7/h7H,2-6H2,1H3
