17
gdb 133040	4.83486	0.95075	0.80031	2.9564	80.99	-0.1915	-0.0016	0.1899	1363.2912	0.1369	-426.035368	-426.02733	-426.026385	-426.06795	30.861	
C	 0.027807951	 1.4446933879	 0.108651039	-0.323191
N	-0.1352604475	 0.0194875	-0.0892166941	-0.371442
C	 0.5479340079	-0.6507333351	-1.1004767147	 0.352454
C	 1.1481711492	 0.0240652403	-2.1741772514	-0.188926
C	 1.7809330435	-0.681720939	-3.1957652209	-0.236463
C	 1.8269021522	-2.0640920807	-3.1469866558	 0.274312
F	 2.4413203009	-2.7444154584	-4.1282675796	-0.091981
C	 1.2489009486	-2.759636244	-2.0928446162	-0.229238
C	 0.6141325021	-2.0549846502	-1.0803739079	-0.18503
H	 1.0787919485	 1.7571015311	 0.218962394	 0.114849
H	-0.4013362737	 2.0030181849	-0.7310044729	 0.134475
H	-0.5162232006	 1.7394751586	 1.0088023021	 0.124464
H	-0.2147641473	-0.5096881699	 0.764850696	 0.234868
H	 1.1239237022	 1.105441604	-2.2221083405	 0.094891
H	 2.2436336357	-0.1614346802	-4.0265176037	 0.104677
H	 1.3000341966	-3.8421727434	-2.0742963447	 0.105166
H	 0.1548840208	-2.5967466059	-0.2585246389	 0.086115
90.9557	155.2979	208.9812	231.4286	352.8932	379.525	426.6007	430.3947	440.5091	530.543	568.8654	649.3924	719.4794	757.3582	817.8965	840.2202	854.4412	922.814	933.8759	1018.0733	1081.7144	1115.61	1152.3775	1176.0496	1183.9976	1272.4385	1301.6379	1312.3075	1353.6696	1429.1881	1469.5761	1483.8396	1509.966	1528.9251	1554.9809	1630.761	1663.1481	2974.1161	3056.8264	3118.946	3165.3914	3195.3716	3202.1839	3212.5766	3617.1737
CNC1=CC=C(F)C=C1	CNc1ccc(F)cc1	
InChI=1S/C7H8FN/c1-9-7-4-2-6(8)3-5-7/h2-5,9H,1H3	InChI=1S/C7H8FN/c1-9-7-4-2-6(8)3-5-7/h2-5,9H,1H3
