20
gdb 110685	4.78091	1.12917	1.07032	1.1574	79.48	-0.2327	0.0886	0.3213	1202.8511	0.17253	-403.07734	-403.069667	-403.068722	-403.109635	30.02	
C	-0.2452932745	 1.3068442285	 0.1169087836	-0.240089
O	 0.3672475686	 0.0624467543	-0.1464465057	-0.254021
C	 0.8620160014	-0.5602992653	 0.9997369598	 0.171037
C	-0.0747635084	-1.4465245738	 1.8606652038	-0.085058
C	-0.1494327526	-2.500938786	 0.7103714348	-0.003224
C	-0.2114359274	-3.8751907683	 1.3657317807	-0.266376
C	 0.7714314243	-3.5915926237	 2.5351918273	-0.157572
N	 1.1810826942	-2.1798301563	 2.3287177195	-0.137374
C	 1.3296445344	-2.0066883716	 0.8165176743	-0.088404
H	 0.449832016	 2.0028121484	 0.6107717874	 0.109192
H	-0.5460141463	 1.7299444835	-0.8442614631	 0.128252
H	-1.1365328725	 1.2007303185	 0.7530568218	 0.108232
H	 1.5361274205	 0.0906205913	 1.5706020382	 0.078425
H	-0.8542227167	-1.1599999943	 2.5705748309	 0.071659
H	-0.7343294242	-2.3041322132	-0.1872773806	 0.080655
H	-1.2200332769	-4.1326237701	 1.7041867089	 0.099184
H	 0.1309329411	-4.6728901953	 0.6991056662	 0.100377
H	 0.308303265	-3.6889110189	 3.5213946042	 0.103863
H	 1.6604189599	-4.2287876596	 2.5162855907	 0.104571
H	 2.209705564	-2.3757612881	 0.2854422872	 0.07667
83.158	168.1003	171.4733	250.6002	286.4553	338.5155	468.8775	537.7384	722.1134	736.3723	739.718	808.9283	823.6696	835.6207	917.8952	931.4584	956.9242	965.9151	992.2209	1017.0754	1043.3398	1065.8166	1093.2956	1110.9993	1119.6294	1160.1404	1178.0809	1185.3613	1216.7328	1222.2569	1234.1645	1247.454	1255.638	1257.3028	1287.7892	1322.6738	1340.3374	1391.9908	1484.0155	1489.7419	1492.5813	1509.1942	1510.2521	2980.0598	3028.8393	3033.3628	3046.1475	3057.5568	3082.1079	3084.7454	3093.8739	3104.5233	3118.3537	3130.5299
COC1C2C3CCN2C13	CO[C@H]1[C@H]2[C@@H]3CCN2[C@H]13	
InChI=1S/C7H11NO/c1-9-7-5-4-2-3-8(5)6(4)7/h4-7H,2-3H2,1H3	InChI=1S/C7H11NO/c1-9-7-5-4-2-3-8(5)6(4)7/h4-7H,2-3H2,1H3/t4-,5+,6-,7-
