21
gdb 57631	2.94947	1.01211	0.96178	1.3855	85.34	-0.2409	0.0454	0.2863	1369.0978	0.178239	-387.030912	-387.020617	-387.019673	-387.066419	38.755	
C	-0.2879238726	 1.4868866947	-0.120297645	-0.410547
C	-0.0054829492	-0.0140744801	 0.0840124007	 0.169204
C	 0.9581941303	-0.2360539845	 1.2679419073	-0.412955
O	-1.2154382267	-0.7774817243	 0.2613783506	-0.291738
C	-2.061699174	-0.4108457498	 1.3092244633	 0.150866
C	-3.2335580027	 0.5036007852	 1.047166625	-0.285223
C	-3.4408128603	-0.9845551836	 1.2407586013	-0.293374
C	 0.6011152162	-0.5623647822	-1.1371286151	 0.341616
C	 1.1291623033	-0.9820214294	-2.1308767552	-0.471666
H	 0.6458472746	 2.0116760512	-0.3382423261	 0.124875
H	-0.9718382425	 1.6343073812	-0.9589139447	 0.129733
H	-0.7301005156	 1.9227071828	 0.7789095353	 0.121549
H	 0.5670460532	 0.21809772	 2.1827854944	 0.115431
H	 1.1032758477	-1.3058842578	 1.4337912711	 0.133914
H	 1.9281233932	 0.2196449932	 1.0533698996	 0.126924
H	-1.5916144556	-0.3585253026	 2.289309131	 0.085082
H	-3.5489450493	 1.1858376739	 1.8296919644	 0.109514
H	-3.3424186549	 0.8844185741	 0.0386031634	 0.120564
H	-3.6705905495	-1.5686027242	 0.3570191037	 0.128406
H	-3.900217019	-1.3402717093	 2.1559226376	 0.113007
H	 1.5859158334	-1.3621862285	-3.0110324026	 0.194819
30.2977	102.912	128.7656	180.872	226.652	240.3399	273.0993	322.4633	329.3262	381.3364	424.7885	483.547	552.7517	562.4017	622.7153	663.7919	715.3946	761.5945	812.7491	825.3435	892.4397	919.4694	946.1918	981.6519	1013.1694	1023.2053	1058.7372	1071.8405	1126.6272	1178.0128	1180.5466	1188.5539	1195.4105	1236.658	1269.0815	1387.0561	1394.7552	1411.3499	1453.5081	1477.7935	1480.0311	1491.8097	1498.4658	1503.5791	2241.9557	3046.4766	3053.1738	3113.953	3122.38	3129.1163	3134.4045	3135.9164	3137.2301	3142.3328	3221.1939	3235.7048	3502.8548
CC(C)(OC1CC1)C#C	CC(C)(OC1CC1)C#C	
InChI=1S/C8H12O/c1-4-8(2,3)9-7-5-6-7/h1,7H,5-6H2,2-3H3	InChI=1S/C8H12O/c1-4-8(2,3)9-7-5-6-7/h1,7H,5-6H2,2-3H3
