18
gdb 119595	3.81487	1.16012	1.0239	0.9752	71.65	-0.2438	0.0113	0.2552	1186.8152	0.147626	-439.063428	-439.05509	-439.054146	-439.097271	30.635	
C	 0.3976179092	 0.646342269	-0.0171086855	-0.233476
O	-0.8677363808	 0.4222052125	-0.6091816875	-0.226455
C	-1.7045836585	-0.43706544	 0.1344588786	-0.17931
C	-1.2849784963	-1.8901872082	 0.1120934206	 0.311183
C	-1.184598538	-2.6463728455	-1.1987359399	-0.340682
C	-2.1927836247	-3.0828766332	-0.1808841314	 0.011008
O	-1.780168496	-4.0993249544	 0.7213357038	-0.21174
C	-0.730032169	-3.5634770109	 1.3973028709	 0.094055
N	-0.3922217042	-2.3613441403	 1.1573312651	-0.303743
H	 0.9192281707	 1.3684076185	-0.6502236855	 0.120174
H	 0.2967486582	 1.0655285819	 0.9959224753	 0.103885
H	 0.9931754732	-0.2722533176	 0.0534718858	 0.128813
H	-1.774666564	-0.1055053672	 1.1824512286	 0.098551
H	-2.69698497	-0.3430761672	-0.3195197789	 0.103922
H	-1.577544548	-2.1383634382	-2.0724896892	 0.133316
H	-0.3103532188	-3.264478733	-1.3730572781	 0.12618
H	-3.2617672666	-3.0751095268	-0.3509227336	 0.117964
H	-0.2627046363	-4.2293262893	 2.112251421	 0.146356
38.4649	99.7727	149.1552	209.9641	276.2701	337.9038	363.6867	431.9549	451.0686	607.908	710.6734	758.9826	806.8816	876.3921	907.8899	933.8913	941.2973	956.18	978.4911	1000.9787	1043.4219	1074.9527	1102.4605	1137.94	1143.5058	1182.031	1206.1995	1250.0976	1279.4586	1319.4612	1347.2581	1382.5994	1407.7889	1463.65	1472.8691	1483.0369	1490.1636	1508.5371	1664.916	2983.3592	2988.9851	3054.8734	3070.5735	3115.5201	3133.7628	3196.352	3227.7898	3231.0309
COCC12CC1OC=N2	COC[C@]12C[C@H]1OC=N2	
InChI=1S/C6H9NO2/c1-8-3-6-2-5(6)9-4-7-6/h4-5H,2-3H2,1H3	InChI=1S/C6H9NO2/c1-8-3-6-2-5(6)9-4-7-6/h4-5H,2-3H2,1H3/t5-,6-/m1/s1
