15
gdb 67353	2.98986	1.92402	1.34899	2.5815	64.69	-0.2354	-0.0005	0.2349	901.2552	0.113623	-453.897696	-453.89071	-453.889766	-453.928727	28.183	
N	 0.1666428063	 1.4472750761	-0.0152436883	-0.62386
C	 0.0639216209	 0.0420482684	-0.014625953	 0.221433
C	-0.0130692571	-0.7908571617	 1.3079044324	 0.033131
O	-1.4550874553	-0.5315655856	 1.4535626252	-0.32454
C	-1.289744846	-0.8279261094	 0.0318054746	-0.016902
C	-0.2957013199	-1.9843640979	 0.3603601984	-0.036978
N	 0.7819462716	-2.0342660919	-0.6142151573	-0.350155
C	 0.9640778095	-0.7106273806	-0.9913551984	 0.398662
O	 1.612422455	-0.2656708907	-1.9065229643	-0.367699
H	 0.3163736431	 1.8004873743	-0.9536595313	 0.248464
H	-0.6402075101	 1.8885917633	 0.4093045849	 0.24445
H	 0.6178411545	-0.7291406756	 2.1950330368	 0.107251
H	-2.1739567279	-0.7983014128	-0.6077576526	 0.09937
H	-0.6490209899	-2.9291438463	 0.762314966	 0.111686
H	 0.8635602653	-2.7694477595	-1.3007427631	 0.255687
162.3317	187.2586	311.751	366.0565	382.5927	418.6452	441.2318	564.6859	629.7831	667.4658	712.9243	723.6957	773.1508	811.5175	864.0733	874.2503	899.4963	922.868	943.1922	1025.0323	1049.4628	1113.9609	1143.7098	1154.4625	1164.5645	1197.4709	1269.401	1326.2774	1331.184	1379.0429	1420.2655	1621.6662	1857.5957	3104.638	3123.6714	3179.0444	3520.1598	3614.8344	3621.4422
NC12C3OC1C3NC2=O	N[C@@]12[C@H]3O[C@@H]1[C@H]3NC2=O	
InChI=1S/C5H6N2O2/c6-5-2-1(3(5)9-2)7-4(5)8/h1-3H,6H2,(H,7,8)	InChI=1S/C5H6N2O2/c6-5-2-1(3(5)9-2)7-4(5)8/h1-3H,6H2,(H,7,8)/t1-,2-,3+,5-
