17
gdb 67391	3.02058	1.59417	1.44917	3.271	73.96	-0.2448	0.009	0.2538	971.8805	0.13755	-417.98068	-417.973473	-417.972529	-418.012115	28.552	
C	 0.0566124712	 1.4908531689	 0.0234010161	-0.524393
C	-0.0652867323	 0.0052919081	-0.0778935287	 0.333742
C	 0.5042378971	-0.9095902433	-1.0901705289	-0.171113
N	 0.9886392744	-0.9844914993	 0.340618741	-0.189356
C	-0.049161223	-1.7283052872	 1.1291708345	-0.171755
C	-1.1824257123	-0.9495579764	 0.4350311207	-0.002001
O	-1.6396236368	-1.7031876069	-0.6959500728	-0.251382
C	-0.5769578454	-1.8181510418	-1.5635371034	 0.435594
N	-0.5538411256	-2.5248641396	-2.6090292938	-0.557688
H	 1.0524059912	 1.8086125915	-0.2982737029	 0.143039
H	-0.6856091265	 1.9879107711	-0.6105107216	 0.135531
H	-0.0910067564	 1.8339898446	 1.0529449479	 0.129981
H	 1.2764176147	-0.612200446	-1.7862701872	 0.123915
H	-0.0579408445	-2.8154385508	 1.0036942302	 0.120371
H	 0.076588105	-1.4694786136	 2.1831182067	 0.120662
H	-2.0447929462	-0.5853413072	 0.9896762435	 0.099667
H	-1.4414644747	-3.0156827521	-2.7310695614	 0.225187
135.7218	185.5414	213.9658	266.0126	396.5649	434.4129	456.6014	578.9102	631.8323	666.5343	701.118	799.4484	802.1508	883.9795	889.5123	901.2201	927.7677	949.293	1006.7539	1013.5706	1062.4909	1090.9452	1100.6509	1118.4497	1176.7539	1190.9134	1237.0068	1250.6678	1282.9384	1306.7632	1365.4926	1406.3696	1444.3218	1482.0787	1490.5597	1494.3712	1778.517	3033.8298	3053.9898	3097.4493	3116.736	3117.645	3142.5561	3221.6761	3473.5418
CC12C3N1CC2OC3=N	C[C@@]12[C@H]3N1C[C@@H]2O[C]3[NH]	
InChI=1S/C6H8N2O/c1-6-3-2-8(6)4(6)5(7)9-3/h3-4,7H,2H2,1H3	InChI=1S/C6H8N2O/c1-6-3-2-8(6)4(6)5(7)9-3/h3-4,7H,2H2,1H3/t3-,4-,6+,8?/m0/s1
