19
gdb 82281	2.41881	1.79945	1.16689	3.5869	82.	-0.2339	-0.0479	0.186	1075.8163	0.160596	-385.920408	-385.912444	-385.9115	-385.952861	31.251	
C	 0.1839506138	 1.5899404433	 0.0119251727	-0.386832
C	 0.1003775781	 0.0590052186	 0.0071449211	-0.12577
C	 0.7550862828	-0.5537580478	-1.2202691789	-0.028105
C	 2.2411590623	-0.7028143581	-1.3374213949	-0.286088
C	 1.3638569451	-1.9389359535	-1.1268353578	-0.101782
C	 1.3855648614	-2.5776353629	 0.199812714	-0.038601
C	 1.0665483239	-1.9298268775	 1.3312212303	-0.169862
C	 0.5836589318	-0.5368881999	 1.3416854384	 0.359076
O	 0.4994918217	 0.0975105812	 2.3767915202	-0.344265
H	 1.2275791148	 1.9195768023	-0.0124950033	 0.118613
H	-0.323825892	 2.0080274054	-0.862573435	 0.105396
H	-0.2745846714	 1.990420793	 0.9171627655	 0.140466
H	-0.9645873569	-0.2226997936	-0.0237787272	 0.10642
H	 0.235284962	-0.3340310764	-2.1485997525	 0.093796
H	 2.697786357	-0.5716986902	-2.3121728161	 0.119397
H	 2.8635459146	-0.4088799158	-0.4986672419	 0.128736
H	 1.2605235265	-2.6051335426	-1.9764790644	 0.094185
H	 1.7158372428	-3.6131110539	 0.2468894323	 0.107927
H	 1.1638851717	-2.3972683416	 2.3055599174	 0.107291
70.3361	180.7482	195.3854	269.6757	292.0163	363.7202	411.6259	487.5323	519.1826	560.0325	651.9595	729.5687	787.8557	790.4737	823.4929	847.9772	870.7981	954.1881	960.8673	1016.5891	1034.4902	1050.8124	1077.5153	1097.9505	1108.0496	1123.6074	1140.4315	1176.1156	1222.2194	1238.8612	1311.6655	1324.0302	1376.9034	1398.315	1411.711	1430.492	1482.7985	1490.7359	1499.4596	1672.5639	1761.1694	2981.3414	3043.2458	3107.0694	3130.9857	3141.9839	3143.2107	3148.844	3168.1462	3192.3983	3222.5108
CC1C2CC2C=CC1=O	C[C@H]1[C@H]2C[C@H]2C=CC1=O	
InChI=1S/C8H10O/c1-5-7-4-6(7)2-3-8(5)9/h2-3,5-7H,4H2,1H3	InChI=1S/C8H10O/c1-5-7-4-6(7)2-3-8(5)9/h2-3,5-7H,4H2,1H3/t5-,6+,7+/m0/s1
