16
gdb 109294	3.412	1.16553	0.8988	2.6282	67.3	-0.2717	-0.0327	0.239	1235.1777	0.124401	-475.070615	-475.062377	-475.061433	-475.103913	29.942	
O	 0.1933426406	 1.3482006217	-0.1515073128	-0.419804
C	 0.0129584175	-0.0150602348	 0.1017338831	-0.114779
C	-1.4457795663	-0.3846022008	 0.1626435333	 0.385436
N	-2.3470315586	 0.4827915251	-0.0003804652	-0.314156
C	-3.7333317956	 0.0482148213	 0.0865036688	-0.178941
C	-3.8965524814	-1.4112533398	-0.3573851831	-0.354188
C	-2.8760182042	-2.2991568367	 0.3128355849	 0.420525
O	-3.0327505058	-3.418226616	 0.6912125257	-0.289737
O	-1.6205241781	-1.7210118317	 0.4470972498	-0.239884
H	-0.6980747253	 1.7243084906	-0.2133462833	 0.294364
H	 0.4887424134	-0.6319981093	-0.6770018724	 0.123158
H	 0.4773989601	-0.3109167083	 1.0556172612	 0.126605
H	-4.0780840247	 0.1792364573	 1.1212531716	 0.134068
H	-4.3505842335	 0.7036890096	-0.5335188726	 0.130318
H	-4.8902403627	-1.8114125479	-0.1509762409	 0.146532
H	-3.7239734753	-1.4824045301	-1.439288568	 0.150482
78.0873	127.8847	144.2413	207.8455	247.2466	339.6959	376.8692	463.3691	471.0396	564.9432	597.5473	634.94	730.1571	789.6255	884.365	933.179	983.193	1033.5269	1069.0131	1113.1994	1121.0504	1131.3661	1206.9805	1231.8484	1244.3868	1266.6256	1326.0296	1337.9233	1382.4058	1461.2707	1473.2106	1496.3815	1501.8145	1771.4673	1893.2066	2986.1578	3003.0211	3022.4138	3039.7136	3088.077	3130.2383	3700.1372
OCC1=NCCC(=O)O1	OCC1=NCCC(=O)O1	
InChI=1S/C5H7NO3/c7-3-4-6-2-1-5(8)9-4/h7H,1-3H2	InChI=1S/C5H7NO3/c7-3-4-6-2-1-5(8)9-4/h7H,1-3H2
