20
gdb 80887	2.51243	1.74569	1.45309	2.0925	77.78	-0.2243	0.0645	0.2889	1003.6495	0.172073	-403.086714	-403.078919	-403.077974	-403.118321	32.201	
C	-0.0787881268	 1.6377271493	 0.0054650749	-0.462647
C	-0.0252425468	 0.112205785	-0.0089550398	-0.028265
C	 1.0838325895	-0.573179802	-0.8644942437	-0.012482
C	 2.0787178415	-0.2613346832	 0.2906076025	-0.291665
C	 0.7821024447	-0.5853718391	 1.1325018523	 0.387899
O	 0.6231266926	-0.3060082769	 2.4844453613	-0.486802
C	 0.6738589607	-2.078208536	 0.7889800346	-0.053554
C	-0.3311124468	-2.5717085698	-0.1849836296	-0.260838
N	 0.9643533588	-2.0629225008	-0.6731165415	-0.113892
H	 0.8968071483	 2.121385555	 0.0978326315	 0.118811
H	-0.5382040448	 2.0096943402	-0.9163006973	 0.124897
H	-0.7033909968	 1.9851831072	 0.8373543381	 0.118547
H	-1.0466645465	-0.2412060255	-0.1558693425	 0.066173
H	 1.2750118127	-0.2948144429	-1.8996736738	 0.074355
H	 2.9254652194	-0.9429127977	 0.3926097492	 0.107438
H	 2.4108712342	 0.7753990115	 0.346283844	 0.092541
H	 0.7837518431	 0.6332060599	 2.6216057336	 0.283746
H	 1.2315236834	-2.7697696081	 1.4157083304	 0.097378
H	-0.4183081987	-3.6484486557	-0.3050748185	 0.117241
H	-1.2568394318	-2.0418292505	-0.3721373057	 0.121119
160.8075	194.4881	244.6746	294.4983	303.6667	374.2538	417.4514	449.5562	542.16	569.8657	618.0509	634.7477	762.6112	787.5169	822.7486	841.0997	897.2058	932.6388	945.3684	982.7769	996.076	1043.2031	1069.4093	1082.936	1091.8295	1106.0756	1114.8624	1128.8099	1163.3471	1174.4884	1222.901	1233.7674	1239.9174	1258.7677	1278.2023	1339.9763	1397.7268	1409.6909	1413.8586	1492.8811	1501.2756	1513.9946	1517.367	3029.2034	3078.9183	3083.8932	3087.0542	3114.3114	3126.3578	3129.5969	3139.5447	3147.1185	3210.8855	3816.9224
CC1C2CC1(O)C1CN21	C[C@H]1[C@H]2C[C@]1(O)[C@H]1CN21	
InChI=1S/C7H11NO/c1-4-5-2-7(4,9)6-3-8(5)6/h4-6,9H,2-3H2,1H3	InChI=1S/C7H11NO/c1-4-5-2-7(4,9)6-3-8(5)6/h4-6,9H,2-3H2,1H3/t4-,5+,6+,7+,8?/m0/s1
