23
gdb 119056	1.71239	1.26833	0.8266	2.0781	81.98	-0.2544	0.0782	0.3326	1501.5776	0.203377	-425.416366	-425.405539	-425.404595	-425.452633	39.32	
C	-2.6947729787	 1.9499173449	 0.6839698335	-0.379562
C	-2.378173444	 0.5387077129	 0.1812323473	-0.17085
C	-2.1147779609	-0.4482244524	 1.328307395	-0.262105
C	-1.7625028319	-1.8491894464	 0.8646444514	 0.341542
C	-0.340783101	-2.0396689161	 0.3624359663	-0.120301
O	 0.5928600592	-1.8652401394	 1.4150759977	-0.417992
O	-2.1346297968	-2.920342817	 1.7660005259	-0.318731
C	-2.7787173494	-2.8492316736	 0.4852698847	 0.032112
C	-4.2679559987	-2.6140132277	 0.4714701432	-0.42569
H	-2.8776614876	 2.6375503114	-0.1474605572	 0.111996
H	-3.5857881179	 1.9523894483	 1.3215616811	 0.114596
H	-1.8653318547	 2.3529661352	 1.2751591344	 0.119642
H	-3.2094279981	 0.170752487	-0.4334009265	 0.097227
H	-1.5049843664	 0.5790347851	-0.4816422883	 0.102159
H	-1.2817589091	-0.0855871897	 1.9428072372	 0.115462
H	-2.9873504329	-0.4991765537	 1.9865565038	 0.104016
H	-0.245324432	-3.0359019162	-0.0942568893	 0.087996
H	-0.0879778021	-1.2952023871	-0.3996312226	 0.110123
H	 0.3333831615	-2.486105768	 2.106500115	 0.293219
H	-2.4520553881	-3.6345941426	-0.2010550875	 0.082114
H	-4.562081021	-1.803106986	 1.1398644516	 0.129249
H	-4.60389147	-2.3730352785	-0.5428679541	 0.12311
H	-4.7921967491	-3.5216484704	 0.7886605675	 0.130668
66.6755	77.8317	90.5803	152.3587	182.9573	191.4391	237.8555	264.7621	310.0114	327.1777	384.7706	421.47	462.2416	483.4705	617.3016	738.8467	748.3821	797.881	865.3874	909.0503	927.5917	971.6129	993.2542	1010.2826	1048.3174	1069.8007	1102.4661	1131.1253	1136.3357	1177.9336	1205.4908	1246.7147	1281.3897	1309.9746	1332.6549	1341.4711	1385.6559	1401.4613	1411.456	1414.0476	1428.418	1468.0558	1483.1855	1491.6031	1495.5566	1498.0827	1499.6136	1508.6923	1514.4269	2993.8902	3022.822	3030.8666	3039.7481	3042.1604	3051.7218	3073.4907	3077.9164	3087.8703	3099.5968	3100.8639	3104.1162	3139.642	3790.3978
CCCC1(CO)OC1C	CCC[C@@]1(CO)O[C@H]1C	
InChI=1S/C7H14O2/c1-3-4-7(5-8)6(2)9-7/h6,8H,3-5H2,1-2H3	InChI=1S/C7H14O2/c1-3-4-7(5-8)6(2)9-7/h6,8H,3-5H2,1-2H3/t6-,7-/m0/s1
