15
gdb 123588	4.25922	1.64775	1.43164	3.6977	70.26	-0.2281	0.002	0.2301	885.954	0.117056	-412.893829	-412.887974	-412.88703	-412.924045	24.038	
C	-0.0239367056	 1.5159845237	-0.066774551	-0.171056
C	 1.5334411131	 1.3346402218	 0.0014454511	-0.171861
C	 1.1374699179	 0.1573520029	 0.9606914564	-0.171055
N	-0.106428742	-0.0312014503	 0.0490173785	-0.246854
C	 0.6276096177	-0.3243951022	-1.1684316171	 0.443264
C	 1.7019383764	 0.5125079858	-1.2761350186	 0.298241
N	 2.3838049839	 0.2412920111	-2.4057862581	-0.313748
N	 1.7649301473	-0.7498684297	-3.0167830476	-0.142726
N	 0.675492178	-1.1027567851	-2.2521594649	-0.388767
H	-0.4707377655	 1.9697498019	 0.8218431416	 0.118522
H	-0.4628918849	 1.9205249981	-0.9802142283	 0.124883
H	 2.2253928223	 2.129191611	 0.2699436906	 0.094421
H	 1.7903748637	-0.7153822798	 1.0131972538	 0.124883
H	 0.812204714	 0.4689504214	 1.9568261801	 0.118526
H	 0.0802798837	-1.8510192605	-2.5689067564	 0.283325
121.8008	315.6669	423.8041	504.2687	558.3111	574.2307	676.4657	696.2225	716.4338	765.8541	806.5927	815.8291	832.3216	908.6196	946.3857	980.0238	1022.6995	1034.0261	1062.0101	1090.6049	1120.4112	1174.7145	1175.8733	1201.0395	1233.2447	1238.2709	1298.2099	1338.6083	1422.8075	1488.8147	1524.6962	1525.8938	1564.7391	3058.8222	3068.4235	3137.1058	3141.432	3153.4045	3663.0752
C1C2CN1C1=C2N=NN1	C1[C@H]2CN1c1c2nn[nH]1	
InChI=1S/C5H6N4/c1-3-2-9(1)5-4(3)6-8-7-5/h3H,1-2H2,(H,6,7,8)	InChI=1S/C5H6N4/c1-3-2-9(1)5-4(3)6-8-7-5/h3H,1-2H2,(H,6,7,8)
