20
gdb 33190	5.89226	0.70878	0.64996	1.5659	84.33	-0.178	0.0406	0.2186	1756.1497	0.171427	-403.174424	-403.165144	-403.1642	-403.20978	33.771	
C	-0.0826935961	 1.5457286766	-0.1098355435	-0.381119
C	 0.2346566776	 0.054221654	 0.020610581	-0.184922
C	 0.5881624978	-0.5875444312	-1.3196599367	-0.126237
N	 0.8997857355	-2.0083160798	-1.1444489107	-0.408592
C	 1.3728487426	-2.7318452041	-2.2241970147	 0.440526
C	 1.1871479161	-4.0199162435	-2.639597397	-0.304965
C	 2.0543038539	-4.1924631513	-3.7721965388	-0.157136
C	 2.6825142777	-3.0095331243	-3.9658433873	-0.033245
O	 2.2750834755	-2.1012507368	-3.0159888646	-0.179686
H	 0.7733311351	 2.0986054978	-0.5115839547	 0.12012
H	-0.9312458267	 1.7158612283	-0.7814656405	 0.117607
H	-0.3343760703	 1.9819545369	 0.8611462304	 0.11686
H	 1.068735588	-0.0999939724	 0.7145363373	 0.111849
H	-0.6298475022	-0.4671937015	 0.455086917	 0.091159
H	-0.2338858484	-0.4319660193	-2.0392205038	 0.091742
H	 1.4730971227	-0.1040611575	-1.7425268895	 0.130623
H	 0.1649618202	-2.5115480755	-0.6655350882	 0.235791
H	 0.5212516743	-4.7466646683	-2.2028261935	 0.090621
H	 2.1776008454	-5.0859100257	-4.3645363301	 0.103975
H	 3.3937933114	-2.6386134723	-4.6831176722	 0.125029
44.7026	56.4557	98.3153	136.0882	233.9767	258.2709	320.8207	344.2925	461.3577	600.1558	641.0923	663.1324	708.4396	741.6639	753.9375	764.0971	831.7266	893.5306	898.9504	916.8069	955.4527	1028.5042	1043.5868	1083.1016	1095.6103	1138.314	1168.1388	1182.4795	1242.1036	1269.71	1306.2976	1318.9898	1331.1557	1398.5531	1411.565	1424.3287	1484.8804	1490.9266	1500.2025	1505.5275	1521.6095	1571.2475	1652.2399	2955.8769	3012.5729	3033.6004	3062.0269	3091.0912	3102.4065	3108.6224	3249.2213	3262.4282	3296.0183	3581.5459
CCCNC1=CC=CO1	CCCNc1ccco1	
InChI=1S/C7H11NO/c1-2-5-8-7-4-3-6-9-7/h3-4,6,8H,2,5H2,1H3	InChI=1S/C7H11NO/c1-2-5-8-7-4-3-6-9-7/h3-4,6,8H,2,5H2,1H3
