20
gdb 116643	3.24378	0.78196	0.75689	3.9856	81.29	-0.2383	-0.0194	0.2189	1617.6031	0.166108	-440.290112	-440.279047	-440.278103	-440.32748	38.055	
C	 0.125579944	 1.3518681706	 0.1763606581	-0.252194
O	-0.079408269	 0.0745649533	-0.4167690998	-0.191739
C	-1.1772770475	-0.589519228	-0.0038638613	 0.122487
N	-1.4207952375	-1.7371570111	-0.4576302154	-0.258396
C	-2.6048347761	-2.4810422252	-0.0414141064	 0.173396
C	-3.4198030738	-1.9216788304	 1.1294458655	-0.434164
C	-3.4966920264	-2.6583603514	-1.2942213707	-0.397177
C	-2.0801602659	-3.8856354318	 0.2991367778	 0.165714
O	-2.4979814701	-4.5807009969	 1.1870928253	-0.258935
H	 1.0247543951	 1.7625903531	-0.2838905518	 0.149061
H	-0.7169508606	 2.0263881337	-0.019125153	 0.127631
H	 0.281468683	 1.2717103849	 1.2589477975	 0.129787
H	-1.7872490843	-0.0375590988	 0.7222336481	 0.082491
H	-3.9202836828	-0.9871194712	 0.8578129156	 0.109538
H	-4.1801787397	-2.6488104643	 1.4202365521	 0.138181
H	-2.7896186848	-1.7436785502	 2.0060435479	 0.12115
H	-2.9272225085	-3.1071670125	-2.1125135974	 0.132392
H	-4.3605391937	-3.2905798996	-1.069243015	 0.126406
H	-3.8518029994	-1.6788819435	-1.6286612887	 0.121676
H	-1.266897792	-4.2173839807	-0.3818355084	 0.092697
34.3761	49.5213	102.1659	142.1359	152.4421	204.5406	228.8336	268.1543	284.9853	297.2478	343.7268	361.272	424.7991	489.5008	514.3159	667.0828	778.4309	890.8707	930.8547	956.6336	989.5494	1012.9847	1038.4676	1062.1165	1158.7875	1175.9249	1186.4021	1215.5687	1257.9079	1286.4728	1386.7481	1390.7608	1411.6415	1419.9697	1479.335	1482.7423	1484.5837	1494.0567	1494.6903	1500.1285	1506.4626	1768.4858	1835.1951	2907.1915	3012.867	3036.5246	3039.1703	3046.8053	3078.3892	3109.7179	3115.1267	3123.9467	3135.6488	3146.9328
COC=NC(C)(C)C=O	COC=NC(C)(C)C=O	
InChI=1S/C6H11NO2/c1-6(2,4-8)7-5-9-3/h4-5H,1-3H3	InChI=1S/C6H11NO2/c1-6(2,4-8)7-5-9-3/h4-5H,1-3H3
