19
gdb 78301	2.68545	1.75035	1.4821	2.9986	74.02	-0.2326	0.0733	0.306	971.7857	0.160198	-422.981615	-422.974283	-422.973338	-423.012865	30.656	
C	 0.0262092459	 1.4938498553	 0.1193295643	-0.498431
C	 0.0211726493	-0.0035042117	 0.0042321515	 0.403785
C	 0.8947081834	-0.8172031028	-0.9985971119	-0.25489
C	 0.7193113281	-1.8391909013	 0.1508010288	 0.052254
O	 0.753279066	-0.7060167872	 1.0830953117	-0.34719
C	-0.7743521732	-2.1994104716	 0.080910321	-0.13756
C	-1.6892180227	-1.6336762075	 1.1452051322	 0.137261
O	-1.3737451646	-1.4010364513	 2.4752455913	-0.435877
C	-1.3238840968	-0.7633118617	-0.0371246573	-0.179007
H	 1.0478517197	 1.8805007575	 0.1619690164	 0.1282
H	-0.4794985978	 1.9383104897	-0.7441219909	 0.126415
H	-0.5070218667	 1.8085584	 1.0218318888	 0.140136
H	 0.4765026408	-1.0567710032	-1.979197819	 0.098121
H	 1.9143752708	-0.4327155219	-1.071089872	 0.106678
H	 1.4469580863	-2.6166173507	 0.3809550177	 0.088519
H	-1.0889882336	-3.0211944768	-0.5529975335	 0.089627
H	-2.7012051192	-2.0268454168	 1.0807810955	 0.10446
H	-0.4645653698	-1.0669493951	 2.4644550402	 0.290624
H	-2.069002896	-0.458403043	-0.7641763446	 0.086876
159.756	207.3838	258.3969	301.1209	343.0201	410.3786	547.9991	563.3415	597.2068	634.2527	718.1232	729.7925	739.9898	774.0836	816.6433	822.7421	866.997	917.9634	950.3655	970.8972	987.4449	1027.1447	1031.2037	1070.6379	1077.728	1100.718	1128.2746	1186.4069	1200.3649	1213.8356	1244.1687	1263.337	1284.1345	1313.0511	1353.9473	1369.5675	1415.5666	1479.0852	1479.8918	1486.2087	1492.8096	3040.4209	3064.2429	3110.4422	3121.3942	3128.5065	3136.2073	3138.2766	3163.0986	3174.1133	3706.195
CC12CC(O1)C1C(O)C21	C[C@@]12C[C@@H](O1)[C@H]1[C@@H](O)[C@@H]21	
InChI=1S/C7H10O2/c1-7-2-3(9-7)4-5(7)6(4)8/h3-6,8H,2H2,1H3	InChI=1S/C7H10O2/c1-7-2-3(9-7)4-5(7)6(4)8/h3-6,8H,2H2,1H3/t3-,4-,5+,6-,7+/m1/s1
