14
gdb 28077	5.7417	0.97427	0.83352	3.5406	67.01	-0.2015	0.0022	0.2037	1279.7076	0.102551	-470.066554	-470.058697	-470.057753	-470.099145	29.039	
N	-0.0371068554	 1.351861923	 0.1429552395	-0.589188
C	-0.0514726993	-0.0139915532	 0.0490855483	 0.477456
N	-1.090827447	-0.7962252356	 0.0332725563	-0.414215
C	-0.5284347354	-2.0666880696	 0.0100517984	 0.341574
N	-1.3787760635	-3.1666617135	-0.0081560996	-0.399588
C	-0.9638067951	-4.4656102133	-0.0400239373	 0.140042
O	 0.1965535676	-4.8153422896	-0.0585381421	-0.309828
C	 0.8221823419	-1.9953105096	 0.0054829893	-0.12509
O	 1.1375213637	-0.637202969	 0.0318651877	-0.184098
H	 0.7808464089	 1.7968708801	-0.2457152991	 0.268294
H	-0.907596639	 1.7831529357	-0.1282094043	 0.272422
H	-2.3651828324	-2.9563741731	 0.0071531576	 0.265408
H	-1.8167017859	-5.1696475698	-0.0474083417	 0.086412
H	 1.6300063508	-2.6979481123	-0.0161658129	 0.170398
73.7294	158.2927	201.9146	279.363	290.1777	321.7255	407.7332	467.6187	563.9719	572.3869	603.3233	652.8699	700.9655	754.4535	775.4059	876.6355	975.8704	1013.3445	1015.8715	1096.9252	1128.9123	1157.1489	1235.6099	1296.5948	1427.4188	1448.5466	1538.8282	1606.8338	1660.5843	1690.0461	1797.2751	2961.4114	3355.3202	3582.8521	3631.9497	3692.9564
NC1=NC(NC=O)=CO1	Nc1nc(NC=O)co1	
InChI=1S/C4H5N3O2/c5-4-7-3(1-9-4)6-2-8/h1-2H,(H2,5,7)(H,6,8)	InChI=1S/C4H5N3O2/c5-4-7-3(1-9-4)6-2-8/h1-2H,(H2,5,7)(H,6,8)
