18
gdb 91684	3.32179	1.2927	1.14106	2.0519	77.94	-0.2267	0.0381	0.2648	1110.9821	0.148353	-401.867491	-401.859645	-401.858701	-401.899512	31.385	
O	-0.1612262466	 1.4108930589	-0.000089921	-0.437088
C	-0.0383881405	-0.0012438046	 0.0139366557	 0.096088
C	 0.4195758536	-0.6037699823	 1.3926053411	-0.213826
N	-0.7691268759	-1.391024587	 1.8282138469	-0.125676
C	-1.1093959434	-2.0620862515	 0.505180977	-0.202638
C	-1.4283397379	-0.643029197	-0.0152635055	-0.03435
C	-1.8754851078	-0.3891289388	 1.4623118899	-0.185726
C	-3.2069905348	-0.8297502772	 1.8258794138	 0.322724
C	-4.3257535821	-1.1573952643	 2.1195009995	-0.402702
H	 0.7185948823	 1.792597992	 0.0749190326	 0.285692
H	 0.5831320822	-0.3435752235	-0.8251707043	 0.069201
H	 1.2850696931	-1.2667886462	 1.3143430794	 0.105694
H	 0.6391808791	 0.18781639	 2.1146884827	 0.107121
H	-0.286079405	-2.6218074139	 0.0514176324	 0.098981
H	-1.987136074	-2.6978347281	 0.6194578602	 0.129823
H	-2.0652381016	-0.4305528311	-0.8736298752	 0.080865
H	-1.6899847408	 0.6174402443	 1.8454750606	 0.113393
H	-5.3102185199	-1.4515898496	 2.3877533543	 0.192425
129.8933	154.8497	209.4218	258.6612	327.712	419.0065	459.8651	499.3693	500.1441	545.386	623.0441	648.7018	692.078	820.5242	845.4377	855.2188	867.326	907.2385	955.5676	972.5254	1003.6314	1017.4735	1059.2605	1094.9725	1120.3235	1147.0358	1173.3173	1185.7384	1245.4046	1249.8327	1263.6808	1280.2747	1310.2288	1327.0494	1372.6181	1424.076	1489.4254	1516.8511	2237.3275	3001.5294	3056.4553	3062.4945	3082.0965	3111.7222	3123.444	3142.9628	3503.4894	3824.8826
OC1CN2CC1C2C#C	O[C@H]1CN2C[C@H]1[C@H]2C#C	
InChI=1S/C7H9NO/c1-2-6-5-3-8(6)4-7(5)9/h1,5-7,9H,3-4H2	InChI=1S/C7H9NO/c1-2-6-5-3-8(6)4-7(5)9/h1,5-7,9H,3-4H2/t5-,6+,7-/m0/s1
