20
gdb 7695	3.32364	2.04623	1.81927	1.6265	73.42	-0.2411	0.0865	0.3276	851.2086	0.177955	-348.992032	-348.984661	-348.983717	-349.022887	30.091	
C	-0.0005527882	 1.4925628978	 0.0292780371	-0.445018
C	-0.0045987535	-0.0407154062	 0.0098396752	 0.346738
C	-1.4402512404	-0.5628733247	-0.1084691803	-0.456209
C	 0.9798333596	-0.6211544508	-1.0729542599	-0.272973
C	 1.9944187087	-1.2749962291	-0.1127244367	 0.085195
C	 1.1139016326	-2.0620384735	 0.8800851591	-0.240017
C	 0.7672301452	-0.6010362752	 1.2411187883	 0.050927
O	 2.1508635489	-0.2459005031	 0.9180932663	-0.300876
H	 1.0126724195	 1.8702325396	 0.1837715286	 0.132298
H	-0.3794850849	 1.8956084794	-0.9164291943	 0.107382
H	-0.6399448422	 1.8781440916	 0.8324656476	 0.103864
H	-1.9152835497	-0.1790930069	-1.017931542	 0.116855
H	-1.4880219424	-1.6548529887	-0.1490207698	 0.11075
H	-2.0489594592	-0.2323685831	 0.7414827549	 0.111879
H	 0.5052182544	-1.3446850483	-1.7426404205	 0.093658
H	 1.4446112856	 0.1603705187	-1.6788732616	 0.103319
H	 2.9361660243	-1.6524094326	-0.5117264964	 0.076167
H	 0.3407995425	-2.7344282574	 0.5022673388	 0.094106
H	 1.7088019196	-2.5379075339	 1.6600901693	 0.110028
H	 0.4469800396	-0.2845371137	 2.2351557763	 0.071928
193.4479	222.3476	242.6116	250.4337	345.8391	370.6475	433.6509	474.2408	560.1232	597.3355	760.1329	807.5705	838.2258	872.7819	878.25	928.8328	938.3767	951.6791	960.0613	976.4097	1012.8836	1048.5746	1057.2764	1076.66	1115.385	1201.6468	1209.6812	1219.0563	1235.6804	1258.9119	1264.3281	1298.091	1317.374	1341.1554	1394.6182	1418.9736	1480.7519	1486.0104	1489.4381	1497.2282	1506.6911	1513.6204	3023.3472	3028.7316	3055.5757	3073.5732	3083.243	3089.2928	3104.5969	3107.9562	3109.1948	3119.9706	3125.1534	3145.3483
CC1(C)CC2CC1O2	CC1(C)C[C@@H]2C[C@H]1O2	
InChI=1S/C7H12O/c1-7(2)4-5-3-6(7)8-5/h5-6H,3-4H2,1-2H3	InChI=1S/C7H12O/c1-7(2)4-5-3-6(7)8-5/h5-6H,3-4H2,1-2H3/t5-,6+/m0/s1
