25
gdb 120958	4.43199	0.76587	0.71532	0.2777	92.52	-0.2573	0.0812	0.3385	1717.6698	0.230465	-352.365505	-352.356091	-352.355146	-352.400219	36.342	
C	-0.0072473664	 1.6031377094	 0.0084721558	-0.379501
C	-0.0389048217	 0.0729381847	-0.0371493705	-0.167708
C	 0.7053108969	-0.5068558962	-1.24621029	-0.182483
C	 0.7243024607	-2.0362316304	-1.3038458393	 0.060736
C	-0.6641742646	-2.7113627618	-1.4699540193	-0.240144
C	-0.3847131288	-4.0578252129	-2.1399527792	-0.03018
C	-0.2102876667	-4.0665863369	-3.6375217026	-0.276108
C	 1.0045748982	-3.9996238531	-2.7475036425	-0.028107
C	 1.5862590489	-2.6159661669	-2.4563547364	-0.257634
H	 1.0219682376	 1.9761950156	 0.0589143278	 0.11217
H	-0.4695643559	 2.0353662686	-0.8861215737	 0.112556
H	-0.5445327368	 1.9900386404	 0.8801482165	 0.109192
H	 0.4021018257	-0.3300906103	 0.8845729653	 0.092049
H	-1.0812541286	-0.2695437616	-0.0485887765	 0.098482
H	 0.2529170769	-0.1204941621	-2.1716030256	 0.086492
H	 1.7395737741	-0.1348528184	-1.2385461156	 0.087508
H	 1.1523241502	-2.4112150663	-0.3632278844	 0.065914
H	-1.1698480338	-2.8396231395	-0.5086996548	 0.097025
H	-1.3231986514	-2.0886833624	-2.0903948863	 0.091819
H	-0.7472299643	-4.961796874	-1.6632886387	 0.078103
H	-0.4025079542	-4.9956027129	-4.1646713627	 0.103189
H	-0.489999268	-3.1752450309	-4.1935860297	 0.101243
H	 1.6632783507	-4.8603173068	-2.7154619676	 0.078244
H	 1.5300589705	-1.9679926108	-3.3411864524	 0.092319
H	 2.642494401	-2.6694271345	-2.1752444977	 0.094822
58.5476	92.5071	101.4276	159.4233	248.78	293.9824	304.4961	348.8484	413.4535	438.437	598.0707	665.1088	742.9227	775.7102	810.0853	828.8756	865.6036	874.1639	893.4417	906.1733	939.9108	990.0846	1002.5668	1019.4353	1039.3939	1054.6861	1068.6802	1082.4389	1108.0601	1112.1632	1147.3187	1159.6447	1205.0849	1207.4474	1238.3388	1276.8227	1279.7221	1296.0343	1320.333	1328.9935	1332.7876	1361.177	1370.4824	1387.9959	1399.6809	1413.2897	1479.7245	1482.6859	1490.7979	1493.0538	1500.1132	1504.6887	1510.6514	2992.6096	2997.0176	3012.8195	3015.9344	3020.381	3026.9051	3027.9861	3054.0362	3075.7233	3080.907	3094.3944	3099.6543	3110.3016	3161.5281	3169.0857	3198.7066
CCCC1CC2CC2C1	CCC[C@H]1C[C@H]2C[C@H]2C1	
InChI=1S/C9H16/c1-2-3-7-4-8-6-9(8)5-7/h7-9H,2-6H2,1H3	InChI=1S/C9H16/c1-2-3-7-4-8-6-9(8)5-7/h7-9H,2-6H2,1H3/t7-,8-,9+
