17
gdb 113120	2.37221	1.18612	0.89044	3.3153	81.33	-0.2677	-0.0091	0.2586	1330.9612	0.133968	-380.823453	-380.813961	-380.813017	-380.857979	34.373	
C	-0.0387994949	 1.5196822087	-0.265872747	-0.382643
C	-0.0295447244	 0.1068473657	 0.3295493484	-0.198623
C	-1.3958040761	-0.5315061793	 0.2636815358	-0.029168
N	-1.799405304	-1.1197995375	-1.0065207174	-0.339962
C	-1.5758802405	-2.0341916528	 0.1500364737	-0.031515
C	-0.4549732687	-2.9348106761	 0.0692004095	 0.308416
C	 0.4760500489	-3.6921445488	 0.030280694	-0.411193
C	-2.7531033197	-2.5779616817	 0.7964039006	 0.230527
N	-3.7089953611	-2.9936470701	 1.2974790726	-0.336383
H	 0.9573926587	 1.9678521408	-0.2156486204	 0.122264
H	-0.3474117826	 1.4940380612	-1.3152872537	 0.134591
H	-0.7281182234	 2.178083223	 0.2740672212	 0.117418
H	 0.6827420888	-0.5253060042	-0.2078654027	 0.125143
H	 0.2924124496	 0.1370753718	 1.3773780451	 0.112223
H	-2.1695614575	-0.038233078	 0.8512676708	 0.113457
H	-2.7991799292	-1.0194540044	-1.1682615214	 0.256646
H	 1.2972371759	-4.3646699483	-0.0146177692	 0.208801
74.3102	114.8009	129.3258	141.7413	203.7131	237.289	263.1032	345.1052	425.9477	480.9895	525.7144	590.9993	618.261	630.3141	664.0141	675.8771	770.9986	806.4434	893.9456	948.9625	988.2712	1052.8901	1072.2472	1099.4689	1125.9549	1224.0851	1247.9037	1301.0719	1330.7775	1349.8523	1409.9308	1450.5809	1479.452	1498.939	1508.0477	2248.5846	2351.8486	3037.1745	3042.7449	3089.9509	3108.8471	3117.8506	3123.1759	3500.22	3503.3678
CCC1NC1(C#C)C#N	CC[C@H]1N[C@]1(C#C)C#N	
InChI=1S/C7H8N2/c1-3-6-7(4-2,5-8)9-6/h2,6,9H,3H2,1H3	InChI=1S/C7H8N2/c1-3-6-7(4-2,5-8)9-6/h2,6,9H,3H2,1H3/t6-,7-/m1/s1
