13
gdb 42616	2.66127	2.19927	1.48748	6.2321	61.69	-0.2577	-0.0347	0.223	838.3188	0.090754	-452.750076	-452.74375	-452.742806	-452.780842	24.873	
O	 0.0354414302	 0.0984623811	 0.322238652	-0.29069
C	-0.0641792576	 1.2601064291	 0.1054131179	 0.425802
C	-1.1425698902	 2.2634299453	-0.083038267	-0.250737
C	-0.6726857712	 3.605295102	 0.6113174913	-0.010148
N	 0.3638912529	 3.5916817048	 1.5969442395	-0.332355
C	 1.3974867793	 2.7548830857	 1.1719422803	 0.399667
O	 2.3587581924	 2.4142580123	 1.7940256237	-0.32694
N	 1.0167634254	 2.2772890177	-0.1652166238	-0.246576
C	-0.0630128934	 3.1893900407	-0.6516323945	-0.037608
H	-2.1736544975	 2.1114017611	-0.3732976636	 0.127469
H	-1.4178978314	 4.3884855071	 0.6698169168	 0.138803
H	 0.1810752402	 3.6483796438	 2.587221084	 0.268527
H	 0.0050039509	 3.6824270493	-1.6106883168	 0.134789
138.5077	150.3552	406.3456	431.4497	449.4482	505.7824	618.3395	671.9493	685.1783	777.5923	784.3102	816.0524	828.6819	862.394	871.278	937.8645	989.1109	1012.8408	1039.2571	1050.3873	1096.6178	1129.1975	1157.2743	1259.9468	1288.9666	1363.1282	1418.6947	1877.8087	1940.5635	3203.9646	3211.9908	3226.9807	3634.0078
O=C1C2C3NC(=O)N1C23	O=C1[C@H]2[C@H]3NC(=O)N1[C@@H]23	
InChI=1S/C5H4N2O2/c8-4-1-2-3(1)7(4)5(9)6-2/h1-3H,(H,6,9)	InChI=1S/C5H4N2O2/c8-4-1-2-3(1)7(4)5(9)6-2/h1-3H,(H,6,9)/t1-,2+,3-/m0/s1
