16
gdb 57027	2.4527	1.37128	0.92457	4.4732	69.99	-0.2737	-0.0496	0.2241	1214.5044	0.122343	-437.89245	-437.883529	-437.882585	-437.926864	31.36	
C	-0.0448929249	 1.4642081929	-0.1646319395	-0.399805
C	 0.0033319828	-0.0592077372	 0.0652698376	-0.166459
C	 0.7962816987	-0.3937435022	 1.2509308751	 0.279158
N	 1.4156082306	-0.6333196311	 2.19643873	-0.312058
C	-1.4172007408	-0.6378260717	 0.2081428966	 0.012847
O	-2.227010427	-0.3838619136	-0.9593641766	-0.290405
C	-2.4837759586	-1.7821068277	-1.2229094648	-0.192778
C	-1.6018288174	-2.1515760007	-0.0233252717	 0.340054
O	-1.2078540026	-3.151692484	 0.4856782756	-0.250985
H	 0.960322649	 1.8592019671	-0.3273932919	 0.141476
H	-0.6590338473	 1.6734848092	-1.042601481	 0.151569
H	-0.4799095532	 1.9725595722	 0.7001977617	 0.140348
H	 0.4782204929	-0.5348372554	-0.8017261706	 0.132854
H	-1.8897200992	-0.2622270193	 1.1258464719	 0.127114
H	-3.5428397206	-2.0472664233	-1.1180271885	 0.143955
H	-2.1198690524	-2.1077325952	-2.2046433641	 0.143115
56.4361	92.6555	124.4487	188.3764	220.458	237.8772	292.4696	367.7474	455.5838	520.8588	537.7217	583.0887	714.6894	796.9316	861.2292	929.6321	966.2303	1005.6067	1035.8649	1063.6363	1083.9965	1093.6056	1136.0441	1150.2796	1246.7749	1271.3142	1299.9422	1325.3131	1363.0192	1407.983	1482.0402	1494.4022	1498.3864	1933.244	2361.2343	3020.5535	3029.3771	3042.4609	3055.3374	3077.4111	3132.0392	3146.1492
CC(C#N)C1OCC1=O	C[C@@H](C#N)[C@H]1OCC1=O	
InChI=1S/C6H7NO2/c1-4(2-7)6-5(8)3-9-6/h4,6H,3H2,1H3	InChI=1S/C6H7NO2/c1-4(2-7)6-5(8)3-9-6/h4,6H,3H2,1H3/t4-,6+/m0/s1
