20
gdb 67777	2.68985	2.06508	1.56847	1.3936	81.9	-0.2151	0.0091	0.2242	932.9662	0.173278	-365.97486	-365.967805	-365.966861	-366.005638	30.13	
C	-0.0108344684	 1.5586842002	-0.0356591902	-0.522252
C	 0.0621387259	 0.052392541	 0.0208311393	 0.313504
C	 0.523225452	-0.7029738426	-1.2221040262	-0.131683
C	 0.3726900059	-1.9801397036	-0.8764126104	-0.09294
C	-0.1634873241	-1.8664034906	 0.5381214079	-0.059029
C	 0.7245888632	-0.7605670383	 1.2047036883	-0.037953
C	-0.0509629347	-0.3495876836	 2.448069796	-0.263176
C	-1.4739764603	-0.3684955934	 1.8002574199	-0.169535
N	-1.2148979545	-0.7530163313	 0.3943009435	-0.143744
H	 0.963461326	 1.9747314729	-0.3134258372	 0.121822
H	-0.7409681731	 1.8759228535	-0.7874658896	 0.132701
H	-0.2993848694	 2.0009605657	 0.9217021145	 0.120023
H	 0.8578596483	-0.2523626843	-2.1457251089	 0.102375
H	 0.5490651942	-2.8899306531	-1.4308222005	 0.106993
H	-0.4713691969	-2.7632427506	 1.0787078283	 0.062171
H	 1.8097988271	-0.8707089229	 1.271739512	 0.059382
H	 0.0578885129	-1.0661552669	 3.2678348239	 0.097514
H	 0.2390935313	 0.6353069733	 2.8272092309	 0.098286
H	-2.1397568476	-1.1058584313	 2.2578697459	 0.102536
H	-1.9788643478	 0.600572436	 1.8351080624	 0.103005
178.9551	256.7801	279.9603	318.3161	390.2314	398.3998	517.749	612.1719	640.3823	660.5276	724.4884	732.0165	776.4502	828.7964	872.4806	898.024	901.8407	915.7951	936.2603	967.2574	977.8884	996.4822	1033.0544	1046.5692	1072.0027	1095.7733	1147.9971	1184.226	1190.8164	1213.6104	1236.0676	1255.2808	1261.2507	1303.712	1306.6368	1327.2193	1347.9332	1413.567	1483.4971	1487.8624	1502.7003	1512.8831	1640.7228	3037.4936	3047.8123	3059.4156	3083.6573	3087.0798	3101.9676	3103.1075	3105.5359	3113.5977	3223.4584	3252.5424
CC12C=CC3C1CCN23	C[C@@]12C=C[C@H]3[C@@H]1CCN23	
InChI=1S/C8H11N/c1-8-4-2-7-6(8)3-5-9(7)8/h2,4,6-7H,3,5H2,1H3	InChI=1S/C8H11N/c1-8-4-2-7-6(8)3-5-9(7)8/h2,4,6-7H,3,5H2,1H3/t6-,7-,8+/m0/s1
