19
gdb 84653	2.378	1.80858	1.37711	2.6796	75.3	-0.2472	-0.012	0.2352	1010.3702	0.160483	-423.021361	-423.013461	-423.012517	-423.053273	31.64	
C	 0.1112397995	 1.5614718815	-0.0250513537	-0.400236
C	 0.0608626191	 0.0282838356	-0.0005831922	-0.047489
C	 0.7199558726	-0.5810313073	-1.2220679625	 0.050983
O	 2.1261861452	-0.8550031237	-1.1355802402	-0.268832
C	 1.1950649297	-1.9745837782	-1.1506379546	-0.01736
C	 1.0183180047	-2.7125347667	 0.1235481467	-0.042754
C	 0.7595533166	-2.0587408791	 1.2582900732	-0.112708
C	 0.6771660045	-0.5462900757	 1.3006066832	 0.06541
O	 1.9568357349	 0.0170475448	 1.5802190007	-0.437091
H	 1.143612668	 1.9144925944	 0.0234381367	 0.136991
H	-0.3519741413	 1.95319357	-0.936347458	 0.107572
H	-0.4239624401	 1.9814208706	 0.8322351162	 0.11591
H	-0.9913490418	-0.2918237719	-0.0276529158	 0.083596
H	 0.4088138319	-0.1822385152	-2.188464892	 0.094625
H	 1.2563586594	-2.5607458823	-2.0644212409	 0.097738
H	 1.1151761022	-3.7936137679	 0.0991767766	 0.098618
H	 0.6662737774	-2.5952908523	 2.1975845961	 0.103254
H	 0.045320784	-0.2386488558	 2.1407138252	 0.084117
H	 2.5168407034	-0.248133891	 0.8364309854	 0.287658
136.3601	197.4762	210.996	265.5403	279.4549	354.7883	415.2531	460.3192	518.0158	578.47	622.3275	703.6733	714.2489	764.1056	809.838	843.3185	911.2114	939.3717	951.4824	984.637	990.4149	1021.9026	1051.6793	1073.7941	1117.728	1144.7343	1161.9976	1191.0204	1258.4194	1285.8528	1312.4153	1333.8639	1356.2118	1389.5276	1406.0599	1416.5355	1449.7211	1460.5567	1493.5099	1501.9217	1700.1967	3002.6357	3040.6152	3052.46	3100.5534	3104.8214	3132.3493	3141.8698	3166.4802	3188.0205	3735.21
CC1C2OC2C=CC1O	C[C@H]1[C@H]2O[C@H]2C=C[C@H]1O	
InChI=1S/C7H10O2/c1-4-5(8)2-3-6-7(4)9-6/h2-8H,1H3	InChI=1S/C7H10O2/c1-4-5(8)2-3-6-7(4)9-6/h2-8H,1H3/t4-,5-,6+,7-/m1/s1
