18
gdb 127855	3.7535	1.12299	0.87383	3.7928	89.73	-0.1956	-0.0295	0.1661	1329.9142	0.148322	-398.140493	-398.131613	-398.130668	-398.174161	32.518	
C	 0.0369382786	 1.4685614885	-0.0527687372	-0.321659
N	 0.1040361439	 0.0187913971	-0.1011025264	-0.32166
C	 0.5971376501	-0.612284242	 0.9091842331	 0.295635
C	 1.1195840871	-0.0194945384	 2.1514481691	-0.072733
N	 1.6104169831	-0.6787908049	 3.1537999759	-0.187998
N	 1.6454023633	-2.0182862436	 3.0491812488	-0.295261
C	 1.1995877846	-2.7333502044	 1.9605401849	 0.423183
C	 1.3342616679	-4.2241943948	 2.0571174047	-0.492385
C	 0.684329881	-2.0608109631	 0.9057283419	-0.286041
H	 1.0262376561	 1.9427678087	 0.0477189311	 0.106273
H	-0.4041994663	 1.834728793	-0.9841599374	 0.114966
H	-0.5878656368	 1.8438632297	 0.7733409409	 0.10628
H	 1.1135102331	 1.0562102947	 2.2839174613	 0.122205
H	 2.0338649356	-2.4839994639	 3.852372781	 0.268652
H	 2.381722337	-4.5212995701	 2.1866502056	 0.140491
H	 0.7710354921	-4.6198589313	 2.9106197222	 0.140463
H	 0.9555035124	-4.6971151642	 1.1501626269	 0.151184
H	 0.3252237772	-2.5934233509	 0.0338932036	 0.108404
92.8575	116.6647	137.0437	168.7324	215.113	291.6685	325.2308	402.7616	460.5681	503.9091	530.4484	582.2093	585.9298	727.3016	747.6156	891.728	913.075	930.7788	993.5574	1015.2626	1066.2107	1070.5082	1095.8828	1133.8034	1146.8743	1229.419	1298.4713	1379.0743	1390.9567	1415.3637	1434.2498	1470.5977	1477.7776	1487.1977	1506.0702	1509.2425	1625.8438	1665.4769	1698.5028	2961.688	3006.7715	3028.8075	3080.4737	3087.0842	3143.1349	3198.607	3211.7623	3653.6714
CN=C1C=NNC(C)=C1	C[N]C1=C[C@H](NN=C1)C	
InChI=1S/C6H9N3/c1-5-3-6(7-2)4-8-9-5/h3-4H,1-2H3,(H,7,9)	InChI=1S/C6H10N3/c1-5-3-6(7-2)4-8-9-5/h3-5,9H,1-2H3/t5-/m1/s1
