16
gdb 97700	3.01448	0.78872	0.68325	0.9205	82.5	-0.2426	0.0052	0.2478	1633.7703	0.121735	-400.640074	-400.63036	-400.629416	-400.676179	34.384	
O	 0.3409939851	 0.8939787759	-0.8254012075	-0.399602
C	-0.0404265218	 0.13783159	 0.3147187277	-0.19941
C	-1.3900879987	-0.417977622	 0.2264009631	 0.077857
C	-2.5202848708	-0.8273464644	 0.1319570923	-0.010553
C	-3.861847573	-1.34634289	 0.0355571552	 0.00025
C	-4.3012373834	-1.8817315198	-1.3052312012	-0.256611
N	-4.0298902345	-2.8121207517	-0.2183737923	-0.333232
C	-4.838370202	-0.7545279075	 0.9190320816	 0.296805
C	-5.6507045722	-0.2405423489	 1.6391641881	-0.450414
H	-0.3352820973	 1.5650291676	-0.9659602139	 0.289126
H	 0.6943280812	-0.6710983415	 0.3942615004	 0.143179
H	 0.0418418003	 0.7309477939	 1.2394138727	 0.125141
H	-5.3487338285	-1.7809780111	-1.5716777021	 0.139324
H	-3.5938097217	-1.788851848	-2.1239738064	 0.132163
H	-3.1032215177	-3.2183676327	-0.329014241	 0.246628
H	-6.367797915	 0.2045702303	 2.2836086834	 0.199349
23.3194	80.1712	94.1572	174.1679	213.967	226.5931	274.7688	343.7476	411.7842	475.44	512.9704	563.7046	589.3134	615.259	624.7081	655.7989	804.9026	845.2976	932.7506	978.5939	988.4435	1018.8241	1056.636	1101.0772	1143.6194	1215.2778	1256.4376	1315.7482	1339.1595	1360.727	1417.0548	1487.2661	1498.5374	2246.4587	2352.4097	2980.7082	3063.6526	3117.8743	3214.3456	3501.1049	3503.1618	3815.556
OCC#CC1(CN1)C#C	OCC#C[C@]1(CN1)C#C	
InChI=1S/C7H7NO/c1-2-7(6-8-7)4-3-5-9/h1,8-9H,5-6H2	InChI=1S/C7H7NO/c1-2-7(6-8-7)4-3-5-9/h1,8-9H,5-6H2/t7-/m0/s1
