17
gdb 30112	3.78604	1.13474	1.09244	2.4863	75.19	-0.2191	0.0202	0.2393	1166.5952	0.137515	-418.031294	-418.023412	-418.022468	-418.064109	29.577	
C	 1.2027214358	 0.8272120842	-0.6658818868	-0.431623
C	 0.1247052586	 0.0132494088	-0.0036871825	 0.092921
O	 0.5156324014	-1.1618971178	 0.7220541022	-0.273694
C	-0.0746296006	-0.0821498859	 1.4600646917	-0.064486
C	 0.8104561766	 0.5530321548	 2.4569871832	 0.344899
N	 0.4691047477	 1.4698854348	 3.3372588221	-0.319267
C	 1.6138813672	 1.7251381751	 4.0563755181	-0.09049
C	 2.6509385892	 0.9479631932	 3.6100075678	-0.11196
N	 2.1234293609	 0.2043987579	 2.5787844209	-0.264356
H	 1.5923959897	 0.2997976722	-1.5428499168	 0.130682
H	 0.7909645022	 1.7834271067	-1.0050084749	 0.133898
H	 2.0319755357	 1.0331379954	 0.0139060384	 0.129156
H	-0.7681411981	-0.1445694735	-0.6116737656	 0.099027
H	-1.0881533152	-0.2581244982	 1.8182402505	 0.115694
H	 1.6249225709	 2.4505360337	 4.8555895866	 0.107519
H	 3.6786646615	 0.8516592962	 3.9174172779	 0.128541
H	 2.5650591565	-0.5278753475	 2.0472524673	 0.273539
73.4354	123.9528	169.1872	208.2866	276.2075	385.3801	450.9022	514.2336	606.4618	665.2568	691.3089	731.0825	762.8487	796.7172	858.5166	864.5494	932.1331	966.9287	996.8137	1031.4945	1084.4437	1097.0948	1134.6185	1153.3218	1169.9471	1180.9108	1264.7471	1291.9006	1360.1591	1401.2019	1415.0142	1447.5185	1467.9324	1488.7787	1498.9298	1512.5615	1592.8993	3042.1104	3091.8098	3104.5682	3124.7202	3136.2241	3249.2763	3282.7728	3663.1221
CC1OC1C1=NC=CN1	C[C@H]1O[C@H]1c1ncc[nH]1	
InChI=1S/C6H8N2O/c1-4-5(9-4)6-7-2-3-8-6/h2-5H,1H3,(H,7,8)	InChI=1S/C6H8N2O/c1-4-5(9-4)6-7-2-3-8-6/h2-5H,1H3,(H,7,8)/t4-,5-/m1/s1
