17
gdb 115178	2.45792	1.45787	1.12778	3.3635	64.51	-0.2365	-0.0299	0.2066	1114.7891	0.134447	-496.105182	-496.096259	-496.095315	-496.139198	32.012	
C	 0.0039777571	 1.0780401288	-0.5843154126	-0.248492
O	-0.2055299892	-0.3185552587	-0.4382385443	-0.264156
C	-1.3267517494	-0.6563480147	 0.3344347398	 0.166817
O	-2.5504855822	-0.3409590053	-0.3031733599	-0.262732
C	-2.8277781181	-1.3354721362	-1.291872746	-0.188386
C	-1.9970350238	-2.5550946557	-0.8966524966	 0.329076
O	-1.8662265144	-3.5713735798	-1.5195929087	-0.292842
C	-1.3132306267	-2.1883903198	 0.4383363845	 0.005912
O	-0.0736377233	-2.7823644855	 0.6661651852	-0.419343
H	 0.8922910765	 1.2047046915	-1.205656975	 0.13573
H	-0.8538883744	 1.557879403	-1.0679027605	 0.133624
H	 0.1751585537	 1.553440002	 0.3917276478	 0.118534
H	-1.3257654862	-0.1149436877	 1.2877255843	 0.086997
H	-3.8995643839	-1.5574364843	-1.2835314615	 0.141255
H	-2.5498870993	-1.0007674216	-2.2992255227	 0.136396
H	-1.9874502501	-2.4876452242	 1.2508484049	 0.125303
H	 0.5514474736	-2.3448979617	 0.0745132915	 0.296307
69.7763	107.7061	146.6693	189.1431	199.6554	247.3776	320.8343	366.215	443.6145	477.954	541.5896	598.5759	673.4189	741.4909	765.6633	919.362	955.4452	1015.7066	1039.5137	1061.9487	1112.6384	1131.899	1166.0202	1183.3245	1206.1203	1214.4538	1265.5985	1295.2882	1324.0129	1365.8477	1384.1785	1433.5759	1477.5422	1482.6486	1485.8349	1512.3621	1875.8454	3005.9133	3029.9266	3040.756	3052.1811	3077.9347	3085.846	3135.1332	3788.7465
COC1OCC(=O)C1O	CO[C@H]1OCC(=O)[C@H]1O	
InChI=1S/C5H8O4/c1-8-5-4(7)3(6)2-9-5/h4-5,7H,2H2,1H3	InChI=1S/C5H8O4/c1-8-5-4(7)3(6)2-9-5/h4-5,7H,2H2,1H3/t4-,5+/m1/s1
