17
gdb 129980	4.67534	0.81418	0.72347	4.4586	71.16	-0.2227	0.0309	0.2537	1521.8412	0.137624	-451.350808	-451.341707	-451.340762	-451.38544	32.581	
N	-0.1083882345	 1.32087267	 0.0788230918	-0.599956
C	-0.0611691069	-0.0578991042	 0.0092901668	 0.407387
N	-1.0998893567	-0.8650671662	-0.0886169313	-0.361015
C	-0.5290733567	-2.1130766947	-0.0332641267	 0.329953
C	-1.333380725	-3.3682620808	-0.1135280703	-0.279979
C	-2.0869271297	-3.4925546422	-1.4379537357	-0.069891
O	-2.8457528156	-4.6913273176	-1.3837466856	-0.420605
N	 0.7858665539	-2.1190632041	 0.079842771	-0.276154
N	 1.0765906356	-0.7787556325	 0.1085602477	-0.250436
H	 0.6287128452	 1.8022840373	-0.4176212502	 0.254938
H	-1.020824758	 1.6678614589	-0.1835284539	 0.269289
H	-0.6696327083	-4.2269195007	 0.0136241917	 0.125018
H	-2.069397041	-3.3892637962	 0.6982126376	 0.122437
H	-2.7292196622	-2.6105822925	-1.5733301772	 0.104474
H	-1.3658265294	-3.5108173396	-2.2706676601	 0.08762
H	-3.349467463	-4.7629771086	-2.199414004	 0.284586
H	 2.0222126121	-0.4728616664	 0.2609609384	 0.272336
50.6631	89.229	106.114	242.8141	244.8987	265.7808	309.878	349.6019	388.6348	430.2483	472.2455	645.0955	683.8387	742.6095	764.7075	807.295	831.084	1009.0929	1021.1735	1055.8763	1066.7963	1079.6775	1121.3226	1140.2313	1217.7076	1240.967	1302.4796	1324.834	1330.0958	1400.2306	1455.1691	1477.4492	1497.3054	1529.1776	1573.5095	1603.7699	1659.7241	2974.2649	3017.7637	3049.7491	3114.0333	3557.7967	3656.5421	3675.5712	3832.8893
NC1=NC(CCO)=NN1	Nc1nc(CCO)n[nH]1	
InChI=1S/C4H8N4O/c5-4-6-3(1-2-9)7-8-4/h9H,1-2H2,(H3,5,6,7,8)	InChI=1S/C4H8N4O/c5-4-6-3(1-2-9)7-8-4/h9H,1-2H2,(H3,5,6,7,8)
