18
gdb 31054	2.33811	1.406	0.90143	1.8777	77.86	-0.1809	0.02	0.2009	1299.6429	0.147922	-435.299437	-435.28989	-435.288946	-435.334038	34.103	
C	 0.077501307	 1.4680319164	-0.010241992	-0.324056
N	-0.2793937209	 0.0743669818	 0.2216484847	-0.389537
C	 0.4869496583	-0.6617035854	 1.1084264844	 0.306451
C	 0.7707150236	-1.9928652279	 1.0774095315	 0.14607
N	 0.4529235466	-2.9901119694	 0.1641986323	-0.608852
O	 1.4951747845	-2.271624855	 2.2451594877	-0.204737
C	 1.6089508938	-1.0841341494	 2.8672311566	 0.389101
C	 2.3621293784	-1.0344159134	 4.1484729834	-0.487917
N	 1.0334849372	-0.0943475647	 2.2509393301	-0.361251
H	 1.0496399682	 1.5999403678	-0.5113305988	 0.103599
H	-0.697288677	 1.9342953736	-0.6245293838	 0.115972
H	 0.1209533631	 1.9877646915	 0.9482361375	 0.155476
H	-0.4578334975	-0.4497506596	-0.6246304404	 0.237559
H	-0.193263142	-3.6855363625	 0.5254396629	 0.244367
H	 1.2656782666	-3.4716363362	-0.2072337878	 0.243577
H	 1.9127297858	-1.6958460796	 4.8966622301	 0.141421
H	 3.400589802	-1.3540988123	 4.010021992	 0.140421
H	 2.3521740124	-0.0115018358	 4.5256709998	 0.152336
81.1925	93.7689	140.6182	171.2132	194.068	232.0871	268.5035	295.4087	338.0804	388.3418	543.1048	600.5061	648.8595	660.4057	704.7796	746.8405	769.4028	850.4352	991.4889	1011.9996	1052.3977	1063.3614	1116.0795	1150.009	1155.3333	1211.4702	1252.4099	1339.5343	1410.8024	1417.4276	1466.6197	1475.9593	1478.5231	1481.6682	1497.0328	1523.847	1612.3607	1656.8478	1736.7114	2976.7737	3040.1023	3086.6392	3092.8748	3140.3034	3154.3838	3483.1475	3546.01	3580.3127
CNC1=C(N)OC(C)=N1	CNc1c(N)oc(C)n1	
InChI=1S/C5H9N3O/c1-3-8-5(7-2)4(6)9-3/h7H,6H2,1-2H3	InChI=1S/C5H9N3O/c1-3-8-5(7-2)4(6)9-3/h7H,6H2,1-2H3
