21
gdb 118697	2.36565	1.0601	0.98843	1.5963	76.24	-0.2348	0.0702	0.305	1373.5289	0.179187	-461.327447	-461.316732	-461.315788	-461.36319	38.703	
C	-0.116273118	 1.3449919538	-0.089975404	-0.224623
O	-0.1299076328	-0.0535918897	 0.0662938927	-0.253353
C	 0.7080855122	-0.5079503939	 1.1191924841	-0.132956
C	 0.6752000891	-2.0142941706	 1.060847114	 0.36966
O	 0.9628459933	-2.5145560231	-0.2159763161	-0.476671
C	 1.1756610433	-2.8800754509	 2.1863273588	-0.112147
C	 1.7675633441	-2.3247629778	 3.4640829991	-0.426942
C	-0.3190238756	-2.787262307	 1.8931532726	 0.004122
O	-1.1454673608	-2.0536260734	 2.75186048	-0.418253
H	 0.894894992	 1.7206948026	-0.3130044867	 0.105444
H	-0.7769912719	 1.5882222129	-0.9256849354	 0.127489
H	-0.4821767521	 1.8577946423	 0.812705886	 0.109516
H	 1.7368570185	-0.1441593517	 0.9605845156	 0.088557
H	 0.3473361628	-0.1373869092	 2.0863285019	 0.109071
H	 0.4303042008	-1.9843916253	-0.8236543794	 0.287095
H	 1.640061479	-3.7936364253	 1.8240693674	 0.098688
H	 1.1628603647	-1.508387788	 3.8668588413	 0.125755
H	 1.8237292137	-3.103856208	 4.2326221579	 0.114808
H	 2.783708942	-1.9489670678	 3.3048830908	 0.123612
H	-0.7882074099	-3.6405898717	 1.4052525843	 0.091278
H	-1.2583934244	-2.5606789881	 3.563180625	 0.289847
65.487	93.2517	116.4791	170.4282	187.0346	223.6374	238.7403	254.89	293.161	331.2479	362.2652	417.8513	460.5092	495.59	530.6363	591.7087	764.688	832.6181	874.678	955.8865	990.6195	1001.1387	1034.2689	1061.4784	1122.3625	1147.0323	1155.6742	1160.2501	1185.3267	1221.0881	1230.5861	1260.5828	1285.0854	1305.4117	1359.2498	1376.8811	1411.864	1423.1195	1476.1339	1484.6766	1485.6378	1495.6724	1502.4074	1513.994	1518.8128	2965.1141	2976.1679	3020.1179	3032.8522	3051.0676	3088.4082	3111.0108	3113.9664	3115.5953	3148.825	3766.4061	3794.5014
COCC1(O)C(C)C1O	COC[C@@]1(O)[C@@H](C)[C@H]1O	
InChI=1S/C6H12O3/c1-4-5(7)6(4,8)3-9-2/h4-5,7-8H,3H2,1-2H3	InChI=1S/C6H12O3/c1-4-5(7)6(4,8)3-9-2/h4-5,7-8H,3H2,1-2H3/t4-,5+,6+/m0/s1
