21
gdb 111119	3.45832	1.29916	1.20127	0.9664	81.88	-0.2402	0.0946	0.3348	1137.2726	0.184552	-387.033886	-387.026206	-387.025262	-387.065939	31.198	
C	-0.292007852	 1.2895770943	 0.0369897379	-0.244837
O	 0.3075197161	 0.0261156614	-0.1388243388	-0.265685
C	 0.8550762396	-0.4992924914	 1.0477542245	 0.172443
C	-0.1609653566	-1.2215598013	 1.9922201562	-0.087892
C	-0.1410136947	-2.3673000962	 0.9170439837	-0.218315
C	 1.3697960384	-1.9415750624	 0.8226430289	-0.074544
C	 1.8662440778	-2.3809648326	 2.2126678014	-0.034852
C	 2.1519863065	-1.3654827528	 3.2942046554	-0.315011
C	 0.7344458168	-1.8455807298	 3.079024319	-0.033587
H	 0.4235798449	 2.0255433294	 0.4367204341	 0.103667
H	-0.6303904459	 1.6263527105	-0.9459194869	 0.126105
H	-1.1575700959	 1.2506135984	 0.7146654144	 0.107292
H	 1.5294660203	 0.2453781997	 1.4843218909	 0.053749
H	-1.0841240207	-0.7388181519	 2.3147299262	 0.058435
H	-0.3505550948	-3.3808602762	 1.2688425099	 0.083182
H	-0.7124507107	-2.1329395614	 0.0196846597	 0.110459
H	 1.9894872772	-2.1739846131	-0.0435415757	 0.064577
H	 2.2487332776	-3.3896968813	 2.3201977074	 0.087043
H	 2.6367763616	-1.7686136283	 4.1786489021	 0.105731
H	 2.4638714344	-0.3526337721	 3.0725650762	 0.115689
H	 0.2607732703	-2.4473231128	 3.8467927434	 0.086351
93.4279	173.9422	183.9002	313.1837	334.3342	386.4624	439.7187	524.7286	549.7556	636.2131	777.0254	803.4815	822.4051	841.7668	882.06	901.0297	909.8605	948.3024	985.7061	1002.6888	1017.3959	1029.9655	1081.6803	1082.8345	1084.7217	1087.4979	1106.4075	1118.6882	1156.0242	1183.9584	1193.7539	1219.229	1226.3428	1247.6835	1258.003	1259.1327	1278.1352	1323.9836	1367.2394	1421.4935	1479.3096	1486.3908	1495.6236	1503.441	1514.9062	2974.8941	3023.6308	3036.121	3067.6225	3106.938	3113.9582	3115.9284	3134.2644	3151.2313	3163.6996	3173.4012	3213.3084
COC1C2CC1C1CC21	CO[C@H]1[C@H]2C[C@@H]1[C@H]1C[C@@H]21	
InChI=1S/C8H12O/c1-9-8-6-3-7(8)5-2-4(5)6/h4-8H,2-3H2,1H3	InChI=1S/C8H12O/c1-9-8-6-3-7(8)5-2-4(5)6/h4-8H,2-3H2,1H3/t4-,5+,6+,7-,8+
