19
gdb 63837	2.74958	1.48729	1.23153	1.9666	75.62	-0.2451	-0.0284	0.2167	1084.1957	0.156911	-423.022961	-423.014298	-423.013354	-423.056036	33.267	
C	 0.2208508259	 1.4414490586	-0.205248515	-0.42665
C	 0.0188609078	-0.0488453307	 0.0178505106	 0.397618
C	-1.4434203796	-0.4556876718	-0.1245647769	-0.421664
O	 0.8425589168	-0.8509277723	-0.8886109657	-0.335521
C	 1.425764481	-1.5925426093	 0.1943949911	 0.113356
C	 2.8074990512	-1.0378631396	 0.6206552672	-0.369502
C	 2.0699815871	-0.1248070656	 1.6246684488	 0.405823
O	 2.4288493399	 0.6877891917	 2.4259841613	-0.301231
C	 0.6986982393	-0.7151106821	 1.2581912597	-0.262804
H	 1.2744030552	 1.7206561647	-0.1347648902	 0.129349
H	-0.1414395388	 1.7203029063	-1.2000374738	 0.12529
H	-0.3371313828	 2.0204044709	 0.5375581387	 0.126887
H	-1.7955742057	-0.2253858075	-1.1350755601	 0.127435
H	-1.5693168628	-1.5286854563	 0.0448673416	 0.120186
H	-2.069020977	 0.085624927	 0.5930856828	 0.119001
H	 1.3109768682	-2.6725704078	 0.0883494514	 0.086637
H	 3.4355795393	-1.7681545326	 1.1440672425	 0.132538
H	 3.3946919086	-0.5511040175	-0.1614079595	 0.138327
H	 0.0515097264	-1.0572912761	 2.0650848756	 0.094925
81.8936	127.2385	190.5617	224.9856	258.3239	328.3263	370.9233	377.7918	447.2405	453.3226	529.9032	598.1126	689.1188	776.3786	831.9783	852.7417	886.3188	930.8697	945.477	974.4272	978.8396	1002.6962	1032.7296	1059.2303	1108.1149	1140.7916	1166.0398	1171.3256	1224.2876	1235.0583	1272.2072	1283.4922	1327.0042	1401.418	1417.3423	1417.9805	1471.6786	1479.2822	1492.4528	1502.8154	1887.4393	3033.9457	3042.2556	3049.5235	3095.6743	3105.7178	3112.9714	3115.6228	3120.2049	3123.8653	3127.8587
CC1(C)OC2CC(=O)C12	CC1(C)O[C@H]2CC(=O)[C@@H]12	
InChI=1S/C7H10O2/c1-7(2)6-4(8)3-5(6)9-7/h5-6H,3H2,1-2H3	InChI=1S/C7H10O2/c1-7(2)6-4(8)3-5(6)9-7/h5-6H,3H2,1-2H3/t5-,6+/m0/s1
