21
gdb 94003	1.92623	1.71166	1.33271	2.9774	77.37	-0.2535	-0.0363	0.2172	1100.9034	0.182874	-424.252926	-424.243903	-424.242959	-424.286871	34.357	
C	 0.2493354185	 1.5572309209	 0.5976089563	-0.410344
C	 0.256735258	 0.1151616258	 0.0870917071	 0.004539
C	 1.2128973608	-0.1054097702	-1.112370519	-0.214799
C	 1.838445695	-1.4955765509	-0.8985971423	-0.237576
C	 2.0053338209	-1.5768514695	 0.6384894917	-0.139126
C	 3.2671570343	-0.8517308264	 1.0382333979	 0.163792
O	 3.3266476849	 0.1980391913	 1.6385956641	-0.267728
C	 0.6942701463	-0.9416265018	 1.1737039116	 0.123554
O	 0.7591721953	-0.475757831	 2.5008368777	-0.438737
H	 1.2524982938	 1.8740310113	 0.9015394835	 0.124873
H	-0.0929215231	 2.2393487309	-0.1877615215	 0.106051
H	-0.4130417294	 1.6653469243	 1.4601469929	 0.126302
H	-0.7639125449	-0.1375561511	-0.2215296109	 0.071654
H	 0.7096921088	-0.0204148766	-2.0793283716	 0.09852
H	 2.0021308421	 0.6559525018	-1.0972960497	 0.10599
H	 1.1544621144	-2.2880672655	-1.2211178532	 0.111003
H	 2.7767063828	-1.6382672889	-1.4446689602	 0.103097
H	 2.1296519868	-2.6167357034	 0.9667820392	 0.093542
H	 4.2047381022	-1.35572001	 0.7103366847	 0.092914
H	-0.0595378576	-1.7361096134	 1.1949641574	 0.087026
H	 1.5182739701	 0.1209070522	 2.5474873244	 0.295452
49.6196	96.8159	175.5955	236.2086	255.6906	278.594	323.5472	378.2954	393.7074	509.869	569.3698	582.1348	606.0745	718.3332	779.5023	842.4821	857.5448	894.553	930.4724	960.6303	983.7341	1024.9219	1033.0936	1065.6157	1103.646	1143.9047	1171.573	1178.4889	1196.7756	1248.9284	1282.3439	1309.8494	1316.5783	1336.2151	1348.8501	1368.5445	1379.5483	1408.6322	1426.9995	1467.8257	1488.5987	1496.42	1501.3219	1509.8184	1798.2008	2876.6275	3022.3221	3029.6708	3033.642	3037.1822	3042.5239	3051.898	3081.0171	3093.4709	3101.961	3120.5791	3752.2139
CC1CCC(C=O)C1O	C[C@H]1CC[C@@H](C=O)[C@H]1O	
InChI=1S/C7H12O2/c1-5-2-3-6(4-8)7(5)9/h4-7,9H,2-3H2,1H3	InChI=1S/C7H12O2/c1-5-2-3-6(4-8)7(5)9/h4-7,9H,2-3H2,1H3/t5-,6-,7-/m0/s1
