16
gdb 48770	3.09764	1.31229	1.05487	2.6548	69.79	-0.246	-0.0392	0.2068	1112.9917	0.123397	-437.895126	-437.887343	-437.886399	-437.927864	29.218	
O	-0.3076876368	 0.1257566374	 0.1618448989	-0.256741
C	-0.073639683	 1.2862429615	-0.0642880012	 0.104054
C	 1.2872643186	 1.884494609	-0.0058486834	 0.22045
C	 1.4446909617	 3.332253521	 0.3405063844	-0.280888
N	 1.5421211717	 2.942436677	-1.0555167862	-0.130974
C	 2.9154870314	 2.752743095	-1.5308208661	-0.277525
C	 3.5801382911	 1.6451338645	-0.6905285305	 0.382117
O	 4.7423147392	 1.3472203071	-0.7199895233	-0.291761
C	 2.4916829276	 0.9941015624	 0.1729857743	-0.421885
H	-0.8703274884	 2.0066301667	-0.3509480284	 0.088366
H	 0.5712427968	 3.9284210113	 0.5910569973	 0.133168
H	 2.3503557448	 3.6050199751	 0.8821577911	 0.128066
H	 2.8954759898	 2.4353356141	-2.5799508777	 0.148172
H	 3.4942460642	 3.6796108397	-1.4771521612	 0.145754
H	 2.83652521	 0.8989178928	 1.2056131359	 0.147608
H	 2.2803461613	-0.0179451446	-0.1901371138	 0.162019
74.6728	104.9878	196.5861	245.6763	367.6337	414.231	454.6309	460.7564	483.2805	607.7851	648.0138	743.516	767.6591	793.7315	829.6484	899.5839	952.7872	1002.266	1038.3552	1050.0723	1120.6684	1141.006	1152.8797	1181.0428	1216.718	1237.2017	1286.789	1326.1831	1358.2611	1423.6722	1454.3946	1459.457	1508.0209	1820.7591	1857.2588	2903.6526	3046.0136	3061.2124	3088.5688	3097.5194	3107.8173	3179.8711
O=CC12CN1CC(=O)C2	O=C[C@]12CN1CC(=O)C2	
InChI=1S/C6H7NO2/c8-4-6-1-5(9)2-7(6)3-6/h4H,1-3H2	InChI=1S/C6H7NO2/c8-4-6-1-5(9)2-7(6)3-6/h4H,1-3H2/t6-,7?/m0/s1
