12
gdb 128988	4.20718	1.77187	1.24679	2.5625	67.92	-0.2624	-0.0849	0.1775	881.6476	0.083572	-427.878407	-427.872965	-427.872021	-427.908267	21.237	
N	 0.0291121216	 1.2473866313	 0.0088650185	-0.054556
N	 1.1972292691	 1.8629220897	 0.0009566004	-0.300149
C	 2.049651369	 0.8164525539	-0.0129932716	 0.244831
C	 3.4534959926	 0.7021395406	-0.0271875688	-0.050391
N	 3.9988423931	-0.4938433322	-0.0390142913	-0.252945
C	 3.169566036	-1.5837858768	-0.0369483984	 0.059279
N	 1.8546898601	-1.6175124995	-0.0244054292	-0.311163
C	 1.2993138385	-0.3890582204	-0.0123217719	 0.379944
N	-0.0144460919	-0.076248328	 0.0021468231	-0.294336
H	-0.8281091557	 1.7823673194	 0.0200571053	 0.31
H	 4.1082705343	 1.570774959	-0.028787837	 0.1396
H	 3.6820422034	-2.541939787	-0.047144259	 0.129889
234.1761	255.85	448.9001	460.2207	568.8941	626.2503	666.0499	668.0974	739.7054	805.8248	850.5022	924.8701	954.5221	994.476	1013.6567	1107.6805	1181.3263	1223.6086	1268.5988	1316.1191	1371.4305	1399.7494	1413.9553	1482.8596	1528.2461	1572.7036	1636.1864	3159.3124	3177.3276	3632.5565
N1N=C2C=NC=NC2=N1	[nH]1nc2cncnc2n1	
InChI=1S/C4H3N5/c1-3-4(6-2-5-1)8-9-7-3/h1-2H,(H,5,6,7,8,9)	InChI=1S/C4H3N5/c1-3-4(6-2-5-1)8-9-7-3/h1-2H,(H,5,6,7,8,9)
