20
gdb 104518	2.76025	1.14749	0.94025	4.6575	79.82	-0.2586	0.0312	0.2898	1309.7724	0.168728	-403.142179	-403.132145	-403.131201	-403.17733	36.229	
C	-0.6426237346	-0.1885145478	-0.7878586137	-0.258764
O	-1.1530848116	-0.5402267009	 0.4885987247	-0.276579
C	-0.1931297273	-0.8617019575	 1.4476668113	 0.439137
C	 0.7556064759	 0.2741228463	 1.8267627472	-0.426854
C	 0.0534886864	 1.4549124646	 2.3332374512	 0.27765
N	-0.4962709363	 2.389159567	 2.7325349379	-0.307989
C	-0.68356822	-1.7804580544	 2.5237941463	-0.339063
C	 0.3295214912	-2.285758198	 1.511050773	-0.070508
C	-0.0805136732	-3.3241504389	 0.490400595	-0.415697
H	 0.0607879069	-0.9404217224	-1.1685275192	 0.112907
H	-1.5011009627	-0.1300963259	-1.4600926392	 0.137131
H	-0.1462460717	 0.7912707325	-0.7778548327	 0.119719
H	 1.4511203297	-0.0763335201	 2.5957494986	 0.153264
H	 1.3681457398	 0.5755690414	 0.9692553816	 0.149218
H	-0.3738500533	-1.6009785848	 3.5475224019	 0.118446
H	-1.7045202223	-2.1286877723	 2.4123981199	 0.130944
H	 1.3474328475	-2.3916097152	 1.8797698358	 0.083672
H	-1.0716685257	-3.1017652515	 0.0871407409	 0.134308
H	 0.625352388	-3.3687598405	-0.3460339862	 0.11647
H	-0.1165961667	-4.3194788616	 0.9458111757	 0.122587
50.7748	111.8871	122.7842	163.1004	212.665	223.5399	252.1929	292.5695	335.0814	395.4032	412.686	426.7049	491.1777	623.9239	733.2277	815.4281	869.1231	903.6443	923.3343	929.204	974.3768	1014.3475	1068.6534	1082.1171	1121.8647	1136.7233	1178.8894	1183.8192	1200.6946	1214.3889	1260.5601	1321.0241	1341.3893	1403.276	1420.9279	1455.2188	1475.2123	1489.7004	1495.4831	1500.1703	1502.8037	1508.9123	2364.3063	3001.2532	3033.8871	3047.2586	3058.7997	3089.8207	3091.5674	3115.2841	3126.101	3133.2701	3136.5835	3225.8112
COC1(CC#N)CC1C	CO[C@@]1(CC#N)C[C@H]1C	
InChI=1S/C7H11NO/c1-6-5-7(6,9-2)3-4-8/h6H,3,5H2,1-2H3	InChI=1S/C7H11NO/c1-6-5-7(6,9-2)3-4-8/h6H,3,5H2,1-2H3/t6-,7+/m1/s1
