19
gdb 28873	2.28366	1.78592	1.01191	1.27	88.29	-0.184	0.0219	0.2059	1169.3015	0.162008	-382.145807	-382.137276	-382.136332	-382.178226	33.998	
C	 0.0322405679	 1.5250398061	 0.0258993267	-0.518717
C	 0.0154520385	 0.0165128437	 0.0123191487	 0.276694
C	 0.0130196392	-0.6757651996	-1.2067468192	 0.157471
N	 0.0554285214	-0.015417962	-2.4499072277	-0.608312
C	 0.0187424159	-2.0848398833	-1.2190370823	 0.258113
N	 0.004621754	-2.729187593	-2.475925633	-0.60802
C	-0.0132282696	-2.7846614749	-0.015721893	-0.205945
C	-0.035389043	-2.1008514754	 1.1969351695	-0.117438
C	-0.0058086361	-0.7116169532	 1.2052504666	-0.219737
H	 0.9178347497	 1.9308811269	-0.4793934379	 0.129575
H	-0.8471049081	 1.9510635343	-0.4773118704	 0.119209
H	 0.0329991177	 1.9054448176	 1.0500980933	 0.125281
H	-0.2017805041	 0.9602937825	-2.3977005911	 0.240163
H	-0.5124743297	-0.4876998298	-3.1451827158	 0.248315
H	 0.7003944482	-2.3446635529	-3.1071284601	 0.247696
H	 0.1389608421	-3.7291125893	-2.3984776595	 0.239491
H	-0.0127260857	-3.8711502594	-0.0345521089	 0.074783
H	-0.0576538465	-2.6536314415	 2.1297034099	 0.083332
H	-0.0089113117	-0.1736352166	 2.1481624441	 0.078048
141.2901	169.0573	224.7118	249.0993	293.3643	303.5306	328.159	464.8725	487.5592	499.1445	529.3762	556.6075	568.693	689.0763	728.3486	755.2767	775.3148	835.5111	852.5845	872.8238	916.1319	940.4959	1020.6192	1057.4693	1094.757	1141.9173	1177.4085	1200.1886	1268.6118	1305.0837	1328.9571	1379.4327	1412.8013	1484.6633	1486.3739	1515.9906	1523.7636	1615.8426	1644.724	1657.8332	1660.8904	3005.0706	3052.2725	3114.6439	3157.7096	3168.8232	3192.8141	3505.3231	3517.9779	3610.895	3629.3986
CC1=C(N)C(N)=CC=C1	Cc1c(N)c(N)ccc1	
InChI=1S/C7H10N2/c1-5-3-2-4-6(8)7(5)9/h2-4H,8-9H2,1H3	InChI=1S/C7H10N2/c1-5-3-2-4-6(8)7(5)9/h2-4H,8-9H2,1H3
