17
gdb 92394	2.37088	1.60165	1.30152	1.0294	75.11	-0.2482	0.008	0.2561	1047.9203	0.133862	-421.750118	-421.741761	-421.740817	-421.782949	31.671	
C	 0.2827156745	 1.5180789829	-0.0446155797	-0.411512
C	 0.0648061511	 0.0296240839	 0.0858371565	 0.105174
O	 0.8500360426	-0.7653155914	-0.8516531693	-0.315136
C	 1.390265081	-1.5852360185	 0.1900908463	 0.008582
C	 2.7037274994	-1.0423256903	 0.7585106266	-0.104562
O	 1.9877810522	-0.1699479597	 1.6748146893	-0.327786
C	 0.7063759516	-0.7213428305	 1.2880643366	 0.190207
C	-0.1165031622	-1.1494062936	 2.3857031539	 0.260914
C	-0.8282885213	-1.5041431384	 3.2874718882	-0.409642
H	 1.3178008971	 1.7773451878	 0.1868132906	 0.137614
H	 0.0512150504	 1.8382763319	-1.0649224352	 0.129019
H	-0.3775382889	 2.0574078925	 0.642447495	 0.126247
H	-0.9967890407	-0.2317269284	-0.014254182	 0.083148
H	 1.2578015456	-2.6549836652	 0.0236386853	 0.099468
H	 3.308461709	-1.7744744718	 1.3076550904	 0.111475
H	 3.3245813873	-0.4893542695	 0.047341345	 0.117077
H	-1.4498616688	-1.8183299617	 4.0896086726	 0.199713
105.2807	126.0775	167.7849	202.4877	250.2076	343.698	383.3053	461.5918	518.7057	534.3086	603.4778	629.4406	669.1831	673.7777	841.7661	862.3297	903.0834	949.4614	974.6238	997.7518	1044.3063	1082.6329	1097.2708	1117.1066	1139.5603	1156.9253	1175.3917	1232.2782	1300.5379	1335.9384	1348.6983	1377.2338	1403.3445	1479.6604	1492.0246	1500.7665	2236.0885	3020.3621	3025.0975	3044.3832	3092.6971	3108.2101	3112.6994	3137.9585	3499.0852
CC1OC2COC12C#C	C[C@H]1O[C@H]2CO[C@@]12C#C	
InChI=1S/C7H8O2/c1-3-7-5(2)9-6(7)4-8-7/h1,5-6H,4H2,2H3	InChI=1S/C7H8O2/c1-3-7-5(2)9-6(7)4-8-7/h1,5-6H,4H2,2H3/t5-,6+,7+/m1/s1
