23
gdb 119401	3.8972	1.00409	0.95419	0.9664	85.97	-0.2395	0.0884	0.3279	1378.3398	0.2071	-388.283536	-388.274814	-388.27387	-388.317293	34.154	
C	-0.1376868919	 1.5194170786	 0.0773080721	-0.383488
C	-0.0142308187	 0.0050646879	 0.0521066348	-0.06358
O	-1.3114045455	-0.5399576744	-0.1300695499	-0.310804
C	-1.3943399082	-1.9241010086	-0.0521080188	 0.466372
C	-1.1218611536	-2.7286755917	 1.2660872764	-0.285947
C	-2.0312693141	-3.7687495294	 0.5527861145	-0.021805
C	-2.8078838599	-2.5546623006	-0.0315724082	-0.2779
C	-1.1579528069	-4.1952157678	-0.6466130151	-0.20952
C	-0.6651280816	-2.787857	-1.1122763618	-0.272677
H	 0.8456600075	 1.981247713	 0.2082322511	 0.112119
H	-0.5705876713	 1.8832226967	-0.8589438454	 0.126259
H	-0.7850914023	 1.8379732842	 0.8992185695	 0.124929
H	 0.6560980809	-0.3100507307	-0.7619938287	 0.091645
H	 0.4216797673	-0.362206368	 0.9944462812	 0.090685
H	-0.0954116977	-3.0217213074	 1.506303083	 0.083512
H	-1.6036109298	-2.2655457861	 2.1300114539	 0.097776
H	-2.5389791143	-4.5549501614	 1.1094983043	 0.061926
H	-3.4549981256	-2.0691643725	 0.7017351915	 0.099409
H	-3.3305489688	-2.6784357663	-0.9846322341	 0.087211
H	-0.3350155085	-4.8515297508	-0.3484838991	 0.094276
H	-1.7374890825	-4.7123145969	-1.4168616432	 0.09659
H	-0.9851794052	-2.531161861	-2.1261363164	 0.098716
H	 0.4223920706	-2.686988577	-1.0635800713	 0.094299
60.444	81.5612	148.1436	243.7333	280.5718	334.5501	366.1473	401.1038	461.1859	524.3801	610.2323	696.9506	820.5597	821.5727	831.3716	837.1727	881.4994	912.7704	920.735	949.8263	966.7725	982.45	1005.2726	1017.9033	1075.4814	1086.3193	1113.0309	1134.553	1144.0254	1177.5701	1187.3103	1202.5783	1230.7115	1240.5864	1250.6599	1271.9959	1277.467	1299.8551	1323.6871	1339.552	1400.1688	1428.5395	1483.4279	1484.7333	1494.2668	1499.6596	1501.548	1526.7176	1536.0578	2976.1363	3005.664	3043.8182	3048.1726	3049.9468	3055.1337	3061.3666	3086.1008	3105.9794	3117.8937	3118.6761	3121.1907	3121.9641	3126.9478
CCOC12CC(C1)CC2	CCO[C@@]12C[C@@H](C1)CC2	
InChI=1S/C8H14O/c1-2-9-8-4-3-7(5-8)6-8/h7H,2-6H2,1H3	InChI=1S/C8H14O/c1-2-9-8-4-3-7(5-8)6-8/h7H,2-6H2,1H3/t7-,8-
