16
gdb 15371	3.58869	1.32359	1.06901	3.8025	62.9	-0.258	0.0013	0.2593	1097.0964	0.12805	-420.859536	-420.85103	-420.850086	-420.89338	29.236	
C	 0.1913212213	 0.9214537097	 0.4344118354	-0.239593
O	-0.0897655524	-0.1447174087	-0.4613928223	-0.22988
C	-1.3540523992	-0.6772703555	-0.2919097404	 0.10923
C	-1.5076010131	-2.1201292657	-0.6725943471	-0.3568
C	-1.5771549251	-1.7142610435	 0.7838057619	 0.053396
O	-0.480660252	-1.9731287657	 1.6313775191	-0.180314
C	-0.2346563083	-3.2672031269	 1.9394199471	 0.175831
O	 0.62767708	-3.5899018495	 2.6977120022	-0.269394
H	 1.1933198884	 1.279906605	 0.1903355645	 0.133405
H	-0.523663088	 1.7478771043	 0.3079308241	 0.105417
H	 0.1694612199	 0.5828935616	 1.4766576403	 0.13403
H	-2.1792827929	 0.0099721309	-0.4870918056	 0.092918
H	-2.4122445278	-2.4553681011	-1.1662410425	 0.127413
H	-0.5924507726	-2.6047435802	-0.9944449076	 0.145739
H	-2.5350559014	-1.7407683855	 1.2959535441	 0.112262
H	-0.9124946868	-3.9653012092	 1.4142374268	 0.086341
60.0906	96.4043	138.7873	166.5574	204.5454	224.8642	320.1174	393.1094	495.264	585.2949	681.8889	779.5069	811.7748	894.927	1010.2865	1043.8284	1050.5622	1072.6437	1093.7182	1127.1104	1148.1653	1159.8405	1176.7514	1187.5869	1233.0667	1270.0052	1367.1089	1396.3876	1420.961	1465.4748	1486.6811	1491.8706	1507.2553	1870.746	2971.4518	2994.4477	3069.4425	3085.3016	3130.7728	3140.9854	3145.0872	3236.7248
COC1CC1OC=O	CO[C@H]1C[C@H]1OC=O	
InChI=1S/C5H8O3/c1-7-4-2-5(4)8-3-6/h3-5H,2H2,1H3	InChI=1S/C5H8O3/c1-7-4-2-5(4)8-3-6/h3-5H,2H2,1H3/t4-,5+/m0/s1
