16
gdb 52918	5.80713	0.92987	0.90952	1.8806	84.57	-0.218	0.0199	0.2379	1327.6529	0.123119	-363.463358	-363.455506	-363.454562	-363.497139	29.028	
C	-0.0000242733	 1.4212873911	-0.000012304	-0.517023
C	-0.0003866721	-0.0324579372	 0.0078808511	 0.372797
C	 0.0042547394	-1.2391210338	 0.0105701505	-0.447648
C	 0.0150153604	-2.6487293192	 0.0095110184	 0.404808
C	-0.1515433087	-3.6821759007	 1.1143717431	-0.173698
C	 0.825313651	-4.5880941338	 0.3287542492	-0.057533
C	-0.0896691381	-4.594177147	-0.841321867	-0.057534
C	-1.0921844679	-3.6884304016	-0.0885152284	-0.173693
N	 1.0011797162	-3.5593815904	-0.756923712	-0.221263
H	 0.8065651612	 1.8040441093	-0.6352580103	 0.156534
H	-0.9436829356	 1.8218228683	-0.3872266847	 0.149544
H	 0.1500414856	 1.8291580677	 1.0059602034	 0.149539
H	-0.3704727928	-3.5386845132	 2.1623904257	 0.106226
H	 1.6276324253	-5.2506660028	 0.6288334005	 0.101359
H	-0.1841159712	-5.2627121024	-1.6880245091	 0.101358
H	-2.1627792292	-3.5505865141	-0.1296055765	 0.106226
27.3258	95.9901	102.6915	275.7863	309.8274	432.7566	486.0488	502.53	668.0845	760.7151	771.087	789.6806	831.1489	848.0482	859.9193	895.6484	911.6348	957.1405	974.485	992.3478	1004.4558	1028.5448	1051.2698	1055.0268	1070.0637	1166.9615	1184.7052	1229.8913	1268.491	1319.1158	1407.4518	1433.7346	1473.5821	1477.9168	2353.8011	3024.9124	3084.367	3088.5867	3180.199	3194.2657	3221.0427	3231.5292
CC#CC12C3C4C(C13)N24	CC#C[C@@]12[C@@H]3[C@H]4[C@@H]([C@H]13)N24	
InChI=1S/C8H7N/c1-2-3-8-4-5(8)7-6(4)9(7)8/h4-7H,1H3	InChI=1S/C8H7N/c1-2-3-8-4-5(8)7-6(4)9(7)8/h4-7H,1H3/t4-,5+,6-,7+,8+,9?
