18
gdb 107346	3.36964	1.29721	1.08288	1.3645	71.89	-0.2364	0.0139	0.2502	1121.3171	0.149091	-439.074431	-439.06635	-439.065406	-439.10718	30.697	
O	 0.1352807999	 1.3481317713	 0.2551204136	-0.415947
C	-0.0126834303	 0.0052750272	-0.1873827624	-0.143538
C	-1.4283760321	-0.5032651005	-0.0401584167	 0.24261
C	-1.8451110078	-1.115554954	 1.2762533911	-0.345042
C	-1.6858385312	-1.9887448779	 0.0434407036	-0.029627
N	-2.8572027927	-2.5422511282	-0.5659211282	-0.259587
C	-3.747504428	-1.7348555439	-0.9624719345	 0.114665
O	-3.7374934398	-0.3796686682	-0.9243591474	-0.232007
C	-2.4546822673	 0.2655912279	-0.8487368248	-0.132205
H	-0.1139288246	 1.3741227616	 1.1853874034	 0.284959
H	 0.2825127031	 0.0142470852	-1.2429835071	 0.116193
H	 0.6765696297	-0.6726241837	 0.3402209591	 0.091179
H	-1.0978408735	-1.2061218302	 2.0587452563	 0.112964
H	-2.8566808445	-0.9518488434	 1.6317221814	 0.13143
H	-0.835224544	-2.6626167618	 0.0261199337	 0.09582
H	-4.6865209173	-2.096414544	-1.3758731592	 0.126334
H	-2.6459699471	 1.2575031383	-0.4330845464	 0.127464
H	-2.0786236825	 0.3948554443	-1.8728781855	 0.114335
90.8707	132.7962	151.8299	260.9838	307.666	350.2855	385.2777	400.4473	522.7495	550.8141	626.1463	717.1192	813.5781	873.769	897.9598	924.6792	940.5479	957.4246	988.0333	1020.7225	1036.0275	1066.3136	1076.1091	1104.2877	1145.3443	1171.0981	1202.6279	1253.9077	1284.8144	1330.8508	1368.7405	1396.1149	1411.932	1419.2875	1423.6841	1482.9116	1498.8034	1512.6837	1721.0094	2980.128	3014.749	3062.1942	3098.0165	3125.166	3154.5264	3166.1912	3216.7303	3805.306
OCC12CC1N=COC2	OC[C@]12C[C@H]1N=COC2	
InChI=1S/C6H9NO2/c8-2-6-1-5(6)7-4-9-3-6/h4-5,8H,1-3H2	InChI=1S/C6H9NO2/c8-2-6-1-5(6)7-4-9-3-6/h4-5,8H,1-3H2/t5-,6+/m1/s1
