21
gdb 84764	2.22293	1.50551	1.21402	0.5879	89.11	-0.2406	0.0209	0.2614	1156.4929	0.181223	-349.939129	-349.929837	-349.928893	-349.972426	36.595	
C	-0.187423252	 1.5676908849	-0.015135579	-0.41495
C	 0.0446531158	 0.0546227631	-0.0218548855	-0.029496
C	 0.8887613106	-0.4675947023	-1.163587633	-0.071237
C	 1.6655398509	-1.4827652189	-0.7940482389	-0.083706
C	 1.4888215364	-1.8190282885	 0.6657402637	-0.2885
C	 0.7763358243	-0.5472711503	 1.2430348284	 0.07792
C	 1.8508271499	 0.4135520998	 1.8006266076	-0.428225
C	-0.1752641285	-0.8737656271	 2.3015324876	 0.299437
C	-0.9610911287	-1.1304257481	 3.1755443912	-0.465673
H	 0.7509043561	 2.1293024059	-0.0316153322	 0.119037
H	-0.7640703419	 1.8623808184	-0.8981363454	 0.112678
H	-0.7567642842	 1.8734824291	 0.868486182	 0.12458
H	-0.9442247668	-0.4236228684	-0.0785527749	 0.091411
H	 0.810846567	-0.0647900126	-2.1680614831	 0.090489
H	 2.3218208805	-2.0460536126	-1.4481077521	 0.09296
H	 0.8605189198	-2.7106597978	 0.7890371551	 0.116124
H	 2.4295131909	-2.0235792597	 1.1886482975	 0.105284
H	 2.5774307227	 0.6649089165	 1.0221309342	 0.119287
H	 1.4078394439	 1.3377168047	 2.1780310276	 0.123781
H	 2.3817048789	-0.0652160952	 2.6280550128	 0.120452
H	-1.6542414957	-1.3635041409	 3.9452471364	 0.188349
91.3861	141.0123	180.3054	244.3746	270.9869	274.4616	306.5102	362.8763	381.8979	480.0534	522.4996	539.8636	565.9323	621.3026	624.2868	684.6502	752.2833	765.9836	871.9659	917.7228	938.6721	952.7803	967.77	974.2241	1027.3482	1070.8157	1100.669	1125.9484	1151.0074	1166.8538	1184.8146	1240.0116	1294.3916	1329.9621	1346.5748	1372.7967	1398.6619	1410.3225	1483.6818	1490.2152	1492.2673	1502.9881	1511.2155	1687.3374	2229.3365	2991.0325	3023.1343	3035.5186	3043.4773	3062.8801	3099.6614	3112.2775	3116.3782	3127.8741	3177.712	3204.1086	3502.4526
CC1C=CCC1(C)C#C	C[C@H]1C=CC[C@]1(C)C#C	
InChI=1S/C9H12/c1-4-9(3)7-5-6-8(9)2/h1,5-6,8H,7H2,2-3H3	InChI=1S/C9H12/c1-4-9(3)7-5-6-8(9)2/h1,5-6,8H,7H2,2-3H3/t8-,9-/m0/s1
