20
gdb 117179	2.95148	0.84111	0.70133	2.6238	73.09	-0.2515	0.0065	0.258	1645.2538	0.169646	-477.451161	-477.440554	-477.43961	-477.48812	37.012	
C	-0.1930935129	 1.4859628315	 0.0968126871	-0.391898
C	-0.0387962735	-0.0216962821	 0.0642084115	-0.045735
O	-1.3643379765	-0.5972082697	 0.0481930961	-0.242293
C	-1.4272473011	-1.9373902649	 0.0148329946	 0.433644
O	-0.4623177681	-2.6632004656	-0.0131405761	-0.368262
C	-2.8695542417	-2.4283947688	 0.0658860462	-0.129869
N	-3.0002928093	-3.8439085016	-0.2763410545	-0.519454
C	-3.4519454453	-2.2250956147	 1.4860764984	-0.040557
O	-4.7519034212	-2.751897326	 1.5510879161	-0.421015
H	 0.7934705274	 1.9584582145	 0.1113083108	 0.126086
H	-0.7332618745	 1.8428310876	-0.7844944414	 0.13189
H	-0.7406104086	 1.8037996162	 0.988433486	 0.132915
H	 0.5014052416	-0.3616794825	-0.8246804126	 0.124835
H	 0.4980037552	-0.4005761051	 0.9393422809	 0.125394
H	-3.4757698246	-1.8324205508	-0.6226803385	 0.109479
H	-3.0286926789	-3.9628636659	-1.2833551682	 0.240098
H	-2.1597464668	-4.3251837615	 0.0376254174	 0.246209
H	-2.7769892993	-2.7069813651	 2.2156236222	 0.085185
H	-3.4996946768	-1.1590460033	 1.7244269751	 0.117112
H	-4.6922550152	-3.5944580323	 1.0742361589	 0.286238
34.0621	68.7032	102.668	107.2157	166.2539	217.9703	252.1595	268.2829	310.89	345.8282	349.4424	411.3355	526.0731	582.9282	703.3719	774.0161	806.9161	877.7044	886.3793	917.3104	972.8913	1024.2486	1050.4911	1098.5164	1135.1013	1150.1563	1180.2722	1182.9019	1215.0503	1288.613	1289.3967	1291.5391	1378.3785	1394.2977	1415.411	1428.3284	1450.4845	1486.0855	1495.9016	1512.9988	1518.6955	1666.6946	1806.7257	2948.3839	3047.645	3054.2686	3075.6021	3093.0382	3094.4865	3122.3193	3128.395	3487.8638	3571.0969	3700.0526
CCOC(=O)C(N)CO	CCOC(=O)[C@@H](N)CO	
InChI=1S/C5H11NO3/c1-2-9-5(8)4(6)3-7/h4,7H,2-3,6H2,1H3	InChI=1S/C5H11NO3/c1-2-9-5(8)4(6)3-7/h4,7H,2-3,6H2,1H3/t4-/m0/s1
