14
gdb 98152	2.0179	1.23543	0.98673	2.8222	68.59	-0.287	-0.0621	0.2248	1228.2308	0.097121	-436.66031	-436.650694	-436.64975	-436.695956	32.921	
O	-0.5638178647	 1.5263100449	-0.4180928587	-0.415569
C	-1.0270360991	 0.2558788768	-0.7618676684	-0.138802
C	-1.1472592623	-0.6402329768	 0.4528498515	 0.365787
O	-0.7995330378	-0.2745811383	 1.5456063475	-0.298532
C	-1.7742069964	-2.0625732656	 0.2706489092	-0.389763
C	-3.2211315237	-1.9330011174	 0.1099753055	 0.315157
C	-4.4063594766	-1.7840249863	-0.0036622797	-0.417931
C	-1.1570840437	-2.7852431282	-0.8493596341	 0.293012
N	-0.6456748407	-3.3398851946	-1.7237680578	-0.311667
H	-0.3619212177	 1.4960209747	 0.5284942765	 0.299069
H	-2.0125423189	 0.3083134293	-1.2498834832	 0.142468
H	-0.3541638396	-0.2425256281	-1.479592344	 0.149174
H	-1.5459239886	-2.5988418687	 1.1991371281	 0.183854
H	-5.4577858801	-1.6670991917	-0.1065506223	 0.223743
35.6877	77.89	121.5988	135.1586	152.7032	271.477	315.6747	347.9605	368.7184	407.2399	469.4319	561.7266	577.9766	658.5534	676.6138	694.0547	802.366	945.3386	977.0205	1056.2385	1089.7898	1146.7514	1236.5346	1252.3721	1302.2376	1313.9573	1442.931	1484.5241	1822.8046	2246.9638	2364.9686	2983.1095	3011.4775	3053.1138	3498.554	3727.6716
OCC(=O)C(C#C)C#N	OCC(=O)[C@@H](C#C)C#N	
InChI=1S/C6H5NO2/c1-2-5(3-7)6(9)4-8/h1,5,8H,4H2	InChI=1S/C6H5NO2/c1-2-5(3-7)6(9)4-8/h1,5,8H,4H2/t5-/m0/s1
