16
gdb 46595	2.89341	1.75692	1.44133	2.6126	67.69	-0.2366	0.0152	0.2518	922.1659	0.126351	-437.861406	-437.854439	-437.853495	-437.892686	27.494	
O	-0.0831605664	-0.0727915371	-0.0796038228	-0.37182
C	-0.013310776	 1.1304549242	 0.0194720589	 0.358295
N	-1.0943798922	 1.982427538	 0.1998212596	-0.32292
C	-0.8458746979	 3.4126867407	-0.000297867	-0.248806
C	 0.670275592	 3.4440388327	-0.0223029875	 0.372187
C	 1.492096779	 2.9683248762	 1.1191239737	-0.364526
C	 1.1950122171	 2.0276211886	-0.041351208	 0.024476
C	 1.9541653756	 2.4851592599	-1.2922876054	-0.145353
O	 1.4437258572	 3.8508741928	-1.1552067757	-0.32267
H	-2.0227170041	 1.5960135735	 0.2798004122	 0.25246
H	-1.2366002942	 3.7734057173	-0.9600074509	 0.129622
H	-1.2908524603	 4.0112442259	 0.8023179915	 0.120754
H	 2.5044407368	 3.3431352632	 1.2277891342	 0.132803
H	 0.9725054915	 2.7512143395	 2.0457228219	 0.138141
H	 3.0478270795	 2.4520744817	-1.255784658	 0.118814
H	 1.5959362024	 2.0247469127	-2.2180327069	 0.128544
118.6929	183.685	256.9774	343.3521	400.1547	422.4084	509.1825	583.5413	620.5884	684.9971	738.6973	766.9695	806.8111	862.6001	916.5643	947.5285	966.0215	984.3057	1013.036	1037.6256	1068.2793	1135.1525	1143.4153	1164.7939	1194.5407	1262.4617	1292.7306	1333.991	1340.237	1374.9545	1439.6399	1467.4201	1515.2724	1523.8526	1825.0728	3023.1297	3041.3998	3062.7551	3097.3546	3133.779	3229.2393	3628.5089
O=C1NCC23CC12CO3	O=C1NC[C@@]23C[C@@]12CO3	
InChI=1S/C6H7NO2/c8-4-5-1-6(5,2-7-4)9-3-5/h1-3H2,(H,7,8)	InChI=1S/C6H7NO2/c8-4-5-1-6(5,2-7-4)9-3-5/h1-3H2,(H,7,8)/t5-,6+/m1/s1
