21
gdb 59045	2.55156	1.26763	1.04827	3.2791	81.2	-0.2404	0.0141	0.2545	1251.391	0.182251	-424.241028	-424.231507	-424.230563	-424.275317	36.052	
C	-0.0028384533	 1.5444467822	 0.1247235338	-0.401173
C	-0.0167113573	 0.0120857695	 0.0226670874	 0.023446
O	 0.754042924	-0.5702414096	 1.0714050177	-0.442104
C	-1.4142337067	-0.5533166989	 0.0022657856	 0.34686
C	-1.9816454566	-1.2948341787	-0.9495215397	-0.201051
C	-3.4061694334	-1.6772568485	-0.6305196906	-0.257194
C	-3.5282191808	-1.3116192257	 0.8693897118	-0.24327
C	-2.39429116	-0.2954930967	 1.1309358321	 0.016798
O	-1.737782803	-0.4768520475	 2.3952907464	-0.438441
H	 1.0316801771	 1.8981340946	 0.1354893956	 0.121542
H	-0.5249144204	 2.0068775169	-0.7200353146	 0.107376
H	-0.481244465	 1.8754607928	 1.0523092619	 0.111642
H	 0.4861663127	-0.2808610844	-0.9068102935	 0.080175
H	 0.1968308183	-0.5460882444	 1.8612708531	 0.289996
H	-1.4952239872	-1.5763592064	-1.8780103676	 0.09274
H	-4.1131389288	-1.1014902886	-1.2439912515	 0.108593
H	-3.6198087444	-2.7334142237	-0.8293544381	 0.108508
H	-4.517539128	-0.9359281769	 1.1448907888	 0.091093
H	-3.3160181431	-2.19067054	 1.4858627112	 0.118287
H	-2.7650436133	 0.7407845658	 1.0778496988	 0.077362
H	-2.284637021	-0.0927045717	 3.0868747712	 0.288816
61.7088	101.4159	162.3371	208.5953	234.2396	255.4233	301.6557	335.7781	379.029	427.8339	483.0639	491.9919	604.7326	622.8109	705.9929	806.239	841.6985	882.5073	901.623	933.8937	949.2289	1006.8255	1008.1639	1065.4083	1071.0939	1090.2197	1103.1468	1163.3167	1193.4655	1220.4085	1246.612	1266.4431	1291.8826	1318.3472	1337.0803	1352.3655	1366.1694	1392.5803	1421.9495	1454.3086	1483.7241	1492.175	1498.1151	1500.2749	1720.3805	2965.2117	3011.501	3032.283	3035.3007	3051.0455	3059.9856	3104.01	3104.329	3117.397	3183.9352	3748.5217	3829.1302
CC(O)C1=CCCC1O	C[C@@H](O)C1=CCC[C@H]1O	
InChI=1S/C7H12O2/c1-5(8)6-3-2-4-7(6)9/h3,5,7-9H,2,4H2,1H3	InChI=1S/C7H12O2/c1-5(8)6-3-2-4-7(6)9/h3,5,7-9H,2,4H2,1H3/t5-,7-/m1/s1
