23
gdb 121406	3.951	0.84934	0.73693	0.3233	83.33	-0.2439	0.0878	0.3317	1613.7995	0.206671	-425.429907	-425.420487	-425.419543	-425.464555	35.071	
C	-0.2443326592	 1.3925288884	-0.7371103079	-0.222284
O	-0.2497972719	-0.0093964564	-0.8504096944	-0.236142
C	 0.9079710778	-0.6085622848	-0.312933675	-0.084281
C	 0.8046618773	-2.115478533	-0.5154235921	 0.114953
C	 0.7526004899	-2.5271293799	-1.9894683679	-0.18922
C	 0.7810369639	-4.0567874585	-2.117134738	-0.213642
C	 1.9659093255	-4.6294061029	-1.3263666423	-0.192829
C	 1.9492806653	-4.089642416	 0.1053269091	-0.063094
O	 1.9388609864	-2.6718060392	 0.1361640495	-0.267102
H	-0.1917664777	 1.7174925001	 0.3142041864	 0.104402
H	 0.604587395	 1.8428796023	-1.2758878615	 0.104063
H	-1.1756926763	 1.7610634468	-1.1742088637	 0.125528
H	 1.8169353481	-0.2301298036	-0.8103254292	 0.090113
H	 1.0054613934	-0.391167591	 0.7627367425	 0.093067
H	-0.1155024978	-2.4678036633	-0.015268946	 0.067724
H	-0.1425780761	-2.1010091341	-2.451115981	 0.110298
H	 1.6234458655	-2.0949000185	-2.5003992173	 0.09262
H	-0.1552097023	-4.4722214292	-1.7191582131	 0.095005
H	 0.8337795903	-4.3563528039	-3.1691603049	 0.093747
H	 1.9379691684	-5.7250683712	-1.3076039759	 0.091225
H	 2.9086223323	-4.3344632686	-1.8038412766	 0.101298
H	 1.0664412042	-4.4818133826	 0.640810372	 0.082151
H	 2.8405029081	-4.3983750612	 0.6599020473	 0.1024
69.8469	90.7462	117.1028	183.7555	234.2936	246.95	319.2841	327.6312	372.9294	454.3336	483.9246	510.4767	598.3445	813.9671	837.9516	860.1259	905.6413	911.0429	972.0006	999.8469	1014.801	1060.3612	1084.579	1119.0392	1125.2779	1162.5611	1174.9259	1193.0485	1203.5415	1226.3475	1234.8694	1251.9369	1282.1881	1301.8117	1339.8217	1354.1144	1368.6079	1377.1338	1400.9944	1415.5647	1428.3056	1474.2217	1481.9617	1483.4275	1485.8963	1492.0874	1502.9698	1504.1466	1527.9905	2942.1	2952.2218	2959.4077	2972.757	3000.1237	3013.1446	3014.0619	3024.8188	3027.1838	3066.6478	3074.0015	3080.9274	3095.4509	3112.3458
COCC1CCCCO1	COC[C@H]1CCCCO1	
InChI=1S/C7H14O2/c1-8-6-7-4-2-3-5-9-7/h7H,2-6H2,1H3	InChI=1S/C7H14O2/c1-8-6-7-4-2-3-5-9-7/h7H,2-6H2,1H3/t7-/m1/s1
