22
gdb 61652	4.00307	0.77498	0.68141	4.2336	87.11	-0.2991	0.0388	0.3379	1667.6128	0.194282	-367.226248	-367.216495	-367.215551	-367.261689	35.738	
C	 0.0008498337	 1.597212319	 0.2131294182	-0.386837
C	-0.0178202869	 0.0630636755	 0.0629016832	-0.146121
C	 0.665336112	-0.4550908894	-1.2274372078	-0.211943
C	-0.0363540977	-0.0667242008	-2.5253936787	 0.046173
C	 0.1676930249	 1.3395880401	-3.1684393068	-0.217024
C	 0.2194544816	 0.6565157161	-4.5601258983	-0.220255
C	 0.5104857442	-0.6882257851	-3.8429140839	-0.234852
C	 0.6047114331	-0.5610467167	 1.2366205096	 0.264012
N	 1.1072007009	-1.0501207382	 2.1557151787	-0.325815
H	 1.027867627	 1.9735665199	 0.2106379349	 0.134743
H	-0.5408234221	 2.0648793654	-0.6110880673	 0.132652
H	-0.4700204734	 1.9011722378	 1.1512731688	 0.135538
H	-1.0639988615	-0.2715462961	 0.0493866699	 0.124524
H	 1.7057946777	-0.1065202917	-1.2452745958	 0.109356
H	 0.7093532811	-1.5495090312	-1.170843471	 0.118676
H	-1.1095765551	-0.2803472176	-2.4405581603	 0.070514
H	-0.6010170615	 2.0988165483	-3.0034545845	 0.097667
H	 1.1383850684	 1.7637418469	-2.8913199954	 0.101776
H	-0.7602561714	 0.6526916068	-5.0463582621	 0.104536
H	 0.959355835	 1.0199882069	-5.2764250941	 0.100506
H	 1.5863536875	-0.8793365329	-3.7690880269	 0.102737
H	 0.0236866527	-1.591826223	-4.2179580006	 0.09944
43.0685	86.2111	110.	167.0297	196.5451	222.2228	264.6182	304.6737	372.1089	412.4226	546.9007	569.3269	646.9826	766.7064	781.9205	819.7091	863.1963	899.5088	922.6757	937.3557	954.5805	980.8923	1011.6907	1036.5637	1103.3866	1113.9322	1130.3326	1171.8301	1204.4637	1227.1233	1258.4929	1260.7546	1266.5488	1278.4878	1292.3621	1317.2754	1339.4694	1365.1338	1390.8129	1413.0122	1475.5912	1480.0415	1487.6204	1495.8116	1499.675	1511.1978	2354.4424	3018.2374	3020.2982	3028.1384	3045.4754	3050.0194	3053.1394	3060.6619	3067.1099	3096.8188	3101.2411	3119.162	3124.6573	3140.2606
CC(CC1CCC1)C#N	C[C@@H](CC1CCC1)C#N	
InChI=1S/C8H13N/c1-7(6-9)5-8-3-2-4-8/h7-8H,2-5H2,1H3	InChI=1S/C8H13N/c1-7(6-9)5-8-3-2-4-8/h7-8H,2-5H2,1H3/t7-/m0/s1
