18
gdb 14028	3.37393	1.57683	1.29677	0.4763	68.12	-0.2233	0.0665	0.2898	993.4651	0.153143	-384.895847	-384.887648	-384.886704	-384.928834	30.009	
O	 0.4309445373	 0.5409836058	 0.741084909	-0.415939
C	-0.1704026669	 0.2027027352	-0.5046145702	-0.075709
C	-1.4976090435	-0.501630471	-0.3508557072	-0.123394
C	-1.8951741753	-1.6292076058	-1.3029779525	-0.374163
C	-1.5357120227	-1.9207886391	 0.1156655275	 0.471446
C	-0.4176733364	-2.7649647843	 0.7190125607	-0.360392
C	-1.5074195822	-3.1860448905	 1.7289691854	-0.073989
O	-2.503869003	-2.3733374068	 1.0617035701	-0.310661
H	-0.1992730157	 1.0751810482	 1.2350325643	 0.28243
H	-0.282375167	 1.092406268	-1.1442693595	 0.092426
H	 0.54764029	-0.4584815426	-1.0016755478	 0.105322
H	-2.3200738429	 0.1199372932	-0.0008299641	 0.090094
H	-2.942183644	-1.7065751744	-1.5756042088	 0.12335
H	-1.1985512943	-1.9122019984	-2.0871552755	 0.112312
H	-0.038708471	-3.5676837029	 0.0835172332	 0.10995
H	 0.412153683	-2.1903422041	 1.1321316681	 0.135024
H	-1.7832746256	-4.2462768039	 1.724131646	 0.105583
H	-1.3463569999	-2.8592245868	 2.7625014711	 0.106309
75.0376	106.6952	140.813	173.0591	276.5713	321.0722	395.8023	427.3239	494.9503	598.5246	782.3335	808.8983	858.1166	872.4482	891.6753	958.3889	969.8761	1002.1545	1018.3267	1039.9449	1061.7127	1094.1604	1107.3483	1130.7064	1164.9189	1190.2742	1220.7733	1243.6147	1252.0298	1320.7826	1358.4007	1374.2856	1409.2042	1429.8599	1484.1023	1489.7327	1506.2889	1533.6368	2979.9033	3027.3359	3066.4249	3070.0156	3078.5625	3121.3873	3126.2791	3138.4325	3213.2036	3816.5216
OCC1CC11CCO1	OC[C@H]1C[C@]21CCO2	
InChI=1S/C6H10O2/c7-4-5-3-6(5)1-2-8-6/h5,7H,1-4H2	InChI=1S/C6H10O2/c7-4-5-3-6(5)1-2-8-6/h5,7H,1-4H2/t5-,6+/m1/s1
