21
gdb 114395	3.47141	0.99643	0.95984	3.0523	82.69	-0.2357	-0.0164	0.2194	1346.1244	0.182163	-387.089575	-387.080754	-387.07981	-387.123693	33.548	
C	 0.055420796	 1.4472405827	-0.3328564883	-0.380488
C	 0.0184534661	-0.069005514	-0.1104366277	-0.199785
C	-1.3964572614	-0.6018031397	 0.0850922821	 0.060006
C	-2.3762153225	-0.6168572894	-1.1297133738	-0.264037
C	-2.7877492043	-2.0896486435	-0.7852481503	-0.150012
C	-1.6407169984	-2.1220345862	 0.2990581893	-0.067761
C	-0.8292468266	-3.1102635993	-0.5915874188	-0.367524
C	-1.9967791965	-3.1108137832	-1.6016144411	 0.412041
O	-2.2158062743	-3.7199833529	-2.6086824587	-0.302504
H	 1.0796558712	 1.8031513289	-0.4792874256	 0.114738
H	-0.5243222758	 1.7328076618	-1.2174380839	 0.120401
H	-0.3656289006	 1.9831727443	 0.5250079456	 0.114816
H	 0.4902992955	-0.5684823295	-0.9658908876	 0.096225
H	 0.6243544346	-0.3279822117	 0.7681662735	 0.09654
H	-1.8630482849	-0.0573887587	 0.9146591916	 0.072779
H	-3.1990085162	 0.0981348127	-1.0777431146	 0.113451
H	-1.8974185085	-0.5080562589	-2.107785503	 0.111071
H	-3.8448232973	-2.2789402182	-0.5975339422	 0.08753
H	-1.81059831	-2.4596614176	 1.3212672055	 0.072134
H	 0.1393573826	-2.7821204501	-0.9774963128	 0.127124
H	-0.6929580287	-4.0976745974	-0.1383868492	 0.133255
43.9449	96.9298	160.6902	190.7396	233.6791	290.7123	386.6266	410.7746	481.0236	507.731	581.8051	733.5277	747.3135	777.8586	789.1997	845.5294	899.4447	906.3732	946.8326	960.0945	987.6427	1013.2552	1042.9341	1072.5979	1092.6952	1110.971	1135.1894	1139.6381	1187.1014	1208.1477	1225.3179	1246.8949	1261.3773	1286.4641	1293.2043	1321.3485	1346.0097	1392.9251	1411.9591	1436.1059	1482.8508	1492.5138	1499.3768	1506.9188	1885.1103	3015.9055	3026.4185	3031.6341	3051.9302	3056.3939	3058.2823	3097.9659	3102.8258	3104.8472	3109.9291	3113.4005	3121.4076
CCC1CC2C1CC2=O	CC[C@H]1C[C@@H]2[C@H]1CC2=O	
InChI=1S/C8H12O/c1-2-5-3-7-6(5)4-8(7)9/h5-7H,2-4H2,1H3	InChI=1S/C8H12O/c1-2-5-3-7-6(5)4-8(7)9/h5-7H,2-4H2,1H3/t5-,6-,7+/m0/s1
