23
gdb 89067	3.84223	0.74827	0.69467	1.1548	87.33	-0.2223	0.0787	0.301	1710.6211	0.205132	-384.401401	-384.391595	-384.390651	-384.437047	36.167	
C	-0.5955385657	 1.2243545325	 0.2572549146	-0.312696
N	 0.0239185263	-0.0860246776	 0.1401611155	-0.077921
C	 1.4281336106	-0.1340407405	-0.2488857424	-0.26435
C	 1.0142571082	-0.531910735	 1.1274538482	 0.025155
C	 1.4331944119	 0.2702507506	 2.3425290326	-0.219247
C	 0.4856835765	 0.0826199311	 3.5313329851	-0.139012
N	 1.004256608	 0.7552117177	 4.7171050226	-0.059543
C	 0.6041523464	 2.1480027147	 4.8953824861	-0.220546
C	 0.0331338425	 1.0754288	 5.7557758981	-0.221281
H	 0.0750434555	 2.0269315296	 0.6037813255	 0.098234
H	-0.9779272134	 1.5161255837	-0.7264755583	 0.123652
H	-1.446309983	 1.1664744096	 0.9445616153	 0.119847
H	 1.6981938347	-0.8783863007	-0.9940568748	 0.111235
H	 1.9609561082	 0.8128978214	-0.3432293109	 0.101468
H	 0.9302955586	-1.600569661	 1.3295904431	 0.086346
H	 2.4356064057	-0.0526731549	 2.6485130038	 0.114041
H	 1.5164829295	 1.3351582293	 2.102218825	 0.098729
H	-0.527786112	 0.4363684207	 3.2660710676	 0.083316
H	 0.3966726065	-0.985918263	 3.7648818305	 0.103956
H	 1.3684392541	 2.8181693776	 5.2781911498	 0.116389
H	-0.0572988412	 2.5882653315	 4.1498572047	 0.10713
H	-1.0075839848	 0.8039408381	 5.5837743918	 0.108565
H	 0.3736853568	 0.9456948447	 6.7791448264	 0.116531
54.5675	57.1547	110.4418	137.6725	197.3345	255.571	297.758	317.0512	378.7684	399.7288	481.2712	519.4834	736.819	756.7089	792.0735	812.3538	848.354	901.1714	923.4596	1006.9359	1029.2593	1031.9042	1047.5152	1062.2559	1098.2188	1112.6579	1115.9397	1118.9683	1134.575	1154.4162	1168.7822	1179.2125	1199.0966	1206.6464	1249.779	1291.3628	1314.0364	1325.1539	1341.5393	1398.6413	1427.0498	1448.0614	1476.7511	1487.6486	1489.9449	1498.546	1505.6762	1514.1948	1522.7493	2933.5395	2970.2302	3039.4468	3040.1132	3060.0678	3077.5736	3079.3976	3089.9161	3095.0347	3095.1639	3097.7976	3165.6546	3174.5237	3188.7559
CN1CC1CCN1CC1	CN1C[C@H]1CCN1CC1	
InChI=1S/C7H14N2/c1-8-6-7(8)2-3-9-4-5-9/h7H,2-6H2,1H3	InChI=1S/C7H14N2/c1-8-6-7(8)2-3-9-4-5-9/h7H,2-6H2,1H3/t7-,8?/m1/s1
