23
gdb 69944	3.34779	1.38186	1.21475	0.2496	88.14	-0.2496	0.0782	0.3278	1146.086	0.20814	-351.151516	-351.143515	-351.142571	-351.183466	33.198	
C	-0.0911055117	 1.5667728156	 0.1133830975	-0.482309
C	 0.0790914708	 0.0761055859	-0.0660785973	 0.36977
C	-0.8918044304	-0.8644802826	 0.6028705883	-0.339509
C	 0.5536258236	-0.8360945081	 1.055017971	-0.081473
C	 1.514251895	-1.8800137847	 0.5054109662	-0.019771
C	 1.0078927728	-3.3477932863	 0.3589206222	-0.226618
C	 0.7482061604	-3.1007552464	-1.1557726167	-0.235704
C	 1.4656401322	-1.7199887239	-1.051246328	 0.009636
C	 0.7070202456	-0.4160319306	-1.3749683857	-0.305809
H	 0.8626545305	 2.094860648	-0.0067675756	 0.11084
H	-0.7914340813	 1.9800582576	-0.6227465889	 0.114298
H	-0.4829315613	 1.8054449738	 1.1075605549	 0.11086
H	-1.6225397425	-0.423414516	 1.2739789417	 0.102342
H	-1.2682914364	-1.7250245329	 0.0606754345	 0.10818
H	 0.751770563	-0.4285187711	 2.0415036077	 0.073479
H	 2.4948939002	-1.7749166282	 0.977101191	 0.059066
H	 1.7911318937	-4.0883923709	 0.54014951	 0.094402
H	 0.139093979	-3.6132986473	 0.9663748354	 0.097788
H	 1.2128327909	-3.8177255946	-1.8375530878	 0.091905
H	-0.3097218132	-3.0277444495	-1.4238190264	 0.09777
H	 2.4453462943	-1.7396739785	-1.5344140586	 0.065279
H	-0.0386803207	-0.5593076444	-2.1672043653	 0.094208
H	 1.4061986853	 0.3470133654	-1.73824921	 0.091371
144.3664	157.3097	217.4191	248.1941	316.7012	359.1029	379.9859	473.9322	554.4649	637.301	682.2493	731.9131	751.4488	801.0857	846.8874	864.2993	878.3596	920.4822	931.4331	951.3431	955.8651	973.4482	1014.9029	1052.138	1059.1118	1071.8262	1084.7166	1091.1732	1116.8178	1144.5251	1182.1295	1216.5559	1222.8546	1249.5486	1258.7008	1269.7435	1280.0873	1301.7565	1318.7997	1337.0821	1348.4409	1401.8698	1419.8425	1477.5782	1484.4757	1488.5744	1493.0774	1500.8901	1507.5133	3015.3801	3020.5075	3049.9757	3052.5051	3055.9104	3062.9512	3073.4429	3075.0028	3093.2347	3094.6416	3113.9607	3125.0927	3152.3088	3205.8538
CC12CC1C1CCC1C2	C[C@]12C[C@H]1[C@H]1CC[C@H]1C2	
InChI=1S/C9H14/c1-9-4-6-2-3-7(6)8(9)5-9/h6-8H,2-5H2,1H3	InChI=1S/C9H14/c1-9-4-6-2-3-7(6)8(9)5-9/h6-8H,2-5H2,1H3/t6-,7-,8-,9-/m0/s1
