18
gdb 15157	10.70458	0.71681	0.69384	3.8528	74.6	-0.2506	0.0235	0.2741	1630.325	0.152709	-381.080044	-381.07105	-381.070106	-381.115258	30.728	
C	 0.0886002256	 1.3552629743	 0.0434703668	-0.314668
N	 0.5944378763	 0.0007443333	 0.1095748245	-0.201565
C	 0.5750091134	-0.6763828164	-0.9486774336	 0.13581
O	 0.9922547999	-1.9592668811	-0.9555544764	-0.203566
C	 1.1136873184	-2.5872814027	-2.2326785069	-0.105375
C	 1.0187628692	-4.0752672845	-2.0503312069	 0.025288
C	 1.7968663118	-4.9622362382	-2.9523429636	-0.247848
N	 2.1625419459	-4.8369942631	-1.5347740933	-0.300157
H	 0.8669058124	 2.0544208144	 0.3698601805	 0.128113
H	-0.2515045602	 1.6600153078	-0.960319839	 0.094248
H	-0.7512169705	 1.4691414911	 0.7385435828	 0.129195
H	 0.2155501311	-0.3094615419	-1.9244960172	 0.06966
H	 0.3181231403	-2.2331970283	-2.9036756512	 0.111242
H	 2.0810140361	-2.3204363104	-2.6836401505	 0.100393
H	 0.0593546451	-4.4195127758	-1.6708436215	 0.10481
H	 1.3928651587	-5.928002542	-3.2407106131	 0.125871
H	 2.4306832658	-4.4968971176	-3.7039262829	 0.112169
H	 2.9693140407	-4.2265123989	-1.4260540485	 0.23638
26.5479	65.0742	91.1298	167.8374	207.5285	247.828	305.3914	344.8535	413.6518	472.8786	621.908	811.7891	836.8344	934.1835	940.6811	982.0476	1010.0658	1026.7293	1055.8451	1093.2404	1129.7272	1141.2544	1152.2787	1154.6414	1208.1521	1248.2441	1251.0639	1286.426	1317.7823	1365.7937	1410.2387	1446.493	1452.0154	1480.61	1498.9173	1505.3918	1514.2344	1781.9911	2963.2153	2974.7228	2989.967	3031.3194	3057.672	3077.4646	3106.7939	3139.1215	3193.226	3496.5155
CN=COCC1CN1	CN=COC[C@H]1CN1	
InChI=1S/C5H10N2O/c1-6-4-8-3-5-2-7-5/h4-5,7H,2-3H2,1H3	InChI=1S/C5H10N2O/c1-6-4-8-3-5-2-7-5/h4-5,7H,2-3H2,1H3/t5-/m1/s1
