19
gdb 87460	2.88472	1.36151	1.23707	2.4175	76.3	-0.2499	0.0742	0.3241	1112.9694	0.157894	-422.957217	-422.94878	-422.947835	-422.989834	32.939	
C	-0.0092836016	 1.5232042028	-0.1300752368	-0.414733
C	-0.0312301596	 0.0288432809	 0.0553298272	-0.093228
O	 1.2555409626	-0.6537980511	-0.0469274337	-0.331669
C	 0.584301831	-0.6477984343	 1.1851343781	 0.52215
C	 1.151439794	-0.265351229	 2.5629024379	-0.165734
C	-0.1828359267	-0.8130148551	 3.1525846522	-0.288599
C	 0.2509762581	-1.8551348822	 2.0647483024	 0.29068
O	-0.4171513644	-2.9720934158	 1.6176717168	-0.469479
C	 1.7110371562	-1.7234251282	 2.62636936	-0.297675
H	 0.8032946246	 1.976427917	 0.4432621356	 0.124716
H	 0.1296056279	 1.7778689867	-1.1859632771	 0.130446
H	-0.9575718392	 1.9627105202	 0.1984232298	 0.121822
H	-0.8278073202	-0.4981921321	-0.4720779942	 0.10235
H	 1.668824198	 0.645690548	 2.8488023331	 0.089745
H	-0.1302886682	-1.1572192079	 4.1886122352	 0.090597
H	-1.0910548238	-0.2386596147	 2.955694146	 0.09797
H	-0.4602709342	-3.6163973894	 2.3321558019	 0.286564
H	 2.5230395436	-1.968857804	 1.9402892247	 0.118111
H	 1.8790059019	-2.1227212419	 3.6307643007	 0.085965
136.8697	153.7302	184.5939	224.4327	229.95	269.2895	390.0268	447.8639	474.7227	501.3606	620.0805	643.2481	678.4347	788.7021	810.2072	814.7923	930.8635	937.3034	954.5163	967.4483	1012.1552	1036.2796	1040.7321	1071.9278	1104.0669	1116.1762	1124.2642	1131.9263	1180.3783	1189.8992	1202.4054	1225.4902	1299.4709	1337.578	1389.4718	1409.7902	1478.2488	1487.2616	1491.8042	1518.5074	1583.9053	3035.9021	3055.1665	3058.9783	3098.3187	3099.2242	3126.3847	3126.9704	3138.2853	3165.031	3813.0834
CC1OC11C2CC1(O)C2	C[C@H]1O[C@]21[C@H]1C[C@]2(O)C1	
InChI=1S/C7H10O2/c1-4-7(9-4)5-2-6(7,8)3-5/h4-5,8H,2-3H2,1H3	InChI=1S/C7H10O2/c1-4-7(9-4)5-2-6(7,8)3-5/h4-5,8H,2-3H2,1H3/t4-,5-,6-,7-/m1/s1
