21
gdb 92413	2.15417	1.54768	1.20311	2.8483	83.24	-0.2429	-0.0238	0.2191	1151.7558	0.182094	-387.082416	-387.073578	-387.072634	-387.11617	33.591	
C	 0.1363501697	 1.6079755543	-0.1189078824	-0.414864
C	 0.0774550794	 0.0980246092	 0.0551432586	-0.027699
C	 0.9002998413	-0.8181799289	-0.8971400685	-0.25376
C	 1.371208551	-1.6683829936	 0.313876132	-0.065792
C	 2.7794914421	-1.3318490093	 0.8497837163	-0.215402
C	 2.1948166366	-0.1396503256	 1.6636548238	-0.305384
C	 0.7502760509	-0.5692186524	 1.292671695	 0.263215
C	-0.1380329349	-0.9845865242	 2.4161882007	 0.063991
O	 0.1734710545	-1.0194192921	 3.5825037715	-0.259608
H	 1.1677547316	 1.974530423	-0.1362702676	 0.119205
H	-0.3321691028	 1.9040989999	-1.0639295612	 0.11908
H	-0.3896100568	 2.124951008	 0.6912293273	 0.120709
H	-0.9720204488	-0.223787621	 0.0389097335	 0.073941
H	 0.3188504807	-1.3472785713	-1.6555125366	 0.103469
H	 1.7258407084	-0.3044503944	-1.4009249552	 0.099639
H	 1.0433478165	-2.7085378057	 0.3334686564	 0.074888
H	 3.184315766	-2.1163662511	 1.4940273215	 0.109975
H	 3.5269343385	-1.0918077076	 0.0879124882	 0.098013
H	 2.3726050777	-0.1905432873	 2.7388157899	 0.132144
H	 2.4814904106	 0.8524334218	 1.3087940419	 0.100579
H	-1.1568467321	-1.3079868716	 2.0922372349	 0.063662
67.1545	80.4954	202.6629	218.1061	233.7729	263.3744	319.8564	383.424	454.9954	507.4614	580.1169	699.8879	749.2389	770.0175	834.7846	838.9072	886.9684	900.5302	947.7674	957.3282	1008.5289	1028.7472	1033.9346	1072.2604	1116.6749	1145.8657	1154.6533	1181.1796	1200.6184	1237.5073	1246.4302	1259.0399	1267.4977	1280.212	1307.2774	1330.2406	1376.354	1411.7845	1426.6154	1474.2498	1483.4068	1489.7746	1497.3712	1502.5248	1806.2469	2838.0295	3014.5481	3029.4897	3047.2789	3053.0624	3076.3324	3092.3804	3094.9589	3100.1516	3102.6798	3110.6667	3134.6755
CC1CC2CCC12C=O	C[C@H]1C[C@H]2CC[C@@]12C=O	
InChI=1S/C8H12O/c1-6-4-7-2-3-8(6,7)5-9/h5-7H,2-4H2,1H3	InChI=1S/C8H12O/c1-6-4-7-2-3-8(6,7)5-9/h5-7H,2-4H2,1H3/t6-,7+,8+/m0/s1
