17
gdb 29800	3.21646	1.21244	0.89044	4.5888	85.9	-0.2235	-0.0194	0.2041	1279.9307	0.136542	-380.93464	-380.925555	-380.92461	-380.969157	31.977	
C	-0.050789415	 1.4408675286	 0.0539294447	-0.346843
N	-0.0528209073	-0.0102762662	 0.0281453431	-0.069955
C	-0.0465431805	-0.7897507003	-1.0912220395	-0.176535
C	 0.0386307061	-2.1237723301	-0.730798684	 0.280709
C	 0.0560875216	-3.2993120062	-1.6614073137	-0.500323
C	 0.0931203013	-2.1497275271	 0.6823093592	-0.352296
C	 0.038525476	-0.8384190342	 1.13183133	 0.225314
C	 0.0545196292	-0.3282044117	 2.4466161241	 0.20775
N	 0.0653212779	 0.1060800318	 3.5225322607	-0.365991
H	 0.9689963462	 1.8400461816	 0.0360902231	 0.149612
H	-0.5951830526	 1.8167629066	-0.814541813	 0.145332
H	-0.5467206478	 1.7920785103	 0.9604926005	 0.168887
H	-0.1049739013	-0.3383396557	-2.0700963707	 0.126667
H	 0.9649814845	-3.898494447	-1.5377111517	 0.132789
H	-0.7954398826	-3.9664982962	-1.4870391038	 0.132855
H	 0.0133513917	-2.975454119	-2.7051156814	 0.122864
H	 0.1520306927	-3.0202512851	 1.3175026025	 0.119163
68.9878	76.596	131.3435	143.0872	169.253	260.4815	288.3478	392.5402	510.9429	525.0965	572.6468	624.4614	642.763	665.2432	770.9619	790.0421	826.312	998.2248	1014.3803	1063.8569	1083.8431	1149.1649	1166.1282	1183.1657	1236.4298	1385.0584	1410.4498	1419.5045	1431.5383	1465.2658	1483.9341	1486.9847	1498.9895	1508.5266	1522.3053	1608.7024	2328.0597	3030.7339	3042.239	3082.2873	3109.4019	3114.919	3147.7125	3249.6096	3254.5241
CN1C=C(C)C=C1C#N	Cn1cc(C)cc1C#N	
InChI=1S/C7H8N2/c1-6-3-7(4-8)9(2)5-6/h3,5H,1-2H3	InChI=1S/C7H8N2/c1-6-3-7(4-8)9(2)5-6/h3,5H,1-2H3
