15
gdb 30500	4.0645	1.22499	0.94684	3.4512	75.44	-0.223	-0.0426	0.1805	1187.4527	0.112793	-450.170504	-450.161679	-450.160735	-450.205476	30.5	
C	 0.0065320315	 1.4467801533	 0.0555920434	-0.314705
N	-0.0087269995	-0.0017218478	-0.0204948082	-0.315566
C	 0.5341349389	-0.6876037868	 0.8816715073	 0.4471
O	 1.170084968	 0.0194848753	 1.9904278629	-0.222789
C	 1.7424040711	-0.7003248235	 2.9414335815	 0.148687
N	 1.8072630064	-1.9772650936	 3.0078148143	-0.334467
C	 1.1875978364	-2.6177337316	 1.9285734095	 0.443164
N	 1.2527836139	-3.9609222829	 1.9935004754	-0.547045
N	 0.5875161736	-2.0458280977	 0.9254164223	-0.358268
H	 1.026969035	 1.8532780438	 0.063242919	 0.116043
H	-0.5132515229	 1.8505038847	-0.8165611192	 0.120919
H	-0.4965331959	 1.8223942701	 0.9569403232	 0.116038
H	 2.1856777127	-0.0804625842	 3.7190269919	 0.147727
H	 1.7159695148	-4.3954650018	 2.7706172425	 0.275874
H	 0.8349879563	-4.5110636572	 1.2638486343	 0.277289
26.5309	89.5992	100.5608	146.5859	210.5704	280.9327	375.1579	412.9578	508.4013	557.5663	588.638	626.8877	652.6566	722.2715	796.332	862.1857	950.4781	1004.3015	1006.2904	1051.2344	1113.5615	1154.8287	1237.2423	1306.2264	1393.1227	1440.4118	1451.8779	1485.4584	1502.06	1580.7012	1640.7363	1715.0117	1805.4789	2998.4417	3047.3289	3103.8829	3161.4028	3630.3266	3772.237
CN=C1OC=NC(N)=N1	C[N]C1=N[C@@H](N=CO1)N	
InChI=1S/C4H6N4O/c1-6-4-8-3(5)7-2-9-4/h2H,1H3,(H2,5,6,8)	InChI=1S/C4H7N4O/c1-6-4-8-3(5)7-2-9-4/h2-3H,5H2,1H3/t3-/m1/s1
