18
gdb 53597	2.29263	1.0011	0.81329	3.4242	82.69	-0.2369	-0.0266	0.2104	1470.0708	0.144695	-401.894642	-401.884637	-401.883692	-401.931281	34.317	
C	 0.6480478096	 0.1728893094	-1.346685016	-0.499604
C	 0.1967584098	-0.7309125721	-0.2978721599	 0.051557
C	-0.1606556153	-1.4796758061	 0.5766206601	 0.067845
C	-0.6335320253	-2.3577382073	 1.6487649209	-0.293111
N	-1.5304491131	-3.4764437897	 1.2974051454	-0.085419
C	-2.1497558169	-3.5603479193	 0.0023137312	-0.248749
C	-1.1183844	-4.5801888593	 0.416502453	-0.084259
C	 0.1810894632	-4.606684656	-0.3074584087	 0.138684
O	 0.7783998651	-5.6313566456	-0.5383183995	-0.268122
H	 1.5603831354	 0.6986252995	-1.0449186389	 0.156279
H	 0.8708839078	-0.3707955392	-2.2711309143	 0.154165
H	-0.1107642804	 0.9282597272	-1.577502498	 0.152345
H	 0.2161636149	-2.78085711	 2.1967807457	 0.145532
H	-1.1909771203	-1.7494843636	 2.3721114244	 0.145586
H	-3.1962946564	-3.8527692817	-0.0170494531	 0.129333
H	-1.8492186946	-2.8402103619	-0.7572182209	 0.13048
H	-1.4439644173	-5.5620656657	 0.7515234271	 0.112172
H	 0.5696159837	-3.6204770887	-0.6324774884	 0.095284
33.1572	53.7703	92.735	107.7048	202.7935	210.8921	248.9199	313.4537	374.7463	385.5623	413.4	510.5443	547.3302	728.0058	774.9459	864.5108	907.3708	988.1231	1001.948	1045.8174	1053.5073	1054.8627	1086.236	1121.7562	1151.1717	1155.4803	1184.8776	1283.1157	1302.7055	1332.1961	1371.0132	1414.7943	1437.192	1471.7421	1476.2584	1478.2167	1499.5112	1805.1259	2359.7479	2936.0441	3025.978	3030.2808	3062.0036	3092.5522	3093.4272	3096.0269	3145.8659	3186.2846
CC#CCN1CC1C=O	CC#CCN1C[C@H]1C=O	
InChI=1S/C7H9NO/c1-2-3-4-8-5-7(8)6-9/h6-7H,4-5H2,1H3	InChI=1S/C7H9NO/c1-2-3-4-8-5-7(8)6-9/h6-7H,4-5H2,1H3/t7-,8?/m0/s1
