16
gdb 46633	3.11702	1.681	1.1185	1.6244	71.32	-0.2317	0.0058	0.2374	1029.8634	0.128185	-434.1322	-434.124846	-434.123901	-434.164424	27.237	
O	-0.0083670924	-0.0756489787	 0.0645080186	-0.401946
C	 0.0067869356	 1.1311640511	 0.0470682312	 0.45756
N	-1.076086117	 1.991259928	-0.1034109244	-0.373569
C	-0.7186422116	 3.401381355	 0.0361864443	-0.277915
C	 0.7869286445	 3.3057423378	 0.0205249661	 0.408062
N	 1.7342472568	 4.1372660699	-0.1285143522	-0.348565
C	 2.9768195258	 3.3266667066	-0.0670521649	-0.178284
C	 2.5479616196	 1.8133140545	-0.0324320752	-0.202155
N	 1.1136214055	 1.9688773915	 0.166088611	-0.143249
H	-1.994157852	 1.6432700577	 0.1164148792	 0.261483
H	-1.0929472882	 4.0160696471	-0.7880768811	 0.149412
H	-1.07275286	 3.8395869442	 0.9789204676	 0.141209
H	 3.6113554445	 3.5541871148	-0.9279844953	 0.122585
H	 3.5402422143	 3.6004149544	 0.8317962343	 0.121731
H	 2.757906932	 1.2895148231	-0.9710296187	 0.130766
H	 3.0093676125	 1.2541304429	 0.7843217894	 0.132874
92.875	122.4069	181.6359	240.5574	304.6346	420.637	559.8605	603.9561	642.6914	651.1125	752.419	755.6372	800.5542	843.4766	918.1164	988.5909	1015.7579	1060.8076	1087.639	1105.2671	1157.6757	1190.4985	1208.1259	1241.6988	1263.1627	1306.8118	1328.5085	1358.8114	1423.4498	1437.4938	1498.1201	1507.3933	1529.9326	1758.0421	1859.5117	3019.1278	3044.4332	3048.3715	3077.8646	3085.1114	3106.5868	3667.2387
O=C1NCC2=NCCN12	O=C1NCC2=NCCN12	
InChI=1S/C5H7N3O/c9-5-7-3-4-6-1-2-8(4)5/h1-3H2,(H,7,9)	InChI=1S/C5H7N3O/c9-5-7-3-4-6-1-2-8(4)5/h1-3H2,(H,7,9)
