17
gdb 13238	7.13533	0.83705	0.80391	3.1554	68.67	-0.2575	0.0302	0.2878	1370.1827	0.142363	-363.855538	-363.847265	-363.846321	-363.88984	28.386	
N	 0.0095442947	-1.186398087	 0.042690737	-0.300794
C	-0.0031786073	-0.0312469312	 0.0682478873	 0.259104
C	 0.0052630548	 1.4294151529	 0.0955383026	-0.342673
C	 1.4135273115	 2.0197542398	-0.1255395427	-0.208687
C	 1.4066521927	 3.5424587458	-0.0867946356	-0.031657
C	 1.249494804	 4.2238378475	 1.2948573353	-0.077268
O	 2.537146389	 4.8581809238	 1.1820493287	-0.266369
C	 2.7841029418	 4.2444606178	-0.0983204035	-0.09342
H	-0.6839280282	 1.7954317449	-0.6746939282	 0.153456
H	-0.3985950769	 1.759312656	 1.0601072926	 0.156148
H	 2.0919615804	 1.6308477586	 0.6425519486	 0.127467
H	 1.7993554198	 1.6726527509	-1.0907110216	 0.125441
H	 0.7180917706	 3.9366494225	-0.8401593631	 0.084088
H	 0.4373232759	 4.9550198466	 1.3865261994	 0.10609
H	 1.2044587951	 3.5358705934	 2.1511706222	 0.099013
H	 3.6496376525	 3.5687497135	-0.0714452569	 0.103713
H	 2.9392657195	 4.9885102343	-0.888617342	 0.106348
39.2482	75.3504	104.3205	128.0472	231.0363	355.7987	384.4581	413.4437	540.4088	751.4231	784.3932	875.9765	890.9108	933.9543	945.6186	980.2856	1017.0846	1047.0306	1076.5677	1111.327	1143.7899	1162.2973	1166.6937	1230.1213	1255.4413	1294.1582	1312.5972	1319.5454	1354.6358	1384.5791	1403.8242	1467.6979	1492.8618	1511.901	1536.7906	2363.6961	2994.7518	3009.2215	3033.9949	3042.5522	3044.0733	3050.7737	3063.6768	3071.8966	3091.6847
N#CCCC1COC1	N#CCCC1COC1	
InChI=1S/C6H9NO/c7-3-1-2-6-4-8-5-6/h6H,1-2,4-5H2	InChI=1S/C6H9NO/c7-3-1-2-6-4-8-5-6/h6H,1-2,4-5H2
