16
gdb 44333	3.1627	1.91384	1.53522	3.5659	72.34	-0.2215	0.0005	0.2221	869.068	0.127843	-400.779636	-400.773388	-400.772444	-400.809989	26.209	
O	 0.0342215235	-0.0186245965	 0.0797802189	-0.376113
C	 0.0358489228	 1.184883548	-0.018191723	 0.408611
N	-1.0661722699	 2.0156471664	 0.0504379308	-0.301351
C	-0.777839103	 3.3897717291	-0.1752334834	-0.008811
C	 0.2240277364	 4.1752646032	 0.7312019757	-0.117611
C	 0.9001374511	 3.4593727597	 1.8386655462	-0.064532
C	 1.5322226888	 2.3650002071	 1.3986663995	-0.091079
C	 1.2602754301	 2.1425438614	-0.0859598052	-0.221983
C	 0.6638393283	 3.485429506	-0.5493677584	-0.089151
H	-1.9540058606	 1.6658730291	 0.371956989	 0.253505
H	-1.5363179814	 3.9639397136	-0.6953137976	 0.107787
H	 0.0745381898	 5.2487591762	 0.766931358	 0.09028
H	 0.8436343831	 3.7803399181	 2.871766294	 0.102686
H	 2.0260347678	 1.6191845551	 2.0090131935	 0.115691
H	 2.0819675881	 1.7294284223	-0.6693370614	 0.094518
H	 1.018211095	 4.0030554613	-1.4314089966	 0.097553
144.0796	290.1638	358.3634	438.4301	457.5776	585.0781	612.1225	710.2474	721.3007	738.1935	747.7935	805.0353	810.3619	823.0835	878.7908	924.8738	936.9465	967.0693	983.6354	1013.4927	1037.3434	1057.4081	1093.5509	1127.8509	1153.5095	1198.7103	1220.0414	1261.7348	1284.2117	1345.4136	1367.8415	1384.2667	1426.1741	1644.7512	1831.5192	3124.1895	3168.3396	3174.5771	3192.5822	3200.5988	3225.614	3649.6687
O=C1NC2C3C=CC1C23	O=C1N[C@H]2[C@H]3C=C[C@@H]1[C@@H]23	
InChI=1S/C7H7NO/c9-7-4-2-1-3-5(4)6(3)8-7/h1-6H,(H,8,9)	InChI=1S/C7H7NO/c9-7-4-2-1-3-5(4)6(3)8-7/h1-6H,(H,8,9)/t3-,4+,5-,6-/m0/s1
