19
gdb 26952	2.95099	1.26648	0.95799	1.136	83.38	-0.1878	0.0541	0.2418	1249.8479	0.161295	-382.088901	-382.080249	-382.079305	-382.122656	33.003	
N	 0.138033093	 1.3980964754	-0.2644749686	-0.62
C	-0.0056461405	 0.0007461593	-0.0820630731	 0.129487
C	-1.0911851533	-0.8280955791	 0.1425341382	 0.295626
C	-0.5772732364	-2.1576485264	 0.240390711	-0.277294
C	 0.7870267628	-2.0975363808	 0.0745323015	-0.083415
N	 1.1231082668	-0.7862873332	-0.1201948924	-0.244079
C	-2.4959840356	-0.381787927	 0.2530391815	-0.105943
C	-3.637375916	-1.2270357884	-0.2764649971	-0.267014
C	-3.4648679582	-1.0514546299	 1.2071765032	-0.267022
H	-0.1904727689	 1.9220680184	 0.5401090829	 0.242697
H	-0.3789980344	 1.7310179778	-1.0717234403	 0.242706
H	-1.147596351	-3.0583823555	 0.4134829625	 0.087527
H	 1.5351949884	-2.8735367232	 0.0794111149	 0.113845
H	 2.0442276556	-0.4129856118	-0.2710399025	 0.257038
H	-2.6216750512	 0.6916262842	 0.1405858554	 0.055138
H	-4.4660267178	-0.7244596304	-0.7639320778	 0.105848
H	-3.3796672206	-2.1868408228	-0.7111068306	 0.114502
H	-3.0898661686	-1.8918910864	 1.7812819049	 0.114503
H	-4.1748901341	-0.4281532701	 1.7403128664	 0.105849
48.9109	126.5081	157.6152	162.0723	254.3117	290.822	417.2045	497.6498	499.1446	585.402	641.5771	679.3497	721.4121	722.603	792.6534	800.1715	812.8154	816.5367	897.3644	912.9049	933.6557	1053.5661	1057.8276	1068.6235	1073.2915	1108.5597	1136.48	1163.2614	1201.599	1209.4611	1221.6497	1264.3157	1322.6342	1386.5485	1441.2551	1466.1628	1489.6973	1500.8377	1511.2176	1619.5543	1663.1576	3127.6631	3130.9911	3138.7542	3207.1444	3223.1414	3233.7486	3267.3215	3497.9994	3561.339	3681.7164
NC1=C(C=CN1)C1CC1	Nc1c(cc[nH]1)C1CC1	
InChI=1S/C7H10N2/c8-7-6(3-4-9-7)5-1-2-5/h3-5,9H,1-2,8H2	InChI=1S/C7H10N2/c8-7-6(3-4-9-7)5-1-2-5/h3-5,9H,1-2,8H2
