17
gdb 98089	4.3324	0.86977	0.76791	1.6914	70.54	-0.2447	-0.0937	0.1511	1485.8551	0.13244	-458.965613	-458.955923	-458.954979	-459.00201	32.966	
C	-0.244114881	 1.5688163666	 0.1004238158	-0.386107
C	 0.1809306388	 0.1036829637	 0.0737848091	-0.276459
C	 0.8299808495	-0.3070494209	-1.2266130285	 0.283771
O	 0.9996122762	 0.432813347	-2.1696675618	-0.284861
C	 1.3066667085	-1.7757105037	-1.3185072402	 0.275668
O	 1.2053425439	-2.5185276058	-0.3706508722	-0.28657
C	 1.9176083903	-2.1901634167	-2.6263763414	-0.025536
C	 3.1052114045	-3.0744316436	-2.592751776	-0.157566
O	 1.8296501804	-3.5850241831	-2.9220108737	-0.20863
H	 0.6146034696	 2.229628511	-0.0448220758	 0.131924
H	-0.9591218004	 1.7849365204	-0.6977705082	 0.13312
H	-0.710670797	 1.8145544745	 1.0578132855	 0.118044
H	 0.8813378193	-0.1391620257	 0.8832999565	 0.143154
H	-0.6661491712	-0.5739843043	 0.2450402263	 0.143626
H	 1.7791101808	-1.5145636192	-3.4637641091	 0.131353
H	 3.8234033356	-3.0121082238	-3.4087739239	 0.129154
H	 3.4926640522	-3.3818220464	-1.6231726623	 0.135915
37.8828	45.2538	67.1497	143.5345	189.8995	246.5637	260.7012	305.7769	317.9191	419.9693	510.7875	680.7242	693.6253	778.0021	821.0769	842.854	889.7036	925.3933	1004.2799	1017.7056	1078.8571	1099.5649	1102.0943	1161.3322	1172.0985	1201.9581	1260.254	1268.8217	1374.4902	1412.9217	1416.7313	1434.6115	1494.4466	1498.2104	1507.8066	1796.5307	1802.307	3035.1979	3052.2685	3057.9019	3088.5151	3124.5432	3126.0163	3178.4331	3189.5505
CCC(=O)C(=O)C1CO1	CCC(=O)C(=O)[C@H]1CO1	
InChI=1S/C6H8O3/c1-2-4(7)6(8)5-3-9-5/h5H,2-3H2,1H3	InChI=1S/C6H8O3/c1-2-4(7)6(8)5-3-9-5/h5H,2-3H2,1H3/t5-/m1/s1
