20
gdb 103686	3.85052	0.89486	0.86082	4.9744	78.57	-0.24	0.0267	0.2666	1424.9268	0.168866	-440.286032	-440.27615	-440.275206	-440.321815	35.026	
C	-0.0499470171	 1.56795852	 0.1693005023	-0.254509
O	 0.0231876496	 0.1617929204	 0.2889954319	-0.278977
C	-1.161924831	-0.5435340585	 0.0048904046	 0.399202
C	-2.3198098998	-0.1940105372	 0.9318036768	-0.458437
C	-1.5429229616	-0.6015472046	-1.5225843705	-0.239433
N	-1.3342599034	-2.0467543224	-1.458399273	-0.042194
C	-0.841099573	-2.0640156441	-0.0840609886	-0.217339
C	-1.4403655946	-3.0459028885	-2.3595844526	 0.134173
O	-1.1657108545	-4.2074441815	-2.1354791342	-0.332247
H	 0.969046326	 1.9443733825	 0.2830384013	 0.135791
H	-0.4293853705	 1.8789236168	-0.815578913	 0.108452
H	-0.6797181668	 2.0244927905	 0.9444140317	 0.115226
H	-2.6639422962	 0.8343279036	 0.7862668672	 0.122353
H	-3.1683502289	-0.8571840156	 0.7403368612	 0.130303
H	-2.0155072417	-0.3145894254	 1.9761988827	 0.131918
H	-2.5629782786	-0.2958625831	-1.7792876616	 0.11279
H	-0.8281480804	-0.0773319427	-2.1671869659	 0.115602
H	 0.2289307262	-2.276758951	-0.0029107258	 0.130505
H	-1.4005654144	-2.7213283882	 0.5879370607	 0.121272
H	-1.8212647492	-2.682029361	-3.3368401952	 0.065549
26.9358	97.7881	109.3795	166.6802	197.0968	246.9168	259.9024	309.6331	346.9636	355.5143	415.7982	490.4253	541.5291	686.9995	802.6013	883.4335	892.0122	928.4496	958.8261	967.4843	1033.6898	1104.4557	1139.7265	1150.2327	1159.3002	1181.0518	1198.3388	1211.9255	1229.5992	1274.6861	1286.6313	1342.7391	1402.6624	1406.7864	1453.7861	1476.6807	1485.6371	1488.635	1497.6786	1504.7037	1510.9774	1516.1015	1791.9614	2915.1828	2989.2687	3024.5761	3038.1894	3046.6262	3050.5058	3075.247	3101.8858	3111.8869	3117.2469	3120.8149
COC1(C)CN(C1)C=O	COC1(C)CN(C1)C=O	
InChI=1S/C6H11NO2/c1-6(9-2)3-7(4-6)5-8/h5H,3-4H2,1-2H3	InChI=1S/C6H11NO2/c1-6(9-2)3-7(4-6)5-8/h5H,3-4H2,1-2H3
