18
gdb 121462	3.6498	0.8154	0.69855	2.7593	72.67	-0.2512	0.0044	0.2556	1587.9161	0.14652	-476.19958	-476.190018	-476.189074	-476.235574	33.351	
O	-0.0848717406	 1.4708563822	-0.027239917	-0.422195
C	 0.0630180375	 0.0744587692	 0.1171187635	-0.04496
C	-1.2695260135	-0.6485351091	-0.0872198756	-0.173471
N	-1.8033366998	-0.2582264118	-1.3925300189	-0.375502
C	-2.4451456323	-1.0802104984	-2.0817339884	 0.450123
O	-2.7877877142	-2.3941810761	-1.8401869705	-0.264271
C	-3.574442995	-2.4560023839	-3.0757677689	-0.089629
C	-3.1634051289	-1.011966281	-3.4210031536	-0.027277
O	-4.2470561233	-0.123721234	-3.5084468594	-0.422626
H	-0.6084810724	 1.5864329624	-0.830876479	 0.287404
H	 0.8043229612	-0.3283183067	-0.5932624024	 0.082717
H	 0.4378359573	-0.1117977672	 1.129290444	 0.103235
H	-1.1451801098	-1.7340880726	 0.0144888289	 0.110903
H	-1.9744675819	-0.3127136638	 0.6839885602	 0.119597
H	-3.2120992656	-3.2491383905	-3.7320080059	 0.126681
H	-4.6384194525	-2.5691943788	-2.8602850496	 0.137584
H	-2.4846645095	-0.9276934288	-4.280252735	 0.101548
H	-3.9209263369	 0.7557796489	-3.2866277226	 0.300138
29.0635	86.486	120.1086	125.9869	159.6158	211.5982	256.1116	357.2727	422.5119	465.8399	516.0921	528.1683	698.6127	745.2961	836.5015	894.174	915.621	938.5296	964.2978	1046.4058	1060.5455	1093.1812	1110.6196	1142.4536	1156.6786	1184.0612	1209.3099	1223.9764	1267.4542	1318.7252	1348.1097	1372.1359	1384.8021	1414.3013	1441.3699	1476.146	1504.7179	1509.7812	1846.1116	2965.2754	3015.4344	3017.7438	3062.7111	3072.4704	3077.9128	3145.8248	3765.3168	3809.2002
OCCN=C1OCC1O	OCCN=C1OC[C@H]1O	
InChI=1S/C5H9NO3/c7-2-1-6-5-4(8)3-9-5/h4,7-8H,1-3H2	InChI=1S/C5H9NO3/c7-2-1-6-5-4(8)3-9-5/h4,7-8H,1-3H2/t4-/m1/s1
