18
gdb 89833	3.2734	1.26091	0.99776	3.7628	73.56	-0.2422	0.0299	0.2721	1193.569	0.147611	-439.111105	-439.102628	-439.101683	-439.144563	31.231	
C	-0.0420307035	 1.4112550786	-0.017507903	-0.343631
N	-0.0107401005	-0.0299033964	-0.0960132235	-0.085297
C	-1.2173152923	-0.8337664452	-0.0760198833	-0.235908
C	-0.7015227912	-2.249394481	-0.3353505155	 0.40926
C	-1.55972017	-3.4326925041	-0.2903692973	-0.247395
O	-1.1468333074	-2.8736823434	-1.5423341231	-0.262202
C	 0.7905382655	-2.231682901	-0.0655337202	-0.436918
C	 1.1599819529	-0.746486478	-0.0664020573	 0.41901
O	 2.276109813	-0.2736678471	-0.0301479659	-0.391531
H	 0.990488256	 1.7639938094	-0.0245407294	 0.167981
H	-0.5798332452	 1.8403919201	-0.87138661	 0.126839
H	-0.53331467	 1.7497758243	 0.9041622646	 0.121796
H	-1.7357847248	-0.751621052	 0.8918012161	 0.108657
H	-1.9200125538	-0.5369603791	-0.8635222689	 0.127619
H	-1.1289858678	-4.4025651909	-0.0440306366	 0.119097
H	-2.6194112962	-3.3268471646	-0.0577286343	 0.11516
H	 1.0471672546	-2.6547517585	 0.9117829919	 0.13652
H	 1.3518381506	-2.7763844611	-0.8270033644	 0.150944
62.418	137.0161	154.357	187.2685	260.197	314.4356	364.4815	386.6799	480.7865	507.9914	578.2296	656.2984	771.5163	797.8267	840.9847	901.0336	952.1848	971.9706	1014.1544	1063.1919	1122.3152	1126.5988	1152.9413	1157.8874	1181.6398	1222.7335	1250.7682	1255.7069	1282.8196	1313.3408	1420.0424	1435.891	1450.4626	1455.8912	1493.094	1506.3418	1535.4248	1539.1703	1812.5097	2982.2183	3012.6285	3051.6326	3058.2902	3063.1745	3076.1137	3123.9761	3145.7183	3161.2725
CN1CC2(CO2)CC1=O	CN1C[C@]2(CO2)CC1=O	
InChI=1S/C6H9NO2/c1-7-3-6(4-9-6)2-5(7)8/h2-4H2,1H3	InChI=1S/C6H9NO2/c1-7-3-6(4-9-6)2-5(7)8/h2-4H2,1H3/t6-/m0/s1
