18
gdb 126199	2.0172	1.66991	0.97833	2.1246	75.13	-0.2407	0.0053	0.246	1217.8727	0.146685	-439.102546	-439.093298	-439.092354	-439.137022	33.397	
C	-0.3518384592	 1.5365373778	-0.0015872924	-0.373581
C	 0.0541730497	 0.0537941077	-0.0649185751	-0.311021
C	 0.8014188108	-0.407409333	 1.1488191465	-0.017937
C	 2.1056605484	-0.7697087202	 1.309207758	 0.363646
C	 3.2604920519	-0.861612178	 0.376321291	-0.492432
O	 2.3502138073	-1.1099353794	 2.5921866585	-0.227241
N	 1.1726960485	-0.9748622467	 3.3372958213	-0.266068
C	 0.2838044992	-0.5635988388	 2.4704436496	 0.406757
O	-0.9933129789	-0.3216062769	 2.8166761951	-0.421533
H	 0.5293423501	 2.1814233555	 0.0722218314	 0.117079
H	-0.9124877945	 1.8242470448	-0.8963143889	 0.11259
H	-0.9823173296	 1.7269334369	 0.8714643401	 0.13684
H	-0.8485270327	-0.5576722615	-0.1853929102	 0.118403
H	 0.6646568969	-0.1246270996	-0.9569356249	 0.102865
H	 4.0727738765	-0.1988946397	 0.6928170862	 0.150546
H	 3.6596305696	-1.8808469123	 0.3475606871	 0.150625
H	 2.958611359	-0.5791595345	-0.6340071549	 0.139794
H	-1.080989613	-0.5088476621	 3.7609357215	 0.31067
59.8161	89.5372	138.2716	180.8847	199.7093	279.1113	285.2458	367.1214	404.3745	473.0173	510.8522	580.434	624.2013	685.7016	753.715	771.8506	803.5428	945.7875	973.7359	999.1807	1031.8796	1061.6994	1086.9404	1155.2176	1216.4405	1234.3943	1299.4076	1322.9891	1365.4337	1407.7532	1414.3592	1472.8094	1478.4791	1487.6532	1497.1702	1509.2652	1533.858	1566.7937	1697.032	3029.668	3039.4725	3041.7968	3066.5894	3097.6884	3109.7217	3120.648	3136.4908	3779.6662
CCC1=C(C)ON=C1O	CCc1c(C)onc1O	
InChI=1S/C6H9NO2/c1-3-5-4(2)9-7-6(5)8/h3H2,1-2H3,(H,7,8)	InChI=1S/C6H9NO2/c1-3-5-4(2)9-7-6(5)8/h3H2,1-2H3,(H,7,8)
