14
gdb 131899	4.56461	1.08486	0.88133	5.3746	71.98	-0.2593	-0.0851	0.1741	1240.2662	0.100371	-473.772178	-473.764409	-473.763464	-473.805112	27.715	
C	-0.0070985731	 1.5110705828	-0.0297808459	-0.500678
C	-0.0007609196	 0.015251186	 0.0336982359	 0.249141
C	-0.044939129	-0.8599891469	-1.0163367099	-0.079774
O	-0.0233977488	-2.1485667575	-0.5947679763	-0.141379
C	 0.0353956246	-2.0899604028	 0.7493314794	 0.467641
C	 0.0523960579	-0.806297836	 1.2034889197	-0.338384
N	 0.0695386276	-3.3290572838	 1.4623437725	 0.340971
O	 0.1231439933	-3.2397668526	 2.6870135603	-0.374969
O	 0.0434488304	-4.3668955583	 0.8145168373	-0.356513
H	 0.8930748203	 1.9317297244	 0.4303891829	 0.144084
H	-0.0497816049	 1.8606145636	-1.0644561272	 0.134803
H	-0.8693623121	 1.927322922	 0.5015458056	 0.144126
H	-0.0920662183	-0.7214560118	-2.0844404753	 0.157479
H	 0.0970528219	-0.5021854292	 2.2360627809	 0.153453
81.1416	116.9987	155.8255	185.7378	308.8249	332.0917	420.0565	544.4297	615.7391	621.4796	667.2357	767.6918	799.8571	832.9321	875.9544	968.8669	989.5882	1017.1006	1067.1049	1131.8294	1171.2368	1253.8181	1312.2372	1393.1751	1401.3466	1423.8741	1482.6496	1496.9559	1542.6897	1622.9265	1642.3094	3039.225	3095.4037	3120.6579	3276.7757	3281.8902
CC1=COC(=C1)N(=O)=O	Cc1coc(c1)N(=O)=O	
InChI=1S/C5H5NO3/c1-4-2-5(6(7)8)9-3-4/h2-3H,1H3	InChI=1S/C5H5NO3/c1-4-2-5(6(7)8)9-3-4/h2-3H,1H3
