13
gdb 8832	3.14437	1.57769	1.1642	4.3413	55.19	-0.3096	-0.0289	0.2807	991.9639	0.093541	-435.767068	-435.758515	-435.757571	-435.80097	28.473	
C	 0.018019905	 1.3644972582	-0.0234019109	-0.248601
O	 0.0978083188	-0.0744951974	 0.0277747117	-0.216818
C	 0.6478190368	-0.5854515753	 1.1192428025	 0.433905
O	 1.1098932751	 0.0314830125	 2.0456145325	-0.361591
C	 0.6500556916	-2.1272812162	 1.1032905792	-0.093805
O	 1.427072006	-2.6120976839	 2.1551754798	-0.400007
C	-0.7470544513	-2.6134558718	 1.1676333166	 0.267102
N	-1.8346935911	-2.9979004976	 1.2235375257	-0.311333
H	 1.0188643928	 1.798599814	 0.0235253597	 0.154339
H	-0.4604180379	 1.5954491934	-0.9736014859	 0.15326
H	-0.5787265592	 1.7371056662	 0.8115768643	 0.157975
H	 1.071468396	-2.4592758048	 0.1457205301	 0.157722
H	 1.5307358874	-1.8688064874	 2.7708972646	 0.307851
55.5516	99.8919	109.2062	176.5836	223.6432	258.6752	335.8118	404.3089	424.6493	456.6072	598.7235	654.953	793.682	903.2839	960.8427	1007.0068	1127.9499	1177.4159	1207.8753	1234.9431	1308.0668	1337.3956	1437.911	1477.2033	1483.3881	1492.5911	1825.5789	2359.8167	3039.1196	3063.2122	3145.0655	3178.9123	3700.0423
COC(=O)C(O)C#N	COC(=O)[C@@H](O)C#N	
InChI=1S/C4H5NO3/c1-8-4(7)3(6)2-5/h3,6H,1H3	InChI=1S/C4H5NO3/c1-8-4(7)3(6)2-5/h3,6H,1H3/t3-/m0/s1
