20
gdb 58343	1.94906	1.39759	1.00043	6.1431	77.44	-0.2352	-0.0224	0.2129	1285.8545	0.167776	-440.334593	-440.324058	-440.323114	-440.371442	37.208	
C	-0.0644455249	 1.4997836123	 0.0413815463	-0.388061
C	-0.0866666635	-0.0360680155	 0.0193376494	 0.007401
C	 0.7470240322	-0.6585844002	 1.1480688877	-0.386018
N	-1.4739580218	-0.5715501654	-0.0083034729	-0.14192
C	-2.2798739488	-0.2760511523	 1.1011067035	 0.16529
O	-3.4057886824	-0.6351972402	 1.310468993	-0.27266
C	-1.9642585079	-1.3541687837	-1.0862276026	 0.412638
C	-0.9603620434	-1.7783839268	-2.1528469523	-0.510221
O	-3.120583814	-1.6816161612	-1.1655049612	-0.293362
H	 0.9632894135	 1.8538180348	-0.0848020165	 0.125705
H	-0.6708475174	 1.9082683273	-0.7718240853	 0.131313
H	-0.4395941479	 1.90860584	 0.9837149263	 0.131129
H	 0.3677092162	-0.3401295324	-0.9206852362	 0.108732
H	 0.7279600546	-1.7506357538	 1.0893684534	 0.129197
H	 1.7873433858	-0.3283874693	 1.0688873552	 0.125406
H	 0.3814062598	-0.367046806	 2.1369891122	 0.130491
H	-1.7264673604	 0.3574355831	 1.8191914453	 0.080964
H	-0.0930103568	-2.2962317556	-1.7326501121	 0.142305
H	-1.4920246691	-2.4531085619	-2.8229612559	 0.154411
H	-0.596504644	-0.9254320531	-2.7348867273	 0.147261
24.467	39.7315	116.4198	195.8391	232.5422	238.529	242.4611	254.0656	283.335	322.7575	408.9587	442.7793	482.4852	540.29	595.4025	626.4408	735.4728	880.3437	926.7465	948.6624	984.2118	1030.1899	1048.3549	1075.5653	1115.1663	1149.2261	1183.2529	1210.3696	1287.4793	1348.0761	1384.1765	1404.1912	1423.5188	1430.5607	1469.5025	1475.4438	1482.8422	1491.5376	1492.5446	1505.3243	1509.3031	1782.4056	1860.515	2950.4674	3041.1843	3043.8196	3045.7862	3109.4621	3110.8841	3112.0775	3117.7204	3120.6753	3150.1282	3161.4553
CC(C)N(C=O)C(C)=O	CC(C)N(C=O)C(=O)C	
InChI=1S/C6H11NO2/c1-5(2)7(4-8)6(3)9/h4-5H,1-3H3	InChI=1S/C6H11NO2/c1-5(2)7(4-8)6(3)9/h4-5H,1-3H3
