19
gdb 94075	4.45611	0.95757	0.82657	0.5921	78.09	-0.2472	0.0361	0.2833	1367.8621	0.158851	-422.993867	-422.985093	-422.984149	-423.027036	33.887	
O	-0.0613326275	 1.4449701098	-0.0438923218	-0.431204
C	 0.0097490313	 0.0279997063	 0.0013367286	 0.115342
C	-1.4166125327	-0.5123832445	 0.0517593457	-0.223756
C	-1.4156061153	-2.0418837347	-0.0677793564	-0.215603
C	-0.6019847468	-2.4810173403	-1.3010399775	-0.057249
O	 0.7210857248	-1.9483503259	-1.2509321297	-0.256727
C	 0.721573814	-0.5314355131	-1.2384853941	-0.098613
C	-0.5087643181	-3.9333416204	-1.4093048653	 0.294726
C	-0.4720201056	-5.131401875	-1.4841535691	-0.406435
H	 0.8329202247	 1.7949458166	 0.0236344037	 0.284647
H	 0.5553171355	-0.3122986591	 0.8961484161	 0.072882
H	-1.9078313566	-0.1912719079	 0.9753082018	 0.106589
H	-1.9768455043	-0.0670128511	-0.7808551945	 0.106999
H	-0.9618438743	-2.4991796946	 0.8183084067	 0.115567
H	-2.4361301527	-2.4287329794	-0.1492391893	 0.111259
H	-1.1054699487	-2.091552685	-2.2046935896	 0.094017
H	 0.2296594859	-0.1252836746	-2.1385900312	 0.094239
H	 1.7739338241	-0.2282069425	-1.2602500629	 0.097576
H	-0.4288219476	-6.1899517247	-1.5580610111	 0.195742
83.2236	141.2466	204.3788	234.265	287.5266	326.8844	331.211	378.8714	442.3675	460.4701	534.1679	541.2632	605.9661	622.2228	672.4954	805.6404	850.2487	904.6975	958.9938	979.0706	1035.8272	1057.7799	1091.693	1106.9618	1119.1136	1124.5411	1185.2179	1236.5179	1262.2462	1294.4458	1322.9672	1343.2292	1347.0456	1366.2182	1385.6574	1402.7049	1441.9245	1479.0459	1487.652	1501.5592	2245.9218	2935.6803	2965.0535	2978.1252	3029.5102	3046.7451	3069.6405	3084.5503	3095.6676	3504.4164	3814.8557
OC1CCC(OC1)C#C	O[C@H]1CC[C@@H](OC1)C#C	
InChI=1S/C7H10O2/c1-2-7-4-3-6(8)5-9-7/h1,6-8H,3-5H2	InChI=1S/C7H10O2/c1-2-7-4-3-6(8)5-9-7/h1,6-8H,3-5H2/t6-,7-/m0/s1
