15
gdb 33360	5.68915	0.69841	0.67123	1.0354	83.45	-0.2498	-0.0294	0.2204	1620.0811	0.111815	-420.560541	-420.552075	-420.551131	-420.595006	30.137	
C	 0.0598770776	-3.7891777139	-0.1107429204	-0.559454
C	 0.0450701827	-2.5824811525	-0.0727277654	 0.308924
C	 0.0271596431	-1.2230138841	-0.0297894603	-0.368998
C	 0.0104871655	-0.0135854538	 0.012517585	 0.540095
C	-0.0242524204	 1.4422326469	 0.0558055873	-0.137892
C	-0.6025971539	 2.0024422086	 1.3965721897	-0.124578
O	 0.2733596809	 3.067430592	 1.7124358974	-0.224897
C	 1.5228116336	 2.6413383021	 1.2348616276	 0.01951
O	 1.2839482603	 2.0234048936	-0.0144386951	-0.241423
H	 0.0743574391	-4.8503530121	-0.1451403754	 0.196083
H	-0.5929991668	 1.8183031371	-0.8029347237	 0.123922
H	-1.6148067138	 2.3957453125	 1.2923038894	 0.131278
H	-0.5873596211	 1.2250086767	 2.172211992	 0.115312
H	 2.1686894168	 3.5102392613	 1.0869197891	 0.128017
H	 1.9885996265	 1.9261246259	 1.9360926028	 0.094101
34.5111	80.9141	116.5278	227.1259	262.733	291.7815	421.5084	480.536	536.0177	548.2676	594.4805	611.344	666.8147	737.9508	774.1403	913.4618	958.399	980.0635	1041.5488	1089.2876	1106.3384	1177.1094	1185.1244	1215.5015	1265.1552	1299.6113	1346.5337	1369.6949	1425.721	1511.3596	1539.0743	2182.1842	2360.8002	2946.6217	3017.1714	3035.0905	3103.3678	3123.2907	3503.8461
C#CC#CC1COCO1	C#CC#C[C@H]1COCO1	
InChI=1S/C7H6O2/c1-2-3-4-7-5-8-6-9-7/h1,7H,5-6H2	InChI=1S/C7H6O2/c1-2-3-4-7-5-8-6-9-7/h1,7H,5-6H2/t7-/m0/s1
