17
gdb 32135	3.64133	1.13109	0.86778	1.7706	80.31	-0.2119	0.0078	0.2198	1294.3003	0.13694	-421.887876	-421.879828	-421.878883	-421.920391	31.068	
C	-0.0282167608	 1.4013216954	-0.0833290336	-0.243984
O	 0.0171724444	-0.0094960306	 0.0020189178	-0.26617
C	 0.6363365904	-0.5689718421	 1.0765206086	 0.429857
C	 1.2359655155	 0.1589702625	 2.1099494975	-0.287726
C	 1.8390988925	-0.5354484072	 3.1573987567	-0.073992
C	 1.855886481	-1.9231642286	 3.1941938634	-0.273426
C	 1.2518547862	-2.6369516228	 2.1530591431	 0.414494
O	 1.2290823722	-3.9999302548	 2.1212703274	-0.444327
C	 0.6449265394	-1.9653927817	 1.0991917186	-0.307736
H	 0.9778197053	 1.8377776231	-0.1296935503	 0.12407
H	-0.5616702692	 1.6321634895	-1.0070224879	 0.134023
H	-0.5684126908	 1.8421078883	 0.7643982877	 0.124076
H	 1.2386372919	 1.240192887	 2.1084795695	 0.093505
H	 2.305905838	 0.0235549206	 3.9619561478	 0.095292
H	 2.3296056404	-2.4510570693	 4.0167883979	 0.079296
H	 1.6795376911	-4.3365442359	 2.9026306401	 0.295638
H	 0.1780189724	-2.5194222733	 0.2944543857	 0.10711
85.6407	205.7188	237.2333	237.5654	270.6621	366.6525	369.5368	467.1438	471.345	530.8073	586.1212	639.9574	702.7292	744.7952	764.6774	828.8252	881.6516	936.5982	946.5293	1005.6676	1076.2124	1114.0551	1174.1085	1177.8268	1190.0406	1206.9166	1253.5576	1322.7797	1335.014	1366.2191	1476.2933	1489.3657	1504.348	1518.1132	1529.9381	1626.9778	1663.8627	3004.4419	3063.9126	3132.171	3161.4946	3183.9714	3212.6797	3221.5149	3823.9005
COC1=CC=CC(O)=C1	COc1cccc(O)c1	
InChI=1S/C7H8O2/c1-9-7-4-2-3-6(8)5-7/h2-5,8H,1H3	InChI=1S/C7H8O2/c1-9-7-4-2-3-6(8)5-7/h2-5,8H,1H3
