16
gdb 62339	3.96857	1.13733	1.08794	2.1391	78.67	-0.2521	-0.004	0.2481	1141.1115	0.122195	-400.684115	-400.675746	-400.674802	-400.716822	31.924	
C	 0.0155455007	 1.5438378333	 0.0632758469	-0.472476
C	 0.0523653973	 0.0250265713	 0.0522937279	 0.091331
C	-1.1131446136	-0.6166923463	-0.5022203559	 0.247043
C	-2.0855977803	-1.1447433897	-0.9731772765	-0.411377
C	 1.3244087665	-0.7581002511	-0.1544365691	 0.051261
O	 2.4580512947	-0.0264129929	 0.3644435844	-0.274005
C	 1.9323183974	-0.1348492419	 1.6594495825	 0.43055
N	 2.4230601325	 0.1953572806	 2.7619593364	-0.551238
C	 0.682088966	-0.8130423129	 1.2068872917	-0.234757
H	 0.9645374847	 1.9565734186	 0.4079857895	 0.146246
H	-0.1781933424	 1.9189088355	-0.9457109422	 0.13366
H	-0.7833088333	 1.8997696342	 0.7191835677	 0.137263
H	-2.9473396206	-1.6052890376	-1.3896267496	 0.19973
H	 1.5088596161	-1.5076396233	-0.9111916897	 0.136369
H	 3.3476747489	 0.6139943308	 2.6480927791	 0.234763
H	 0.1305521554	-1.5863760987	 1.7188202769	 0.135638
120.7663	132.7382	166.0203	179.779	271.3374	333.744	416.8421	465.5953	517.05	539.4871	605.5758	623.3611	661.8044	709.5088	757.5468	830.9393	868.1292	871.613	925.105	958.7908	972.6382	1004.1528	1034.6609	1071.3548	1105.3011	1169.9221	1181.2954	1269.1322	1282.8489	1358.9547	1414.5824	1483.7521	1497.736	1832.0548	2234.6638	3052.9431	3119.5685	3146.9741	3220.7279	3245.7434	3481.5869	3501.1693
CC1(C#C)C2OC(=N)C12	C[C@@]1(C#C)[C@H]2O[C]([NH])[C@@H]12	
InChI=1S/C7H7NO/c1-3-7(2)4-5(7)9-6(4)8/h1,4-5,8H,2H3	InChI=1S/C7H7NO/c1-3-7(2)4-5(7)9-6(4)8/h1,4-5,8H,2H3/t4-,5-,7-/m0/s1
