21
gdb 59581	2.94768	1.23901	1.03619	2.6457	77.7	-0.2376	0.0644	0.302	1228.2084	0.182164	-424.187457	-424.178493	-424.177549	-424.221617	34.001	
C	 0.0317306115	 1.5120150416	-0.0690623766	-0.407719
C	-0.0282007433	-0.015772208	-0.0500704587	 0.12081
O	 0.7969530581	-0.5589237729	 0.9803747785	-0.434564
C	-1.4578067307	-0.5378911267	 0.0649790281	-0.000857
C	-2.3850478804	-0.4290708292	-1.1934191135	-0.269621
C	-2.572178715	-1.9613174973	-1.1692163244	 0.125225
O	-1.5895088085	-2.6524101495	-1.9691005491	-0.297604
C	-0.7684147049	-2.9260020568	-0.8050476446	-0.081368
C	-1.6790311406	-2.0831407291	 0.0981234348	-0.100945
H	 1.0675253587	 1.8508302366	-0.1560361661	 0.124706
H	-0.540124698	 1.923024923	-0.907173359	 0.122968
H	-0.3885673854	 1.9273853594	 0.8559559979	 0.10382
H	 0.4149457754	-0.3945218866	-0.9786621486	 0.096875
H	 0.469386821	-0.224219787	 1.8227615762	 0.274961
H	-1.9276039869	-0.0726442925	 0.9406594571	 0.060718
H	-3.3009470977	 0.1425970181	-1.021760035	 0.098774
H	-1.9079084959	-0.0705501317	-2.1095391175	 0.108817
H	-3.5766736722	-2.3765706447	-1.2894383033	 0.071891
H	-0.7771464652	-3.9962917156	-0.5607006038	 0.096278
H	 0.2692237098	-2.6023716161	-0.9321954734	 0.115762
H	-1.9961799899	-2.5209091351	 1.0433130111	 0.071073
46.1344	86.5138	159.4664	237.288	267.8514	280.5175	328.4236	371.6028	391.181	471.3565	530.9602	675.7861	752.2964	780.2634	841.4744	889.6977	923.9018	930.9898	972.1831	978.8026	1000.8961	1019.324	1036.6372	1065.242	1075.5835	1114.721	1123.4255	1148.9164	1186.5471	1195.3851	1211.9212	1253.8102	1269.8637	1275.5577	1301.1537	1329.7112	1331.1342	1361.9183	1396.6768	1403.345	1418.7582	1465.9901	1491.744	1494.2296	1528.8575	3013.5435	3017.487	3023.0099	3046.1841	3054.1577	3067.8608	3079.6298	3093.9571	3112.7382	3119.0176	3119.4588	3795.6371
CC(O)C1CC2OCC12	C[C@@H](O)[C@H]1C[C@H]2OC[C@@H]12	
InChI=1S/C7H12O2/c1-4(8)5-2-7-6(5)3-9-7/h4-8H,2-3H2,1H3	InChI=1S/C7H12O2/c1-4(8)5-2-7-6(5)3-9-7/h4-8H,2-3H2,1H3/t4-,5-,6+,7-/m1/s1
