17
gdb 104951	3.00806	0.83432	0.70601	3.4196	83.85	-0.2593	-0.0602	0.1991	1582.7537	0.13267	-421.775844	-421.766129	-421.765185	-421.811448	33.65	
C	 0.1602040764	 1.2701315152	 0.2703804	-0.253909
O	-0.1987254293	-0.03665294	-0.1523471838	-0.261256
C	 0.5793386083	-0.5269009739	-1.2016414523	 0.238173
C	 1.9310723421	-1.1454772038	-0.844223195	-0.311983
C	 0.7676117593	-2.0286351006	-1.1869985665	-0.306316
C	 0.4486661815	 0.1422671886	-2.4627256965	 0.132687
C	 0.3385801966	 0.7148079469	-3.5238736087	-0.035826
C	 0.1888772693	 1.4041186696	-4.7742221735	 0.014546
O	 0.7455799345	 1.0919022938	-5.8036186311	-0.236673
H	 1.2013119244	 1.3080430896	 0.6195308607	 0.111818
H	 0.0313918135	 2.003245768	-0.5362912544	 0.122487
H	-0.5070242102	 1.5238368847	 1.0961988367	 0.134387
H	 2.7424024321	-1.0460694895	-1.5549674307	 0.138626
H	 2.2093003826	-1.0632867198	 0.2002594484	 0.133807
H	 0.2591194191	-2.5343510202	-0.3747028423	 0.141128
H	 0.7630523885	-2.544808208	-2.1388904688	 0.140224
H	-0.497769959	 2.2743000294	-4.7279906922	 0.098081
65.4043	72.4723	104.5578	137.6407	181.9922	207.3789	267.5466	273.7502	334.1259	451.0499	510.4239	563.8921	612.2124	715.5268	777.7113	850.8771	887.4864	950.4363	960.0998	1019.0089	1053.6063	1072.3214	1086.548	1104.8102	1183.741	1196.1024	1220.565	1267.7389	1330.2524	1421.5501	1450.141	1474.1197	1483.4533	1486.2616	1508.2808	1759.3209	2302.0126	2914.758	3001.243	3060.2475	3131.4454	3145.0409	3151.1255	3236.1344	3251.0515
COC1(CC1)C#CC=O	COC1(CC1)C#CC=O	
InChI=1S/C7H8O2/c1-9-7(4-5-7)3-2-6-8/h6H,4-5H2,1H3	InChI=1S/C7H8O2/c1-9-7(4-5-7)3-2-6-8/h6H,4-5H2,1H3
