19
gdb 85789	2.37972	1.21216	1.19296	2.6494	82.76	-0.2341	-0.025	0.2091	1212.0955	0.15583	-385.87289	-385.862999	-385.862054	-385.907663	36.324	
C	-1.0030914865	 1.0191337053	 0.1858883097	-0.410046
C	 0.0018365753	-0.1052419062	-0.0350892788	-0.093163
C	 0.9503838256	-0.0662521069	-1.2734177532	-0.29124
C	 2.2036815161	-0.3608209666	-0.3659251982	-0.000313
C	 2.6596645999	-1.8325173693	-0.4056413489	-0.438264
C	 3.3196482483	 0.5549558658	-0.4878355081	 0.285431
C	 4.2362187117	 1.3280107724	-0.5818822397	-0.444809
C	 1.2549669062	-0.103647425	 0.8536892985	 0.373715
O	 1.4503037881	 0.1017885611	 2.0130597248	-0.297163
H	-0.5218750181	 1.9983078438	 0.0964782981	 0.126728
H	-1.8142697805	 0.9712389392	-0.5472063288	 0.121958
H	-1.4404745273	 0.9508271613	 1.1861530361	 0.137659
H	-0.4982717094	-1.078233611	 0.049849394	 0.106593
H	 0.7641293093	-0.8082096844	-2.051459651	 0.109673
H	 1.0012386502	 0.9257557358	-1.7254590495	 0.121273
H	 3.15421994	-2.0463440919	-1.357396981	 0.133345
H	 3.3632245484	-2.0350348495	 0.4055494155	 0.144849
H	 1.8050106925	-2.5085186923	-0.3006491069	 0.117965
H	 5.0470151302	 2.0091488484	-0.6605038526	 0.195808
46.693	119.3825	172.0697	190.8658	199.2613	217.3772	232.8165	275.3249	353.581	397.8259	503.3269	553.7213	582.7667	618.0356	633.3523	698.5367	717.6791	813.2383	881.6958	903.5143	926.2556	967.1498	986.123	1060.0549	1115.824	1122.7649	1159.9216	1185.5997	1222.8566	1252.884	1277.6819	1331.7183	1402.7847	1408.9507	1482.6468	1488.7774	1494.3266	1495.4339	1495.5562	1892.4811	2230.6042	3032.8135	3037.8475	3038.9905	3079.114	3107.4929	3110.9485	3115.3667	3127.8051	3138.001	3501.5729
CC1CC(C)(C#C)C1=O	C[C@H]1C[C@@](C)(C#C)C1=O	
InChI=1S/C8H10O/c1-4-8(3)5-6(2)7(8)9/h1,6H,5H2,2-3H3	InChI=1S/C8H10O/c1-4-8(3)5-6(2)7(8)9/h1,6H,5H2,2-3H3/t6-,8+/m0/s1
