17
gdb 88329	3.13507	1.02945	0.95433	3.7364	71.54	-0.2569	-0.0301	0.2268	1283.6074	0.135345	-455.159603	-455.150635	-455.149691	-455.193856	32.117	
C	 1.2374790915	 1.3203072589	-0.3381680679	-0.431515
C	 0.2374306198	 0.2531845606	 0.0183045705	 0.09135
O	 0.7246111733	-0.9997290059	 0.5298585583	-0.275392
C	-0.0775170598	-0.1830398874	 1.3936040551	 0.001422
C	 0.5933676141	 0.3770168038	 2.6166669538	 0.331992
N	-0.0937397817	 1.0407773115	 3.4497473902	-0.512592
N	 1.9595131261	 0.0488680916	 2.6859014765	-0.33454
C	 2.8323749877	 0.3903225818	 3.6872179168	 0.161339
O	 2.5676946063	 1.0760230395	 4.649187635	-0.297838
H	 1.9957456468	 1.4498129968	 0.4360029575	 0.130809
H	 1.7385952175	 1.0695265893	-1.2786749854	 0.135058
H	 0.7216033235	 2.2758494966	-0.4771653998	 0.141143
H	-0.5651008532	 0.1222736998	-0.7090576302	 0.107971
H	-1.079774051	-0.5539461713	 1.5957098925	 0.127486
H	 0.4875216844	 1.3572432911	 4.2265584757	 0.255614
H	 2.2840306685	-0.5584640906	 1.9435962668	 0.27008
H	 3.8371035464	-0.0398501161	 3.5139407344	 0.097612
69.9464	82.7763	167.9711	181.3734	208.701	258.7581	270.7825	362.2535	430.0711	474.1585	552.0641	682.2973	721.2584	765.0908	795.7735	864.9658	921.8089	960.0063	983.0827	1011.4413	1027.8113	1085.0448	1097.0123	1162.2889	1169.1906	1193.4864	1283.3717	1334.6603	1379.7336	1415.3149	1436.7781	1453.2485	1488.5151	1501.7102	1514.0332	1731.8734	1809.8688	2955.2173	3045.4211	3101.4394	3108.3171	3141.1676	3147.7726	3489.6373	3571.9996
CC1OC1C(=N)NC=O	C[C@H]1O[C@H]1C(=N)NC=O	
InChI=1S/C5H8N2O2/c1-3-4(9-3)5(6)7-2-8/h2-4H,1H3,(H2,6,7,8)	InChI=1S/C5H8N2O2/c1-3-4(9-3)5(6)7-2-8/h2-4H,1H3,(H2,6,7,8)/t3-,4-/m1/s1
