19
gdb 76107	3.05963	1.32307	1.11786	1.4464	81.44	-0.2518	0.0375	0.2893	1149.6066	0.157164	-385.831304	-385.822067	-385.821123	-385.864859	35.191	
C	-0.063296956	 1.547066956	 0.0397003814	-0.507142
C	 0.0358581015	 0.0486962926	 0.0011127325	 0.343444
C	-0.846796491	-0.8553135218	 0.8182026352	-0.346967
C	 0.6398242315	-0.9374346154	 1.0111822445	-0.097975
C	 1.2653858311	-1.7832465593	-0.1149676058	-0.252669
C	 0.797004046	-3.1462491365	-0.2768930969	 0.307091
C	 0.3426303227	-4.2441779301	-0.4737953276	-0.439103
C	 0.6776400943	-0.7329354953	-1.1553657801	 0.069414
O	-0.1064807126	-1.1947683926	-2.2171855772	-0.432231
H	 0.8877619119	 2.0180325107	-0.2350194599	 0.115946
H	-0.8260836802	 1.9072405704	-0.6604615329	 0.130442
H	-0.3368767606	 1.9030096166	 1.0384384162	 0.117165
H	-1.3906133581	-0.355314987	 1.6136123588	 0.112981
H	-1.388760994	-1.6867531626	 0.3746644924	 0.10894
H	 1.1212932318	-0.7353510778	 1.9599738126	 0.091808
H	 2.3579864573	-1.754598567	-0.1078924989	 0.104161
H	-0.0232151775	-5.230680673	-0.6190474606	 0.199633
H	 1.4943344069	-0.1546268988	-1.598392628	 0.090561
H	-0.5585244352	-1.9968736692	-1.9277081955	 0.284499
91.4126	117.6214	175.9997	186.0584	241.4502	251.3686	289.2028	362.1111	400.9465	494.5621	538.5472	602.8991	628.9735	646.0781	699.1349	727.4614	783.2279	824.1108	894.4783	948.835	955.4311	987.6982	1022.5916	1057.2058	1069.1295	1099.2796	1111.5636	1127.9137	1158.1286	1243.1957	1252.441	1283.299	1313.6383	1329.9189	1396.2816	1422.8158	1439.536	1485.2961	1497.9148	1503.0406	2219.4834	3021.7456	3059.0523	3076.5703	3082.2823	3094.7191	3113.059	3185.9689	3198.8329	3501.0886	3773.3647
CC12CC1C(C#C)C2O	C[C@]12C[C@H]1[C@@H](C#C)[C@H]2O	
InChI=1S/C8H10O/c1-3-5-6-4-8(6,2)7(5)9/h1,5-7,9H,4H2,2H3	InChI=1S/C8H10O/c1-3-5-6-4-8(6,2)7(5)9/h1,5-7,9H,4H2,2H3/t5-,6+,7-,8+/m1/s1
