17
gdb 15776	4.49073	1.1154	0.96592	4.1572	68.71	-0.2818	0.0331	0.315	1183.3412	0.141049	-363.860409	-363.851856	-363.850912	-363.894017	30.221	
C	 0.1579683353	 1.7565507233	-0.0960085098	-0.410251
C	 0.0157333114	 0.2402730685	 0.0754525336	-0.009707
C	 0.5857092844	-0.547568529	-1.1312074441	-0.339218
C	-0.0984143552	-0.2403647315	-2.3843048281	 0.26055
N	-0.6532906311	 0.0186990452	-3.3645500185	-0.312334
C	 0.7126644642	-0.234423914	 1.3332542895	 0.08317
C	-0.014964233	-0.5069193719	 2.5780401914	-0.181925
O	 0.4392689041	-1.5754018096	 1.7429105285	-0.242464
H	 1.2121884384	 2.0481477452	-0.1679809447	 0.120748
H	-0.3466278361	 2.0959412466	-1.0043924149	 0.14916
H	-0.2787508601	 2.2861316909	 0.755729642	 0.125499
H	-1.0459437066	-0.0174809426	 0.1635765649	 0.101652
H	 1.653579064	-0.3277827527	-1.2546162177	 0.147077
H	 0.4983051129	-1.620874256	-0.932760839	 0.170648
H	 1.766637705	 0.044835396	 1.4105827565	 0.095387
H	 0.4932970299	-0.414758567	 3.5364162989	 0.122032
H	-1.0945457774	-0.3657549014	 2.6083472315	 0.119974
66.8779	88.9502	133.0235	201.5984	225.6258	294.3585	331.0884	401.7352	433.7264	483.8032	564.4339	809.4858	861.4955	876.0991	889.9726	952.4922	955.3707	987.0127	1084.7341	1111.4497	1122.3314	1157.8227	1167.1458	1192.8911	1243.1741	1279.8485	1295.8652	1340.376	1362.3781	1414.17	1448.631	1468.2216	1499.5327	1500.7327	1530.4904	2360.2349	3034.8664	3036.062	3048.3563	3079.4616	3086.5296	3089.7566	3104.3478	3122.9371	3173.9383
CC(CC#N)C1CO1	C[C@@H](CC#N)[C@H]1CO1	
InChI=1S/C6H9NO/c1-5(2-3-7)6-4-8-6/h5-6H,2,4H2,1H3	InChI=1S/C6H9NO/c1-5(2-3-7)6-4-8-6/h5-6H,2,4H2,1H3/t5-,6+/m0/s1
