21
gdb 92271	2.16127	1.6888	1.48409	1.5596	83.34	-0.24	0.019	0.259	1062.6558	0.18256	-387.098965	-387.090425	-387.089481	-387.131647	33.502	
C	 0.1486140027	 1.5478566832	-0.1432651819	-0.40908
C	 0.053885493	 0.0514697473	 0.065010494	 0.131873
O	 0.9100324416	-0.6919205959	-0.8352606475	-0.31986
C	 1.4073932685	-1.5295130758	 0.2312461247	 0.098227
C	 2.927094921	-1.4129875305	 0.415464119	-0.284148
C	 3.0568149857	-0.3008660422	 1.4317328139	-0.069291
C	 1.8783152496	 0.109860183	 1.9018290262	-0.126742
C	 0.7132148749	-0.6379478267	 1.3030870823	 0.21489
C	-0.2293094275	-1.2547580857	 2.3279427544	-0.482724
H	 1.1740528722	 1.8973325008	 0.0010717043	 0.124189
H	-0.1644782814	 1.8023399062	-1.1609906497	 0.124876
H	-0.5090968744	 2.0770064681	 0.5554300142	 0.110696
H	-0.9908711015	-0.2770433703	-0.0518644288	 0.061564
H	 1.0481672885	-2.5604581901	 0.1289086647	 0.065194
H	 3.3818148665	-2.3471874107	 0.7716434438	 0.101194
H	 3.4006137194	-1.1723935786	-0.5438716505	 0.120714
H	 4.0183505548	 0.0986160309	 1.7371588081	 0.094133
H	 1.7427773036	 0.8910714156	 2.6430659033	 0.089919
H	-0.7269921426	-0.4787904527	 2.9215293618	 0.116832
H	-1.0077665243	-1.8522686559	 1.8419832882	 0.117462
H	 0.3133720597	-1.9032149098	 3.0237953654	 0.120084
97.6856	193.8735	200.1	218.5075	232.0918	276.5311	321.7222	420.2701	454.112	517.8535	604.3395	655.1332	749.9634	771.4442	822.0862	856.9392	881.8881	902.9275	942.1217	952.1109	977.6673	1015.6959	1031.6619	1050.319	1100.2371	1110.6727	1133.326	1165.0776	1182.2444	1198.6498	1244.0645	1255.9342	1300.7959	1324.7811	1341.4022	1372.9392	1396.6199	1408.4086	1420.8743	1464.7554	1482.5865	1491.9135	1494.674	1496.0337	1676.5053	2973.1695	3014.0559	3023.9442	3034.171	3035.6714	3060.8598	3088.725	3099.276	3102.3111	3122.2893	3172.4172	3198.1654
CC1OC2CC=CC12C	C[C@H]1O[C@H]2CC=C[C@@]12C	
InChI=1S/C8H12O/c1-6-8(2)5-3-4-7(8)9-6/h3,5-7H,4H2,1-2H3	InChI=1S/C8H12O/c1-6-8(2)5-3-4-7(8)9-6/h3,5-7H,4H2,1-2H3/t6-,7+,8+/m1/s1
