21
gdb 117178	2.40684	1.04758	0.79217	2.6876	77.03	-0.2473	0.0074	0.2547	1523.2792	0.178954	-461.391278	-461.380154	-461.37921	-461.428974	38.052	
C	-0.3013901105	 0.8348808892	 1.3589998604	-0.393818
C	-0.2309789397	-0.1888771589	 0.2428005869	-0.046153
O	-1.5116059554	-0.8523318636	 0.1727556803	-0.248035
C	-1.6323610859	-1.795913923	-0.7836287667	 0.448855
O	-0.7587074322	-2.0716504478	-1.5655548538	-0.357417
C	-3.0044694081	-2.4836588112	-0.7045134861	 0.022838
C	-3.308778235	-3.2429908404	-1.9848305137	-0.391531
O	-2.9904546864	-3.417925519	 0.3681680997	-0.250106
C	-3.3414169765	-2.8941849868	 1.6337160381	-0.237986
H	 0.6526914547	 1.3647290964	 1.4361511586	 0.125265
H	-1.0885165023	 1.569449887	 1.1669329501	 0.130163
H	-0.5057774113	 0.3545112111	 2.3201257381	 0.130073
H	-0.0230204359	 0.2735248348	-0.7269286571	 0.124721
H	 0.5457388529	-0.9391931388	 0.4200722986	 0.125371
H	-3.7656055181	-1.7120872372	-0.5156688755	 0.082222
H	-4.2746616119	-3.7447947595	-1.8917148235	 0.117792
H	-3.3396633041	-2.5620880473	-2.8396950627	 0.121255
H	-2.5318745614	-3.9871974565	-2.1705375582	 0.145286
H	-4.3383724202	-2.4275939699	 1.6110431595	 0.104518
H	-3.3630391733	-3.739425823	 2.3261124	 0.126842
H	-2.6197819995	-2.1511925155	 1.993083047	 0.119844
26.5722	61.3075	100.5421	114.6874	146.5401	198.9138	212.0375	249.4209	275.7307	299.8226	327.2653	350.0544	406.4871	510.6262	656.1292	789.9667	810.1649	852.9623	874.2027	912.6199	1033.6521	1053.3458	1093.9426	1126.1438	1135.3258	1159.6499	1182.1797	1185.3051	1206.5971	1234.9996	1292.4509	1365.5456	1370.0192	1399.4814	1411.1613	1423.0888	1476.7413	1482.2205	1484.8062	1486.6465	1489.073	1495.7869	1515.9719	1519.2133	1819.9674	2986.0995	2997.3758	3046.0062	3054.6246	3056.2685	3060.4301	3092.3158	3116.9862	3120.2404	3126.09	3130.5765	3145.1475
CCOC(=O)C(C)OC	CCOC(=O)[C@@H](C)OC	
InChI=1S/C6H12O3/c1-4-9-6(7)5(2)8-3/h5H,4H2,1-3H3	InChI=1S/C6H12O3/c1-4-9-6(7)5(2)8-3/h5H,4H2,1-3H3/t5-/m1/s1
