20
gdb 81865	2.7385	1.51748	1.13166	2.9647	80.13	-0.2447	0.027	0.2717	1142.9127	0.170913	-403.169315	-403.160667	-403.159722	-403.202234	33.653	
C	 0.1154800466	 1.6226711013	 0.0393466543	-0.389515
C	 0.0957402087	 0.0941539925	-0.0277032351	-0.090969
C	 0.8350121674	-0.5581341423	-1.1832923709	-0.114859
C	 2.3555956216	-0.4810252153	-1.184230122	-0.350934
C	 1.6517017668	-1.6727006165	-0.5957765883	 0.418869
C	 1.7762950348	-3.0743718983	-1.113593841	-0.471567
O	 1.5115553895	-1.6223136356	 0.823507786	-0.270709
C	 0.7296496458	-0.5622055452	 1.1966149236	 0.380666
N	 0.5561841197	-0.1879082626	 2.3895133492	-0.537636
H	 1.1401350601	 2.0042915385	 0.0002381561	 0.117407
H	-0.4413123454	 2.0551186052	-0.797316032	 0.110435
H	-0.3344241052	 1.9579764669	 0.976563468	 0.146583
H	-0.9508893426	-0.2378102807	-0.0573086865	 0.106913
H	 0.3246233794	-0.6824218826	-2.1312800803	 0.094614
H	 2.8544188014	-0.6093470769	-2.1387909905	 0.117834
H	 2.8498780954	 0.2044025864	-0.5028800242	 0.125705
H	 1.8633387357	-3.067872892	-2.2035728408	 0.122936
H	 2.6658407675	-3.5640108171	-0.7041417911	 0.13357
H	 0.9008806877	-3.6715375013	-0.8390629305	 0.128927
H	 1.0844626452	-0.7774296744	 3.0345041161	 0.221729
92.2159	153.9817	210.8803	217.9741	237.4922	285.2284	326.1602	429.3847	458.7238	487.4962	580.453	614.6458	687.9764	741.6011	784.7096	844.5009	875.4612	892.359	946.3224	956.0065	986.1807	1012.906	1038.613	1052.1382	1074.0318	1110.3426	1126.154	1133.715	1146.7226	1225.2306	1269.9206	1304.6061	1325.6084	1358.7421	1397.3294	1407.893	1431.6175	1478.9803	1484.5888	1494.8507	1496.9129	1504.4052	1772.0249	3018.2931	3038.0592	3043.6354	3103.8833	3111.6701	3119.019	3127.6748	3132.6302	3175.9123	3217.5054	3476.6861
CC1C2CC2(C)OC1=N	C[C@H]1[C@H]2C[C@@]2(C)O[C]1[NH]	
InChI=1S/C7H11NO/c1-4-5-3-7(5,2)9-6(4)8/h4-5,8H,3H2,1-2H3	InChI=1S/C7H11NO/c1-4-5-3-7(5,2)9-6(4)8/h4-5,8H,3H2,1-2H3/t4-,5+,7+/m0/s1
