19
gdb 35287	3.38608	0.88215	0.79575	4.7603	80.56	-0.2692	0.0164	0.2857	1475.1538	0.159816	-382.042306	-382.033431	-382.032486	-382.077012	32.608	
N	-0.1064406651	-1.1400293529	 0.2867829359	-0.336231
C	-0.012257402	 0.01232123	 0.2776488551	 0.330413
C	 0.0890197756	 1.4513272598	 0.2274936868	-0.206613
N	 0.9370712828	 2.0939249143	 1.2541664327	-0.307469
C	 1.3680764196	 2.1408028247	-0.1429731076	 0.00809
C	 2.63086734	 1.3895514856	-0.5025162058	-0.235456
C	 3.8785865758	 2.2193459289	-0.2737595117	 0.025168
C	 4.4614655993	 2.3423495883	 1.1122540184	-0.251224
C	 5.1869000573	 1.5470992257	 0.0550209093	-0.279269
H	-0.8384454569	 1.9399688879	-0.0588487694	 0.13084
H	 0.5094748315	 2.9689416833	 1.5453418369	 0.245242
H	 1.2250832453	 3.0816663384	-0.674623486	 0.097786
H	 2.6765418248	 0.4742265473	 0.0968613023	 0.12381
H	 2.5715724347	 1.0787839498	-1.5538835897	 0.109548
H	 3.9470655774	 3.1063750839	-0.8998036756	 0.07896
H	 4.8794450526	 3.2961365752	 1.4149946013	 0.108397
H	 3.9677380605	 1.7990194175	 1.9101690551	 0.129399
H	 5.1906687145	 0.4657962165	 0.1458185264	 0.116674
H	 6.0968744023	 1.9587369856	-0.3671805844	 0.111936
48.6952	78.4842	94.4782	180.8406	230.0446	317.2204	344.8569	383.3359	462.7717	572.1432	615.4472	774.8432	798.9782	806.058	821.3723	845.524	892.6607	910.6126	942.371	963.6654	1015.0188	1028.7498	1055.3867	1079.311	1084.3657	1136.6336	1146.676	1199.1624	1201.5994	1223.1155	1234.3855	1247.9537	1287.1639	1325.6459	1400.4084	1415.5514	1460.5188	1468.4091	1476.1436	1509.581	2359.013	3026.4481	3078.8293	3109.4921	3128.3659	3132.2524	3139.0356	3147.8643	3211.3153	3226.8771	3511.3175
N#CC1NC1CC1CC1	N#C[C@H]1N[C@H]1CC1CC1	
InChI=1S/C7H10N2/c8-4-7-6(9-7)3-5-1-2-5/h5-7,9H,1-3H2	InChI=1S/C7H10N2/c8-4-7-6(9-7)3-5-1-2-5/h5-7,9H,1-3H2/t6-,7+/m0/s1
