19
gdb 47804	2.27123	1.75286	1.19427	2.2917	75.99	-0.2373	-0.0135	0.2238	1070.6424	0.161285	-423.036274	-423.028559	-423.027615	-423.068551	30.316	
O	 0.0094077378	 0.103454585	 0.7066914578	-0.325144
C	-0.0566712421	 1.2223677343	 0.2398679555	 0.375472
C	-1.4132406799	 1.8679089392	-0.0227854278	-0.308488
C	-1.6887349254	 2.2030680941	-1.4950247802	-0.088912
O	-0.9075534577	 3.2716461136	-1.9953613079	-0.237038
C	 0.3844975557	 2.9225686463	-2.4470793175	-0.112168
C	 1.4288964747	 2.7597162763	-1.3566865013	-0.027799
C	 1.3152124615	 3.4858649639	-0.0604396055	-0.304894
C	 1.2013858849	 1.9650419081	-0.0716421384	-0.110425
H	-2.1671168481	 1.1606037382	 0.3342250486	 0.121876
H	-1.5073230411	 2.7898721416	 0.5628704782	 0.122617
H	-1.5569278337	 1.3065225304	-2.1208441016	 0.102719
H	-2.7305978291	 2.5244119645	-1.5915423423	 0.116211
H	 0.3388439362	 2.0085232267	-3.061502954	 0.098036
H	 0.6982176003	 3.7429299455	-3.1032242355	 0.115115
H	 2.4276933902	 2.6361535303	-1.7679990728	 0.100681
H	 2.2011732592	 3.9091185141	 0.3986109177	 0.122343
H	 0.4046987539	 4.0522888657	 0.0958926546	 0.134221
H	 2.0656467527	 1.4156915023	 0.2855114823	 0.105578
79.5719	166.8801	219.1499	277.0444	325.4154	404.1348	444.3143	477.9522	501.1754	608.2399	661.2276	731.1943	774.9071	856.2943	871.7484	884.5593	923.312	957.1599	1018.7421	1027.8677	1067.4564	1083.8205	1098.9197	1117.161	1140.3221	1159.4514	1199.5748	1220.9595	1283.7138	1287.4806	1323.4861	1358.4081	1370.7659	1391.4606	1404.2399	1428.2898	1462.8273	1484.2727	1488.6564	1500.8783	1778.1835	2972.7745	2986.9639	3043.6857	3055.6305	3077.6257	3105.2808	3140.2988	3144.5801	3174.0342	3233.6452
O=C1CCOCC2CC12	O=C1CCOC[C@H]2C[C@@H]12	
InChI=1S/C7H10O2/c8-7-1-2-9-4-5-3-6(5)7/h5-6H,1-4H2	InChI=1S/C7H10O2/c8-7-1-2-9-4-5-3-6(5)7/h5-6H,1-4H2/t5-,6-/m1/s1
