21
gdb 63069	3.05514	1.41579	1.32575	1.7699	81.59	-0.2504	0.0757	0.3261	1086.6096	0.182861	-387.070069	-387.061821	-387.060877	-387.10225	33.186	
C	-0.1960192187	 1.5896489383	 0.0446699861	-0.464091
C	 0.0155134782	 0.0858041786	 0.0487360654	 0.320609
C	-1.1914710946	-0.654404873	-0.515277795	-0.443476
C	 1.3387886089	-0.5782443515	-0.2631286094	-0.094835
C	 2.6872758666	 0.1503101609	-0.1440947446	-0.283592
C	 2.9118225846	 0.4034136889	 1.3448856702	 0.04002
O	 2.0014779775	 1.332375971	 1.9450739992	-0.253061
C	 1.7348974271	-0.0722612059	 2.0926289069	 0.02345
C	 0.7422532815	-0.694443406	 1.1396315047	-0.105425
H	 0.6827762349	 2.1463866972	 0.3561932068	 0.145181
H	-0.4862812551	 1.9120034351	-0.9630523991	 0.100973
H	-1.0149141328	 1.8609676909	 0.721140232	 0.111344
H	-1.3881877883	-0.3425585469	-1.5477201162	 0.114033
H	-1.0428606453	-1.7388359657	-0.5157786492	 0.108199
H	-2.0908006334	-0.439582747	 0.0733160589	 0.115187
H	 1.3092414731	-1.4233728666	-0.9445479346	 0.078891
H	 3.4856633461	-0.4978280031	-0.5214248151	 0.105578
H	 2.7330534944	 1.0822763976	-0.7183717804	 0.11674
H	 3.9211621476	 0.42908755	 1.7503934156	 0.093616
H	 1.7871531647	-0.4381573821	 3.1147297895	 0.09395
H	 0.2817243929	-1.6155862407	 1.4821319385	 0.076711
143.6079	159.0577	221.5584	246.8347	276.2479	327.8178	371.2379	381.4542	450.028	561.4501	664.457	707.3453	716.8401	782.7827	833.2533	857.4264	860.7053	911.2348	959.0081	967.8544	979.191	990.286	1020.7931	1040.4653	1054.2873	1091.0693	1107.1373	1123.4021	1154.9007	1190.6879	1221.0456	1262.3552	1297.3934	1315.1234	1323.0435	1346.5469	1405.0085	1411.702	1419.7199	1439.9427	1474.1563	1483.3054	1491.3692	1506.786	1514.9465	3021.0707	3026.5879	3043.0796	3075.2656	3080.3034	3085.1486	3098.2481	3132.0306	3143.0515	3146.2577	3163.0934	3187.8879
CC1(C)C2CC3OC3C12	CC1(C)[C@H]2C[C@H]3O[C@H]3[C@@H]12	
InChI=1S/C8H12O/c1-8(2)4-3-5-7(9-5)6(4)8/h4-7H,3H2,1-2H3	InChI=1S/C8H12O/c1-8(2)4-3-5-7(9-5)6(4)8/h4-7H,3H2,1-2H3/t4-,5+,6-,7+/m0/s1
