20
gdb 54113	2.3284	1.62101	1.3259	1.0234	78.56	-0.235	-0.0241	0.2109	1081.6605	0.169147	-403.121515	-403.112236	-403.111292	-403.155723	34.492	
C	-0.0201690544	 1.4869192877	-0.0280356739	-0.484204
C	-0.0463518071	-0.0268992683	 0.095926691	 0.30688
O	-0.0574380325	-0.5778405917	 1.1730507422	-0.299594
C	-0.043926634	-0.7999480601	-1.2146492179	 0.244769
C	 1.1794726407	-0.5445183752	-2.078292483	-0.472147
C	-0.695597137	-2.1148308618	-1.3613053328	-0.066984
C	-1.9219814889	-2.3074380504	-0.4739412988	-0.25577
C	-2.4535943607	-0.9865395521	-1.0814665607	-0.165658
N	-1.2836674459	-0.8665490252	-2.035794234	-0.189882
H	 0.9880296359	 1.8188161645	-0.3012678939	 0.149045
H	-0.6962037843	 1.8304403872	-0.8170806266	 0.147119
H	-0.2862172334	 1.9351972074	 0.9300961379	 0.14198
H	 2.0951753607	-0.8480931003	-1.5598962386	 0.126884
H	 1.0982353229	-1.1144865392	-3.0071887928	 0.136985
H	 1.2644808987	 0.5124914691	-2.3462279049	 0.126784
H	-0.2263834664	-2.8985988911	-1.9497433976	 0.091163
H	-2.5189505606	-3.1695909884	-0.7761740462	 0.107113
H	-1.7386099842	-2.3441178872	 0.5997728874	 0.134602
H	-3.372705246	-1.0991532845	-1.6586148827	 0.113062
H	-2.5720477036	-0.1350192006	-0.403426294	 0.107849
43.8473	124.6609	158.6577	195.73	197.6277	274.822	283.434	315.4129	402.9121	451.5568	555.7222	607.8208	631.8921	765.0601	782.9275	793.2838	823.4694	944.8804	962.2154	965.2242	991.7323	1015.3663	1030.8088	1048.1757	1085.3781	1121.113	1123.5921	1178.2553	1218.0134	1222.49	1271.5558	1295.637	1328.0033	1378.6094	1408.5194	1419.6674	1463.6422	1471.1076	1482.8062	1489.9023	1498.0055	1512.9133	1802.0116	3038.7355	3041.5718	3050.1935	3083.7286	3103.9405	3110.4117	3112.6189	3122.9995	3142.315	3149.8029	3152.2528
CC(=O)C1(C)C2CCN12	CC(=O)[C@@]1(C)[C@H]2CCN12	
InChI=1S/C7H11NO/c1-5(9)7(2)6-3-4-8(6)7/h6H,3-4H2,1-2H3	InChI=1S/C7H11NO/c1-5(9)7(2)6-3-4-8(6)7/h6H,3-4H2,1-2H3/t6-,7+,8?/m1/s1
