20
gdb 54761	2.72889	1.39083	1.14667	3.1498	80.1	-0.2395	0.0269	0.2664	1149.9822	0.171038	-403.140734	-403.131822	-403.130878	-403.174759	34.108	
C	 0.0059644329	 1.4546846853	 0.0728914857	-0.520985
C	 0.0638533009	-0.0482887996	 0.0432838615	 0.349004
C	 0.6147498763	-0.9757086665	-1.0883354919	-0.265301
C	 0.1190789323	-1.9378437476	 0.0253811308	-0.067611
C	 0.8077855272	-0.9929381606	 1.0475996919	-0.260242
C	-1.15279861	-1.025996162	 0.1189810445	-0.120498
C	-2.0206551207	-1.0383351247	 1.3646422768	 0.368715
N	-2.9933912567	-2.0014400776	 1.3563523315	-0.522562
O	-1.9044519444	-0.2485818157	 2.2855023367	-0.365837
H	 1.012053236	 1.8863334659	 0.033333086	 0.11307
H	-0.5607942231	 1.8456766775	-0.7797614715	 0.110833
H	-0.4820247943	 1.7901173595	 0.9920745663	 0.148667
H	 0.063772512	-0.9833570981	-2.0341283658	 0.083126
H	 1.6953211344	-0.9452571347	-1.2541525292	 0.08932
H	 0.1356145955	-3.0288539105	 0.0110724607	 0.067149
H	 1.9006046083	-0.9647757416	 1.0066305362	 0.083197
H	 0.4418183136	-0.9980021133	 2.0733566587	 0.121232
H	-1.7847614844	-1.0536918099	-0.7775926826	 0.073576
H	-2.9989419091	-2.7374650564	 0.6716225672	 0.25712
H	-3.5469399768	-2.1188054994	 2.1897376664	 0.258026
30.756	137.6384	201.5648	224.5277	231.5286	273.7707	300.8557	407.6712	447.0827	542.391	569.4491	617.9152	658.8014	709.037	767.8469	821.797	882.8817	904.0233	906.7554	945.7247	1007.7015	1010.189	1026.8377	1048.2697	1068.7612	1100.7149	1115.2411	1142.9715	1180.0487	1197.2507	1218.2188	1224.1366	1245.2219	1296.871	1326.0146	1402.6786	1417.4924	1485.9381	1497.8248	1500.3357	1542.4723	1614.504	1778.9321	3026.1139	3029.2491	3040.6518	3059.7206	3091.2051	3097.5301	3106.2886	3118.5405	3150.9954	3595.0819	3731.0463
CC12CC(C1)C2C(N)=O	C[C@@]12C[C@@H](C1)[C@H]2C(=O)N	
InChI=1S/C7H11NO/c1-7-2-4(3-7)5(7)6(8)9/h4-5H,2-3H2,1H3,(H2,8,9)	InChI=1S/C7H11NO/c1-7-2-4(3-7)5(7)6(8)9/h4-5H,2-3H2,1H3,(H2,8,9)/t4-,5-,7+/m0/s1
