20
gdb 26422	4.15121	0.95147	0.81991	3.2676	82.12	-0.1963	0.0471	0.2433	1430.3661	0.171361	-403.180957	-403.171843	-403.170899	-403.215899	34.176	
C	 0.1112858474	 1.5067000254	-0.0675378249	-0.407956
C	 0.0829945388	-0.0067670698	 0.1461533396	 0.132111
O	 0.58426358	-0.3576876958	 1.4321588149	-0.41993
C	-1.3273125127	-0.5776091994	-0.0836584361	-0.177537
N	-1.378080154	-2.0230779965	-0.1708690558	 0.030992
C	-1.747326171	-2.7298678001	-1.2928276334	-0.099354
C	-1.6900282042	-4.071619874	-0.9999172116	-0.173361
C	-1.2709906761	-4.1867870464	 0.354242009	-0.166633
C	-1.0885777845	-2.9123958494	 0.8383612271	-0.092198
H	 1.1087247592	 1.8953514416	 0.1523090446	 0.132904
H	-0.145963129	 1.7713612731	-1.0979260673	 0.122574
H	-0.6051914823	 2.0095059532	 0.5950503471	 0.110631
H	 0.7656682009	-0.4933823539	-0.5592618813	 0.107537
H	 0.1005997494	 0.159329168	 2.0868101364	 0.277899
H	-1.9848645695	-0.2278089796	 0.7250160027	 0.10479
H	-1.7317112917	-0.180475097	-1.0191867507	 0.115235
H	-2.028338022	-2.2106632961	-2.1958432742	 0.107453
H	-1.9266455789	-4.8769976002	-1.6782524465	 0.089235
H	-1.1181842062	-5.0991687347	 0.9103446176	 0.08882
H	-0.7460951734	-2.5538768886	 1.7936488928	 0.116786
24.8064	82.7645	121.3197	231.2268	278.545	302.2525	321.7895	333.5278	456.4372	476.2385	623.3662	627.5196	681.1192	739.3867	746.1779	797.6178	846.0764	847.9275	885.4323	912.6119	942.9053	989.1111	1066.3322	1080.7749	1084.0744	1102.9495	1118.0481	1156.6551	1208.3328	1296.2909	1316.5973	1319.445	1329.0368	1394.9355	1403.6999	1420.3588	1424.7872	1433.4013	1474.372	1493.6151	1496.9393	1531.9712	1563.2088	3004.9737	3024.3741	3059.4032	3088.5415	3099.0057	3124.5398	3238.2289	3249.491	3263.7502	3291.1222	3791.329
CC(O)CN1C=CC=C1	C[C@@H](O)Cn1cccc1	
InChI=1S/C7H11NO/c1-7(9)6-8-4-2-3-5-8/h2-5,7,9H,6H2,1H3	InChI=1S/C7H11NO/c1-7(9)6-8-4-2-3-5-8/h2-5,7,9H,6H2,1H3/t7-/m1/s1
