18
gdb 124816	4.41364	0.91976	0.79144	4.0121	74.69	-0.2453	-0.0008	0.2445	1426.1915	0.147088	-439.085565	-439.076722	-439.075778	-439.120212	32.199	
C	-0.1600498029	 1.5256566502	-0.0456299148	-0.401944
C	 0.0949875455	 0.0210980234	-0.1315746098	 0.124363
O	 1.1384762887	-0.272328858	-1.0585937606	-0.426485
C	 0.5427889794	-0.5577149015	 1.2160158168	-0.320411
C	 0.6329823187	-2.0486669192	 1.2316672861	 0.430252
C	 1.1720286113	-2.9801670895	 0.3962138511	-0.317639
C	 0.8903009475	-4.2096909367	 1.0451363177	 0.029057
N	 0.2402948432	-4.0442425214	 2.1713025241	-0.147585
O	 0.0740915921	-2.6666873021	 2.2915733941	-0.209686
H	 0.7427001995	 2.0493916187	 0.2841807376	 0.12818
H	-0.4453496015	 1.9238939653	-1.0256507935	 0.109056
H	-0.9722866061	 1.7498840774	 0.6531981857	 0.121683
H	-0.8327898671	-0.4881708882	-0.4364750336	 0.079508
H	 0.8518255561	 0.0125956662	-1.9318622757	 0.285532
H	 1.5196988781	-0.1212535142	 1.4602725314	 0.133792
H	-0.1560678426	-0.2492315316	 1.9985218259	 0.127503
H	 1.6841627907	-2.7984163545	-0.5316667697	 0.128202
H	 1.1388180794	-5.2136146044	 0.7297106572	 0.126622
32.1237	81.4461	131.9865	240.2268	278.5984	297.5683	302.643	316.6917	458.38	463.0929	650.283	663.7251	753.8341	833.8473	848.4466	897.556	921.9787	926.1324	943.7236	958.2661	1020.7746	1047.6273	1060.4169	1113.4786	1117.2794	1187.8288	1209.7507	1249.9928	1307.5667	1326.9099	1374.2649	1392.8022	1407.5961	1424.6779	1462.0796	1493.0052	1497.8734	1511.2381	1630.7883	2978.5846	3030.8561	3035.0762	3098.1938	3101.4624	3115.2967	3240.7084	3305.2488	3822.3598
CC(O)CC1=CC=NO1	C[C@@H](O)Cc1ccno1	
InChI=1S/C6H9NO2/c1-5(8)4-6-2-3-7-9-6/h2-3,5,8H,4H2,1H3	InChI=1S/C6H9NO2/c1-5(8)4-6-2-3-7-9-6/h2-3,5,8H,4H2,1H3/t5-/m1/s1
