23
gdb 7545	2.90581	1.33053	1.08648	1.1314	82.59	-0.2179	0.081	0.2989	1233.4718	0.210124	-330.307491	-330.297589	-330.296645	-330.341851	36.67	
C	-0.1091251296	 1.6258342518	 0.0314389581	-0.379263
C	-0.077090696	 0.1055989413	-0.1498783681	-0.17084
C	-1.3965871975	-0.5627589993	 0.2677590517	-0.247481
C	-1.440705383	-2.0760898569	 0.087641961	 0.346937
C	-0.4178006927	-2.855940148	 0.8948419068	-0.444771
C	-2.7670867422	-2.7143574748	-0.1792144553	-0.300291
N	-1.7395551548	-2.691590906	-1.2149143923	-0.110042
C	-1.9915247812	-1.8877290828	-2.3996632597	-0.314377
H	 0.8396622314	 2.0839749864	-0.2646063758	 0.111668
H	-0.9017405209	 2.0813118918	-0.572914841	 0.112941
H	-0.2972940288	 1.8957027912	 1.0767970963	 0.113742
H	 0.1399682046	-0.1352066118	-1.1976579398	 0.101141
H	 0.7511291726	-0.3107506714	 0.4350377784	 0.101643
H	-1.5856334307	-0.3448730261	 1.3281659463	 0.095869
H	-2.2228793576	-0.0955591683	-0.2787978167	 0.093532
H	-0.5112413018	-2.6326389752	 1.964099992	 0.10794
H	-0.5606337491	-3.9291383865	 0.7493436756	 0.122307
H	 0.6053273027	-2.6145081354	 0.5887403296	 0.118458
H	-3.011264522	-3.6904237756	 0.2352514077	 0.104538
H	-3.6236598217	-2.0500158836	-0.2985440161	 0.096561
H	-2.5563363196	-0.9590618687	-2.2224563527	 0.097603
H	-1.0403569319	-1.6256148135	-2.8746548276	 0.121072
H	-2.5647019002	-2.4913103088	-3.1116054285	 0.12111
76.4251	92.5917	157.8546	190.7537	215.4899	235.5124	248.2876	285.8015	332.5181	390.181	409.4662	449.5126	514.8534	714.6626	740.624	761.8083	864.9681	884.7979	919.8476	942.1557	993.5903	1033.7962	1047.1527	1085.7811	1093.6856	1119.825	1146.8424	1155.4195	1181.0809	1206.6452	1258.8286	1288.2897	1313.2085	1331.4099	1379.5376	1402.562	1410.5557	1418.7228	1447.5539	1475.6552	1485.6928	1490.3193	1494.4412	1497.9719	1501.5875	1505.2126	1510.9927	1517.9081	2976.1754	3013.5264	3027.4581	3031.1417	3034.1956	3052.6842	3061.4813	3071.6568	3075.9169	3093.3521	3094.3271	3097.3919	3101.6103	3122.1288	3158.3006
CCCC1(C)CN1C	CCC[C@@]1(C)CN1C	
InChI=1S/C7H15N/c1-4-5-7(2)6-8(7)3/h4-6H2,1-3H3	InChI=1S/C7H15N/c1-4-5-7(2)6-8(7)3/h4-6H2,1-3H3/t7-,8?/m0/s1
