18
gdb 101927	2.03818	1.41547	0.97388	5.4179	67.95	-0.2467	0.0176	0.2644	1237.5768	0.147112	-476.221743	-476.212629	-476.211685	-476.256279	32.627	
C	 0.2730849584	 1.1653408935	-0.7362296878	-0.329544
N	-0.0507763484	 0.1644429471	 0.2800902586	-0.324174
H	 0.6308775066	-0.5897032984	 0.293327205	 0.249046
H	-0.564311487	 0.584150566	 2.0226126964	 0.302249
C	-1.3863075277	-0.4286113464	 0.2119215679	-0.166931
C	-1.3956327113	-1.8721663577	-0.2806721599	 0.091203
C	-0.5703051591	-2.3331977341	-1.3996179409	-0.198741
O	-0.1930102178	-2.6121109829	-0.0437532193	-0.234124
C	-2.0810327323	-0.3626881427	 1.5980719195	 0.429838
O	-1.3904200782	 0.3308732434	 2.5015574246	-0.363334
O	-3.146980172	-0.8781126284	 1.8092245626	-0.349554
H	 1.3052105104	 1.4966122108	-0.5952084674	 0.134988
H	 0.1646523695	 0.8055529411	-1.7704914092	 0.11343
H	-0.3768667882	 2.0372640677	-0.6130856231	 0.138189
H	-2.0233778123	 0.162554525	-0.457647811	 0.123261
H	-2.3138709817	-2.4042169949	-0.0431207702	 0.134761
H	-0.8853611847	-3.1978772185	-1.9802770076	 0.13215
H	 0.0781518557	-1.6341260307	-1.9247199484	 0.117285
72.8621	85.7644	132.4311	177.9229	190.5291	216.9052	317.7816	358.2608	387.1481	503.5933	560.9722	625.7946	715.9265	793.2181	824.2565	895.2627	898.8404	931.5459	983.3555	1001.491	1083.1453	1099.4491	1139.9749	1157.5957	1163.5407	1181.1595	1208.4836	1226.6884	1261.9503	1285.0339	1338.3649	1414.2953	1436.4755	1464.9581	1481.8611	1499.9792	1514.775	1528.0264	1866.3769	2991.149	3043.0556	3076.5195	3094.1575	3118.3005	3152.2257	3182.0659	3386.1146	3505.0904
C[NH2+]C(C1CO1)C([O-])=O	CN[C@@H]([C@H]1CO1)C(=O)O	
InChI=1S/C5H9NO3/c1-6-4(5(7)8)3-2-9-3/h3-4,6H,2H2,1H3,(H,7,8)	InChI=1S/C5H9NO3/c1-6-4(5(7)8)3-2-9-3/h3-4,6H,2H2,1H3,(H,7,8)/t3-,4+/m1/s1
