16
gdb 51045	2.62105	1.27643	1.00664	2.8174	67.98	-0.2592	-0.0502	0.209	1180.4146	0.122017	-474.989794	-474.981014	-474.980069	-475.024088	30.655	
N	-0.0689245041	 1.3608207141	-0.0567404493	-0.440602
C	-0.0307667841	 0.1045813935	 0.0084007254	 0.129052
O	-1.1894459747	-0.5962791461	-0.1153557935	-0.227909
C	-1.1164481276	-1.992718045	-0.056826524	 0.231098
C	-0.8271781838	-2.6779382967	 1.3146891217	-0.129291
O	-2.0237906721	-3.466153588	 1.204841825	-0.263818
C	-2.5000088298	-2.6635380843	 0.1070925513	-0.126616
C	-0.3063968805	-2.611711496	-1.1824462362	 0.134083
O	 0.3504754456	-1.9904378995	-1.9730032792	-0.250457
H	 0.8653370808	 1.7458160697	 0.0644601595	 0.234699
H	 0.8515196047	-0.5214444372	 0.1772199916	 0.099373
H	 0.0711264275	-3.2985206181	 1.4023419222	 0.1199
H	-0.8664894133	-1.9559990384	 2.1405866914	 0.125857
H	-3.2596552784	-1.9333622208	 0.4087017943	 0.135103
H	-2.8714719725	-3.2735826995	-0.7224769175	 0.122948
H	-0.3678218279	-3.7227672376	-1.2051330327	 0.106579
72.0237	103.7063	112.579	140.125	196.8793	276.8861	322.0761	373.9225	450.6036	465.2268	595.2798	793.1957	816.1685	851.7565	895.1622	935.1454	988.1175	1000.7385	1034.0367	1035.9968	1067.7331	1114.0469	1153.2288	1165.2423	1195.7666	1278.5948	1290.465	1301.1927	1376.2444	1414.8451	1425.7046	1500.6937	1527.4806	1748.89	1841.2029	2890.5533	3016.5907	3035.5553	3064.725	3076.8256	3090.845	3523.0644
N=COC1(COC1)C=O	[NH][CH]OC1(COC1)C=O	
InChI=1S/C5H7NO3/c6-4-9-5(1-7)2-8-3-5/h1,4,6H,2-3H2	InChI=1S/C5H7NO3/c6-4-9-5(1-7)2-8-3-5/h1,4,6H,2-3H2
