21
gdb 108983	3.63341	1.13925	1.01284	1.487	84.08	-0.2194	0.0282	0.2476	1249.6338	0.184463	-387.083631	-387.075437	-387.074493	-387.116463	32.359	
O	 0.0504825839	 1.423420547	-0.0306474504	-0.415652
C	-0.001049777	 0.0086693493	-0.0117100547	-0.15834
C	-1.4243505188	-0.4639364189	 0.0223712096	 0.280917
C	-2.4855595399	 0.3452881851	 0.0309911007	-0.147
C	-3.8657251483	-0.2750851154	 0.0661966957	-0.052237
C	-3.8726817616	-1.397047343	 1.150713901	-0.213886
C	-3.1625362364	-2.2785815476	 0.0815096485	-0.014905
C	-3.9133805967	-1.4276548333	-0.9846811575	-0.21389
C	-1.6564737013	-1.9636279228	 0.0483262399	-0.298654
H	 0.9740284708	 1.6876056305	-0.0535909869	 0.288325
H	 0.5003979302	-0.4204991345	-0.8986452877	 0.088668
H	 0.5353054527	-0.3982325383	 0.8652300864	 0.088621
H	-2.3672334196	 1.4221734588	 0.0133819983	 0.101476
H	-4.6660289089	 0.4663540427	 0.0708230031	 0.054373
H	-3.3499606627	-1.1946039054	 2.089209392	 0.089446
H	-4.8829471189	-1.7612047481	 1.3581043898	 0.09042
H	-3.3403714837	-3.3567624558	 0.1003527416	 0.055299
H	-4.930612999	-1.7970607042	-1.1429114529	 0.090422
H	-3.4269171663	-1.2524678938	-1.9478329802	 0.089425
H	-1.1920896997	-2.4349148387	-0.8308956949	 0.098573
H	-1.1587474087	-2.4096338838	 0.9224742988	 0.098597
68.3607	144.3717	205.4752	219.1722	312.6294	358.8687	403.7741	466.2641	489.7346	514.756	619.2379	797.1931	817.7332	839.1419	839.5538	871.3558	889.7569	935.6252	939.6722	991.5688	1014.356	1047.7231	1050.6151	1085.7276	1096.3858	1100.8985	1116.2677	1131.663	1185.5954	1208.2595	1221.9274	1246.178	1252.1685	1256.6267	1291.4795	1322.4905	1332.3241	1346.6898	1384.4151	1463.3694	1475.3818	1475.9264	1505.7412	1510.5546	1727.9618	2928.9177	2939.5118	2989.5145	3012.942	3046.7399	3050.3998	3072.0603	3093.0592	3106.3529	3109.4247	3203.659	3842.1293
OCC1=CC2CC(C2)C1	OCC1=C[C@@H]2C[C@@H](C2)C1	
InChI=1S/C8H12O/c9-5-8-3-6-1-7(2-6)4-8/h3,6-7,9H,1-2,4-5H2	InChI=1S/C8H12O/c9-5-8-3-6-1-7(2-6)4-8/h3,6-7,9H,1-2,4-5H2/t6-,7+
