17
gdb 50749	2.97633	1.39277	0.98535	5.5627	70.45	-0.2267	-0.0312	0.1955	1154.1884	0.137657	-455.1853	-455.177094	-455.17615	-455.218874	29.891	
O	-0.307834423	 0.0088055908	 0.1186329363	-0.260319
C	-0.0958479997	 1.1865704683	 0.0677027782	 0.164391
N	 1.1493379461	 1.8309138154	-0.0151904947	-0.151271
C	 1.1151041233	 3.3029839471	-0.1156772761	-0.17101
C	 2.3849968691	 3.9389078562	 0.4419167293	-0.180289
N	 3.5862309349	 3.38707511	-0.1698827916	-0.282728
C	 3.6549669269	 1.9482850049	 0.0440663351	-0.282943
C	 2.3675516559	 1.1164556933	-0.0857818796	 0.39376
O	 2.4249085749	-0.0829226782	-0.1745394749	-0.303716
H	-0.9065039815	 1.9446260694	 0.0993643007	 0.078479
H	 0.9960547015	 3.5987272145	-1.1677802138	 0.116923
H	 0.2321894841	 3.662415915	 0.4235008692	 0.124113
H	 2.3500159189	 5.0204027349	 0.2783831184	 0.117592
H	 2.4429509924	 3.7718991298	 1.5250219333	 0.122095
H	 3.5838372932	 3.588655262	-1.1652366738	 0.224328
H	 4.3880183483	 1.4975090189	-0.6280711705	 0.144407
H	 4.0152546948	 1.7554161979	 1.0649490345	 0.146187
43.4494	111.742	173.2436	238.5881	258.559	338.3836	380.3603	469.3151	481.3693	544.6394	609.5267	666.012	728.6628	804.9331	897.634	954.8782	989.0307	1012.7966	1028.9144	1113.7254	1133.7976	1175.2464	1188.7269	1222.2115	1245.8063	1318.8411	1339.1336	1352.6875	1392.7066	1406.5085	1453.6026	1470.2352	1482.3854	1490.6073	1511.015	1788.2743	1867.8662	2906.147	3001.5754	3014.861	3032.759	3068.0022	3089.5618	3115.875	3510.3109
O=CN1CCNCC1=O	O=CN1CCNCC1=O	
InChI=1S/C5H8N2O2/c8-4-7-2-1-6-3-5(7)9/h4,6H,1-3H2	InChI=1S/C5H8N2O2/c8-4-7-2-1-6-3-5(7)9/h4,6H,1-3H2
