16
gdb 125672	2.9629	1.22931	0.97334	4.64	74.62	-0.2529	0.0102	0.2631	1193.3172	0.125639	-396.974165	-396.965641	-396.964697	-397.00835	30.414	
C	-0.1663541701	 1.4496884815	-0.0133585038	-0.508309
C	-0.0417374845	-0.0400137647	 0.0259273641	 0.289646
N	 0.0094477868	-0.7536332957	-1.0958040988	-0.277018
N	 0.1118084611	-2.0340744644	-0.6865993689	-0.187078
C	 0.126594329	-2.1609598786	 0.6591713062	-0.116855
C	 0.0311317974	-0.8833391529	 1.1685720209	 0.152539
C	 0.0189424372	-0.4794420096	 2.6177500958	-0.467671
C	-1.2581301716	 0.1066432185	 3.0435174874	 0.270525
N	-2.2625802347	 0.5769166526	 3.3677701076	-0.313886
H	 0.6859829804	 1.93775748	 0.4739901473	 0.125818
H	-0.2083990374	 1.7897860291	-1.049740702	 0.14564
H	-1.0714858934	 1.7873278369	 0.5027847019	 0.151704
H	 0.164829875	-2.7636253872	-1.3765357361	 0.278478
H	 0.2022047097	-3.1216592115	 1.1446370009	 0.139882
H	 0.2262253524	-1.3448783325	 3.2559283498	 0.156227
H	 0.8071926527	 0.2542942085	 2.8293482676	 0.160358
36.4807	101.7382	116.7772	221.6986	253.4851	313.9823	376.8303	403.6324	480.0254	502.223	649.7495	680.1829	705.282	758.7657	803.3068	918.7872	934.7813	954.1588	1008.8771	1068.3875	1084.0821	1149.8789	1208.1114	1243.4232	1307.6139	1348.182	1403.3742	1414.6869	1454.7854	1480.3545	1483.155	1491.7657	1516.2259	1611.1736	2360.8907	3030.9774	3032.4661	3079.3777	3085.7273	3137.4918	3256.5152	3679.8313
CC1=NNC=C1CC#N	Cc1n[nH]cc1CC#N	
InChI=1S/C6H7N3/c1-5-6(2-3-7)4-8-9-5/h4H,2H2,1H3,(H,8,9)	InChI=1S/C6H7N3/c1-5-6(2-3-7)4-8-9-5/h4H,2H2,1H3,(H,8,9)
