16
gdb 19844	3.38103	2.58925	1.83603	2.4461	63.37	-0.2523	0.0826	0.3349	745.0142	0.1323	-383.702262	-383.69615	-383.695206	-383.732217	24.674	
C	-0.0076113808	 1.5250968626	-0.0037662498	-0.309483
C	 1.2994264801	 0.7858945779	 0.0250350807	 0.092235
O	 2.0343291929	 0.8596909964	 1.2128410264	-0.248992
C	 2.134538525	-0.3478320545	 1.9465683916	-0.112632
C	 0.7792038416	-0.947046221	 2.2684200416	 0.036592
O	-0.2686829281	-0.0146066516	 2.5407367963	-0.247757
C	-0.3089229182	-0.7377417054	 1.3044526305	 0.034604
C	 0.004143117	 0.0119908699	 0.0422760185	-0.078364
H	-0.2773456541	 2.0336599978	 0.9140263056	 0.142989
H	-0.3169985456	 2.006410464	-0.9243920623	 0.111619
H	 1.9162987179	 0.7595498815	-0.8716954507	 0.088945
H	 2.7336175113	-1.1051486086	 1.4121513249	 0.093162
H	 2.6685860087	-0.0865901638	 2.8656701316	 0.121166
H	 0.7935482523	-1.8354233623	 2.9003128945	 0.09261
H	-1.1157140892	-1.466595004	 1.2409606495	 0.093304
H	-0.2713723607	-0.5185088488	-0.863877389	 0.090002
190.0083	212.449	341.0329	396.5883	477.2198	499.8618	626.6041	726.4779	774.383	798.7685	810.716	867.0902	891.302	940.7771	987.0721	1005.4058	1042.859	1063.2101	1071.0482	1103.5099	1117.6407	1122.4227	1145.8044	1180.0674	1232.3816	1264.1116	1297.1433	1345.4277	1378.7528	1395.5815	1409.8499	1464.0727	1477.6191	1491.4702	2963.4116	3077.1454	3107.6186	3112.5271	3120.1357	3143.3377	3158.5473	3241.7191
C1C2OCC3OC3C12	C1[C@H]2OC[C@H]3O[C@H]3[C@@H]12	
InChI=1S/C6H8O2/c1-3-4(1)7-2-5-6(3)8-5/h3-6H,1-2H2	InChI=1S/C6H8O2/c1-3-4(1)7-2-5-6(3)8-5/h3-6H,1-2H2/t3-,4+,5+,6-/m0/s1
