16
gdb 9306	5.15124	0.94747	0.82708	2.7775	67.22	-0.2524	-0.0699	0.1825	1322.1281	0.12914	-417.068763	-417.059835	-417.058891	-417.103017	31.335	
N	 0.2689857762	 1.1040383265	 0.009176912	-0.552837
C	-0.0954043592	-0.176223095	-0.2805954283	 0.281812
C	 1.0554190815	-1.1325025171	-0.3881222842	 0.143092
O	 2.1984140598	-0.8122887205	-0.1691278549	-0.264965
N	-1.2616134494	-0.6617269134	-0.4920835563	-0.293383
C	-2.4137630811	 0.2188678386	-0.3968266551	-0.172969
C	-3.6552459314	-0.5631691569	-0.8290392344	-0.053571
O	-3.7924406539	-1.7471410165	-0.0741736117	-0.420502
H	 1.2346987659	 1.2383274495	 0.2697443364	 0.274386
H	-0.4071798194	 1.7654120655	 0.3483743294	 0.267055
H	 0.7488112536	-2.15431514	-0.6787011775	 0.108948
H	-2.547836775	 0.5570200956	 0.644253411	 0.106964
H	-2.2911732434	 1.1191938961	-1.0217442633	 0.098136
H	-4.5582890772	 0.0346014426	-0.6671404431	 0.101783
H	-3.5817340947	-0.7780143452	-1.9076698722	 0.088336
H	-2.9219954224	-2.1661770198	-0.1061140182	 0.287716
47.7363	88.3358	128.871	176.3249	257.528	292.9354	313.3337	345.6338	449.7569	492.6839	507.5603	539.7502	638.5401	698.4009	862.4654	903.4354	943.3778	1029.5087	1037.7098	1086.0352	1103.3097	1141.8214	1225.3695	1256.0638	1361.1832	1377.2505	1385.9345	1392.8088	1439.4881	1461.5488	1507.3129	1607.9922	1731.2277	1809.1656	2956.5394	2969.9954	2976.9757	2998.421	3075.5764	3587.0915	3722.1571	3758.6184
NC(C=O)=NCCO	NC(=NCCO)C=O	
InChI=1S/C4H8N2O2/c5-4(3-8)6-1-2-7/h3,7H,1-2H2,(H2,5,6)	InChI=1S/C4H8N2O2/c5-4(3-8)6-1-2-7/h3,7H,1-2H2,(H2,5,6)
