17
gdb 84587	2.45146	1.89933	1.23528	1.4484	72.99	-0.2431	-0.0379	0.2052	1005.6209	0.136848	-418.013313	-418.00563	-418.004686	-418.045787	29.043	
C	 0.1176939006	 1.5761130298	-0.2421308308	-0.385928
C	 0.0259479578	 0.0676787984	-0.021306211	 0.018557
N	 0.6066446059	-0.6811144147	-1.1531443269	-0.223699
C	 1.4353425408	-1.5269384214	-0.6899663432	 0.027845
N	 1.5814404235	-1.6436225865	 0.707735386	-0.108537
C	 2.8685669938	-1.1186603487	 1.2741024229	-0.309367
C	 2.0941759621	 0.1388133357	 1.7360521558	 0.396925
O	 2.4001312341	 1.1629030823	 2.2654406358	-0.280679
C	 0.7792576339	-0.485799694	 1.2286390815	-0.147878
H	 1.1581503976	 1.8954678896	-0.3470401421	 0.126869
H	-0.4189834559	 1.8496126447	-1.1539696509	 0.131369
H	-0.3206138805	 2.1200816723	 0.5999040292	 0.12471
H	-1.0312082978	-0.2125041368	 0.0593327539	 0.098913
H	 2.028995405	-2.1821158466	-1.3226172121	 0.129651
H	 3.2589605325	-1.7258754167	 2.0963097349	 0.144459
H	 3.6632225605	-0.945101652	 0.5404878171	 0.14076
H	 0.1041098562	-0.7520325654	 2.0467447896	 0.116032
68.6053	136.6351	206.0963	234.2076	324.059	363.6913	425.4645	548.999	565.8126	672.5852	712.8728	726.1792	786.4492	848.7425	901.0411	950.3042	967.4024	987.593	1032.9807	1043.5009	1079.2712	1091.5821	1122.8215	1147.2546	1193.5007	1240.2128	1245.4809	1261.6185	1315.0488	1340.2816	1360.635	1413.4848	1465.5695	1484.4634	1496.7019	1683.0406	1905.6544	3028.8488	3044.786	3046.8121	3073.256	3100.9812	3120.1476	3128.6334	3176.1439
CC1N=CN2CC(=O)C12	C[C@H]1N=CN2CC(=O)[C@@H]12	
InChI=1S/C6H8N2O/c1-4-6-5(9)2-8(6)3-7-4/h3-4,6H,2H2,1H3	InChI=1S/C6H8N2O/c1-4-6-5(9)2-8(6)3-7-4/h3-4,6H,2H2,1H3/t4-,6-/m1/s1
