17
gdb 44253	3.03083	1.43429	1.15848	1.5708	71.95	-0.2467	-0.0367	0.21	1059.145	0.136128	-421.867668	-421.86003	-421.859086	-421.900476	29.079	
O	 0.0504744137	-0.0024519032	-0.4573356251	-0.289423
C	-0.0077544365	 1.1443581427	-0.1243208067	 0.402323
C	-1.1555442895	 2.0740614839	 0.3050966798	-0.360477
C	-0.0736184937	 3.155493458	 0.655589599	-0.141829
C	 1.0574902618	 2.2383833515	 0.0925146761	-0.150534
C	 2.0621754198	 1.9660112788	 1.2375362654	-0.234498
C	 1.2669298785	 2.21947105	 2.5297879261	-0.329068
C	 0.2063033914	 3.2632166819	 2.1549827688	 0.404785
O	-0.3116136502	 4.0466231961	 2.9074263489	-0.312464
H	-1.8003266733	 2.3593622239	-0.5318156899	 0.144695
H	-1.7912475687	 1.7105941592	 1.1180817313	 0.141652
H	-0.2408413464	 4.1367501318	 0.2139649623	 0.102353
H	 1.5426691267	 2.5474145871	-0.8364798736	 0.105407
H	 2.4751919681	 0.956344532	 1.1728468969	 0.128346
H	 2.8974473409	 2.6698652291	 1.1650470237	 0.116338
H	 0.7371975794	 1.3115684188	 2.8502055468	 0.138844
H	 1.8630900682	 2.5586775585	 3.3784429101	 0.133551
51.922	105.5452	207.5305	222.9059	426.504	427.7322	498.2854	520.716	565.3985	653.7333	703.4266	731.0838	795.1503	816.1861	884.0091	923.6811	930.8022	959.1323	977.1643	1029.7138	1073.2311	1107.0845	1138.6407	1154.7299	1171.2807	1186.388	1237.7887	1247.4769	1258.6706	1293.0208	1298.5518	1341.4541	1436.6917	1456.3531	1495.4544	1843.7613	1893.3166	3026.2484	3053.0837	3056.5963	3087.3855	3104.563	3108.2733	3122.8925	3129.9147
O=C1CC2C1CCC2=O	O=C1C[C@@H]2[C@H]1CCC2=O	
InChI=1S/C7H8O2/c8-6-2-1-4-5(6)3-7(4)9/h4-5H,1-3H2	InChI=1S/C7H8O2/c8-6-2-1-4-5(6)3-7(4)9/h4-5H,1-3H2/t4-,5-/m1/s1
