18
gdb 69430	2.89626	1.26668	1.21989	3.9313	75.67	-0.2483	0.0303	0.2786	1117.774	0.148191	-401.957074	-401.948908	-401.947964	-401.98977	31.245	
C	 0.1653433454	 1.5403209422	 0.2107040925	-0.469735
C	 0.1916717434	 0.0459556108	 0.0737429707	 0.465993
C	-0.8928132468	-0.8530557036	 0.6168106277	-0.383074
C	 0.5236868371	-0.9355335629	 1.1654928058	-0.109263
C	 1.4377744877	-1.9800026332	 0.5268966791	-0.181903
C	 1.2267314944	-1.713867752	-0.9980181135	-0.114688
O	 0.8190841749	-0.3640579489	-1.1228189168	-0.283036
C	 2.8273979849	-1.7810819518	 0.9424011198	 0.271537
N	 3.9248828589	-1.6275953757	 1.2709170631	-0.323249
H	 1.1802972131	 1.9463736982	 0.1674971777	 0.137269
H	-0.4183584594	 1.9896887141	-0.5988302071	 0.133492
H	-0.2887440758	 1.831830351	 1.1613043527	 0.12173
H	-1.6342909758	-0.4011432156	 1.2666018637	 0.123151
H	-1.2768038615	-1.662668784	 0.0051188535	 0.120135
H	 0.7286596612	-0.625892716	 2.1826134362	 0.11417
H	 1.1546353893	-3.0080729073	 0.7755659348	 0.13079
H	 2.1337130143	-1.8588782586	-1.5883988376	 0.137821
H	 0.4546734247	-2.3969598366	-1.3755742423	 0.108861
85.1474	146.9007	202.9717	226.3461	277.1121	321.9816	398.8671	422.2464	491.7211	545.7638	618.3372	736.9173	765.3513	805.9743	826.1246	868.6406	919.6442	943.2582	966.1181	1018.536	1047.0904	1073.9323	1080.7042	1100.7395	1123.7931	1128.1277	1220.5987	1238.7051	1260.8214	1274.0809	1342.9758	1388.7504	1395.0363	1430.021	1477.742	1484.5363	1504.2875	1524.4627	2357.2385	3014.2752	3042.6975	3060.8515	3110.1636	3110.6498	3124.2586	3133.319	3191.7647	3218.611
CC12CC1C(CO2)C#N	C[C@]12C[C@H]1[C@@H](CO2)C#N	
InChI=1S/C7H9NO/c1-7-2-6(7)5(3-8)4-9-7/h5-6H,2,4H2,1H3	InChI=1S/C7H9NO/c1-7-2-6(7)5(3-8)4-9-7/h5-6H,2,4H2,1H3/t5-,6+,7+/m1/s1
