18
gdb 48036	6.39505	0.58273	0.54806	4.1863	85.33	-0.2318	-0.0592	0.1726	1954.2337	0.146156	-401.893406	-401.883998	-401.883054	-401.929651	32.153	
O	-0.1387733065	-0.0448627593	 0.2219531048	-0.230202
C	-0.0468519906	 1.1565028018	 0.1110295425	 0.018597
C	 1.1953459627	 1.8817837205	 0.0714060528	 0.068074
C	 2.2190617074	 2.5223251122	 0.0419236928	 0.08652
C	 3.4659582653	 3.2753364367	-0.0155030699	-0.324165
N	 3.2503655614	 4.7061498923	-0.1080975402	-0.061363
C	 2.6835445123	 5.2640156613	-1.3555218148	-0.157262
C	 3.6348472047	 6.4748143432	-1.1980454102	-0.226088
C	 4.4415546182	 5.5725324056	-0.2336972578	-0.15981
H	-0.946789813	 1.8000055465	 0.0297808108	 0.098843
H	 4.0469229463	 3.0681668008	 0.8935526028	 0.147111
H	 4.0677691476	 2.8808252834	-0.8613265809	 0.115896
H	 2.9270920299	 4.6608612506	-2.245888986	 0.089074
H	 1.6041096771	 5.4381491396	-1.3318543877	 0.111293
H	 4.1450601475	 6.8278463303	-2.0939282451	 0.109395
H	 3.1629618538	 7.3165825516	-0.6890402969	 0.119255
H	 4.8012092128	 5.9988064372	 0.7082076554	 0.108201
H	 5.2839022032	 5.0761440357	-0.7444696925	 0.08663
37.4436	51.0031	69.4356	155.3934	167.9581	202.716	300.5186	340.2163	401.7949	450.2017	610.6559	687.14	772.6449	830.2884	854.0393	926.2097	937.7109	967.089	1000.1397	1021.7491	1093.3747	1130.0787	1140.14	1155.5459	1207.615	1214.2993	1224.0686	1262.8167	1270.6278	1297.2684	1341.8252	1387.8514	1421.9926	1461.5147	1487.4412	1503.4074	1532.1431	1767.3219	2329.9048	2882.8224	2915.7519	2960.4392	2970.5327	3030.5617	3065.5788	3076.8415	3091.6762	3147.4712
O=CC#CCN1CCC1	O=CC#CCN1CCC1	
InChI=1S/C7H9NO/c9-7-2-1-4-8-5-3-6-8/h7H,3-6H2	InChI=1S/C7H9NO/c9-7-2-1-4-8-5-3-6-8/h7H,3-6H2
