21
gdb 80908	2.43209	1.41206	1.34045	1.7499	78.95	-0.2458	0.0681	0.3139	1121.027	0.180561	-424.177889	-424.168339	-424.167395	-424.211246	37.306	
C	-0.1642168113	 1.6377068667	 0.1704153666	-0.4426
C	 0.0050224785	 0.1254010505	 0.1166400126	 0.007877
C	 1.1502310394	-0.553247351	-0.7154446186	-0.150337
C	 2.1542250556	-0.0789786669	 0.3769258658	-0.317162
C	 0.8972473895	-0.6297834385	 1.1386226148	 0.353394
O	 0.6499678523	-0.6592816623	 2.4978423865	-0.481163
C	 0.9242326299	-1.8446905312	 0.1541074305	 0.393142
C	-0.2877604917	-2.744838819	-0.0527571817	-0.488509
O	 2.0558775597	-2.6722801927	 0.3896655597	-0.493221
H	 0.7697030834	 2.1903031755	 0.288758675	 0.119903
H	-0.6457985238	 1.9954315602	-0.746301766	 0.112923
H	-0.8151036863	 1.9088776677	 1.0085579585	 0.126201
H	-0.9803210346	-0.3216526406	-0.0259505819	 0.061441
H	 1.2875779984	-0.5064282577	-1.7947307934	 0.067984
H	 3.0729801766	-0.6520542611	 0.4706114225	 0.111238
H	 2.3369420757	 0.9913601316	 0.4457711265	 0.090803
H	 1.3188765328	-1.2204223775	 2.9067969558	 0.288517
H	-1.2170158285	-2.2129359405	-0.2559951346	 0.129109
H	-0.1097793244	-3.4171952226	-0.90224872	 0.104105
H	-0.4357411832	-3.3665522644	 0.8355576312	 0.129902
H	 2.084501722	-3.3430138859	-0.2996969997	 0.276451
152.9895	154.6018	181.5583	192.6099	218.4709	261.6965	268.4185	304.5885	384.6058	426.4173	458.6493	514.368	545.4603	581.2255	665.0999	706.4369	740.6292	820.6983	846.2986	918.9203	949.3952	959.7744	1011.7045	1041.2053	1059.9103	1076.6423	1105.1511	1116.5201	1151.8928	1158.9058	1177.5699	1205.849	1218.3511	1234.485	1286.5728	1350.8432	1380.8969	1410.7946	1413.4506	1437.2724	1494.5228	1495.0145	1497.199	1503.3548	1529.8566	3025.6089	3038.4476	3082.5903	3092.4182	3092.8447	3110.8678	3128.438	3133.1004	3145.7488	3181.1045	3799.4393	3815.5789
CC1C2CC1(O)C2(C)O	C[C@H]1[C@H]2C[C@]1(O)[C@]2(C)O	
InChI=1S/C7H12O2/c1-4-5-3-7(4,9)6(5,2)8/h4-5,8-9H,3H2,1-2H3	InChI=1S/C7H12O2/c1-4-5-3-7(4,9)6(5,2)8/h4-5,8-9H,3H2,1-2H3/t4-,5+,6+,7+/m0/s1
