20
gdb 96278	2.14907	1.61629	0.98251	4.7538	75.95	-0.2454	0.0406	0.2859	1218.8367	0.173005	-440.340299	-440.331729	-440.330784	-440.37358	32.748	
C	 0.1643029639	 1.5392237586	 0.0695560921	-0.421431
C	 0.0306039259	 0.01928857	-0.0373695166	 0.061898
C	 0.538789302	-0.4894023393	-1.3921695502	-0.171624
C	 0.2726041678	-1.9775510654	-1.6247524887	-0.21831
C	 0.8580720424	-2.8782035302	-0.5442380935	-0.069231
O	 0.1691228038	-2.7914780669	 0.7138671462	-0.235232
C	 0.5279432933	-1.833910562	 1.612354681	 0.410396
O	 0.6192814412	-2.0913397547	 2.7864428346	-0.371561
N	 0.7704129001	-0.5802941788	 1.087922271	-0.355328
H	 1.2136440291	 1.8428172505	-0.0144594461	 0.128415
H	-0.396917845	 2.0293834156	-0.7299671943	 0.127793
H	-0.2244883629	 1.9043377088	 1.0258426971	 0.124272
H	-1.0344542583	-0.242570144	 0.0497852522	 0.091957
H	 0.0546105548	 0.0921538155	-2.1852220168	 0.097639
H	 1.6154882563	-0.2859337288	-1.455764488	 0.101579
H	-0.8067459328	-2.1653268611	-1.682582026	 0.1116
H	 0.6985378917	-2.2821824259	-2.5884608421	 0.102276
H	 0.759086675	-3.9277259966	-0.8332317133	 0.121296
H	 1.9231669573	-2.6658722681	-0.3918052487	 0.115169
H	 0.9799629344	 0.0638706531	 1.8375319201	 0.248426
74.217	134.0079	189.9444	233.7916	275.1483	313.1951	355.2567	369.9515	437.7739	515.6962	553.9767	604.3319	689.9194	786.1608	809.8823	861.5538	889.4022	898.9329	934.8065	994.9738	1009.9982	1072.6693	1086.8159	1114.4025	1154.7843	1192.9746	1232.3071	1266.3326	1295.5176	1321.91	1335.1516	1375.5278	1391.8828	1399.1347	1411.4053	1427.9828	1463.3293	1471.6032	1480.8298	1496.1193	1500.3724	1503.6788	1834.358	2989.4741	3023.7261	3028.4532	3035.1153	3035.4125	3065.8687	3076.5234	3099.6188	3102.4444	3121.8399	3600.0534
CC1CCCOC(=O)N1	C[C@H]1CCCOC(=O)N1	
InChI=1S/C6H11NO2/c1-5-3-2-4-9-6(8)7-5/h5H,2-4H2,1H3,(H,7,8)	InChI=1S/C6H11NO2/c1-5-3-2-4-9-6(8)7-5/h5H,2-4H2,1H3,(H,7,8)/t5-/m0/s1
