18
gdb 52169	5.61897	0.64443	0.61539	1.2788	75.63	-0.257	-0.0275	0.2296	1755.456	0.146158	-439.097326	-439.088237	-439.087293	-439.132808	32.009	
N	-0.1307401661	 1.1669874859	 0.8497432355	-0.534901
C	-0.0970744198	 0.0877101042	 0.2157937608	 0.442525
C	-1.1081375268	-0.986994953	-0.1232513312	-0.386646
C	 0.0844409965	-1.6624253724	-0.8346990301	 0.132128
C	 0.0283125421	-1.8114556674	-2.3425592467	-0.221043
C	 1.402747156	-2.1472730249	-2.9472620533	-0.27462
C	 1.373355003	-2.1219812553	-4.458333063	 0.156836
O	 1.6966799424	-3.0357645145	-5.1712060359	-0.23311
O	 0.9503857246	-0.543620602	-0.4305844171	-0.266054
H	 0.7849657657	 1.6192048584	 0.8655746266	 0.230062
H	-1.5190209352	-1.5153257435	 0.7380330291	 0.142356
H	-1.9221890364	-0.661142869	-0.7738501331	 0.138121
H	 0.4390673694	-2.5808379312	-0.3561229467	 0.09937
H	-0.6956426106	-2.5987150512	-2.5874013406	 0.12217
H	-0.3530295462	-0.8780557508	-2.7760621261	 0.113116
H	 2.1195278095	-1.3848763164	-2.6122754208	 0.142562
H	 1.7615858911	-3.1270813901	-2.6191248215	 0.12333
H	 1.0126413107	-1.1581416368	-4.8902965857	 0.073798
48.523	58.7013	97.0472	125.5012	155.2319	299.3978	339.0703	433.6778	486.7661	506.8243	527.7793	708.0576	773.5076	821.7497	858.6549	870.7364	926.772	945.5096	1003.5138	1011.4524	1017.1028	1077.3388	1086.7732	1101.9765	1165.99	1210.6334	1228.8023	1245.0414	1258.239	1302.5789	1335.0401	1365.4815	1407.0725	1431.3507	1463.4004	1465.8143	1482.5328	1829.468	1839.1374	2850.8864	3022.323	3029.0549	3056.5088	3072.8262	3086.9835	3103.829	3142.7468	3478.3673
N=C1CC(CCC=O)O1	[NH][C]1C[C@@H](CCC=O)O1	
InChI=1S/C6H9NO2/c7-6-4-5(9-6)2-1-3-8/h3,5,7H,1-2,4H2	InChI=1S/C6H9NO2/c7-6-4-5(9-6)2-1-3-8/h3,5,7H,1-2,4H2/t5-/m1/s1
