20
gdb 106689	2.57286	1.49997	1.26268	1.402	78.56	-0.2261	0.0645	0.2906	1090.8475	0.170552	-403.08176	-403.073031	-403.072087	-403.114903	33.766	
C	 0.3877161668	 1.3131686577	 0.0008073896	-0.498897
C	 0.0541509697	-0.1411758895	 0.1320032887	 0.332943
C	 1.0123081427	-1.2701194664	-0.1231355211	-0.391626
C	 0.3280951501	-1.170352069	 1.2293556888	 0.256996
C	 1.0628949019	-1.0761943946	 2.5444004161	-0.192134
O	 2.3045554174	-0.3912449955	 2.4436567547	-0.409082
C	-1.1036923868	-1.6098157293	 1.0564357974	-0.111291
C	-2.0395525544	-0.4675518048	 1.1734687156	-0.24627
N	-1.326998379	-0.6448966173	-0.106278651	-0.154939
H	 1.3894402395	 1.5063785716	 0.393138357	 0.13844
H	 0.3540978352	 1.6279100689	-1.0483058273	 0.126922
H	-0.3178228545	 1.9367057131	 0.5605280305	 0.117766
H	 0.7460910446	-2.0604474414	-0.8201665452	 0.112055
H	 2.0580233057	-0.9776839107	-0.1397004571	 0.101501
H	 0.4661425546	-0.5054096551	 3.265055587	 0.112227
H	 1.199992626	-2.0829544577	 2.9723359522	 0.092645
H	 2.9236501098	-0.9743851208	 1.9940929995	 0.287281
H	-1.4514928508	-2.6372674711	 0.9938762177	 0.093001
H	-3.1020888896	-0.680148405	 1.099645965	 0.118513
H	-1.785534139	 0.3782020171	 1.8082357919	 0.113949
72.7936	144.9745	203.0918	217.9687	249.7811	293.8878	317.174	394.7035	454.1381	490.9436	559.7023	634.2502	684.625	757.5274	771.8316	814.4785	854.7943	957.3105	974.8368	983.0817	998.4195	1041.1639	1056.4075	1066.0548	1074.1269	1104.9469	1117.5092	1155.8255	1156.7981	1210.0391	1221.8094	1236.696	1285.0652	1350.0126	1388.0546	1391.0656	1415.3266	1424.0898	1484.2335	1491.545	1495.0835	1499.6068	1507.8396	2966.2122	3030.7691	3057.102	3089.5125	3108.8088	3111.4593	3120.7579	3149.2827	3199.4336	3201.2081	3825.3794
CC12CC1(CO)C1CN21	C[C@@]12C[C@]1(CO)[C@H]1CN21	
InChI=1S/C7H11NO/c1-6-3-7(6,4-9)5-2-8(5)6/h5,9H,2-4H2,1H3	InChI=1S/C7H11NO/c1-6-3-7(6,4-9)5-2-8(5)6/h5,9H,2-4H2,1H3/t5-,6-,7+,8?/m1/s1
