15
gdb 46429	3.9567	0.86158	0.75439	5.0095	66.27	-0.2664	-0.0156	0.2508	1421.809	0.112921	-453.956618	-453.948173	-453.947229	-453.990992	29.217	
O	 0.2580359055	 0.1406931879	-0.3596352284	-0.320508
C	 0.1456080516	 1.2794941133	-0.0370689795	 0.490194
O	-0.9378592654	 1.9048198416	 0.5104399589	-0.229939
C	-0.2041509001	 3.166502088	 0.658010047	-0.10466
C	 1.0288847855	 2.5408780282	-0.0184421021	-0.166993
N	 2.2122393098	 2.4116360253	 0.8101589824	-0.313616
C	 3.2158666433	 1.5236216242	 0.2146680418	-0.274562
C	 4.3936931832	 1.4292052642	 1.0786262869	 0.259801
N	 5.3338069982	 1.3772510497	 1.7471363109	-0.292731
H	-0.7062411485	 3.970940912	 0.1190155974	 0.133586
H	-0.0689035172	 3.4107388786	 1.7126736542	 0.141894
H	 1.2162349267	 2.9225824051	-1.0360794364	 0.103696
H	 2.6228501287	 3.3260409493	 0.9730674673	 0.242383
H	 2.7743889491	 0.5284630892	 0.0979228956	 0.194131
H	 3.5509856297	 1.8414746433	-0.7887184659	 0.137324
53.5353	94.5564	107.4133	164.9131	203.8903	324.0016	371.1296	392.6026	498.8063	558.3783	720.0143	756.1497	791.8157	853.7673	914.2886	959.9443	972.6351	1015.2003	1073.0204	1114.1722	1137.8505	1161.7419	1188.5403	1218.953	1271.824	1332.2593	1373.3276	1392.4965	1489.7224	1497.0459	1506.4963	1934.0008	2371.401	2952.0513	2963.9183	3083.866	3083.8964	3152.2637	3514.8203
O=C1OCC1NCC#N	O=C1OC[C@H]1NCC#N	
InChI=1S/C5H6N2O2/c6-1-2-7-4-3-9-5(4)8/h4,7H,2-3H2	InChI=1S/C5H6N2O2/c6-1-2-7-4-3-9-5(4)8/h4,7H,2-3H2/t4-/m1/s1
