21
gdb 49709	2.88004	1.42861	1.40835	2.4943	80.92	-0.2473	-0.021	0.2263	1053.1004	0.185651	-387.125644	-387.117965	-387.117021	-387.157922	30.506	
O	-0.757295011	 0.9122903847	 0.5481688108	-0.248458
C	 0.1113922548	 1.0797066937	-0.2724981912	 0.12552
C	 1.2870092498	 2.0095848682	-0.1407935157	-0.073367
C	 1.2136096516	 3.2856483113	-1.037890588	-0.022211
C	 0.0534292642	 4.0664404306	-0.3808986989	-0.212557
C	 0.2342663209	 3.7636462456	 1.1413808566	-0.208166
C	 1.4507739375	 2.806628826	 1.1716636196	-0.009041
C	 2.7201074709	 3.628104248	 0.8515777839	-0.219818
C	 2.5473406835	 3.9728895362	-0.6654394163	-0.210643
H	 0.0908411851	 0.5159732856	-1.2358351074	 0.071491
H	 2.1821213102	 1.4252556868	-0.3976243674	 0.08113
H	 1.088005184	 3.1111408739	-2.1086814374	 0.061586
H	 0.106209653	 5.1336593637	-0.6142979248	 0.094066
H	-0.9148848007	 3.7046661719	-0.7396571638	 0.103881
H	 0.427096226	 4.666768954	 1.7276720274	 0.089429
H	-0.6501652319	 3.2758845041	 1.5521171709	 0.123621
H	 1.5187669598	 2.2096106753	 2.0819699604	 0.067202
H	 2.7958614622	 4.5191336062	 1.4813130806	 0.097426
H	 3.62530618	 3.0358892617	 1.0181207413	 0.094422
H	 3.3738576668	 3.5714327547	-1.2595082486	 0.095748
H	 2.5073584233	 5.0498847279	-0.8528714119	 0.098738
72.8349	169.5043	199.2151	228.622	335.2135	379.9539	418.9197	556.443	676.9501	731.7708	788.2752	797.0469	820.0679	852.2207	877.8498	886.5436	898.4666	959.6075	963.2173	988.2445	996.1415	1018.851	1036.4435	1080.1901	1099.1581	1126.6963	1162.5717	1178.3034	1214.4524	1230.8564	1240.8663	1283.2848	1286.3369	1306.7201	1312.2077	1327.42	1342.1415	1349.9814	1382.9269	1429.712	1484.0611	1496.946	1501.1719	1518.4612	1819.1347	2845.0071	3013.6045	3043.7724	3049.8169	3054.2869	3061.6144	3080.1519	3089.0822	3091.1399	3101.2061	3107.8673	3127.7285
O=CC1C2CCC1CC2	O=C[C@H]1[C@H]2CC[C@@H]1CC2	
InChI=1S/C8H12O/c9-5-8-6-1-2-7(8)4-3-6/h5-8H,1-4H2	InChI=1S/C8H12O/c9-5-8-6-1-2-7(8)4-3-6/h5-8H,1-4H2/t6-,7+,8-
