18
gdb 85553	2.85652	1.32831	1.02631	3.4345	76.21	-0.2199	-0.0122	0.2078	1177.8246	0.148188	-439.13915	-439.130366	-439.129422	-439.172528	33.083	
C	 0.0470040002	 1.5441106668	 0.0560930552	-0.486677
C	-0.0398820175	 0.0467176365	 0.0079332371	 0.223185
C	-0.0580524097	-0.6463156107	-1.1367221797	-0.071492
N	-0.1075857237	-2.0440018812	-1.1926291851	-0.328242
C	-0.2794842842	-2.8637390747	-0.0965548505	 0.377896
O	-0.1993198515	-4.0715279888	-0.1805137238	-0.359684
C	-0.6362823821	-2.110086488	 1.1749304573	-0.343278
C	-0.0029764514	-0.7151926858	 1.3139801661	 0.019097
O	 1.3295327853	-0.7707478681	 1.8343538902	-0.430169
H	 0.9143202901	 1.858453566	 0.6486660674	 0.139152
H	 0.1389418441	 1.9790696919	-0.9432833759	 0.117709
H	-0.8380980627	 1.9840787708	 0.5337781535	 0.124868
H	-0.0266349202	-0.1627339119	-2.1073632248	 0.113453
H	 0.0595298259	-2.516503404	-2.0681485065	 0.25529
H	-1.7291780535	-1.996261317	 1.1612030544	 0.132775
H	-0.3812065102	-2.7360183794	 2.031565947	 0.139074
H	-0.5585080378	-0.1664035807	 2.0823208346	 0.093975
H	 1.9053275088	-1.0902883018	 1.1304938335	 0.283067
89.3973	100.456	194.0122	216.8489	282.8678	297.2666	344.1528	373.6757	434.7385	470.2643	530.2658	585.7213	630.7626	640.4368	751.0557	786.7635	880.4111	884.1808	921.3256	1005.0946	1041.3875	1060.0589	1069.8164	1140.4926	1200.4711	1212.3154	1250.58	1285.721	1310.0157	1391.0563	1393.1927	1412.6314	1425.6441	1443.6917	1464.3978	1476.1484	1498.7123	1738.8701	1805.7087	3016.4865	3026.0272	3050.7364	3067.2522	3106.6895	3126.2997	3186.0633	3626.3514	3800.3101
CC1=CNC(=O)CC1O	CC1=CNC(=O)C[C@H]1O	
InChI=1S/C6H9NO2/c1-4-3-7-6(9)2-5(4)8/h3,5,8H,2H2,1H3,(H,7,9)	InChI=1S/C6H9NO2/c1-4-3-7-6(9)2-5(4)8/h3,5,8H,2H2,1H3,(H,7,9)/t5-/m1/s1
