15
gdb 15566	3.52469	1.76178	1.24657	3.143	69.99	-0.2566	-0.051	0.2055	939.1771	0.119014	-362.687266	-362.679709	-362.678765	-362.71949	27.085	
C	 0.1145794156	 1.5676391903	-0.1061044997	-0.398145
C	-0.0201147769	 0.0577790857	 0.0633831305	 0.035945
O	 0.517040329	-0.6189555058	-1.0753251747	-0.274846
C	 1.4443462792	-1.6235165937	-0.6874663223	-0.111085
C	 1.5962148012	-1.4712115051	 0.795108616	-0.204029
C	 0.7645706741	-0.522516993	 1.2310536382	 0.1921
C	 0.5817214208	-0.0928675131	 2.5698791106	 0.219949
N	 0.4018514847	 0.2848528758	 3.6502160798	-0.334491
H	 1.1670617243	 1.8516107876	-0.193744338	 0.124561
H	-0.4098814079	 1.8853958578	-1.0109020183	 0.134407
H	-0.3228814881	 2.0896499531	 0.7504542074	 0.136073
H	-1.0866799971	-0.1992856138	 0.1684170761	 0.099477
H	 1.0685141311	-2.6257278731	-0.9526078888	 0.120368
H	 2.3940888428	-1.4831184054	-1.2246370703	 0.124285
H	 2.2723398971	-2.0613839072	 1.3992321337	 0.135429
72.1259	138.9027	165.0712	237.2567	282.6154	358.5899	457.887	528.8003	555.1184	637.7085	763.8901	801.8515	852.7723	875.5974	949.6585	1036.9607	1047.6534	1072.5708	1116.6824	1125.3464	1196.7625	1199.7604	1277.699	1335.0334	1371.7542	1382.139	1404.7788	1485.2383	1494.7693	1512.7339	1690.0563	2340.2339	2967.9105	2972.0223	3005.1285	3044.5126	3122.3021	3128.3199	3232.6847
CC1OCC=C1C#N	C[C@H]1OCC=C1C#N	
InChI=1S/C6H7NO/c1-5-6(4-7)2-3-8-5/h2,5H,3H2,1H3	InChI=1S/C6H7NO/c1-5-6(4-7)2-3-8-5/h2,5H,3H2,1H3/t5-/m1/s1
