17
gdb 42591	3.17302	1.95644	1.76404	3.0498	73.21	-0.2261	-0.0065	0.2196	834.5677	0.139516	-384.685047	-384.679227	-384.678283	-384.715015	25.26	
O	 0.0420709089	-0.0024764893	 0.0352067823	-0.337821
C	-0.0049546508	 1.194497909	 0.0100826053	 0.453488
C	-1.1971215667	 2.1594884053	 0.0496707293	-0.173053
C	-0.8605464118	 3.0037039103	 1.2956333334	-0.077097
C	-0.3987399209	 4.1640997433	 0.4588498778	-0.07649
C	 0.6409952427	 3.2334493155	 1.0532533876	-0.069913
C	 1.1235926653	 2.2491068779	-0.0422324263	-0.165081
C	 0.6941743922	 2.9568141563	-1.3551637105	-0.228629
C	-0.6966270349	 3.3832697415	-0.8425953071	-0.057213
H	-2.1953863452	 1.7565685233	-0.0900189084	 0.084232
H	-1.3232100827	 2.9631328033	 2.2727703079	 0.095144
H	-0.4523493087	 5.2297981837	 0.6392544019	 0.08934
H	 1.2762077499	 3.54794995	 1.869194859	 0.095398
H	 2.1396646947	 1.8717066607	 0.0355498353	 0.079477
H	 1.3236419525	 3.8159222651	-1.6058622083	 0.104074
H	 0.6623089422	 2.2718831936	-2.210203851	 0.107842
H	-1.4071862465	 3.7993964006	-1.5532086983	 0.076303
143.2019	366.3598	429.4604	536.8174	550.8754	653.7601	731.5732	736.2186	779.7021	791.1642	805.4897	835.9935	847.2196	890.9627	912.6934	920.3851	938.7912	963.374	981.7386	997.3936	1036.0985	1050.1897	1063.8909	1107.4464	1124.1007	1154.2307	1177.6651	1194.5242	1212.0812	1240.6889	1248.5511	1260.6819	1287.7578	1316.7688	1364.5636	1489.4105	1876.4389	3040.7045	3095.4886	3141.975	3159.181	3170.4703	3191.2275	3202.0656	3220.9078
O=C1C2C3C4C3C1CC24	O=C1[C@H]2[C@@H]3[C@H]4[C@@H]3[C@@H]1C[C@@H]24	
InChI=1S/C8H8O/c9-8-3-1-2-4-5(3)7(4)6(2)8/h2-7H,1H2	InChI=1S/C8H8O/c9-8-3-1-2-4-5(3)7(4)6(2)8/h2-7H,1H2/t2-,3+,4-,5+,6-,7-/m1/s1
