19
gdb 90773	3.29743	1.38246	1.20131	1.0265	70.48	-0.2456	0.0659	0.3114	1084.6188	0.159346	-460.147447	-460.139072	-460.138128	-460.180317	31.721	
C	 0.3265241804	 1.5709964118	 0.1723735315	-0.40875
C	 0.1682198186	 0.0712616742	 0.0727005582	 0.125558
O	 1.0932671374	-0.5613456588	-0.8614699664	-0.329639
C	 1.4021722214	-1.6042325659	 0.0843506741	 0.094442
C	 0.6783294273	-0.8444536624	 1.2147143503	 0.052843
O	 1.6741613421	-0.2935928955	 2.0559204122	-0.263
C	 2.9471480406	-0.4036955704	 1.4185874171	-0.121348
C	 2.86906651	-1.628456462	 0.4949986912	 0.088322
O	 3.0596835179	-2.8593669764	 1.1748824233	-0.440621
H	 1.3035380161	 1.8460650023	 0.5746387464	 0.130144
H	 0.210295632	 2.0257038338	-0.8163047633	 0.127334
H	-0.443246664	 1.9856791337	 0.8315861905	 0.12195
H	-0.8635297285	-0.1880120316	-0.2071470179	 0.073316
H	 1.033333777	-2.5879609314	-0.2185892385	 0.086735
H	-0.0688213631	-1.3385353915	 1.8370004801	 0.089629
H	 3.1734854807	 0.4940779827	 0.8271132379	 0.102676
H	 3.7073493882	-0.5059128999	 2.2004456906	 0.100549
H	 3.5354984117	-1.5278790121	-0.3725293378	 0.082465
H	 3.9132324442	-2.8336982506	 1.6174000905	 0.287398
101.1091	148.5455	168.4261	221.868	243.682	256.7414	365.1096	388.803	454.9088	566.3896	643.3329	777.1998	800.5848	852.5127	861.3643	878.5825	918.7956	968.9473	986.6475	1014.2156	1027.8628	1054.6761	1101.1491	1121.5609	1150.3367	1155.9738	1180.929	1224.9076	1247.9125	1265.4093	1294.1735	1325.0754	1342.1339	1356.2257	1385.9938	1390.238	1407.1516	1423.3285	1484.3687	1485.9177	1504.4747	2993.4817	3004.9662	3023.337	3044.3389	3072.0474	3078.2688	3107.3059	3110.1346	3135.1981	3828.1341
CC1OC2C1OCC2O	C[C@H]1O[C@@H]2[C@H]1OC[C@H]2O	
InChI=1S/C6H10O3/c1-3-5-6(9-3)4(7)2-8-5/h3-7H,2H2,1H3	InChI=1S/C6H10O3/c1-3-5-6(9-3)4(7)2-8-5/h3-7H,2H2,1H3/t3-,4-,5+,6+/m1/s1
