13
gdb 131179	3.40131	1.23736	0.90862	5.0791	64.19	-0.2256	-0.0503	0.1754	1159.5088	0.088673	-489.89379	-489.885408	-489.884464	-489.926947	29.656	
O	 0.0705808656	 1.3610532305	 0.1686974809	-0.43207
C	 0.056841984	 0.0240987415	 0.0200906058	 0.409365
C	 0.0821450085	-0.7893779032	-1.0917367609	 0.029732
O	 0.0793299602	-0.3040090657	-2.3738187199	-0.455318
C	 0.0294902297	-2.113757716	-0.574033523	 0.161054
C	 0.0169854817	-3.3555399254	-1.3547146363	 0.101845
O	-0.0122912936	-4.4768858089	-0.908237728	-0.26305
N	-0.0111321155	-2.1042381473	 0.7662690839	-0.276473
N	-0.0041306046	-0.8021672794	 1.0926980116	-0.24732
H	 0.1182069792	 1.7491738716	-0.7141541793	 0.320407
H	 0.7358232844	-0.7725031038	-2.8994060727	 0.309782
H	 0.0316716097	-3.1789630108	-2.4562181208	 0.052078
H	-0.0368045694	-0.5292191432	 2.0618711287	 0.289968
106.7518	127.8029	171.2594	194.0059	243.2774	333.3778	344.314	356.1306	394.6947	531.5915	538.7617	686.918	690.5161	712.2242	785.0557	828.8646	1031.1626	1042.2658	1167.6976	1183.2793	1236.771	1298.0058	1398.1238	1403.0382	1452.1131	1484.9767	1573.1817	1679.4992	1809.5679	2845.6643	3656.7629	3797.881	3817.4906
OC1=C(O)C(C=O)=NN1	Oc1c(O)c(C=O)n[nH]1	
InChI=1S/C4H4N2O3/c7-1-2-3(8)4(9)6-5-2/h1,8H,(H2,5,6,9)	InChI=1S/C4H4N2O3/c7-1-2-3(8)4(9)6-5-2/h1,8H,(H2,5,6,9)
