18
gdb 32104	3.53011	1.12993	0.91116	3.2808	82.81	-0.2331	-0.013	0.2201	1299.7491	0.150016	-398.207818	-398.19936	-398.198416	-398.241253	31.848	
C	 0.1277280526	 1.5481858878	 0.1435274038	-0.369508
C	-0.0356418734	 0.0308571555	-0.0407768176	-0.268205
C	 0.7288434281	-0.4809165288	-1.2356262665	 0.342739
N	 0.308847953	-0.051539114	-2.4439502524	-0.321562
C	 0.997051034	-0.4998565628	-3.4873140894	 0.061603
N	 2.0459011016	-1.3214329899	-3.4887177986	-0.326251
C	 2.4608125539	-1.7411186156	-2.2847926185	 0.408655
N	 3.5634762619	-2.5498107591	-2.2653973149	-0.565525
C	 1.8114231425	-1.3336168687	-1.1065585088	-0.260457
H	 1.1716976871	 1.8101747725	 0.3439518996	 0.115308
H	-0.1859253081	 2.0722305852	-0.7625569744	 0.142857
H	-0.4790930686	 1.9045721249	 0.9811014555	 0.111572
H	 0.2876412926	-0.4994634835	 0.861167342	 0.095137
H	-1.096568558	-0.1983692603	-0.1935844329	 0.12035
H	 0.6629580739	-0.1614080276	-4.4666388432	 0.109594
H	 3.8265770527	-2.9467090944	-3.1536263455	 0.26123
H	 3.7359321811	-3.1156180243	-1.4517267327	 0.256526
H	 2.1484154532	-1.6738063469	-0.1331676256	 0.085935
46.9626	135.4232	204.5115	216.7181	290.6121	317.5665	379.0659	433.2054	468.354	495.1309	552.7823	579.7632	701.7904	789.4732	808.3375	814.4359	873.2139	940.5488	997.8939	1004.1827	1004.756	1062.9109	1081.8169	1094.4334	1193.2017	1261.6632	1301.862	1321.5283	1349.8393	1372.0463	1400.8976	1454.1966	1479.0721	1496.0501	1509.0834	1512.7366	1590.0033	1624.0992	1650.0705	3037.5033	3040.7528	3078.8997	3109.247	3130.052	3148.7181	3179.1819	3595.6713	3719.2953
CCC1=NC=NC(N)=C1	CCc1ncnc(N)c1	
InChI=1S/C6H9N3/c1-2-5-3-6(7)9-4-8-5/h3-4H,2H2,1H3,(H2,7,8,9)	InChI=1S/C6H9N3/c1-2-5-3-6(7)9-4-8-5/h3-4H,2H2,1H3,(H2,7,8,9)
