16
gdb 70776	3.78805	1.37306	1.14745	1.0992	77.09	-0.2404	0.0063	0.2467	1067.5954	0.122084	-400.604437	-400.596567	-400.595623	-400.636491	30.779	
C	 0.0596807044	 1.4061236546	-0.1533644422	-0.537751
C	 0.0092046964	-0.0770937853	-0.0207367045	 0.466586
O	 0.5264117461	-0.9264071882	-1.0924540389	-0.375916
C	 0.0647788597	-1.8978172648	-0.1049354768	 0.451175
C	 0.1854994751	-3.3000646791	-0.3335301602	 0.053616
C	 0.2686543467	-4.490215206	-0.4869766577	-0.380208
C	 0.4993864525	-1.0151980235	 1.1290347553	-0.181812
N	-0.842761648	-1.0001668536	 1.7862112065	-0.341521
C	-1.1790537753	-1.0294952913	 0.33035514	-0.181812
H	 1.0929008537	 1.7482530914	-0.2647079657	 0.137867
H	-0.5103050885	 1.7346008902	-1.0275570566	 0.137867
H	-0.3701071089	 1.8650135048	 0.7416654107	 0.14785
H	 0.346711441	-5.5395579773	-0.6322300993	 0.189689
H	 1.4487449201	-1.0193419958	 1.6654720994	 0.096966
H	-1.0388098386	-1.9078721932	 2.2144593765	 0.220438
H	-2.1939557065	-1.050372683	-0.0678933467	 0.096966
127.7203	134.9855	208.7703	242.7863	295.0966	393.005	472.3666	533.2717	545.9951	586.1185	616.1951	668.9853	691.4013	747.8368	771.895	808.9221	859.6089	871.0248	933.5207	979.0771	1034.8629	1049.932	1094.6191	1140.6606	1147.5932	1148.7612	1189.9034	1241.5894	1281.4422	1294.9431	1390.9579	1445.2381	1476.3413	1489.4164	2233.1501	3042.9773	3115.1739	3117.5888	3122.1346	3124.4131	3418.7718	3499.6952
CC12OC3(C#C)C1NC23	C[C@@]12O[C@@]3(C#C)[C@@H]1N[C@@H]23	
InChI=1S/C7H7NO/c1-3-7-4-6(2,9-7)5(7)8-4/h1,4-5,8H,2H3	InChI=1S/C7H7NO/c1-3-7-4-6(2,9-7)5(7)8-4/h1,4-5,8H,2H3/t4-,5+,6-,7+
