18
gdb 39748	3.17448	1.74859	1.55595	0.4713	74.42	-0.2331	0.0841	0.3172	920.608	0.149492	-401.880558	-401.873831	-401.872887	-401.911393	27.838	
C	 0.0402014478	 1.5404953111	 0.017114461	-0.328209
C	 1.3076961128	 0.7028245763	-0.0233587813	-0.36101
C	-0.0308444252	 0.0505792704	 0.0394081681	 0.408056
C	-0.5686090866	-0.9083703039	 1.1060486781	-0.040666
O	-1.8622071584	-0.5222855228	 1.5415511601	-0.258629
C	-2.6567998651	-0.4252281104	 0.3514098014	-0.099794
C	-1.9041510052	-1.2211811976	-0.7076026202	-0.062246
C	-0.766710939	-1.8987586012	-0.0678723557	-0.05888
N	-0.5106891001	-0.8038546446	-1.0786240935	-0.195282
H	-0.2018859155	 2.0774879567	 0.9283931469	 0.122503
H	-0.2564713938	 2.0397047764	-0.8994875228	 0.120315
H	 1.8419631103	 0.6444649728	-0.9654271462	 0.125084
H	 1.936769901	 0.6745940426	 0.8606312207	 0.114357
H	 0.0428577272	-1.1605540181	 1.9715147695	 0.0875
H	-3.6426697527	-0.8604803406	 0.5490262797	 0.110548
H	-2.7907086143	 0.6251794267	 0.0639543956	 0.111331
H	-2.4464130502	-1.6730171572	-1.5300243761	 0.105465
H	-0.4363798431	-2.9218527966	-0.1917405455	 0.099556
149.9868	216.3381	258.1964	303.2745	453.7986	490.0877	594.0502	681.0595	744.0342	763.8161	790.7437	800.8886	857.7889	878.4123	909.777	913.9798	946.2219	963.7833	984.2554	994.9474	1038.888	1045.7451	1068.6665	1073.339	1078.7232	1111.0107	1167.2447	1186.6137	1212.1181	1222.4097	1257.7376	1266.8352	1303.5587	1350.6113	1378.5711	1403.0514	1453.8718	1499.6646	1511.2297	3023.0868	3065.8927	3127.6415	3129.2294	3130.2166	3184.4277	3200.5879	3209.7747	3223.2336
C1CC11C2OCC3C2N13	C1CC21[C@H]1OC[C@@H]3[C@H]1N23	
InChI=1S/C7H9NO/c1-2-7(1)6-5-4(3-9-6)8(5)7/h4-6H,1-3H2	InChI=1S/C7H9NO/c1-2-7(1)6-5-4(3-9-6)8(5)7/h4-6H,1-3H2/t4-,5-,6+,8?/m1/s1
