20
gdb 61868	1.72677	1.40643	0.92506	4.2129	77.04	-0.243	-0.014	0.229	1353.6333	0.167488	-440.337526	-440.32662	-440.325676	-440.375262	37.369	
C	 0.0290141157	 1.8910998643	 0.3681920043	-0.405876
C	-0.043485655	 0.415770812	-0.0297670327	 0.03067
C	 0.7690643426	-0.4729477582	 0.9434138802	-0.263846
C	 0.7961857115	-1.9312109697	 0.5314079777	 0.166554
O	 0.3189230239	-2.8207061952	 1.1895887015	-0.254643
N	-1.4342913579	-0.0097160253	-0.1156676151	-0.308871
C	-1.8444749595	-0.9630592635	-1.0063665346	 0.423131
C	-3.2981879449	-1.3850824994	-0.8845108088	-0.490987
O	-1.0868797015	-1.4459401714	-1.8315249977	-0.38305
H	 1.0670060869	 2.2344175465	 0.3890681633	 0.127113
H	-0.5259762928	 2.5096605981	-0.3423467119	 0.129164
H	-0.3925419646	 2.0531650255	 1.3675839367	 0.116789
H	 0.3628212125	 0.2847424862	-1.0368746126	 0.124885
H	 1.8041084356	-0.104730348	 0.9603514631	 0.114006
H	 0.3602875398	-0.4080767103	 1.9574083462	 0.107932
H	 1.2963283731	-2.1338963755	-0.4388176408	 0.093965
H	-2.0674231072	 0.2858709114	 0.6105322036	 0.242405
H	-3.9288254421	-0.6241178814	-0.4167069127	 0.116307
H	-3.6804026005	-1.6171308832	-1.8795303611	 0.153644
H	-3.3520259256	-2.2983701527	-0.2828647885	 0.160705
35.7683	51.9617	65.0253	99.4002	113.2583	186.5476	232.5832	258.012	303.4925	404.1255	430.3872	452.3483	469.8683	520.875	604.2865	639.9267	790.627	895.2745	917.4143	966.508	975.7518	1008.4303	1030.401	1052.0466	1111.63	1150.1142	1169.2578	1227.9218	1266.5305	1284.0973	1351.8611	1388.8274	1397.8652	1412.1272	1430.6906	1458.0602	1468.304	1485.7542	1492.5797	1498.2447	1528.865	1767.8273	1825.7162	2915.6018	3019.3281	3031.5433	3046.9419	3073.059	3088.8432	3105.2077	3115.299	3122.3821	3148.9633	3631.1601
CC(CC=O)NC(C)=O	C[C@@H](CC=O)NC(=O)C	
InChI=1S/C6H11NO2/c1-5(3-4-8)7-6(2)9/h4-5H,3H2,1-2H3,(H,7,9)	InChI=1S/C6H11NO2/c1-5(3-4-8)7-6(2)9/h4-5H,3H2,1-2H3,(H,7,9)/t5-/m0/s1
