25
gdb 106768	1.91594	1.54557	1.09036	0.306	93.4	-0.2342	0.0853	0.3194	1298.229	0.228009	-352.346043	-352.335909	-352.334965	-352.380671	39.178	
C	 0.3589884239	-1.4556960654	 1.1409708949	-0.39612
C	-0.0487926883	-0.5143741818	 0.0019513713	-0.288525
C	 0.6618053591	-0.7075896082	-1.317554015	 0.320203
C	 2.0951183855	-1.1574262512	-1.4627982514	-0.383452
C	 1.0191416269	-1.9429396717	-2.1704779434	 0.322855
C	 0.8084102405	-3.4184453135	-1.9736779879	-0.500761
C	 0.6423288299	-1.1884997627	-3.4501183764	-0.297042
C	 0.2873681509	 0.0748227802	-2.5986895916	-0.020353
C	-1.1678249329	 0.5130050832	-2.7190227008	-0.413383
H	 0.1844494335	-2.5045533615	 0.8820701339	 0.121382
H	 1.4162079287	-1.3444734449	 1.4004059152	 0.118744
H	-0.2244829102	-1.2376266721	 2.0408556233	 0.111557
H	-1.1311597264	-0.6024651193	-0.1575712559	 0.097265
H	 0.1159578805	 0.5232295149	 0.328601252	 0.097359
H	 2.8082023198	-0.5565966039	-2.0268423452	 0.091885
H	 2.5272474009	-1.6500664848	-0.5972608958	 0.102604
H	 1.0553121008	-3.7341538465	-0.9556108352	 0.117767
H	-0.2299703621	-3.7083858583	-2.1737824802	 0.111189
H	 1.4454911381	-3.9947503434	-2.6570553812	 0.116167
H	 1.4363654179	-1.0820451554	-4.1984030242	 0.085739
H	-0.2439156004	-1.6011647823	-3.9428622732	 0.091483
H	 0.9408751567	 0.9379555357	-2.7811902123	 0.057714
H	-1.8532950817	-0.3254101866	-2.5498462657	 0.111995
H	-1.4174844994	 1.2990821615	-1.9980619669	 0.112435
H	-1.3675270223	 0.9060166782	-3.7220244784	 0.111292
55.9596	119.2544	160.7571	202.3408	223.3754	249.35	268.4473	302.4351	332.322	383.7197	442.1559	448.716	481.5322	592.0077	645.5066	719.9992	791.7803	822.7834	855.9083	888.1866	926.2014	955.8977	972.6378	1005.6554	1020.8936	1050.437	1064.3771	1069.7174	1091.9957	1122.3194	1134.5945	1188.6502	1200.9656	1235.4622	1248.7753	1256.8577	1305.9314	1317.6819	1361.8198	1383.0384	1393.994	1407.274	1409.8723	1423.2809	1482.0568	1484.746	1488.392	1495.2397	1499.4066	1501.3482	1502.5433	1510.5465	1516.208	2996.4882	3009.4971	3015.2922	3022.6332	3028.969	3033.9021	3039.6976	3068.7254	3078.3107	3086.7864	3091.1014	3093.2862	3099.4753	3105.215	3111.8259	3187.6195
CCC12CC1(C)CC2C	CC[C@@]12C[C@]1(C)C[C@H]2C	
InChI=1S/C9H16/c1-4-9-6-8(9,3)5-7(9)2/h7H,4-6H2,1-3H3	InChI=1S/C9H16/c1-4-9-6-8(9,3)5-7(9)2/h7H,4-6H2,1-3H3/t7-,8+,9+/m1/s1
