17
gdb 34029	3.44305	1.31251	1.09952	2.2671	74.73	-0.2566	0.0192	0.2757	1108.7158	0.135648	-421.773938	-421.766067	-421.765123	-421.806191	30.56	
C	 0.0030892141	-1.1955239298	 0.0959603886	-0.383749
C	 0.0228460935	 0.0055031414	 0.0476680818	 0.24428
C	 0.0174287885	 1.4447644325	-0.0376396255	 0.198177
C	-1.1860678537	 2.0965830927	-0.7184132339	-0.300698
C	-0.7533282421	 3.2670473608	-1.6071030588	-0.083385
O	 0.1445147199	 4.1333297246	-0.9371613526	-0.235381
C	 1.3986259881	 3.52917127	-0.7137581459	-0.11976
C	 1.3006578774	 2.1909264506	-0.0133746374	-0.019694
O	 0.4823686529	 2.1327193149	 1.1449313835	-0.271347
H	-0.0074493806	-2.2562098818	 0.1501393269	 0.197146
H	-1.7203714231	 1.3548155703	-1.3188676333	 0.114934
H	-1.866937854	 2.4448757283	 0.0647107161	 0.132376
H	-0.2881566681	 2.883897759	-2.5311639634	 0.090845
H	-1.6153806584	 3.8757422277	-1.8924218555	 0.114629
H	 1.9405598483	 3.3790137236	-1.6646187654	 0.094438
H	 1.9767051637	 4.2293377511	-0.1015938626	 0.125322
H	 2.2313244438	 1.625393894	 0.0471639274	 0.101867
107.5631	142.021	185.754	284.2963	357.3118	381.3721	394.5944	491.256	522.8659	587.2448	621.758	654.1528	663.8082	727.2273	805.7698	857.8423	903.3669	940.7035	963.1098	1021.7849	1037.2122	1097.9323	1126.0652	1162.7164	1191.6671	1259.1331	1270.4409	1301.4429	1319.5822	1366.9615	1384.6084	1419.2502	1449.2403	1467.8773	1479.5162	1499.811	2238.5414	2953.3235	2965.388	3055.3922	3074.5508	3092.5993	3105.4798	3109.019	3501.1829
C#CC12CCOCC1O2	C#C[C@]12CCOC[C@H]1O2	
InChI=1S/C7H8O2/c1-2-7-3-4-8-5-6(7)9-7/h1,6H,3-5H2	InChI=1S/C7H8O2/c1-2-7-3-4-8-5-6(7)9-7/h1,6H,3-5H2/t6-,7+/m1/s1
