18
gdb 65412	3.72618	0.85788	0.7764	1.1637	86.25	-0.2398	0.0311	0.2709	1487.8207	0.144203	-364.72119	-364.711275	-364.71033	-364.756182	36.592	
C	 0.0714071264	 1.5244369872	-0.2048835036	-0.4565
C	-0.025333058	 0.0308868535	 0.0519844242	 0.123041
N	 1.2612347217	-0.7142655645	 0.0429339143	-0.354649
C	 0.5116811173	-0.6217380297	 1.2948615793	-0.040901
C	 1.151471371	 0.1499257223	 2.4411110929	-0.364602
C	 1.9716937223	-0.7143388736	 3.2838873459	 0.297998
C	 2.6319524134	-1.4492618073	 3.967947371	-0.440351
C	-1.1672212992	-0.6109033158	-0.5544983285	 0.274923
C	-2.1125827979	-1.1347367647	-1.0833000083	-0.447245
H	 0.9903515207	 1.9340611179	 0.217102864	 0.130039
H	 0.0797659261	 1.7172069498	-1.2815619089	 0.133155
H	-0.7866470714	 2.0487760137	 0.2267149118	 0.127167
H	 1.1359466696	-1.6269257711	-0.3869358634	 0.241364
H	-0.0292627093	-1.507792534	 1.619150828	 0.10544
H	 1.7671702107	 0.9605993822	 2.0401867275	 0.14092
H	 0.3636553193	 0.6143549177	 3.0486245753	 0.135304
H	 3.2256480569	-2.0876896472	 4.5738743538	 0.196456
H	-2.9491309997	-1.6002929265	-1.5428317554	 0.198443
49.6102	94.3026	143.8911	170.0763	183.2822	232.8863	319.3372	334.6926	388.9222	425.8971	470.9218	553.9293	588.0406	607.9407	617.8481	643.3513	654.3988	684.4839	824.2072	855.6344	935.0434	960.4342	991.4672	1030.6891	1082.7825	1094.3509	1108.2767	1201.5871	1261.8356	1288.7736	1319.5611	1331.0325	1415.3445	1446.1268	1458.9865	1485.3699	1498.9556	2230.8263	2240.3497	3026.929	3047.1832	3084.2738	3112.8592	3138.109	3140.9901	3501.8786	3507.1691	3512.8147
CC1(NC1CC#C)C#C	C[C@]1(N[C@H]1CC#C)C#C	
InChI=1S/C8H9N/c1-4-6-7-8(3,5-2)9-7/h1-2,7,9H,6H2,3H3	InChI=1S/C8H9N/c1-4-6-7-8(3,5-2)9-7/h1-2,7,9H,6H2,3H3/t7-,8-/m0/s1
