16
gdb 13255	7.99679	0.84104	0.80114	1.5903	62.04	-0.2572	-0.035	0.2222	1357.841	0.12784	-420.840763	-420.832281	-420.831337	-420.875752	28.006	
O	-0.0973148759	 0.0678063588	 0.4728782038	-0.233968
C	 0.0455247029	 1.1481507174	-0.0327708047	 0.139897
C	 1.4025942956	 1.7867797509	-0.2781374093	-0.158149
O	 1.1972985836	 3.0085393436	-0.9460193932	-0.252691
C	 2.370369474	 3.7471218125	-1.1593268546	 0.093923
C	 3.2630556758	 3.3614262598	-2.36539895	-0.094167
O	 3.1096061685	 4.6776852363	-2.9336156688	-0.26968
C	 2.134017654	 5.0491775142	-1.9377235226	-0.099458
H	-0.8093109538	 1.778697871	-0.361897072	 0.100493
H	 1.9045481635	 1.9316525847	 0.6937800179	 0.12622
H	 2.0229146522	 1.087675989	-0.8613815454	 0.129031
H	 2.925347627	 3.869968637	-0.2191785707	 0.082342
H	 4.3124490318	 3.121188686	-2.1614904383	 0.107318
H	 2.8200265234	 2.580051127	-2.9976369242	 0.104893
H	 1.1182487464	 5.1144274575	-2.347281631	 0.114201
H	 2.391646931	 5.9871268945	-1.434708407	 0.109796
45.5383	58.8395	80.7023	101.0118	158.217	313.2503	361.1737	450.9887	559.4648	740.8734	745.9943	873.0093	889.8763	984.6414	1020.2435	1036.1449	1059.1195	1080.8812	1113.2097	1142.7848	1157.7249	1170.1863	1215.1896	1238.1928	1275.47	1303.3069	1337.5599	1360.2521	1400.4656	1425.3007	1483.5505	1498.0626	1525.8447	1846.9212	2903.105	2966.0096	3001.22	3007.6927	3009.5636	3026.3402	3068.1125	3079.2806
O=CCOC1COC1	O=CCOC1COC1	
InChI=1S/C5H8O3/c6-1-2-8-5-3-7-4-5/h1,5H,2-4H2	InChI=1S/C5H8O3/c6-1-2-8-5-3-7-4-5/h1,5H,2-4H2
