25
gdb 122433	4.29489	0.58337	0.55979	1.3936	90.74	-0.2564	0.081	0.3373	2088.9896	0.226639	-389.484279	-389.472943	-389.471999	-389.521306	41.245	
C	 0.0526879657	 1.5255594966	-0.2111906377	-0.452729
C	 0.0069433198	 0.0217312015	-0.0103468171	 0.33011
C	-1.195242157	-0.6375035431	-0.6624894673	-0.446309
C	 1.308354259	-0.7509232835	-0.0065150525	-0.326054
C	 0.5156713995	-0.600146844	 1.2748826493	-0.015539
C	 1.0597788978	 0.1871923267	 2.4503359353	-0.227707
C	 1.9633680877	-0.6637291269	 3.3521433116	-0.154027
C	 2.5158081321	 0.1111469781	 4.5405657053	-0.075878
O	 3.3259888819	-0.7709363086	 5.3040103456	-0.422207
H	 0.9494612207	 1.9782350346	 0.218837044	 0.113012
H	 0.0446499228	 1.7685133701	-1.280426607	 0.112197
H	-0.8186262993	 2.0137036088	 0.2422565212	 0.111351
H	-1.203606789	-0.4604022805	-1.744922372	 0.110942
H	-1.1942033092	-1.7203426518	-0.5029149205	 0.110398
H	-2.1338225239	-0.2411886008	-0.2561158832	 0.110912
H	 1.3432708855	-1.7207488905	-0.4925213496	 0.103241
H	 2.2308040517	-0.1830619045	-0.0901716051	 0.101569
H	-0.0296107696	-1.4914709146	 1.5818810934	 0.074645
H	 1.6242743867	 1.0569171372	 2.0938464334	 0.092224
H	 0.2258868972	 0.5875739471	 3.0443779616	 0.092871
H	 1.4085843572	-1.5308173569	 3.73124887	 0.102587
H	 2.8032445408	-1.061781597	 2.7706545591	 0.108188
H	 3.0980789576	 0.9764665365	 4.1819528784	 0.081024
H	 1.6835567563	 0.5099675128	 5.1444462244	 0.081335
H	 3.675929488	-0.2831161873	 6.0550192294	 0.283846
50.093	73.9358	89.9791	135.2081	181.7801	203.91	222.2096	254.778	266.2175	272.1332	362.1152	390.0125	410.1878	469.8986	517.1329	695.0544	758.88	823.9731	853.2149	889.2813	918.9725	951.5412	970.6732	1004.7006	1020.117	1042.3773	1053.5588	1059.6255	1080.6636	1110.842	1143.216	1159.3174	1185.8965	1219.6282	1231.9611	1278.85	1306.2143	1306.784	1317.8589	1339.0101	1376.1673	1411.3567	1424.7269	1429.8056	1461.5609	1477.8133	1484.4004	1493.6545	1494.5295	1499.6557	1502.2755	1515.9093	1528.0473	2953.4227	2977.8412	3005.7221	3016.1893	3023.3058	3032.8894	3050.88	3073.503	3076.9591	3079.4853	3096.1101	3111.0823	3114.9107	3118.4471	3200.4707	3830.0425
CC1(C)CC1CCCO	CC1(C)C[C@H]1CCCO	
InChI=1S/C8H16O/c1-8(2)6-7(8)4-3-5-9/h7,9H,3-6H2,1-2H3	InChI=1S/C8H16O/c1-8(2)6-7(8)4-3-5-9/h7,9H,3-6H2,1-2H3/t7-/m1/s1
