23
gdb 93961	3.34105	0.96746	0.86356	1.3909	85.54	-0.2571	0.076	0.3331	1444.9406	0.207088	-388.292052	-388.282897	-388.281953	-388.326618	35.183	
O	-0.8062559062	 1.128739428	 0.8387584953	-0.440698
C	 0.0344494452	 0.2098837095	 0.1401387633	 0.118521
C	 0.8426884603	-0.6903149823	 1.1081695408	-0.236498
C	-0.0075466756	-1.9751071205	 1.3132992538	-0.215999
C	-1.3244038259	-1.7441090523	 0.529673932	 0.043989
C	-0.8966506437	-0.7653579231	-0.5812755548	-0.215892
C	-1.986809371	-3.0091721886	 0.0399966445	 0.017498
C	-2.9120176977	-3.7933114457	 0.9379771066	-0.275375
C	-3.4671483852	-3.0436519932	-0.2482429464	-0.27621
H	-0.246133166	 1.6710441735	 1.4025703485	 0.278131
H	 0.6897984826	 0.7560972325	-0.5534048274	 0.05417
H	 1.8200386506	-0.9300754343	 0.6769663886	 0.096454
H	 1.0357587343	-0.1593473225	 2.0463912769	 0.086407
H	 0.5163008586	-2.8438486452	 0.8983165195	 0.093252
H	-0.1920800953	-2.1968780133	 2.3675793798	 0.097475
H	-2.0273132596	-1.2104146301	 1.1806768006	 0.078204
H	-1.7334904453	-0.2500607455	-1.0589010926	 0.105325
H	-0.3360663719	-1.3000519487	-1.3590090739	 0.086535
H	-1.3642289909	-3.6042136075	-0.6264233446	 0.07198
H	-2.8820436003	-4.8765728963	 0.8957291957	 0.106562
H	-3.1141208844	-3.3943733184	 1.9268804517	 0.108029
H	-4.0405447201	-2.1428987666	-0.0538280805	 0.111346
H	-3.8162019524	-3.6148353994	-1.1014751073	 0.106794
50.4234	86.3162	111.7283	163.0062	284.7831	302.8088	339.9889	392.891	426.1481	446.0307	571.4365	741.1226	778.6063	780.8	827.4797	839.247	860.3851	900.3093	909.3921	931.5414	952.253	982.7126	1001.5368	1027.7062	1058.3146	1068.4508	1077.4563	1094.1834	1137.6377	1141.6348	1197.4491	1198.6786	1205.5118	1225.0367	1235.309	1270.4893	1278.7887	1300.1019	1315.3823	1345.1558	1356.6331	1365.1903	1419.7564	1429.9464	1470.5135	1474.2618	1480.0787	1503.8229	1507.6339	2990.3045	3026.8129	3034.3181	3038.6435	3047.4662	3075.7728	3097.1692	3105.3729	3115.3503	3127.3338	3132.649	3204.6748	3219.8607	3819.4845
OC1CCC(C1)C1CC1	O[C@H]1CC[C@@H](C1)C1CC1	
InChI=1S/C8H14O/c9-8-4-3-7(5-8)6-1-2-6/h6-9H,1-5H2	InChI=1S/C8H14O/c9-8-4-3-7(5-8)6-1-2-6/h6-9H,1-5H2/t7-,8-/m0/s1
