14
gdb 15282	5.07896	1.12455	0.98831	4.4827	68.6	-0.2697	0.0082	0.2779	1125.9878	0.106349	-341.53227	-341.524338	-341.523394	-341.565165	28.355	
C	 0.0682097999	-1.1698429742	-0.3274796943	-0.429132
C	 0.0168373956	-0.0029049052	-0.0466690546	 0.291537
C	-0.0100547815	 1.412625128	 0.3032263914	-0.362893
C	 1.3694768307	 2.0429341043	 0.2064303246	-0.001451
N	 1.7556272734	 2.5865174532	-1.0895885168	-0.300104
C	 1.558516865	 3.5197884848	 0.0387309363	-0.204352
C	 0.4359634631	 4.4227534524	-0.0534024264	 0.332148
N	-0.4630780872	 5.1486370134	-0.0917246865	-0.332385
H	 0.095788092	-2.2000931019	-0.5832994014	 0.200929
H	-0.6945849469	 1.9553072041	-0.3575051305	 0.161733
H	-0.3900205842	 1.5371001318	 1.3253396027	 0.143791
H	 2.1352722364	 1.5466873394	 0.7993260624	 0.11382
H	 2.7489192481	 2.4669497315	-1.2684868957	 0.250549
H	 2.4327027255	 3.9600376484	 0.5107785387	 0.13581
60.223	92.6033	159.1199	226.5409	334.8224	342.6524	376.7735	499.1738	573.3812	617.4376	624.5373	654.6138	802.7128	838.9913	879.7452	930.4115	969.7635	997.9317	1016.8322	1108.458	1183.751	1210.3863	1245.5939	1272.067	1325.5491	1400.0118	1455.7683	1460.9434	2243.3337	2360.0272	3031.73	3078.9632	3133.3175	3150.5906	3505.9632	3516.9541
C#CCC1NC1C#N	C#CC[C@H]1N[C@H]1C#N	
InChI=1S/C6H6N2/c1-2-3-5-6(4-7)8-5/h1,5-6,8H,3H2	InChI=1S/C6H6N2/c1-2-3-5-6(4-7)8-5/h1,5-6,8H,3H2/t5-,6+/m1/s1
