21
gdb 63553	2.45876	1.45302	1.12297	2.8363	84.99	-0.233	-0.0167	0.2164	1184.6842	0.180555	-387.102108	-387.092678	-387.091733	-387.135992	35.867	
C	-0.0185382198	 1.5045110863	-0.102780988	-0.449484
C	 0.0185279847	-0.0104407509	-0.0496286262	 0.27895
C	-1.1892789471	-0.7018587526	-0.6538644718	-0.464116
C	 1.3508322163	-0.6846309192	-0.1491985442	-0.376693
C	 0.648371459	-0.6389866892	 1.1960948743	 0.200879
C	 1.0914322535	 0.0237371228	 2.5147295825	-0.330853
C	 0.5387083531	-1.2107568674	 3.2993713278	-0.339085
C	 0.1482130431	-1.8386873756	 1.9461314562	 0.35087
O	-0.3411236402	-2.8871743512	 1.6211494995	-0.32511
H	 0.8757524882	 1.9513873547	 0.3410063809	 0.117115
H	-0.0836952551	 1.8472189307	-1.1419353341	 0.121802
H	-0.8921852444	 1.8979697759	 0.4294476501	 0.118561
H	-1.2504207281	-0.4907708972	-1.7279500166	 0.112609
H	-1.1414607338	-1.783521381	-0.5118886884	 0.151108
H	-2.1166699969	-0.3440647075	-0.1922776714	 0.113706
H	 1.4073477666	-1.6579949041	-0.6272883547	 0.128136
H	 2.239775293	-0.0698199469	-0.2548321615	 0.114508
H	 2.1699373502	 0.1677558817	 2.6125353649	 0.10867
H	 0.5895591224	 0.9656217491	 2.7477718851	 0.108531
H	 1.2747050641	-1.791926901	 3.8614098737	 0.130147
H	-0.3153493787	-1.0097863674	 3.9524334019	 0.12975
78.5631	118.7262	164.0825	194.7312	220.1176	254.5355	302.8058	349.9889	381.9752	417.3237	493.8422	525.3676	607.4987	679.1603	721.9591	762.2938	838.7349	887.1538	925.0982	929.1069	974.9709	998.2811	1026.9976	1038.2384	1052.8889	1069.3005	1099.1485	1145.6262	1167.6559	1189.7589	1212.2568	1225.496	1267.6201	1301.3712	1390.7777	1411.334	1426.9706	1439.7817	1473.5836	1482.4148	1490.7188	1494.5023	1504.1195	1514.2621	1862.4165	3023.7934	3028.6013	3061.4274	3068.2771	3082.7199	3086.1524	3105.3078	3106.9803	3117.0318	3123.186	3130.9989	3206.4864
CC1(C)CC11CCC1=O	CC1(C)C[C@]21CCC2=O	
InChI=1S/C8H12O/c1-7(2)5-8(7)4-3-6(8)9/h3-5H2,1-2H3	InChI=1S/C8H12O/c1-7(2)5-8(7)4-3-6(8)9/h3-5H2,1-2H3/t8-/m1/s1
