22
gdb 115152	3.08194	1.09652	0.89112	3.7841	82.03	-0.2332	0.036	0.2692	1372.0139	0.195204	-404.408675	-404.399074	-404.39813	-404.443155	35.85	
C	-0.0032000974	 1.6510413834	-0.0139273497	-0.389235
C	-0.0648095561	 0.1190710538	-0.0170897845	-0.198263
C	 0.7140904554	-0.5170927987	-1.1706461098	 0.027351
C	 2.2396339184	-0.2473835474	-1.1416669161	-0.1791
N	 2.766238114	-1.3522712153	-1.9202932686	-0.307512
C	 1.9325431279	-2.4334834953	-2.0215846604	 0.4095
O	 2.2037416542	-3.4957554716	-2.5391335557	-0.392439
C	 0.6209834597	-2.0581885629	-1.3131212298	-0.13829
C	 0.5268840766	-2.857707866	-0.0030674836	-0.399859
H	 1.0220616088	 2.0150141451	 0.1123838976	 0.119206
H	-0.3880847456	 2.0648583702	-0.9527219824	 0.117135
H	-0.6010481764	 2.0666857697	 0.802676061	 0.116428
H	 0.3116624627	-0.2620662717	 0.9397517963	 0.1015
H	-1.1128707602	-0.1990018207	-0.0813249653	 0.101002
H	 0.3391941347	-0.0882481899	-2.1092561029	 0.083096
H	 2.4997766695	 0.7163021893	-1.5903215121	 0.112124
H	 2.6270249937	-0.2498105492	-0.1107796746	 0.101218
H	 3.7328318914	-1.4319690877	-2.1943007972	 0.247808
H	-0.2158836741	-2.3466528496	-1.9553735267	 0.095764
H	 1.3402511262	-2.6073300856	 0.6869481164	 0.116182
H	-0.4203878863	-2.6724956959	 0.5107583088	 0.116152
H	 0.5968706629	-3.9255026341	-0.2261465307	 0.140232
69.0095	99.4517	162.7607	173.5143	227.1868	243.4026	266.1897	293.6231	348.0254	451.6636	500.3503	521.8771	640.8556	690.8627	735.2232	774.3224	799.6197	828.8604	937.269	955.6085	988.0209	1031.9822	1055.0488	1067.4568	1085.0068	1111.5321	1158.9387	1172.6575	1217.7647	1258.3805	1277.0332	1296.2636	1317.4816	1340.1543	1346.7934	1370.9835	1394.938	1406.147	1412.2021	1447.6767	1485.6837	1498.1574	1501.1415	1502.4277	1507.8871	1533.7565	1826.157	2978.0148	3014.2848	3025.1503	3031.5486	3037.3298	3059.2662	3066.4108	3070.4598	3098.7042	3105.1137	3106.4422	3122.803	3637.5954
CCC1CNC(=O)C1C	CC[C@H]1CNC(=O)[C@H]1C	
InChI=1S/C7H13NO/c1-3-6-4-8-7(9)5(6)2/h5-6H,3-4H2,1-2H3,(H,8,9)	InChI=1S/C7H13NO/c1-3-6-4-8-7(9)5(6)2/h5-6H,3-4H2,1-2H3,(H,8,9)/t5-,6-/m0/s1
