18
gdb 77164	2.9654	1.20576	0.98998	3.4239	72.	-0.2557	0.0024	0.2581	1231.0936	0.147801	-439.087238	-439.078659	-439.077715	-439.121034	31.241	
C	-0.388751182	 1.3376834495	 0.1295923834	-0.414201
C	 0.0820288718	-0.1086521674	 0.049073561	-0.20396
C	 0.920532686	-0.5745472015	-1.1682153551	 0.087678
O	 2.0315070624	-0.9226255368	-0.2686500183	-0.266132
C	 1.3428681821	-0.4675795706	 0.8365953581	 0.450888
O	 1.7338742936	-0.4126755066	 1.956520002	-0.317353
C	 0.4393616671	-1.7525891111	-1.9692530686	-0.012143
C	 1.3867951043	-2.7901481336	-2.4392517349	-0.240656
N	 0.3999128547	-3.0981387816	-1.3842518187	-0.322356
H	 0.4187633077	 2.0338640843	-0.1176432682	 0.131122
H	-1.2186312923	 1.5167134381	-0.560482098	 0.129702
H	-0.7328200097	 1.5677325963	 1.1416970728	 0.146361
H	-0.7323426377	-0.8030521103	 0.2781856223	 0.127505
H	 1.2293516473	 0.2470080989	-1.8233405754	 0.103298
H	-0.4239186737	-1.5148372796	-2.5895691875	 0.101997
H	 1.2171683343	-3.2883085815	-3.3890285629	 0.123807
H	 2.4275337382	-2.6872467547	-2.1467570203	 0.133091
H	 0.8812754756	-3.0882658119	-0.4868020716	 0.241352
80.4478	85.3638	159.4016	203.8566	212.4761	237.7929	314.0707	392.725	518.3228	608.0011	693.0239	732.0922	795.8846	838.6673	854.8535	886.4355	915.8103	965.0523	1000.7859	1055.661	1069.107	1110.5394	1120.3332	1125.2212	1138.994	1149.1553	1191.2722	1236.1002	1258.821	1283.754	1305.4684	1340.0796	1380.312	1412.9887	1425.1131	1496.0277	1496.5683	1507.3873	1939.8405	3041.5456	3055.7619	3071.2409	3113.1655	3116.6893	3120.3873	3120.739	3208.4797	3491.2919
CC1C(OC1=O)C1CN1	C[C@H]1[C@@H](OC1=O)[C@H]1CN1	
InChI=1S/C6H9NO2/c1-3-5(4-2-7-4)9-6(3)8/h3-5,7H,2H2,1H3	InChI=1S/C6H9NO2/c1-3-5(4-2-7-4)9-6(3)8/h3-5,7H,2H2,1H3/t3-,4+,5+/m0/s1
