17
gdb 35797	3.75606	1.21564	1.0162	4.6426	72.94	-0.2277	0.0133	0.241	1149.5945	0.137879	-417.981873	-417.974224	-417.97328	-418.014145	29.539	
N	 0.0046385513	-1.1499117963	-0.0522352663	-0.313182
C	 0.0256068227	 0.0046617085	-0.0310947557	 0.281539
C	-0.0235837456	 1.4691274902	 0.0200049602	-0.022506
C	-0.8355810725	 1.9638269062	 1.2381912909	-0.193834
N	-0.9290959808	 3.4211320007	 1.2583133986	-0.304174
C	 0.2950580917	 4.0958277424	 0.8747680965	-0.005483
C	 1.5905676596	 3.8870208143	 1.611928294	-0.311737
C	 1.4230319901	 3.3412380172	 0.2089372127	 0.074361
O	 1.3145092448	 1.942140978	 0.0899900184	-0.263803
H	-0.513571006	 1.8258352224	-0.9011802102	 0.110478
H	-1.843955613	 1.5430330607	 1.2219851322	 0.128912
H	-0.3386824419	 1.6026615806	 2.1450845985	 0.137105
H	-1.6574084492	 3.7064272099	 0.6115377732	 0.226786
H	 0.1032379324	 5.1035135713	 0.52196316	 0.104287
H	 2.2313722436	 4.7474281272	 1.7686468156	 0.119745
H	 1.6269957253	 3.1448976417	 2.4014214147	 0.130647
H	 1.9776827876	 3.7809553649	-0.6160792934	 0.100858
88.5821	153.1179	178.0917	298.6623	349.9369	392.3957	464.5774	487.2669	542.1106	556.104	688.2427	755.3096	778.5732	790.1761	849.7204	917.7167	977.6474	1000.7584	1025.9812	1050.7323	1057.581	1073.2952	1111.6852	1117.4612	1169.2406	1180.7904	1249.7923	1260.7944	1299.5484	1342.4904	1370.7324	1384.4615	1417.2345	1470.1098	1482.5198	1506.9925	2365.5936	2969.993	3052.4313	3110.741	3132.0106	3140.1001	3165.6949	3229.8004	3515.0163
N#CC1CNC2CC2O1	N#C[C@H]1CN[C@H]2C[C@H]2O1	
InChI=1S/C6H8N2O/c7-2-4-3-8-5-1-6(5)9-4/h4-6,8H,1,3H2	InChI=1S/C6H8N2O/c7-2-4-3-8-5-1-6(5)9-4/h4-6,8H,1,3H2/t4-,5-,6+/m0/s1
