15
gdb 76017	2.59201	1.24524	1.07421	1.98	72.27	-0.2986	-0.0197	0.2789	1148.1173	0.110916	-416.817182	-416.808036	-416.807092	-416.851038	32.592	
C	-0.1018157792	 1.5582138889	 0.0628481835	-0.419463
C	 0.0104379174	 0.0524682515	 0.0385517287	-0.063521
C	 1.3337966945	-0.654146213	-0.2327399048	-0.278087
C	 2.5515415994	 0.0896457146	-0.3695766115	 0.304385
N	 3.5437739163	 0.6763007045	-0.4668076606	-0.327396
C	 0.683993136	-0.680565173	 1.1721327193	 0.237396
O	 1.2243482485	 0.1106974336	 2.1699213849	-0.430578
C	 0.1471699451	-1.9548554904	 1.6051409285	 0.260727
N	-0.2674104702	-2.9772086495	 1.9513920311	-0.328661
H	 0.7758719451	 2.0194646165	 0.5163945816	 0.16149
H	-0.2094969902	 1.9409302725	-0.9561762456	 0.138753
H	-0.9826820497	 1.8598980385	 0.6366203531	 0.141235
H	-0.8401257032	-0.47005043	-0.3875582015	 0.131736
H	 1.2984059024	-1.5755907529	-0.8034336644	 0.159521
H	 2.0597258478	-0.2717731518	 2.4660693477	 0.312462
104.6117	120.707	154.4933	167.9129	174.6498	252.9044	306.2277	351.7529	383.8575	455.7533	499.0453	574.1794	604.122	639.7025	712.1861	797.7325	838.4795	968.2431	1016.5115	1030.2515	1058.8851	1126.311	1150.9978	1219.9446	1260.2923	1349.0462	1358.1398	1423.0642	1429.0112	1490.6447	1499.0533	2351.341	2356.1788	3053.7594	3117.9435	3151.0588	3170.2375	3180.5744	3786.7479
CC1C(C#N)C1(O)C#N	C[C@H]1[C@@H](C#N)[C@]1(O)C#N	
InChI=1S/C6H6N2O/c1-4-5(2-7)6(4,9)3-8/h4-5,9H,1H3	InChI=1S/C6H6N2O/c1-4-5(2-7)6(4,9)3-8/h4-5,9H,1H3/t4-,5+,6-/m0/s1
