13
gdb 25403	2.86659	1.5639	1.01187	4.8814	72.86	-0.247	-0.1057	0.1413	1067.4772	0.089334	-452.762764	-452.755335	-452.754391	-452.795523	26.672	
N	-0.1027791185	 1.2200054417	 0.4297632761	-0.516944
C	-0.0583455568	 0.0128836434	 0.0530647416	 0.355017
O	 1.1242188863	-0.5483169831	-0.4319942629	-0.217064
C	 1.1410341381	-1.8367530134	-0.8255723101	 0.060974
C	 0.0458572949	-2.6171531324	-0.7691337672	-0.090548
N	-1.1569335737	-2.1341270584	-0.3025200145	-0.260302
C	-1.2137969369	-0.9016331789	 0.0848956442	 0.143072
C	-2.5252847524	-0.3623699875	 0.5976175299	 0.112095
O	-3.5247850299	-1.031353777	 0.6606695887	-0.238808
H	 0.8014801786	 1.6809803754	 0.3278680198	 0.235513
H	 2.1169238956	-2.1461594126	-1.179189807	 0.155452
H	 0.077581799	-3.6504076229	-1.0894607426	 0.134843
H	-2.4921116343	 0.6959727158	 0.909825384	 0.126699
68.283	82.1797	219.0079	241.0012	365.5183	409.2517	487.3209	534.9936	547.241	627.5612	770.0488	822.5788	831.8936	859.7221	887.2274	933.7343	961.3792	1037.7852	1056.8221	1142.1059	1219.3033	1267.8296	1311.1442	1417.1137	1429.6432	1559.511	1652.7252	1733.0942	1810.8376	2992.442	3209.8622	3229.4374	3494.6073
N=C1OC=CN=C1C=O	[NH]C1=C([N]C=CO1)C=O	
InChI=1S/C5H4N2O2/c6-5-4(3-8)7-1-2-9-5/h1-3,6H	InChI=1S/C5H4N2O2/c6-5-4(3-8)7-1-2-9-5/h1-3,6H
