15
gdb 12756	3.30374	1.79277	1.50174	3.2109	65.26	-0.2732	0.0257	0.2989	868.0682	0.119046	-362.64421	-362.636969	-362.636025	-362.675594	27.446	
O	-0.0142036877	 1.4111146483	 0.0435051432	-0.455761
C	-0.0178797506	 0.0353435291	 0.0298302739	 0.401745
C	-0.333507873	-0.786955114	-1.1838096107	-0.347636
C	-1.2113300816	-0.9066850917	 0.0447473009	-0.101643
C	-0.5271498403	-1.8097981522	 1.0747655637	-0.243999
C	 0.6923780061	-0.8120924748	 1.1119142793	-0.21432
C	 2.0205462252	-1.3233016285	 0.8048783626	 0.259509
N	 3.0665030308	-1.7315086953	 0.526660516	-0.331855
H	 0.6763778149	 1.7249515441	-0.551510594	 0.296614
H	-0.7727135024	-0.2114132668	-1.9921722938	 0.124096
H	 0.304511806	-1.6090425848	-1.5001048669	 0.128016
H	-2.2663309566	-0.6680237824	 0.0165967491	 0.106561
H	-1.0346988051	-1.8575753516	 2.0390312253	 0.122962
H	-0.2921386489	-2.8230879032	 0.7397324402	 0.122289
H	 0.7177361633	-0.2679648062	 2.0587464912	 0.133423
113.5934	138.7049	255.4696	299.1307	350.4967	393.7996	439.2674	518.3204	564.6503	646.1597	714.2959	801.6751	854.0574	890.2984	945.9367	982.8287	1011.114	1030.6811	1047.9158	1078.1184	1089.171	1148.9562	1180.747	1215.0245	1243.6511	1286.6594	1322.3876	1331.7872	1412.5715	1481.7663	1508.1286	2348.0182	3071.1002	3091.2783	3111.6919	3131.7801	3202.2306	3211.0956	3790.5057
OC12CC1CC2C#N	O[C@]12C[C@H]1C[C@H]2C#N	
InChI=1S/C6H7NO/c7-3-5-1-4-2-6(4,5)8/h4-5,8H,1-2H2	InChI=1S/C6H7NO/c7-3-5-1-4-2-6(4,5)8/h4-5,8H,1-2H2/t4-,5+,6-/m1/s1
