23
gdb 83283	2.61101	1.29919	1.17559	1.3419	84.6	-0.2436	0.0659	0.3094	1210.1033	0.207705	-388.295325	-388.28648	-388.285535	-388.328314	35.254	
C	-0.1203148147	 1.5931137163	 0.0231843479	-0.402831
C	-0.0377033729	 0.0645986076	-0.0124681474	 0.050176
C	 0.6140768135	-0.4396595265	-1.3074481677	-0.185423
C	 0.5374071532	-1.972313204	-1.4309840303	-0.239791
C	 0.877029834	-2.7313520352	-0.1558274902	-0.069643
C	 2.1932613496	-2.5646382327	 0.5621654091	 0.078205
O	 3.1516434739	-1.6522486802	 0.101663979	-0.410899
C	 0.9417601232	-1.9901370924	 1.1739154954	-0.090398
C	 0.7328594588	-0.4780364656	 1.2049575557	-0.208463
H	 0.8792906221	 2.0396071431	-0.0382567382	 0.113231
H	-0.7090649541	 1.980509913	-0.8153962143	 0.105442
H	-0.5843381141	 1.9472142685	 0.9503820023	 0.10609
H	-1.0621051565	-0.3366425282	 0.0274996149	 0.061787
H	 0.1218723679	 0.0116844138	-2.1772849432	 0.081854
H	 1.6590204601	-0.1109081954	-1.3237666732	 0.101456
H	-0.4884765875	-2.2447026206	-1.7104460095	 0.098744
H	 1.1726828169	-2.31456541	-2.2594087118	 0.082482
H	 0.4661347398	-3.7373163619	-0.1215122101	 0.077809
H	 2.61969713	-3.4479679556	 1.0381367403	 0.078051
H	 3.5248862514	-1.9987686503	-0.7152588282	 0.289634
H	 0.564488339	-2.5257908104	 2.0392977887	 0.081833
H	 1.7059210569	 0.0258992372	 1.2530791534	 0.113102
H	 0.1976555294	-0.2118340505	 2.1225880875	 0.087551
95.0571	172.6267	215.7667	233.8881	242.7536	286.2602	304.5514	402.2736	417.4145	474.0319	503.5781	589.7086	685.4355	743.9695	775.3783	797.2238	865.1414	882.6596	921.5818	941.777	961.7461	1001.8524	1021.9005	1046.1239	1102.276	1103.0541	1121.8751	1128.0799	1154.3353	1167.6624	1197.7149	1246.9487	1268.4871	1291.2047	1298.412	1319.4482	1335.5032	1363.7293	1373.0845	1380.0887	1386.9746	1402.5671	1411.971	1451.9096	1480.6342	1487.4451	1496.8079	1500.3712	1502.3377	2983.5484	3005.1802	3021.2057	3029.2047	3033.064	3035.7454	3068.9894	3078.4752	3089.4779	3089.9365	3092.7785	3129.2732	3151.1837	3808.4874
CC1CCC2C(O)C2C1	C[C@H]1CC[C@H]2[C@@H](O)[C@H]2C1	
InChI=1S/C8H14O/c1-5-2-3-6-7(4-5)8(6)9/h5-9H,2-4H2,1H3	InChI=1S/C8H14O/c1-5-2-3-6-7(4-5)8(6)9/h5-9H,2-4H2,1H3/t5-,6+,7-,8+/m0/s1
