18
gdb 39050	2.48627	2.00435	1.35623	1.4442	76.07	-0.2262	-0.0075	0.2187	964.7003	0.149752	-401.89241	-401.88528	-401.884336	-401.92373	28.717	
C	 0.1404240452	 1.4278629165	-0.3099061504	-0.255608
C	 1.3344548926	 0.5952574666	 0.0129050921	-0.023956
C	 2.1799051386	 0.8389209392	 1.2335333529	 0.034648
O	 2.2736991427	 2.167696073	 1.7659951277	-0.252724
C	 1.7030401731	 1.1396946398	 2.5960665169	-0.005204
C	 0.2766094941	 1.2831728348	 2.9785069755	-0.067773
C	-0.7415699615	 0.6273911224	 2.4242232715	-0.086651
C	-0.6477318456	-0.3794040466	 1.2940303008	-0.197521
N	-0.015444775	 0.0210381836	 0.0306095964	-0.099919
H	-0.1302966176	 2.1814753644	 0.4236842977	 0.130181
H	-0.0747524825	 1.6875132637	-1.3431555783	 0.114287
H	 1.926112379	 0.2196552833	-0.8201598727	 0.089281
H	 3.149518874	 0.3414388151	 1.1731211813	 0.08945
H	 2.3623736829	 0.8567255211	 3.4207671683	 0.097605
H	 0.0863609692	 1.9779255337	 3.7946053969	 0.09985
H	-1.7429215287	 0.8223896527	 2.8023742324	 0.098439
H	-0.1218363073	-1.2784405537	 1.6391601364	 0.120844
H	-1.6615426831	-0.7014466797	 1.0339050347	 0.114771
123.7159	206.4297	251.8865	321.8212	338.9775	418.02	507.9001	541.5019	641.3952	709.5704	723.081	786.4708	822.8207	839.7422	870.5599	912.1574	935.9007	985.4162	1003.9007	1039.6899	1049.5559	1061.592	1108.1131	1114.9247	1125.5912	1164.7493	1173.9844	1241.7243	1293.3006	1301.8471	1342.5558	1373.1866	1396.6121	1408.1171	1427.0458	1480.7785	1483.7518	1504.1804	1727.5066	3028.4422	3067.2429	3068.362	3087.7463	3109.3817	3118.604	3135.2225	3158.7208	3199.8502
C1C2C3OC3C=CCN12	C1[C@H]2[C@H]3O[C@H]3C=CCN12	
InChI=1S/C7H9NO/c1-2-6-7(9-6)5-4-8(5)3-1/h1-2,5-7H,3-4H2	InChI=1S/C7H9NO/c1-2-6-7(9-6)5-4-8(5)3-1/h1-2,5-7H,3-4H2/t5-,6-,7+,8?/m0/s1
