18
gdb 17264	3.10622	2.12568	1.80281	1.2975	72.67	-0.2536	0.0787	0.3323	830.4905	0.153936	-347.734923	-347.727783	-347.726839	-347.765717	28.92	
O	-0.1102653931	 1.3305756229	 0.0093577811	-0.474573
C	 0.0136678794	-0.0439673714	-0.0013107187	 0.319696
C	 0.6551556966	-0.9690730165	-1.0896364414	-0.283824
C	 0.0375634088	-1.9174753367	-0.0166073953	-0.141656
C	 0.6437950141	-0.9869250707	 1.0783038526	-0.283816
C	-1.1920114625	-0.9884521796	-0.0154063571	 0.44113
C	-2.4691364511	-0.9796413384	 0.7441766539	-0.377653
C	-2.4611056309	-0.9670207188	-0.7880841108	-0.377654
H	 0.7703045232	 1.7203648719	 0.0168900423	 0.284057
H	 0.1808176013	-0.9657247698	-2.0732021568	 0.09776
H	 1.7474192131	-0.9637154166	-1.1567023353	 0.080448
H	 0.0448845997	-3.004617486	-0.0255235863	 0.081062
H	 1.7352947321	-0.9827690939	 1.1568934131	 0.080448
H	 0.1591740392	-0.9997268326	 2.0567652841	 0.09776
H	-2.7956471082	-1.8899937789	 1.237606792	 0.108925
H	-2.7648287915	-0.0658299134	 1.2501423216	 0.119484
H	-2.7515497542	-0.0449686074	-1.2819965436	 0.119483
H	-2.782354586	-1.869088214	-1.2998429756	 0.108924
183.1003	209.8268	212.7296	249.0206	389.1717	410.6102	474.2698	613.5434	639.466	653.0117	760.5655	784.3807	790.3521	909.1942	911.1835	937.1553	945.2349	971.2352	976.5912	1044.1637	1059.1727	1059.2043	1063.6414	1080.6484	1109.3485	1133.2742	1159.5817	1181.9797	1194.2115	1205.259	1232.3121	1294.8848	1332.8002	1437.4541	1459.5271	1486.4639	1509.9477	1548.7276	3045.1312	3051.557	3118.9188	3122.626	3123.0237	3125.2192	3148.3705	3197.1309	3211.1224	3813.776
OC12CC(C1)C21CC1	O[C@@]12C[C@@H](C1)C12CC1	
InChI=1S/C7H10O/c8-7-3-5(4-7)6(7)1-2-6/h5,8H,1-4H2	InChI=1S/C7H10O/c8-7-3-5(4-7)6(7)1-2-6/h5,8H,1-4H2/t5-,7-
