13
gdb 21525	3.55333	1.91272	1.30553	3.7915	57.71	-0.2267	-0.0183	0.2084	868.0054	0.09538	-431.894337	-431.886896	-431.885952	-431.926004	27.165	
N	-0.1448533655	 1.3415805918	-0.1321650422	-0.58547
C	-0.0816083458	-0.0126923863	-0.0537415384	 0.402032
C	-1.1181867153	-0.9299333062	 0.0289860968	 0.137551
C	-2.5847139369	-0.6579045427	 0.0191665361	-0.195827
O	-2.9246926852	 0.3346855438	-0.9582135615	-0.417258
N	-0.5250798487	-2.1526436248	 0.1101717117	-0.144044
N	 0.7176385197	-2.1105425138	 0.099717305	-0.054076
O	 1.0755717659	-0.627884156	-0.0191075789	-0.238136
H	 0.6837832036	 1.8201109236	-0.448327067	 0.272519
H	-1.0267948357	 1.6930331139	-0.4797589339	 0.277768
H	-3.1315036124	-1.5964560729	-0.1363250187	 0.126985
H	-2.9282864191	-0.2310378785	 0.9683706625	 0.129628
H	-2.7095627446	-0.0327060019	-1.8230600716	 0.288326
99.4389	170.1551	215.385	285.8979	313.1029	392.2677	423.1292	458.6484	511.9749	582.6625	661.1506	699.3276	748.3352	784.5804	960.5264	973.6207	1026.3425	1096.5028	1182.0553	1275.1258	1318.1681	1377.1642	1411.6295	1484.9095	1503.2448	1513.8517	1594.5426	1660.3265	3026.7239	3066.5714	3562.1442	3688.1434	3799.383
NC1=C(CO)N=NO1	Nc1c(CO)nno1	
InChI=1S/C3H5N3O2/c4-3-2(1-7)5-6-8-3/h7H,1,4H2	InChI=1S/C3H5N3O2/c4-3-2(1-7)5-6-8-3/h7H,1,4H2
