18
gdb 20868	6.54324	1.01002	0.93832	2.2175	73.82	-0.2316	0.0268	0.2583	1265.2652	0.155873	-344.014522	-344.006509	-344.005565	-344.047939	28.999	
C	-0.0757078915	 1.5991362683	 0.0054279957	-0.379351
C	-0.0528634623	 0.0693047921	-0.0207438861	-0.14893
C	 0.7655512726	-0.4976559711	-1.196786011	-0.316849
C	 0.7845061682	-1.9970733127	-1.2470583327	 0.218242
C	 1.7782050037	-2.8537362991	-0.8135561126	-0.131452
N	 1.3328345516	-4.1154014924	-1.0356324095	-0.176232
N	 0.1086271952	-4.1532623818	-1.591995109	-0.225819
C	-0.225199501	-2.8722061875	-1.7185896975	-0.079535
H	 0.9363969565	 2.0100553365	 0.0946533496	 0.112239
H	-0.5153446377	 2.005072613	-0.912667646	 0.113816
H	-0.6624560598	 1.9749043154	 0.849388906	 0.112129
H	 0.3619888252	-0.3159022825	 0.9188140565	 0.09697
H	-1.077470978	-0.318003303	-0.0793520228	 0.10105
H	 0.3556009702	-0.1022978561	-2.1353206979	 0.103434
H	 1.7930069911	-0.1184378418	-1.1326696285	 0.096552
H	 2.7468931121	-2.6613097937	-0.3787102455	 0.127549
H	 1.8099831929	-4.9804545833	-0.8484765008	 0.272427
H	-1.1810897188	-2.6110966802	-2.150869938	 0.103763
41.1275	87.2611	119.054	245.9725	310.5283	319.3435	376.8222	505.5476	653.0638	694.8665	733.8335	744.114	793.0185	871.3476	883.5312	900.5849	952.8204	1011.8192	1044.0286	1066.04	1087.5353	1111.9577	1168.8961	1235.5991	1258.3791	1298.4566	1321.4927	1332.9826	1381.0948	1393.2736	1412.4337	1418.712	1483.3366	1493.0625	1494.482	1500.3906	1510.6823	1612.5792	3015.4267	3027.3199	3030.3611	3044.0348	3066.8783	3095.8062	3102.1404	3235.427	3254.9396	3677.8333
CCCC1=CNN=C1	CCCc1c[nH]nc1	
InChI=1S/C6H10N2/c1-2-3-6-4-7-8-5-6/h4-5H,2-3H2,1H3,(H,7,8)	InChI=1S/C6H10N2/c1-2-3-6-4-7-8-5-6/h4-5H,2-3H2,1H3,(H,7,8)
