20
gdb 10535	2.86847	1.37172	1.05102	0.6675	81.58	-0.2395	0.0563	0.2958	1203.6349	0.175123	-311.832508	-311.823292	-311.822347	-311.866293	34.387	
C	 0.083851759	 1.6002877126	 0.0064908959	-0.381273
C	 0.2502005622	 0.0806723689	-0.0725532719	-0.161619
C	 0.5193363927	-0.5601626661	 1.2941557485	-0.257474
C	 0.6802166806	-2.0775678935	 1.2403983219	 0.172206
C	 2.0461088432	-2.6412244768	 0.8699467679	-0.287687
C	 1.5599567095	-2.7474773678	 2.2864133406	-0.3077
C	-0.4790610428	-2.8076320952	 0.7966783023	 0.294299
C	-1.459478995	-3.4019830247	 0.4303514596	-0.481261
H	 0.9831356193	 2.0798514458	 0.4097760891	 0.11067
H	-0.1072857339	 2.0312649924	-0.9811770168	 0.111948
H	-0.7545919075	 1.874469459	 0.6565715168	 0.114686
H	-0.6501453627	-0.3705142153	-0.505366223	 0.112471
H	 1.0739039081	-0.1671776893	-0.7541997641	 0.094731
H	 1.432376315	-0.1319077777	 1.7276401112	 0.089388
H	-0.2978977527	-0.3119955228	 1.9836224118	 0.102859
H	 2.0735516057	-3.5409819782	 0.2673541962	 0.125572
H	 2.8256121414	-1.9209402944	 0.6450361129	 0.116335
H	 2.0064985248	-2.1033172351	 3.0363855874	 0.116343
H	 1.2509644841	-3.7202048475	 2.6497668224	 0.125579
H	-2.320542961	-3.9309125643	 0.1054057915	 0.189926
83.0306	91.9589	140.6281	186.4343	220.9999	246.209	316.7803	355.6706	391.5386	539.0619	559.229	581.8714	642.0381	700.4121	749.0241	788.4755	856.5844	885.1497	907.022	940.0969	951.2914	985.9555	1052.1857	1059.4249	1082.9115	1112.6396	1130.626	1193.7058	1249.608	1280.2415	1309.8911	1321.9209	1355.3302	1394.4716	1413.1767	1463.8471	1479.6518	1492.9344	1497.0367	1500.4675	1510.767	2230.0813	3014.5756	3025.9529	3028.9697	3048.4803	3068.7031	3095.8312	3101.4984	3135.1821	3139.6287	3220.9868	3235.2707	3504.6431
CCCC1(CC1)C#C	CCCC1(CC1)C#C	
InChI=1S/C8H12/c1-3-5-8(4-2)6-7-8/h2H,3,5-7H2,1H3	InChI=1S/C8H12/c1-3-5-8(4-2)6-7-8/h2H,3,5-7H2,1H3
