16
gdb 34700	4.24578	1.48094	1.41093	1.4969	76.32	-0.2297	0.0411	0.2708	936.3197	0.125361	-363.48174	-363.475227	-363.474283	-363.512568	26.803	
C	-0.0168673116	-1.2929948051	-0.0613082141	-0.447988
C	-0.0168264101	-0.090705561	-0.0283434706	 0.305345
C	 0.0041282978	 1.3527964802	 0.0333204226	-0.184163
C	-0.1829576811	 2.0929428865	 1.3835865335	-0.02652
C	 0.9722004929	 1.7245012811	 2.3198948638	-0.086445
C	 2.1321704489	 1.7509957396	 1.3047349225	-0.086444
C	 1.6784899834	 3.0057655905	 1.9897318257	-0.029843
N	 0.6848184695	 3.2558335626	 0.8608600893	-0.191757
C	 1.3476409042	 2.1279501968	 0.0440829313	-0.026526
H	-0.0243211588	-2.3541736899	-0.0967258761	 0.194989
H	-0.6592904706	 1.8032993197	-0.7130078388	 0.116488
H	-1.1699938628	 2.3149311927	 1.7876550791	 0.084285
H	 0.9911917052	 1.1227124581	 3.2178652602	 0.097195
H	 3.035002822	 1.1693922854	 1.4291997053	 0.097198
H	 2.1762852976	 3.7650705295	 2.5783540459	 0.099898
H	 1.8728240418	 2.3845284332	-0.8752341381	 0.084286
115.2251	148.7111	349.4738	427.2794	525.0052	625.3718	631.8672	638.2017	753.2932	771.9426	785.4358	805.1064	809.6207	829.159	867.6818	915.3123	923.3228	956.6128	990.2675	991.2614	1016.1917	1033.5815	1056.7892	1073.9177	1096.0934	1137.2309	1154.8206	1185.6528	1222.8844	1226.2368	1282.5985	1305.9291	1344.5208	1362.8152	2235.0313	3058.6868	3122.0862	3124.8382	3194.9368	3208.0367	3220.3607	3503.8577
C#CC1C2C3C4C3N2C14	C#C[C@H]1[C@H]2[C@H]3[C@@H]4[C@H]3N2[C@H]14	
InChI=1S/C8H7N/c1-2-3-6-4-5-7(3)9(6)8(4)5/h1,3-8H	InChI=1S/C8H7N/c1-2-3-6-4-5-7(3)9(6)8(4)5/h1,3-8H/t3-,4+,5-,6-,7+,8-
