21
gdb 110963	2.53472	1.22914	1.12476	1.2105	79.23	-0.2473	0.0698	0.3171	1215.0794	0.181575	-424.167651	-424.158217	-424.157273	-424.201668	35.976	
C	 0.1991404213	 1.3448152719	 0.1324906899	-0.512942
C	 0.1105356685	-0.1564436039	 0.0887241385	 0.287903
C	 0.5899830826	-1.1164488387	-1.0524397776	-0.300323
C	-0.004660402	-2.0595072622	 0.0353641237	-0.13372
C	 0.7372462841	-1.1838246101	 1.0935470769	 0.152525
O	 2.124638145	-1.26402127	 1.278619411	-0.45524
C	-1.1833213795	-1.0424935802	 0.1223738093	 0.03787
C	-2.1534912648	-1.0042962567	 1.2892117332	-0.151393
O	-2.8412125791	 0.2414252039	 1.2063335705	-0.418148
H	 1.2424595025	 1.6713776469	 0.2079735762	 0.11349
H	-0.2334849352	 1.7938303238	-0.7679301348	 0.118172
H	-0.3489956114	 1.7372764615	 0.9940239283	 0.131544
H	 0.0410198618	-1.0549136702	-1.9962070652	 0.094599
H	 1.6633592732	-1.1799980169	-1.2575287018	 0.071845
H	-0.0738234123	-3.1476824384	-0.0035150798	 0.069514
H	 0.325006007	-1.1864131956	 2.1023938372	 0.073517
H	 2.5629426266	-1.2674810812	 0.4220830307	 0.280956
H	-1.7612222298	-0.9717401831	-0.8053383461	 0.072695
H	-2.8548557185	-1.8495764299	 1.1960554847	 0.086843
H	-1.6534968174	-1.1087999051	 2.2611879268	 0.092991
H	-3.4890128826	 0.274567854	 1.9164423684	 0.287303
62.9327	139.0741	182.1156	198.7377	243.854	261.1319	285.7389	305.0229	379.6339	394.6265	458.3919	569.9932	615.7032	647.5881	749.4287	807.8984	838.5398	883.4597	904.3649	945.6892	1005.4746	1025.6561	1042.6244	1056.5833	1079.5071	1089.6516	1129.6907	1148.5799	1169.9452	1188.1758	1206.2733	1231.1156	1243.0915	1255.5609	1261.3574	1281.9167	1328.8846	1407.8766	1410.0787	1460.9627	1477.3328	1487.1122	1490.812	1526.0597	1540.0635	2969.5366	3020.9226	3029.8233	3042.904	3053.0425	3093.9807	3097.2489	3101.8724	3110.0208	3118.0581	3819.9229	3826.3942
CC12CC(C1O)C2CO	C[C@@]12C[C@@H]([C@H]1O)[C@H]2CO	
InChI=1S/C7H12O2/c1-7-2-4(6(7)9)5(7)3-8/h4-6,8-9H,2-3H2,1H3	InChI=1S/C7H12O2/c1-7-2-4(6(7)9)5(7)3-8/h4-6,8-9H,2-3H2,1H3/t4-,5-,6-,7+/m1/s1
