13
gdb 48357	3.17388	1.27108	0.98569	2.7865	65.08	-0.2873	-0.101	0.1863	1116.5766	0.087495	-452.738888	-452.730413	-452.729468	-452.772822	29.139	
O	-0.5855749433	 1.138698286	 1.2882460642	-0.268403
C	-0.2709985852	 1.7333150467	 0.28531408	 0.097032
C	 1.1530558453	 1.7719838425	-0.1853386493	 0.092928
C	 2.1813778196	 2.1002824251	 0.8879592408	-0.24453
N	 2.0728322988	 0.7619845941	 0.3727070071	-0.318072
C	 1.392924763	 2.2138045058	-1.5881535603	 0.253951
O	 0.5611943598	 2.7652307387	-2.2669063059	-0.276992
C	 2.747523603	 1.9617115025	-2.1218078513	 0.256246
N	 3.8035572275	 1.8153987679	-2.5683490576	-0.310675
H	-1.0005217034	 2.2698435284	-0.3450588888	 0.134106
H	 3.0728166949	 2.6478466383	 0.5955193334	 0.159641
H	 1.765973814	 2.3354581751	 1.8641765873	 0.158444
H	 1.5156185259	 0.191239239	 1.0115351103	 0.266323
43.0953	129.6657	136.5814	219.007	231.7494	287.8134	311.0514	346.8902	452.7584	461.817	661.8924	735.9593	744.5936	843.9883	868.4169	977.8361	991.4041	1021.8347	1061.7018	1139.4041	1145.6977	1274.7966	1334.4318	1356.5679	1421.222	1495.5611	1780.16	1802.7634	2343.8014	2999.6844	3114.2022	3214.0775	3455.3386
O=CC1(CN1)C(=O)C#N	O=C[C@]1(CN1)C(=O)C#N	
InChI=1S/C5H4N2O2/c6-1-4(9)5(3-8)2-7-5/h3,7H,2H2	InChI=1S/C5H4N2O2/c6-1-4(9)5(3-8)2-7-5/h3,7H,2H2/t5-/m1/s1
