19
gdb 17636	3.05332	1.47231	1.22678	3.3078	71.67	-0.239	0.0361	0.2751	1068.5327	0.164502	-365.090448	-365.081149	-365.080205	-365.125061	33.386	
C	-0.3398790357	 1.7905431889	-0.4047856156	-0.390276
C	-0.0872819745	 0.3078909879	-0.0939311822	-0.111184
C	-1.3903888221	-0.4512169617	 0.1088437739	 0.062118
C	-1.4431563174	-1.6800582313	 0.9796104805	-0.275554
C	-2.1056640675	-0.4005981534	 1.4329604445	-0.282524
C	 0.6704370647	-0.3373032606	-1.2608326988	 0.422608
N	 1.8260360538	-0.9849244327	-0.9308735069	-0.527508
O	 0.2641472252	-0.2749188496	-2.4059565249	-0.379419
H	 0.5994561359	 2.3472220445	-0.4821733003	 0.112549
H	-0.864831034	 1.8821941414	-1.3589201012	 0.142971
H	-0.9488409494	 2.2472088336	 0.3804717018	 0.112533
H	 0.5081394438	 0.2268432873	 0.8254420794	 0.057066
H	-2.0113514538	-0.4676909684	-0.78194452	 0.104328
H	-2.0708403871	-2.5079077437	 0.669421906	 0.115636
H	-0.5341509687	-1.9837293099	 1.48974814	 0.09955
H	-1.6375163995	 0.1502081535	 2.243003589	 0.108428
H	-3.188932716	-0.3510827966	 1.4340792533	 0.114328
H	 2.1173150198	-1.1100114737	 0.0219415074	 0.255977
H	 2.3119004825	-1.4883164756	-1.6557128758	 0.258371
35.8305	79.318	154.6001	171.6625	223.3279	231.5602	248.0135	338.6786	386.5465	476.9856	584.8355	624.1649	738.871	775.0078	804.0189	831.1771	847.1097	937.1015	954.2873	988.9681	1053.0722	1055.8915	1072.2781	1089.8726	1120.7556	1144.8348	1196.9728	1204.0945	1225.0768	1261.3961	1309.4424	1387.4974	1404.2908	1409.6056	1469.2015	1489.8331	1500.9655	1505.1218	1616.5482	1792.4722	3011.7133	3041.3367	3109.7835	3125.2653	3129.2848	3130.3558	3156.6923	3203.8763	3219.1275	3599.5717	3739.8189
CC(C1CC1)C(N)=O	C[C@@H](C1CC1)C(=O)N	
InChI=1S/C6H11NO/c1-4(6(7)8)5-2-3-5/h4-5H,2-3H2,1H3,(H2,7,8)	InChI=1S/C6H11NO/c1-4(6(7)8)5-2-3-5/h4-5H,2-3H2,1H3,(H2,7,8)/t4-/m0/s1
