17
gdb 32962	6.13522	0.76579	0.68724	2.068	72.58	-0.1974	0.0248	0.2221	1577.1744	0.136149	-455.17093	-455.161712	-455.160768	-455.20636	32.512	
N	-0.0372878792	 1.3405272989	 0.5987937119	-0.597853
C	-0.0643777461	 0.0372587198	 0.1289623332	 0.335537
C	-0.9850659028	-0.7600402807	-0.4709403145	-0.199558
N	-0.3692350844	-1.9630400513	-0.8207725324	-0.305089
C	 0.8517945418	-1.8483561819	-0.4231465319	 0.394835
C	 1.9718810874	-2.8235721921	-0.5087465565	-0.308104
C	 1.5580018621	-4.1106172769	-1.2133005291	-0.070137
O	 2.7002242105	-4.954502652	-1.2282600489	-0.423243
O	 1.118838435	-0.6364148979	 0.1702405479	-0.209885
H	 0.5311945626	 1.4489152977	 1.4299804789	 0.258697
H	-0.9638648406	 1.714195026	 0.7523208532	 0.258728
H	-2.0247341882	-0.565136011	-0.675752043	 0.10674
H	 2.820340708	-2.3765575441	-1.0414341072	 0.131983
H	 2.3392940513	-3.0658913137	 0.4965352025	 0.129543
H	 0.7163932378	-4.5710761885	-0.6773367094	 0.105351
H	 1.2074263675	-3.8791920402	-2.2288375849	 0.105181
H	 2.4588656172	-5.7722439722	-1.6721712897	 0.287274
22.1649	84.2334	126.9465	178.8765	209.093	251.2811	311.465	327.6302	360.9311	471.2675	656.314	677.9495	690.5803	746.8626	774.7744	783.2901	805.594	979.3432	1000.034	1036.66	1073.6086	1092.3233	1104.2315	1136.2301	1201.8764	1212.368	1255.9783	1289.2486	1300.6448	1349.3309	1424.139	1467.7279	1486.198	1525.0534	1621.5301	1640.4561	1677.4372	2999.6482	3027.647	3030.3624	3064.3167	3269.3929	3539.4931	3641.0889	3836.8107
NC1=CN=C(CCO)O1	Nc1cnc(CCO)o1	
InChI=1S/C5H8N2O2/c6-4-3-7-5(9-4)1-2-8/h3,8H,1-2,6H2	InChI=1S/C5H8N2O2/c6-4-3-7-5(9-4)1-2-8/h3,8H,1-2,6H2
