20
gdb 6843	3.05101	1.55549	1.35333	1.067	71.69	-0.2441	0.0794	0.3235	1033.4786	0.174726	-386.123944	-386.114712	-386.113768	-386.157453	34.069	
C	 0.1198324114	 1.5491486933	 0.3603256965	-0.237867
O	 0.67720871	 0.2998362585	 0.0205319029	-0.24438
C	 0.7051639316	-0.606692115	 1.0870856099	 0.14259
C	-0.597875835	-1.3445377237	 1.5087486256	-0.272594
C	 0.2492371613	-2.6388117761	 1.6499411355	-0.280574
C	 1.3613209704	-1.9710851794	 0.7771059045	 0.362041
C	 1.3016706354	-2.3621257618	-0.6950204726	-0.440877
O	 2.6846893931	-2.0319049159	 1.2745114813	-0.479917
H	 0.6779728989	 2.0327741242	 1.1773307683	 0.106128
H	 0.1739316039	 2.1830566626	-0.5281250632	 0.125504
H	-0.933085022	 1.4617503289	 0.668211157	 0.10671
H	 1.2034326083	-0.1647482575	 1.9634553621	 0.074976
H	-1.123590729	-0.9844233473	 2.3946755394	 0.09855
H	-1.3006435578	-1.3998906711	 0.6729517322	 0.107614
H	 0.6099626901	-2.788849407	 2.6700516252	 0.107382
H	-0.1865208697	-3.569922296	 1.2796777472	 0.093846
H	 0.286992962	-2.2834810066	-1.0941176877	 0.123077
H	 1.9499465475	-1.7111491371	-1.2863064268	 0.135688
H	 1.6299432686	-3.402031623	-0.8194097275	 0.098749
H	 3.0900466911	-2.84555181	 0.9565727705	 0.273354
75.7282	125.9453	174.6028	203.7578	234.3117	244.5487	278.5303	318.0688	358.1725	404.0138	490.3948	543.2118	608.424	752.6439	799.53	884.4757	903.847	942.9574	973.9982	990.6579	1043.3205	1087.523	1126.4957	1158.5446	1177.5399	1182.7795	1191.2026	1214.4615	1231.7485	1253.1027	1262.101	1306.1153	1373.7285	1400.3363	1410.6009	1474.3487	1480.677	1486.5753	1486.9723	1492.3009	1499.8303	1509.9001	2973.9855	2992.0232	3022.137	3025.1203	3062.1275	3067.8103	3100.8439	3112.9097	3114.1993	3128.3429	3131.9549	3806.5805
COC1CCC1(C)O	CO[C@H]1CC[C@]1(C)O	
InChI=1S/C6H12O2/c1-6(7)4-3-5(6)8-2/h5,7H,3-4H2,1-2H3	InChI=1S/C6H12O2/c1-6(7)4-3-5(6)8-2/h5,7H,3-4H2,1-2H3/t5-,6-/m0/s1
