16
gdb 45105	2.87352	1.79595	1.28145	4.261	68.58	-0.2411	0.0059	0.247	960.7712	0.12671	-437.888931	-437.882043	-437.881099	-437.92025	27.469	
O	 0.0306697144	-0.0616125609	-0.1720252192	-0.375247
C	 0.0098205442	 1.1514679134	-0.0759322677	 0.423485
N	-1.1515488918	 1.8571418564	 0.0876745265	-0.335975
C	-1.3338461391	 3.2770526515	 0.04461503	 0.01673
C	-0.9373464715	 4.1701153241	 1.1945585236	-0.31027
C	-0.1033299051	 4.1381208315	-0.0697812589	-0.067337
C	 1.2254960494	 3.4412919524	-0.0622632244	 0.028351
O	 1.5603156384	 2.6997065496	 1.103931877	-0.242013
C	 1.2771692484	 1.9659237928	-0.1020189323	-0.08326
H	-1.9720872997	 1.2754542023	 0.1793449405	 0.251616
H	-2.2033969652	 3.5707095621	-0.5359195949	 0.107781
H	-1.538508659	 5.0504310601	 1.3909867659	 0.118745
H	-0.5006665718	 3.6887483787	 2.0611303195	 0.146693
H	-0.1593207368	 4.988562431	-0.7400264265	 0.099738
H	 2.0564677265	 3.9945318607	-0.4973380903	 0.103123
H	 2.1242066186	 1.4352127245	-0.5279852088	 0.117838
96.7242	208.3333	259.1522	407.6315	418.2636	471.183	506.4369	553.9728	593.2033	697.7951	752.7405	776.7896	816.9791	849.4454	885.976	904.3494	926.4255	987.7286	1059.1577	1066.4773	1071.8006	1106.1409	1120.1046	1134.8741	1147.3863	1237.128	1267.4294	1324.7408	1381.9622	1393.7804	1411.1082	1436.149	1467.2541	1495.1491	1789.5738	3121.1645	3143.2034	3146.1233	3161.2178	3173.6446	3243.7117	3606.831
O=C1NC2CC2C2OC12	O=C1N[C@H]2C[C@H]2[C@H]2O[C@@H]12	
InChI=1S/C6H7NO2/c8-6-5-4(9-5)2-1-3(2)7-6/h2-5H,1H2,(H,7,8)	InChI=1S/C6H7NO2/c8-6-5-4(9-5)2-1-3(2)7-6/h2-5H,1H2,(H,7,8)/t2-,3+,4-,5-/m1/s1
