23
gdb 85815	1.9367	1.4164	1.31898	0.6119	91.16	-0.2519	0.0556	0.3075	1210.2009	0.20326	-351.125209	-351.11488	-351.113936	-351.159534	39.745	
C	-0.4196881446	 1.4604489664	-0.0971099459	-0.401923
C	-0.0710297193	-0.023952507	-0.0119960712	 0.007281
C	 1.1295066697	-0.4492951478	-0.9036446051	-0.264091
C	 2.0597229721	-0.5077983756	 0.3609847444	 0.106297
C	 2.9302815724	-1.7625527077	 0.505329606	-0.452551
C	 2.8809811013	 0.6872326212	 0.4991063773	 0.34159
C	 3.5830310883	 1.6587405865	 0.6110940919	-0.508562
C	 0.7468992525	-0.4782853038	 1.2408903902	 0.009635
C	 0.7099579588	 0.3223718461	 2.5326751873	-0.422935
H	 0.4656998739	 2.0919871066	 0.0209425531	 0.131489
H	-0.86302829	 1.6893092672	-1.0726147835	 0.109752
H	-1.1443629332	 1.7462609031	 0.6727288662	 0.110829
H	-0.9797507638	-0.6123166409	-0.1731408002	 0.063248
H	 1.0043610233	-1.4427729304	-1.3431460998	 0.09502
H	 1.4306380267	 0.2491020591	-1.6875267098	 0.103511
H	 3.7223086579	-1.778498462	-0.2498971849	 0.124346
H	 3.4061272535	-1.7975991538	 1.4905563043	 0.123866
H	 2.320551787	-2.6638610154	 0.3844189876	 0.10921
H	 4.1982036737	 2.5189489872	 0.7062460131	 0.191633
H	 0.4938554998	-1.5216062939	 1.4613525422	 0.069071
H	 0.9931556088	 1.3658944479	 2.3742293017	 0.129056
H	-0.2934547859	 0.302773062	 2.9725999042	 0.110133
H	 1.4021238173	-0.0978510551	 3.2706562109	 0.114095
83.5932	143.5375	176.136	195.3498	219.6484	234.7264	259.0439	268.7201	301.2034	337.1298	405.263	482.8746	519.5519	582.3718	616.2573	620.8244	635.0443	717.8404	788.1506	820.4851	882.774	921.7672	926.932	989.0132	1013.7221	1038.9618	1054.0683	1111.71	1126.9644	1140.88	1186.718	1207.9753	1229.0119	1264.0112	1277.7976	1311.017	1368.9965	1373.2069	1405.3383	1411.3797	1414.7152	1480.4166	1487.5008	1489.1551	1494.1542	1495.4137	1502.348	1510.0722	2221.3555	3028.1766	3030.0228	3031.362	3034.3102	3046.8134	3060.3785	3090.0817	3093.3902	3103.8563	3106.9764	3111.7994	3116.5678	3120.5058	3501.5367
CC1CC(C)(C#C)C1C	C[C@H]1C[C@@](C)(C#C)[C@H]1C	
InChI=1S/C9H14/c1-5-9(4)6-7(2)8(9)3/h1,7-8H,6H2,2-4H3	InChI=1S/C9H14/c1-5-9(4)6-7(2)8(9)3/h1,7-8H,6H2,2-4H3/t7-,8-,9+/m0/s1
