22
gdb 111490	2.32134	1.48602	1.10998	2.8533	80.51	-0.2361	0.0738	0.3099	1186.3717	0.195768	-404.326866	-404.318041	-404.317097	-404.360047	34.523	
C	 1.0330058394	 1.1066124747	-0.7699536664	-0.40809
C	 0.3121396088	-0.0671299509	-0.086343213	-0.029154
C	 0.2651778359	-1.3655427853	-0.9433346633	-0.243826
C	 1.2540789179	-2.3222721403	-0.2915603073	-0.011918
C	 2.6237855637	-1.8214171808	-0.0179735199	-0.257764
N	 1.6115922818	-1.8474538478	 1.0557406068	-0.11707
C	 0.8933241071	-0.5681973921	 1.2747651681	 0.015668
C	 1.7738063689	 0.3849788048	 2.0767126204	-0.060808
O	 2.1518257648	-0.1961153647	 3.310395499	-0.429762
H	 2.0612384668	 0.876784413	-1.0621105092	 0.122326
H	 0.4949126341	 1.3905053641	-1.680614387	 0.116188
H	 1.0627096687	 1.9881986776	-0.1219405232	 0.122328
H	-0.7122448855	 0.2717902093	 0.098285313	 0.082555
H	-0.735259201	-1.8098111053	-0.9159343809	 0.106765
H	 0.5010511931	-1.1739072274	-1.9954571847	 0.105762
H	 1.0840807627	-3.3898893614	-0.402011018	 0.089942
H	 3.4380806489	-2.5259811672	 0.1247849148	 0.117145
H	 2.9276162979	-0.8714603314	-0.4444483385	 0.116287
H	 0.0499006304	-0.836095906	 1.9232772603	 0.088703
H	 2.6576422167	 0.6715639311	 1.4840654439	 0.081055
H	 1.2253448163	 1.3045265388	 2.3095786163	 0.103032
H	 2.3636527326	-1.117455083	 3.114100249	 0.290638
103.0654	138.7474	182.8283	201.4077	239.4299	295.1692	355.0304	385.8132	431.0488	454.3627	517.0118	653.2518	710.1034	723.4169	799.18	857.4677	877.9238	898.0039	933.9317	956.5509	1022.4867	1030.9214	1052.9583	1074.0771	1095.1563	1102.4918	1104.4351	1143.6028	1152.1318	1171.3818	1226.9071	1233.7362	1257.5487	1282.8616	1315.0672	1333.693	1355.8144	1380.9187	1386.2017	1396.4119	1420.1976	1444.7067	1487.3831	1495.7809	1499.9049	1508.5929	1516.261	2972.8862	3022.7498	3037.3998	3039.1403	3051.3888	3063.3281	3081.333	3098.9932	3111.8274	3123.1142	3142.6135	3207.7664	3774.2478
CC1CC2CN2C1CO	C[C@H]1C[C@H]2CN2[C@H]1CO	
InChI=1S/C7H13NO/c1-5-2-6-3-8(6)7(5)4-9/h5-7,9H,2-4H2,1H3	InChI=1S/C7H13NO/c1-5-2-6-3-8(6)7(5)4-9/h5-7,9H,2-4H2,1H3/t5-,6-,7-,8?/m0/s1
