20
gdb 99119	3.77779	0.90276	0.88356	2.0773	76.51	-0.248	0.0601	0.3082	1439.2348	0.169253	-440.317672	-440.307551	-440.306606	-440.353332	36.214	
C	-3.0776268375	-2.4427922801	-0.3531567003	-0.232245
O	-1.6878396212	-2.1138810846	-0.3419613282	-0.26957
C	-0.9523139551	-2.7388595228	-1.3005099818	 0.516062
O	-1.4064282395	-3.5080856298	-2.1169248559	-0.416834
N	 0.3591101203	-2.378586168	-1.1791213494	-0.415182
C	 1.338807679	-2.7294858615	-2.1739357914	 0.3631
C	 1.2297729392	-1.9734163267	-3.4839690599	-0.449459
C	 2.6973568964	-3.0984680613	-1.6295172512	-0.320031
C	 1.7869760295	-4.1670429266	-2.1845584101	-0.262973
H	-3.5344786882	-2.1777428848	-1.3103367671	 0.136982
H	-3.228014602	-3.5116960817	-0.1794959434	 0.137019
H	-3.5256266679	-1.8622064744	 0.4541446571	 0.12716
H	 0.5568282001	-1.6127630792	-0.5538067857	 0.248653
H	 1.3399446342	-0.894322666	-3.3261368575	 0.108462
H	 2.0056720789	-2.2922846746	-4.1861931475	 0.113819
H	 0.2545716548	-2.1593707194	-3.9434918578	 0.144584
H	 3.5664020656	-2.8031984199	-2.2070777902	 0.114596
H	 2.8369381116	-3.0637666022	-0.5546522868	 0.113157
H	 1.3083907245	-4.8412986092	-1.4858124996	 0.125599
H	 2.0302405574	-4.6079543474	-3.1444703133	 0.117102
62.477	69.3204	99.4861	136.9534	157.2865	241.7302	276.3177	308.4598	337.6284	410.3221	428.6951	478.3366	484.9813	718.4672	752.5086	775.9629	787.8779	878.5681	913.0416	943.0026	981.4903	1017.0491	1043.6968	1072.0267	1080.9803	1122.3529	1133.1837	1184.0084	1187.5528	1213.543	1253.366	1311.9395	1349.1808	1411.5791	1459.6506	1465.4346	1480.9884	1484.9466	1497.0013	1500.1474	1508.8414	1527.3557	1817.2194	3030.378	3047.5771	3097.8105	3116.388	3119.9577	3134.4894	3148.937	3150.5193	3218.6821	3240.3841	3623.5845
COC(=O)NC1(C)CC1	COC(=O)NC1(C)CC1	
InChI=1S/C6H11NO2/c1-6(3-4-6)7-5(8)9-2/h3-4H2,1-2H3,(H,7,8)	InChI=1S/C6H11NO2/c1-6(3-4-6)7-5(8)9-2/h3-4H2,1-2H3,(H,7,8)
