17
gdb 124747	2.58485	1.28195	1.04237	3.1263	71.16	-0.2642	-0.0385	0.2257	1198.916	0.133898	-455.133715	-455.124502	-455.123558	-455.168485	32.777	
C	 0.1126087715	 1.5448018064	-0.2385958618	-0.399541
C	-0.0177090916	 0.0292759856	-0.0496869514	 0.009596
O	 0.5153114066	-0.6820366851	-1.1619273375	-0.425324
C	 0.6157352116	-0.4335269506	 1.2301374022	 0.19175
C	 0.1220414641	-1.0476887275	 2.3425600314	 0.300472
C	-1.2345484223	-1.486331741	 2.7599809299	-0.49481
O	 1.1397746937	-1.2649752849	 3.1831142682	-0.212433
N	 2.316484163	-0.766248783	 2.5466710451	-0.016424
N	 1.9733705964	-0.2967738871	 1.432967223	-0.18601
H	 1.1665070895	 1.8406328005	-0.2242703642	 0.133623
H	-0.3217712054	 1.8336309015	-1.1989999387	 0.126626
H	-0.4009944421	 2.0874961056	 0.5614461232	 0.117252
H	-1.0795694499	-0.2395723674	-0.0265408308	 0.093536
H	 1.4718207635	-0.5577411595	-1.1474573378	 0.292229
H	-1.9563700132	-1.3031215566	 1.9620008872	 0.149797
H	-1.2388789528	-2.5549144347	 2.9958632713	 0.161208
H	-1.5611993925	-0.9478950823	 3.6554977806	 0.158454
35.0555	106.9335	144.8738	168.8069	246.6498	247.9994	274.6821	334.2202	386.2494	459.1811	519.3186	633.3285	667.7622	685.5591	730.2544	765.4402	906.7027	993.4505	1022.9599	1029.9857	1065.354	1080.0165	1107.1955	1155.2513	1244.8051	1301.2079	1355.9973	1377.0685	1401.3736	1421.9491	1427.7249	1464.3303	1473.6131	1483.7029	1488.7627	1496.3631	1652.9	3038.7046	3046.6672	3052.7667	3105.9626	3112.0033	3126.6174	3140.2986	3794.478
CC(O)C1=C(C)ON=N1	C[C@@H](O)c1c(C)onn1	
InChI=1S/C5H8N2O2/c1-3(8)5-4(2)9-7-6-5/h3,8H,1-2H3	InChI=1S/C5H8N2O2/c1-3(8)5-4(2)9-7-6-5/h3,8H,1-2H3/t3-/m1/s1
