19
gdb 6096	4.37515	1.11029	0.9398	6.9227	68.51	-0.2367	0.0362	0.2729	1238.8308	0.165678	-402.244586	-402.235719	-402.234775	-402.278391	32.438	
C	-0.1512543315	 1.5320265539	-0.0617743975	-0.396749
C	 0.1463980832	 0.035612751	 0.0869209794	 0.038121
N	 1.4473031964	-0.3472416764	-0.5065101899	-0.513124
H	 2.1653819934	 0.3115877733	-0.2104584036	 0.244732
H	 2.0035822386	-1.777303754	 0.319744216	 0.319057
H	 1.4095505039	-0.2916838863	-1.5199752047	 0.245004
C	 0.0874118932	-0.4174810403	 1.5547454552	-0.194269
C	 0.0729229919	-1.9466491229	 1.7843460946	-0.329661
C	 1.4244956441	-2.6543512426	 1.9427939312	 0.383321
O	 2.3353629361	-2.4349930957	 0.9892947539	-0.382246
O	 1.648322814	-3.3932069042	 2.8684404344	-0.333374
H	 0.5750987784	 2.1311376202	 0.5006911816	 0.119962
H	-0.1007881452	 1.8398131897	-1.111511133	 0.113598
H	-1.149204449	 1.7789504306	 0.3138097326	 0.126482
H	-0.6143871433	-0.5296617509	-0.4667392599	 0.09433
H	 0.9135665575	 0.0446769708	 2.1117639648	 0.108593
H	-0.8305453362	-0.0044445279	 1.9863128103	 0.110695
H	-0.4780482371	-2.1771779293	 2.697467956	 0.129389
H	-0.4657370183	-2.4323240688	 0.9590159984	 0.116138
57.4036	81.9713	179.1564	227.8796	249.17	266.5958	337.8806	348.4421	440.0747	446.6334	494.9698	596.6162	707.2585	785.5362	840.1161	919.8728	934.1685	948.765	956.946	996.3714	1040.5482	1060.2668	1099.0406	1150.1759	1183.3801	1220.2746	1295.4393	1321.8752	1331.923	1356.1723	1386.4668	1408.5335	1417.8753	1471.3416	1480.9508	1487.5811	1495.1416	1499.3692	1650.6692	1847.5633	3018.8817	3023.3859	3025.5876	3034.6385	3071.945	3094.8012	3106.5759	3117.8537	3175.4733	3475.3311	3559.2235
CC([NH3+])CCC([O-])=O	C[C@@H](N)CCC(=O)O	
InChI=1S/C5H11NO2/c1-4(6)2-3-5(7)8/h4H,2-3,6H2,1H3,(H,7,8)	InChI=1S/C5H11NO2/c1-4(6)2-3-5(7)8/h4H,2-3,6H2,1H3,(H,7,8)/t4-/m1/s1
