19
gdb 98091	4.19652	0.90487	0.79487	1.3438	80.52	-0.2253	-0.0533	0.1719	1479.6337	0.158829	-419.220546	-419.210756	-419.209811	-419.256451	34.703	
C	-0.1400006796	 1.3913959567	 0.0013945312	-0.308906
N	-0.085245522	-0.0376910174	-0.2027661713	-0.284381
C	 0.635341139	-0.5909964495	-1.2088288397	 0.25234
N	 1.2187104669	 0.1261898076	-2.101764716	-0.544811
C	 0.6619404625	-2.117611499	-1.1062790437	 0.35568
O	 0.2797380548	-2.6512435948	-0.0799746375	-0.354896
C	 1.1660715487	-2.9060177566	-2.256315435	-0.123683
C	 2.0308651664	-4.1233750468	-1.9341863993	-0.244634
C	 0.6338352138	-4.3260599163	-2.399856306	-0.249846
H	 0.846158956	 1.8105736671	 0.2407104127	 0.130161
H	-0.4924391255	 1.8881373034	-0.9075261728	 0.146102
H	-0.8302606647	 1.6090254434	 0.8189441672	 0.120022
H	-0.3584741504	-0.6737816606	 0.529388839	 0.260301
H	 1.7021257768	-0.4541153131	-2.7810307675	 0.216105
H	 1.3865891869	-2.3723507461	-3.1707133309	 0.097736
H	 2.8515036004	-4.3315925462	-2.610707127	 0.125116
H	 2.2373048548	-4.2840391257	-0.8824363053	 0.140763
H	-0.1018120813	-4.6220276245	-1.6611752392	 0.143169
H	 0.4609585465	-4.6808635215	-3.4090709289	 0.123661
43.5632	50.5916	104.3549	129.5892	167.9431	254.9736	272.432	317.9572	360.3375	471.3884	489.7119	546.7636	698.057	777.5947	791.9436	804.674	826.7051	829.8906	897.3058	910.3394	987.5123	1063.3464	1098.1054	1101.8623	1119.0347	1143.5319	1157.9423	1179.0742	1194.6714	1210.1504	1226.9909	1316.522	1413.5428	1454.1427	1454.9867	1475.0475	1484.5443	1511.8845	1557.7585	1693.4842	1755.8219	3018.3137	3082.8247	3131.5089	3143.5485	3145.293	3200.834	3231.6351	3246.5768	3533.3126	3637.9738
CNC(=N)C(=O)C1CC1	CNC(=N)C(=O)C1CC1	
InChI=1S/C6H10N2O/c1-8-6(7)5(9)4-2-3-4/h4H,2-3H2,1H3,(H2,7,8)	InChI=1S/C6H10N2O/c1-8-6(7)5(9)4-2-3-4/h4H,2-3H2,1H3,(H2,7,8)
