19
gdb 117050	4.13569	0.80331	0.7108	2.9981	76.23	-0.2446	-0.026	0.2185	1639.3039	0.15804	-456.380653	-456.370335	-456.369391	-456.417682	35.642	
C	-0.5062605489	 1.1987434217	-0.2485814516	-0.371576
C	 0.483844684	 0.105089879	 0.1595189613	-0.14452
N	 1.1280247181	-0.52189442	-0.9791618644	-0.312464
C	 0.9106087566	-1.8100362193	-1.3331084365	 0.356405
O	 0.1932188158	-2.5986380168	-0.7484819509	-0.3719
C	 1.6896540033	-2.2019332205	-2.5941293508	 0.331914
N	 2.4181798442	-1.3456413583	-3.1864196537	-0.55313
O	 1.4624015341	-3.4874607199	-2.9014703877	-0.197805
C	 2.1122706257	-4.0095196383	-4.0514828917	-0.264579
H	-0.0099062657	 1.9927326336	-0.8169721826	 0.114957
H	-1.3060695638	 0.7851722482	-0.8695245627	 0.131626
H	-0.9577224602	 1.6536699764	 0.6387759141	 0.11894
H	 1.2509443958	 0.5213839973	 0.8246360142	 0.107364
H	-0.0262562797	-0.6950054953	 0.7007554868	 0.147353
H	 1.742351469	 0.0046845115	-1.5843950503	 0.263652
H	 2.890764062	-1.7058231528	-4.0131968554	 0.224975
H	 3.2031778544	-3.9599331911	-3.9488118093	 0.13339
H	 1.8013731451	-5.051483064	-4.1255096712	 0.152099
H	 1.8085910501	-3.4721928016	-4.9582166076	 0.1333
28.4922	51.8164	72.3467	141.9919	161.8715	216.3662	237.3359	306.8805	343.715	367.856	431.0908	500.2203	522.1736	617.5851	724.2693	788.2421	818.2259	854.2189	887.6519	902.8216	1000.2569	1079.3873	1122.3793	1130.6427	1174.9616	1181.7086	1214.024	1233.5167	1319.8672	1365.3292	1392.9539	1410.5412	1472.8177	1487.4448	1492.127	1492.9874	1502.3143	1504.0838	1558.6287	1712.1537	1795.4207	3015.145	3026.3498	3035.6624	3078.909	3097.5734	3115.3685	3123.926	3152.6973	3507.0541	3600.0927
CCNC(=O)C(=N)OC	CCNC(=O)[C]([NH])OC	
InChI=1S/C5H10N2O2/c1-3-7-5(8)4(6)9-2/h6H,3H2,1-2H3,(H,7,8)	InChI=1S/C5H10N2O2/c1-3-7-5(8)4(6)9-2/h6H,3H2,1-2H3,(H,7,8)
