17
gdb 60748	2.00925	1.23698	1.07834	2.7448	74.68	-0.2516	-0.0401	0.2116	1239.5552	0.130922	-421.819633	-421.809424	-421.80848	-421.856313	35.26	
C	-1.0436307163	 1.0832091711	-1.564828752	-0.40953
C	 0.0971297465	 0.2293565326	-0.9964297242	-0.197045
C	-0.2094661258	-0.183682903	 0.4410466957	 0.165238
O	-0.0300127048	-1.2729238402	 0.9206820667	-0.24325
C	 0.4162672843	-0.9846260989	-1.8729116353	 0.399894
O	-0.3332080395	-1.3505635213	-2.7423624167	-0.294761
C	 1.7147696094	-1.7517513412	-1.575295157	-0.432939
C	 2.8892022802	-0.902939955	-1.436599549	 0.288337
C	 3.8475370002	-0.1843908375	-1.3332567831	-0.455369
H	-0.7646045025	 1.4953293371	-2.5365920979	 0.139897
H	-1.9440226014	 0.481342088	-1.7066846064	 0.148928
H	-1.2744944744	 1.9151588116	-0.8926952937	 0.118694
H	 1.0111993752	 0.837473464	-0.919820315	 0.139542
H	-0.6377225817	 0.64462792	 1.0491523688	 0.094064
H	 1.5334289176	-2.2952606282	-0.638255648	 0.181479
H	 1.8458408097	-2.4870761095	-2.374447436	 0.152717
H	 4.7053431133	 0.4348785303	-1.2408140069	 0.204105
25.0011	66.1743	79.4514	127.957	191.3193	199.8142	261.8326	312.3571	338.5023	383.0936	447.358	514.2811	606.0005	619.0365	649.8638	693.1401	716.684	884.5972	922.6584	937.2333	980.7246	1037.9428	1082.0771	1134.5145	1159.282	1209.6447	1277.4327	1296.3013	1319.7068	1406.1141	1429.7662	1445.4266	1488.4451	1501.2729	1814.5654	1829.5898	2236.2386	2881.8203	3012.4897	3031.9951	3052.2177	3095.0466	3125.5088	3139.5164	3504.1559
CC(C=O)C(=O)CC#C	C[C@@H](C=O)C(=O)CC#C	
InChI=1S/C7H8O2/c1-3-4-7(9)6(2)5-8/h1,5-6H,4H2,2H3	InChI=1S/C7H8O2/c1-3-4-7(9)6(2)5-8/h1,5-6H,4H2,2H3/t6-/m0/s1
