20
gdb 9557	2.63447	1.7381	1.62589	2.5271	70.88	-0.2432	0.0786	0.3217	961.1698	0.175433	-386.123431	-386.114473	-386.113529	-386.156384	33.701	
C	 0.0070627826	 1.2310482583	 0.1916396559	-0.247855
O	-0.026088917	-0.146222454	-0.1137773074	-0.305265
C	 0.6931465386	-0.5734357982	-1.2721713644	 0.378782
C	 0.1833952967	 0.0744527838	-2.5482994919	-0.474343
C	 2.2268335027	-0.6314626615	-0.9971876862	-0.277902
C	 2.0467942246	-2.0652242655	-0.4290253717	-0.261072
C	 0.6792668861	-2.1343445162	-1.1660982651	 0.136936
O	-0.427105551	-2.7298813494	-0.5575075448	-0.439633
H	 1.0335250784	 1.6186182154	 0.2520182813	 0.10998
H	-0.5495560401	 1.8323332929	-0.5393153931	 0.114736
H	-0.4662548226	 1.3485166529	 1.169734052	 0.128701
H	 0.3912677297	 1.1490988781	-2.581233371	 0.115981
H	 0.6689644187	-0.3792289198	-3.4173453053	 0.118425
H	-0.8975849955	-0.0718899227	-2.6435335396	 0.129255
H	 2.8005574307	-0.6143469651	-1.9280123638	 0.10163
H	 2.6348434389	 0.1270211012	-0.326002683	 0.101037
H	 2.7969467679	-2.8170036551	-0.6823892852	 0.095912
H	 1.9003022289	-2.05492293	 0.6535364753	 0.105936
H	 0.7923423351	-2.585509276	-2.1572338129	 0.080165
H	-0.7112955934	-2.1071464991	 0.1248827809	 0.288592
109.8607	124.6793	185.5831	201.42	214.5855	270.5134	320.0228	381.5672	392.6654	447.7618	472.8235	592.233	613.1606	718.0711	761.776	867.998	889.9775	938.3008	946.2554	979.5736	1097.9946	1113.8214	1136.9129	1156.5322	1165.6311	1183.2696	1193.0889	1220.3205	1238.4151	1255.3554	1268.2837	1313.0698	1346.893	1402.6254	1446.0704	1467.946	1478.5221	1485.4568	1487.0663	1490.8784	1505.1193	1514.0731	2999.718	3032.9999	3052.9919	3058.4912	3064.4552	3070.6935	3101.0859	3110.3076	3112.3582	3113.4932	3130.5598	3763.0676
COC1(C)CCC1O	CO[C@@]1(C)CC[C@H]1O	
InChI=1S/C6H12O2/c1-6(8-2)4-3-5(6)7/h5,7H,3-4H2,1-2H3	InChI=1S/C6H12O2/c1-6(8-2)4-3-5(6)7/h5,7H,3-4H2,1-2H3/t5-,6+/m1/s1
