18
gdb 55873	3.30805	0.88894	0.74764	1.7892	79.07	-0.2431	-0.0111	0.232	1508.8059	0.144323	-401.90791	-401.898034	-401.89709	-401.944236	35.048	
C	-0.0284591191	 1.459057141	 0.2702996059	-0.475804
C	 0.1043990275	-0.0404387605	 0.0851909718	 0.390855
O	 1.1644758118	-0.61196275	 0.1990114702	-0.296412
C	-1.1800924441	-0.7874944737	-0.2674606094	-0.328848
C	-1.0404080829	-2.280400604	-0.1206625797	 0.016755
N	-1.4232928888	-2.8424543893	 1.175954672	-0.324585
C	-2.2294387427	-3.1852228762	-0.0226392716	-0.266628
C	-3.5816927914	-2.7001835602	-0.079644849	 0.381092
C	-4.7152798571	-2.307733688	-0.1628988321	-0.448755
H	 0.9585303	 1.9144338045	 0.3592537071	 0.142485
H	-0.5790662297	 1.910010867	-0.5623642201	 0.135037
H	-0.6056539999	 1.6637927947	 1.1797924497	 0.148318
H	-2.0080249308	-0.4207948769	 0.3473230103	 0.137153
H	-1.4357232413	-0.5250855919	-1.3047965148	 0.129821
H	-0.1645459142	-2.6988630243	-0.6089832073	 0.10826
H	-0.8241674026	-3.6274598664	 1.41768952	 0.240971
H	-2.0964920978	-4.1816082174	-0.4395553374	 0.111804
H	-5.7178903067	-1.9631550485	-0.2226596555	 0.198482
32.9761	56.7076	86.9165	120.1719	168.2607	220.1691	314.4182	345.2953	418.3336	472.296	547.1435	569.8308	599.8358	618.3772	658.6454	798.1563	811.425	822.3789	873.8077	911.0261	958.2127	965.5391	1025.6362	1058.0672	1120.7556	1166.0259	1183.3587	1216.8942	1251.0482	1267.9053	1334.1568	1383.2764	1403.49	1432.8755	1461.4061	1470.6975	1475.8713	1812.2737	2239.1833	3016.3491	3036.1113	3087.2579	3097.5801	3123.0794	3151.7294	3153.0981	3504.1515	3508.1147
CC(=O)CC1NC1C#C	CC(=O)C[C@H]1N[C@H]1C#C	
InChI=1S/C7H9NO/c1-3-6-7(8-6)4-5(2)9/h1,6-8H,4H2,2H3	InChI=1S/C7H9NO/c1-3-6-7(8-6)4-5(2)9/h1,6-8H,4H2,2H3/t6-,7+/m0/s1
