17
gdb 38911	3.83415	1.55826	1.21704	3.2505	73.56	-0.2152	0.0084	0.2236	1003.9426	0.139376	-418.000949	-417.994258	-417.993313	-418.032019	26.431	
C	 0.0208921706	 1.3929532356	 0.0754362238	-0.173621
C	 1.458214564	 1.8276282691	-0.3545549934	-0.191276
N	 2.1787222772	 0.5712848424	-0.1712126493	-0.0922
C	 3.3624021397	 0.1409585958	-0.905465022	-0.212933
C	 3.2194645781	-1.3796162989	-0.9130984582	 0.04483
O	 3.0267290987	-1.9431352817	 0.3793100959	-0.240456
C	 1.8623552038	-1.7278006171	-0.4401548265	-0.109643
C	 1.2055134053	-0.4266932788	-0.1605911297	 0.440397
N	-0.0149911756	-0.083732369	-0.0357937894	-0.361112
H	-0.1757637231	 1.6763072341	 1.1171767313	 0.117469
H	-0.7614451603	 1.8458783239	-0.5393219323	 0.112506
H	 1.490729335	 2.1470575369	-1.4092858836	 0.094347
H	 1.8638036276	 2.6360106007	 0.2599041082	 0.113301
H	 3.36518982	 0.5166493075	-1.9420567457	 0.10295
H	 4.28969927	 0.4675243828	-0.4212983607	 0.124574
H	 3.7811862572	-1.9816115727	-1.6213652579	 0.110412
H	 1.2961453517	-2.6028362904	-0.7345575506	 0.120455
152.8137	167.4352	243.5044	348.6918	390.4931	431.9541	589.0273	708.7805	731.6109	763.9099	816.5213	849.728	859.4453	874.0493	928.7903	937.8928	981.8979	995.3263	1055.5264	1098.2402	1109.1971	1113.9026	1192.6827	1214.8105	1228.0364	1244.3869	1251.1176	1266.089	1303.0327	1326.2379	1350.3473	1399.6846	1423.98	1495.5996	1503.5968	1530.1617	1743.0421	2966.1568	2974.0137	3028.3787	3055.705	3078.0584	3090.228	3161.684	3203.4193
C1CN2CC3OC3C2=N1	C1CN2C[C@H]3O[C@H]3[C]2[N]1	
InChI=1S/C6H8N2O/c1-2-8-3-4-5(9-4)6(8)7-1/h4-5H,1-3H2	InChI=1S/C6H8N2O/c1-2-8-3-4-5(9-4)6(8)7-1/h4-5H,1-3H2/t4-,5-/m1/s1
