19
gdb 67634	2.39024	1.93796	1.58061	1.4771	77.46	-0.221	0.0936	0.3146	963.4212	0.159221	-385.843569	-385.835864	-385.834919	-385.875314	30.809	
C	-0.0781151028	 1.5128184191	 0.0257119368	-0.520471
C	 0.0161825543	 0.0179608884	-0.0097330805	 0.254371
C	 0.9204745848	-0.8307727571	-0.9315541929	-0.195721
C	 1.1002116095	-2.1020069689	-0.1262532803	 0.079257
O	 0.8405874155	-1.9039875272	 1.2350784057	-0.232437
C	-0.1621341609	-0.927475602	 1.1683715847	-0.030273
C	-1.054223731	-1.0840991758	-0.0536075174	 0.254365
C	-2.5514603125	-1.0336587211	-0.0756759424	-0.520471
C	-0.1428273808	-1.9255354396	-0.9751205618	-0.195726
H	 0.8758279227	 1.961509592	 0.3287516051	 0.124286
H	-0.3442813045	 1.9270365445	-0.9536214099	 0.120162
H	-0.8386624905	 1.8437038248	 0.7407171922	 0.118517
H	 1.5980160968	-0.470520558	-1.6937400218	 0.087629
H	 1.8654941042	-2.8369075254	-0.3367958389	 0.10598
H	-0.5368001951	-0.6018767454	 2.1306555112	 0.099936
H	-2.9331244712	-0.3126781342	 0.6548508164	 0.118518
H	-2.9341884288	-0.7394604514	-1.0597909146	 0.120164
H	-2.9831024188	-2.0115167753	 0.1705806371	 0.124286
H	-0.4520528308	-2.5812446074	-1.7777391688	 0.08763
158.7141	174.4282	188.3123	226.6824	277.2741	310.9307	535.7381	589.9818	602.1902	654.2473	711.5284	757.7227	767.7746	775.2449	830.0518	874.565	883.1515	963.3084	963.4794	977.1364	992.9355	999.5602	1034.5863	1068.7936	1099.3884	1103.8329	1122.2669	1164.6966	1183.2068	1220.0626	1246.7361	1264.3058	1337.5422	1371.7252	1410.2424	1416.9128	1462.1166	1482.6583	1485.7255	1495.0261	1504.276	3017.2582	3019.8926	3075.4323	3076.5125	3089.7466	3093.3154	3199.8084	3202.3233	3206.1266	3220.256
CC12C3C4OC1C2(C)C34	C[C@@]12[C@H]3[C@H]4O[C@@H]1[C@]2(C)[C@@H]34	
InChI=1S/C8H10O/c1-7-3-4-5(3)9-6(7)8(4,7)2/h3-6H,1-2H3	InChI=1S/C8H10O/c1-7-3-4-5(3)9-6(7)8(4,7)2/h3-6H,1-2H3/t3-,4+,5-,6+,7-,8+
