19
gdb 95741	3.03838	1.15389	0.88246	0.6336	88.45	-0.2299	-0.0188	0.2111	1325.0538	0.1586	-385.874513	-385.865704	-385.86476	-385.907855	33.753	
C	 0.0130742103	 1.5391942337	-0.075935563	-0.394839
C	 0.0008406797	 0.012224807	-0.0099977888	 0.094331
O	 0.6229738983	-0.4573160514	-1.195880141	-0.259591
C	 0.9361632714	-1.8378486663	-1.1491898119	-0.092035
C	 2.001535961	-2.1222406418	-0.0907181917	-0.304888
C	 1.6110722357	-1.4613746815	 1.2186648797	 0.132506
C	 0.6708695164	-0.5044886254	 1.2358201098	-0.160557
C	 2.2657951605	-1.9015600196	 2.4020664381	 0.214607
C	 2.8497529459	-2.3091605469	 3.3743888091	-0.407652
H	 1.0416847151	 1.9100421858	-0.0677439126	 0.128506
H	-0.4719572932	 1.8734977766	-0.9966945871	 0.127026
H	-0.5221769355	 1.965612091	 0.7774370285	 0.115725
H	-1.0543824323	-0.3254436369	 0.0022481427	 0.07663
H	 0.0305654039	-2.4293999513	-0.9358680526	 0.091776
H	 1.2872934314	-2.1079817259	-2.1489593134	 0.108158
H	 2.1112532093	-3.2025498193	 0.0565103598	 0.114721
H	 2.978527852	-1.7482920166	-0.4209673178	 0.124229
H	 0.3615409963	-0.0586298769	 2.1765135274	 0.098989
H	 3.3562114139	-2.6559005243	 4.240683835	 0.192358
99.3192	114.8473	148.3369	235.9498	283.6221	293.662	351.4396	407.7063	467.0603	520.2262	538.7805	578.1365	594.7222	637.3942	651.8412	792.1463	834.9749	891.0737	908.465	947.064	1000.4473	1030.8259	1078.6868	1101.8803	1123.9731	1168.1017	1180.8825	1238.5352	1290.8003	1308.2949	1345.9245	1358.1738	1372.311	1402.9853	1414.6598	1470.1419	1483.8635	1496.2255	1501.0065	1692.2693	2219.0443	2903.2548	2971.7618	3031.653	3045.3625	3071.9807	3088.1785	3122.7254	3127.5125	3175.5019	3503.5651
CC1OCCC(=C1)C#C	C[C@H]1OCCC(=C1)C#C	
InChI=1S/C8H10O/c1-3-8-4-5-9-7(2)6-8/h1,6-7H,4-5H2,2H3	InChI=1S/C8H10O/c1-3-8-4-5-9-7(2)6-8/h1,6-7H,4-5H2,2H3/t7-/m1/s1
