18
gdb 17135	5.03316	1.34118	1.28188	1.4937	67.89	-0.2448	0.0812	0.326	1021.7984	0.153273	-384.903881	-384.896043	-384.895099	-384.936444	28.85	
C	-0.4736044584	 1.2507107754	 0.194412678	-0.401215
C	 0.3985373672	 0.0135244138	 0.1758550547	 0.176911
C	 0.8553805666	-0.5480735675	-1.1887610829	-0.312546
C	 2.2850462976	-0.3412791198	-0.6347596432	 0.10428
O	 1.77550802	 0.3027902349	 0.5486070602	-0.308515
C	 3.052626286	-1.603372703	-0.3255274892	 0.059008
C	 3.5550244974	-1.8829841364	 1.0237510815	-0.168547
O	 2.3915545977	-2.5477457213	 0.5160685181	-0.237237
H	-0.0776710893	 2.0178347664	-0.4785402712	 0.117081
H	-1.4934138828	 1.0020147568	-0.1196800944	 0.116855
H	-0.5212954057	 1.6706995353	 1.2041680883	 0.127284
H	-0.0095064718	-0.7593729995	 0.8383926362	 0.089277
H	 0.5761531626	-1.5803825834	-1.4016250875	 0.120268
H	 0.6044980241	 0.0884453727	-2.0395492013	 0.104963
H	 2.9282997783	 0.3345471413	-1.2149669845	 0.077524
H	 3.5700317888	-2.0432119997	-1.1811958062	 0.089265
H	 4.4329988408	-2.5137780279	 1.1533336297	 0.111229
H	 3.357916421	-1.1568449982	 1.8075905335	 0.134116
65.2999	111.8226	190.6258	220.8986	234.7117	336.866	428.4447	471.1818	614.9796	722.6339	766.4017	852.6954	888.7491	890.5873	916.5463	941.4814	980.241	1002.2044	1055.3907	1087.0869	1106.3985	1114.0388	1143.8645	1164.9706	1170.778	1205.2659	1257.1341	1268.3522	1284.9327	1324.49	1365.2449	1390.7792	1408.6745	1425.9864	1481.7285	1486.7628	1495.587	1515.7296	3009.1276	3030.6543	3032.685	3078.6872	3086.4494	3097.918	3104.6993	3111.1889	3140.4428	3197.7816
CC1CC(O1)C1CO1	C[C@H]1C[C@@H](O1)[C@H]1CO1	
InChI=1S/C6H10O2/c1-4-2-5(8-4)6-3-7-6/h4-6H,2-3H2,1H3	InChI=1S/C6H10O2/c1-4-2-5(8-4)6-3-7-6/h4-6H,2-3H2,1H3/t4-,5+,6+/m0/s1
