14
gdb 127705	3.2922	1.50845	1.04127	5.568	71.86	-0.232	-0.0566	0.1754	1072.0627	0.10136	-466.164753	-466.156658	-466.155714	-466.197504	29.362	
C	-0.0153158122	 1.4674846374	 0.0104201331	-0.299633
N	-0.0027101804	 0.0106702608	 0.0125113275	 0.130197
N	-0.0409387155	-0.5855625899	-1.1548304928	-0.074244
N	-0.032305777	-1.8793026633	-1.2341424201	-0.287007
C	 0.0178921532	-2.6369284438	-0.0769111982	 0.376978
O	 0.0290495894	-3.8580211987	-0.0672436475	-0.372976
C	 0.0589026975	-1.879353611	 1.194850694	 0.350967
N	 0.1081143335	-2.6173378355	 2.3101998863	-0.535405
N	 0.0482389892	-0.569484573	 1.2322015356	-0.333503
H	 0.8914667556	 1.8404392218	 0.4925728193	 0.155765
H	-0.0600166202	 1.7934710556	-1.0266208922	 0.17042
H	-0.8864988947	 1.8248373678	 0.5645524897	 0.155791
H	 0.1104807511	-3.6172560277	 2.1796454585	 0.289787
H	 0.1364423406	-2.1991269805	 3.2234372068	 0.272863
89.7433	137.4334	174.2885	215.521	300.3698	349.515	355.5373	458.5341	508.9045	548.0624	590.3607	605.3613	621.8742	719.8755	829.7384	832.7418	989.2819	1036.9307	1131.6855	1151.778	1222.6622	1317.3717	1326.7086	1380.3726	1445.9285	1475.1416	1475.6656	1507.6243	1573.8893	1660.6415	1753.4732	3060.545	3129.5113	3187.4735	3590.5115	3736.9354
CN1N=NC(=O)C(N)=N1	Cn1nnc(=O)c(N)n1	
InChI=1S/C3H5N5O/c1-8-6-2(4)3(9)5-7-8/h1H3,(H2,4,6)	InChI=1S/C3H5N5O/c1-8-6-2(4)3(9)5-7-8/h1H3,(H2,4,6)
