15
gdb 132157	3.19426	1.32913	0.94063	6.0203	75.5	-0.1918	-0.005	0.1869	1151.0026	0.114583	-458.122502	-458.114771	-458.113827	-458.154454	30.253	
N	 0.0954195856	 1.3964732302	 0.1348489645	-0.590847
C	-0.0100686469	 0.0055157328	 0.0262296806	 0.408441
C	-1.1704225336	-0.6978862224	 0.0065551479	-0.249571
C	-1.2072991259	-2.1497946893	 0.0011524046	 0.213971
N	-2.3157430008	-2.8099159466	-0.0056256681	-0.573109
C	 0.1292644468	-2.7460945531	-0.0230050567	 0.16389
F	 0.1965923206	-4.0831415792	-0.0604914832	-0.084407
C	 1.2617266138	-2.0242630052	-0.0158119856	-0.115843
N	 1.2078715871	-0.6406632893	-0.0178579188	-0.386631
H	 0.6922993397	 1.8094008146	-0.5733279237	 0.250942
H	-0.8089220371	 1.8484139278	 0.1257537598	 0.260501
H	-2.1195881121	-0.1766815295	-0.0223520016	 0.097476
H	-2.1146998791	-3.8109478533	-0.0249323675	 0.207239
H	 2.2434527098	-2.4781083871	-0.0297916919	 0.136975
H	 2.0190844721	-0.1265795604	 0.2859501896	 0.260972
125.1271	189.4063	293.7964	315.2743	339.9022	364.9817	406.6258	436.4672	445.0157	521.5862	596.2595	634.1731	715.6781	750.6075	759.8669	795.4085	843.3233	860.1244	875.427	973.4457	1102.0262	1148.8255	1205.8034	1243.4371	1284.1835	1313.0637	1398.369	1428.2701	1542.8481	1630.2222	1650.5082	1682.1097	1733.3359	3205.2422	3224.8776	3463.1014	3525.2463	3631.8877	3640.4871
NC1=CC(=N)C(F)=CN1	N[C@@H]1C=C([NH])C(=CN1)F	
InChI=1S/C5H6FN3/c6-3-2-9-5(8)1-4(3)7/h1-2H,(H4,7,8,9)	InChI=1S/C5H7FN3/c6-3-2-9-5(8)1-4(3)7/h1-2,5,7,9H,8H2/t5-/m0/s1
