24
gdb 113848	3.56202	0.87381	0.76696	1.1829	91.18	-0.2191	0.0835	0.3026	1609.0699	0.217491	-368.37549	-368.365821	-368.364877	-368.410655	36.377	
C	 1.5079415423	 0.519342804	 1.1144516921	-0.380595
C	 0.5798578823	 0.8622502793	-0.0573073852	-0.200718
C	 0.9062440854	 0.0362204465	-1.2870346532	 0.029021
C	 0.2317711826	-1.2672250704	-1.5500435639	-0.259144
N	 0.0063609434	-0.1245086731	-2.434214664	-0.099689
C	-1.3062118523	 0.4891197841	-2.4274837001	 0.097251
C	-1.4057174785	 1.9245818098	-3.0058228574	-0.233142
C	-2.7113802294	 1.4974288738	-3.7302218657	-0.214306
C	-2.2810808401	 0.0169808452	-3.5393420839	-0.235166
H	 1.4015572029	-0.5305328571	 1.4065836849	 0.119548
H	 2.5578231692	 0.6838862148	 0.8483051899	 0.117451
H	 1.2856519937	 1.1380558243	 1.9891036759	 0.112807
H	-0.460216328	 0.7055096562	 0.2455015129	 0.100339
H	 0.6767875695	 1.928557445	-0.3001513967	 0.103622
H	 1.9485876	 0.1262208242	-1.5958030954	 0.08397
H	 0.7698050961	-2.1083668939	-1.9798320442	 0.109475
H	-0.5741919858	-1.5463487148	-0.8705525635	 0.101641
H	-1.8081424541	 0.4361092901	-1.4485562374	 0.052184
H	-1.4510125763	 2.759098698	-2.3016691837	 0.090224
H	-0.5901073974	 2.0969155909	-3.7135126648	 0.108523
H	-3.6032562293	 1.7439706609	-3.1469796838	 0.099454
H	-2.8599265245	 1.8515380889	-4.7523969585	 0.098297
H	-1.713228083	-0.3523536969	-4.3975719707	 0.108941
H	-3.0463698287	-0.7161063998	-3.2730116036	 0.090011
53.3224	86.5903	108.9175	150.4551	190.366	231.7217	284.3529	343.492	385.5889	450.7329	562.0457	609.1944	733.5729	771.3528	788.5179	810.8165	871.596	907.9964	926.5771	933.8122	952.3422	959.4487	979.685	1031.4407	1043.5689	1081.8106	1084.8174	1113.7627	1131.7153	1149.9826	1184.0444	1197.4255	1201.3805	1245.4811	1250.455	1260.58	1274.9509	1287.5507	1300.809	1335.0545	1345.1679	1384.433	1409.6347	1427.9052	1473.9042	1486.2483	1486.7816	1497.8925	1507.2317	1508.3403	1511.9527	2965.8086	3023.837	3033.0555	3056.6839	3057.4256	3063.716	3069.0352	3080.4603	3091.3981	3102.0198	3104.7271	3107.1199	3113.0072	3124.4082	3167.9708
CCC1CN1C1CCC1	CC[C@H]1CN1C1CCC1	
InChI=1S/C8H15N/c1-2-7-6-9(7)8-4-3-5-8/h7-8H,2-6H2,1H3	InChI=1S/C8H15N/c1-2-7-6-9(7)8-4-3-5-8/h7-8H,2-6H2,1H3/t7-,9?/m0/s1
