20
gdb 114023	3.18386	0.75394	0.67704	3.9628	77.8	-0.2295	-0.0171	0.2124	1675.652	0.168446	-440.248391	-440.23824	-440.237296	-440.284921	35.386	
O	-0.1477608073	 1.6294355224	 0.2910381243	-0.402914
C	-0.073770599	 0.22599788	 0.4951594419	-0.117009
C	-1.3649464238	-0.4551789302	 0.0850084114	 0.003717
C	-2.604829192	 0.3199949837	-0.1944653917	-0.250373
N	-1.9272469317	-0.4126213477	-1.264926133	-0.09223
C	-1.2539484148	 0.3577830916	-2.3075113196	-0.162451
C	-2.2424577553	 0.6562223722	-3.4444655576	-0.264509
C	-1.5479101959	 1.2156653439	-4.6622205818	 0.156892
O	-1.8217278044	 2.2553942635	-5.2043283833	-0.237967
H	 0.7228971107	 2.0039765455	 0.4548805812	 0.29253
H	 0.7656194455	-0.2110379669	-0.0699697273	 0.097358
H	 0.0988447322	-0.0061980276	 1.5580948913	 0.100239
H	-1.462154921	-1.4371475581	 0.5472129188	 0.093332
H	-3.5770290836	-0.0638345261	 0.1032824564	 0.111382
H	-2.5069524182	 1.4025120203	-0.1786281411	 0.134104
H	-0.8145768729	 1.2924987981	-1.9349189734	 0.12434
H	-0.4328430082	-0.2602478421	-2.6951037981	 0.097967
H	-2.7224358443	-0.2897750085	-3.7316441358	 0.127382
H	-3.0207282733	 1.3549844027	-3.1258821932	 0.121631
H	-0.7219608229	 0.5719858934	-5.0507207293	 0.06658
46.9074	67.6612	90.6973	124.9006	129.5478	235.7537	245.573	262.0556	314.513	397.0349	446.735	528.4348	624.4969	750.165	781.8649	811.3339	868.7375	927.3535	969.5633	1001.855	1036.8152	1046.6584	1094.3524	1099.4923	1122.1546	1132.7456	1166.4377	1172.6685	1230.2569	1236.1905	1272.8906	1277.2238	1324.3794	1337.277	1396.9375	1418.0803	1431.8663	1458.5197	1466.4925	1501.3257	1513.5794	1520.5194	1836.4582	2840.3869	2966.495	2991.9715	3007.4656	3023.9259	3048.4798	3103.7722	3106.6337	3109.8424	3192.6763	3828.9533
OCC1CN1CCC=O	OC[C@H]1CN1CCC=O	
InChI=1S/C6H11NO2/c8-3-1-2-7-4-6(7)5-9/h3,6,9H,1-2,4-5H2	InChI=1S/C6H11NO2/c8-3-1-2-7-4-6(7)5-9/h3,6,9H,1-2,4-5H2/t6-,7?/m1/s1
