19
gdb 39440	2.47245	2.00224	1.36386	1.8715	74.51	-0.249	0.0807	0.3297	978.4568	0.161459	-422.996682	-422.989567	-422.988623	-423.027968	29.106	
C	 0.0021419909	 1.5086956641	 0.005244539	-0.399899
C	 1.2943594456	 0.7350853385	 0.0363370484	 0.042231
O	 1.9802275798	 0.6760269962	 1.2601265686	-0.242405
C	 1.9271844666	-0.616113366	 1.817460618	 0.007045
O	 0.6278433303	-0.9844178166	 2.2031321086	-0.249643
C	-0.3019711718	-0.9634792455	 1.1357445135	 0.087894
C	-0.3143997722	-2.1140020176	 0.0809060454	-0.257577
C	-0.4486238283	-1.0374053127	-1.040460286	-0.31459
C	-0.0188043539	 0.0088795743	-0.010731747	 0.28457
H	-0.2887106501	 2.0150139785	 0.9200098759	 0.126512
H	-0.2463571862	 2.032809222	-0.9122784174	 0.11416
H	 1.9443251848	 0.7517302715	-0.8379263042	 0.089758
H	 2.3491360015	-1.3486599385	 1.107874581	 0.078349
H	 2.5254287087	-0.592465244	 2.7298791396	 0.119361
H	-1.2833717593	-0.8242551545	 1.5984263885	 0.087813
H	 0.6446980758	-2.6353989912	 0.0390969434	 0.111008
H	-1.1133742256	-2.8518331114	 0.1722259566	 0.104285
H	 0.1833046853	-1.1568742857	-1.924346416	 0.103197
H	-1.4838555321	-0.9023005313	-1.3682646561	 0.107931
133.9138	185.9675	272.9702	314.5643	418.2922	438.3898	486.039	532.1781	559.6463	670.8097	768.0381	776.7268	834.1993	867.5296	894.764	927.0842	936.2192	988.365	1021.6998	1027.7292	1046.6869	1064.5183	1098.7357	1117.367	1129.0114	1173.032	1180.173	1215.1454	1226.4016	1242.1562	1270.4279	1279.5015	1307.9914	1333.335	1383.8522	1404.0289	1443.2189	1474.8799	1480.4987	1497.2862	1514.4462	2951.7661	3051.3191	3063.7058	3072.682	3098.0132	3105.7549	3118.9384	3125.9942	3130.3474	3215.8621
C1C2OCOC3CCC123	C1[C@H]2OCO[C@@H]3CC[C@]123	
InChI=1S/C7H10O2/c1-2-7-3-6(7)9-4-8-5(1)7/h5-6H,1-4H2	InChI=1S/C7H10O2/c1-2-7-3-6(7)9-4-8-5(1)7/h5-6H,1-4H2/t5-,6-,7-/m1/s1
