20
gdb 113233	2.89121	1.11345	0.98612	3.6595	75.45	-0.2397	0.0485	0.2881	1283.1882	0.170483	-440.230782	-440.221401	-440.220457	-440.265316	35.285	
O	 0.1872478289	 0.5089389126	 0.9274771255	-0.42511
C	-0.2690046697	 0.2490247011	-0.388213404	-0.073068
C	-1.5886638394	-0.4981650895	-0.409198927	-0.0694
C	-1.8068445106	-1.5969335541	-1.4339625708	-0.369297
C	-1.6122868519	-1.9413719172	 0.0214861652	 0.348362
O	-0.360516546	-2.4421018236	 0.4385937791	-0.471598
C	-2.7768156146	-2.4552158413	 0.8179776208	-0.014437
C	-2.7692236505	-3.824330813	 1.3902160834	-0.257093
N	-2.6521062532	-2.6449906428	 2.2682708804	-0.320024
H	 0.371274433	-0.3523151213	 1.3191404662	 0.29097
H	-0.3878958858	 1.2252932667	-0.869781545	 0.109067
H	 0.4804444438	-0.3114676422	-0.9644737664	 0.084521
H	-2.4543576602	 0.0912015731	-0.1208223812	 0.10134
H	-2.7911211928	-1.7313757269	-1.8696096244	 0.118564
H	-0.981202568	-1.8066397944	-2.1071641984	 0.114343
H	-0.2109618954	-3.2946498419	 0.0166328028	 0.293372
H	-3.7308668194	-2.0311812419	 0.5107034801	 0.090453
H	-3.6965104473	-4.382258804	 1.4838235607	 0.119505
H	-1.8858546152	-4.439422434	 1.2397575251	 0.094466
H	-1.6723046459	-2.5288934354	 2.5211428781	 0.235064
54.8012	89.7598	121.6624	190.7672	259.1984	294.4498	315.0846	341.6651	420.5877	445.8609	464.6628	536.9526	592.6617	720.0226	804.2675	841.4865	860.0037	895.4504	922.9122	957.9767	968.3474	1013.0545	1031.2454	1048.9666	1070.6415	1086.7231	1105.4007	1144.1687	1153.4992	1177.6161	1221.8797	1245.6647	1272.5884	1278.8334	1303.1639	1337.5058	1374.8721	1406.4822	1427.1646	1442.6655	1483.8008	1500.5698	1509.762	3003.1174	3073.1191	3108.4895	3124.9151	3128.1107	3153.6359	3191.6046	3215.1022	3489.2303	3804.5076	3806.6848
OCC1CC1(O)C1CN1	OC[C@H]1C[C@]1(O)[C@H]1CN1	
InChI=1S/C6H11NO2/c8-3-4-1-6(4,9)5-2-7-5/h4-5,7-9H,1-3H2	InChI=1S/C6H11NO2/c8-3-4-1-6(4,9)5-2-7-5/h4-5,7-9H,1-3H2/t4-,5-,6-/m1/s1
