19
gdb 120101	4.07683	0.97994	0.89808	1.3999	75.37	-0.2351	0.0539	0.289	1348.6517	0.157792	-422.920747	-422.912359	-422.911415	-422.954337	31.585	
C	 0.1346211026	 1.3990859955	 0.1926684227	-0.225142
O	 0.201620838	 0.0015434399	 0.0686947124	-0.245889
C	 0.3749659536	-0.4167159637	-1.2774067757	-0.091903
C	 0.4288300176	-1.9387474239	-1.2492526859	-0.010461
C	-0.1962680919	-2.9255673337	-2.2008597131	-0.132985
C	 0.0049036229	-2.5455452465	-3.6992293312	 0.0199
O	 0.7013193982	-1.2916761425	-3.7820208415	-0.239708
C	 1.4507068604	-2.491192221	-3.5297792191	 0.019893
C	 1.3280293905	-2.8683029664	-2.022215305	-0.132981
H	 1.0555060751	 1.8885594487	-0.1644347404	 0.100683
H	-0.7126748542	 1.8221563462	-0.3714569856	 0.100682
H	 0.0018068052	 1.6305524908	 1.2527993092	 0.121375
H	-0.4569243585	-0.0536973839	-1.8970261364	 0.098238
H	 1.2981572904	 0.0122250191	-1.6914995078	 0.098242
H	 0.321393588	-2.2830173652	-0.2222405726	 0.112009
H	-0.8770722897	-3.7036508341	-1.880284617	 0.093788
H	-0.6176490351	-2.8307612783	-4.538217989	 0.110234
H	 2.2695281995	-2.7222208055	-4.1998386363	 0.110234
H	 1.9720922229	-3.5966213955	-1.5463877571	 0.09379
62.3336	100.3023	146.7823	218.9189	255.4402	281.9748	381.967	457.7113	502.7478	685.5105	727.7429	738.126	761.3414	812.7733	865.6078	897.3441	926.7895	947.2294	981.4108	1001.0664	1012.3469	1017.8004	1046.8849	1061.929	1103.5072	1154.3467	1177.5039	1186.8239	1225.3727	1231.731	1243.7477	1260.3649	1277.9218	1312.7495	1352.6346	1405.808	1447.553	1479.4424	1483.8349	1497.8212	1519.0108	2962.0088	2994.9478	3003.4829	3026.3926	3106.7722	3136.7651	3183.5816	3193.875	3196.2348	3206.3854
COCC1C2C3OC3C12	COC[C@H]1[C@H]2[C@H]3O[C@H]3[C@@H]12	
InChI=1S/C7H10O2/c1-8-2-3-4-5(3)7-6(4)9-7/h3-7H,2H2,1H3	InChI=1S/C7H10O2/c1-8-2-3-4-5(3)7-6(4)9-7/h3-7H,2H2,1H3/t3-,4+,5-,6+,7-
