27
gdb 121840	2.49429	0.81449	0.73074	0.9127	93.3	-0.2438	0.0807	0.3245	1794.1301	0.248549	-390.704445	-390.692272	-390.691328	-390.742253	44.31	
C	 0.1811601784	 1.4509991495	 0.0426380041	-0.383094
C	-0.0097865892	-0.0661784174	-0.0189851693	-0.174358
C	-1.4749114629	-0.47547498	 0.0864453134	-0.048134
O	-1.53521921	-1.8855144653	 0.0206768916	-0.290827
C	-2.8213288987	-2.523924858	 0.0172902487	 0.374331
C	-3.6656148548	-2.1038926738	 1.2321946453	-0.425551
C	-3.5732232995	-2.2121632966	-1.2877384038	-0.419292
C	-2.4867971202	-4.0297641187	 0.0571025277	-0.175351
C	-1.6986000438	-4.4908059148	 1.2860705762	-0.393669
H	 1.2391152859	 1.7183087999	-0.0340427467	 0.115762
H	-0.3476193222	 1.9538952131	-0.7747959242	 0.114571
H	-0.1973512785	 1.8641250667	 0.9843235529	 0.114703
H	 0.3948597441	-0.4638634808	-0.9567230928	 0.103177
H	 0.5457181262	-0.5533197223	 0.7907039157	 0.10339
H	-1.8973578777	-0.1014589902	 1.0323084094	 0.083444
H	-2.0484819516	-0.0091966974	-0.7301408813	 0.081736
H	-4.0059086868	-1.0677166853	 1.1487404653	 0.112851
H	-4.5563234579	-2.7355855314	 1.3081276987	 0.112787
H	-3.0963129012	-2.201867554	 2.1600794455	 0.122483
H	-2.9528697528	-2.4664655369	-2.1522635796	 0.117029
H	-4.4986757053	-2.7939913423	-1.3440672719	 0.111645
H	-3.8473907659	-1.1555789263	-1.3593189935	 0.111178
H	-3.4245094812	-4.5928701475	-0.0221345029	 0.08688
H	-1.9072562949	-4.2552629507	-0.8457671188	 0.097563
H	-1.4117291957	-5.5421067863	 1.1845546788	 0.106084
H	-0.7889131752	-3.8967532934	 1.4007235564	 0.131079
H	-2.2831635386	-4.3998629398	 2.2069981751	 0.109582
43.2989	65.3061	99.4506	128.9253	141.9717	208.2921	230.5122	240.3699	242.2163	276.5731	309.298	318.2584	366.7492	383.7305	467.6112	478.3753	535.9633	736.3166	766.7169	782.9924	868.467	904.1846	909.7832	916.9008	939.0906	995.6591	1010.891	1049.4885	1068.9518	1076.3866	1115.8936	1145.2416	1190.3813	1206.8295	1217.0102	1262.9828	1268.9398	1318.9379	1325.9199	1335.343	1373.6705	1394.4684	1405.415	1410.3296	1413.0928	1430.4573	1472.4291	1481.7677	1491.3006	1493.1009	1497.5139	1500.6656	1503.4171	1507.0617	1509.9776	1516.1682	1530.625	2970.1391	2998.4092	3028.3688	3030.4901	3038.0442	3038.2264	3042.0578	3045.7896	3065.9793	3070.7802	3098.7184	3102.4583	3104.6489	3106.2658	3110.9422	3114.5654	3123.4774	3129.1817
CCCOC(C)(C)CC	CCCOC(C)(C)CC	
InChI=1S/C8H18O/c1-5-7-9-8(3,4)6-2/h5-7H2,1-4H3	InChI=1S/C8H18O/c1-5-7-9-8(3,4)6-2/h5-7H2,1-4H3
