21
gdb 114904	3.0817	1.16067	1.04819	0.5895	76.88	-0.2469	0.0683	0.3153	1225.5868	0.184487	-424.214339	-424.206004	-424.20506	-424.247548	32.314	
O	-0.1299319022	 1.6703630862	 0.2630657839	-0.422111
C	-0.0392266996	 0.2666481838	 0.4624177586	-0.086126
C	-1.2914626612	-0.4599244908	-0.0056045945	 0.008492
C	-1.5297022247	-0.5551976023	-1.5449738461	-0.295515
C	-1.763633403	-2.0898809138	-1.4089006537	 0.128038
O	-0.8419252916	-2.9319007881	-2.0705110836	-0.253064
C	 0.3636816667	-2.9353900219	-1.3136642051	-0.090087
C	-0.0693678405	-2.8397251281	 0.1602368941	-0.238566
C	-1.3712377728	-2.0187415232	 0.1016273855	-0.079023
H	-0.2544863654	 1.822022139	-0.6796477075	 0.284106
H	 0.854896636	-0.1418616039	-0.03683347	 0.082359
H	 0.102296091	 0.1290932919	 1.5403741947	 0.109613
H	-2.1467438275	 0.0017390387	 0.4966237499	 0.080688
H	-2.3728175961	 0.0160674105	-1.9399145643	 0.103516
H	-0.6452538139	-0.329651479	-2.1510972823	 0.099501
H	-2.7683490585	-2.4308151857	-1.6662253417	 0.079693
H	 0.9059515002	-3.8531388731	-1.5555772198	 0.110454
H	 1.0021962275	-2.0816749101	-1.5912870861	 0.090414
H	-0.2928875398	-3.8389189	 0.545550463	 0.108191
H	 0.7056293138	-2.4053261262	 0.7966751456	 0.106483
H	-2.1059314283	-2.3784749836	 0.8233317194	 0.072943
74.2711	109.6228	171.8336	238.05	271.396	328.7901	404.3748	419.4748	467.4971	592.3901	672.9169	738.2964	786.0601	833.8131	874.2777	881.8428	911.0493	928.3119	962.7912	986.5447	1038.0097	1049.2084	1057.3193	1083.372	1101.6753	1136.9093	1153.94	1191.7391	1218.4912	1228.1988	1240.1429	1255.9694	1261.9924	1278.3641	1321.2666	1332.7225	1340.1209	1357.7564	1393.0801	1397.3867	1420.277	1476.0002	1489.2945	1505.9365	1521.2377	2969.641	2978.1726	3045.6439	3054.6523	3057.9487	3066.8629	3084.9334	3091.2644	3096.7116	3108.1645	3111.4198	3810.793
OCC1CC2OCCC12	OC[C@H]1C[C@H]2OCC[C@@H]12	
InChI=1S/C7H12O2/c8-4-5-3-7-6(5)1-2-9-7/h5-8H,1-4H2	InChI=1S/C7H12O2/c8-4-5-3-7-6(5)1-2-9-7/h5-8H,1-4H2/t5-,6+,7-/m1/s1
