16
gdb 64875	3.67639	0.95453	0.89656	3.433	72.59	-0.2583	0.0042	0.2626	1299.4354	0.124421	-434.075021	-434.066039	-434.065095	-434.110112	31.424	
N	-0.2643874234	 1.2851599333	 0.2541033256	-0.537208
C	 0.0760562984	-0.0860895237	-0.0928527953	 0.12244
C	 0.4332205077	-0.9461709397	 1.170706265	-0.200602
N	-0.8045564812	-1.6901646782	 0.9556879201	-0.040364
C	-1.1967101378	-0.9869369324	-0.2588699921	-0.189695
C	-1.519342389	-2.5541753934	 1.7131511092	 0.137219
O	-2.6162424078	-2.9733867715	 1.4109809136	-0.321953
C	 1.0480120455	-0.1968098627	-1.1887809686	 0.230283
N	 1.8168311845	-0.2339995116	-2.051882209	-0.331482
H	 0.5765511123	 1.8102013611	 0.4807943135	 0.248432
H	-0.6900979227	 1.7508021613	-0.5434276004	 0.250155
H	 1.3447039032	-1.5447002496	 1.0783239806	 0.136843
H	 0.460959415	-0.3497357759	 2.0876251439	 0.134982
H	-2.1331850919	-0.4293461746	-0.1706853498	 0.141683
H	-1.2152461905	-1.6147063115	-1.1539471174	 0.142291
H	-0.9806254424	-2.8391526509	 2.6396889111	 0.076977
23.3501	90.1086	142.3838	190.4481	201.604	273.7447	305.8917	395.78	398.5726	460.7828	570.5998	601.046	658.4715	811.2565	876.0384	907.6055	947.3952	948.5557	964.0101	1033.6141	1146.4278	1152.7772	1169.7529	1216.2747	1252.236	1295.7778	1296.7545	1336.3255	1401.4995	1452.9808	1494.0482	1510.0716	1660.1424	1795.4022	2345.2737	2930.5731	3041.7239	3056.4862	3098.6619	3111.8833	3484.7711	3563.5725
NC1(CN(C1)C=O)C#N	NC1(CN(C1)C=O)C#N	
InChI=1S/C5H7N3O/c6-1-5(7)2-8(3-5)4-9/h4H,2-3,7H2	InChI=1S/C5H7N3O/c6-1-5(7)2-8(3-5)4-9/h4H,2-3,7H2
