21
gdb 22460	2.14694	1.25172	0.96773	8.5961	82.15	-0.1449	0.0102	0.1551	1320.0269	0.180821	-457.431408	-457.420905	-457.419961	-457.466872	37.942	
C	-0.7097401629	 1.0238213289	-0.6064449256	-0.346749
N	-0.1317072673	-0.3361134978	-0.5389501032	-0.269881
H	 0.0132748615	-0.6413200921	 0.4248922975	 0.290131
H	-0.7486236219	-1.0615327164	-0.9684994793	 0.30331
C	 1.3182888759	-0.6319485562	-1.2693811075	-0.024657
C	 2.4116083963	-0.0795033371	-0.3708264807	-0.410372
C	 1.2860295356	-2.0789058776	-1.49940696	 0.123476
C	 0.3081727916	-2.5925532943	-2.5123714828	-0.170854
O	-0.9999635069	-2.7093612275	-1.8689933089	-0.446002
N	 1.5175541445	-2.8219796091	-0.410360394	-0.08044
O	 0.9894166936	-3.9859073879	-0.4010099636	-0.465199
H	-0.0273734788	 1.7370840467	-0.1420750206	 0.163707
H	-0.8519345191	 1.2891418381	-1.6555078288	 0.168625
H	-1.6741255467	 1.054733181	-0.0940008015	 0.162109
H	 1.2096337334	-0.0465227938	-2.1878972627	 0.095028
H	 2.54589072	-0.7330523854	 0.4931008049	 0.160632
H	 3.3496384421	-0.0721839043	-0.931458254	 0.148097
H	 2.2120446658	 0.9475116879	-0.0454616253	 0.099635
H	 0.175288759	-1.9185814369	-3.3650625139	 0.080532
H	 0.607256707	-3.5789214941	-2.8777645952	 0.1246
H	-0.7908017229	-3.390233992	-1.1978572851	 0.294271
57.6362	118.5689	153.6998	159.0406	194.0383	212.1695	224.1743	263.8728	317.5006	320.6429	346.2799	390.0387	474.4535	522.2564	661.6068	708.0225	792.0586	832.9206	867.4958	932.1578	948.8419	990.547	1008.0744	1045.7255	1071.3046	1139.1548	1164.1815	1185.5374	1251.2146	1318.7213	1320.4373	1340.705	1376.162	1386.0755	1400.9224	1414.7475	1431.2473	1448.5946	1464.9911	1477.0203	1481.0048	1496.9476	1498.9763	1509.3886	1680.9909	3038.6311	3042.4872	3058.7443	3061.0637	3076.587	3098.0035	3113.6499	3144.6487	3146.075	3160.4059	3473.8988	3556.8354
C[NH2+]C(C)C(CO)=N[O-]	C[NH2][C@@H](C)[C](CO)[N][O]	
InChI=1S/C5H12N2O2/c1-4(6-2)5(3-8)7-9/h4,6,8-9H,3H2,1-2H3	InChI=1S/C5H12N2O2/c1-4(6-2)5(3-8)7-9/h4,8H,3,6H2,1-2H3/t4-/m0/s1
