22
gdb 120139	2.82542	1.00822	0.8993	1.7243	82.26	-0.2289	0.0587	0.2876	1429.2356	0.193956	-404.299497	-404.290017	-404.289073	-404.334164	35.651	
C	-0.3491414303	 1.6292208682	-1.1502679681	-0.381534
C	-0.4734756786	 0.1037452189	-1.1377497596	-0.156346
C	-1.5055496314	-0.4029618927	-0.1200153419	-0.221679
C	-1.5753156414	-1.9156294216	-0.076177995	 0.017234
C	-2.7426559327	-2.7551319817	 0.2723647893	-0.080218
C	-4.0651785633	-2.2226649839	-0.2510802462	 0.102499
O	-4.5478706326	-1.0696137199	 0.4076314174	-0.425451
C	-3.3857350403	-2.1163040929	-1.6452329377	-0.211514
N	-2.1330567371	-2.7821739718	-1.1383400357	-0.155118
H	 0.3911038684	 1.9639171169	-1.8837230778	 0.110951
H	-1.3050060597	 2.1024925716	-1.4018398119	 0.11258
H	-0.0427381307	 2.0102996279	-0.169619213	 0.11345
H	-0.7453532294	-0.2545444399	-2.138722286	 0.104367
H	 0.5040679296	-0.3444671926	-0.9163623459	 0.095028
H	-1.22625998	-0.0585389567	 0.8849105808	 0.097874
H	-2.4869492836	 0.0348277915	-0.3146780522	 0.117566
H	-0.6393621781	-2.3602505304	 0.2642743542	 0.092177
H	-2.6552209912	-3.6026721498	 0.9454868856	 0.089421
H	-4.8255124831	-3.013756686	-0.2522244932	 0.082592
H	-5.4277307247	-0.8746984839	 0.0693202571	 0.284646
H	-3.8479542186	-2.7403494805	-2.4130780052	 0.105568
H	-3.2423563513	-1.1070597105	-2.0406781752	 0.105907
70.7142	84.592	107.7078	188.453	242.7769	267.9739	283.3387	339.7099	360.3229	431.6716	512.1908	616.9992	702.1788	738.1621	755.6267	779.0609	870.6124	887.0723	905.6304	940.2867	983.788	994.9896	1028.7138	1052.351	1062.7817	1100.1741	1130.5428	1136.2765	1166.0202	1196.8303	1211.5898	1250.8653	1272.4867	1281.779	1303.7537	1314.7107	1323.2649	1367.3312	1386.8209	1411.6626	1437.3666	1454.7755	1482.1273	1492.2642	1499.727	1505.6414	1513.9525	3017.5671	3020.5241	3024.2848	3028.8432	3049.4629	3060.6575	3092.104	3096.0186	3101.2786	3110.2692	3117.1311	3155.9399	3815.0688
CCCC1C2C(O)CN12	CCC[C@H]1[C@H]2[C@@H](O)CN12	
InChI=1S/C7H13NO/c1-2-3-5-7-6(9)4-8(5)7/h5-7,9H,2-4H2,1H3	InChI=1S/C7H13NO/c1-2-3-5-7-6(9)4-8(5)7/h5-7,9H,2-4H2,1H3/t5-,6-,7-,8?/m0/s1
