16
gdb 49403	4.19802	1.38162	1.27266	2.4557	71.06	-0.2399	-0.0262	0.2137	981.7601	0.125516	-400.692542	-400.685987	-400.685043	-400.723931	25.924	
O	-0.1707613359	 0.0506000336	 0.0139051301	-0.250336
C	-0.0217134256	 1.2450651764	 0.007380169	 0.160125
C	 1.3182515042	 1.9494167711	 0.0008203705	-0.104029
C	 1.4201224395	 2.9916489494	-1.1020375369	-0.101877
C	 0.8169915285	 4.3206215587	-0.6560360667	-0.112107
C	 2.3060669476	 4.1188274358	-0.6370770415	-0.02932
N	 2.3554259017	 4.0520620321	 0.8712710502	-0.159254
C	 0.8668924472	 4.2259922609	 0.877255208	-0.042309
C	 1.4582753418	 2.895266187	 1.181811702	-0.079167
H	-0.8932158433	 1.9390555772	 0.0034611237	 0.077905
H	 2.1173371928	 1.2041923077	-0.0397511255	 0.103008
H	 1.3981604721	 2.7246462849	-2.1508283278	 0.10868
H	 0.1896248909	 4.9552347826	-1.2641328385	 0.103206
H	 3.1206127383	 4.5612252946	-1.1933333928	 0.108362
H	 0.3707787262	 4.8761889689	 1.5872339527	 0.104241
H	 1.5264705141	 2.5247730091	 2.1979645033	 0.112873
75.9481	136.012	280.7191	420.7994	486.965	575.0622	700.7341	736.4929	763.648	773.1037	806.7238	841.6672	855.8593	915.41	936.9307	945.9561	976.3447	984.7452	1022.6096	1036.8534	1046.9762	1057.5266	1078.5216	1095.8623	1105.0561	1168.5378	1233.2575	1238.3231	1257.2613	1269.7975	1301.2445	1360.9921	1373.8869	1423.6576	1830.5832	2871.7008	3086.5697	3183.8552	3193.9691	3204.1947	3211.5342	3229.1758
O=CC1C2C3C2N2C3C12	O=C[C@H]1[C@H]2[C@@H]3[C@H]2N2[C@@H]3[C@@H]12	
InChI=1S/C7H7NO/c9-1-2-3-4-6(3)8-5(2)7(4)8/h1-7H	InChI=1S/C7H7NO/c9-1-2-3-4-6(3)8-5(2)7(4)8/h1-7H/t2-,3-,4+,5+,6-,7-,8?/m0/s1
