17
gdb 69293	3.07408	1.32811	1.05167	3.146	80.27	-0.2348	-0.0142	0.2206	1156.3099	0.133689	-384.652269	-384.643498	-384.642553	-384.685659	32.832	
C	-0.0363860005	 1.585915882	 0.0475508441	-0.498589
C	 0.0598300487	 0.0879731543	-0.0005433473	 0.21321
C	-0.8426972271	-0.8374131229	 0.8150221808	-0.326888
C	 0.6246259616	-0.9647464209	 0.9988301721	-0.101627
C	 1.2110732238	-1.8200417707	-0.1446741584	-0.310343
C	 0.7683848479	-3.188834018	-0.2993850912	 0.329088
C	 0.372987962	-4.3157160447	-0.4424159417	-0.455788
C	 0.6624281412	-0.7009575144	-1.1177199649	 0.355636
O	 0.8708416974	-0.4725383527	-2.272404613	-0.307052
H	 0.9000559048	 2.0527999464	-0.2731663354	 0.133642
H	-0.830672951	 1.9452724322	-0.6150072572	 0.140983
H	-0.2643328588	 1.9327974096	 1.0601071608	 0.123589
H	-1.3845991139	-0.3177660883	 1.5989947767	 0.126102
H	-1.4021009001	-1.6371006007	 0.3392587201	 0.138079
H	 1.1351334918	-0.7618552598	 1.9309698447	 0.111309
H	 2.3050424781	-1.7569951801	-0.1808067219	 0.129353
H	 0.0340810039	-5.3140102514	-0.5692624983	 0.199298
84.1076	121.9205	149.2162	172.828	250.8207	283.7185	370.3706	397.5356	481.9163	553.4207	608.6108	617.8281	632.2877	648.003	759.0439	812.048	835.3845	898.004	937.0063	955.2714	980.0677	1030.1565	1059.8471	1085.8228	1101.9839	1112.0791	1155.1432	1248.0403	1298.8556	1314.0123	1381.0071	1418.8565	1482.8752	1495.3832	1497.748	1883.5571	2231.5959	3035.9227	3048.0497	3101.3188	3109.206	3124.2194	3202.9902	3211.9808	3502.5982
CC12CC1C(C#C)C2=O	C[C@]12C[C@H]1[C@@H](C#C)C2=O	
InChI=1S/C8H8O/c1-3-5-6-4-8(6,2)7(5)9/h1,5-6H,4H2,2H3	InChI=1S/C8H8O/c1-3-5-6-4-8(6,2)7(5)9/h1,5-6H,4H2,2H3/t5-,6+,8+/m1/s1
