17
gdb 115230	4.3262	1.0339	0.87203	3.8457	65.79	-0.2577	0.004	0.2617	1289.5249	0.135356	-496.118552	-496.109911	-496.108967	-496.152472	30.65	
C	-0.0925438309	 1.4214441064	-0.0804954534	-0.24661
O	-0.0458729265	 0.0012826553	-0.0257781732	-0.237717
C	-1.2776274192	-0.6019674979	 0.0931561628	 0.190156
C	-1.06604798	-2.1024672186	-0.015564048	-0.086404
O	-2.2694609752	-2.8393975884	 0.2526651265	-0.227976
C	-3.2496085883	-2.3302671471	 1.031674778	 0.392737
O	-4.2178214682	-2.9888251949	 1.2912085122	-0.318711
C	-3.1141458422	-0.8833627283	 1.5017891585	-0.222496
O	-1.8257935271	-0.3231410684	 1.3718081153	-0.255664
H	 0.9343540619	 1.7616584319	-0.2225927658	 0.137549
H	-0.7062343834	 1.7623840718	-0.9265127358	 0.113551
H	-0.4940242717	 1.8415624393	 0.8470281022	 0.138249
H	-1.9829027608	-0.2416610194	-0.6839193747	 0.063451
H	-0.7498388514	-2.3871006478	-1.0213806181	 0.132495
H	-0.2935484079	-2.3953044291	 0.7025536823	 0.137584
H	-3.8663017659	-0.3017619643	 0.9426539209	 0.132078
H	-3.3878466533	-0.8474137106	 2.5577239703	 0.157727
73.3474	105.7285	147.593	162.6267	179.2586	284.652	370.5554	411.7753	471.4068	536.8186	553.5165	577.4452	727.0448	783.9169	902.6476	1009.4788	1033.5881	1066.4347	1099.0454	1119.7152	1123.7454	1179.6491	1182.3448	1234.8336	1237.3673	1260.4792	1280.8791	1364.6911	1376.6629	1405.9712	1438.2481	1469.266	1484.8424	1485.5498	1501.6129	1510.8771	1853.2452	2896.2828	2976.5099	3005.4342	3060.4785	3085.8294	3121.2161	3121.3782	3140.2988
COC1COC(=O)CO1	CO[C@H]1COC(=O)CO1	
InChI=1S/C5H8O4/c1-7-5-3-8-4(6)2-9-5/h5H,2-3H2,1H3	InChI=1S/C5H8O4/c1-7-5-3-8-4(6)2-9-5/h5H,2-3H2,1H3/t5-/m1/s1
