20
gdb 116716	6.02071	0.67842	0.63794	2.807	86.81	-0.233	0.0229	0.256	1778.8334	0.170465	-403.152753	-403.14341	-403.142466	-403.18829	33.246	
C	-0.3335487373	 1.5766665833	-0.0265688272	-0.249199
O	-0.0290827587	 0.1884877344	 0.0165183965	-0.193117
C	-1.0925626073	-0.6397262706	 0.0260095304	 0.120385
N	-0.9361519476	-1.8873465415	 0.0636857228	-0.210974
C	-2.1227160735	-2.7165718235	 0.0713006018	 0.046945
C	-2.1652164383	-3.7005043329	-1.1311481895	-0.261196
C	-2.8016362315	-4.9358630221	-0.5415964605	-0.062642
C	-2.8193041793	-4.8983604322	 0.7898841977	-0.062639
C	-2.1978481008	-3.6312789437	 1.3256437984	-0.261203
H	 0.6226753127	 2.1011025339	-0.0290438669	 0.146359
H	-0.8883120018	 1.8395798464	-0.935697015	 0.126518
H	-0.9113412812	 1.8900018033	 0.8517083124	 0.126525
H	-2.0691389708	-0.1295447549	-0.0015844158	 0.071251
H	-3.0425413158	-2.1070565443	 0.0418999002	 0.056255
H	-2.7146443248	-3.2853082337	-1.983660118	 0.095152
H	-1.1447902997	-3.9050458817	-1.4818895829	 0.11962
H	-3.1576291106	-5.7591314121	-1.1513085762	 0.088592
H	-3.1919604113	-5.6862654546	 1.4353142946	 0.088593
H	-1.1872386415	-3.8149926597	 1.7142915652	 0.11962
H	-2.7693848708	-3.1691995739	 2.138581102	 0.095154
44.776	70.5004	74.0117	147.4685	180.162	241.4276	346.9006	397.1584	398.2689	432.8727	555.7786	677.0222	723.6074	776.2565	859.0589	917.4563	952.4591	974.0001	978.6204	988.5515	1038.6773	1053.0097	1080.6487	1101.3917	1130.9062	1145.5452	1177.4438	1178.9627	1219.7049	1276.5361	1285.9238	1306.8344	1317.819	1368.6016	1371.9228	1423.6053	1483.0863	1484.8539	1491.9505	1495.0629	1501.4562	1686.5886	1769.7698	2938.6578	2982.8804	3013.8965	3020.5109	3022.0401	3058.0868	3060.8137	3074.7852	3144.1798	3178.7656	3204.4019
COC=NC1CC=CC1	COC=N[C@H]1CC=CC1	
InChI=1S/C7H11NO/c1-9-6-8-7-4-2-3-5-7/h2-3,6-7H,4-5H2,1H3	InChI=1S/C7H11NO/c1-9-6-8-7-4-2-3-5-7/h2-3,6-7H,4-5H2,1H3
