19
gdb 41828	2.42245	2.0023	1.51744	1.4335	69.85	-0.2379	0.0754	0.3133	941.415	0.162761	-460.165442	-460.158363	-460.157418	-460.196817	28.274	
C	 0.4046839476	 1.6871753162	 0.2734145192	-0.101258
O	 1.40729582	 1.9678295876	-0.6963492884	-0.257097
C	 1.9155197858	 0.7309746683	-1.1386104195	 0.196867
C	 3.1175436941	 0.2779654531	-0.3020449146	-0.114364
O	 2.8131446751	 0.1039486106	 1.0681166089	-0.252041
C	 1.9840550565	-1.0159850091	 1.350358464	-0.063316
C	 0.484419998	-0.6850243985	 1.3202201512	-0.237309
C	 0.0935329043	 0.1730827783	 0.1045736749	 0.076025
O	 0.8441013123	-0.1895988366	-1.0584257835	-0.267467
H	 0.7665013376	 1.9130597038	 1.2819999504	 0.110642
H	-0.4656888974	 2.3151029286	 0.0567037783	 0.105515
H	 2.2073583054	 0.8291022448	-2.1917494329	 0.089693
H	 3.5209924797	-0.6517783457	-0.7356319926	 0.092063
H	 3.891550625	 1.0504956119	-0.3526460697	 0.115753
H	 2.1970273099	-1.8230613176	 0.6368641801	 0.103585
H	 2.2643521791	-1.3686248019	 2.3486361798	 0.104712
H	-0.0704572853	-1.6304870973	 1.3098005702	 0.103761
H	 0.188725214	-0.1546054332	 2.233296476	 0.105816
H	-0.9612768717	 0.0156536567	-0.1372373318	 0.088417
140.9997	159.8162	277.322	311.382	359.0476	378.799	451.1798	620.4795	646.0674	724.2761	805.8605	829.2198	838.052	856.7405	898.6226	929.1992	969.3428	1005.7659	1036.4446	1049.6912	1086.2561	1102.2491	1117.296	1142.215	1191.6672	1224.8363	1237.4991	1277.6047	1306.4515	1323.8701	1349.2577	1359.9741	1366.7122	1378.0592	1398.0758	1410.5092	1425.7281	1474.3717	1480.8197	1501.237	1525.4833	2976.3007	3013.9376	3030.1012	3034.864	3042.0842	3062.7147	3067.7522	3077.6888	3084.7954	3085.0214
C1OC2COCCC1O2	C1O[C@H]2COCC[C@@H]1O2	
InChI=1S/C6H10O3/c1-2-7-4-6-8-3-5(1)9-6/h5-6H,1-4H2	InChI=1S/C6H10O3/c1-2-7-4-6-8-3-5(1)9-6/h5-6H,1-4H2/t5-,6+/m0/s1
