18
gdb 94519	2.44329	1.41315	0.94618	2.9478	79.89	-0.2211	-0.0582	0.1629	1231.7722	0.145177	-401.896952	-401.887539	-401.886595	-401.932198	33.673	
C	-0.2970322962	-0.597155657	-0.8723794673	-0.329919
N	-0.1817471454	-0.769241236	 0.5594932303	-0.075392
C	-1.1926451262	-0.1233717459	 1.4250836179	-0.159329
C	-0.0754213819	 0.2617893324	 2.423885068	-0.262879
C	 0.9092945434	-0.0790848654	 1.2851152868	-0.062368
C	 2.0836581031	-0.9826708539	 1.6337124511	 0.246549
O	 2.4476455228	-1.1756493999	 2.7730314143	-0.288651
C	 2.7530391645	-1.6097550748	 0.5051513684	 0.268917
C	 3.3267391542	-2.098396265	-0.4340303733	-0.418146
H	 0.5610552008	-1.0537770056	-1.3729743354	 0.13116
H	-1.2026788391	-1.0994831659	-1.2281692443	 0.122968
H	-0.3521973017	 0.4659377955	-1.176767127	 0.089252
H	-1.6523948744	 0.7603781234	 0.9547676612	 0.08787
H	-1.9876248423	-0.7918262481	 1.7712436694	 0.107659
H	-0.0679095679	 1.2893140358	 2.7849633598	 0.111226
H	 0.0283165582	-0.4218584784	 3.2664172509	 0.133714
H	 1.2923232823	 0.8115100287	 0.7556553989	 0.081696
H	 3.8416728957	-2.5428176498	-1.2511029097	 0.215672
25.7977	101.1391	117.8268	187.788	223.9734	234.9806	267.8327	317.2106	374.6475	466.5418	561.6373	644.8611	672.1623	684.8361	705.4205	793.3099	820.7495	934.4316	949.4944	990.0071	1000.068	1074.2033	1118.76	1154.4255	1166.5939	1201.0138	1210.0492	1232.0936	1254.9855	1284.4203	1332.7421	1358.9134	1449.0169	1488.4489	1492.1755	1497.185	1522.3904	1767.6029	2207.9133	2921.7298	2942.4618	2976.5824	3063.0211	3066.0686	3101.5577	3114.3043	3158.3083	3493.5312
CN1CCC1C(=O)C#C	CN1CC[C@H]1C(=O)C#C	
InChI=1S/C7H9NO/c1-3-7(9)6-4-5-8(6)2/h1,6H,4-5H2,2H3	InChI=1S/C7H9NO/c1-3-7(9)6-4-5-8(6)2/h1,6H,4-5H2,2H3/t6-/m0/s1
