23
gdb 58776	2.41684	1.25383	1.17685	1.0538	85.81	-0.2385	0.08	0.3185	1245.4	0.204284	-388.270051	-388.26016	-388.259216	-388.304411	38.076	
C	-0.2630763027	 1.425454608	 0.0439097638	-0.390317
C	 0.0787147696	-0.0691590577	-0.0674187029	-0.074211
C	 0.8248766855	-0.3762087743	-1.3756533973	-0.399496
C	 0.8427637125	-0.548132889	 1.144941683	 0.344203
C	 0.1449426054	-0.9793342579	 2.4239162739	-0.411694
C	 1.0334292784	-1.9543128123	 1.6994514788	 0.344808
O	 0.5535087494	-3.1369758299	 1.1584654892	-0.469254
C	 2.5056786115	-1.6818308978	 2.0138230554	-0.284689
C	 2.30513637	-0.2148772768	 1.5003711862	-0.29084
H	 0.6477852589	 2.0346515252	 0.0744969115	 0.113229
H	-0.8544790167	 1.7583258668	-0.815630786	 0.107237
H	-0.8354439252	 1.6349882638	 0.9530081064	 0.112653
H	-0.8645390268	-0.6318579265	-0.0887513181	 0.07576
H	 1.7716843425	 0.1722534997	-1.4358405155	 0.110795
H	 1.0451523853	-1.444618628	-1.4591245229	 0.126836
H	 0.2231210805	-0.0831957926	-2.2423592388	 0.106889
H	 0.4267645786	-0.5628202009	 3.3898536316	 0.095828
H	-0.9167710772	-1.1764845236	 2.3065673288	 0.106807
H	 0.2541923363	-3.7035166886	 1.8779861891	 0.283579
H	 2.8249938242	-1.8129322133	 3.0538411598	 0.086673
H	 3.1711812024	-2.2528474598	 1.3622305836	 0.107496
H	 2.9294790992	 0.010586901	 0.6334776623	 0.104365
H	 2.4395765483	 0.5771406544	 2.2440632883	 0.093344
60.5318	115.6087	175.4514	220.2995	238.6159	252.3846	268.6713	284.0549	344.7143	388.0366	442.7879	477.8193	557.1304	586.3532	691.8216	731.5834	793.6545	872.0678	882.2639	924.4688	929.1983	934.9348	963.6275	984.8285	1019.745	1047.8207	1067.3438	1112.2733	1135.5719	1151.7373	1193.9598	1210.9089	1224.0529	1234.6001	1258.7824	1293.2511	1337.2547	1343.1759	1361.6102	1396.8012	1417.3103	1421.9114	1479.9619	1480.205	1488.491	1493.5727	1503.8803	1512.2492	1522.8803	3010.9494	3025.8851	3031.423	3036.5307	3050.4708	3089.9232	3090.5197	3095.6146	3098.8945	3102.0793	3109.6424	3116.5438	3189.4751	3792.2236
CC(C)C12CC1(O)CC2	CC(C)[C@@]12C[C@]1(O)CC2	
InChI=1S/C8H14O/c1-6(2)7-3-4-8(7,9)5-7/h6,9H,3-5H2,1-2H3	InChI=1S/C8H14O/c1-6(2)7-3-4-8(7,9)5-7/h6,9H,3-5H2,1-2H3/t7-,8-/m1/s1
