16
gdb 14620	8.12351	0.65775	0.63012	3.7284	68.83	-0.2717	0.0047	0.2764	1672.2909	0.127744	-383.728271	-383.719166	-383.718222	-383.763577	30.763	
O	 0.2710352508	 0.054426475	-0.2556390332	-0.270648
C	 0.3031577515	 1.2447025946	-0.3329436878	 0.171245
O	 0.7762276234	 2.028448982	 0.6544185807	-0.175235
C	 0.8084470819	 3.443313488	 0.4363202054	-0.091014
C	 2.2396594586	 3.9154028673	 0.2064648435	-0.183674
C	 2.3178991825	 5.4494784401	 0.0728593808	-0.357969
C	 3.677230696	 5.9243072499	-0.1508106265	 0.287884
C	 4.8063246692	 6.2912932434	-0.335460937	-0.423209
H	-0.0540572539	 1.8260837952	-1.2066975112	 0.075805
H	 0.1650499246	 3.7064852038	-0.4145296032	 0.111615
H	 0.3811356079	 3.9030376918	 1.3332180022	 0.128122
H	 2.8656459023	 3.5838399327	 1.0403590251	 0.134852
H	 2.6401134128	 3.4463485964	-0.6985784486	 0.122679
H	 1.6753540104	 5.7822699221	-0.7534701258	 0.133671
H	 1.9118820491	 5.9180750823	 0.9792961173	 0.136179
H	 5.800836303	 6.6259510753	-0.4979845317	 0.199699
34.1881	84.4516	89.9557	116.9189	164.6598	276.3775	344.5217	354.3866	381.6369	531.1835	625.3548	644.5435	673.8909	750.3985	856.0707	954.8001	1031.0489	1042.027	1051.5529	1066.3562	1107.8399	1157.0521	1254.9988	1274.426	1311.9685	1332.8982	1372.6714	1410.1994	1434.6522	1475.2497	1493.7349	1511.7957	1869.6475	2242.9952	2935.5572	3011.5958	3015.4979	3040.9786	3054.2321	3076.9558	3107.2612	3506.7556
O=COCCCC#C	O=COCCCC#C	
InChI=1S/C6H8O2/c1-2-3-4-5-8-6-7/h1,6H,3-5H2	InChI=1S/C6H8O2/c1-2-3-4-5-8-6-7/h1,6H,3-5H2
