19
gdb 103417	2.57861	1.40626	1.23028	4.0191	70.84	-0.2445	0.0527	0.2971	1100.561	0.15706	-460.114198	-460.105041	-460.104097	-460.14769	34.703	
C	-0.0506375932	 1.5615437779	-0.088663842	-0.404542
C	 0.0057689702	 0.0447322731	-0.0118444275	-0.097383
C	 1.049883971	-0.6659291747	-0.8867722117	 0.026488
O	 2.332396518	-0.1645161461	-0.5003103584	-0.241451
C	 1.7624331614	-1.2146178909	 0.2818482289	-0.034221
C	 0.7471408558	-0.5997167271	 1.2494629003	 0.404156
O	 1.3035548191	 0.2746480332	 2.193883283	-0.478794
C	-0.1027171674	-1.6509876856	 1.9514195898	-0.151662
O	-1.0877148135	-0.9327515341	 2.6908528264	-0.434096
H	 0.9508870875	 1.9841162135	 0.0099158591	 0.144689
H	-0.4795239232	 1.8895060639	-1.0419049739	 0.106452
H	-0.6731029812	 1.9656865114	 0.7158227304	 0.113557
H	-0.9889812846	-0.3957657528	-0.1306244102	 0.074358
H	 0.9542578549	-1.067734888	-1.8890300316	 0.0996
H	 2.3517429823	-2.1175204698	 0.4044598452	 0.097392
H	 0.5999248209	 0.4548788502	 2.8314889939	 0.28651
H	-0.5629675304	-2.3331542054	 1.2221083341	 0.095254
H	 0.5386840692	-2.2411349148	 2.6228330661	 0.097241
H	-1.5113434969	-1.5349780839	 3.3086583481	 0.296452
107.6659	115.254	192.0185	215.8723	231.266	256.4092	265.3077	352.9568	393.4748	453.2572	470.0229	565.6746	620.8258	690.3126	755.4572	841.092	860.378	873.1472	931.8876	979.0197	1011.3785	1040.3439	1044.6788	1066.9876	1089.793	1100.0064	1148.6251	1196.8591	1228.4817	1235.45	1246.1877	1258.6144	1288.3203	1358.8566	1378.4895	1403.7586	1416.7505	1449.1554	1491.0898	1497.8938	1510.8538	2984.4013	3024.6117	3037.4645	3064.2893	3098.4773	3139.298	3166.4414	3187.3368	3764.0601	3840.9514
CC1C2OC2C1(O)CO	C[C@H]1[C@H]2O[C@H]2[C@]1(O)CO	
InChI=1S/C6H10O3/c1-3-4-5(9-4)6(3,8)2-7/h3-5,7-8H,2H2,1H3	InChI=1S/C6H10O3/c1-3-4-5(9-4)6(3,8)2-7/h3-5,7-8H,2H2,1H3/t3-,4+,5+,6-/m0/s1
