15
gdb 127295	5.00967	1.28527	1.04068	2.0909	69.37	-0.1991	0.0198	0.2188	1098.2011	0.114476	-453.929656	-453.922213	-453.921269	-453.961876	27.104	
C	 0.001920559	 1.3780872478	 0.0744082008	-0.31385
N	-0.1330086645	-0.0561795032	-0.0170248022	 0.030476
C	-0.1106464152	-0.811395336	-1.1743945872	-0.203784
C	 0.0208944739	-2.1015429919	-0.7405230916	 0.209598
O	 0.0135410132	-3.4101691199	-1.1434279267	-0.288974
C	 0.3452953392	-4.1223568737	 0.0684937756	 0.004226
O	 0.1221269364	-3.2630949878	 1.2035913129	-0.273319
C	 0.0806656606	-2.0208042832	 0.6448815993	 0.390901
N	 0.0059974864	-0.8045350577	 1.126908713	-0.377265
H	 1.0519576666	 1.6935437574	 0.1145989959	 0.135383
H	-0.4744477231	 1.8386250829	-0.7946295147	 0.134201
H	-0.5018534916	 1.7171439511	 0.9812655744	 0.155539
H	-0.2012063001	-0.3549202209	-2.1452878665	 0.140166
H	-0.2977748139	-5.0006124662	 0.1531606928	 0.137539
H	 1.4074241531	-4.4038727287	 0.0379502942	 0.119165
108.4185	125.6114	145.5576	291.5905	298.2584	311.5324	539.5593	566.2789	583.194	723.3762	733.2079	753.3014	756.147	862.9907	920.9773	969.903	1053.5541	1068.8642	1133.7871	1146.2354	1150.4587	1197.0919	1223.2696	1319.5333	1420.0363	1426.7876	1456.7095	1482.6754	1513.8454	1522.2863	1524.1485	1587.9764	1671.6968	3002.3592	3022.9615	3100.3506	3114.2416	3143.8469	3276.5482
CN1C=C2OCOC2=N1	Cn1cc2OCOc2n1	
InChI=1S/C5H6N2O2/c1-7-2-4-5(6-7)9-3-8-4/h2H,3H2,1H3	InChI=1S/C5H6N2O2/c1-7-2-4-5(6-7)9-3-8-4/h2H,3H2,1H3
