22
gdb 111282	2.70693	1.25501	1.0192	1.769	82.37	-0.2253	0.0643	0.2896	1286.928	0.192836	-404.310887	-404.301	-404.300056	-404.345438	37.027	
C	-0.0833150701	 1.6648324192	-0.1269740859	-0.379147
C	 0.0271582832	 0.1365346877	-0.1032252739	-0.197722
C	-1.3193406839	-0.5383911411	 0.107098073	 0.030354
C	-1.3923598889	-2.0715574186	 0.4001601718	 0.001882
O	-0.1986639723	-2.7940049758	 0.63095731	-0.430897
C	-2.1367221704	-1.7136752731	 1.6802316466	 0.359194
C	-3.369399881	-2.4048726739	 2.1818186087	-0.503136
C	-1.3041865111	-0.8041569612	 2.4904330646	-0.29039
N	-2.0790132956	-0.2169873978	 1.3757073292	-0.184199
H	 0.8962925968	 2.129864723	-0.2733483247	 0.108566
H	-0.7397211089	 2.0012746603	-0.93699432	 0.113625
H	-0.5022381816	 2.0392659453	 0.8115304595	 0.136029
H	 0.4410348371	-0.2217163415	-1.0560221736	 0.086754
H	 0.738676704	-0.179506727	 0.6660690817	 0.107892
H	-1.984360852	-0.2791351854	-0.7241992685	 0.07338
H	-2.0335817019	-2.59705226	-0.3194816587	 0.068423
H	 0.1921004127	-3.0126867329	-0.2210738967	 0.284528
H	-3.1172411561	-3.3846374271	 2.6039500063	 0.127602
H	-3.853334829	-1.8125325462	 2.9635478422	 0.12847
H	-4.0960474297	-2.5612040171	 1.3769332838	 0.118365
H	-1.6971053648	-0.5145543604	 3.4605836789	 0.114567
H	-0.2216869164	-0.8612577062	 2.441688876	 0.125862
70.3019	123.7053	143.5807	175.6714	201.2164	239.4937	264.6146	282.4157	312.1942	376.1966	481.6634	533.6225	564.0521	679.0762	730.7416	771.1057	784.0274	818.1748	884.997	939.7906	972.8583	979.1708	1018.167	1054.1988	1086.063	1102.4925	1120.7931	1133.8003	1144.4864	1178.207	1194.9435	1265.3764	1271.3564	1276.7242	1328.1375	1341.4701	1374.6885	1399.6681	1411.0784	1416.5404	1443.7321	1481.7843	1484.6689	1494.6703	1496.22	1505.3429	1515.0684	3010.519	3017.0641	3028.4658	3035.7125	3042.235	3073.7176	3089.1696	3103.3031	3112.3918	3114.8649	3124.1178	3208.353	3816.7657
CCC1C(O)C2(C)CN12	CC[C@H]1[C@@H](O)[C@@]2(C)CN12	
InChI=1S/C7H13NO/c1-3-5-6(9)7(2)4-8(5)7/h5-6,9H,3-4H2,1-2H3	InChI=1S/C7H13NO/c1-3-5-6(9)7(2)4-8(5)7/h5-6,9H,3-4H2,1-2H3/t5-,6+,7+,8?/m0/s1
