16
gdb 77842	2.1342	1.59715	1.50619	3.6587	74.53	-0.2478	-0.0209	0.227	1004.5099	0.122402	-400.691934	-400.68352	-400.682576	-400.724842	31.441	
C	-0.2589848474	 1.5989373391	-0.0188653446	-0.424805
C	 0.0346316886	 0.105076938	-0.0291718631	-0.127708
C	 0.7500237361	-0.6037338501	-1.1835270205	-0.056868
C	 2.2103858861	-0.3585306315	-1.2528586025	-0.214814
C	 2.8831032223	 0.8498899822	-0.8637987371	 0.355638
C	 3.5070112045	 1.8327813258	-0.5630652778	-0.429608
N	 1.6911212212	-1.3446023841	-0.2354696953	-0.196605
C	 1.1354761222	-0.523575803	 0.8483163952	 0.388985
O	 1.4378096714	-0.5001372628	 1.9968658089	-0.287308
H	 0.6269651459	 2.1853266049	-0.2657139826	 0.14418
H	-1.048142944	 1.8406618071	-0.7377150535	 0.122725
H	-0.6045030688	 1.9006230714	 0.9744626844	 0.137705
H	-0.8823722638	-0.4553234468	 0.1962833896	 0.123875
H	 0.2500034908	-1.1511731267	-1.9746461326	 0.115216
H	 2.717284493	-0.8970215925	-2.0506426922	 0.137686
H	 4.045863182	 2.705349979	-0.2855750661	 0.211705
96.9597	134.2451	175.3898	188.7447	237.9444	256.6449	408.7479	470.3913	527.8912	601.6268	632.2642	665.9446	677.8826	682.365	735.0685	802.9776	831.4441	903.7541	944.2205	979.1409	1054.3057	1060.1183	1096.3729	1117.9101	1164.2426	1226.5758	1233.3473	1335.3866	1360.881	1399.9371	1410.6856	1493.2606	1503.3219	1925.7029	2236.4992	3033.6103	3047.5288	3110.8417	3136.0657	3146.6781	3182.1917	3499.2346
CC1C2C(C#C)N2C1=O	C[C@H]1[C@H]2[C@@H](C#C)N2C1=O	
InChI=1S/C7H7NO/c1-3-5-6-4(2)7(9)8(5)6/h1,4-6H,2H3	InChI=1S/C7H7NO/c1-3-5-6-4(2)7(9)8(5)6/h1,4-6H,2H3/t4-,5+,6-,8?/m0/s1
