21
gdb 118823	2.23442	1.06257	0.83626	4.2609	81.61	-0.2394	-0.0123	0.2271	1471.7879	0.178907	-424.223683	-424.213285	-424.21234	-424.259721	37.247	
C	-0.2164488759	 1.5130760319	 0.0638401258	-0.385573
C	-0.0892360744	 0.0104953483	 0.2474703813	-0.052724
O	-1.2334716636	-0.6007359233	-0.3389032354	-0.291891
C	-1.3435141958	-1.9816857826	-0.1382773768	 0.429729
C	-0.3811762228	-2.8288249193	-0.9436432642	-0.454923
C	-1.8169855562	-2.4374582658	 1.2045236512	-0.357128
C	-2.7757449805	-2.471101043	 0.007467201	-0.171329
C	-3.9041229816	-1.5092654353	-0.0134655801	 0.175655
O	-4.9923600844	-1.7607576732	-0.47182509	-0.276543
H	 0.6530063319	 2.0221033087	 0.4902487034	 0.117566
H	-0.2800969926	 1.7651326873	-0.9983348621	 0.131615
H	-1.1168806737	 1.8879154264	 0.5586023049	 0.127549
H	 0.8305703432	-0.3554290895	-0.2316155105	 0.095929
H	-0.0295653252	-0.2508881703	 1.3146679494	 0.092013
H	 0.6552193099	-2.6542747529	-0.637079297	 0.124921
H	-0.5919182488	-3.8927428127	-0.806981693	 0.124096
H	-0.4695000694	-2.5914200812	-2.0081224422	 0.134772
H	-1.4831454776	-3.389195695	 1.602014252	 0.126122
H	-2.0107000287	-1.672105456	 1.9492055159	 0.126797
H	-3.0127338482	-3.4373251625	-0.4244097469	 0.10541
H	-3.6791758553	-0.5207829498	 0.4386364431	 0.077937
54.0028	84.1511	91.3973	132.6158	209.5221	222.4636	245.796	251.8944	322.4238	382.6775	408.0921	440.7272	460.1894	589.2194	714.6911	819.3479	846.6318	855.0701	885.963	925.0353	987.1796	1016.506	1044.6304	1065.592	1074.8145	1091.4778	1118.2866	1152.93	1178.4618	1187.4568	1236.6559	1293.3749	1295.6954	1366.874	1401.1007	1413.7695	1427.0476	1439.9621	1473.7599	1483.2886	1484.8729	1499.8835	1501.4598	1529.262	1813.8744	2913.6817	2985.9865	3017.3152	3041.1509	3046.2252	3106.9217	3121.0012	3121.399	3123.7839	3132.9244	3177.0141	3223.7701
CCOC1(C)CC1C=O	CCO[C@@]1(C)C[C@H]1C=O	
InChI=1S/C7H12O2/c1-3-9-7(2)4-6(7)5-8/h5-6H,3-4H2,1-2H3	InChI=1S/C7H12O2/c1-3-9-7(2)4-6(7)5-8/h5-6H,3-4H2,1-2H3/t6-,7-/m0/s1
