15
gdb 124310	4.75536	0.94605	0.91941	2.6285	66.55	-0.2568	-0.027	0.2298	1285.9168	0.111458	-453.966891	-453.958516	-453.957572	-454.001528	28.813	
C	-0.1396906409	 1.4925717101	-0.0442291725	-0.478886
C	 0.0280360858	-0.0073763386	 0.0958180442	 0.393394
O	 0.0421901158	-0.5674673708	 1.1628909396	-0.27308
C	 0.1921414479	-0.7764894747	-1.2259738976	-0.439926
C	 0.1109414911	-2.2522462946	-1.0469873611	 0.40638
N	 1.1637240084	-3.0238722286	-1.1015100698	-0.172141
O	 0.6437826619	-4.3024846448	-0.8672639104	-0.151005
C	-0.669451232	-4.1406861936	-0.7036898066	 0.109422
N	-1.0749292191	-2.9167742964	-0.8031609009	-0.301148
H	 0.6441260534	 1.9166074431	-0.6812533709	 0.139872
H	-1.0983669396	 1.7134108338	-0.5281065787	 0.147911
H	-0.1154223001	 1.9604933027	 0.9402510305	 0.149541
H	-0.5735388438	-0.4414232785	-1.934309828	 0.144934
H	 1.1644734307	-0.5098201669	-1.6549563257	 0.157339
H	-1.2544448796	-5.0280864222	-0.5114779024	 0.167395
43.2786	61.2256	104.1193	123.9652	295.0059	324.4713	333.8505	471.4543	563.6132	633.5842	699.0433	790.5176	822.5064	848.986	905.428	917.3856	977.6817	985.2947	1003.4639	1053.9297	1146.7649	1174.3462	1205.9657	1296.3897	1330.9843	1378.5904	1385.7346	1439.9282	1463.6611	1475.9315	1528.9054	1606.6921	1827.3195	3036.2283	3051.2963	3092.5254	3099.8968	3156.1285	3268.4106
CC(=O)CC1=NOC=N1	CC(=O)Cc1nocn1	
InChI=1S/C5H6N2O2/c1-4(8)2-5-6-3-9-7-5/h3H,2H2,1H3	InChI=1S/C5H6N2O2/c1-4(8)2-5-6-3-9-7-5/h3H,2H2,1H3
