14
gdb 10580	2.63401	1.91074	1.32416	4.1654	70.37	-0.2412	0.0073	0.2485	928.0102	0.106054	-341.541597	-341.53342	-341.532476	-341.57388	30.108	
N	 0.1524410802	 1.4128786879	 0.017584604	-0.49873
C	 0.0387814186	 0.0003475415	 0.0608903344	 0.013188
C	-0.4695398648	-0.6951250587	 1.2624271699	-0.317664
C	-1.3650995976	-0.7445095571	 0.0066577304	-0.027758
C	-2.5387334829	 0.0755576532	-0.0218391046	 0.242137
C	-3.4892953194	 0.8123353278	-0.045461803	-0.42126
C	-1.411477801	-1.9826899724	-0.7221887396	 0.224147
N	-1.4053199198	-2.9772643281	-1.3143630325	-0.344627
H	 0.1166108295	 1.7534547279	-0.9380822371	 0.248175
H	-0.5983657478	 1.8653688938	 0.5288247271	 0.244271
H	 0.8009909329	-0.5135633528	-0.5155363551	 0.136737
H	-0.0086487689	-1.6282850371	 1.5639053999	 0.152612
H	-0.8581014503	-0.0936934029	 2.0770865564	 0.142886
H	-4.3504015487	 1.4337622972	-0.0648599001	 0.205885
126.5603	134.3482	161.8547	191.4424	266.7288	341.9126	415.8814	474.7813	508.2172	578.684	587.1099	610.356	616.8963	683.9972	736.6483	816.3465	909.627	940.1641	957.3146	1079.7329	1110.9084	1143.6283	1240.5273	1287.0368	1309.9167	1438.7908	1486.3664	1667.262	2235.0631	2344.9705	3143.3849	3174.9157	3237.0572	3501.1142	3505.89	3587.0279
NC1CC1(C#C)C#N	N[C@H]1C[C@]1(C#C)C#N	
InChI=1S/C6H6N2/c1-2-6(4-7)3-5(6)8/h1,5H,3,8H2	InChI=1S/C6H6N2/c1-2-6(4-7)3-5(6)8/h1,5H,3,8H2/t5-,6+/m0/s1
