23
gdb 119422	3.0139	1.0275	0.90418	0.689	87.64	-0.2371	0.0958	0.333	1445.1806	0.204075	-388.265586	-388.255632	-388.254688	-388.300699	37.164	
C	-0.1505791857	 1.5151131264	 0.1202845837	-0.386084
C	-0.0891091823	 0.001026467	 0.2194432706	-0.057549
O	-1.3248085299	-0.5270297399	-0.2521845833	-0.295298
C	-1.4052647049	-1.9017686033	-0.2023955013	 0.423404
C	-1.6483102588	-2.6439481388	 1.0880327947	-0.389215
C	-2.6631329794	-2.7425538955	-0.0365144098	 0.265512
C	-4.0999259309	-2.3393159382	 0.1222117879	-0.493145
C	-2.1284260601	-3.739518083	-1.0787911241	-0.272756
C	-0.8544719989	-2.8493987226	-1.274384244	-0.294669
H	 0.7839114822	 1.9589116589	 0.4766680986	 0.113786
H	-0.3100098477	 1.8264232589	-0.9160064013	 0.126299
H	-0.9740897358	 1.9060754497	 0.724816175	 0.125125
H	 0.7443274954	-0.3924827045	-0.3825938022	 0.092525
H	 0.078995014	-0.3193492073	 1.2588479226	 0.092333
H	-1.0445132451	-3.5019976109	 1.3795142838	 0.09578
H	-1.957100166	-2.0066995221	 1.9114368786	 0.108984
H	-4.1879281377	-1.4406594484	 0.7407657861	 0.123659
H	-4.5605908781	-2.1222454033	-0.8483924793	 0.11541
H	-4.6878422193	-3.1328330937	 0.5992514381	 0.116217
H	-1.9574318742	-4.7590473568	-0.7173324051	 0.092559
H	-2.7448178298	-3.7867913134	-1.9802520107	 0.100886
H	-0.8318605403	-2.3813139818	-2.2614088061	 0.106061
H	 0.1173168132	-3.3139310372	-1.0767499323	 0.090177
64.6089	76.2669	113.268	189.0133	199.0306	241.5702	245.3565	333.4889	341.9046	391.0216	445.3326	518.7726	594.7986	702.1184	769.3214	795.6578	819.1212	865.6564	907.1015	929.787	935.5874	968.9997	987.4418	1023.9687	1050.335	1070.6925	1101.4672	1139.2302	1153.7139	1178.7708	1187.9215	1214.1225	1229.086	1238.1365	1262.7465	1293.752	1333.737	1387.64	1402.8236	1419.4844	1433.0188	1478.6338	1481.423	1483.3707	1487.9136	1497.3528	1499.7841	1519.5437	1529.1181	2979.6706	3010.3628	3020.6405	3038.9301	3044.0983	3047.3053	3077.9436	3091.3105	3092.4701	3100.3323	3111.3751	3118.2931	3120.7813	3191.8799
CCOC12CC1(C)CC2	CCO[C@@]12C[C@]1(C)CC2	
InChI=1S/C8H14O/c1-3-9-8-5-4-7(8,2)6-8/h3-6H2,1-2H3	InChI=1S/C8H14O/c1-3-9-8-5-4-7(8,2)6-8/h3-6H2,1-2H3/t7-,8-/m0/s1
