16
gdb 10944	4.50078	1.42045	1.28745	3.0919	65.78	-0.2418	-0.034	0.2078	974.4754	0.128245	-383.707881	-383.700114	-383.699169	-383.740387	28.334	
C	-0.0333223385	 1.547452186	 0.284739421	-0.487738
C	 0.0288463814	 0.0655017914	 0.1217791797	 0.467329
C	-0.8423218158	-0.9616892541	 0.7710479397	-0.336665
C	 0.6674120477	-1.0790200595	 0.8893936275	-0.184322
C	 1.222719354	-1.5126939772	-0.4688887154	 0.02234
O	 0.5042779526	-0.4459897817	-1.1394099457	-0.329755
C	 2.7205379588	-1.3006903001	-0.5806432245	 0.146907
O	 3.5302055333	-2.1823746882	-0.4659062663	-0.24177
H	 0.9336991511	 2.0099630908	 0.0648591395	 0.130187
H	-0.7782284106	 1.9743462162	-0.3961282004	 0.138273
H	-0.3224618116	 1.8071949674	 1.3069329921	 0.128657
H	-1.3324865096	-0.6476162319	 1.6876624172	 0.12012
H	-1.4049039509	-1.6631583672	 0.1611934112	 0.119972
H	 1.1968391339	-1.112175668	 1.8318549343	 0.113182
H	 0.9537892841	-2.5107043953	-0.8320668554	 0.105866
H	 3.0076807401	-0.2405290088	-0.7617943546	 0.087418
59.5505	110.6258	191.5021	252.5331	305.9245	332.8377	424.7822	460.5832	491.0796	654.0602	797.8609	814.7413	859.6968	925.0437	953.9746	974.8179	994.1661	1000.5201	1043.2904	1066.431	1074.1838	1113.1054	1134.8183	1197.9229	1243.5202	1263.0237	1312.8365	1384.4901	1399.199	1428.5607	1473.6148	1487.1423	1500.7742	1835.3534	2886.9768	3035.6191	3057.9626	3100.2848	3115.2642	3119.7202	3203.6003	3211.0645
CC12CC1C(O2)C=O	C[C@]12C[C@H]1[C@@H](O2)C=O	
InChI=1S/C6H8O2/c1-6-2-4(6)5(3-7)8-6/h3-5H,2H2,1H3	InChI=1S/C6H8O2/c1-6-2-4(6)5(3-7)8-6/h3-5H,2H2,1H3/t4-,5-,6-/m0/s1
