18
gdb 39947	3.19431	1.43494	1.0928	1.6614	82.42	-0.2243	0.0106	0.2349	1117.8188	0.148995	-401.935699	-401.927942	-401.926998	-401.968217	30.144	
C	-0.4594911499	 1.3843379931	-0.0158311089	-0.294619
C	 1.0289814046	 1.3222815995	 0.0060360927	-0.29032
C	 0.2294629094	 0.0121531212	 0.0178007815	 0.338558
C	 0.1685824785	-0.6979443856	 1.3128241212	-0.06788
C	-0.0381998834	-1.993664824	 1.5362108686	-0.131121
C	-0.3075100489	-3.0545414256	 0.5129364104	-0.141599
O	 0.3911955863	-2.9731035077	-0.7341331086	-0.224391
C	 0.340587335	-1.8594002862	-1.5071973809	 0.09565
N	 0.2479622491	-0.6287049004	-1.2494491781	-0.325333
H	-0.9863671408	 1.7000581602	 0.8772145033	 0.1171
H	-0.9451546867	 1.6285984203	-0.9521140625	 0.130941
H	 1.5625383404	 1.5302960574	-0.9124043935	 0.130481
H	 1.5520351329	 1.5892116528	 0.9174332177	 0.117446
H	 0.2979291247	-0.050243369	 2.1781878447	 0.087724
H	-0.0772514271	-2.3424475202	 2.5650640456	 0.094513
H	-0.026097485	-4.0339553563	 0.9096945959	 0.124121
H	-1.3849252477	-3.0962989595	 0.2927536115	 0.12323
H	 0.4421509886	-2.1602058503	-2.5504901007	 0.115501
65.1257	122.4947	239.3375	298.415	317.2583	372.2068	402.6388	486.3295	599.8966	634.2439	716.6457	776.4495	785.2204	820.5515	858.0199	901.8989	910.3609	945.7161	965.0635	994.0835	998.3515	1011.7372	1041.649	1058.3508	1080.3757	1171.8381	1198.4845	1221.4028	1265.0872	1289.4796	1342.7094	1410.8827	1437.7304	1444.1094	1455.3008	1485.7218	1491.4899	1739.4349	1768.4459	2993.8674	3084.9689	3129.219	3133.726	3143.3752	3147.0938	3163.828	3233.1815	3247.3261
C1CC11C=CCOC=N1	C1CC21C=CCOC=N2	
InChI=1S/C7H9NO/c1-2-7(3-4-7)8-6-9-5-1/h1-2,6H,3-5H2	InChI=1S/C7H9NO/c1-2-7(3-4-7)8-6-9-5-1/h1-2,6H,3-5H2
