21
gdb 63167	2.30726	1.6395	1.30311	1.4184	78.38	-0.2415	0.0691	0.3105	1089.0525	0.181747	-424.217902	-424.208768	-424.207824	-424.250783	35.597	
C	-0.0450592241	 1.5449276339	 0.050912476	-0.473901
C	 0.0381901512	 0.0275541597	 0.0570558676	 0.281965
C	-1.2440076121	-0.6423888075	-0.4127050475	-0.444768
C	 1.3220783831	-0.7071590152	-0.330965123	-0.197094
C	 2.6411338124	 0.0343405131	-0.3078165505	-0.105214
O	 2.71793967	 0.6964903123	 0.960728878	-0.254386
C	 1.8858988266	 0.0310038413	 1.8990941109	-0.143781
C	 0.8245765902	-0.7196763122	 1.1040371263	 0.322288
O	 0.2213079146	-1.8089448672	 1.7294891435	-0.465458
H	 0.8797361419	 2.0176744057	 0.3836908669	 0.143522
H	-0.2667931019	 1.9061515201	-0.9601059503	 0.111901
H	-0.8592892673	 1.88387684	 0.701923704	 0.114159
H	-1.4785386126	-0.3340031372	-1.4378047929	 0.109113
H	-1.1693007291	-1.7307067005	-0.383754808	 0.122915
H	-2.0875526684	-0.3538675431	 0.2240450326	 0.117944
H	 1.2319886336	-1.5886876407	-0.9565541826	 0.086386
H	 3.4745764323	-0.6760333852	-0.428684418	 0.092658
H	 2.7447710314	 0.8101432261	-1.0749276889	 0.108796
H	 2.4550756398	-0.7030201534	 2.4971862269	 0.078576
H	 1.4878738606	 0.7863118975	 2.5855665122	 0.112683
H	 0.8979649778	-2.4755373677	 1.8951027867	 0.281696
174.214	200.5255	209.0212	212.832	224.1709	247.6305	288.3634	309.4241	369.0013	393.0702	436.3152	513.5466	610.8736	683.9969	688.8426	751.7493	896.1221	921.366	941.5821	969.5104	975.1165	1021.1328	1034.104	1064.8507	1087.5909	1105.57	1157.4635	1172.2378	1192.1541	1213.2512	1238.6412	1271.7298	1303.2116	1313.2384	1360.3078	1388.8445	1407.3698	1420.4611	1462.6733	1486.2031	1492.1058	1509.039	1513.3376	1521.4786	1528.3258	2944.7742	2976.3903	3027.2364	3033.1273	3053.2906	3061.3263	3080.5593	3089.5188	3133.0188	3139.676	3171.232	3785.0678
CC1(C)C2COCC12O	CC1(C)[C@H]2COC[C@@]12O	
InChI=1S/C7H12O2/c1-6(2)5-3-9-4-7(5,6)8/h5,8H,3-4H2,1-2H3	InChI=1S/C7H12O2/c1-6(2)5-3-9-4-7(5,6)8/h5,8H,3-4H2,1-2H3/t5-,7+/m1/s1
