21
gdb 115547	2.36184	1.20148	1.05475	1.4025	85.7	-0.2465	0.0524	0.2989	1291.3961	0.179738	-387.040523	-387.030422	-387.029478	-387.075337	37.503	
C	-0.4029116548	 1.5404933252	-0.0153895526	-0.239739
O	-0.4420657984	 0.2730744771	 0.6027744799	-0.239167
C	-1.3037880801	-0.6284406274	-0.0290748944	 0.140397
C	-0.8598067378	-1.3139732667	-1.3503786746	-0.27638
C	-1.4069649064	-2.6508909699	-0.7842641973	-0.257297
C	-1.3882851961	-2.032589968	 0.6607073669	 0.085048
C	-0.1067831864	-2.390310089	 1.4303017506	-0.431749
C	-2.5698550561	-2.2638942516	 1.4747662902	 0.262617
C	-3.5560888495	-2.454091068	 2.1371682196	-0.454969
H	 0.2746210867	 2.1663069733	 0.5701504578	 0.128844
H	-0.0286094541	 1.4839343402	-1.0484253059	 0.108937
H	-1.3978250859	 2.0119697047	-0.0341076126	 0.107843
H	-2.3097593753	-0.1949721878	-0.1312580089	 0.073333
H	-1.2937959968	-0.9466257356	-2.2821788499	 0.099772
H	 0.2295154459	-1.3163731353	-1.441670574	 0.111428
H	-2.4239421133	-2.8631840114	-1.1185775873	 0.113856
H	-0.7939822572	-3.5439586975	-0.9219874372	 0.107055
H	 0.7787614	-2.2407927154	 0.8070726843	 0.116032
H	-0.0033806624	-1.7635954752	 2.3184164659	 0.13672
H	-0.1421682831	-3.4380974533	 1.7420432755	 0.118864
H	-4.4244217091	-2.6211215382	 2.724777474	 0.188555
72.701	106.9962	150.1955	164.9362	190.9365	213.3378	234.1997	308.5513	347.242	383.5169	470.7889	529.6158	566.9357	583.9747	616.814	622.7509	737.5915	799.4154	891.5672	918.6858	939.905	967.5394	978.678	1040.6762	1103.1602	1140.6477	1155.7972	1181.4609	1184.8504	1208.7561	1229.7694	1243.1817	1260.3538	1260.889	1315.3236	1390.3429	1409.7092	1477.183	1481.262	1486.6184	1488.1249	1494.8774	1498.0201	1510.1464	2229.0957	2976.9035	2992.5075	3026.1159	3047.7278	3066.1099	3074.4554	3116.0849	3116.7289	3120.2349	3133.0585	3136.1442	3502.751
COC1CCC1(C)C#C	CO[C@H]1CC[C@]1(C)C#C	
InChI=1S/C8H12O/c1-4-8(2)6-5-7(8)9-3/h1,7H,5-6H2,2-3H3	InChI=1S/C8H12O/c1-4-8(2)6-5-7(8)9-3/h1,7H,5-6H2,2-3H3/t7-,8-/m0/s1
