23
gdb 103422	2.22629	1.45405	1.25921	1.5717	84.54	-0.2471	0.068	0.3151	1176.6054	0.204736	-388.266625	-388.256938	-388.255994	-388.300314	37.831	
C	 0.1215022522	 1.5458156347	 0.0640609575	-0.395424
C	 0.0147580964	 0.0231645826	-0.0965597633	-0.224331
C	-1.4092413738	-0.5415126589	-0.0026856959	 0.289534
C	-2.3354365885	 0.0541881398	-1.0658881718	-0.456415
C	-1.5387503531	-2.0805317332	 0.0229605274	-0.074656
C	-0.8788024462	-2.6868565026	 1.2233595519	-0.324236
C	-2.2311045192	-2.040822184	 1.3890299699	-0.079224
C	-2.110959858	-0.5199852739	 1.4263032778	 0.08124
O	-1.4642335116	 0.0803450293	 2.528181231	-0.429606
H	 1.1703090911	 1.8595519948	 0.0548099675	 0.105717
H	-0.3841554557	 2.0796517153	-0.7461293907	 0.112328
H	-0.3199239625	 1.8628947321	 1.0123817662	 0.138467
H	 0.440649424	-0.2801667344	-1.0629910959	 0.090837
H	 0.6461065563	-0.4489675266	 0.6644776727	 0.079231
H	-1.9332990644	-0.104297206	-2.073593574	 0.109511
H	-3.3240735689	-0.4159388333	-1.0265275391	 0.1118
H	-2.4725417775	 1.1301396443	-0.9230464373	 0.120119
H	-1.8116074293	-2.6793268449	-0.8387543916	 0.082251
H	-0.8906857562	-3.771344936	 1.2651407363	 0.115916
H	 0.0233477843	-2.2564659549	 1.6525699411	 0.097354
H	-3.0829911899	-2.6101532774	 1.7415742549	 0.085382
H	-3.0846684134	-0.0273932647	 1.3590417756	 0.083441
H	-0.7400134359	-0.4933711024	 2.7983261898	 0.280764
109.2111	132.7637	174.1577	230.8187	245.0496	257.1368	270.7706	295.938	318.171	366.6883	458.2138	497.6466	588.656	614.4266	740.5833	770.6035	795.746	818.6758	898.3536	930.2526	945.403	983.5072	996.8085	1013.1225	1017.257	1043.356	1064.1372	1074.3353	1085.3881	1114.9638	1167.95	1188.9672	1202.5172	1227.8255	1261.7384	1271.0513	1303.9983	1327.021	1365.6793	1370.9431	1402.9547	1408.2126	1434.1183	1477.4341	1492.7412	1496.7197	1500.5059	1509.3416	1514.7199	3013.7883	3024.5529	3040.8696	3053.167	3073.0529	3088.1636	3099.6468	3105.7523	3107.6201	3125.755	3169.8639	3178.4339	3195.5355	3816.1477
CCC1(C)C2CC2C1O	CC[C@@]1(C)[C@H]2C[C@H]2[C@H]1O	
InChI=1S/C8H14O/c1-3-8(2)6-4-5(6)7(8)9/h5-7,9H,3-4H2,1-2H3	InChI=1S/C8H14O/c1-3-8(2)6-4-5(6)7(8)9/h5-7,9H,3-4H2,1-2H3/t5-,6+,7-,8+/m1/s1
