15
gdb 31459	6.69553	0.86232	0.77451	5.8425	77.5	-0.2059	-0.0195	0.1863	1402.4459	0.113551	-416.845201	-416.83681	-416.835866	-416.878848	30.016	
C	-0.0880464396	 1.4454721676	-0.1609295592	-0.33418
N	 0.2640122553	 0.051006251	 0.0907019824	-0.391504
C	 0.6990531175	-0.7398260147	-0.9456077041	 0.473624
C	 0.6431161834	-2.0816567306	-1.1872237473	-0.443392
C	 1.385205289	-2.2810456339	-2.4082747534	 0.177409
C	 1.8172157218	-1.0532675557	-2.8122606487	-0.117936
O	 1.4030586463	-0.1074810661	-1.9242010927	-0.171877
C	 1.6181797052	-3.5078303321	-3.0778171589	 0.200524
N	 1.8013085433	-4.5163831429	-3.61674323	-0.342866
H	 0.7757773535	 1.9713429054	-0.5714748765	 0.155672
H	-0.9293245716	 1.56474916	-0.8588107836	 0.124024
H	-0.3497700919	 1.911628891	 0.7909342442	 0.134029
H	-0.3807071083	-0.436237363	 0.6949640084	 0.252595
H	 0.1523103404	-2.836817441	-0.5972793543	 0.122866
H	 2.3822601555	-0.705536485	-3.6587933961	 0.161012
51.3355	116.3409	142.7768	174.2762	228.6101	317.694	418.4691	504.971	515.0024	571.4602	623.1878	641.5043	687.2109	709.3821	741.8194	762.7956	948.5477	998.1531	1059.2525	1139.3912	1150.1633	1165.1389	1202.8874	1252.518	1330.295	1394.9133	1451.308	1483.8388	1490.5106	1516.5112	1595.1427	1665.4027	2350.138	3001.1751	3102.9687	3143.6443	3278.6103	3301.0824	3614.7167
CNC1=CC(=CO1)C#N	CNc1cc(co1)C#N	
InChI=1S/C6H6N2O/c1-8-6-2-5(3-7)4-9-6/h2,4,8H,1H3	InChI=1S/C6H6N2O/c1-8-6-2-5(3-7)4-9-6/h2,4,8H,1H3
