17
gdb 26729	3.24783	1.27549	0.92213	3.7846	81.23	-0.1922	-0.0273	0.1649	1217.9586	0.136478	-418.065039	-418.056199	-418.055255	-418.098493	32.486	
C	-0.0032104085	 1.5171201837	 0.0681647593	-0.510756
C	 0.0135923226	 0.0282649134	-0.0360538101	 0.256786
C	 0.031847203	-0.7846376359	-1.140355032	 0.159126
N	 0.1007733393	-0.4044078728	-2.487045072	-0.604362
C	 0.0566699398	-2.1538991321	-0.687300524	-0.227127
C	 0.0512227343	-2.1428078692	 0.6709711872	-0.064708
N	 0.0289433221	-0.8194641747	 1.0919262503	-0.102935
C	 0.0217559596	-0.4354386565	 2.4214525683	 0.169267
O	 0.026404755	-1.2056639301	 3.3509667193	-0.310383
H	 0.8906891442	 1.92160134	 0.5600672422	 0.137069
H	-0.0325513938	 1.9559571694	-0.9330419246	 0.124841
H	-0.8771057467	 1.89893164	 0.6111069482	 0.132976
H	-0.2479200953	 0.5283841095	-2.6637482374	 0.240969
H	-0.3684305696	-1.0575203815	-3.10063831	 0.24633
H	 0.0818816478	-3.029730283	-1.3185989414	 0.104624
H	 0.061179066	-2.9294477836	 1.4054120975	 0.15262
H	 0.01138573	 0.6606793434	 2.5409978691	 0.095663
92.151	120.7344	180.9238	213.0034	219.6691	281.7924	293.0761	324.655	400.7789	518.2205	602.8116	647.7537	657.7785	718.1563	745.7669	768.8876	842.6566	845.5154	941.7695	1029.7791	1044.2963	1059.4727	1071.5975	1150.5164	1222.8863	1279.8247	1329.6123	1406.2189	1423.62	1450.2732	1472.6884	1477.5613	1498.6882	1549.312	1649.8655	1683.2395	1806.1332	2999.1128	3013.3894	3054.3668	3105.2206	3243.5076	3297.2241	3541.3952	3630.8246
CC1=C(N)C=CN1C=O	Cc1c(N)ccn1C=O	
InChI=1S/C6H8N2O/c1-5-6(7)2-3-8(5)4-9/h2-4H,7H2,1H3	InChI=1S/C6H8N2O/c1-5-6(7)2-3-8(5)4-9/h2-4H,7H2,1H3
