16
gdb 7894	3.29721	1.86036	1.33698	4.4334	67.67	-0.2331	-0.057	0.1761	925.9814	0.131492	-379.963508	-379.955855	-379.954911	-379.996126	28.374	
C	 0.0988573475	 1.5555471671	 0.0554985676	-0.389081
C	-0.0178774094	 0.0295415704	-0.0198810671	 0.02833
C	 0.7024681598	-0.575111077	-1.248185981	-0.34908
C	 1.9455354631	-1.254544308	-0.6873757888	 0.350224
O	 2.8757783128	-1.7141552118	-1.2953834931	-0.304932
C	 1.8200290005	-1.261792053	 0.8268600017	 0.274447
N	 2.6419616427	-1.7488961088	 1.6697746754	-0.542117
N	 0.6353885714	-0.6384640375	 1.1073879146	-0.308969
H	 1.1478932013	 1.8684589718	 0.0243859549	 0.129033
H	-0.4286054731	 2.0235558999	-0.782065798	 0.124428
H	-0.3410247513	 1.9349766435	 0.9835918828	 0.120281
H	-1.0805441282	-0.2401672304	-0.0303511919	 0.092941
H	 0.0909080009	-1.3371028495	-1.7430895473	 0.148119
H	 0.9690642136	 0.1682262451	-2.0028956891	 0.141868
H	 3.4155102479	-2.1683470495	 1.1495563559	 0.23102
H	 0.3973767604	-0.4111114123	 2.0600058035	 0.253488
38.7618	102.5065	261.0798	310.886	331.774	371.5431	419.4102	495.7901	536.2271	622.1905	660.4071	697.3841	755.7092	839.4643	864.5367	917.6113	972.8936	1039.2908	1078.2734	1086.5822	1137.6408	1180.6249	1208.5095	1250.4701	1321.0178	1376.8636	1406.6288	1412.5909	1440.2546	1449.4672	1493.1358	1496.6857	1742.3387	1854.0245	3025.3143	3031.4971	3061.6882	3104.6404	3109.8847	3115.6685	3460.6288	3636.4715
CC1CC(=O)C(=N)N1	C[C@H]1CC(=O)[C]([NH])N1	
InChI=1S/C5H8N2O/c1-3-2-4(8)5(6)7-3/h3H,2H2,1H3,(H2,6,7)	InChI=1S/C5H8N2O/c1-3-2-4(8)5(6)7-3/h3H,2H2,1H3,(H2,6,7)/t3-/m0/s1
