17
gdb 50467	4.1651	1.0083	0.84772	1.4868	69.14	-0.2441	-0.0401	0.204	1294.6229	0.134622	-458.989744	-458.981277	-458.980333	-459.023721	30.54	
O	-0.9361854588	 1.1968184532	 0.0517674471	-0.243959
C	 0.1901787773	 0.7785080497	 0.0112839715	 0.136838
C	 1.4219669455	 1.6728782001	 0.0404503124	 0.034267
C	 1.2926505186	 2.8347587165	 1.0263090935	-0.211725
C	 2.5839784575	 3.6682280835	 1.0237736881	-0.331412
C	 3.8363718701	 2.8047810599	 1.0822006635	 0.380193
O	 4.8432561395	 3.1338187819	 1.660356912	-0.29258
C	 3.7709242318	 1.4992659062	 0.2821328705	-0.178659
O	 2.5189690923	 0.8399740431	 0.3690413315	-0.26118
H	 0.4275571529	-0.3047308163	-0.0621335662	 0.102419
H	 1.5463698484	 2.0730468122	-0.9857509025	 0.094264
H	 0.4223832879	 3.442116719	 0.7647789712	 0.130437
H	 1.1132328544	 2.4201364991	 2.024488172	 0.122832
H	 2.6480853157	 4.2340990573	 0.0819647254	 0.130667
H	 2.6196370877	 4.3961702936	 1.8376095523	 0.133121
H	 4.0096679017	 1.7403355195	-0.7705777217	 0.112385
H	 4.5320725875	 0.8127804315	 0.6566262093	 0.142094
53.0041	80.612	166.7724	196.8843	204.7405	354.438	416.846	441.3528	455.7597	489.0963	600.5641	673.0532	756.2154	794.1619	839.1315	913.9193	971.9295	994.2097	1048.7117	1095.6313	1112.0419	1142.9186	1180.2741	1206.6515	1250.8265	1272.388	1306.8408	1332.9858	1345.66	1369.8933	1378.3711	1404.2735	1457.1704	1467.7389	1486.3813	1828.0998	1840.3904	2908.1013	2912.6558	2941.3956	3008.8386	3051.9319	3106.0555	3109.6447	3123.7042
O=CC1CCC(=O)CO1	O=C[C@H]1CCC(=O)CO1	
InChI=1S/C6H8O3/c7-3-6-2-1-5(8)4-9-6/h3,6H,1-2,4H2	InChI=1S/C6H8O3/c7-3-6-2-1-5(8)4-9-6/h3,6H,1-2,4H2/t6-/m1/s1
