15
gdb 27185	3.22718	1.31609	1.00251	1.7529	69.79	-0.21	-0.0076	0.2024	1136.053	0.114366	-453.944287	-453.936695	-453.935751	-453.976975	28.098	
O	-0.3493890596	 1.3711221096	 0.1522417764	-0.42733
C	-0.063666087	 0.061875332	 0.021849316	 0.237803
C	 0.2352469102	-0.6144207273	-1.1209974266	 0.256832
O	 0.4503172714	-1.9281920141	-0.7388420776	-0.190938
C	 0.2670521275	-1.9402216998	 0.593332659	 0.07077
N	-0.0371425535	-0.7906198993	 1.1069618216	-0.3343
C	 0.3438227369	-0.2511695949	-2.5331937465	-0.110172
C	 1.2435511855	-0.9940487358	-3.4586325632	-0.241509
N	-0.2158138767	-1.1231008521	-3.5926839673	-0.323141
H	-0.5208016816	 1.5291390058	 1.0883053144	 0.308617
H	 0.3856323529	-2.8858946338	 1.0976848852	 0.155678
H	 0.1767562123	 0.8082696671	-2.7035540374	 0.113761
H	 1.7349632206	-0.4642340785	-4.2698623119	 0.123726
H	 1.8053839029	-1.8274182533	-3.0467613312	 0.122621
H	-0.515210532	-2.0003643356	-3.1719422608	 0.237584
63.6398	150.7895	158.4298	298.1672	303.0318	341.9218	449.5214	527.0052	621.543	662.3071	733.2689	742.8387	809.4283	817.6487	880.2338	955.7423	964.2423	994.7122	1063.4652	1097.9941	1137.1901	1158.4528	1174.8883	1225.5682	1257.0307	1292.7297	1299.2003	1321.4387	1395.2333	1457.984	1505.4475	1553.8124	1726.7703	3112.2885	3158.7098	3201.659	3279.2412	3496.5903	3810.6692
OC1=C(OC=N1)C1CN1	Oc1c(ocn1)[C@H]1CN1	
InChI=1S/C5H6N2O2/c8-5-4(3-1-6-3)9-2-7-5/h2-3,6,8H,1H2	InChI=1S/C5H6N2O2/c8-5-4(3-1-6-3)9-2-7-5/h2-3,6,8H,1H2/t3-/m1/s1
