16
gdb 28058	5.5893	0.96184	0.82483	1.5673	75.75	-0.2027	0.0087	0.2114	1352.0297	0.125434	-434.113828	-434.105413	-434.104469	-434.147317	30.426	
C	-0.0737996146	 1.4960372882	-0.0023084869	-0.488854
C	-0.0537258015	 0.010426218	 0.0115552377	 0.399911
N	-1.0520494214	-0.8049498507	-0.1499416226	-0.376755
C	-0.4862819338	-2.0670207636	-0.0463316625	 0.324944
N	-1.3110121502	-3.1727043467	-0.1767139727	-0.383634
C	-0.9149809255	-4.479584403	-0.1011961497	 0.074016
N	 0.2991004687	-4.8170134395	 0.1045322233	-0.460088
C	 0.8482669691	-1.9568412689	 0.1764229897	-0.110762
O	 1.1284402484	-0.6068408365	 0.2138920742	-0.178104
H	 0.573984733	 1.8905925022	-0.7919363438	 0.146949
H	-1.0946386023	 1.8370941081	-0.1753433763	 0.153773
H	 0.28295749	 1.9029744936	 0.9494989878	 0.146946
H	-2.2813287136	-2.9618663738	-0.340713081	 0.263176
H	-1.7567089375	-5.1676719265	-0.2373489996	 0.093941
H	 0.3829424194	-5.8301684391	 0.1256968851	 0.223167
H	 1.6520170116	-2.650944752	 0.3159211572	 0.171375
72.8472	90.3545	167.1302	195.3175	247.3108	280.1256	383.514	422.8645	476.9098	574.3633	656.3018	707.9273	724.2763	740.5668	801.5456	832.0362	948.5219	1016.2326	1034.7083	1042.3689	1065.5162	1118.4864	1128.8177	1200.1972	1252.0021	1294.324	1356.4302	1409.4872	1413.2386	1475.6008	1481.5056	1548.5494	1627.9217	1658.7597	1718.9992	3044.0645	3057.7359	3098.1896	3156.7785	3354.7607	3521.0315	3661.621
CC1=NC(NC=N)=CO1	Cc1nc(NC=N)co1	
InChI=1S/C5H7N3O/c1-4-8-5(2-9-4)7-3-6/h2-3H,1H3,(H2,6,7)	InChI=1S/C5H7N3O/c1-4-8-5(2-9-4)7-3-6/h2-3H,1H3,(H2,6,7)
