24
gdb 8004	3.06025	1.51827	1.16586	0.2039	84.66	-0.2943	0.0774	0.3716	1161.1607	0.224231	-314.301013	-314.291881	-314.290936	-314.334697	35.327	
C	-0.1027166696	 1.5420946407	-0.0585886768	-0.408746
C	 0.0681092086	 0.0283908805	 0.0531779744	 0.051187
C	 0.6747090058	-0.6362796721	-1.2036478777	-0.222017
C	 1.4079811337	-1.92921707	-0.730234898	 0.022595
C	 2.8531527434	-1.9712788812	-1.2429175076	-0.394518
C	 1.2615382959	-1.9197855372	 0.8296224994	 0.041855
C	 2.3858261572	-2.5799012357	 1.627698299	-0.41703
C	 1.0074846472	-0.4433521941	 1.1731897895	-0.207003
H	 0.8627844692	 2.0325116515	-0.2313483426	 0.109458
H	-0.7634892163	 1.8098180938	-0.8904818839	 0.109456
H	-0.5327710321	 1.9656739993	 0.8555720277	 0.108504
H	-0.919024771	-0.4179489196	 0.2404082088	 0.065804
H	-0.0803419301	-0.8375479679	-1.9699347233	 0.090308
H	 1.4006584465	 0.0507122752	-1.6577332638	 0.088618
H	 0.896426998	-2.8148743571	-1.123683006	 0.062731
H	 3.4403531534	-1.1262931709	-0.8648184347	 0.111074
H	 3.3677131186	-2.892791446	-0.9535941669	 0.109889
H	 2.868369349	-1.9131729348	-2.3367048774	 0.109032
H	 0.3335453546	-2.4608384281	 1.061711084	 0.066456
H	 3.3436610536	-2.0702864635	 1.4811374829	 0.113718
H	 2.1616085575	-2.5553141976	 2.6996108153	 0.107692
H	 2.5204522438	-3.6297567604	 1.3448759201	 0.109514
H	 1.9492314171	 0.1239784442	 1.134348854	 0.085942
H	 0.5892060862	-0.3045409288	 2.1759962433	 0.085479
35.784	137.4178	231.9218	248.9784	260.3701	270.9052	287.3143	358.3697	385.3283	424.9801	488.931	514.7532	595.363	744.8355	846.7049	865.3173	882.3407	906.2506	944.1249	953.0616	988.7317	1020.6569	1039.2534	1053.3666	1079.6604	1104.8341	1153.1232	1166.9451	1189.3888	1214.2756	1254.5502	1279.7841	1306.9369	1312.5078	1343.2347	1352.0268	1372.815	1381.5031	1385.8679	1407.2553	1411.0401	1415.9035	1487.1497	1491.2081	1493.734	1497.1966	1497.5145	1503.8797	1507.1567	1509.7191	2991.3067	2993.0813	3008.088	3019.096	3022.9397	3025.406	3029.1024	3030.2248	3067.598	3074.8451	3087.9215	3089.3149	3089.8426	3091.363	3100.4127	3101.3103
CC1CC(C)C(C)C1	C[C@H]1C[C@@H](C)[C@@H](C)C1	
InChI=1S/C8H16/c1-6-4-7(2)8(3)5-6/h6-8H,4-5H2,1-3H3	InChI=1S/C8H16/c1-6-4-7(2)8(3)5-6/h6-8H,4-5H2,1-3H3/t6-,7+,8-
