23
gdb 113437	4.30324	0.77773	0.73418	1.4929	87.03	-0.2554	0.0786	0.334	1648.1296	0.204764	-388.269489	-388.25972	-388.258775	-388.304309	37.237	
C	-0.724801105	 1.5846312485	 0.4818457663	-0.369862
C	 0.0901310657	 0.3681491594	 0.0276863691	-0.195965
C	 0.8212451333	-0.3130311961	 1.166758855	-0.063022
C	 0.1126297101	-1.3352839178	 2.0331083592	-0.348843
C	 1.20794583	-1.7587497243	 1.0923847817	 0.36257
C	 1.0446614622	-2.7537528102	-0.0668839126	-0.342936
C	 2.0888167728	-3.6559838676	 0.6541668007	 0.175135
O	 3.0433078361	-4.3614408635	-0.0956764102	-0.434473
C	 2.5213879704	-2.4317543168	 1.512314669	-0.348596
H	-0.0800998636	 2.3413903082	 0.9424005436	 0.112927
H	-1.241357859	 2.0552541263	-0.3606670239	 0.108882
H	-1.4777210326	 1.2977086548	 1.2232993614	 0.11793
H	-0.5735331031	-0.3571579534	-0.4594846283	 0.095212
H	 0.8135461177	 0.6787980932	-0.7383958741	 0.092808
H	 1.5269725011	 0.3306795384	 1.6906395072	 0.075374
H	 0.3141612206	-1.3439168537	 3.0999707696	 0.106697
H	-0.9099178436	-1.594622479	 1.7711901894	 0.106239
H	 0.0555243608	-3.1760429723	-0.2613368432	 0.101041
H	 1.4511652501	-2.3624094744	-1.0084133978	 0.088908
H	 1.5895692425	-4.4062117239	 1.2733315823	 0.096285
H	 3.5071392554	-3.7296872032	-0.6555945879	 0.274917
H	 3.3975701167	-1.9361848628	 1.0743486168	 0.087817
H	 2.7066891115	-2.5944069598	 2.5774421469	 0.100955
58.6023	88.2468	129.338	177.3734	252.6936	272.8884	293.2132	326.3531	360.1439	424.5112	435.9137	467.1415	588.2297	711.5914	770.2409	803.974	832.0423	876.4449	900.1579	919.8144	941.1599	976.7952	1012.8746	1022.2748	1042.9247	1065.7196	1076.4768	1094.921	1121.9049	1133.69	1178.5689	1192.7559	1209.9098	1219.991	1244.5663	1279.4827	1294.4763	1327.1355	1332.8771	1362.5438	1410.1175	1429.8057	1438.2722	1469.7065	1482.8496	1493.9855	1498.4158	1500.2513	1507.6267	3012.2488	3020.3458	3026.8243	3031.3019	3046.8224	3073.7878	3092.7931	3098.0012	3099.9089	3104.2976	3111.1529	3112.5514	3196.2327	3803.6657
CCC1CC11CC(O)C1	CC[C@H]1C[C@]21C[C@@H](O)C2	
InChI=1S/C8H14O/c1-2-6-3-8(6)4-7(9)5-8/h6-7,9H,2-5H2,1H3	InChI=1S/C8H14O/c1-2-6-3-8(6)4-7(9)5-8/h6-7,9H,2-5H2,1H3/t6-,7-,8+/m0/s1
