16
gdb 51967	5.25501	0.80632	0.73757	6.0437	68.67	-0.267	-0.0216	0.2454	1484.319	0.122547	-475.031366	-475.022387	-475.021443	-475.066538	30.691	
O	 0.6233671892	 0.1683816695	 0.4300991845	-0.272731
C	 0.7737052737	 1.2068929439	-0.1346031048	 0.190261
O	 0.3673670979	 2.3829683681	 0.4052610792	-0.166023
C	 0.6792873019	 3.5609951595	-0.3139797576	-0.20486
C	 2.1631565759	 3.91816582	-0.1898706325	 0.366835
O	 3.0116558041	 3.0785647609	-0.0013501153	-0.317479
N	 2.4318902307	 5.2543334164	-0.4545160188	-0.085568
C	 2.143919003	 6.3520673051	 0.4617237937	-0.237329
C	 3.5513291189	 5.9464331431	 0.1437679481	-0.216174
H	 1.2159700266	 1.3238832425	-1.1397282378	 0.087225
H	 0.4462455949	 3.4568886065	-1.3830765181	 0.145335
H	 0.0431771948	 4.3527104915	 0.085513182	 0.14318
H	 1.7162576554	 7.2436067981	 0.0127024912	 0.137272
H	 1.7608739927	 6.099619376	 1.4474366988	 0.14242
H	 4.1113166698	 5.4037160856	 0.8997457224	 0.150729
H	 4.1440246104	 6.5543497533	-0.532601375	 0.136906
39.2783	77.599	98.5735	182.8829	192.3465	206.6763	306.7829	343.3593	417.3361	578.6364	606.3844	671.6911	806.7154	835.9781	919.5921	967.435	1001.8236	1028.2444	1052.0488	1076.898	1119.6425	1131.9908	1139.3088	1171.9813	1179.2909	1194.1895	1287.9923	1361.1505	1411.7401	1430.7513	1476.1404	1496.4775	1523.0148	1800.7346	1875.7883	2983.9681	3020.769	3111.5477	3122.0296	3124.723	3200.0862	3218.3569
O=COCC(=O)N1CC1	O=COCC(=O)N1CC1	
InChI=1S/C5H7NO3/c7-4-9-3-5(8)6-1-2-6/h4H,1-3H2	InChI=1S/C5H7NO3/c7-4-9-3-5(8)6-1-2-6/h4H,1-3H2
