17
gdb 33954	3.17091	1.45537	1.25554	4.9841	76.08	-0.2488	0.0131	0.2619	1029.8375	0.138089	-380.844231	-380.837071	-380.836127	-380.875674	28.626	
N	 0.105109936	-1.107789164	 0.0801051036	-0.34029
C	 0.0616372932	 0.0467670513	 0.0384392923	 0.228402
C	-0.0354920728	 1.486576527	-0.0187929962	 0.170257
C	 0.3414152825	 2.2075243164	-1.2749397041	-0.277529
N	 1.2336388511	 2.2587980846	-0.1206247555	-0.119511
C	 1.0980142256	 3.4397257927	 0.7701196483	-0.192524
C	-0.2419934364	 3.3680669559	 1.5048742878	-0.035833
C	-1.5235036973	 3.5109558416	 0.7251065378	-0.308908
C	-0.9625213579	 2.1377098034	 0.9928880739	-0.090184
H	 0.7265830039	 1.6390891443	-2.1170955523	 0.13851
H	-0.2372045999	 3.0833388027	-1.5524015921	 0.123083
H	 1.9160283456	 3.3944419026	 1.4947943989	 0.127154
H	 1.2267954218	 4.3570770609	 0.1850883488	 0.117704
H	-0.2486760017	 3.6188575981	 2.5597522587	 0.102038
H	-2.4121697549	 3.7825657686	 1.2852731809	 0.124478
H	-1.503803844	 3.9247796697	-0.2762955461	 0.120924
H	-1.4977822448	 1.4683588342	 1.6540529754	 0.112227
132.1278	157.7333	251.629	290.9962	420.883	444.6353	507.8652	549.3795	591.7115	680.6272	708.3092	791.2088	814.873	828.7937	847.5516	901.9031	925.7682	991.4222	999.9288	1024.6585	1059.3814	1074.1085	1109.6942	1125.2162	1133.2205	1160.3522	1200.0977	1208.9511	1242.7997	1312.6169	1342.183	1351.1514	1398.5874	1485.8268	1497.7064	1519.7648	2357.254	3046.1107	3088.2762	3113.9652	3138.1488	3170.7066	3196.3649	3199.4215	3220.1808
N#CC12CN1CC1CC21	N#C[C@]12CN1C[C@H]1C[C@@H]21	
InChI=1S/C7H8N2/c8-3-7-4-9(7)2-5-1-6(5)7/h5-6H,1-2,4H2	InChI=1S/C7H8N2/c8-3-7-4-9(7)2-5-1-6(5)7/h5-6H,1-2,4H2/t5-,6-,7-,9?/m1/s1
