19
gdb 65166	2.60631	1.25358	1.10036	2.7922	79.84	-0.2514	0.0279	0.2793	1186.2239	0.15951	-382.048297	-382.039471	-382.038527	-382.082064	33.434	
C	 0.119567546	 1.5506085667	-0.1280426909	-0.504257
C	 0.0509991421	 0.0395814161	-0.0419864272	 0.323773
C	 1.1668207644	-0.7566300793	-0.6216710953	-0.26693
N	 1.0197181493	-0.6464046001	 0.8408927405	-0.354852
C	-1.3077088341	-0.6142575005	 0.0124393553	-0.03713
C	-2.5890642086	 0.1312747771	 0.2285638501	-0.312999
C	-2.330074448	-0.5224461697	-1.1218723406	-0.177932
C	-2.0885531938	 0.2905110421	-2.2794967517	 0.295156
N	-1.8960335681	 0.9382134555	-3.2195111519	-0.350684
H	 1.1612631998	 1.8762583736	-0.2079941206	 0.116457
H	-0.4111162002	 1.9369846891	-1.002956776	 0.157043
H	-0.3108404789	 2.0146712623	 0.7665821687	 0.124079
H	 0.9767562631	-1.7474621697	-1.0254711188	 0.117844
H	 1.9721238123	-0.2175918863	-1.1133215377	 0.116985
H	 1.6878252581	 0.0279248407	 1.2069899827	 0.22978
H	-1.2545617639	-1.6026136523	 0.4570527968	 0.116103
H	-3.3580225553	-0.3123153471	 0.8502225991	 0.13199
H	-2.5565416738	 1.2137133005	 0.2554030252	 0.140751
H	-2.8800859703	-1.4310739586	-1.3425514376	 0.134822
46.8064	118.5648	191.2357	235.3497	257.1204	270.1904	359.6978	365.0313	424.5849	459.0825	562.2431	625.2694	700.3594	771.0045	825.2025	841.185	872.7659	923.8371	934.9598	969.6531	994.3758	1007.8753	1052.8468	1073.3394	1088.5801	1119.9119	1124.4	1150.1146	1166.032	1220.0678	1263.6226	1311.0986	1356.5885	1375.6787	1418.0368	1428.381	1487.7985	1491.6963	1507.8714	1516.2244	2347.5362	3032.5094	3098.0912	3107.8714	3115.57	3147.5794	3163.768	3171.7305	3192.5163	3237.4173	3493.497
CC1(CN1)C1CC1C#N	C[C@]1(CN1)[C@H]1C[C@H]1C#N	
InChI=1S/C7H10N2/c1-7(4-9-7)6-2-5(6)3-8/h5-6,9H,2,4H2,1H3	InChI=1S/C7H10N2/c1-7(4-9-7)6-2-5(6)3-8/h5-6,9H,2,4H2,1H3/t5-,6-,7-/m0/s1
