16
gdb 7117	5.4826	0.89144	0.81287	3.1483	63.5	-0.2575	-0.0307	0.2269	1388.3464	0.127314	-420.924011	-420.914858	-420.913914	-420.959673	30.347	
C	-0.1487943422	 1.4879373731	-0.2447845779	-0.392387
C	 0.1389234379	 0.0283820557	 0.04554609	-0.047027
O	 0.6518743069	-0.5657289938	-1.1692131812	-0.23581
C	 0.9779362813	-1.864218816	-1.0920213924	 0.428062
O	 0.8610410738	-2.5414268945	-0.1001397703	-0.358415
C	 1.5084787129	-2.3833702812	-2.4138020183	-0.394547
C	 0.9210968829	-3.7472959353	-2.7544256119	 0.164499
O	 0.6565314728	-4.0929031671	-3.8744644847	-0.234925
H	 0.7604868886	 2.0126598966	-0.5508246076	 0.132347
H	-0.8904763922	 1.589687521	-1.041835778	 0.13376
H	-0.540382984	 1.9726112601	 0.6543366923	 0.127306
H	 0.8827604752	-0.0968313815	 0.8382219758	 0.126688
H	-0.7595105128	-0.5174755124	 0.3490126658	 0.127575
H	 1.3532150808	-1.6833522388	-3.234719928	 0.147621
H	 2.5902755177	-2.5314530992	-2.2855278258	 0.162779
H	 0.7681081505	-4.4067430365	-1.8759017278	 0.112474
30.4946	58.8653	90.7747	129.8531	175.1036	245.7028	272.9615	351.7613	413.7855	475.0271	597.8144	739.5684	790.5955	807.6554	873.9188	961.1368	1036.2076	1050.9482	1070.1654	1135.8593	1165.5527	1182.0089	1233.4349	1291.6296	1325.8049	1398.8599	1410.1999	1423.0843	1438.4111	1486.1126	1496.174	1518.6857	1806.3825	1841.4641	2935.4467	3029.5403	3048.0859	3056.1676	3095.0084	3122.872	3129.0141	3142.4342
CCOC(=O)CC=O	CCOC(=O)CC=O	
InChI=1S/C5H8O3/c1-2-8-5(7)3-4-6/h4H,2-3H2,1H3	InChI=1S/C5H8O3/c1-2-8-5(7)3-4-6/h4H,2-3H2,1H3
