16
gdb 29213	3.1574	1.42476	0.98749	5.474	79.64	-0.1867	-0.0231	0.1636	1139.2957	0.127815	-430.288993	-430.280893	-430.279949	-430.32134	31.468	
N	 0.106895944	 1.4585412573	 0.0045515742	-0.622567
C	 0.0672309053	 0.0261317123	-0.0232684059	 0.083216
C	-1.0967817635	-0.7755315516	-0.0191658455	-0.025061
N	-1.1480042809	-2.0835080699	-0.0109967548	-0.33958
C	 0.0463216327	-2.7827789654	-0.0220885339	 0.409718
N	 0.1979853551	-4.0533920082	-0.0321367649	-0.58539
N	 1.237268098	-2.0143496336	-0.024554778	-0.388748
H	 2.0873504471	-2.5576079883	-0.0749573199	 0.259658
C	 1.2706583773	-0.662940159	-0.0242777391	 0.451839
N	 2.4746746708	-0.0251717371	-0.0717195015	-0.575665
H	-0.2049682563	 1.8687063295	-0.8708604067	 0.243567
H	-0.4835344128	 1.8374321544	 0.7377195718	 0.24248
H	-2.0601895711	-0.2589554396	-0.0100843	 0.096711
H	-0.7249863486	-4.4833295085	-0.0308620989	 0.217755
H	 3.2765480388	-0.486058726	 0.3293714791	 0.258693
H	 2.3908582842	 0.9655440637	 0.117242884	 0.273373
95.2141	177.5434	241.2282	279.8986	305.2852	351.6899	387.9233	443.8934	468.6215	543.6197	585.7464	606.5438	626.8111	732.702	768.347	776.0487	802.7515	835.2055	846.1023	938.341	997.784	1064.4444	1124.7634	1206.3492	1272.322	1290.7894	1311.3119	1341.1501	1420.539	1510.9499	1574.1875	1637.984	1648.3747	1685.6326	1718.8685	3093.5912	3487.8663	3515.5195	3549.459	3555.5843	3607.9415	3675.4627
NC1=C[N-]C(=N)[NH+]=C1N	NC1=CN=C([NH])N[C@H]1N	
InChI=1S/C4H6N5/c5-2-1-8-4(7)9-3(2)6/h1H,5H2,(H3-,6,7,8,9)/q-1/p+1	InChI=1S/C4H8N5/c5-2-1-8-4(7)9-3(2)6/h1,3,7H,5-6H2,(H,8,9)/t3-/m1/s1
