18
gdb 41519	3.05357	1.60486	1.11741	1.7756	79.8	-0.2341	0.0054	0.2396	1077.922	0.149346	-401.935221	-401.92773	-401.926786	-401.967217	29.11	
C	-0.016754976	 1.5522423593	 0.001776438	-0.238674
C	 1.5451729956	 1.5225419148	 0.0054469977	-0.319368
C	 1.4419907441	 0.0924800779	 0.5030317687	 0.342557
C	 2.1541204202	-0.6815936117	 1.3055943938	-0.262706
C	 1.6687327224	-1.9940861356	 1.8506999605	-0.12181
O	 0.459626973	-2.5025552205	 1.2765561919	-0.236028
C	-0.7046303977	-1.7878534422	 1.3840964206	 0.094316
N	-0.9966771726	-0.6812646405	 0.85545854	-0.236042
C	-0.0052001084	-0.0064095519	 0.0509807303	-0.014998
H	-0.4150262488	 1.9594374709	 0.9334105712	 0.115659
H	-0.5165289925	 2.0233168521	-0.8465909329	 0.101403
H	 1.9602954571	 1.5917587987	-1.0061597107	 0.112737
H	 2.0668183446	 2.2393678907	 0.6438776096	 0.112124
H	 3.1377371921	-0.3715509003	 1.6548609519	 0.090633
H	 2.4096000544	-2.782784813	 1.6763130653	 0.126732
H	 1.5407501962	-1.9185324337	 2.9423589215	 0.113709
H	-1.4662968811	-2.3365199726	 1.9406618023	 0.116583
H	-0.0722985423	-0.4025637124	-0.9727476999	 0.103172
98.1907	149.311	248.5604	256.6711	314.4013	356.6638	443.1422	550.0562	619.334	700.301	739.0801	760.5113	819.7321	833.0537	899.4752	923.5773	957.8428	969.6725	1018.6408	1038.587	1063.0587	1092.8399	1103.6159	1110.3655	1163.6681	1192.5738	1223.9218	1246.1194	1261.3591	1281.8506	1320.834	1355.9114	1398.8879	1413.4851	1473.8921	1490.7362	1492.2465	1731.7812	1792.5347	2977.2071	2999.3149	3043.7129	3054.6096	3073.9094	3100.6523	3123.5648	3135.1042	3140.8361
C1CC2=CCOC=NC12	C1CC2=CCOC=N[C@@H]12	
InChI=1S/C7H9NO/c1-2-7-6(1)3-4-9-5-8-7/h3,5,7H,1-2,4H2	InChI=1S/C7H9NO/c1-2-7-6(1)3-4-9-5-8-7/h3,5,7H,1-2,4H2/t7-/m0/s1
