23
gdb 119465	4.23659	0.83185	0.77783	1.3727	86.98	-0.2267	0.0867	0.3135	1611.0101	0.204345	-388.265662	-388.255865	-388.254921	-388.300528	36.869	
C	 0.0076433699	 1.5411766977	 0.0648767791	-0.384601
C	-0.0422173306	 0.021820457	-0.1098980721	-0.156372
C	-1.4497569591	-0.5577309151	 0.1030058728	-0.300076
C	-1.4774062238	-2.0489061628	-0.0175237741	 0.506164
C	-1.6087202067	-2.8620010249	-1.2692966886	-0.339389
C	-2.5685142274	-3.0925094655	-0.1136933176	-0.229799
C	-1.8381965288	-3.7835582191	 1.0377177157	 0.154915
C	-1.3670312261	-5.2186944922	 0.9238189951	-0.40791
O	-0.7554769246	-2.8054420934	 0.9715852017	-0.349343
H	 1.0204335233	 1.926365791	-0.0889348237	 0.111828
H	-0.652552142	 2.046297142	-0.6495610816	 0.110567
H	-0.3103636034	 1.8349454806	 1.0715064467	 0.114503
H	 0.3086816844	-0.2503780338	-1.1130368825	 0.097227
H	 0.644060923	-0.4585211105	 0.5968322402	 0.118129
H	-1.8168958995	-0.2709069835	 1.0971576944	 0.100878
H	-2.1460874867	-0.1310975199	-0.6300182532	 0.096196
H	-2.0556421145	-2.3503382586	-2.1165547414	 0.110233
H	-0.8479096329	-3.5931517997	-1.5266612176	 0.111026
H	-3.6410058755	-2.9842399584	-0.2089829483	 0.094057
H	-2.3826494315	-3.6388409108	 1.9807674384	 0.078299
H	-0.8746017756	-5.405691079	-0.0339816751	 0.120792
H	-0.6570072153	-5.4481259463	 1.7248951892	 0.126603
H	-2.2178752064	-5.9022515247	 1.0174838624	 0.116074
68.8228	93.0661	100.8379	193.2938	219.4035	245.2951	263.5486	311.4023	349.0583	391.2458	475.4084	542.0532	688.44	726.8176	748.4627	833.5391	863.3765	869.157	883.7809	905.2195	959.8542	977.8172	986.879	1015.5364	1041.9619	1057.6055	1072.8474	1089.2063	1115.6821	1125.2398	1149.1495	1202.2281	1265.5789	1274.4775	1307.831	1311.9489	1334.453	1379.9185	1384.9206	1404.5473	1413.0266	1419.6022	1472.9785	1484.4494	1491.0051	1493.7893	1496.6575	1500.1759	1510.2586	3008.5616	3015.8356	3027.5124	3032.8564	3037.6406	3051.0805	3071.7543	3097.0446	3101.7373	3105.1878	3115.337	3121.5279	3193.3814	3205.6349
CCCC12CC1C(C)O2	CCC[C@]12C[C@H]1[C@@H](C)O2	
InChI=1S/C8H14O/c1-3-4-8-5-7(8)6(2)9-8/h6-7H,3-5H2,1-2H3	InChI=1S/C8H14O/c1-3-4-8-5-7(8)6(2)9-8/h6-7H,3-5H2,1-2H3/t6-,7+,8+/m1/s1
