20
gdb 76855	3.05829	1.44125	1.18341	2.6994	77.55	-0.2215	0.054	0.2755	1101.4831	0.171187	-403.069061	-403.060943	-403.059998	-403.101252	32.465	
C	-0.1366112177	 1.5343622493	 0.0208437423	-0.418114
C	-0.0142221284	 0.0159462657	-0.0160353167	-0.045669
C	 1.1060024932	-0.55160577	-0.9825959701	 0.088487
O	 1.9459173315	 0.4099062213	-1.5879636653	-0.432034
C	 1.8347736234	-1.1573976203	 0.2419418928	 0.019542
C	 0.7476987188	-0.6139271191	 1.1905574038	-0.032388
C	 0.469036497	-2.0806410418	 1.5644123452	-0.04337
C	 0.1777402168	-2.9458965649	 0.4089107255	-0.245448
N	 1.5901350962	-2.5982215228	 0.6624613307	-0.157996
H	 0.8367889579	 2.0077218486	 0.1750624834	 0.132064
H	-0.5528665467	 1.9269876358	-0.9143135559	 0.103007
H	-0.8032556438	 1.8448546619	 0.8321594397	 0.11591
H	-0.9977824267	-0.4319668301	-0.1930017615	 0.066685
H	 0.7484644432	-1.2781375743	-1.7250185845	 0.070478
H	 1.4443359644	 0.8615850395	-2.2744232951	 0.284375
H	 2.8911861087	-0.9042967517	 0.3209319408	 0.092404
H	 0.9837583622	 0.0413980211	 2.0287689674	 0.07102
H	 0.3683532464	-2.4374897742	 2.5850679008	 0.093826
H	-0.019546089	-3.9936572134	 0.6173223165	 0.120526
H	-0.3430984773	-2.5737916405	-0.4675468999	 0.116696
113.4341	219.3604	234.4126	251.6486	276.291	297.6071	337.6672	369.6036	536.5787	554.3306	684.8343	713.1194	772.9742	801.4982	826.1703	868.0118	896.0749	945.3302	973.5687	990.6314	1005.9697	1016.6814	1059.7335	1092.725	1106.7962	1107.581	1131.5782	1154.1279	1178.9673	1194.3095	1216.1576	1234.7978	1258.0121	1275.7325	1286.3158	1314.1768	1353.6156	1366.6556	1401.5558	1425.2156	1492.7183	1500.2333	1508.3227	2998.6444	3028.2463	3046.1165	3089.034	3107.6927	3116.5153	3121.5553	3123.9457	3152.4018	3199.3687	3813.8797
CC1C(O)C2C1C1CN21	C[C@H]1[C@@H](O)[C@H]2[C@@H]1[C@H]1CN21	
InChI=1S/C7H11NO/c1-3-5-4-2-8(4)6(5)7(3)9/h3-7,9H,2H2,1H3	InChI=1S/C7H11NO/c1-3-5-4-2-8(4)6(5)7(3)9/h3-7,9H,2H2,1H3/t3-,4-,5+,6-,7-,8?/m1/s1
