16
gdb 27818	2.03719	1.86139	0.979	3.4087	79.34	-0.2018	-0.0288	0.1729	1161.4889	0.125034	-434.125776	-434.117438	-434.116494	-434.158572	31.6	
C	 0.0363787073	 1.4468231872	-0.0103420186	-0.470344
C	-0.063574595	-0.0448043369	 0.0098372115	 0.420433
N	-1.1914924758	-0.651798378	-0.0374669906	-0.369399
C	-1.1545177736	-2.0441727159	-0.0150870869	 0.372217
N	-2.3996859743	-2.6091784304	-0.0184344106	-0.56684
C	 0.013038885	-2.7435341622	 0.0421908198	-0.245346
C	 1.2631029184	-2.0497914744	 0.0987940225	 0.374883
N	 2.4183340007	-2.5706434332	 0.1584580921	-0.556283
O	 1.1423917789	-0.632723076	 0.0812581724	-0.25658
H	 0.6363870021	 1.7724790013	-0.8659885403	 0.151356
H	-0.9604520847	 1.8811820853	-0.0697552074	 0.151114
H	 0.5430361403	 1.8012134965	 0.8929275948	 0.152515
H	-3.1486739759	-2.0072239572	-0.3202760981	 0.262401
H	-2.4840922085	-3.5831020898	-0.257363831	 0.260804
H	 0.0461734827	-3.8245131376	 0.054399384	 0.103461
H	 3.1399617223	-1.8518333186	 0.1872063765	 0.215608
119.7702	141.4269	166.6812	199.68	288.6107	339.6535	416.9971	447.8437	488.4554	546.578	553.4732	587.927	632.5922	679.6447	745.6464	808.3516	836.0989	850.3241	956.8957	989.887	1054.4093	1064.8158	1092.9539	1118.58	1219.8402	1297.8078	1343.6016	1406.6591	1436.2356	1470.5369	1474.0345	1615.664	1663.2214	1692.4133	1760.4022	3050.3136	3108.4456	3170.4091	3222.8061	3503.8907	3599.3975	3720.8159
CC1=NC(N)=CC(=N)O1	CC1=N[C@H](N)C=C([NH])O1	
InChI=1S/C5H7N3O/c1-3-8-4(6)2-5(7)9-3/h2,7H,6H2,1H3	InChI=1S/C5H8N3O/c1-3-8-4(6)2-5(7)9-3/h2,4,7H,6H2,1H3/t4-/m0/s1
