16
gdb 44689	3.20277	1.37814	1.17991	3.4438	70.01	-0.2544	-0.0401	0.2144	1052.3145	0.124907	-437.914118	-437.90673	-437.905786	-437.946772	28.092	
N	 0.0543229319	 1.2836068942	 0.1415305442	-0.526344
C	 0.0067797876	 0.0380608081	-0.0412197622	 0.39978
C	-1.2385285156	-0.8214176498	 0.0971511516	-0.320469
C	-0.7124113809	-2.2524806232	-0.0004268243	-0.168438
C	 0.7622153607	-2.1197544601	-0.4903816033	 0.080015
C	 1.2817268869	-2.9260265558	 0.7301197014	-0.362174
C	-0.1505108536	-2.8847251278	 1.2969142268	 0.392518
O	-0.6466796946	-3.1860484278	 2.3403334358	-0.280401
O	 1.0836483709	-0.7321486701	-0.4083053443	-0.243439
H	 0.997924778	 1.638743167	-0.0204220839	 0.226
H	-1.7478755421	-0.6082884649	 1.0389124084	 0.159817
H	-1.9341529498	-0.5853792958	-0.713178786	 0.143236
H	-1.355896086	-2.9343463037	-0.5594550718	 0.112893
H	 1.0314676896	-2.487680158	-1.4808807039	 0.098868
H	 1.5955138006	-3.9460266798	 0.4847261005	 0.13987
H	 2.0609979363	-2.4463546327	 1.3267760309	 0.148268
57.2247	86.6513	192.9105	353.7478	424.2746	449.5539	505.6188	527.8691	611.7676	652.8138	732.3797	757.1478	830.9791	865.3284	891.4071	913.585	933.1023	980.5732	1023.8616	1037.367	1063.3461	1093.2003	1115.9513	1179.0748	1187.8707	1224.9671	1246.1013	1260.6801	1294.7059	1314.3062	1378.1393	1420.4078	1472.081	1779.8903	1901.0159	3060.7959	3070.2573	3099.0979	3110.7419	3122.7148	3125.803	3478.4568
N=C1CC2C(CC2=O)O1	[NH][C]1C[C@H]2[C@H](CC2=O)O1	
InChI=1S/C6H7NO2/c7-6-1-3-4(8)2-5(3)9-6/h3,5,7H,1-2H2	InChI=1S/C6H7NO2/c7-6-1-3-4(8)2-5(3)9-6/h3,5,7H,1-2H2/t3-,5+/m1/s1
