15
gdb 36020	3.25788	0.90444	0.76691	5.6627	75.5	-0.2889	-0.0015	0.2874	1426.4613	0.110703	-379.661401	-379.651944	-379.651	-379.696612	32.747	
C	-0.0611279418	-1.2245440442	-0.0280574028	-0.398857
C	-0.0477151758	-0.0241007633	-0.0088127599	 0.284876
C	-0.0012537853	 1.4298068399	 0.0036083663	-0.372385
C	 1.4493101535	 1.9873039132	 0.0380500381	-0.151922
C	 1.4315569769	 3.5348880676	-0.0804527423	-0.354078
C	 2.763741091	 4.1126310027	-0.2338887989	 0.269945
N	 3.8176538166	 4.5636309024	-0.3737072415	-0.285522
C	 2.1425797203	 1.5689870945	 1.2594788314	 0.301798
N	 2.6708284513	 1.2582841403	 2.2384101359	-0.304728
H	-0.0794754942	-2.2866908194	-0.0336109873	 0.21153
H	-0.4920500206	 1.8265702067	-0.8935208553	 0.144799
H	-0.5552348888	 1.8196931418	 0.8660345345	 0.154863
H	 1.9966663451	 1.5763489455	-0.8164983896	 0.16239
H	 0.8294093464	 3.8133957305	-0.9520807423	 0.163347
H	 0.9497458754	 3.9710999416	 0.8008747737	 0.173942
53.0975	76.2359	97.9867	145.7955	221.4818	235.7179	303.2888	338.3733	388.6002	448.8113	493.1282	551.698	640.6156	644.9047	671.0155	788.2449	896.2294	921.8567	994.9277	1031.5311	1051.443	1070.1154	1200.0829	1231.7744	1279.1108	1349.9545	1353.2087	1374.2789	1462.177	1474.1212	2248.4926	2366.2015	2370.361	3028.8209	3051.0356	3061.5137	3074.8898	3097.9554	3503.8712
C#CCC(CC#N)C#N	C#CC[C@@H](CC#N)C#N	
InChI=1S/C7H6N2/c1-2-3-7(6-9)4-5-8/h1,7H,3-4H2	InChI=1S/C7H6N2/c1-2-3-7(6-9)4-5-8/h1,7H,3-4H2/t7-/m0/s1
