19
gdb 118317	2.31847	0.95258	0.74339	2.4744	74.06	-0.2537	-0.0544	0.1993	1537.0696	0.154786	-460.184691	-460.173908	-460.172964	-460.221756	36.675	
C	-0.1132689094	 1.4707077701	-0.13081159	-0.484848
C	-0.0226064496	-0.0329538384	 0.0012397663	 0.358643
O	-0.0127132523	-0.6101213776	 1.0601640661	-0.282345
C	 0.0507323401	-0.8162300076	-1.3335764041	-0.182526
C	 0.6307487813	-2.2183864777	-1.1432334365	-0.191716
C	 0.8939943254	-2.9249334212	-2.467820922	-0.087459
O	 1.4084715628	-4.2104888562	-2.1719944924	-0.415065
C	-1.3735223253	-0.8579135672	-1.8864069672	 0.148799
O	-1.886601362	 0.0248431174	-2.5237745509	-0.246727
H	 0.8649551968	 1.8610534572	-0.4373679263	 0.146318
H	-0.8255301767	 1.7463011132	-0.9143039914	 0.164945
H	-0.3911250289	 1.9157919381	 0.8252239565	 0.14497
H	 0.6376969208	-0.2144146411	-2.0375829798	 0.107779
H	 1.5629729006	-2.1616881531	-0.5743780416	 0.123079
H	-0.0553106415	-2.8212633284	-0.5392029383	 0.129123
H	-0.0383317301	-2.9930030772	-3.0549294683	 0.088498
H	 1.6057983034	-2.333789501	-3.0681608439	 0.089676
H	 1.5922350989	-4.6625502602	-3.0006146537	 0.289229
H	-1.9357034145	-1.7797749693	-1.6161722025	 0.099627
59.9122	65.3699	91.9534	100.5171	132.8024	165.2913	228.4423	266.295	294.8146	309.7664	334.3284	424.2771	547.3884	584.7442	629.4255	772.339	791.3607	916.8412	952.5992	991.506	1030.1027	1043.464	1092.5904	1106.9929	1138.8165	1167.295	1216.8507	1233.8377	1256.8137	1300.018	1316.3308	1364.4884	1387.0554	1417.5986	1466.5274	1468.1184	1474.0494	1489.9706	1523.6576	1802.0286	1832.3721	2885.2489	2949.1113	2974.6876	3037.1411	3047.8449	3062.4557	3104.7078	3105.0463	3156.8416	3830.9794
CC(=O)C(CCO)C=O	CC(=O)[C@@H](CCO)C=O	
InChI=1S/C6H10O3/c1-5(9)6(4-8)2-3-7/h4,6-7H,2-3H2,1H3	InChI=1S/C6H10O3/c1-5(9)6(4-8)2-3-7/h4,6-7H,2-3H2,1H3/t6-/m0/s1
