16
gdb 22952	3.96025	0.81271	0.69987	3.2551	70.57	-0.2499	-0.0288	0.2211	1521.1395	0.1212	-474.957097	-474.947908	-474.946964	-474.992523	31.666	
O	-0.1490656351	 1.3948520423	-0.0142836449	-0.386069
N	 0.0698876354	 0.0114174079	 0.0440700061	-0.220449
C	-1.021338254	-0.6212598475	 0.039974301	 0.350605
C	-2.5023354633	-0.3446773117	-0.0249581735	-0.162808
O	-2.7544254757	-1.7721097324	-0.0297861327	-0.298229
C	-1.3389159212	-2.0984186387	 0.0641928981	 0.027807
C	-0.845937102	-2.9506880945	-1.1063949768	-0.287714
C	-1.5273170066	-4.3054227551	-1.1417164566	 0.149854
O	-0.9416101331	-5.3572498881	-1.1608544387	-0.233642
H	 0.747622394	 1.7476865107	-0.0030674935	 0.31442
H	-2.928426069	 0.1558204652	 0.8532636008	 0.134902
H	-2.8605859879	 0.1544268736	-0.9334431304	 0.134993
H	-1.1151936707	-2.5920444751	 1.0198281715	 0.114742
H	-1.0786063454	-2.4240085921	-2.0409861387	 0.124781
H	 0.2362193765	-3.0937551622	-1.0405391247	 0.13648
H	-2.6375396121	-4.2604705125	-1.1508052968	 0.100328
53.3801	62.3708	95.86	129.8786	205.2271	235.6235	319.8899	374.2314	422.3601	481.3891	529.5745	590.9376	728.3497	824.6923	855.141	899.6139	983.505	997.7533	1005.5135	1050.7168	1080.3279	1104.4702	1132.5078	1182.0385	1212.1375	1251.4575	1290.3774	1329.4739	1364.5521	1418.1003	1423.3148	1448.9933	1500.0369	1815.4842	1832.2826	2907.5561	3012.7911	3024.0765	3034.5917	3065.2681	3111.2243	3813.7152
ON=C1COC1CC=O	ON=C1CO[C@H]1CC=O	
InChI=1S/C5H7NO3/c7-2-1-5-4(6-8)3-9-5/h2,5,8H,1,3H2	InChI=1S/C5H7NO3/c7-2-1-5-4(6-8)3-9-5/h2,5,8H,1,3H2/t5-/m0/s1
