20
gdb 115113	3.13114	1.20482	0.94663	2.1578	81.64	-0.2354	-0.0027	0.2328	1290.1149	0.1714	-403.153371	-403.144458	-403.143514	-403.187518	33.021	
C	 0.6008666849	 1.6090738956	 0.0393907086	-0.393218
C	 0.157312566	 0.1468796233	-0.0232423948	-0.198031
C	 0.4702341319	-0.6467231313	 1.2416973054	 0.091677
O	-0.2540567769	-0.0003119964	 2.3155951989	-0.235296
C	-0.0576071965	-0.4028126791	 3.5959024023	 0.139385
N	 0.4759198537	-1.418799018	 4.1184183501	-0.266096
C	 1.0164521071	-2.57636799	 3.4156942471	-0.21515
C	 0.3756380126	-2.9703226389	 2.1014050279	-0.083542
C	 0.1181042194	-2.1074118579	 1.1231035337	-0.060187
H	 1.6852379023	 1.6876579296	 0.1763941146	 0.113725
H	 0.3430071333	 2.1351126831	-0.8843392062	 0.114013
H	 0.118823255	 2.1251637529	 0.873092432	 0.13565
H	-0.9225373521	 0.083445886	-0.2066869921	 0.111839
H	 0.6488300646	-0.3638170182	-0.8603610358	 0.103209
H	 1.541166653	-0.5462504293	 1.4753258081	 0.093062
H	-0.4791637932	 0.3591919534	 4.2537697346	 0.115847
H	 2.099653109	-2.4303457208	 3.2736258097	 0.123165
H	 0.9364062342	-3.4185595966	 4.111211882	 0.117274
H	 0.1177909968	-4.0197473711	 1.9786095447	 0.098829
H	-0.3600454652	-2.4342929263	 0.2034895793	 0.093845
54.6704	106.9921	114.9663	187.1909	233.0235	294.5575	358.1869	395.1484	430.2809	487.4684	536.3391	699.1435	728.7289	761.1787	806.7653	887.7975	915.1618	944.5142	954.9676	982.0108	992.0186	1014.3655	1050.9586	1068.3769	1137.954	1152.3915	1160.6656	1233.4754	1264.2243	1292.2581	1315.1338	1359.4892	1382.5526	1390.2625	1410.6972	1419.2557	1439.7235	1476.6591	1481.8753	1496.4691	1508.9015	1728.1046	1759.8633	2975.2614	2986.6932	3029.1332	3038.597	3053.7682	3067.0976	3104.0652	3122.3893	3127.669	3145.8287	3170.483
CCC1OC=NCC=C1	CC[C@H]1OC=NCC=C1	
InChI=1S/C7H11NO/c1-2-7-4-3-5-8-6-9-7/h3-4,6-7H,2,5H2,1H3	InChI=1S/C7H11NO/c1-2-7-4-3-5-8-6-9-7/h3-4,6-7H,2,5H2,1H3/t7-/m1/s1
