14
gdb 7705	3.68214	1.95469	1.3797	3.4489	60.55	-0.2764	-0.0007	0.2757	853.8581	0.109112	-415.880618	-415.873966	-415.873021	-415.91175	24.896	
N	-0.1442057886	 0.9572769831	-0.8570955252	-0.504918
C	 0.0007180618	 0.0232708632	-0.0240911253	 0.40509
C	-1.128169583	-0.4936955249	 0.8359615328	-0.386616
C	-1.0911588761	-1.9987699952	 0.9572599573	 0.40509
N	-2.127166526	-2.7149566022	 0.9251434478	-0.504918
O	 0.1726606286	-2.5251648256	 1.0816751661	-0.232587
C	 1.2114864557	-1.5770822416	 1.2068421493	 0.000204
O	 1.1968795835	-0.628419788	 0.1611303419	-0.232587
H	 0.740468459	 1.1618896776	-1.3258854449	 0.228756
H	-1.0283445892	-0.0595553679	 1.841559046	 0.152015
H	-2.0852557111	-0.1725134715	 0.4328680675	 0.175504
H	-1.8859266548	-3.70191588	 1.0346581757	 0.228756
H	 1.1498093707	-1.0712514326	 2.1804617474	 0.118557
H	 2.1500726495	-2.1239255144	 1.1243860638	 0.147654
111.1727	112.041	308.9177	395.8902	439.8088	449.6218	529.3113	558.2131	587.897	761.7885	835.7371	853.2252	908.4801	914.6509	977.3732	1025.0421	1036.7587	1060.9885	1134.6362	1184.1396	1192.0622	1272.9323	1289.3022	1305.7809	1360.7397	1453.0107	1453.7397	1529.3045	1770.7585	1790.21	3007.7724	3018.1331	3145.7369	3175.2379	3471.9122	3472.1075
N=C1CC(=N)OCO1	[NH][C]1C[C]([NH])OCO1	
InChI=1S/C4H6N2O2/c5-3-1-4(6)8-2-7-3/h5-6H,1-2H2	InChI=1S/C4H6N2O2/c5-3-1-4(6)8-2-7-3/h5-6H,1-2H2
