25
gdb 121365	2.36925	1.06848	0.85742	0.9145	88.98	-0.2498	0.0759	0.3257	1504.455	0.229426	-389.500583	-389.490289	-389.489345	-389.536358	37.791	
C	-0.4823173186	 1.2954900017	-0.2040735551	-0.226976
O	-0.0931879377	-0.0485918888	-0.0723973814	-0.229315
C	 0.4675715382	-0.579170102	-1.257169307	-0.061203
C	 0.8515301912	-2.0364561553	-0.9986395046	-0.019372
C	-0.3784739931	-2.9072078083	-0.6710709139	-0.21154
C	-0.9463891043	-3.3573985701	-2.0439156615	-0.20724
C	 0.2059088904	-3.158670494	-3.0673536606	-0.207076
C	 1.4462298994	-2.7540205222	-2.2360888558	 0.038304
C	 2.5171274186	-2.0026180409	-3.0280051005	-0.41747
H	 0.370419172	 1.9472479133	-0.4544891644	 0.100841
H	-1.2498220044	 1.4268381246	-0.9841371959	 0.100552
H	-0.8979816614	 1.6136715953	 0.7554607359	 0.124552
H	-0.2575310044	-0.4978411755	-2.0861198766	 0.081028
H	 1.352922487	 0.0099709811	-1.5468382012	 0.083405
H	 1.5649057588	-2.033445589	-0.1667301851	 0.068632
H	-0.0555454262	-3.7809618041	-0.0947283112	 0.089744
H	-1.1058427051	-2.3689033555	-0.0601709497	 0.10901
H	-1.2860186902	-4.3962562236	-2.0084110926	 0.095157
H	-1.818728918	-2.7595456818	-2.3241503152	 0.097807
H	 0.3976655394	-4.0543901234	-3.665649102	 0.092037
H	-0.0416136146	-2.3611432295	-3.7778664439	 0.092525
H	 1.9024853147	-3.6771157179	-1.8526166248	 0.07021
H	 2.1164705014	-1.0970939508	-3.496368784	 0.114307
H	 3.357328485	-1.7067319211	-2.3902074416	 0.111252
H	 2.9176851323	-2.631748342	-3.8301924375	 0.110828
69.5358	81.4268	96.9988	146.0384	148.9506	232.5117	239.1547	269.7449	314.9495	358.8171	462.1951	492.4305	587.8038	666.1463	778.9064	829.9639	852.1828	875.8843	897.4728	962.2365	971.724	995.5113	1006.1789	1041.3992	1057.1479	1085.4518	1120.0818	1158.389	1170.8808	1182.2165	1206.5391	1215.1975	1230.103	1240.4621	1269.2026	1295.3171	1303.93	1321.4606	1337.5149	1349.7359	1369.2057	1386.7971	1409.4342	1430.2112	1479.888	1484.8499	1492.0659	1495.2985	1500.0893	1501.0505	1503.4347	1518.8632	1528.9273	2946.7896	2966.0728	2981.7607	3000.7981	3006.1702	3026.6716	3033.7452	3038.1543	3051.2224	3056.804	3071.7443	3091.9511	3092.6709	3096.2903	3109.5234	3114.1388
COCC1CCCC1C	COC[C@H]1CCC[C@H]1C	
InChI=1S/C8H16O/c1-7-4-3-5-8(7)6-9-2/h7-8H,3-6H2,1-2H3	InChI=1S/C8H16O/c1-7-4-3-5-8(7)6-9-2/h7-8H,3-6H2,1-2H3/t7-,8-/m1/s1
