18
gdb 89834	3.14583	1.30457	1.02918	3.1262	72.37	-0.243	0.0092	0.2522	1172.7854	0.148535	-439.111427	-439.103201	-439.102256	-439.144275	31.593	
N	 0.4045527373	 1.0908757839	 0.7178192199	-0.516018
C	-0.1070365434	-0.0177253025	-0.0688086174	-0.109183
C	-1.5994281203	 0.0604847256	-0.4076601786	-0.307531
C	-1.6735616925	-0.7654515598	-1.6787292953	 0.444194
C	-2.3517017821	-2.099382147	-1.7881026256	-0.324403
C	-2.8601641354	-0.8962460198	-2.5683851028	-0.333481
O	-0.4077217512	-0.6429498258	-2.3355128354	-0.249638
C	 0.5308630721	-0.1975642697	-1.4583088043	 0.398355
O	 1.6654180336	 0.0208072554	-1.7730982084	-0.346421
H	 1.4143307797	 0.992350956	 0.7946573805	 0.244501
H	 0.2581192299	 1.9594715451	 0.2081325217	 0.229895
H	 0.0950482575	-0.9470405854	 0.481736979	 0.119422
H	-2.2491646953	-0.3168119035	 0.3830488463	 0.123797
H	-1.8768765722	 1.1029059684	-0.6097128309	 0.113174
H	-1.8360447136	-2.8704659565	-2.3488267776	 0.133696
H	-2.9311769401	-2.4541844525	-0.9424211112	 0.120706
H	-3.7863284558	-0.4249154699	-2.2567881793	 0.122619
H	-2.6777558384	-0.883675452	-3.6367918605	 0.136316
88.2871	114.7386	230.7823	242.6941	272.601	306.3188	382.2728	447.6732	500.2896	529.2463	601.0257	706.332	767.5713	796.0247	811.0701	887.9883	924.1446	942.2591	956.1064	987.8302	1006.9407	1016.9458	1055.0865	1080.5119	1146.1685	1166.9518	1187.4566	1189.2284	1220.8633	1287.0775	1306.5677	1322.4495	1384.7666	1413.0457	1451.8737	1492.1401	1502.6713	1666.7469	1879.2038	3017.1923	3035.2549	3122.187	3134.7478	3137.3874	3220.9117	3234.1454	3475.9154	3549.6799
NC1CC2(CC2)OC1=O	N[C@H]1CC2(CC2)OC1=O	
InChI=1S/C6H9NO2/c7-4-3-6(1-2-6)9-5(4)8/h4H,1-3,7H2	InChI=1S/C6H9NO2/c7-4-3-6(1-2-6)9-5(4)8/h4H,1-3,7H2/t4-/m0/s1
