15
gdb 12977	2.80144	2.73893	1.63998	3.7115	66.57	-0.2328	-0.0573	0.1755	791.9268	0.119474	-362.664928	-362.657993	-362.657048	-362.695793	26.459	
C	-0.0402188717	 1.5320585985	 0.0155566158	-0.490323
C	 0.1141993181	 0.038331446	 0.0270452139	 0.190132
N	-0.7702647937	-0.8319031732	 0.8598110531	-0.354295
C	 0.7040544986	-0.7861711727	 1.1031626102	-0.147016
C	 1.395670364	-1.9387688754	 0.4428093321	-0.031658
C	 1.2347519139	-1.9002831624	-0.8870103506	-0.194915
C	 0.4710253339	-0.6815714237	-1.2761971224	 0.387903
O	 0.2066306933	-0.2943866303	-2.3894680117	-0.332102
H	 0.8744313981	 2.0172256942	-0.3394354049	 0.135943
H	-0.8496912513	 1.8229016949	-0.66083606	 0.148719
H	-0.2640966225	 1.9151522233	 1.0163311811	 0.112078
H	-1.231163324	-0.2260487208	 1.5417190247	 0.229814
H	 1.072201856	-0.3637985989	 2.0312660472	 0.101833
H	 1.9073980315	-2.715306133	 0.9993127161	 0.122548
H	 1.576881746	-2.6272586063	-1.6116684646	 0.121339
136.8117	176.7333	250.5698	281.7569	323.4803	461.4134	478.983	597.733	666.21	724.4973	759.6867	811.1158	859.2259	866.1304	915.0843	969.3148	986.9618	1029.08	1048.9597	1086.245	1116.8768	1138.2498	1179.5168	1289.8358	1338.965	1367.0757	1410.4533	1435.2674	1478.601	1497.18	1633.186	1820.5498	3035.691	3105.8508	3110.8834	3179.0907	3201.7664	3232.7718	3441.2579
CC12NC1C=CC2=O	C[C@]12N[C@H]1C=CC2=O	
InChI=1S/C6H7NO/c1-6-4(7-6)2-3-5(6)8/h2-4,7H,1H3	InChI=1S/C6H7NO/c1-6-4(7-6)2-3-5(6)8/h2-4,7H,1H3/t4-,6-/m0/s1
