17
gdb 56340	4.73569	0.64277	0.60871	5.0156	67.42	-0.2544	0.0286	0.283	1770.4584	0.135483	-492.35096	-492.341091	-492.340147	-492.388131	33.75	
N	-0.009709764	 1.2365346254	-0.2284773428	-0.562909
C	 0.0841824981	-0.1246139605	-0.1478767787	 0.500017
O	 1.0944653252	-0.7696499126	-0.2881726	-0.388598
O	-1.145783477	-0.6596803181	 0.0803214698	-0.274714
C	-1.1821013209	-2.0968760072	 0.142746069	-0.062181
C	-2.6396485735	-2.4926128878	 0.2974248339	-0.174837
N	-3.439827582	-2.0594556234	-0.8332212575	-0.272385
C	-4.2118102759	-2.9072991401	-1.5640908501	 0.158815
O	-4.3494240803	-4.0923976127	-1.3467844094	-0.321867
H	 0.8601246628	 1.7397655658	-0.1887092745	 0.272089
H	-0.8293408247	 1.6890433481	 0.1392596112	 0.263576
H	-0.7470367579	-2.5115260661	-0.7704912551	 0.136073
H	-0.5886932571	-2.4427055232	 0.9948969869	 0.12493
H	-2.7272194195	-3.5800105405	 0.3502661454	 0.155678
H	-3.036026416	-2.07357082	 1.2311607449	 0.117576
H	-3.3739920234	-1.0938626138	-1.112815162	 0.252842
H	-4.7164738239	-2.3829004033	-2.399446111	 0.075894
24.1994	40.9546	63.1921	156.0746	194.4152	228.9708	243.3215	342.0364	367.6391	458.8533	498.3716	522.3018	559.9733	667.5201	757.9781	783.0014	838.6983	891.826	1004.1473	1031.1146	1073.5531	1092.4869	1118.8446	1129.5994	1214.8931	1254.5602	1286.6006	1337.6614	1393.882	1420.7118	1429.9071	1486.371	1507.4769	1528.5316	1614.4097	1806.8023	1842.3561	2939.4418	3027.5809	3057.7952	3111.3298	3124.4825	3612.8166	3642.9714	3740.4219
NC(=O)OCCNC=O	NC(=O)OCCNC=O	
InChI=1S/C4H8N2O3/c5-4(8)9-2-1-6-3-7/h3H,1-2H2,(H2,5,8)(H,6,7)	InChI=1S/C4H8N2O3/c5-4(8)9-2-1-6-3-7/h3H,1-2H2,(H2,5,8)(H,6,7)
