20
gdb 106066	2.43222	1.61291	1.33978	1.927	78.44	-0.2225	0.066	0.2886	1070.6236	0.170373	-403.087798	-403.079071	-403.078127	-403.121143	33.397	
C	 0.2420481315	 1.5309820236	 0.2230205058	-0.38892
C	-0.0876654574	 0.0560184682	-0.0467318015	-0.3364
C	 0.5422103531	-0.462415033	-1.2961959008	 0.335679
C	 0.9233245577	-1.7974954458	-1.81398057	-0.098003
C	 0.3426114745	-1.5243805421	-3.1981270512	-0.314772
C	 0.5014453351	-0.0238584507	-2.8199704022	 0.314418
O	-0.3397445131	 0.9616748156	-3.3123161191	-0.480994
C	 2.0286308664	 0.127782447	-2.6974760829	-0.209024
N	 1.9902711327	-0.7675882915	-1.4942460039	-0.190544
H	 1.3214194867	 1.6707211491	 0.3372670115	 0.127954
H	-0.0983429608	 2.1631796132	-0.6027158893	 0.134376
H	-0.2437375444	 1.8783840411	 1.1397208745	 0.110125
H	 0.2526668529	-0.5664237665	 0.7898037746	 0.11119
H	-1.1752127662	-0.0760559834	-0.1141720144	 0.106616
H	 1.0075465845	-2.7404363445	-1.2889412845	 0.097622
H	 0.873590149	-1.8902282327	-4.0847310355	 0.089025
H	-0.7117142413	-1.810048947	-3.2409123297	 0.109046
H	-0.3141580531	 0.942858979	-4.275627827	 0.284456
H	 2.6630436637	-0.2176667845	-3.5234091087	 0.087169
H	 2.3331279085	 1.1275645349	-2.3787032858	 0.110979
74.4658	121.9403	147.3328	185.5638	264.2384	302.5187	376.5462	402.4767	462.1275	502.449	614.2727	652.4914	702.8917	754.2943	799.4192	852.2125	879.2418	920.8234	940.9772	976.3101	980.3209	1011.5791	1060.6585	1084.0201	1098.392	1118.8614	1144.3567	1169.8164	1173.1714	1228.8759	1250.9048	1262.8838	1293.4689	1300.0567	1344.3009	1376.3959	1407.155	1453.0253	1469.4142	1488.9855	1500.2198	1511.9339	1513.8323	3022.2135	3022.624	3034.0398	3039.3657	3059.6119	3103.9218	3107.0052	3111.3088	3115.6231	3195.8488	3798.1155
CCC12C3CC1(O)CN23	CC[C@@]12[C@H]3C[C@]1(O)CN23	
InChI=1S/C7H11NO/c1-2-7-5-3-6(7,9)4-8(5)7/h5,9H,2-4H2,1H3	InChI=1S/C7H11NO/c1-2-7-5-3-6(7,9)4-8(5)7/h5,9H,2-4H2,1H3/t5-,6+,7-,8?/m1/s1
