21
gdb 80992	2.62059	1.48737	1.1854	3.2851	82.58	-0.2296	-0.0018	0.2278	1133.309	0.182712	-387.11168	-387.103188	-387.102244	-387.144162	33.85	
C	-0.1721655047	 1.526020391	-0.0316847411	-0.437595
C	 0.0062735377	 0.0132071385	-0.0005474626	-0.002742
C	 1.1560431448	-0.5814536174	-0.8977059276	-0.135118
C	 2.119428404	-0.2811482894	 0.2960106438	-0.288602
C	 0.8624427909	-0.6090627492	 1.1622419129	 0.334317
C	 0.7316536919	-0.158638472	 2.5987763314	-0.499198
C	 0.693113781	-2.1159260744	 0.8611716955	-0.378704
C	 0.91266442	-2.0639557879	-0.6687054841	 0.432969
O	 0.8878204482	-2.9672431974	-1.4604164055	-0.338926
H	 0.7664402898	 2.074324915	 0.0849014662	 0.120353
H	-0.6201977421	 1.837051536	-0.9810759445	 0.123461
H	-0.8453633277	 1.8485187558	 0.7701629156	 0.121588
H	-0.9730456217	-0.4603189246	-0.1430562567	 0.071333
H	 1.3431835205	-0.2568910194	-1.9195171376	 0.076321
H	 3.0014460892	-0.9183417215	 0.4119906385	 0.101223
H	 2.4193561364	 0.7660220204	 0.3427942267	 0.10762
H	 0.8613781773	 0.9245259961	 2.6931243432	 0.116788
H	-0.2527513395	-0.4155677245	 3.0068508742	 0.117925
H	 1.4859211374	-0.6404687502	 3.2311255236	 0.119486
H	 1.441180052	-2.7492257379	 1.3498619592	 0.118717
H	-0.2994398353	-2.5081092171	 1.1069693689	 0.118785
129.2715	199.3593	207.4867	215.6169	242.8444	289.9717	355.9164	426.8746	480.9365	513.8614	552.8574	611.88	650.5202	764.05	786.077	806.3991	833.1066	924.5648	932.7437	953.3226	981.2312	1028.7323	1052.6082	1066.2758	1077.8592	1101.6913	1131.9717	1161.3489	1189.8612	1213.4116	1233.1594	1240.1171	1256.8049	1260.1773	1332.8015	1392.3644	1413.2915	1416.0091	1460.6077	1490.7619	1490.8069	1497.9727	1499.0134	1520.3905	1868.9778	3021.4971	3025.0231	3036.0098	3046.2097	3059.2032	3087.9778	3092.5648	3094.7472	3097.2056	3111.6492	3131.673	3141.4456
CC1C2CC1(C)CC2=O	C[C@H]1[C@H]2C[C@]1(C)CC2=O	
InChI=1S/C8H12O/c1-5-6-3-8(5,2)4-7(6)9/h5-6H,3-4H2,1-2H3	InChI=1S/C8H12O/c1-5-6-3-8(5,2)4-7(6)9/h5-6H,3-4H2,1-2H3/t5-,6+,8+/m0/s1
