14
gdb 124018	3.79688	1.6772	1.17182	11.9847	73.28	-0.1987	-0.0569	0.1418	953.3072	0.105848	-429.023818	-429.017352	-429.016408	-429.05482	24.926	
C	-0.0093387866	 1.4949631814	 0.1978179853	-0.291196
N	 1.3281345732	 1.9753179	-0.260419089	-0.284846
C	 2.3417990531	 1.2334908482	-0.7071719063	 0.127605
N	 2.2656060188	-0.0733275894	-0.7962975051	-0.333863
H	 3.0455253159	-0.6171845172	-1.13758777	 0.296568
C	 1.0795530752	-0.7008987577	-0.4082716057	 0.281008
C	-0.0054909594	 0.0090544599	 0.0624068731	 0.259893
N	-0.959888265	-0.8842017698	 0.3395705022	-0.310307
N	-0.4458195748	-2.1004224699	 0.0372655454	-0.157593
N	 0.802890201	-2.0103656305	-0.4226755112	-0.315137
H	-0.1589474808	 1.8336129806	 1.232187865	 0.140617
H	-0.7776991627	 1.9823624726	-0.4178463547	 0.140626
H	 1.4898818849	 2.9697028781	-0.2315406377	 0.278342
H	 3.2532295472	 1.7361315439	-1.0035596113	 0.168282
101.1373	241.4176	247.8906	407.0192	489.2617	496.8829	552.8023	623.6334	663.4752	709.6802	711.5252	758.7441	888.2376	890.6757	938.3372	998.333	1034.2013	1046.2756	1166.8108	1178.9018	1209.4707	1244.6135	1289.5952	1320.7157	1385.3008	1433.5746	1516.6611	1525.646	1585.9904	1595.8079	1709.5715	2996.6077	3018.8376	3228.3746	3617.2816	3638.7624
C1NC=[NH+]C2=C1N=N[N-]2	C1N[CH]Nc2c1nnn2	
InChI=1S/C4H4N5/c1-3-4(6-2-5-1)8-9-7-3/h2H,1H2,(H-,5,6,7,8,9)/q-1/p+1	InChI=1S/C4H6N5/c1-3-4(6-2-5-1)8-9-7-3/h2H,1H2,(H3,5,6,7,8,9)
