18
gdb 36809	8.21306	0.50528	0.495	4.1031	74.59	-0.2775	0.0088	0.2863	2120.3683	0.145684	-439.055604	-439.04593	-439.044986	-439.092045	32.75	
N	-0.0528928206	-1.0818343824	-0.0647315451	-0.29148
C	 0.0144707416	 0.0684292735	-0.1345579092	 0.264469
C	 0.0600237106	 1.5306955538	-0.2319593369	-0.186129
O	 1.3598114775	 1.9740567289	 0.060140724	-0.239415
C	 1.4780310221	 3.3863854686	-0.0085559978	-0.046551
C	 2.9274439935	 3.7532879412	 0.2853103251	-0.242614
C	 3.1366801772	 5.2472816265	 0.2652614045	 0.090312
C	 4.3457188217	 5.8620114661	-0.2940811097	-0.178021
O	 3.1166529511	 5.8737551283	-1.0221968298	-0.235438
H	-0.2523896462	 1.8249743339	-1.2475582247	 0.142231
H	-0.6811039045	 1.9511279561	 0.4681294056	 0.13947
H	 1.1924150522	 3.7489916913	-1.0080831871	 0.116317
H	 0.7995308794	 3.8587859179	 0.7219909746	 0.093966
H	 3.2061068098	 3.3537700662	 1.2675262893	 0.119236
H	 3.5731226631	 3.2784161097	-0.4599535288	 0.121026
H	 2.5958607146	 5.8078184822	 1.0308496617	 0.09488
H	 4.6815333976	 6.8304350724	 0.0735135707	 0.119122
H	 5.1271560992	 5.2250956159	-0.7064302865	 0.118618
36.9251	65.2817	89.0316	119.3745	124.59	178.9924	314.7043	315.0511	385.7465	448.5511	474.5531	583.0912	781.593	820.1164	878.1528	939.9782	960.0523	1007.9689	1030.4626	1038.3624	1072.5384	1117.5746	1153.9866	1158.9651	1161.7599	1180.1267	1239.085	1255.9064	1291.0901	1306.34	1312.2233	1387.1581	1442.5064	1452.0154	1477.4443	1494.7478	1528.2126	1531.5278	2374.5984	2960.0769	2970.5653	2992.8751	3006.8664	3044.8652	3081.8333	3086.2536	3102.03	3172.2333
N#CCOCCC1CO1	N#CCOCC[C@H]1CO1	
InChI=1S/C6H9NO2/c7-2-4-8-3-1-6-5-9-6/h6H,1,3-5H2	InChI=1S/C6H9NO2/c7-2-4-8-3-1-6-5-9-6/h6H,1,3-5H2/t6-/m0/s1
