19
gdb 13193	4.86022	1.23968	1.01942	3.8042	73.74	-0.2319	0.0365	0.2685	1181.5862	0.164996	-365.086439	-365.077345	-365.0764	-365.122247	30.921	
C	-0.2015898368	 1.5083008359	 0.0536645381	-0.368658
C	 0.0438709269	 0.0011663908	 0.0409953026	-0.298629
C	 0.7974747529	-0.4729597901	 1.2823462575	 0.381443
O	 1.2220285351	 0.2813195747	 2.1430697854	-0.378201
N	 0.9688986363	-1.8166363172	 1.372808596	-0.065292
C	 0.6914768835	-2.9588303317	 0.4994222884	-0.171825
C	 1.4342874729	-3.861743969	 1.5272772598	-0.241897
C	 1.7093270122	-2.5828629185	 2.3732665543	-0.1592
H	 0.7426179719	 2.0525583404	 0.1271252893	 0.134168
H	-0.7195211568	 1.8232303903	-0.8568444297	 0.102518
H	-0.8074729735	 1.7964042694	 0.9163140917	 0.13018
H	-0.9024396654	-0.5504903797	-0.0316359682	 0.114303
H	 0.6220772731	-0.2904549274	-0.8464691996	 0.116153
H	-0.3747920049	-3.1753846852	 0.363638945	 0.113594
H	 1.1611189023	-2.893882387	-0.4897019183	 0.112875
H	 0.80098168	-4.6022563145	 2.0162437332	 0.118308
H	 2.325264908	-4.3553087266	 1.138878678	 0.118131
H	 2.7598069581	-2.2863816909	 2.4613250015	 0.121157
H	 1.2577137045	-2.5609152138	 3.3702542051	 0.120873
25.2986	36.2827	119.8826	138.1509	148.0168	198.7973	282.0112	385.1755	543.8647	572.1202	706.3703	762.3997	812.3761	847.0772	874.715	934.2217	945.0022	994.8537	1035.3145	1095.9035	1109.1589	1138.5192	1143.055	1197.3274	1199.3553	1227.6402	1271.192	1283.7998	1299.5093	1331.0939	1344.4895	1412.5458	1453.6236	1463.6313	1489.9698	1492.5635	1498.9265	1511.6252	1534.6746	1758.619	3015.6686	3018.4981	3041.1069	3048.115	3051.5903	3053.3257	3080.4391	3094.232	3121.8848	3132.4702	3148.3996
CCC(=O)N1CCC1	CCC(=O)N1CCC1	
InChI=1S/C6H11NO/c1-2-6(8)7-4-3-5-7/h2-5H2,1H3	InChI=1S/C6H11NO/c1-2-6(8)7-4-3-5-7/h2-5H2,1H3
