18
gdb 32938	5.93758	0.83661	0.7435	0.2619	76.75	-0.2096	0.03	0.2396	1551.5199	0.147157	-439.130197	-439.121135	-439.120191	-439.164648	32.16	
C	 0.1204969045	 1.5009951042	 0.1495204835	-0.392131
C	 0.0112265784	-0.0059273413	 0.0320659734	-0.04056
O	 0.7318562346	-0.5794918816	 1.1412952032	-0.259941
C	 0.7315831822	-1.9018015348	 1.1850080744	 0.490687
N	 0.1834747822	-2.7553754856	 0.3823515816	-0.385557
C	 0.5304756837	-3.985872954	 0.949768213	-0.199282
C	 1.2692541148	-3.797223573	 2.0642627803	 0.323645
C	 1.9159102061	-4.6712208119	 3.0710708923	-0.492082
O	 1.4069434817	-2.4237454057	 2.226657661	-0.223145
H	 1.1656313114	 1.8202687817	 0.111916744	 0.132982
H	-0.4161995479	 1.9742804684	-0.6778103941	 0.124732
H	-0.3142217898	 1.8513322462	 1.0897009893	 0.13298
H	-1.0278258957	-0.3491875713	 0.0727294587	 0.126429
H	 0.4459568856	-0.3801222476	-0.9007308558	 0.126421
H	 0.2167495334	-4.9177657748	 0.5061002657	 0.117336
H	 3.0008497947	-4.5183325901	 3.1049154008	 0.139259
H	 1.526716032	-4.4874793268	 4.0792065522	 0.139213
H	 1.7273247481	-5.717475462	 2.8188857966	 0.139014
58.5032	88.0979	140.518	163.7014	207.4655	250.3424	295.9796	347.518	350.1955	500.0741	631.068	671.1774	748.9916	768.3576	811.085	841.7976	911.1833	974.3762	993.6277	1040.1348	1068.7053	1086.4006	1128.5456	1178.5119	1184.6961	1239.2243	1262.8246	1292.9919	1377.1558	1410.4769	1419.7073	1440.0237	1470.9759	1484.1488	1494.9276	1498.091	1521.5923	1647.8176	1669.2209	3027.9161	3046.4811	3048.4143	3077.4392	3085.8288	3123.8191	3126.0092	3128.2741	3259.9428
CCOC1=NC=C(C)O1	CCOc1ncc(C)o1	
InChI=1S/C6H9NO2/c1-3-8-6-7-4-5(2)9-6/h4H,3H2,1-2H3	InChI=1S/C6H9NO2/c1-3-8-6-7-4-5(2)9-6/h4H,3H2,1-2H3
