18
gdb 51263	4.2768	1.0644	0.9159	2.9818	82.29	-0.2066	-0.0032	0.2034	1266.5276	0.149441	-401.976554	-401.968732	-401.967788	-402.009356	30.194	
O	 1.9472076735	 4.1241088896	 0.1929578152	-0.306769
C	 1.0668170437	 3.3066049441	 0.0472544053	 0.14232
N	 1.2297656005	 1.9557039158	-0.1098492512	-0.385716
C	 2.4261723129	 1.2301699023	-0.1257870711	 0.404223
C	 2.5062977494	-0.1084339799	-0.1790249253	-0.228053
C	 3.9192286507	-0.5611536146	-0.2986867669	-0.055777
C	 4.6440656335	-0.1243241777	-1.558319807	-0.277004
C	 4.7455440644	 0.7155932671	-0.3109364532	-0.046342
C	 3.7916879054	 1.8947521464	-0.1342721681	-0.304615
H	-0.0078679641	 3.5751129324	 0.0193667784	 0.080179
H	 0.3801556112	 1.4175972855	-0.1992954387	 0.251741
H	 1.6589304072	-0.7852405977	-0.1879860265	 0.080196
H	 4.2456609333	-1.459817118	 0.2132856915	 0.084661
H	 5.5321871953	-0.6778663587	-1.8464268226	 0.10781
H	 4.0427075401	 0.2325608103	-2.3888955994	 0.107453
H	 5.7045881677	 0.755766192	 0.1910260478	 0.087358
H	 3.8732604186	 2.6420767307	-0.9294066457	 0.12992
H	 3.9700277767	 2.4342056104	 0.8014867176	 0.128416
53.5741	147.1937	176.0591	282.8367	339.0843	350.335	458.0241	501.5322	570.7024	606.1053	688.4749	782.9723	805.9605	830.4386	850.6291	864.4105	891.935	933.0231	990.5287	1017.7801	1029.7475	1050.8742	1066.5779	1094.0234	1106.626	1124.0584	1189.5312	1206.007	1257.2839	1285.3049	1338.0464	1364.1304	1382.7885	1445.9623	1464.6944	1479.6019	1514.2486	1696.9545	1809.0151	2937.2546	3056.4378	3087.4874	3119.4659	3163.8885	3181.7686	3187.3267	3209.2871	3607.1505
O=CNC1=CC2CC2C1	O=CNC1=C[C@H]2C[C@H]2C1	
InChI=1S/C7H9NO/c9-4-8-7-2-5-1-6(5)3-7/h2,4-6H,1,3H2,(H,8,9)	InChI=1S/C7H9NO/c9-4-8-7-2-5-1-6(5)3-7/h2,4-6H,1,3H2,(H,8,9)/t5-,6+/m1/s1
