19
gdb 57993	4.03984	0.74188	0.63667	5.1827	78.89	-0.2519	0.0147	0.2666	1708.8464	0.157667	-419.255829	-419.24524	-419.244296	-419.292886	35.733	
C	 0.0795286115	 1.4391790769	 0.0384172458	-0.346694
N	 0.0704839243	-0.0153307775	 0.0070367738	-0.096404
C	 0.128117835	-0.6647731323	 1.3022044121	-0.342531
C	 0.0071194831	-0.6528402475	-1.2015448498	 0.439376
O	-0.041200418	-0.0463568167	-2.2613479557	-0.381173
C	-0.0015396777	-2.1852414169	-1.1935188763	-0.342004
C	-0.075261544	-2.7163886888	-2.6348641148	-0.333462
C	-0.0850506778	-4.1766154457	-2.6726326187	 0.249538
N	-0.0919997079	-5.3321977711	-2.6853306658	-0.307619
H	 0.9935292572	 1.8071226648	 0.520872176	 0.124518
H	 0.0335977288	 1.8065956999	-0.9848072156	 0.172899
H	-0.7815856751	 1.8166404522	 0.6037822282	 0.124513
H	-0.7291320418	-0.3686383783	 1.9210014567	 0.132675
H	 0.1194222918	-1.74851218	 1.2088400603	 0.145644
H	 1.0417726537	-0.3758889777	 1.8380727511	 0.13274
H	 0.8985280215	-2.5701433468	-0.7024620811	 0.14458
H	-0.8536859392	-2.5599290034	-0.6165970191	 0.144538
H	-0.9713695365	-2.3325163563	-3.1299797544	 0.169415
H	 0.772067051	-2.3419059148	-3.2156200327	 0.169451
51.1358	58.9979	82.6905	106.053	133.1832	158.271	238.0642	240.9035	312.3065	390.9907	394.6299	457.5677	545.8302	575.3779	626.1662	797.8681	798.7667	956.1338	975.0421	1032.0766	1054.1908	1082.6524	1131.2803	1156.3889	1172.5873	1185.787	1273.2377	1289.498	1312.0694	1369.6007	1431.2051	1440.6547	1455.756	1468.9831	1483.2226	1484.0277	1502.8149	1504.5209	1546.2074	1747.4828	2362.6044	3010.3242	3019.2195	3047.2635	3052.8325	3065.5084	3077.4919	3085.521	3117.5821	3170.0927	3175.1426
CN(C)C(=O)CCC#N	CN(C)C(=O)CCC#N	
InChI=1S/C6H10N2O/c1-8(2)6(9)4-3-5-7/h3-4H2,1-2H3	InChI=1S/C6H10N2O/c1-8(2)6(9)4-3-5-7/h3-4H2,1-2H3
