19
gdb 105472	2.26037	1.12492	0.8802	2.4358	81.14	-0.2448	0.0267	0.2716	1409.7007	0.157149	-422.977793	-422.967716	-422.966772	-423.014523	35.114	
C	 0.2163257238	 1.6359123854	-0.0886575284	-0.500903
C	 0.1630975423	 0.1830024987	-0.0327451661	 0.083093
C	 0.1122500392	-1.0198272848	-0.0005528448	 0.088558
C	 0.0764789823	-2.4712141514	 0.0628959442	 0.158055
C	 0.97584076	-3.1297170744	-0.993916258	-0.082874
O	 0.4654740333	-2.9110645795	-2.286571306	-0.417814
C	 0.1488062228	-3.1134480255	 1.4774628869	-0.337063
C	-1.2289779004	-3.7086071658	 1.1365452195	-0.066324
O	-1.2806073404	-3.0028009661	-0.1248142862	-0.31974
H	 1.2350340002	 1.9868313817	-0.2867127152	 0.151603
H	-0.4266768296	 2.0205910972	-0.8878119927	 0.155661
H	-0.1154850101	 2.0869150178	 0.852912086	 0.148008
H	 1.9835956918	-2.7039961906	-0.9565526358	 0.112736
H	 1.0470842823	-4.2055460462	-0.7612210004	 0.077025
H	-0.4713134394	-3.1429756972	-2.2371834929	 0.292952
H	 0.9651337607	-3.8242046452	 1.6192313329	 0.114291
H	 0.1469199645	-2.3886516331	 2.2903746855	 0.124107
H	-1.252853549	-4.7959087816	 0.9974171756	 0.105902
H	-2.0552568242	-3.4161277294	 1.7932320257	 0.112726
27.3522	67.3871	80.7461	115.9686	139.5326	225.671	291.7649	312.4626	360.5204	424.5669	480.3819	497.1122	543.5153	651.9386	780.9983	822.5012	865.7349	943.8502	984.3845	1008.5789	1030.8547	1050.3304	1051.3615	1054.7171	1093.8229	1152.0033	1171.4251	1205.7299	1219.6195	1254.3627	1306.0528	1345.3862	1386.3555	1413.2526	1433.0723	1476.2337	1477.6825	1488.0964	1496.033	1530.0532	2366.9225	2962.0989	3025.9012	3028.6539	3069.829	3081.3168	3084.881	3090.1086	3091.5005	3150.5918	3767.1086
CC#CC1(CO)CCO1	CC#C[C@@]1(CO)CCO1	
InChI=1S/C7H10O2/c1-2-3-7(6-8)4-5-9-7/h8H,4-6H2,1H3	InChI=1S/C7H10O2/c1-2-3-7(6-8)4-5-9-7/h8H,4-6H2,1H3/t7-/m0/s1
