20
gdb 100517	2.79309	1.15502	0.88423	0.8701	79.61	-0.2352	-0.0192	0.216	1358.559	0.170491	-436.504165	-436.493764	-436.49282	-436.540405	37.176	
C	-0.4031014777	 1.6738685816	 0.0995836252	-0.378697
C	-0.2968995629	 0.1623363138	-0.1174106823	-0.146943
N	-1.580564725	-0.5333145078	 0.0353404594	-0.096975
C	-2.3707987369	-0.6714787166	-1.1818882982	-0.340343
C	-1.932027723	-0.8843813887	 1.2954734602	 0.423189
O	-1.2355748604	-0.5841548814	 2.2661123965	-0.421045
C	-3.1986630193	-1.7050714133	 1.5785699444	 0.25179
N	-3.5487334456	-1.5673634538	 2.895092317	-0.516743
N	-3.7764931228	-2.411170511	 0.6798119156	-0.533709
H	 0.5711065257	 2.1467255337	-0.0599379388	 0.116532
H	-1.1161188207	 2.1316413062	-0.5937470423	 0.115707
H	-0.7247018997	 1.882387987	 1.1222844254	 0.145388
H	 0.0691332425	-0.0581059393	-1.1254947566	 0.101435
H	 0.4033043147	-0.2645391601	 0.6025439107	 0.136256
H	-1.89233467	-1.3804001997	-1.8686532186	 0.125291
H	-3.3641498029	-1.0406833983	-0.9509861953	 0.180062
H	-2.4340214068	 0.3015374486	-1.6833746686	 0.115603
H	-2.8063611422	-1.2083438128	 3.4809521741	 0.272817
H	-4.1645549846	-2.255955229	 3.2959703616	 0.246931
H	-4.5684298924	-2.9259516493	 1.0716427007	 0.203454
49.3828	59.1866	90.3308	106.3447	176.352	224.2418	291.6814	321.8994	382.5566	418.8573	434.8741	463.0478	493.7017	576.0571	598.8452	627.269	715.5273	786.4513	814.0492	869.8698	889.8997	1016.5672	1088.1379	1106.8399	1107.6464	1142.1413	1159.4616	1184.2989	1251.373	1326.035	1389.3885	1405.6087	1406.3165	1448.0784	1467.9767	1482.3464	1490.9789	1495.6648	1507.7384	1533.5723	1589.4014	1700.7229	1725.9158	3017.7859	3040.8993	3052.3656	3066.7902	3101.8236	3120.9782	3137.0851	3204.5335	3435.6876	3552.6448	3689.7193
CCN(C)C(=O)C(N)=N	CCN(C)C(=O)C(=N)N	
InChI=1S/C5H11N3O/c1-3-8(2)5(9)4(6)7/h3H2,1-2H3,(H3,6,7)	InChI=1S/C5H11N3O/c1-3-8(2)5(9)4(6)7/h3H2,1-2H3,(H3,6,7)
