16
gdb 44095	3.95504	1.42256	1.1945	2.2729	68.97	-0.2512	0.0117	0.2629	1004.5787	0.125702	-437.8573	-437.850435	-437.849491	-437.888548	27.214	
O	 0.0263075546	 0.0193936282	 0.0049168458	-0.343088
C	 0.0230402587	 1.2170528232	-0.0322457848	 0.405589
N	-1.0219434689	 2.1490129782	-0.0118284435	-0.43252
C	-0.1448483469	 3.2774957747	 0.1738648496	 0.364276
C	-0.1593032511	 4.7302690668	-0.2576428014	-0.169436
O	 0.7320736724	 5.0433022276	 0.8483385225	-0.291548
C	 0.5194633745	 3.7608683295	 1.4949828425	 0.064121
C	 1.6898297881	 2.7698795378	 1.3160310946	-0.264907
C	 1.0813950206	 2.3471325956	-0.0622329367	-0.238546
H	-1.9610521938	 2.0053064526	 0.337419856	 0.248628
H	 0.272431034	 4.983404017	-1.232125843	 0.115759
H	-1.1285471434	 5.2363910803	-0.1443335969	 0.105648
H	 0.0234911603	 3.8608352883	 2.4644559265	 0.079913
H	 2.6638686298	 3.2569005137	 1.2457955063	 0.127438
H	 1.7377464916	 1.9696797483	 2.0587005672	 0.122341
H	 1.6999788198	 2.4058795183	-0.9564249448	 0.106333
114.5372	194.3271	279.0171	330.6159	405.5099	460.2434	493.9109	563.0886	671.7604	721.9644	760.0591	784.5318	831.1857	896.6604	926.736	971.7955	982.5879	994.3831	1035.732	1073.754	1080.054	1120.4901	1130.6517	1149.1635	1194.9552	1233.254	1252.1589	1262.1727	1269.6027	1307.8621	1347.0188	1408.5648	1460.1021	1520.5444	1895.9266	3001.9282	3066.1347	3068.4063	3076.6616	3128.2601	3137.2385	3573.3173
O=C1NC23COC2CC13	O=C1N[C@@]23CO[C@@H]2C[C@@H]13	
InChI=1S/C6H7NO2/c8-5-3-1-4-6(3,7-5)2-9-4/h3-4H,1-2H2,(H,7,8)	InChI=1S/C6H7NO2/c8-5-3-1-4-6(3,7-5)2-9-4/h3-4H,1-2H2,(H,7,8)/t3-,4+,6+/m0/s1
