15
gdb 5680	5.09435	2.17728	1.5398	1.5445	74.22	-0.1989	-0.0004	0.1986	787.2227	0.122214	-325.569996	-325.56418	-325.563236	-325.599618	23.747	
C	-0.0481045647	 1.5237536737	 0.0107597376	-0.414457
C	 1.4340650145	 1.8696345993	-0.0014548363	-0.135582
C	 2.1614087602	 0.7462008844	-0.0146491995	-0.016926
N	 1.3151215122	-0.3724396305	-0.0127947809	 0.006877
C	 1.410819878	-1.7402830901	-0.0212491649	-0.140836
C	 0.1213449822	-2.2285342345	-0.0116470647	-0.140187
C	-0.781022782	-1.1178824714	 0.003139681	-0.325515
C	-0.0105822051	 0.0191591516	 0.0020417805	 0.357512
H	-0.5521572104	 1.9334633953	 0.8960054891	 0.132993
H	-0.5689071164	 1.943229941	-0.8601001514	 0.132992
H	 1.8255909147	 2.8756840226	 0.0003982185	 0.108868
H	 3.2333419643	 0.6125737887	-0.0256266754	 0.130499
H	 2.3650054893	-2.241517322	-0.033143536	 0.116335
H	-0.1524465639	-3.2728703254	-0.0148221789	 0.093586
H	-1.8590781528	-1.1677290328	 0.0131703614	 0.093843
170.4969	253.8762	437.5007	442.3395	607.3022	659.6776	673.4691	689.6318	719.8889	723.0336	770.8397	826.9336	865.7028	906.612	922.1182	945.8999	951.1617	1028.2864	1077.7238	1108.4187	1142.3369	1177.9964	1222.4479	1276.7581	1308.0987	1328.0394	1423.0833	1443.1134	1461.3349	1505.1037	1594.717	1658.6227	3019.9848	3040.6865	3238.4204	3239.172	3252.6065	3261.6486	3270.6858
C1C=CN2C=CC=C12	C1C=Cn2cccc12	
InChI=1S/C7H7N/c1-3-7-4-2-6-8(7)5-1/h1-3,5-6H,4H2	InChI=1S/C7H7N/c1-3-7-4-2-6-8(7)5-1/h1-3,5-6H,4H2
