18
gdb 88114	3.51953	1.26038	1.09363	2.889	72.91	-0.2395	0.0282	0.2677	1127.6712	0.148428	-439.076237	-439.068235	-439.067291	-439.108703	31.007	
O	 0.0258315626	 1.3752270433	-0.1260213184	-0.420967
C	-0.0004917133	-0.0164364866	-0.0245262851	 0.01085
C	-0.4473633557	-0.6851524834	 1.2648928647	-0.382574
C	-1.3414292183	-0.6591033524	 0.0428356465	 0.443073
C	-2.6310833568	 0.1222068525	 0.026410724	-0.289902
C	-3.7510102319	-0.8007434614	 0.5218775902	-0.159268
N	-3.7216770313	-2.1187125093	-0.1092147128	-0.265306
C	-2.638142274	-2.5042744247	-0.6296126216	 0.115814
O	-1.429344043	-1.878702678	-0.6782353223	-0.268779
H	 0.7715518335	 1.6970291261	 0.3913693261	 0.292402
H	 0.7485463015	-0.5487519645	-0.6105992232	 0.10305
H	 0.0225461461	-1.6241197264	 1.534305877	 0.124253
H	-0.7297779449	-0.0434326844	 2.0933813485	 0.119367
H	-2.5383278252	 1.0226673304	 0.6364833484	 0.115411
H	-2.8408243317	 0.4431814425	-1.0007699533	 0.117608
H	-3.6822907853	-0.9359430065	 1.6095725021	 0.112075
H	-4.7327317398	-0.3550976546	 0.3290187747	 0.110315
H	-2.5700034424	-3.4611104626	-1.1435219855	 0.122578
90.0782	163.1646	193.6233	249.4996	300.9795	379.9029	396.7366	457.7027	477.8929	547.2505	586.3457	690.1052	796.5797	827.9606	878.4544	890.7116	950.8016	956.3817	973.9141	989.1662	1026.0553	1029.7418	1085.0469	1101.8971	1156.0451	1171.705	1197.7382	1243.3651	1253.1993	1300.0971	1323.9362	1355.8444	1388.8961	1411.3998	1422.3633	1480.9697	1489.6148	1501.5655	1735.3273	3019.1855	3042.2689	3064.6287	3108.1949	3116.1037	3132.2437	3161.7697	3229.2413	3806.7551
OC1CC11CCN=CO1	O[C@H]1C[C@]21CCN=CO2	
InChI=1S/C6H9NO2/c8-5-3-6(5)1-2-7-4-9-6/h4-5,8H,1-3H2	InChI=1S/C6H9NO2/c8-5-3-6(5)1-2-7-4-9-6/h4-5,8H,1-3H2/t5-,6-/m0/s1
