23
gdb 115798	3.67401	1.00862	0.90096	1.1887	85.19	-0.2491	0.0832	0.3323	1397.1254	0.206309	-388.297938	-388.288746	-388.287802	-388.331478	36.267	
C	-0.0450001914	 1.5439104702	 0.0911568482	-0.384362
C	-0.02798101	 0.0146878018	-0.0026921407	-0.178857
C	 0.7162451452	-0.5251181197	-1.2302357274	 0.040383
C	 2.2287083411	-0.1739618381	-1.2754845063	-0.23916
C	 2.8842048436	-1.2764545865	-2.1351399228	-0.284107
C	 2.0087831236	-2.5047762461	-1.9228917828	 0.406946
O	 2.0302912609	-3.5038647751	-2.8997624245	-0.47604
C	 1.6386783825	-2.8625855369	-0.5048871186	-0.35787
C	 0.6913434147	-2.0432259225	-1.3714733974	-0.088237
H	 0.9663371873	 1.9543610072	 0.1795322736	 0.11637
H	-0.5051325221	 1.9893990386	-0.7983411334	 0.112066
H	-0.6147725554	 1.8806970201	 0.9628569546	 0.110065
H	 0.426717475	-0.4071064643	 0.903536107	 0.091849
H	-1.0605146574	-0.357023942	-0.023940521	 0.091609
H	 0.2377814622	-0.107900391	-2.1288507618	 0.068658
H	 2.4153409273	 0.8267287529	-1.6728682941	 0.100156
H	 2.6407749692	-0.1885615737	-0.2595822314	 0.099021
H	 2.8413925734	-1.0202224896	-3.2002915171	 0.105923
H	 3.9381013766	-1.4388691566	-1.8792045755	 0.085777
H	 2.8313964019	-4.023869123	-2.773929232	 0.279112
H	 1.3475814425	-3.8947205782	-0.3432230199	 0.109354
H	 2.1550748872	-2.4027875639	 0.3320413214	 0.104518
H	-0.2253543879	-2.5272183737	-1.6904372182	 0.086826
86.5554	127.0278	184.3386	224.8508	249.1199	281.1877	309.5808	377.4717	406.7637	428.8351	502.1731	554.1184	609.6893	691.4451	770.0502	813.1583	855.9155	900.3357	920.7598	938.1524	953.9074	970.2762	984.0941	1006.4638	1038.4471	1057.9445	1067.501	1080.2115	1133.2573	1144.8067	1193.2171	1216.3654	1252.9872	1261.376	1286.3941	1308.4924	1324.2979	1326.63	1342.4668	1360.8011	1387.6442	1409.5453	1412.4636	1484.4678	1485.8304	1493.8554	1500.9531	1507.9585	1514.0262	2990.13	3014.6763	3027.7197	3029.8091	3039.4313	3047.3007	3067.829	3095.4274	3096.3929	3102.7101	3127.0557	3170.2889	3215.5758	3796.5143
CCC1CCC2(O)CC12	CC[C@H]1CC[C@@]2(O)C[C@@H]12	
InChI=1S/C8H14O/c1-2-6-3-4-8(9)5-7(6)8/h6-7,9H,2-5H2,1H3	InChI=1S/C8H14O/c1-2-6-3-4-8(9)5-7(6)8/h6-7,9H,2-5H2,1H3/t6-,7-,8+/m0/s1
