16
gdb 32041	2.9087	1.40235	0.95197	3.557	80.29	-0.1928	-0.0379	0.1549	1181.9782	0.125944	-434.086651	-434.078667	-434.077723	-434.119504	29.845	
C	 0.0009945087	 1.4316338595	 0.0087568433	-0.275152
O	-0.018949914	 0.0094547467	 0.0051576696	-0.247873
C	-1.1929796919	-0.6430623481	 0.0120472519	 0.489027
C	-1.2267873719	-2.012465683	 0.0085783349	-0.170747
N	-2.4169484207	-2.6773953311	 0.0155695757	-0.215868
C	-3.5335943883	-2.0160890672	 0.0256150483	-0.083302
C	-3.6298521597	-0.5615930406	 0.0302762939	 0.329775
N	-4.654548141	 0.2117301244	 0.0399706051	-0.569024
N	-2.3632020708	 0.0489075427	 0.0225674883	-0.408027
H	 1.0543049685	 1.7113606962	 0.0016895941	 0.159255
H	-0.4831833605	 1.8451172419	-0.8844646341	 0.14238
H	-0.4698782038	 1.8403870354	 0.9112204489	 0.142378
H	-0.3087173187	-2.583026859	 0.0002420392	 0.116609
H	-4.4666218224	-2.5757073487	 0.0310000345	 0.109175
H	-5.5095515571	-0.341372715	 0.0448001165	 0.215845
H	-2.3871054264	 1.0580597359	 0.0255248101	 0.265549
70.3182	147.0874	195.2032	219.1128	249.6519	407.6659	444.8839	481.0887	541.6234	584.078	592.7999	686.7607	712.4688	746.0112	777.5128	808.4602	896.228	960.7918	1022.7544	1064.6243	1114.4014	1170.6571	1174.2675	1208.2854	1282.6943	1335.8349	1345.7291	1412.482	1475.4499	1499.046	1504.8647	1509.2091	1571.5243	1634.4122	1692.0047	3013.3564	3079.5438	3148.8324	3152.5062	3224.8736	3503.7086	3620.3705
COC1=CN=CC(=N)N1	COc1cncc([NH])[nH]1	
InChI=1S/C5H7N3O/c1-9-5-3-7-2-4(6)8-5/h2-3H,1H3,(H2,6,8)	InChI=1S/C5H12N3O/c1-9-5-3-7-2-4(6)8-5/h4-8H,2-3H2,1H3
