20
gdb 8479	2.76649	1.91199	1.53944	1.6654	75.41	-0.2407	0.0732	0.3139	946.9565	0.175768	-348.985369	-348.976724	-348.97578	-349.017766	33.234	
C	-0.0217283488	 1.5448861738	 0.0142715705	-0.498751
C	-0.0345014219	 0.0437992072	 0.0683104083	 0.312868
C	 1.1498319062	-0.8049289863	-0.3127828837	-0.374597
C	 0.5856218019	-0.9415885659	 1.0796882964	 0.265474
C	 1.3956436087	-0.7289021385	 2.3265080843	-0.494066
C	-0.6700882123	-1.8317860328	 0.9968772653	 0.109728
O	-1.3910370119	-1.981166627	 2.201359676	-0.436551
C	-1.2933367293	-0.831998889	-0.0314550719	-0.32634
H	 0.9549163566	 1.9456390504	 0.3061640469	 0.117244
H	-0.2336854498	 1.907589934	-0.9992346211	 0.121438
H	-0.7747314312	 1.9792628163	 0.6826130538	 0.109405
H	 1.0462528472	-1.6112130533	-1.0379813432	 0.098987
H	 2.1002969672	-0.2816045882	-0.3718678959	 0.105346
H	 2.0409884027	 0.1511264989	 2.2363113034	 0.114875
H	 0.7536181147	-0.5894282931	 3.202540436	 0.110547
H	 2.0404442781	-1.5918859924	 2.5319260611	 0.123884
H	-0.4988100578	-2.8526996934	 0.6387335246	 0.080506
H	-1.610829993	-1.10170615	 2.5284682269	 0.275717
H	-2.1837508847	-0.3607037756	 0.3979773404	 0.091569
H	-1.5498269926	-1.2145288252	-1.0258988681	 0.092716
118.2519	172.8255	178.6608	202.8405	240.9875	323.9244	325.0502	409.1602	417.2506	463.9334	487.2603	588.528	677.2061	751.8246	814.579	862.3127	905.3376	948.1457	970.1114	994.5323	1018.1655	1054.9884	1062.5296	1098.8191	1105.2777	1142.9531	1207.2902	1235.7777	1242.7919	1268.3479	1292.8871	1331.6968	1392.868	1412.8396	1427.8662	1431.1602	1479.3647	1481.5595	1487.4433	1496.8363	1500.8739	1512.2538	3016.4415	3024.0098	3030.7933	3050.2568	3072.8483	3082.1708	3084.2965	3088.4096	3091.2469	3098.1986	3180.13	3797.1861
CC12CC1(C)C(O)C2	C[C@@]12C[C@]1(C)[C@@H](O)C2	
InChI=1S/C7H12O/c1-6-3-5(8)7(6,2)4-6/h5,8H,3-4H2,1-2H3	InChI=1S/C7H12O/c1-6-3-5(8)7(6,2)4-6/h5,8H,3-4H2,1-2H3/t5-,6+,7+/m0/s1
