15
gdb 11809	3.47155	1.8207	1.38353	1.3829	61.96	-0.2414	-0.0359	0.2054	882.5876	0.117751	-399.765078	-399.75744	-399.756496	-399.797165	28.068	
O	 0.5323341706	 0.8502267365	-0.7154310471	-0.419747
C	 0.1202693403	-0.3084229579	-0.0574977827	-0.022141
C	 0.0740741785	-0.3647704834	 1.4851525776	 0.339255
O	 0.6783913935	 0.2303965532	 2.3299006153	-0.294667
C	-1.2225389254	-1.1976724236	 1.4659602573	-0.414666
C	-1.3694871514	-0.7322229779	 0.0085173461	 0.296664
C	-2.4771211542	 0.0221064176	-0.6101824067	-0.297804
N	-2.1657212227	-1.3653724259	-1.0253298237	-0.371359
H	 0.3727328136	 1.6000511742	-0.1306586325	 0.295701
H	 0.7210973196	-1.143380887	-0.4456828415	 0.119775
H	-1.0367184303	-2.2730845465	 1.5577097698	 0.140773
H	-1.9890927179	-0.9019541135	 2.1848004162	 0.139179
H	-3.4206800383	 0.1394964891	-0.0843685707	 0.124931
H	-2.2126952851	 0.8356190315	-1.2809550297	 0.125518
H	-1.6639187607	-1.3562725264	-1.9113422478	 0.238589
75.487	141.9668	208.5072	247.6954	293.9192	338.1147	396.2962	527.2607	541.5906	622.5469	747.0901	766.5068	829.9879	882.9483	939.2755	964.3491	979.272	1044.4199	1066.2561	1085.3694	1121.4671	1155.9681	1169.5584	1209.9366	1263.5277	1293.5627	1314.7032	1405.0498	1422.0466	1445.6759	1512.059	1888.9852	3016.4205	3058.587	3107.3464	3124.0497	3197.1464	3483.5632	3798.3241
OC1C(=O)CC11CN1	O[C@H]1C(=O)C[C@]21CN2	
InChI=1S/C5H7NO2/c7-3-1-5(2-6-5)4(3)8/h4,6,8H,1-2H2	InChI=1S/C5H7NO2/c7-3-1-5(2-6-5)4(3)8/h4,6,8H,1-2H2/t4-,5+/m0/s1
