17
gdb 44796	2.82012	1.5816	1.21502	1.2213	74.27	-0.2397	0.0152	0.255	1041.1825	0.136056	-417.937392	-417.929702	-417.928758	-417.96991	29.604	
N	-0.400344313	 1.1412778796	 0.6189417818	-0.5676
C	-0.231644064	-0.0701477117	 0.3412483958	 0.398136
O	 0.9309399237	-0.7766555833	 0.0442005801	-0.27373
C	 0.1411253618	-1.9507792021	-0.3034484334	 0.02232
C	-0.5649926134	-2.4295785624	 0.9131083159	-0.338566
C	-1.1372017004	-1.2509138123	 0.1126339491	 0.246287
N	-2.4408316875	-1.3206023994	-0.4269559599	-0.171791
C	-3.4704079148	-0.4599437816	 0.1683226902	-0.23411
C	-2.9446053396	-0.1799920077	-1.1962214034	-0.235976
H	 0.4866956848	 1.6476714292	 0.6406250332	 0.232459
H	 0.4203140127	-2.4939215167	-1.1946201393	 0.131972
H	-1.1595192801	-3.3291705625	 0.7882461981	 0.137179
H	-0.1164553919	-2.2837588893	 1.8907191863	 0.130404
H	-4.4416588019	-0.9275461279	 0.3008606207	 0.117306
H	-3.1632424149	 0.2207990303	 0.9572175092	 0.145059
H	-2.3021981759	 0.688916905	-1.3038891445	 0.143329
H	-3.5268079656	-0.4459120573	-2.0735278698	 0.117322
62.9773	153.5204	194.0458	208.7513	346.3024	424.9866	465.2005	474.2319	619.1072	651.9485	754.6881	817.1023	848.7037	862.1499	869.023	887.7703	919.5813	942.2495	961.0881	1007.6906	1023.9057	1053.7176	1059.0593	1081.9921	1115.842	1135.0627	1162.5215	1182.0238	1196.0251	1233.5433	1275.4094	1311.9104	1423.3908	1480.9846	1485.3128	1512.0189	1818.4885	3112.5928	3117.4128	3125.7275	3200.8593	3214.5605	3222.864	3231.7139	3473.7638
N=C1OC2CC12N1CC1	[NH][C]1O[C@H]2C[C@@]12N1CC1	
InChI=1S/C6H8N2O/c7-5-6(8-1-2-8)3-4(6)9-5/h4,7H,1-3H2	InChI=1S/C6H8N2O/c7-5-6(8-1-2-8)3-4(6)9-5/h4,7H,1-3H2/t4-,6-/m0/s1
