22
gdb 122490	4.22193	0.58151	0.53823	3.2502	85.37	-0.2472	-0.0254	0.2218	2088.5623	0.192581	-404.340298	-404.329912	-404.328968	-404.376993	36.799	
C	-0.0495896094	 1.5961359008	-0.0805778011	-0.381162
C	-0.0093667555	 0.0803120915	 0.1303086154	-0.167437
C	-1.3922818799	-0.574278255	 0.0475908026	-0.157538
C	-1.356401247	-2.0940061333	 0.2568606288	-0.200498
C	-2.7369124685	-2.7079254477	 0.1758097525	-0.008137
N	-3.253530423	-3.050168093	-1.1428128261	-0.331767
C	-3.0188116642	-4.1450050634	-0.1749861706	-0.136623
C	-1.9374987573	-5.104438491	-0.5314434477	 0.174738
O	-1.8602279003	-6.2199754132	-0.079730526	-0.260259
H	 0.950743669	 2.0352885409	-0.0162013717	 0.113239
H	-0.4611493046	 1.8478324975	-1.0642872752	 0.115502
H	-0.6765936729	 2.0845775395	 0.6737654167	 0.113239
H	 0.6510607862	-0.3773375804	-0.6178458204	 0.098585
H	 0.4392295502	-0.1435096681	 1.1073001608	 0.095556
H	-2.0553340673	-0.1180688788	 0.796460644	 0.089427
H	-1.8424271946	-0.3617422714	-0.930819568	 0.107163
H	-0.70691343	-2.5496399801	-0.4973720288	 0.106422
H	-0.9193432292	-2.3252401879	 1.2372073597	 0.104109
H	-3.447326607	-2.2911990148	 0.8912863949	 0.094143
H	-4.2492462955	-2.8632155436	-1.2185943559	 0.242645
H	-3.8664928249	-4.6089405257	 0.3237700885	 0.103318
H	-1.2000604643	-4.7136220028	-1.2650543325	 0.085336
51.0783	65.3299	90.127	119.4736	134.5658	219.4987	236.6809	269.3838	330.6211	365.8621	439.2337	486.8992	532.9868	738.347	788.0205	810.2436	858.05	905.0494	920.3415	940.9508	990.1245	1005.5525	1031.4611	1046.6136	1066.9982	1083.8691	1127.1156	1155.6111	1207.8784	1230.4584	1241.3263	1265.033	1281.0889	1322.539	1334.4008	1355.0767	1368.6739	1400.0205	1412.7431	1422.262	1468.4762	1478.203	1486.7973	1498.4714	1498.6052	1512.6111	1820.3643	2904.0215	3005.6875	3016.5427	3026.3016	3029.4721	3037.9045	3056.8682	3081.5	3095.8417	3100.5219	3102.3146	3145.8904	3515.3749
CCCCC1NC1C=O	CCCC[C@H]1N[C@H]1C=O	
InChI=1S/C7H13NO/c1-2-3-4-6-7(5-9)8-6/h5-8H,2-4H2,1H3	InChI=1S/C7H13NO/c1-2-3-4-6-7(5-9)8-6/h5-8H,2-4H2,1H3/t6-,7+/m1/s1
