17
gdb 53179	3.13024	1.05896	0.94334	1.5598	77.13	-0.2376	0.0438	0.2814	1307.7073	0.133933	-421.756995	-421.747894	-421.74695	-421.792529	32.364	
C	 0.0493880966	 1.5219284583	-0.0323942297	-0.499812
C	 0.0565577714	 0.0664957464	-0.016126573	 0.090957
C	 0.0737396747	-1.1381892963	-0.0064889721	 0.08947
C	 0.0502216619	-2.5839752407	 0.0155379273	-0.308303
C	 0.2605653408	-3.2868108428	 1.3702335965	 0.031019
O	-0.8254967054	-2.9074944111	 2.2197306376	-0.24988
C	-1.0302549254	-3.9864208887	 1.2921380205	-0.024992
C	-1.3834659329	-3.3129624819	-0.043336173	 0.126007
O	-2.5273386595	-2.5249118934	-0.0722803651	-0.422573
H	 1.0266462159	 1.9213990042	-0.3255579561	 0.148203
H	-0.6916693391	 1.9069123682	-0.741678214	 0.150826
H	-0.1929449892	 1.9301326314	 0.9550083688	 0.149619
H	 0.7051694961	-3.0088747981	-0.7525065074	 0.102222
H	 1.190660071	-3.5729201966	 1.8461967624	 0.113506
H	-1.3543451489	-4.9361150235	 1.70153524	 0.110343
H	-1.4377170338	-4.0073197555	-0.8845217533	 0.0999
H	-2.4642684942	-1.9242044201	 0.6819627307	 0.29349
23.0553	76.0032	84.9904	159.0611	241.4755	265.0066	360.3047	397.0972	425.8623	495.9988	549.3356	662.1186	740.3007	762.4061	859.7936	865.2698	893.6761	915.4066	943.5831	1019.1257	1051.9795	1053.357	1055.6584	1108.4719	1151.719	1189.5037	1226.7056	1232.5391	1264.0411	1303.3963	1338.6536	1383.8518	1414.1818	1442.9738	1477.8514	1478.1106	2367.122	3026.6463	3052.102	3087.2376	3088.2761	3097.6853	3184.066	3200.296	3773.6775
CC#CC1C2OC2C1O	CC#C[C@H]1[C@H]2O[C@H]2[C@H]1O	
InChI=1S/C7H8O2/c1-2-3-4-5(8)7-6(4)9-7/h4-8H,1H3	InChI=1S/C7H8O2/c1-2-3-4-5(8)7-6(4)9-7/h4-8H,1H3/t4-,5+,6-,7+/m1/s1
