15
gdb 132735	2.44743	1.80072	1.04518	3.5247	71.44	-0.2271	-0.0257	0.2014	1064.0438	0.113477	-458.160002	-458.152164	-458.15122	-458.192193	29.644	
C	-0.008739225	 1.508285332	 0.0568975028	-0.502634
C	-0.0006222441	 0.0066649476	 0.0047508445	 0.285886
C	 0.0551990115	-0.664118825	-1.2262839563	 0.097485
N	 0.1607997121	-0.0241759711	-2.4548731993	-0.602569
C	 0.0601776567	-2.0587890255	-1.1262518838	 0.309622
F	 0.1049397668	-2.7535073623	-2.2677699079	-0.079307
N	 0.0220269018	-2.7329666119	-0.0093617876	-0.306986
C	-0.0274064544	-1.9922666002	 1.1049496986	 0.040655
N	-0.0425713409	-0.6668876605	 1.1634431875	-0.302141
H	 0.8569272048	 1.9258578487	-0.4708545149	 0.141435
H	-0.9077935665	 1.9222965359	-0.4193861089	 0.128256
H	 0.0107842191	 1.8367672213	 1.0960626153	 0.152381
H	-0.2874937377	 0.8781597699	-2.5133805556	 0.255663
H	-0.0579550122	-0.6141484573	-3.2444967434	 0.261529
H	-0.058540982	-2.5325357416	 2.046112869	 0.120726
122.3631	154.4557	247.2516	285.678	313.5468	320.1909	333.4594	514.9457	540.1806	551.4926	563.2149	615.6002	633.5116	725.1111	799.2091	883.1151	939.9976	952.1756	1006.3906	1057.2841	1195.8233	1235.6937	1295.7181	1318.0679	1326.9002	1404.6227	1466.529	1476.0566	1483.8286	1503.5875	1593.3089	1629.9983	1659.2821	3017.4317	3070.5726	3152.6229	3182.6286	3568.2078	3670.3786
CC1=C(N)C(F)=NC=N1	Cc1c(N)c(F)ncn1	
InChI=1S/C5H6FN3/c1-3-4(7)5(6)9-2-8-3/h2H,7H2,1H3	InChI=1S/C5H6FN3/c1-3-4(7)5(6)9-2-8-3/h2H,7H2,1H3
