17
gdb 11643	3.26101	1.95533	1.53243	1.1219	76.47	-0.2174	0.0296	0.247	884.3169	0.141306	-326.613041	-326.605575	-326.604631	-326.644379	29.341	
C	 0.0505699319	 1.4982252388	-0.1601440969	-0.337116
N	 0.0144657476	 0.0505686207	 0.0193475826	-0.126704
C	-1.0423948343	-0.5566978894	 0.9286557395	-0.037869
C	-0.129820116	-1.8072672932	 0.9861043259	-0.242514
C	 0.7742759722	-0.5559188847	 1.2081473674	 0.274281
C	-0.3182788376	-0.0257719246	 2.1958530128	-0.27838
C	 2.200359364	-0.4847802446	 1.3357789022	 0.068357
C	 3.3954447181	-0.4116354666	 1.4508668346	-0.360448
H	 1.035333829	 1.7684830744	-0.5540624544	 0.131104
H	-0.6955317519	 1.7647987476	-0.9159891905	 0.122028
H	-0.1372708723	 2.114912996	 0.7316853883	 0.097652
H	-2.102545491	-0.5094635914	 0.6800729589	 0.085935
H	-0.2503064537	-2.4763754112	 1.8389765174	 0.098808
H	 0.0257139917	-2.322941393	 0.0390133225	 0.112151
H	-0.3358217222	 1.0469412992	 2.3821594768	 0.109045
H	-0.4511708333	-0.5851314898	 3.1254496534	 0.101088
H	 4.4511993378	-0.3524831581	 1.5492815296	 0.182582
125.1549	157.8907	186.2214	298.0361	346.5113	483.0471	494.8272	550.0978	561.6034	605.323	627.1121	662.5407	743.0706	785.0448	808.8635	910.8475	941.1403	942.9018	995.8277	1058.7657	1070.9363	1117.0595	1142.6719	1162.2078	1169.3064	1184.5193	1221.2825	1230.8685	1235.9392	1289.6705	1437.4121	1470.4199	1491.8423	1499.1769	1533.906	2234.211	2986.0887	3066.4707	3071.8466	3084.3762	3102.9885	3120.1818	3149.7934	3167.2382	3500.72
CN1C2CC1(C2)C#C	CN1[C@H]2C[C@@]1(C2)C#C	
InChI=1S/C7H9N/c1-3-7-4-6(5-7)8(7)2/h1,6H,4-5H2,2H3	InChI=1S/C7H9N/c1-3-7-4-6(5-7)8(7)2/h1,6H,4-5H2,2H3/t6-,7+
