21
gdb 73952	2.51251	1.36899	0.92539	0.9613	95.18	-0.2154	-0.0066	0.2088	1300.8464	0.182573	-349.960276	-349.951085	-349.950141	-349.993828	35.464	
C	 0.0099996612	 1.5566930773	 0.169635991	-0.501697
C	 0.0045719256	 0.0617748077	 0.0182959298	 0.230788
C	 0.003321614	-0.5562458918	-1.1815577415	 0.060039
C	 0.0276318877	-2.0711439823	-1.3334768385	-0.288
C	 0.4172908692	-2.7940351814	-0.0402752768	-0.207043
C	-0.336619348	-2.2002799289	 1.1513106501	-0.204923
C	 0.0097179292	-0.7164438644	 1.3141978925	-0.270372
C	-0.0320617868	 0.1672604353	-2.4087696194	 0.214937
C	-0.0631965191	 0.7081552476	-3.4864956424	-0.422485
H	 0.8530381589	 1.8774280411	 0.7958269793	 0.121733
H	 0.0778174686	 2.0671882323	-0.7919563203	 0.138185
H	-0.9002631335	 1.8976865768	 0.6801583091	 0.123591
H	-0.9626278462	-2.4084558129	-1.6712697016	 0.11249
H	 0.7183513493	-2.3333830281	-2.142534151	 0.111815
H	 0.2149177083	-3.865983068	-0.1373782843	 0.092734
H	 1.4974350782	-2.6899510055	 0.1264393653	 0.098668
H	-1.4164960459	-2.306712658	 0.9853963515	 0.099566
H	-0.104434485	-2.7432962381	 2.0735897018	 0.09196
H	 1.0021242627	-0.6108097774	 1.7803170963	 0.109113
H	-0.6855489988	-0.2382277945	 2.0171039317	 0.102188
H	-0.0925960697	 1.201937503	-4.4257602427	 0.186713
102.1944	133.4853	151.5175	161.1773	257.8116	300.8539	325.4184	413.5724	422.7988	455.9937	540.1144	561.6079	589.5162	611.4622	636.8639	671.7907	830.5244	859.722	879.602	908.5372	939.103	1016.4006	1035.6263	1072.0297	1108.6956	1124.6934	1150.9434	1162.2438	1196.8999	1234.5958	1269.9909	1300.1886	1367.7992	1371.1077	1379.3823	1388.1191	1411.5165	1469.6813	1478.0697	1484.1022	1485.5715	1490.1327	1500.7075	1692.8945	2209.3178	2986.1222	3008.1582	3014.4634	3017.9725	3022.8327	3034.207	3057.5651	3059.9265	3069.7515	3074.0157	3137.7667	3503.3213
CC1=C(CCCC1)C#C	CC1=C(CCCC1)C#C	
InChI=1S/C9H12/c1-3-9-7-5-4-6-8(9)2/h1H,4-7H2,2H3	InChI=1S/C9H12/c1-3-9-7-5-4-6-8(9)2/h1H,4-7H2,2H3
