12
gdb 129285	3.75488	1.27752	0.95321	4.1018	76.92	-0.2609	-0.1141	0.1469	1120.9957	0.076377	-431.597745	-431.59025	-431.589306	-431.63065	27.235	
N	 0.0235937612	 1.3094007474	 0.0099822136	-0.501574
C	-0.02278838	 0.0472805311	 0.0032451195	 0.453011
O	 1.1834398057	-0.6856422612	-0.0073444549	-0.268269
N	 1.2081445669	-2.0635150837	-0.0146779597	-0.032131
C	 0.0712020736	-2.6547546874	-0.0117967338	-0.014122
C	-1.1950324487	-1.9248350444	-0.0014748301	 0.162439
N	-1.2297103605	-0.6339553509	 0.0056304835	-0.306363
C	-2.40260631	-2.6818476264	 0.0005896154	 0.205557
C	-3.3841170598	-3.3778102286	 0.0018590612	-0.313222
H	 0.9916777059	 1.6320971433	 0.0067610465	 0.238435
H	 0.0982813947	-3.7383480424	-0.0175851154	 0.154985
H	-4.2668351389	-3.9705868967	 0.0032578042	 0.221254
42.7285	131.3382	141.0976	309.2628	425.778	426.5226	462.4038	560.6718	588.1523	668.7445	677.8796	696.8319	706.805	764.9834	851.2989	867.3283	910.0782	930.2503	1002.8355	1076.6584	1207.1321	1289.8639	1353.3122	1601.0372	1668.5039	1731.4717	2231.4311	3208.1948	3493.9374	3498.9774
N=C1ON=CC(=N1)C#C	[NH]C1=N[C](C=NO1)C#C	
InChI=1S/C5H3N3O/c1-2-4-3-7-9-5(6)8-4/h1,3,6H	InChI=1S/C5H3N3O/c1-2-4-3-7-9-5(6)8-4/h1,3,6H
