20
gdb 80677	3.02436	1.35345	1.15094	2.2529	78.46	-0.2387	0.0694	0.3081	1141.6389	0.171528	-403.069748	-403.061325	-403.060381	-403.103056	32.048	
C	-0.1981333903	 1.4796714959	-0.2264917037	-0.44053
C	 0.0466417925	 0.0048788618	 0.0025374302	-0.012224
C	 1.3454293239	-0.7262246849	-0.1072551561	 0.07635
O	 2.4663366516	 0.0333099403	 0.3713974093	-0.307645
C	 1.9264955364	-0.0108786117	 1.7252810052	 0.112242
C	 1.9614298417	 1.3270050431	 2.4398669376	-0.027819
C	 3.2694176524	 1.9672228221	 2.7249846727	-0.247881
N	 2.3634713442	 2.5395390036	 1.7126131484	-0.309328
C	 0.6325659873	-0.6687604707	 1.2328404915	-0.194975
H	 0.5939388348	 2.1094777586	 0.1752274065	 0.157935
H	-0.2890821576	 1.6865775818	-1.2986377386	 0.115022
H	-1.1349062331	 1.7868222474	 0.2508664228	 0.117523
H	-0.753969383	-0.6247255513	-0.3882083242	 0.0924
H	 1.5640860231	-1.5437366575	-0.7850830815	 0.103637
H	 2.4996362	-0.7505161367	 2.3017056052	 0.092194
H	 1.1432584382	 1.4756877261	 3.1421786063	 0.096235
H	 3.4038800449	 2.5677148429	 3.6203273821	 0.115804
H	 4.1656460865	 1.4572387832	 2.3787804413	 0.118254
H	 2.6875457086	 2.240791025	 0.7935507571	 0.245853
H	 0.1129816579	-1.4467684187	 1.7763709579	 0.096953
69.6683	132.2993	149.2587	175.2689	249.3159	276.8894	362.917	458.2346	596.9075	601.4105	715.0281	747.7827	798.6344	828.87	851.9311	869.2993	928.7149	965.0621	987.1566	999.4052	1012.6912	1033.9257	1061.8225	1068.263	1079.8784	1102.2074	1131.3805	1141.7742	1146.7526	1190.1757	1218.7826	1263.1756	1279.3368	1295.5346	1321.662	1346.8233	1365.4654	1411.5196	1423.0458	1449.7894	1497.1886	1501.0595	1509.8089	3001.4401	3038.3769	3090.7831	3102.8923	3104.5225	3124.6404	3171.0119	3174.2506	3189.6378	3198.3565	3479.893
CC1C2OC(C3CN3)C12	C[C@H]1[C@H]2O[C@@H]([C@H]3CN3)[C@@H]12	
InChI=1S/C7H11NO/c1-3-5-6(3)9-7(5)4-2-8-4/h3-8H,2H2,1H3	InChI=1S/C7H11NO/c1-3-5-6(3)9-7(5)4-2-8-4/h3-8H,2H2,1H3/t3-,4-,5+,6-,7+/m1/s1
