22
gdb 120397	3.03435	0.88887	0.76524	2.7694	84.45	-0.2571	0.0315	0.2886	1592.9605	0.193244	-404.365658	-404.355568	-404.354624	-404.401329	36.556	
C	-0.3609740931	 1.4451798405	-0.0469437167	-0.384131
C	-0.043715405	-0.0518328194	-0.0290520423	-0.168166
C	 0.7652571834	-0.5059314183	-1.2511166251	-0.187109
C	 1.0523651487	-1.9939564978	-1.2389832442	 0.116224
O	-0.1815541217	-2.7903193808	-1.373666467	-0.272775
C	 0.2798507782	-3.3923775981	-2.5239213514	 0.437211
N	-0.2706556018	-4.2167281075	-3.2925455004	-0.548556
C	 1.6264255005	-2.6954120689	-2.5044822098	-0.157517
C	 2.0192339697	-1.8950299784	-3.740138729	-0.40878
H	 0.5549076508	 2.0468753025	-0.0597012293	 0.113221
H	-0.9455925587	 1.7153120518	-0.9332396323	 0.117241
H	-0.9392312562	 1.738547677	 0.834458445	 0.11557
H	 0.5122335776	-0.300765426	 0.8845382337	 0.095444
H	-0.9736439095	-0.6303311531	 0.0103003724	 0.11947
H	 0.224419541	-0.244831486	-2.1684450087	 0.104721
H	 1.7237842179	 0.0299127459	-1.2857123606	 0.100878
H	 1.5574410414	-2.2811465587	-0.3101015656	 0.087284
H	-1.2114574605	-4.4528358569	-2.9718873053	 0.2248
H	 2.426409325	-3.3957422016	-2.2456946095	 0.106926
H	 1.2353456029	-1.1957340962	-4.0418380827	 0.127021
H	 2.9396287188	-1.3283130102	-3.568142047	 0.118699
H	 2.1914384108	-2.57772875	-4.5767082641	 0.142322
58.8162	91.989	108.8536	120.2921	193.1882	210.1832	243.7455	272.0253	321.6643	390.4329	487.5528	514.9805	645.7957	726.4854	759.4071	804.6856	837.6888	867.3774	888.8556	904.727	925.5626	1015.6997	1035.1745	1053.2749	1076.352	1077.0865	1118.5075	1158.1721	1177.9257	1233.2065	1239.4501	1263.929	1286.3428	1326.3482	1344.8585	1362.175	1385.2947	1410.8057	1411.3006	1416.7925	1470.5533	1492.7044	1494.2966	1498.8551	1499.4932	1509.86	1820.884	3016.7217	3022.6961	3030.0284	3041.5875	3044.8225	3058.5784	3067.2617	3075.0452	3098.3609	3104.5776	3114.6339	3123.2757	3472.9023
CCCC1OC(=N)C1C	CCC[C@H]1O[C]([NH])[C@H]1C	
InChI=1S/C7H13NO/c1-3-4-6-5(2)7(8)9-6/h5-6,8H,3-4H2,1-2H3	InChI=1S/C7H13NO/c1-3-4-6-5(2)7(8)9-6/h5-6,8H,3-4H2,1-2H3/t5-,6+/m0/s1
