18
gdb 47402	2.73593	1.53478	1.18109	3.585	71.29	-0.2282	-0.0314	0.1968	1070.7532	0.148639	-439.076391	-439.068364	-439.06742	-439.109757	29.911	
O	-0.0998960236	 0.0226585464	-0.1006790785	-0.31619
C	-0.0944977913	 1.2225940293	-0.0031848597	 0.34964
C	-1.3047509458	 2.1460927392	 0.1468944663	-0.333874
C	-0.6671206955	 3.4895445219	 0.5393911684	-0.190621
N	 0.6977141919	 3.4898780009	-0.0332412904	-0.356254
C	 1.1597517566	 2.1060873401	-0.0194148561	 0.147533
C	 2.2339934551	 1.743295331	 1.0502812179	-0.08069
O	 3.2099350151	 1.4373954453	 0.0384854115	-0.265576
C	 2.2736624647	 1.7163613437	-1.0134160207	-0.121181
H	-1.8000456331	 2.2108722514	-0.8305097675	 0.133243
H	-2.0291292477	 1.7379127814	 0.8552430904	 0.134508
H	-1.22230892	 4.3607164805	 0.1870382507	 0.115181
H	-0.5914198244	 3.5708834515	 1.6304985469	 0.119195
H	 0.6595785126	 3.8188509303	-0.9934944437	 0.222529
H	 2.5256045556	 2.5960864893	 1.6729667813	 0.111025
H	 2.0040891751	 0.8695944388	 1.6711751777	 0.110957
H	 2.0490334973	 0.8266692953	-1.6133361401	 0.119611
H	 2.6068741875	 2.5359069638	-1.6638403142	 0.100964
51.8048	88.2204	167.3923	210.9762	279.2552	384.3091	427.288	532.1039	550.2064	650.774	671.5132	760.775	817.6715	830.9102	866.4864	935.6839	956.5213	979.5121	1012.2735	1031.3969	1054.3506	1062.022	1083.7446	1162.5758	1171.4342	1198.8061	1231.3047	1239.1367	1262.9795	1295.8616	1312.1599	1362.5537	1373.4122	1442.523	1452.4522	1491.2034	1504.925	1515.9815	1842.4202	3005.411	3024.3447	3032.8	3039.7649	3064.3754	3081.9143	3109.6134	3115.8893	3505.8226
O=C1CCNC11COC1	O=C1CCNC21COC2	
InChI=1S/C6H9NO2/c8-5-1-2-7-6(5)3-9-4-6/h7H,1-4H2	InChI=1S/C6H9NO2/c8-5-1-2-7-6(5)3-9-4-6/h7H,1-4H2
