16
gdb 74119	2.42711	1.81186	1.1422	4.3868	73.57	-0.2257	-0.0234	0.2023	1033.2593	0.126185	-437.905853	-437.898337	-437.897393	-437.937925	28.921	
N	 0.0824306739	 1.2705095422	-0.174773343	-0.585413
C	-0.0439856994	-0.0679524176	 0.013569707	 0.39398
C	-1.1688451059	-0.8280344513	 0.0672775919	-0.326036
C	-0.8461987917	-2.2400680922	 0.2594268425	 0.393853
O	-1.6090121753	-3.1819936008	 0.3263445484	-0.365481
C	 0.6847040038	-2.3446392621	 0.33099954	-0.201623
C	 1.4212081642	-2.5588417797	-1.0172853257	-0.083236
O	 1.882694649	-1.1843306211	-1.036092913	-0.298153
C	 1.1995916731	-0.9075571789	 0.2130771069	 0.014791
H	 0.9835465908	 1.6212640918	-0.4588681678	 0.27106
H	-0.7051988729	 1.7868941339	-0.5336757884	 0.265717
H	-2.1848200203	-0.4759851549	-0.0603281034	 0.097355
H	 1.0223622527	-2.9641918986	 1.1601937269	 0.101899
H	 2.2630031313	-3.2579877209	-0.9805536994	 0.113525
H	 0.7849420549	-2.7970361077	-1.8766210444	 0.118886
H	 1.8817051818	-0.4954167921	 0.9655818115	 0.088875
95.9586	153.3861	236.9586	247.5622	348.5669	405.3409	461.2921	501.4803	582.1608	595.9055	674.436	718.694	791.4215	861.654	869.3641	874.6941	947.4821	974.2033	999.3916	1024.3146	1057.0374	1085.3355	1153.8864	1197.2688	1224.4797	1251.6412	1274.3635	1285.9843	1321.2142	1347.3512	1410.2918	1518.5033	1637.1219	1682.0136	1795.6698	3033.0554	3044.7707	3082.7169	3131.1333	3211.9768	3585.1235	3693.7589
NC1=CC(=O)C2COC12	NC1=CC(=O)[C@H]2CO[C@@H]12	
InChI=1S/C6H7NO2/c7-4-1-5(8)3-2-9-6(3)4/h1,3,6H,2,7H2	InChI=1S/C6H7NO2/c7-4-1-5(8)3-2-9-6(3)4/h1,3,6H,2,7H2/t3-,6-/m1/s1
