21
gdb 99795	1.91763	1.04939	0.96114	0.7422	93.5	-0.2467	0.0391	0.2858	1469.2801	0.177944	-349.90497	-349.893435	-349.892491	-349.942747	40.834	
C	 0.1501491127	 1.531874357	 0.0019564807	-0.394667
C	 0.0012226221	 0.0116694813	 0.0032164179	-0.178101
C	-1.473968163	-0.5013460213	 0.0201163189	-0.134146
C	-1.4686127904	-2.0543425508	 0.0245555482	-0.404619
C	-2.152619508	-0.0253847261	 1.2366782414	 0.375068
C	-2.6852976477	 0.3366607659	 2.2514095238	-0.502799
C	-2.1922431916	-0.0224601365	-1.1720580638	 0.146227
C	-2.7640210059	 0.3440829578	-2.1661313775	 0.0085
C	-3.4682803767	 0.7941813039	-3.3586830923	-0.499052
H	 1.2076472966	 1.8124180625	-0.0140881003	 0.1093
H	-0.3323743578	 1.9717964433	-0.8755547016	 0.126756
H	-0.3046154085	 1.9712961471	 0.8944612326	 0.129258
H	 0.479378128	-0.4148504538	-0.8858377074	 0.101219
H	 0.5041640455	-0.4155548287	 0.8782384346	 0.101984
H	-0.9404244784	-2.4240206218	 0.9078789214	 0.1216
H	-2.4893954494	-2.4415705362	 0.0395816952	 0.131201
H	-0.9667056213	-2.4247369868	-0.8735060205	 0.120919
H	-3.1683615122	 0.6654437143	 3.1380572282	 0.194932
H	-4.1089269134	 0.003691732	-3.7648783307	 0.148229
H	-4.1058461719	 1.6577194447	-3.1394466486	 0.150738
H	-2.768045769	 1.0909489223	-4.14727247	 0.147454
18.0851	83.7531	87.1454	121.9672	166.0284	199.9202	232.5545	250.9764	260.0887	299.071	319.8936	397.8869	447.8465	493.6229	532.2627	602.8406	623.3188	630.4313	636.4426	776.6539	853.1025	903.6521	1004.9122	1024.2794	1052.8795	1053.1423	1067.044	1095.5796	1112.5315	1198.5697	1244.2391	1326.2162	1356.6844	1402.851	1410.811	1414.4121	1474.9782	1478.4149	1478.7611	1487.4031	1493.4642	1495.911	1508.3985	2232.6074	2369.274	3026.9075	3032.161	3042.5723	3044.7481	3074.386	3087.6421	3088.4229	3111.2401	3120.2843	3122.9785	3134.0548	3502.2631
CCC(C)(C#C)C#CC	CC[C@@](C)(C#C)C#CC	
InChI=1S/C9H12/c1-5-8-9(4,6-2)7-3/h2H,7H2,1,3-4H3	InChI=1S/C9H12/c1-5-8-9(4,6-2)7-3/h2H,7H2,1,3-4H3/t9-/m1/s1
