19
gdb 82982	2.56385	1.8989	1.57249	2.442	73.18	-0.2341	0.0622	0.2963	928.9313	0.161856	-423.000836	-422.993698	-422.992754	-423.032394	28.939	
O	-0.0287486217	 1.4537168654	 0.1485662868	-0.420463
C	-0.0142604249	 0.0540689332	-0.0091269466	 0.12518
C	-1.4021390671	-0.6078936968	 0.0432203345	-0.067296
C	-2.4889912338	 0.138349621	-0.7721410835	-0.256962
C	-2.0600952771	-0.6244732985	-2.0677827198	 0.108979
O	-1.3777583638	 0.121367928	-3.0509853484	-0.261985
C	-0.0291845713	 0.3469969174	-2.6344483887	-0.086128
C	 0.253494844	-0.5643718367	-1.4286767145	-0.120628
C	-1.0246108675	-1.4314329526	-1.2450348866	-0.060583
H	 0.8790790818	 1.7728428587	 0.1682176604	 0.285384
H	 0.6540248557	-0.417265009	 0.7246305349	 0.067512
H	-1.7057580295	-1.048198465	 0.9926078773	 0.064669
H	-3.4995950227	-0.129160486	-0.4535793405	 0.097234
H	-2.4043254654	 1.2258089465	-0.8120426383	 0.120158
H	-2.8620019678	-1.1717216539	-2.5680883585	 0.078237
H	 0.6262398229	 0.1181411544	-3.4823487129	 0.096207
H	 0.1103074099	 1.401682698	-2.3635473818	 0.098486
H	 1.2078571166	-1.0850677116	-1.5188398539	 0.069073
H	-0.9659283182	-2.5156271924	-1.31433642	 0.062927
79.9537	220.3561	238.5464	278.8959	386.3733	464.0972	552.0025	607.9973	637.6544	710.1742	746.9884	809.7867	832.2943	860.0072	889.6013	928.5771	941.1824	972.0893	1006.8727	1022.6056	1037.5511	1056.6508	1100.8053	1127.3489	1137.1894	1153.5637	1184.0909	1192.064	1227.3774	1236.4289	1251.0796	1265.7567	1275.7022	1284.5778	1320.5013	1341.7174	1354.3362	1395.8664	1424.4516	1471.0221	1519.0737	2998.7614	3016.2816	3054.2018	3065.4758	3084.7624	3094.9163	3107.2256	3128.8187	3134.5499	3818.3803
OC1C2CC3OCC1C23	O[C@H]1[C@H]2C[C@H]3OC[C@@H]1[C@@H]23	
InChI=1S/C7H10O2/c8-7-3-1-5-6(3)4(7)2-9-5/h3-8H,1-2H2	InChI=1S/C7H10O2/c8-7-3-1-5-6(3)4(7)2-9-5/h3-8H,1-2H2/t3-,4+,5+,6+,7-/m0/s1
