25
gdb 118108	2.43161	0.85817	0.69427	1.2246	89.59	-0.261	0.0808	0.3417	1724.0683	0.227208	-389.479736	-389.468559	-389.467615	-389.516493	40.859	
C	 1.5795563988	-0.089055904	 0.2982258838	-0.39252
C	 0.6188904611	-0.8338738924	-0.6441365261	-0.002963
C	 0.9208373499	-2.3417677438	-0.7260383592	-0.164022
C	 2.2918650527	-2.6911437978	-1.2928532949	-0.086529
O	 2.3512857581	-4.1048343925	-1.4309725336	-0.4218
C	-0.8191189328	-0.6120115395	-0.2028208493	 0.026808
C	-1.5559628935	 0.6666881985	-0.5249540434	-0.31611
C	-2.0051245026	-0.6371810445	-1.1431461372	-0.002472
C	-1.8860874579	-0.8722678305	-2.6341682053	-0.409304
H	 2.6188943798	-0.1527009238	-0.0378702156	 0.108985
H	 1.3135677509	 0.9704647027	 0.3624569214	 0.115039
H	 1.53090878	-0.5056906767	 1.311547554	 0.11124
H	 0.7423827793	-0.4092301342	-1.6496739286	 0.065266
H	 0.8274586877	-2.7931333086	 0.270491573	 0.097846
H	 0.1687991947	-2.8281528938	-1.3572333928	 0.108903
H	 2.4285404122	-2.1914133899	-2.2671163697	 0.080069
H	 3.0904236967	-2.3299283386	-0.6273838889	 0.085857
H	 3.2299682802	-4.3383886904	-1.7438123937	 0.283479
H	-1.0196798226	-1.022716056	 0.7858481097	 0.07472
H	-2.168975077	 1.1333232213	 0.2387193741	 0.104998
H	-1.0546966706	 1.3741199178	-1.1803361149	 0.103498
H	-2.9083608635	-1.0641081418	-0.7135298183	 0.079866
H	-0.9971525909	-0.3946413658	-3.0564042752	 0.115261
H	-1.8343907506	-1.9406767256	-2.8722839239	 0.118993
H	-2.7547733699	-0.4586566001	-3.1587005453	 0.114893
55.192	73.825	102.1709	127.1426	178.4862	207.4498	238.407	256.4793	269.8458	321.7504	349.9204	375.7851	385.0412	528.4483	546.0166	770.0886	786.0755	808.5998	857.2918	887.5824	919.0506	956.0154	971.5317	1011.8075	1028.4581	1040.1473	1067.4756	1070.8004	1112.2807	1121.3575	1151.787	1170.9303	1192.0604	1199.2459	1235.8968	1244.0508	1255.3685	1298.5751	1316.3723	1343.9331	1365.273	1393.8579	1409.6843	1419.8417	1431.9646	1460.7128	1487.4738	1493.0431	1494.6573	1498.8896	1503.2984	1508.9617	1529.1393	2955.0393	2996.1744	3010.7222	3026.4217	3028.5339	3030.6298	3076.246	3085.5876	3094.2036	3099.8795	3106.152	3110.2878	3118.4751	3133.0077	3202.1998	3829.5139
CC(CCO)C1CC1C	C[C@@H](CCO)[C@H]1C[C@H]1C	
InChI=1S/C8H16O/c1-6(3-4-9)8-5-7(8)2/h6-9H,3-5H2,1-2H3	InChI=1S/C8H16O/c1-6(3-4-9)8-5-7(8)2/h6-9H,3-5H2,1-2H3/t6-,7+,8+/m0/s1
