23
gdb 121919	4.19167	0.66394	0.64075	2.3322	79.88	-0.2559	0.0765	0.3324	1878.1719	0.203086	-462.5606	-462.549423	-462.548479	-462.597524	40.198	
C	-0.1263495263	 1.4659539913	-0.2389168181	-0.387084
C	-0.0419478597	-0.030948976	 0.0044862247	-0.030623
O	-1.3555752926	-0.5598212515	 0.037840461	-0.26612
C	-1.4062886158	-1.9626494735	 0.2312053973	-0.092791
C	-2.8633615293	-2.3813224968	 0.0554098191	 0.100433
O	-3.3646350381	-1.8594140837	-1.1712522199	-0.457096
C	-3.0196364865	-3.9079356904	-0.0237777002	 0.138988
C	-4.4891642739	-4.3327005335	 0.0216477043	-0.404959
O	-2.3753649135	-4.3896845874	-1.1953525883	-0.442893
H	 0.8759594733	 1.9033642397	-0.2654294802	 0.119915
H	-0.6194639803	 1.6745179164	-1.1929005847	 0.124721
H	-0.6971046485	 1.9533962998	 0.5564444726	 0.129555
H	 0.5417882675	-0.5244263848	-0.7896195899	 0.09348
H	 0.4687303099	-0.240261896	 0.9583447341	 0.092636
H	-0.7842987435	-2.4809662224	-0.5128578879	 0.10666
H	-1.0441120432	-2.2334009785	 1.2356038453	 0.091182
H	-3.4512174367	-1.991164003	 0.9011642552	 0.069981
H	-2.9595827625	-0.9874899124	-1.2653387012	 0.293094
H	-2.4846475931	-4.3581175703	 0.8220546367	 0.079683
H	-5.0510023828	-3.8427570232	-0.7791504303	 0.130224
H	-4.5660875446	-5.4150924864	-0.1084325068	 0.119669
H	-4.9495752129	-4.0617194413	 0.9780508761	 0.106841
H	-2.6655000171	-3.7949114462	-1.9004336488	 0.284503
49.4319	71.4851	96.692	116.292	162.6073	224.2319	244.3777	250.4366	289.9295	306.5807	337.0873	431.3392	470.1457	494.5196	505.6887	567.1176	678.3037	819.4077	826.4231	901.3502	915.443	961.4375	1009.5913	1026.3545	1070.3153	1106.5833	1126.0063	1139.5315	1152.5702	1183.3772	1187.9551	1234.2973	1263.086	1297.1885	1311.2016	1343.1519	1371.5646	1383.0232	1399.07	1403.0375	1431.4377	1438.3359	1450.781	1483.9434	1491.3933	1499.1435	1499.4865	1511.659	1535.7245	2965.5015	2978.5264	2983.3078	2994.6682	3030.1452	3034.5876	3038.0545	3045.2417	3109.0873	3119.4345	3122.5092	3126.209	3757.3555	3769.4796
CCOCC(O)C(C)O	CCOC[C@@H](O)[C@@H](C)O	
InChI=1S/C6H14O3/c1-3-9-4-6(8)5(2)7/h5-8H,3-4H2,1-2H3	InChI=1S/C6H14O3/c1-3-9-4-6(8)5(2)7/h5-8H,3-4H2,1-2H3/t5-,6-/m1/s1
