14
gdb 132903	3.17012	1.40631	0.98005	6.2379	68.06	-0.2407	-0.053	0.1877	1110.5938	0.101605	-478.051931	-478.044345	-478.043401	-478.084277	27.995	
C	-0.0121698322	 1.5641217441	-0.0008823919	-0.500236
C	-0.037798475	 0.0633940586	 0.0053855388	 0.072564
C	-1.1576601757	-0.6944385063	-0.1525103476	-0.008236
N	-1.0859767097	-2.0469453011	-0.1345858023	-0.349669
C	 0.1153619979	-2.7794406123	 0.0451554512	 0.450258
O	 0.0867049776	-3.9872914426	 0.0489833587	-0.375993
N	 1.2514253157	-2.0015765952	 0.2053337144	-0.383018
C	 1.1437128476	-0.7221649865	 0.1815819506	 0.313738
F	 2.265476599	-0.025545642	 0.3406498084	-0.057817
H	 0.6288574889	 1.9505961617	-0.800034235	 0.146759
H	-1.0172863929	 1.9682811068	-0.148042199	 0.125844
H	 0.3788271766	 1.9615543327	 0.9414021534	 0.146765
H	-2.1416644484	-0.2626457932	-0.2978062857	 0.145844
H	-1.9140470794	-2.6127206548	-0.2512330738	 0.273199
96.4541	139.0746	219.3999	266.1703	287.3415	389.8528	428.3398	490.8805	548.2611	590.0016	662.5668	743.1802	761.8469	793.5908	795.1992	930.5821	951.3336	1012.495	1071.6141	1144.0708	1195.4602	1248.2152	1334.7048	1414.2182	1428.3821	1466.6082	1476.7496	1502.8876	1594.17	1717.5572	1828.1606	3037.8767	3094.1764	3117.2581	3199.0344	3621.748
CC1=CNC(=O)N=C1F	Cc1c[nH]c(=O)nc1F	
InChI=1S/C5H5FN2O/c1-3-2-7-5(9)8-4(3)6/h2H,1H3,(H,7,8,9)	InChI=1S/C5H5FN2O/c1-3-2-7-5(9)8-4(3)6/h2H,1H3,(H,7,8,9)
