21
gdb 78693	5.07406	1.08196	1.07281	0.2186	88.36	-0.2541	0.0966	0.3507	1237.7616	0.182743	-349.862299	-349.854536	-349.853592	-349.894138	31.823	
C	-0.187568613	 1.610168361	-0.0436988617	-0.418489
C	-0.0466589647	 0.0960231255	-0.0045435436	-0.013694
C	 1.1809870079	-0.575913196	-0.6608594628	-0.036204
C	 2.1235604315	-0.24868403	 0.5579814714	-0.157473
C	 0.7076358568	-0.5726823245	 1.1673080793	-0.036202
C	 1.0943670385	-1.8207713285	 0.2942808986	-0.153683
C	 2.5655262519	-1.7031584242	 0.6749889433	 0.428647
C	 3.7852589125	-2.4213349139	 0.203529647	-0.355463
C	 3.4025541395	-2.418710571	 1.6815540092	-0.355461
H	 0.7552218848	 2.1112703567	 0.1995090136	 0.112499
H	-0.4992331613	 1.9511374197	-1.0374169933	 0.113147
H	-0.942011762	 1.9541537865	 0.6727927192	 0.113147
H	-1.0003835143	-0.3891968106	-0.2506258118	 0.059388
H	 1.4807722238	-0.5977732022	-1.7105095812	 0.065639
H	 2.7097090331	 0.6585868302	 0.7081436732	 0.069128
H	 0.4603318175	-0.5908069087	 2.2306174028	 0.065639
H	 0.4829627749	-2.7112732827	 0.1375495029	 0.065666
H	 3.6656163834	-3.3493463038	-0.3473271859	 0.108564
H	 4.6522631149	-1.8394634218	-0.0943656455	 0.108321
H	 4.0165342254	-1.8351008843	 2.3608480957	 0.108321
H	 3.0298068187	-3.3449863275	 2.1082097095	 0.108563
137.7455	162.5314	211.4195	245.6439	310.1065	312.2725	464.8656	568.5607	577.7052	741.2977	764.1368	774.912	833.031	833.0548	844.7073	863.1443	882.2982	912.3958	957.2967	963.1345	984.116	1005.6137	1038.9376	1049.6589	1050.2573	1073.8145	1099.4833	1108.3223	1125.6439	1143.749	1158.7166	1170.5094	1176.9136	1182.5326	1223.6104	1242.8816	1244.3548	1309.0747	1393.5092	1411.3031	1428.458	1461.6076	1493.8729	1498.5389	1519.2154	3017.1008	3026.7	3087.5951	3088.4516	3090.6228	3096.7962	3101.8395	3112.2434	3116.9811	3121.0196	3193.027	3207.6644
CC1C2C3C1C2C31CC1	C[C@H]1[C@H]2[C@H]3[C@@H]1[C@@H]2C13CC1	
InChI=1S/C9H12/c1-4-5-7-6(4)8(5)9(7)2-3-9/h4-8H,2-3H2,1H3	InChI=1S/C9H12/c1-4-5-7-6(4)8(5)9(7)2-3-9/h4-8H,2-3H2,1H3/t4-,5-,6+,7-,8+
