19
gdb 37419	2.88777	2.07315	1.73364	1.7794	76.26	-0.2401	0.0683	0.3085	868.0185	0.162955	-385.849577	-385.843512	-385.842568	-385.879576	26.818	
C	-0.0662988831	 1.4690038899	 0.0695083911	-0.291385
C	 1.2860604239	 0.8046001781	 0.0079146964	-0.046297
C	 0.0179438947	-0.0349402175	 0.0289515952	-0.044627
C	-0.0862973013	-0.6971580678	-1.3411581486	 0.09449
O	-0.6028429584	 0.1680906997	-2.4003657141	-0.31348
C	 0.6809143105	 0.2336507677	-3.0651395165	 0.114299
C	 1.54998779	 1.415974241	-2.5859535758	-0.257035
C	 1.9919084567	 0.5760568239	-1.3348327524	-0.046724
C	 1.3159699747	-0.677587438	-1.9908170451	-0.100044
H	-0.3471797189	 1.9250287098	 1.0130910162	 0.105205
H	-0.4635427415	 1.9600235969	-0.809807398	 0.133546
H	 1.9110129658	 0.8680352372	 0.8920307221	 0.080054
H	-0.2739237894	-0.6119294976	 0.8991949978	 0.07957
H	-0.6384748022	-1.6416611744	-1.3188924423	 0.0729
H	 0.5951977034	 0.0242526069	-4.1334154808	 0.073741
H	 2.3917187015	 1.5845572976	-3.2650522385	 0.098492
H	 1.0396930107	 2.3663579351	-2.4138627339	 0.107138
H	 3.0734368236	 0.5289083912	-1.2016310457	 0.069835
H	 1.8768764494	-1.5936855297	-2.1658502371	 0.070321
224.8189	264.3973	402.8257	444.0632	512.7544	634.4413	645.6035	694.837	746.9616	787.8226	809.3348	821.2788	874.8777	899.8437	919.0968	927.3822	941.9393	956.6316	981.2663	994.4146	1010.6668	1063.4061	1069.6702	1078.1112	1105.2591	1119.1268	1133.5959	1157.1145	1198.3509	1203.9415	1208.6343	1244.3033	1269.0168	1295.8948	1300.7675	1323.2187	1339.1195	1349.7002	1381.2741	1467.1157	1487.0409	3052.3017	3056.6395	3086.2774	3093.5303	3114.2906	3131.1816	3138.1881	3161.4273	3172.7858	3232.3078
C1C2C1C1OC3CC2C13	C1[C@H]2[C@@H]1[C@H]1O[C@H]3C[C@@H]2[C@@H]13	
InChI=1S/C8H10O/c1-3-4-2-6-7(4)8(9-6)5(1)3/h3-8H,1-2H2	InChI=1S/C8H10O/c1-3-4-2-6-7(4)8(9-6)5(1)3/h3-8H,1-2H2/t3-,4+,5-,6+,7-,8-/m1/s1
