17
gdb 30188	3.73527	1.34737	1.13497	3.6381	74.24	-0.2132	0.0267	0.2399	1071.2102	0.139604	-418.046908	-418.039696	-418.038751	-418.078572	28.58	
O	 0.0672266132	 1.3899144378	 0.0603727318	-0.431125
C	 0.0129357791	-0.0252058054	-0.0267171364	 0.138505
C	-1.4802662525	-0.518050879	-0.1117218323	-0.370038
C	-1.6121439817	-0.6831807487	-1.5883472996	 0.293362
C	-0.423148999	-0.6999647049	-2.2569756059	 0.261614
C	 0.7357284353	-0.5410280845	-1.3172105748	-0.363371
N	-0.6000700002	-0.916465285	-3.6009959224	-0.342801
C	-1.905241891	-1.0288434338	-3.7378771534	-0.016346
N	-2.5752311766	-0.9027545471	-2.5423801838	-0.381114
H	-0.2791075678	 1.7401766401	-0.769051214	 0.281176
H	 0.4953526225	-0.382946424	 0.8857901475	 0.086063
H	-1.624634517	-1.4623860577	 0.4309947773	 0.110672
H	-2.1325166201	 0.2305095906	 0.34937524	 0.113653
H	 1.4957840803	 0.1825496242	-1.6268039115	 0.117355
H	 1.2498281358	-1.4939129519	-1.135607013	 0.110108
H	-2.4311070444	-1.1916180522	-4.6671723354	 0.127361
H	-3.5721909158	-0.9457119285	-2.414813064	 0.264925
86.5769	213.1376	233.644	367.0743	385.2394	388.7251	490.6234	505.4726	636.0791	659.4234	688.6381	717.197	786.6625	792.863	854.0565	885.9849	934.6397	967.1294	1024.2389	1062.9896	1076.5899	1108.3025	1161.5219	1168.5939	1221.2482	1251.9682	1261.845	1307.3545	1319.3713	1371.7725	1379.5474	1431.1023	1457.026	1480.0444	1490.3074	1518.8489	1615.5707	3010.24	3022.3078	3071.6244	3081.8704	3089.9967	3248.5094	3667.0477	3785.9395
OC1CC2=C(C1)N=CN2	O[C@H]1Cc2c(C1)nc[nH]2	
InChI=1S/C6H8N2O/c9-4-1-5-6(2-4)8-3-7-5/h3-4,9H,1-2H2,(H,7,8)	InChI=1S/C6H8N2O/c9-4-1-5-6(2-4)8-3-7-5/h3-4,9H,1-2H2,(H,7,8)
