20
gdb 65673	4.04615	0.96643	0.94049	3.6085	79.64	-0.2295	-0.0179	0.2116	1321.2444	0.169598	-403.112416	-403.103396	-403.102452	-403.14663	33.546	
C	-0.1418901651	 1.6714467838	-0.3228959476	-0.478154
C	-0.0813697781	 0.1598794807	-0.2174894583	 0.308084
C	-1.3127737997	-0.4523535702	 0.4450718958	-0.334798
C	-1.42743332	-0.0517327898	 1.9026608046	 0.159631
O	-2.426731131	 0.3794995282	 2.419232324	-0.246997
C	 0.5991206168	-0.7130551752	-1.202875938	-0.069452
C	 1.8553263323	-0.0891495994	-1.805954025	-0.268626
C	 2.3422141862	 0.1134538012	-0.3500151848	-0.157929
N	 1.1325553837	-0.5786164888	 0.2232360615	-0.177223
H	 0.6825994298	 2.1007531679	-0.8932572669	 0.126028
H	-1.0729936448	 1.9675413823	-0.817000589	 0.131015
H	-0.1398019884	 2.1326313584	 0.6713595519	 0.133967
H	-2.2341534682	-0.1736097846	-0.0750227028	 0.115542
H	-1.2148375276	-1.5454254761	 0.4224816004	 0.127195
H	-0.4894271719	-0.1968513177	 2.4818947377	 0.094276
H	 0.1407810487	-1.6343541144	-1.5529046312	 0.090759
H	 2.4612700749	-0.813868111	-2.3521079177	 0.116248
H	 1.7154944396	 0.7924000258	-2.4385124472	 0.106797
H	 3.2336540697	-0.4660248922	-0.1035551468	 0.115827
H	 2.483756703	 1.138621571	 0.0037068893	 0.107809
61.9932	72.8325	156.4838	171.5914	261.2847	285.9658	326.4316	352.1057	425.5509	471.3188	555.5697	656.1052	744.9113	787.8407	801.3981	832.8814	879.5475	951.3193	964.1691	976.9279	992.2187	1036.1266	1058.8086	1070.7578	1102.5326	1121.8386	1152.0668	1208.892	1215.1297	1224.3396	1268.0255	1293.3503	1312.3358	1326.0477	1413.674	1419.587	1421.01	1448.8364	1480.9807	1496.5279	1504.9286	1515.188	1830.2197	2900.6779	3030.6102	3038.6221	3056.1036	3063.1616	3094.4992	3099.4035	3107.2579	3124.4126	3137.223	3143.0948
CC1(CC=O)C2CCN12	C[C@@]1(CC=O)[C@H]2CCN12	
InChI=1S/C7H11NO/c1-7(3-5-9)6-2-4-8(6)7/h5-6H,2-4H2,1H3	InChI=1S/C7H11NO/c1-7(3-5-9)6-2-4-8(6)7/h5-6H,2-4H2,1H3/t6-,7-,8?/m1/s1
