21
gdb 101360	3.09619	1.03908	0.87377	1.8031	77.82	-0.2549	0.074	0.3288	1371.3973	0.18141	-424.181444	-424.172137	-424.171193	-424.215772	34.945	
C	 0.0789174494	 1.4878371771	-0.1133654631	-0.395825
C	 0.0449426966	-0.0326286173	 0.0816342451	-0.008855
C	 0.7219907828	-0.4319501345	 1.401505523	-0.06566
O	 2.0770576752	-0.0150732341	 1.4852954531	-0.419761
C	-1.3790974497	-0.585494947	 0.017911117	-0.012657
C	-2.1644666767	-0.502534148	-1.3483385717	-0.28459
C	-2.290876226	-2.029915463	-1.315322773	 0.032191
O	-0.9616546501	-2.5656626873	-1.2724345749	-0.246392
C	-1.554250671	-2.1180982281	-0.0461646304	 0.0063
H	 1.1014955645	 1.8598277498	-0.0132600689	 0.126752
H	-0.3011524316	 1.7776156537	-1.0976548072	 0.110532
H	-0.5339487436	 1.9921934543	 0.6439133241	 0.108021
H	 0.6091077207	-0.507142117	-0.7343926817	 0.077473
H	 0.2142899097	 0.0548671679	 2.2434367777	 0.104014
H	 0.6366730932	-1.5190875682	 1.5537190564	 0.088154
H	 2.5658515719	-0.4777197114	 0.7968062481	 0.282165
H	-1.9887264087	-0.1630983034	 0.8254925136	 0.074609
H	-3.1194748597	 0.0192219028	-1.2548831967	 0.10703
H	-1.6150821285	-0.1078450485	-2.2068172693	 0.110384
H	-3.0642538888	-2.6660004054	-1.7297385557	 0.104763
H	-1.6190221095	-2.8395738424	 0.7605581047	 0.101352
70.4061	97.7836	152.549	165.219	232.623	265.4598	309.0931	363.9562	374.2717	400.2555	481.0478	604.4543	736.0382	805.9489	841.6823	862.0039	888.6083	904.2138	925.7189	936.3365	975.7416	1000.6902	1020.5724	1048.9023	1068.9978	1114.2779	1130.1278	1132.367	1185.3403	1215.1997	1233.9681	1240.2101	1243.1269	1279.0706	1287.2747	1360.0208	1376.1386	1392.0513	1400.2748	1408.0206	1423.1971	1473.9369	1492.5135	1504.6031	1506.3013	2982.108	3004.2957	3029.1138	3039.9321	3056.3656	3065.9576	3095.1409	3122.3709	3123.3015	3175.3477	3192.7125	3812.6751
CC(CO)C1CC2OC12	C[C@@H](CO)[C@H]1C[C@H]2O[C@@H]12	
InChI=1S/C7H12O2/c1-4(3-8)5-2-6-7(5)9-6/h4-8H,2-3H2,1H3	InChI=1S/C7H12O2/c1-4(3-8)5-2-6-7(5)9-6/h4-8H,2-3H2,1H3/t4-,5+,6+,7-/m0/s1
