18
gdb 119552	2.7553	1.34664	1.02816	2.9241	73.24	-0.2405	-0.0198	0.2207	1181.9582	0.14624	-439.038936	-439.029996	-439.029051	-439.073591	32.144	
C	-0.3473300299	 0.6915260995	-0.2934929117	-0.246527
O	-0.0544623969	 0.4720106249	 1.0755795341	-0.224135
C	 1.0708429792	-0.3526150847	 1.2861421322	-0.231005
C	 0.8012583928	-1.8147953284	 1.0610851602	 0.209438
N	-0.2329505263	-2.5483963593	 1.8744371044	-0.350151
C	 1.1459575111	-3.0331302205	 1.8892560696	-0.115509
C	 1.2760517165	-3.9347824406	 0.6534843056	-0.34226
C	 0.9655702954	-2.6616770928	-0.1862540202	 0.405201
O	 1.0288695128	-2.4025542437	-1.3530615228	-0.314655
H	-0.5192468116	-0.2443592951	-0.8401457943	 0.138205
H	-1.2514060535	 1.3032641355	-0.3291665213	 0.127046
H	 0.4714214083	 1.2324907868	-0.7921260791	 0.107302
H	 1.9136757302	-0.0364431218	 0.650941181	 0.105562
H	 1.3642763358	-0.2019834075	 2.3323258634	 0.106765
H	-0.3901873801	-1.9644821104	 2.6975677315	 0.243188
H	 1.7441065779	-3.0591371583	 2.7909827322	 0.113121
H	 2.2903439686	-4.2885566833	 0.4481986253	 0.131533
H	 0.5649591797	-4.7604849801	 0.5898944801	 0.13688
36.6588	98.0808	124.0649	155.9057	219.7387	242.9313	342.6376	435.1787	448.6352	523.8739	558.9458	651.8427	732.1833	771.9579	864.153	902.3967	919.8254	952.7425	996.9529	1017.3039	1033.7067	1062.1209	1097.9009	1132.9064	1165.3185	1180.314	1206.6559	1219.1913	1275.665	1307.3282	1361.1288	1383.509	1413.9612	1444.7452	1471.2209	1484.3046	1493.3675	1507.952	1885.8679	2979.652	2989.8301	3052.5571	3056.072	3070.3789	3124.4436	3133.6456	3204.666	3457.5855
COCC12NC1CC2=O	COC[C@]12N[C@H]1CC2=O	
InChI=1S/C6H9NO2/c1-9-3-6-4(7-6)2-5(6)8/h4,7H,2-3H2,1H3	InChI=1S/C6H9NO2/c1-9-3-6-4(7-6)2-5(6)8/h4,7H,2-3H2,1H3/t4-,6-/m0/s1
