20
gdb 93904	2.68948	1.46195	1.16895	2.1196	73.3	-0.2534	0.0583	0.3118	1102.7416	0.173714	-440.272157	-440.264097	-440.263153	-440.30454	32.524	
O	 0.0979280276	 1.3978326896	-0.1198398226	-0.444081
C	 0.0439556023	-0.0135200321	 0.0125657461	 0.135607
C	 0.829721674	-0.495154065	 1.2443183333	-0.225923
C	 0.0616504455	-0.2353084671	 2.5449608637	-0.242415
C	-1.2265141282	-1.0660111644	 2.6049586819	 0.144554
O	-2.0368223988	-0.7274717735	 3.7227452349	-0.442386
C	-2.0283796737	-0.9697366095	 1.3207691928	-0.048802
N	-2.2945574241	 0.4057333822	 0.8511292042	-0.361513
C	-1.4166618691	-0.4815316136	 0.0567037807	-0.075649
H	-0.6771574811	 1.7273125718	 0.3568880817	 0.289214
H	 0.5138085554	-0.4250260324	-0.8880613582	 0.077108
H	 1.031512399	-1.5704242891	 1.1414099591	 0.088692
H	 1.7966695324	 0.016664094	 1.2531581801	 0.107023
H	 0.6716725011	-0.4697013035	 3.4219980482	 0.102655
H	-0.1942441726	 0.8289007863	 2.6115819683	 0.100627
H	-0.9623168297	-2.1203809232	 2.7560544078	 0.088936
H	-2.3451679842	 0.1740240336	 3.5706154697	 0.282079
H	-2.8501362089	-1.678908337	 1.2474314609	 0.091193
H	-3.2146320188	 0.4713708591	 0.4270529424	 0.240927
H	-1.8260969383	-0.8615568661	-0.8754146749	 0.092154
79.685	181.2466	241.9674	304.106	343.5887	364.9671	395.8613	440.4354	482.8505	500.7779	588.3517	620.6155	713.4761	759.7783	797.7161	879.1666	897.592	915.435	929.8209	969.1836	1000.6759	1059.3002	1072.132	1083.8782	1095.2253	1137.35	1165.7644	1167.8084	1202.1512	1229.6522	1265.61	1286.4999	1313.1344	1344.7809	1349.2411	1379.1331	1381.7985	1389.704	1430.7005	1444.9757	1451.8974	1477.6507	1494.602	3014.7758	3032.1735	3040.8362	3043.4568	3086.2183	3091.1481	3129.8535	3144.29	3521.262	3729.985	3787.515
OC1CCC(O)C2NC12	O[C@H]1CC[C@@H](O)[C@H]2N[C@@H]12	
InChI=1S/C6H11NO2/c8-3-1-2-4(9)6-5(3)7-6/h3-9H,1-2H2	InChI=1S/C6H11NO2/c8-3-1-2-4(9)6-5(3)7-6/h3-9H,1-2H2/t3-,4+,5-,6+
