17
gdb 133819	2.79714	1.73845	1.15764	2.4988	79.82	-0.2163	-0.0311	0.1852	1036.0292	0.137415	-384.728977	-384.721804	-384.72086	-384.760968	28.158	
C	 1.5816055043	-0.7907517023	 0.1046195185	-0.333061
C	 1.8025307643	 0.5861580348	-0.5891625056	-0.308897
C	 0.5393771517	 1.4348928363	-0.3220095063	 0.376824
O	 0.3400714494	 2.538225289	-0.7495267905	-0.30206
C	-1.8832040527	 0.505119022	 0.4004988863	-0.138327
C	-2.1805099796	-0.7889751971	 0.1617899525	-0.071142
C	-0.9463903235	-1.5896299328	 0.0853023515	-0.246169
C	 0.1014420559	-0.7878312491	 0.3472009532	 0.276801
C	-0.3973425048	 0.6091463527	 0.5835314237	-0.199134
H	 2.1453601385	-0.8329922328	 1.0453712298	 0.11503
H	 1.9166817727	-1.6309698759	-0.5085248552	 0.116328
H	 1.891277028	 0.4799435331	-1.6759840353	 0.143458
H	 2.6967066058	 1.1209763151	-0.2545573028	 0.131598
H	-2.5742526543	 1.3256288756	 0.5304110061	 0.110736
H	-3.1745040156	-1.1955862947	 0.0182935465	 0.100228
H	-0.9105020535	-2.6320561251	-0.2068786835	 0.098096
H	-0.1701471567	 0.9572419512	 1.6070659312	 0.129689
67.13	128.9606	245.7575	309.9347	465.6132	486.949	548.0447	590.6108	638.1091	643.5082	716.2886	748.6326	838.6307	861.0113	870.6324	927.3056	948.112	962.8779	982.6413	988.2111	1015.5613	1068.3896	1115.694	1140.5854	1147.8718	1197.238	1217.703	1242.5691	1270.4165	1303.6286	1322.3597	1376.0696	1446.4931	1493.2574	1570.8851	1675.262	1852.1228	2971.1316	3022.2826	3053.7237	3089.2585	3101.4756	3199.4673	3212.7943	3243.0016
C1CC23OC4C2C=C1C34	C1CC(=O)[C@H]2[CH]C=C[C]12	
InChI=1S/C8H8O/c1-2-8-5-3-4(1)6(8)7(5)9-8/h3,5-7H,1-2H2	InChI=1S/C8H8O/c9-8-5-4-6-2-1-3-7(6)8/h1-3,7H,4-5H2/t7-/m0/s1
