19
gdb 66770	2.39588	2.21786	1.76016	1.6479	76.87	-0.233	0.093	0.3261	890.051	0.16127	-385.849882	-385.843024	-385.84208	-385.880689	28.577	
C	-0.022117047	 1.5319541343	 0.012846237	-0.531575
C	 0.0254037537	 0.0310902554	-0.0455814325	 0.321557
C	 0.6109921502	-0.8885538977	-1.1818025225	-0.178643
C	-0.4355518448	-1.8936496894	-0.7766944541	-0.07218
C	 0.9374061758	-1.8848968543	-0.0908357501	-0.100266
C	 0.7697064156	-0.8351567689	 1.0127117187	 0.083407
O	-0.1175987548	-1.1546264651	 2.0677817605	-0.284469
C	-1.4378429852	-1.2330121836	 1.4976317041	-0.091561
C	-1.2552203191	-0.8696815397	 0.0220699291	-0.110123
H	 0.9809804668	 1.9665324761	-0.0627145219	 0.119617
H	-0.6276657374	 1.9481173993	-0.8000118258	 0.118059
H	-0.458445233	 1.8672437987	 0.9609776959	 0.127406
H	 1.0912643435	-0.6828754265	-2.1262247907	 0.092225
H	-0.7881105696	-2.7605221001	-1.3204783777	 0.08539
H	 1.60139186	-2.7384311719	-0.1285831308	 0.085375
H	 1.6935060878	-0.4318087087	 1.4310028208	 0.074804
H	-1.8394326347	-2.2465517723	 1.6272897813	 0.098258
H	-2.0957113902	-0.5339230786	 2.0314076494	 0.095054
H	-2.1416137176	-0.4854741868	-0.485386211	 0.067665
196.0511	209.4354	222.3591	272.0969	408.6606	500.2281	601.4489	667.9704	684.0817	767.1535	805.1367	806.6579	825.9377	859.081	883.0321	913.8408	931.3013	950.6662	972.3721	987.0812	1011.913	1033.5548	1046.1404	1081.7343	1085.9883	1141.1907	1150.8547	1162.8278	1181.9519	1195.9214	1226.307	1265.6566	1305.9427	1330.9788	1355.8798	1358.3174	1395.418	1412.0217	1486.9466	1493.9217	1522.4029	3003.8867	3021.9791	3038.2164	3087.5487	3089.0061	3101.9595	3106.5924	3193.4139	3202.3092	3234.1462
CC12C3C4C3C1OCC24	C[C@@]12[C@@H]3[C@H]4[C@@H]3[C@@H]1OC[C@@H]24	
InChI=1S/C8H10O/c1-8-3-2-9-7(8)5-4(3)6(5)8/h3-7H,2H2,1H3	InChI=1S/C8H10O/c1-8-3-2-9-7(8)5-4(3)6(5)8/h3-7H,2H2,1H3/t3-,4-,5+,6-,7+,8-/m1/s1
