19
gdb 36875	4.91492	0.93254	0.84661	1.6295	77.68	-0.2136	0.0608	0.2744	1406.1236	0.16103	-419.204036	-419.195699	-419.194755	-419.238039	31.036	
C	-0.2795709349	 1.1633497142	-0.0087038887	-0.277328
C	 1.2031407375	 0.994039664	 0.2710454885	-0.300945
C	 0.3504655068	-0.1948350823	-0.0202235903	 0.163378
O	 0.1161525245	-1.048612303	 1.083848686	-0.27526
C	-0.85192722	-1.9585406869	 0.914670731	 0.477709
N	-1.5568676793	-2.1414020197	-0.1333523053	-0.361003
C	-2.4340900159	-3.2782538769	 0.1854509883	-0.153819
C	-2.3258326037	-3.4776708627	 1.725800682	-0.180975
N	-1.047429834	-2.8081744948	 1.9970406947	-0.364281
H	-0.9164979646	 1.4034478194	 0.8347504085	 0.12016
H	-0.595679787	 1.5874279415	-0.9548787113	 0.121936
H	 1.9221096142	 1.3052400514	-0.4780901529	 0.119505
H	 1.5308886584	 1.1210665144	 1.2965129931	 0.124494
H	 0.4428877954	-0.7315312443	-0.9565331697	 0.122922
H	-3.4612179831	-3.0845446764	-0.1370164693	 0.10604
H	-2.0886458917	-4.173401785	-0.3492247659	 0.105909
H	-3.1576585954	-2.9889831433	 2.2526564935	 0.10017
H	-2.3001320857	-4.5289688446	 2.024108653	 0.110477
H	-0.8957584114	-2.409662585	 2.9127400947	 0.240911
40.9172	80.2847	152.8995	184.0682	260.0911	348.9872	388.7633	476.6883	550.0397	704.4142	726.6002	756.0561	762.8602	823.3339	841.2967	871.7549	918.63	972.0016	982.4869	1006.252	1055.7008	1059.9203	1071.973	1099.0695	1114.84	1117.547	1180.2572	1189.9607	1209.5741	1238.4066	1241.0352	1302.3771	1314.6625	1354.3248	1392.0464	1454.9935	1475.8463	1500.8977	1506.9679	1532.6929	1717.3026	2998.8163	3012.7658	3073.5216	3086.6461	3140.4951	3143.6113	3189.2242	3223.4807	3237.6963	3598.8625
C1CC1OC1=NCCN1	C1CC1O[C]1[N]CCN1	
InChI=1S/C6H10N2O/c1-2-5(1)9-6-7-3-4-8-6/h5H,1-4H2,(H,7,8)	InChI=1S/C6H10N2O/c1-2-5(1)9-6-7-3-4-8-6/h5H,1-4H2,(H,7,8)
