20
gdb 59818	6.01927	0.53307	0.51743	2.6937	88.72	-0.2525	0.0142	0.2667	2164.6248	0.166389	-403.109166	-403.099138	-403.098194	-403.144659	36.056	
N	-0.2079779091	 0.	-0.0306452425	-0.20651
C	-0.0374625526	 0.	 1.4170875829	 0.056895
H	 1.0346826466	 0.	 1.6880999973	 0.054084
C	-0.6799056463	-1.2669841291	 1.993842944	-0.367789
C	-0.6799056463	 1.2669841291	 1.993842944	-0.367789
H	-1.742524614	-1.3037626712	 1.7350711744	 0.126979
H	-1.742524614	 1.3037626712	 1.7350711744	 0.126979
H	-0.5848033537	-1.2861612618	 3.0843253642	 0.107709
H	-0.5848033537	 1.2861612618	 3.0843253642	 0.107709
H	-0.2028017703	-2.1647771434	 1.5898679345	 0.1112
H	-0.2028017703	 2.1647771434	 1.5898679345	 0.1112
C	 0.825439777	 0.	-0.7434812056	 0.134115
H	 1.8574787064	 0.	-0.3565141309	 0.073987
O	 0.7320720464	 0.	-2.0929356445	-0.207296
C	 1.9852232068	 0.	-2.7828158766	-0.228519
H	 2.5715046216	-0.8865107002	-2.5012402397	 0.138747
H	 2.5715046216	 0.8865107002	-2.5012402397	 0.138747
C	 1.7469538243	 0.	-4.2167792133	 0.286092
C	 1.5859949416	 0.	-5.4060708661	-0.404572
H	 1.4341804307	 0.	-6.4573285687	 0.208031
-10.1467	53.0867	91.9061	109.0657	189.5005	214.3025	239.4562	250.9167	299.5282	322.406	365.157	434.3783	464.1659	546.7204	618.7212	618.8294	686.6803	852.7707	929.7347	953.8093	954.4058	982.454	1001.253	1025.0884	1059.7273	1134.9571	1171.6938	1183.7565	1236.0267	1255.7431	1353.8231	1361.7147	1393.9317	1396.1787	1413.6761	1432.2969	1480.6902	1487.294	1493.9275	1495.9912	1510.5878	1774.7024	2253.0994	2920.3142	2977.4249	2996.3722	3024.7043	3033.6777	3038.0135	3106.8488	3110.5312	3112.202	3116.5025	3505.4729
CC(C)N=COCC#C	N(=COCC#C)C(C)C	
InChI=1S/C7H11NO/c1-4-5-9-6-8-7(2)3/h1,6-7H,5H2,2-3H3	InChI=1S/C7H11NO/c1-4-5-9-6-8-7(2)3/h1,6-7H,5H2,2-3H3
