18
gdb 19138	3.31588	1.62943	1.31987	2.7752	72.63	-0.2488	-0.0233	0.2256	984.6599	0.152988	-347.787226	-347.779269	-347.778325	-347.819699	29.881	
O	-0.1204599782	 0.1725211975	 0.7749421479	-0.27786
C	 0.08196425	 1.0179517727	-0.0669147346	 0.07138
C	 1.2737084966	 1.9087558847	-0.0900497346	 0.268935
C	 1.8150540803	 2.2680583206	 1.2958256721	-0.287182
C	 2.54610122	 1.2688042217	 0.4704158349	-0.287198
C	 1.4159855056	 2.9224729275	-1.1911642568	-0.071884
C	 0.9813258982	 2.6544472494	-2.6121361682	-0.278875
C	 0.239903437	 3.6685794561	-1.7743340788	-0.278859
H	-0.6479158819	 1.1651752078	-0.8916152071	 0.075424
H	 2.2297905647	 3.2638621531	 1.4063397895	 0.119303
H	 1.2407091431	 1.900444241	 2.1382461667	 0.139235
H	 2.4655582811	 0.2261881697	 0.7552875998	 0.139268
H	 3.4779596352	 1.5578053127	-0.0028311961	 0.119302
H	 2.3268955475	 3.5074026256	-1.0930609698	 0.08268
H	 1.6144378447	 3.0120600092	-3.416594582	 0.115753
H	 0.4858633823	 1.7140920068	-2.830028242	 0.117419
H	-0.7555858113	 3.4121858169	-1.4272204702	 0.117407
H	 0.3653101753	 4.720678527	-2.0050569406	 0.115752
77.1303	113.7199	190.3864	230.2126	272.5801	317.2391	373.8796	480.4173	571.6415	719.8282	787.7366	794.6559	798.8879	836.1067	866.0118	912.8286	955.7801	986.9416	1008.6312	1051.839	1059.9204	1065.7419	1079.6361	1084.4067	1096.1688	1139.3644	1197.6563	1205.3001	1221.8194	1270.2309	1330.5156	1422.9603	1450.5289	1451.165	1473.0191	1481.7399	1511.6469	1799.4907	2896.8857	3131.4153	3131.4972	3135.2406	3136.9415	3139.1915	3207.8521	3221.7213	3225.7481	3239.8757
O=CC1(CC1)C1CC1	O=CC1(CC1)C1CC1	
InChI=1S/C7H10O/c8-5-7(3-4-7)6-1-2-6/h5-6H,1-4H2	InChI=1S/C7H10O/c8-5-7(3-4-7)6-1-2-6/h5-6H,1-4H2
