18
gdb 65309	2.52881	1.45673	1.11157	2.1984	73.4	-0.2523	-0.0446	0.2077	1125.4706	0.145791	-439.047957	-439.039031	-439.038087	-439.081731	32.298	
C	 0.2217597533	 1.6377023157	-0.1092132347	-0.479594
C	-0.0300801854	 0.1548641088	 0.0325294744	 0.149815
N	 1.1106925157	-0.7574345168	-0.2223201486	-0.399486
C	 0.6166054688	-0.6565062252	 1.1221495796	 0.261233
C	 1.4015355763	-0.1944167578	 2.3455416422	-0.134128
O	 0.7399444514	-1.1900269877	 3.1550672247	-0.275028
C	 0.0259115021	-1.7375772021	 2.0231354979	-0.145437
C	-1.3658207679	-0.3549725008	-0.3926198185	 0.10512
O	-1.5995404575	-1.5242683856	-0.5993338492	-0.276834
H	 1.1976904345	 1.9030460363	 0.3020856339	 0.140351
H	 0.2111638863	 1.9386043846	-1.1619944565	 0.13483
H	-0.5432558435	 2.2174800216	 0.4188746827	 0.126141
H	 0.740134459	-1.6074538136	-0.6529967429	 0.247192
H	 2.4838918375	-0.3600311104	 2.2747517191	 0.116401
H	 1.2091042165	 0.8246089579	 2.7028584752	 0.10766
H	-1.0593772191	-1.7323413591	 2.1684373264	 0.118102
H	 0.3511128633	-2.7581070995	 1.7831313922	 0.114036
H	-2.1562160215	 0.4176985635	-0.5052891378	 0.089624
100.5439	109.8394	147.0327	169.4478	197.4736	240.6415	288.7407	377.0096	441.9359	445.2859	544.9363	628.5641	749.4411	808.466	880.2114	936.4758	948.4822	992.4276	993.4794	1024.1596	1034.8479	1098.6235	1106.9833	1134.7698	1145.7319	1162.5547	1169.4684	1251.3808	1298.79	1319.9116	1347.9454	1415.42	1421.427	1470.929	1486.5341	1496.4898	1501.852	1526.7376	1793.452	2906.9097	3011.5494	3022.7923	3037.511	3060.9138	3073.5136	3099.8171	3131.2602	3442.3039
CC1(NC11COC1)C=O	C[C@]1(NC21COC2)C=O	
InChI=1S/C6H9NO2/c1-5(2-8)6(7-5)3-9-4-6/h2,7H,3-4H2,1H3	InChI=1S/C6H9NO2/c1-5(2-8)6(7-5)3-9-4-6/h2,7H,3-4H2,1H3/t5-/m0/s1
