15
gdb 22014	2.44902	1.59617	0.97211	2.2074	76.08	-0.2137	-0.0503	0.1635	1137.2906	0.112023	-453.882602	-453.87455	-453.873605	-453.915166	30.104	
C	 0.0777266181	 1.4859563995	 0.0772726482	-0.483498
C	 0.0023458621	-0.0098511342	 0.0431298162	 0.153093
C	-0.1111020093	-0.705790999	-1.1001244508	 0.022609
O	-0.1841396118	-2.0575680494	-1.2023208061	-0.24852
N	-0.1423896433	-2.8395180521	-0.0532432098	-0.074789
C	-0.0343152374	-2.2273993479	 1.0718096832	-0.014881
C	 0.0498391542	-0.7835214446	 1.2689491741	 0.259783
N	 0.1584132011	-0.1842448135	 2.4096905358	-0.242792
O	 0.1875749417	-1.1006833108	 3.4724636027	-0.392952
H	 1.0073230347	 1.813243507	 0.5549884819	 0.145162
H	 0.0278293269	 1.90929242	-0.928951015	 0.119748
H	-0.7401608453	 1.8984789297	 0.6775594697	 0.145175
H	-0.1577337137	-0.2566206269	-2.0855084384	 0.13894
H	-0.006686292	-2.8862419923	 1.9314161465	 0.161817
H	 0.2690267942	-0.5215918555	 4.237055092	 0.311104
103.8688	180.1923	209.231	213.7876	294.0543	308.1073	379.6526	468.5588	485.8318	505.028	541.9332	629.0141	734.7974	788.4478	858.1311	865.0029	886.4955	959.3521	999.0591	1023.9714	1066.2536	1144.9718	1181.8212	1299.1402	1338.0219	1361.068	1417.3047	1465.0574	1466.6161	1491.0289	1632.1392	1658.2732	1708.8116	3036.8633	3092.3032	3123.4933	3208.0492	3218.9955	3827.8298
CC1=CON=CC1=NO	Cc1concc1=NO	
InChI=1S/C5H6N2O2/c1-4-3-9-6-2-5(4)7-8/h2-3,8H,1H3	InChI=1S/C5H6N2O2/c1-4-3-9-6-2-5(4)7-8/h2-3,8H,1H3
