18
gdb 124734	2.53857	1.53191	0.98895	1.4064	74.83	-0.1968	0.0272	0.2239	1174.8725	0.149968	-435.284802	-435.276295	-435.275351	-435.317795	32.765	
C	 0.8271058535	 1.5461056635	-0.4310809912	-0.381242
C	 0.0038482472	 0.4326218114	 0.2224179802	-0.08836
N	-0.4102187679	-0.6457311711	-0.7116038628	-0.530553
H	 0.4088431753	-0.9915278523	-1.2073489807	 0.237898
H	-0.7852351201	-2.0328236855	 0.5949393679	 0.297278
H	-1.0381959372	-0.2706345543	-1.4164014239	 0.236012
C	 0.7081899233	-0.2198712823	 1.3812551275	 0.244271
N	 1.6784039629	 0.3771889388	 2.0756092595	-0.30691
N	 1.9999625635	-0.501781783	 3.0340365014	-0.188565
C	 1.2780006123	-1.658433478	 2.9790764112	-0.13608
C	 0.4190930179	-1.5068872135	 1.9101621059	 0.207495
O	-0.5013591418	-2.3910450789	 1.4622966291	-0.451556
H	 1.7578123574	 1.1449553729	-0.8459393557	 0.115724
H	 0.2584161671	 2.0187073213	-1.2389867303	 0.097425
H	 1.0965683771	 2.3093888269	 0.3028435429	 0.142653
H	-0.9364215985	 0.8689719072	 0.5900059309	 0.102254
H	 2.7257502448	-0.2654609526	 3.6872744944	 0.271122
H	 1.4214083131	-2.4673981506	 3.6755288538	 0.131133
69.3526	174.9983	211.309	240.5453	311.1724	318.3038	347.3332	404.8282	429.5716	479.7649	528.5083	633.5469	658.3859	715.6815	736.5819	764.9119	769.5298	888.389	946.4955	949.2778	1012.7779	1066.4986	1081.5235	1121.2925	1179.1659	1206.3632	1243.1407	1305.1235	1334.4646	1380.2746	1403.6737	1405.779	1463.3673	1477.2084	1484.6937	1498.1743	1539.2553	1647.5366	1655.5528	2997.4424	3034.1091	3102.7838	3127.3438	3275.0775	3474.3726	3486.2615	3560.3156	3686.2746
CC([NH3+])C1=NNC=C1[O-]	C[C@@H](N)c1n[nH]cc1O	
InChI=1S/C5H9N3O/c1-3(6)5-4(9)2-7-8-5/h2-3,9H,6H2,1H3,(H,7,8)	InChI=1S/C5H9N3O/c1-3(6)5-4(9)2-7-8-5/h2-3,9H,6H2,1H3,(H,7,8)/t3-/m1/s1
