18
gdb 95332	3.43949	1.39401	1.06854	2.1197	73.33	-0.2529	0.0102	0.2631	1128.2734	0.148698	-439.068183	-439.060361	-439.059417	-439.100543	29.875	
C	-0.6235387983	 1.3197777185	 0.0482037596	-0.393211
C	 0.1973402268	 0.0352648919	-0.0116678482	 0.017657
C	 1.0529697786	-0.0172591913	-1.296538601	-0.068391
O	 1.8488106966	-1.2098416365	-1.4338641114	-0.282436
C	 2.1810661903	-1.813527233	-0.2134639428	-0.012149
C	 3.6245943911	-1.8464409958	 0.3707026253	-0.132917
O	 3.1169885797	-1.2294689153	 1.611580031	-0.270885
C	 1.9369593876	-0.9413320351	 0.9765905893	 0.410009
N	 1.093664121	-0.0336061082	 1.1722649807	-0.31844
H	 0.0325883415	 2.1957010979	 0.0369743606	 0.125617
H	-1.3158962517	 1.3886104781	-0.7968839559	 0.110467
H	-1.2002096233	 1.3474065421	 0.9759538469	 0.131247
H	-0.487306398	-0.8258783977	-0.0139523419	 0.088819
H	 0.4155667421	 0.0125414411	-2.1850800592	 0.113633
H	 1.7085298112	 0.8655602031	-1.3092296427	 0.10455
H	 1.7145211631	-2.8037497173	-0.1460922365	 0.113783
H	 4.0695860817	-2.8230079765	 0.5666680502	 0.127122
H	 4.3263466101	-1.175223756	-0.1294669241	 0.135525
90.8847	171.1466	205.5815	235.0041	284.6033	358.2459	410.22	474.3438	512.83	528.5911	699.8774	735.8877	812.7255	881.5376	912.4129	933.0493	948.5429	986.632	1006.4936	1054.2903	1114.556	1122.7659	1142.0244	1147.5064	1177.3919	1203.805	1232.3983	1264.1695	1321.7708	1336.2518	1357.6877	1370.928	1409.1268	1415.0402	1485.5761	1497.1214	1502.6716	1504.7655	1811.1096	2990.6862	3005.1077	3032.3648	3040.8769	3072.6625	3085.7187	3112.5469	3125.2654	3145.9415
CC1COC2COC2=N1	C[C@H]1CO[C@H]2CO[C]2[N]1	
InChI=1S/C6H9NO2/c1-4-2-8-5-3-9-6(5)7-4/h4-5H,2-3H2,1H3	InChI=1S/C6H9NO2/c1-4-2-8-5-3-9-6(5)7-4/h4-5H,2-3H2,1H3/t4-,5-/m0/s1
