25
gdb 118757	2.87068	0.91586	0.81105	0.9946	90.2	-0.2397	0.0843	0.324	1600.7225	0.226662	-389.490456	-389.479771	-389.478827	-389.526149	40.151	
C	 0.4106376434	 1.5418120181	-0.4846990789	-0.380602
C	 0.2968853009	 0.0453529101	-0.2387656009	-0.053687
O	-1.062266521	-0.3207515243	-0.3904741183	-0.297928
C	-1.4077950945	-1.630014029	 0.0234066491	 0.441521
C	-0.7323681396	-2.7052307643	-0.8276594879	-0.449037
C	-1.3386647572	-1.9125687661	 1.5592865137	-0.288705
C	-2.7826161329	-2.4865653647	 1.4850473615	 0.051831
C	-3.7608007122	-2.1356833099	 2.5958324887	-0.405369
C	-2.9458501475	-1.7902963359	 0.1043841797	-0.287252
H	 1.4513743208	 1.8677776587	-0.394118924	 0.110461
H	 0.0549150106	 1.7913893034	-1.4885658827	 0.125327
H	-0.1938991884	 2.0969912468	 0.2382278552	 0.122129
H	 0.9355177192	-0.5021449882	-0.9488439712	 0.087699
H	 0.6512377327	-0.2037283457	 0.7743023121	 0.086816
H	 0.3527881766	-2.7172797355	-0.6845285847	 0.114298
H	-1.1078010668	-3.6983329538	-0.5620898547	 0.116127
H	-0.9405254916	-2.5321545906	-1.8885767738	 0.119458
H	-0.5452436672	-2.5684404459	 1.9279492919	 0.088581
H	-1.3160572499	-0.9715183139	 2.1176038126	 0.098426
H	-2.7487024637	-3.5742326086	 1.3587331278	 0.068628
H	-3.8169238994	-1.0507052851	 2.7400091607	 0.112157
H	-4.7708506065	-2.4933981454	 2.36543331	 0.112926
H	-3.4590599255	-2.5838258512	 3.5494278375	 0.111841
H	-3.4128025197	-0.8063289077	 0.201890334	 0.104055
H	-3.4377214206	-2.3434492812	-0.7002163174	 0.090296
59.8694	85.7234	110.4401	173.1035	233.2185	241.9669	248.8363	270.2301	311.2267	342.3188	361.4236	406.5847	448.038	483.9784	629.1676	740.1982	822.1971	829.2211	857.8743	883.0082	893.8695	924.7508	952.4937	955.1998	985.6612	1047.3986	1086.0567	1100.5462	1128.4803	1140.5257	1184.1147	1196.3015	1213.6521	1216.2242	1229.7658	1282.7643	1288.5378	1299.2825	1302.3419	1375.1568	1399.4789	1403.3735	1411.7487	1426.0526	1467.1872	1483.0474	1485.5341	1492.3816	1496.4281	1496.9354	1500.785	1502.4911	1529.8752	2972.0228	3000.1716	3021.4278	3033.7114	3038.0621	3042.7908	3046.706	3056.2328	3087.9175	3090.8158	3103.6682	3104.2345	3108.1591	3113.983	3116.7221	3119.5614
CCOC1(C)CC(C)C1	CCO[C@@]1(C)C[C@@H](C)C1	
InChI=1S/C8H16O/c1-4-9-8(3)5-7(2)6-8/h7H,4-6H2,1-3H3	InChI=1S/C8H16O/c1-4-9-8(3)5-7(2)6-8/h7H,4-6H2,1-3H3/t7-,8+
