14
gdb 133170	3.23979	1.37108	0.96918	2.5877	71.11	-0.2437	-0.0576	0.186	1128.2041	0.100008	-477.954435	-477.946749	-477.945805	-477.986821	28.534	
C	 0.023091432	 1.4881104114	-0.0436951264	-0.468565
C	-0.0717028978	 0.0007880477	 0.0570415317	 0.410766
C	-1.1518052095	-0.7550048329	-0.2121887336	-0.258823
C	-1.093690073	-2.1916593457	-0.0695266492	 0.197092
N	-2.0755397197	-2.9819353307	-0.3053665693	-0.530282
C	 0.2427672618	-2.6140532558	 0.3814699461	 0.287488
F	 0.4183767225	-3.9154176953	 0.5487891365	-0.048225
N	 1.2649100493	-1.8923985457	 0.635812678	-0.128323
O	 1.1153361411	-0.5236760499	 0.4707443593	-0.279467
H	 0.8065635762	 1.7740051787	-0.752836495	 0.156803
H	-0.9274938157	 1.9077592646	-0.3751550163	 0.146663
H	 0.2859761626	 1.9211234786	 0.926746539	 0.15678
H	-2.0764874524	-0.2977752081	-0.5385448431	 0.129669
H	-1.7983434874	-3.9501266968	-0.1353935877	 0.228424
108.9653	128.1465	183.9926	301.21	327.6867	365.9197	429.8864	459.3846	515.9915	580.5723	588.0428	718.5554	747.7868	771.5538	866.9866	912.0184	941.5268	1007.467	1062.4948	1066.8309	1130.0818	1186.2039	1306.0548	1341.3708	1413.8087	1443.5904	1468.6449	1482.7821	1654.8658	1676.6869	1711.9196	3046.2739	3105.1747	3149.3195	3224.6532	3471.9043
CC1=CC(=N)C(F)=NO1	C[C]1C=C([NH])C(=NO1)F	
InChI=1S/C5H5FN2O/c1-3-2-4(7)5(6)8-9-3/h2,7H,1H3	InChI=1S/C5H5FN2O/c1-3-2-4(7)5(6)8-9-3/h2,7H,1H3
