18
gdb 28493	3.09403	1.34623	0.94528	3.5712	86.33	-0.19	0.0019	0.1919	1225.2682	0.149523	-398.196699	-398.188084	-398.18714	-398.229211	33.88	
C	-0.0295588017	 1.5120996086	-0.0197451256	-0.501773
C	 0.0057756082	 0.0062287563	 0.0052713781	 0.265477
N	-0.0449718543	-0.6356209706	-1.1613956812	-0.309827
C	-0.0056850238	-1.964848144	-1.1905838926	-0.088493
C	 0.0871740669	-2.7552012208	-0.0379687878	 0.283427
N	 0.1890714221	-4.1455373615	-0.1209750069	-0.594328
C	 0.1307739057	-2.0911682954	 1.1884842272	-0.229927
C	 0.094663738	-0.6983023188	 1.2262224373	 0.255603
N	 0.2019985002	-0.0103434744	 2.4359174893	-0.593714
H	 0.8513390023	 1.9485101028	 0.4678748142	 0.12673
H	-0.0597946228	 1.8504032413	-1.0562778237	 0.139889
H	-0.9143476282	 1.9164915586	 0.493410392	 0.110693
H	-0.0469437621	-2.4360300572	-2.1712405547	 0.08192
H	-0.1864545761	-4.5372090067	-0.9731053796	 0.247356
H	-0.1532182192	-4.643455505	 0.6883686057	 0.243638
H	 0.2034165105	-2.6578329255	 2.113988415	 0.071883
H	-0.0495213391	-0.5491028955	 3.2522322133	 0.242939
H	-0.2316920268	 0.900939238	 2.4476327199	 0.248505
133.5527	177.1444	224.1377	283.4898	294.3592	313.3185	318.6822	359.7095	473.8895	479.0048	495.169	566.1575	585.6605	629.8583	673.9295	745.5341	760.2197	768.2819	877.951	881.7221	974.6715	1020.9276	1055.509	1095.4082	1125.1811	1207.008	1260.7083	1296.7847	1329.0785	1363.5485	1403.0514	1476.6895	1486.3945	1492.3492	1527.7615	1604.8631	1642.7155	1657.5522	1661.2106	2999.6786	3051.5312	3132.9848	3140.7535	3149.4151	3557.258	3562.5849	3653.8703	3661.7668
CC1=NC=C(N)C=C1N	Cc1ncc(N)cc1N	
InChI=1S/C6H9N3/c1-4-6(8)2-5(7)3-9-4/h2-3H,7-8H2,1H3	InChI=1S/C6H9N3/c1-4-6(8)2-5(7)3-9-4/h2-3H,7-8H2,1H3
