19
gdb 121704	1.9084	1.26669	0.93022	1.9534	72.99	-0.243	-0.0413	0.2018	1323.5505	0.155206	-460.174739	-460.164411	-460.163467	-460.211609	35.398	
C	-1.8347741227	 0.273526852	-0.7564959329	-0.413394
C	-0.445126798	-0.2390553666	-0.3906694645	-0.054053
O	-0.3878097251	-1.6310024725	-0.0850803313	-0.234957
C	-0.9953663655	-2.0047196438	 1.1262875318	-0.172044
C	-2.4542124548	-2.4664896851	 1.0085907539	 0.338018
O	-3.2296554389	-2.329023335	 1.9252192508	-0.30539
C	-2.8626136727	-3.1542784619	-0.294754439	-0.374714
C	-4.1384005875	-2.5429772065	-0.8505440473	 0.164222
O	-4.2588021303	-2.1550405165	-1.9827667237	-0.234891
H	-1.7713923306	 1.3262645633	-1.051218809	 0.123509
H	-2.2596697462	-0.2911353069	-1.5906698963	 0.152466
H	-2.5252709585	 0.2160806703	 0.0918930045	 0.128023
H	 0.2387587456	-0.1133514013	-1.2353134925	 0.117431
H	-0.0373500588	 0.3358769797	 0.4552216961	 0.097874
H	-0.4337635244	-2.8672117909	 1.5154889077	 0.133979
H	-0.9512262405	-1.2139631406	 1.8871383592	 0.123343
H	-2.071715856	-3.1288763553	-1.0430253186	 0.148018
H	-3.0925978377	-4.1961742807	-0.0319481333	 0.15354
H	-4.9645649975	-2.4713674719	-0.1134074955	 0.109018
47.0984	62.7503	78.8624	88.9702	121.0694	214.2833	247.085	274.0328	369.7081	404.3344	468.629	498.1526	526.9304	566.5869	759.1788	804.7362	846.5118	865.4039	934.5284	1014.2542	1028.2254	1076.5139	1088.5859	1115.9901	1156.8466	1196.1775	1206.8854	1287.3031	1301.0821	1335.8136	1365.1728	1402.3611	1412.7428	1418.8746	1447.3079	1457.8611	1491.358	1494.3937	1513.1332	1795.8117	1836.7282	2928.0816	2989.3406	2997.6546	3031.372	3037.6202	3050.8796	3081.2541	3105.7826	3127.9262	3155.5637
CCOCC(=O)CC=O	CCOCC(=O)CC=O	
InChI=1S/C6H10O3/c1-2-9-5-6(8)3-4-7/h4H,2-3,5H2,1H3	InChI=1S/C6H10O3/c1-2-9-5-6(8)3-4-7/h4H,2-3,5H2,1H3
