17
gdb 48285	3.21168	0.95342	0.80948	6.1217	71.59	-0.2564	-0.0416	0.2149	1399.3272	0.134868	-455.144183	-455.135042	-455.134098	-455.179623	31.553	
O	-0.4226103548	 0.2077447013	-0.0980970312	-0.25561
C	-0.1318960736	 1.36922816	-0.095034363	 0.17629
N	 1.1591952316	 1.9104257688	-0.0088522878	-0.080942
C	 1.3050673792	 3.3705593507	 0.0485301565	-0.25407
C	 1.2775063649	 3.9288253529	 1.454720458	 0.037368
C	 0.8070669527	 5.3165763802	 1.6847987479	-0.242376
N	 0.0081662673	 4.171949819	 2.1531379361	-0.302056
C	 2.3219625407	 1.1259598315	 0.0424884044	 0.166913
O	 2.3778247979	-0.0703955862	 0.0437750661	-0.256859
H	-0.8841294275	 2.1807931163	-0.1773431532	 0.076052
H	 2.2499343791	 3.6333616269	-0.4383956159	 0.137961
H	 0.5070259802	 3.8229063762	-0.5502117349	 0.123386
H	 2.0540470015	 3.5305995317	 2.1057949285	 0.109302
H	 1.2530266699	 5.9197496101	 2.4696592436	 0.132374
H	 0.455578552	 5.8832437433	 0.8254570345	 0.116208
H	-0.7817202166	 4.0192139418	 1.529665974	 0.230329
H	 3.2207748055	 1.7749788557	 0.0743128163	 0.085732
34.7135	72.3218	107.7948	149.0798	229.276	238.1674	299.443	323.7799	407.5199	459.1144	528.9588	724.3341	791.3529	828.1207	927.816	935.6669	961.2606	983.7638	1014.3862	1037.3143	1059.1988	1128.1478	1141.9384	1168.6153	1195.5437	1247.7614	1260.4965	1302.1049	1359.2288	1378.2886	1427.9697	1448.4446	1454.7633	1493.9593	1515.4156	1802.5634	1881.0055	2907.956	2923.9219	3043.7553	3085.0754	3108.6643	3125.7447	3196.0146	3489.5762
O=CN(CC1CN1)C=O	O=CN(C[C@H]1CN1)C=O	
InChI=1S/C5H8N2O2/c8-3-7(4-9)2-5-1-6-5/h3-6H,1-2H2	InChI=1S/C5H8N2O2/c8-3-7(4-9)2-5-1-6-5/h3-6H,1-2H2/t5-/m1/s1
