20
gdb 8336	5.28294	1.21629	1.21018	1.5205	74.75	-0.2543	0.079	0.3333	1082.9422	0.177471	-348.981771	-348.973924	-348.97298	-349.013861	30.749	
O	 0.8202382674	 0.4251667773	-0.87184294	-0.435034
C	 0.0132243963	-0.3069685552	 0.0147532587	 0.179268
C	 0.1351589028	-0.09001671	 1.5461995792	-0.328112
C	-1.3997720911	-0.3178818245	 1.6442107377	 0.38768
C	-1.8518617886	-1.6981699331	 2.2014280887	-0.271144
C	-2.2499561918	-0.9917032902	 3.5252076026	-0.206099
C	-2.2252511558	 0.3611154047	 2.7625786516	-0.290756
C	-1.5034968079	-0.0021422963	 0.1331502968	-0.351186
H	 0.6983007357	 1.3607073092	-0.6782351304	 0.274196
H	 0.1781304361	-1.3573296408	-0.2426763454	 0.094135
H	 0.8016069914	-0.7446765657	 2.1146479363	 0.098457
H	 0.3933983099	 0.9535014799	 1.7665016977	 0.085348
H	-2.7270940008	-2.0799986632	 1.6656352213	 0.097391
H	-1.1022620486	-2.4932626101	 2.2521904829	 0.094904
H	-3.1901272757	-1.2917616755	 3.9932924388	 0.09575
H	-1.4561143046	-1.0512905315	 4.2747437346	 0.103322
H	-1.7730650807	 1.2229793962	 3.2624106632	 0.090782
H	-3.2214851255	 0.6483392638	 2.4096269622	 0.098019
H	-1.6965197408	 1.0652683897	-0.0345868622	 0.08685
H	-2.2033512776	-0.5847492246	-0.4725783844	 0.09623
88.7326	108.0988	254.3425	274.0238	332.1172	336.3216	419.8967	450.6668	478.2308	660.2714	715.612	776.7029	835.6045	848.839	877.6876	896.0613	936.579	947.0664	966.4511	984.3645	1039.9286	1077.6674	1082.0573	1100.2554	1183.5484	1188.0836	1195.864	1211.1605	1235.4155	1250.8856	1256.2845	1275.379	1279.5792	1290.5185	1308.9294	1337.4632	1437.1409	1464.6333	1473.5198	1482.512	1492.9165	1505.7976	3021.8461	3028.7043	3038.1998	3043.5829	3060.0564	3066.6333	3086.3831	3088.6925	3092.176	3096.7313	3115.7233	3804.6527
OC1CC2(CCC2)C1	OC1CC2(CCC2)C1	
InChI=1S/C7H12O/c8-6-4-7(5-6)2-1-3-7/h6,8H,1-5H2	InChI=1S/C7H12O/c8-6-4-7(5-6)2-1-3-7/h6,8H,1-5H2
