22
gdb 110881	2.33926	1.39387	1.18419	2.1326	81.74	-0.2144	0.0699	0.2843	1189.3409	0.1951	-404.327835	-404.318835	-404.317891	-404.361551	34.749	
C	 0.494029966	 0.4552189419	 1.4920825701	-0.370867
C	 0.2567201611	-0.0580154664	 0.0725600828	-0.144791
N	-1.0543069224	-0.6989258155	-0.0060573657	-0.08709
C	-1.4638051444	-1.5508029701	-1.1113161011	-0.040117
C	-0.4292366483	-2.1542973814	-2.0535646463	-0.242266
C	 0.4754981177	-3.0931368223	-1.2151318941	 0.107553
O	 1.8175328085	-2.6168632966	-1.2991632951	-0.416059
C	-0.1006717262	-3.0958985047	 0.2330833513	-0.274718
C	-1.2666638861	-2.1143903085	 0.264226881	-0.032859
H	 1.4445087104	 0.9946697479	 1.5546314497	 0.107171
H	-0.3122333111	 1.1272493268	 1.799781342	 0.121743
H	 0.5295160431	-0.3730600008	 2.2081984958	 0.111245
H	 0.2352399584	 0.7890295509	-0.6241867292	 0.09735
H	 1.0898679857	-0.7016986267	-0.2372559909	 0.11693
H	-2.447799193	-1.330796599	-1.5201058245	 0.082391
H	-0.9441964328	-2.711944286	-2.8420249174	 0.100454
H	 0.1928000555	-1.4022002309	-2.5492051844	 0.121845
H	 0.4400588642	-4.111601527	-1.6259845861	 0.075415
H	 2.3725093721	-3.1994311266	-0.770945137	 0.281885
H	-0.4679127091	-4.091606706	 0.504598522	 0.099753
H	 0.6868474175	-2.8413191777	 0.9527983322	 0.102445
H	-2.0946007167	-2.3371779411	 0.9337711849	 0.082587
81.7899	93.0428	151.3024	199.8635	263.6144	304.6286	321.2213	404.5829	426.7323	476.7124	514.4303	665.1206	702.482	736.2704	784.6786	812.6055	819.9558	891.1666	936.0253	965.2821	984.3237	1002.4837	1039.1772	1059.1175	1059.3195	1106.4819	1126.0774	1148.5407	1178.4279	1194.8031	1235.3111	1254.8805	1277.3988	1310.5795	1317.5665	1326.4484	1329.6179	1369.1902	1394.8533	1404.1464	1422.1948	1433.3239	1475.0892	1486.8212	1488.5265	1502.0245	1527.7046	2991.8925	3020.815	3031.723	3034.7469	3052.0837	3055.9717	3071.1163	3090.758	3101.6501	3116.0021	3119.2933	3129.5228	3817.4358
CCN1C2CC(O)CC12	CCN1[C@H]2C[C@@H](O)C[C@@H]12	
InChI=1S/C7H13NO/c1-2-8-6-3-5(9)4-7(6)8/h5-7,9H,2-4H2,1H3	InChI=1S/C7H13NO/c1-2-8-6-3-5(9)4-7(6)8/h5-7,9H,2-4H2,1H3/t5-,6+,7-,8?
