21
gdb 104810	2.50699	1.2846	1.1601	3.1304	78.93	-0.2364	0.029	0.2655	1181.4849	0.183168	-424.230296	-424.221263	-424.220319	-424.263862	34.923	
O	-0.0743193599	 1.5661364586	 0.2448758422	-0.428483
C	 0.0774666802	 0.1430889483	 0.2214842668	-0.14334
C	-1.2784982326	-0.5019682696	-0.0623704681	 0.276625
C	-2.2965254349	-0.129019682	 1.0425248168	-0.088017
O	-2.7085766789	 1.2210941343	 1.0275522439	-0.431447
C	-1.8499182105	-0.115767293	-1.4614385009	-0.291931
C	-2.3533845392	-1.4226003833	-2.0186111904	-0.059723
C	-1.9740140212	-2.4670544543	-1.2860603372	-0.061109
C	-1.1401816136	-2.0554260473	-0.0976187378	-0.323081
H	 0.7598606018	 1.9626310431	 0.5120438383	 0.294344
H	 0.798512791	-0.1485953935	-0.5571999376	 0.093448
H	 0.4632435934	-0.2169807824	 1.188190682	 0.091586
H	-3.2018380282	-0.7317683597	 0.9061455061	 0.104841
H	-1.8644318955	-0.4076097923	 2.0205391658	 0.073516
H	-1.90043477	 1.7475218972	 0.9598908167	 0.288267
H	-2.6299583957	 0.645786147	-1.364907431	 0.126487
H	-1.0776889758	 0.3200688235	-2.1101731583	 0.099179
H	-2.9416551113	-1.478647223	-2.928328824	 0.090182
H	-2.2009436094	-3.5051919438	-1.5025252642	 0.089754
H	-0.0937812012	-2.371459038	-0.222502615	 0.096756
H	-1.4801419584	-2.5124633897	 0.8411039758	 0.102145
72.8849	124.3465	177.293	238.4605	252.9202	285.2689	350.602	373.9891	393.6603	431.5434	477.6857	573.8486	662.5962	703.9675	770.4388	806.4768	898.0169	936.3178	950.5392	965.2146	975.9902	984.5319	992.7232	1047.1932	1076.2133	1111.1991	1122.7127	1133.2203	1163.1221	1183.0056	1232.2034	1244.6254	1289.4977	1299.9438	1321.8842	1351.867	1362.8231	1383.2478	1453.165	1467.8869	1488.0434	1494.4388	1504.8745	1520.5329	1693.2008	2939.9638	2970.5039	2995.1787	3006.5238	3015.1062	3031.4517	3057.8261	3076.6097	3179.1545	3205.0077	3745.8874	3833.9121
OCC1(CO)CC=CC1	OCC1(CO)CC=CC1	
InChI=1S/C7H12O2/c8-5-7(6-9)3-1-2-4-7/h1-2,8-9H,3-6H2	InChI=1S/C7H12O2/c8-5-7(6-9)3-1-2-4-7/h1-2,8-9H,3-6H2
