21
gdb 63234	2.4694	1.59078	1.30694	1.6873	83.25	-0.2406	0.0163	0.2568	1087.2483	0.183166	-387.096639	-387.088108	-387.087164	-387.129124	34.45	
C	 0.253210146	 1.5602342968	-0.0243168392	-0.399879
C	-0.0105975026	 0.0533556398	-0.0279909135	 0.313874
O	-1.4481874013	-0.0610097924	 0.0391222769	-0.464211
C	 0.460127479	-0.5852902011	-1.3154890819	-0.098813
C	 0.9982405349	-1.8011876784	-1.4055068571	-0.0756
C	 1.2703070702	-2.7049210902	-0.2327744305	-0.288104
C	 1.2173640772	-1.990881328	 1.1060600701	-0.045216
C	 2.0910236613	-0.7825141695	 1.3347015483	-0.302811
C	 0.5988809447	-0.6125191984	 1.1982691932	-0.048465
H	 1.3251656155	 1.7669137667	-0.0756070991	 0.11697
H	-0.2408973283	 2.0310218549	-0.8794343946	 0.116555
H	-0.1469375611	 2.0078018369	 0.89017764	 0.118363
H	-1.6594188231	-0.9959371438	-0.0587798659	 0.270866
H	 0.2714645648	-0.0081408153	-2.2176953654	 0.086596
H	 1.2516861063	-2.1981988441	-2.3862692509	 0.090382
H	 0.5384789884	-3.5269056854	-0.2449003655	 0.109408
H	 2.2467549141	-3.192018223	-0.3634047133	 0.109622
H	 1.0729183803	-2.6445217685	 1.9610437548	 0.082061
H	 2.536135494	-0.6419228256	 2.3134321245	 0.107712
H	 2.7126651148	-0.4532841861	 0.507849713	 0.114404
H	 0.0499943446	-0.3751217856	 2.1048819161	 0.086287
93.1858	199.6534	223.9019	256.6424	311.2581	322.7801	351.9643	380.0102	417.9122	524.5639	532.553	555.3594	688.9407	746.9798	762.2353	826.5284	847.3662	883.5132	916.51	934.8107	964.7564	1010.0884	1029.7184	1041.8376	1052.7085	1073.2306	1080.3767	1120.2401	1137.2133	1147.578	1200.0917	1215.1221	1239.4045	1290.8839	1343.3511	1362.3853	1368.4386	1407.5847	1409.9999	1428.5141	1477.9863	1481.9218	1488.5603	1495.1524	1719.0107	2992.0905	3017.9477	3042.1681	3114.4724	3125.5624	3128.1533	3139.4096	3142.3329	3152.4456	3163.7056	3213.7002	3805.675
CC1(O)C=CCC2CC12	C[C@@]1(O)C=CC[C@H]2C[C@@H]12	
InChI=1S/C8H12O/c1-8(9)4-2-3-6-5-7(6)8/h2,4,6-7,9H,3,5H2,1H3	InChI=1S/C8H12O/c1-8(9)4-2-3-6-5-7(6)8/h2,4,6-7,9H,3,5H2,1H3/t6-,7+,8+/m0/s1
