21
gdb 124509	3.97483	0.90879	0.88628	2.2593	86.63	-0.2259	0.0266	0.2525	1458.8262	0.182873	-383.303279	-383.293515	-383.292571	-383.338999	35.09	
C	-0.020320314	 1.570292801	-0.0250808158	-0.377593
C	 0.0340460631	 0.0314835352	-0.0208824133	-0.090942
C	 0.6872636375	-0.4977058515	-1.3107525231	-0.377615
C	 0.7266564879	-0.4966457406	 1.2082949053	 0.212028
C	 0.1907973334	-1.2816414251	 2.2114786922	-0.159758
N	 1.1699833145	-1.5040951694	 3.1251131306	 0.062378
C	 1.1105700543	-2.3320732617	 4.3093085137	-0.318659
N	 2.3303541941	-0.9161955184	 2.7776271375	-0.270779
C	 2.066096139	-0.3055464857	 1.6247236857	-0.085145
H	 0.9882549178	 1.9971561111	-0.0529496679	 0.115803
H	-0.5637996004	 1.9396134817	-0.9014948574	 0.106534
H	-0.5168663907	 1.9502429695	 0.8725658655	 0.114712
H	-0.9999637645	-0.3370012064	 0.0029360339	 0.069826
H	 1.7253703515	-0.1571107495	-1.3917692936	 0.115864
H	 0.6943446834	-1.5914436583	-1.3298137508	 0.114674
H	 0.1489808754	-0.1414344599	-2.195686745	 0.106591
H	-0.8012154198	-1.6871123387	 2.3405958015	 0.124896
H	 1.4685981096	-3.3472792144	 4.1055660108	 0.140783
H	 1.7396059994	-1.8852612569	 5.0805556365	 0.155695
H	 0.0794407724	-2.3824385793	 4.6655278672	 0.135912
H	 2.8465018062	 0.2597563275	 1.1353984666	 0.104794
31.1529	59.821	122.6992	172.4888	202.0339	231.1663	260.3769	293.292	377.3188	419.5014	478.4592	617.0644	646.4351	699.1128	730.3346	792.6736	881.0575	884.2442	927.8139	961.4906	1005.0014	1017.5935	1068.7331	1082.5392	1124.3255	1147.1381	1160.8428	1207.102	1230.5822	1324.5082	1341.8093	1355.635	1392.2546	1396.6918	1420.2268	1425.8042	1448.5745	1473.9093	1485.2008	1485.9093	1489.9508	1501.6019	1508.4892	1520.3871	1605.898	3012.8003	3027.1063	3031.287	3038.6409	3093.0191	3099.5401	3106.6782	3108.9409	3111.7208	3149.9886	3235.6288	3247.1942
CC(C)C1=CN(C)N=C1	CC(C)c1cn(C)nc1	
InChI=1S/C7H12N2/c1-6(2)7-4-8-9(3)5-7/h4-6H,1-3H3	InChI=1S/C7H12N2/c1-6(2)7-4-8-9(3)5-7/h4-6H,1-3H3
