23
gdb 108477	2.13019	1.57987	1.24198	1.5237	84.91	-0.237	0.0684	0.3053	1177.4975	0.205221	-388.272408	-388.263004	-388.26206	-388.306515	35.866	
C	-0.1417986293	 1.4958367705	-0.0787345367	-0.384115
C	-0.0841587782	-0.0366152368	-0.0376442805	-0.267737
C	 0.676888805	-0.5598920026	 1.1583248202	 0.461282
O	 2.0810480678	-0.174346283	 1.1273249094	-0.333012
C	 2.5111686215	-1.5528809848	 1.2192602418	-0.08353
C	 1.0738563818	-2.0458218271	 1.4212384417	-0.147601
C	 0.5588820056	-1.9146745241	 2.8793662238	-0.253346
C	 0.0740571311	-0.4543017087	 2.5947761401	-0.013657
C	 0.5780655726	 0.6529823189	 3.5084753397	-0.408252
H	 0.8681348313	 1.9146258737	-0.0566878407	 0.137933
H	-0.638113872	 1.8452912013	-0.9889053322	 0.109904
H	-0.6937951831	 1.8985247421	 0.776811674	 0.117234
H	-1.098489382	-0.4556438898	-0.0215713707	 0.092516
H	 0.3991896788	-0.4111616075	-0.94855786	 0.097331
H	 2.9848790954	-1.8825884444	 0.2849372394	 0.097042
H	 3.2103464363	-1.7170110859	 2.0492527653	 0.096223
H	 0.7259310483	-2.8878993003	 0.8234650907	 0.071086
H	-0.2433194546	-2.6092812758	 3.1384876244	 0.099215
H	 1.340991267	-1.9980649841	 3.6409249496	 0.095665
H	-1.0199191939	-0.4228132408	 2.5306504315	 0.06458
H	 1.6703276756	 0.6976741033	 3.4854701937	 0.128998
H	 0.1984189674	 1.6339478979	 3.2039279696	 0.114652
H	 0.2587759575	 0.477674018	 4.5417699659	 0.107588
72.0651	90.8082	160.2961	210.9439	217.6861	252.3543	288.6013	324.5683	390.5308	411.57	504.3792	635.3193	640.6095	769.0298	798.8853	824.4559	878.1704	910.1581	929.3516	951.0151	975.4486	992.2278	1007.8684	1034.7728	1041.3485	1101.0528	1113.0257	1137.2304	1151.3416	1160.9061	1183.9669	1202.878	1223.0141	1265.3709	1292.9578	1308.7701	1322.2014	1346.5436	1359.2758	1379.7432	1402.4219	1408.0395	1475.341	1484.3249	1487.6614	1498.9684	1502.8853	1509.3869	1523.0006	3001.363	3019.4884	3030.0518	3035.0845	3039.5554	3043.9402	3048.7778	3056.5657	3093.689	3101.0855	3105.6969	3114.6185	3118.2804	3120.5308
CCC12OCC1CC2C	CC[C@]12OC[C@H]1C[C@H]2C	
InChI=1S/C8H14O/c1-3-8-6(2)4-7(8)5-9-8/h6-7H,3-5H2,1-2H3	InChI=1S/C8H14O/c1-3-8-6(2)4-7(8)5-9-8/h6-7H,3-5H2,1-2H3/t6-,7-,8-/m1/s1
