27
gdb 117659	2.42659	1.00111	0.88391	0.94	92.83	-0.2436	0.0774	0.321	1554.8215	0.248272	-390.701945	-390.689866	-390.688922	-390.738995	44.885	
C	 0.0057713068	 1.5618386078	 0.2631877825	-0.378381
C	 0.126702446	 0.0773157116	-0.048904709	-0.045695
O	 0.638976219	-0.5588263945	 1.1047834994	-0.294222
C	 0.7294170054	-1.9961333279	 1.1324373471	 0.379518
C	-0.6847123344	-2.589752035	 1.2490209983	-0.427241
C	 1.4300021625	-2.5393973215	-0.1229512749	-0.434546
C	 1.5455962593	-2.2578287641	 2.4333561503	 0.04163
C	 1.6162280512	-3.7339882768	 2.8501037249	-0.410894
C	 2.9560959821	-1.651999776	 2.3731543034	-0.40478
H	 0.9813552562	 1.9762518778	 0.533458025	 0.123668
H	-0.3746445374	 2.1062558442	-0.6066350749	 0.109812
H	-0.6767690014	 1.7229989017	 1.102438043	 0.12281
H	-0.8589611854	-0.3254135599	-0.3279552331	 0.084233
H	 0.7923262597	-0.0708792331	-0.9125247346	 0.086988
H	-1.3110160861	-2.2789884979	 0.4079276639	 0.111024
H	-0.6615081737	-3.6826288532	 1.2431293286	 0.115935
H	-1.1660303314	-2.2564248312	 2.1734652339	 0.115573
H	 2.3752830952	-2.0225167318	-0.3058390149	 0.122969
H	 1.6388514902	-3.6072405939	-0.0133803158	 0.116593
H	 0.8010610902	-2.4235339845	-1.0103206376	 0.112864
H	 0.9919157079	-1.7159872654	 3.2113694497	 0.077672
H	 2.1256771249	-4.346673748	 2.0978534324	 0.112585
H	 2.1870178555	-3.8284775497	 3.7796167797	 0.112186
H	 0.6295754597	-4.1689873206	 3.0283896644	 0.113466
H	 3.61080376	-2.2173643317	 1.7003964609	 0.105819
H	 2.9198604503	-0.6162700466	 2.0310046225	 0.126334
H	 3.4185735278	-1.6716786598	 3.3654171749	 0.10408
45.9812	69.9895	111.9479	148.9231	203.6485	235.8277	236.761	251.6941	271.0043	296.6359	312.9754	332.7205	360.8025	370.8539	401.4507	461.3687	501.2409	559.5451	708.4471	815.3473	823.1838	903.7567	918.0594	926.4686	937.7855	964.4178	978.7507	1003.0154	1082.9781	1092.5775	1118.2552	1146.9748	1180.9221	1185.0481	1199.7266	1215.4459	1277.4691	1299.6938	1345.5205	1364.0094	1395.3532	1397.5669	1398.0632	1409.464	1422.0923	1426.8426	1480.2975	1482.9888	1484.6792	1490.1583	1494.7057	1500.8595	1507.8422	1509.7613	1512.4351	1519.2857	1532.0239	2978.7638	3006.2833	3017.6559	3032.3157	3037.6107	3042.4999	3043.1601	3050.4687	3089.528	3097.0897	3108.0162	3113.8221	3114.4799	3116.4914	3120.1721	3122.0521	3127.6803	3135.0931
CCOC(C)(C)C(C)C	CCOC(C)(C)C(C)C	
InChI=1S/C8H18O/c1-6-9-8(4,5)7(2)3/h7H,6H2,1-5H3	InChI=1S/C8H18O/c1-6-9-8(4,5)7(2)3/h7H,6H2,1-5H3
