15
gdb 125720	4.26195	1.1261	0.89672	4.2428	71.09	-0.2541	-0.0524	0.2017	1246.4296	0.113176	-450.144625	-450.136275	-450.135331	-450.17791	30.314	
C	 0.6406612294	 1.1766511542	-0.5228223906	-0.490634
C	 0.0214942191	-0.0876452815	-0.0383813116	 0.355361
N	-1.2749571956	-0.251202171	 0.0425454783	-0.158477
O	-1.4204938123	-1.5513897062	 0.53338441	-0.183244
C	-0.1888362617	-2.0294792106	 0.6958004295	 0.463748
N	 0.7471591796	-1.1870208523	 0.3648730678	-0.373571
C	 0.0154762731	-3.4011400464	 1.2205302984	 0.234867
N	 1.3386756006	-3.7708059653	 1.1866748592	-0.549641
N	-1.0043042857	-4.0699072299	 1.5998714774	-0.498145
H	 1.2864474254	 1.6037557867	 0.2501369962	 0.149981
H	 1.2627801211	 0.9822560662	-1.4014828945	 0.150783
H	-0.1331388806	 1.8997536688	-0.7837075119	 0.155055
H	 2.0182397915	-3.0386128208	 1.046681704	 0.274994
H	 1.6245168551	-4.5584244709	 1.7445084015	 0.255786
H	-0.7335349788	-4.994349251	 1.9403594664	 0.213137
67.6173	135.2192	156.843	174.8174	312.0946	338.9957	366.2716	398.0029	472.1223	526.7854	599.9773	631.5903	694.7194	725.977	802.9662	876.0123	941.8727	1002.9078	1037.9209	1061.1787	1072.352	1101.6026	1133.5657	1280.8599	1362.1477	1415.1068	1449.3444	1474.7044	1476.4992	1557.7929	1607.1308	1625.4849	1725.3115	3053.0468	3113.4497	3153.3806	3461.743	3582.4546	3708.6819
CC1=NOC(=N1)C(N)=N	Cc1noc(n1)C(=N)N	
InChI=1S/C4H6N4O/c1-2-7-4(3(5)6)9-8-2/h1H3,(H3,5,6)	InChI=1S/C4H6N4O/c1-2-7-4(3(5)6)9-8-2/h1H3,(H3,5,6)
