14
gdb 49399	2.67586	1.72391	1.37024	3.1392	65.26	-0.2558	-0.044	0.2117	930.8842	0.100385	-436.639486	-436.632381	-436.631437	-436.671774	26.123	
O	-0.744155755	 0.9526223291	-0.4902265473	-0.234881
C	 0.086136006	 1.1173442139	 0.3660837646	 0.136268
C	 1.2912754163	 2.0104860293	 0.2009936257	-0.105503
C	 1.4577657303	 2.8934933219	-1.0259773855	-0.035137
C	 0.6980929486	 4.1754285918	-0.8505005933	-0.175579
N	 2.1005534876	 3.9925950637	-0.2572196755	-0.153162
C	 1.3669319386	 3.3560938919	 0.9768767071	-0.170719
C	 0.1279350716	 4.1454551909	 0.5290478288	 0.478264
O	-0.7653800379	 4.6993130351	 1.0976282748	-0.322202
H	 0.0104105141	 0.609205071	 1.3539547529	 0.088019
H	 2.2064690501	 1.4348912909	 0.3863966432	 0.121469
H	 1.8176251278	 2.6073433488	-2.0071899072	 0.12391
H	 0.5008735823	 4.8545399387	-1.6692912155	 0.132278
H	 1.7830031294	 3.4437414232	 1.9765435273	 0.116975
59.1765	140.4461	153.9327	271.8339	398.98	450.0793	597.4993	660.8801	729.1485	738.5156	772.0979	822.4686	833.1703	864.4883	937.427	981.7117	1009.0137	1033.1146	1045.4076	1087.8077	1093.6841	1136.9169	1157.0052	1167.8532	1255.8953	1291.486	1347.5948	1366.8937	1421.3647	1826.8863	1902.1111	2879.7223	3045.7091	3172.3703	3190.4451	3220.7181
O=CC1C2C3N2C1C3=O	O=C[C@H]1[C@H]2[C@@H]3N2[C@H]1C3=O	
InChI=1S/C6H5NO2/c8-1-2-3-5-6(9)4(2)7(3)5/h1-5H	InChI=1S/C6H5NO2/c8-1-2-3-5-6(9)4(2)7(3)5/h1-5H/t2-,3-,4+,5-,7?/m0/s1
