17
gdb 22868	3.09031	1.23467	0.91952	3.2487	72.28	-0.2471	-0.009	0.238	1222.06	0.135805	-455.154522	-455.145657	-455.144713	-455.188489	32.476	
C	-0.1431424895	 1.5806977246	 0.0270297504	-0.387914
C	 0.035163631	 0.0589683879	 0.0297151909	-0.23122
C	 0.8532561208	-0.4381015927	-1.1746251907	 0.436133
O	 0.6723025661	-0.1418319774	-2.3345143609	-0.383352
N	 1.8213073035	-1.2816118387	-0.701085414	-0.337559
C	 1.8849554012	-1.4402226276	 0.7379481756	-0.250186
C	 0.7795021846	-0.5160892631	 1.2099249064	 0.390876
N	 0.5010053253	-0.2244518279	 2.4142668339	-0.210688
O	 1.3552398935	-0.8974660914	 3.3046472215	-0.392509
H	 0.8209513001	 2.0873591711	 0.1306415435	 0.121305
H	-0.5951717069	 1.8906499672	-0.9180339508	 0.141167
H	-0.782322234	 1.8916654903	 0.8560742766	 0.13164
H	-0.9541197103	-0.4119077734	-0.0493791792	 0.128162
H	 2.4676963127	-1.7204222555	-1.337163931	 0.254903
H	 1.7003942551	-2.4732885985	 1.0623538338	 0.137096
H	 2.8511637314	-1.1369821868	 1.1602718436	 0.140664
H	 1.0497335854	-0.582453438	 4.1619287705	 0.311482
45.8773	144.8819	172.8595	204.4943	221.6684	243.4429	349.434	407.7526	430.0334	505.7265	535.5781	540.9243	667.7711	702.7456	722.2133	799.0286	831.0371	978.3347	996.5305	1027.3113	1075.0282	1086.3474	1110.3378	1193.1604	1215.4262	1254.2021	1274.6146	1318.4778	1340.4309	1397.2588	1413.5596	1445.3792	1493.4272	1497.6823	1513.0648	1762.4671	1835.4122	3013.8347	3021.1428	3043.5678	3050.0279	3123.3874	3139.5371	3644.9949	3821.1891
CC1C(=O)NCC1=NO	C[C@H]1C(=O)NCC1=NO	
InChI=1S/C5H8N2O2/c1-3-4(7-9)2-6-5(3)8/h3,9H,2H2,1H3,(H,6,8)	InChI=1S/C5H8N2O2/c1-3-4(7-9)2-6-5(3)8/h3,9H,2H2,1H3,(H,6,8)/t3-/m1/s1
