14
gdb 10141	2.79532	1.41036	0.98744	4.5876	63.51	-0.3134	-0.0368	0.2766	1140.5867	0.105232	-378.721445	-378.71276	-378.711816	-378.75548	29.087	
C	-0.0769356478	 1.4857875023	 0.0246139104	-0.390138
C	-0.0404859749	-0.0198934349	-0.1482292254	-0.058753
O	-1.3470794792	-0.5247554437	 0.1606468303	-0.2318
C	-1.4463892647	-1.9178140914	 0.0826438702	-0.131855
C	-2.7236905433	-2.3284700049	 0.6923746768	 0.306725
N	-3.7066941124	-2.6691881916	 1.1903976976	-0.291334
C	-1.3602913969	-2.4179855072	-1.3140207824	 0.289434
N	-1.2467922271	-2.778496761	-2.404824879	-0.303069
H	 0.9069900215	 1.9080549594	-0.1979864532	 0.130735
H	-0.8081770823	 1.9321632763	-0.654065176	 0.143555
H	-0.3468893169	 1.7508559215	 1.0501160199	 0.13897
H	 0.2280711729	-0.2943995326	-1.1774968044	 0.127886
H	 0.6943741542	-0.4819290815	 0.5289211988	 0.106143
H	-0.6357680532	-2.4091687508	 0.6487868564	 0.163501
71.443	86.3359	132.0588	136.0512	228.8955	256.5521	299.291	372.9874	400.8779	518.0995	575.8254	631.4283	826.3549	887.347	898.0949	1019.2817	1040.9904	1125.5727	1144.8047	1185.2145	1302.9403	1324.4699	1328.8251	1405.6658	1436.493	1483.1462	1498.7778	1524.0157	2363.7291	2382.0502	2963.9371	2988.4031	3037.1851	3052.426	3128.5362	3133.3909
CCOC(C#N)C#N	CCOC(C#N)C#N	
InChI=1S/C5H6N2O/c1-2-8-5(3-6)4-7/h5H,2H2,1H3	InChI=1S/C5H6N2O/c1-2-8-5(3-6)4-7/h5H,2H2,1H3
