19
gdb 6911	4.86021	1.06592	0.98756	1.843	78.35	-0.2399	0.0582	0.2981	1241.7256	0.162995	-327.876771	-327.867498	-327.866554	-327.910611	34.277	
C	 0.0346914734	 1.524371181	-0.1587062038	-0.436626
C	-0.0325755995	 0.0256578739	 0.0608170228	 0.319678
C	-1.2172590898	-0.6436599999	-0.6103601197	-0.457109
N	 1.2691783416	-0.6728245558	 0.0301067124	-0.360373
C	 0.5127752163	-0.6179820263	 1.2906109015	-0.043768
C	 1.1508179244	 0.1328833118	 2.4522704014	-0.360314
C	 1.9903117045	-0.7344885222	 3.2730328281	 0.299344
C	 2.6650559987	-1.4720561047	 3.9403146706	-0.446383
H	 0.9451836808	 1.9541954038	 0.2616125313	 0.127025
H	 0.0293532724	 1.7492971007	-1.2312479956	 0.117204
H	-0.8300492725	 2.0259659757	 0.2904540916	 0.113446
H	-1.1735777587	-0.5075118253	-1.6975766012	 0.121163
H	-1.2400411537	-1.7184469918	-0.4030669082	 0.112669
H	-2.1641775369	-0.2146954193	-0.2637271203	 0.122498
H	 1.178828742	-1.5891609545	-0.4017649726	 0.225622
H	 0.007464904	-1.5301804632	 1.6050528344	 0.086571
H	 1.7514136939	 0.9617084582	 2.0652372217	 0.138335
H	 0.3628377459	 0.5742544727	 3.0773103324	 0.127894
H	 3.2719967831	-2.1125313547	 4.530532793	 0.193124
51.2221	108.7668	175.7697	199.1143	223.8991	263.473	334.9158	352.3279	382.978	442.9101	461.2582	535.3678	613.3783	637.0766	701.7921	832.518	856.2251	950.7919	957.2789	964.7775	989.3644	994.4588	1051.9175	1074.9658	1128.6743	1156.3944	1204.3516	1261.184	1308.431	1321.724	1355.1181	1412.3063	1423.2511	1452.1256	1462.5132	1478.5172	1490.0398	1500.2158	1513.8399	2238.9001	3021.3829	3022.0199	3032.8866	3079.2498	3084.2827	3089.8534	3098.6192	3115.52	3135.259	3495.9225	3507.5227
CC1(C)NC1CC#C	CC1(C)N[C@H]1CC#C	
InChI=1S/C7H11N/c1-4-5-6-7(2,3)8-6/h1,6,8H,5H2,2-3H3	InChI=1S/C7H11N/c1-4-5-6-7(2,3)8-6/h1,6,8H,5H2,2-3H3/t6-/m0/s1
