22
gdb 121260	3.94135	0.93672	0.83374	1.7335	82.93	-0.2294	0.078	0.3074	1473.1822	0.19532	-404.33106	-404.322088	-404.321144	-404.365379	33.895	
C	 0.0554363076	 1.5081441851	-0.0463724639	-0.38364
C	-0.1252433617	 0.0045089161	-0.1731460544	-0.033503
O	 0.8208463299	-0.480435137	-1.1050777459	-0.260792
C	 0.8332531629	-1.883947918	-1.2462238461	 0.184063
C	-0.3922574583	-2.4801887902	-1.9895742481	-0.255776
C	 0.1296253335	-3.7706207445	-2.6630293926	-0.216948
C	 1.5994067628	-3.477593279	-2.9207973431	-0.02785
N	 1.8096186931	-2.1494885877	-3.5342770983	-0.330234
C	 2.0171238445	-2.330629896	-2.0799165616	-0.076478
H	 1.0664971519	 1.7452073698	 0.2969434899	 0.123189
H	-0.0989070346	 1.993805459	-1.0140644347	 0.128361
H	-0.6622674673	 1.9212846712	 0.6689163119	 0.110732
H	 0.0206590656	-0.4864106237	 0.8051109687	 0.079252
H	-1.150932747	-0.2296113505	-0.4998120751	 0.088291
H	 0.9267434236	-2.3495821581	-0.2480425758	 0.055842
H	-1.2417274063	-2.6680944807	-1.3290243809	 0.09085
H	-0.6988668223	-1.7570711194	-2.7486568416	 0.129813
H	 0.0483454423	-4.6298309841	-1.9863758754	 0.096837
H	-0.4221143744	-4.0168832504	-3.5759070189	 0.104096
H	 2.2832766694	-4.2847979662	-3.1637608921	 0.08131
H	 2.7182467521	-2.1312391834	-3.990405501	 0.229567
H	 3.0188259329	-2.2376205924	-1.6739800309	 0.083019
60.6531	83.2923	111.8304	199.9753	247.848	282.7673	334.554	380.2813	411.1936	559.0277	628.7234	662.0463	802.0927	820.3016	832.2144	868.6667	879.2956	906.2235	920.1755	943.9723	986.9193	1031.4196	1047.145	1075.5047	1085.962	1123.9242	1151.2735	1160.5562	1169.6145	1187.5732	1207.1997	1230.7616	1259.5353	1296.1076	1304.8166	1326.9448	1352.8372	1356.531	1388.1881	1402.1138	1428.8902	1442.567	1481.1135	1482.7857	1494.2548	1499.7579	1528.873	2933.7364	2951.4862	2987.9454	3035.2577	3043.6712	3071.2084	3079.7633	3117.7148	3121.1162	3122.9044	3156.7865	3171.1159	3504.3854
CCOC1CCC2NC12	CCO[C@H]1CC[C@H]2N[C@@H]12	
InChI=1S/C7H13NO/c1-2-9-6-4-3-5-7(6)8-5/h5-8H,2-4H2,1H3	InChI=1S/C7H13NO/c1-2-9-6-4-3-5-7(6)8-5/h5-8H,2-4H2,1H3/t5-,6+,7-/m1/s1
