21
gdb 93636	1.91157	1.59046	1.32779	1.5779	82.44	-0.255	0.0378	0.2928	1135.5114	0.181765	-387.06421	-387.054745	-387.053801	-387.098281	35.925	
C	 0.6762466223	 1.6530950381	-0.0069395208	-0.408344
C	 0.2562739197	 0.1793740383	-0.0092421276	-0.020855
C	 1.0213356007	-0.6417900331	-1.0847659923	-0.087958
O	 1.571512398	-1.7913234262	-0.4415080115	-0.244554
C	 1.8034678551	-1.4435576977	 0.9174234087	-0.10072
C	 3.0765699036	-0.7293372203	 1.0937450371	 0.365986
C	 4.1259663373	-0.1574702123	 1.2303232052	-0.496085
C	 0.5506848004	-0.6149403037	 1.3013447792	 0.019473
C	 0.6469934911	 0.1816974385	 2.5993498879	-0.423339
H	 1.7457628751	 1.7642346873	 0.19545623	 0.13241
H	 0.4738524363	 2.1049565615	-0.9841765211	 0.112291
H	 0.1251743653	 2.2307666577	 0.7411832016	 0.113899
H	-0.8193836848	 0.133365137	-0.2068756968	 0.076944
H	 0.382034977	-1.0035255959	-1.8947503085	 0.106525
H	 1.8257376706	-0.0358669241	-1.5264599943	 0.098363
H	 1.8488853213	-2.3828622415	 1.4790304431	 0.108036
H	 5.0576232869	 0.3385690936	 1.3498392447	 0.199969
H	-0.2463088712	-1.3585207819	 1.4122011222	 0.083939
H	 1.4658476849	 0.9044320679	 2.5746243589	 0.133369
H	-0.2838308527	 0.7237549978	 2.7939827233	 0.11556
H	 0.8212831631	-0.4870073408	 3.4489945211	 0.115094
62.7963	109.4133	149.1263	229.1486	256.553	261.0617	272.4798	321.1427	367.3259	464.4146	493.6833	561.5896	625.9601	665.2277	677.1009	681.8847	773.8351	862.2602	925.8237	942.1313	950.302	965.4957	1015.2645	1038.5968	1091.5963	1094.8135	1148.5934	1165.3527	1181.8077	1247.2545	1254.0606	1307.2724	1327.7623	1354.895	1366.7397	1377.4666	1393.6895	1409.5967	1419.2084	1489.4701	1496.0209	1505.1672	1508.7634	1517.0749	2223.6929	2998.0239	3031.1152	3034.4061	3039.2998	3047.8017	3057.0035	3086.1694	3096.7251	3099.8603	3115.4547	3125.9968	3500.7063
CC1COC(C#C)C1C	C[C@H]1CO[C@@H](C#C)[C@H]1C	
InChI=1S/C8H12O/c1-4-8-7(3)6(2)5-9-8/h1,6-8H,5H2,2-3H3	InChI=1S/C8H12O/c1-4-8-7(3)6(2)5-9-8/h1,6-8H,5H2,2-3H3/t6-,7-,8-/m0/s1
