23
gdb 119263	2.53022	0.82382	0.67822	1.3276	82.05	-0.2563	0.075	0.3312	1745.7201	0.20363	-425.406556	-425.395732	-425.394788	-425.443305	38.846	
C	-0.0768221985	 1.5928163766	-0.0985744256	-0.382447
C	-0.0297210525	 0.0637560639	-0.1601482343	-0.166705
C	-1.3523509383	-0.5835446357	 0.2758987286	-0.243939
C	-1.3898044049	-2.0948978323	 0.111200868	 0.394597
C	-0.3953853025	-2.8832820018	 0.9502458076	-0.273216
C	-0.5011115707	-4.4084793756	 0.8572341645	-0.081556
O	 0.5495807264	-5.0574889142	 1.5572023154	-0.420549
C	-2.6323494518	-2.7107322487	-0.3860829352	-0.233155
O	-1.5130982231	-2.5262566279	-1.2582064366	-0.277096
H	 0.8747777652	 2.0328108011	-0.4123352068	 0.11298
H	-0.8600589716	 1.9913512784	-0.7528118358	 0.116415
H	-0.2864093452	 1.9435298323	 0.9183379693	 0.113274
H	 0.1974851251	-0.2608392532	-1.1825823425	 0.113487
H	 0.7910892475	-0.2963654314	 0.4714061227	 0.097909
H	-1.561123974	-0.3331074032	 1.3249894317	 0.096085
H	-2.1682067759	-0.1558277726	-0.3185254662	 0.099224
H	 0.6166400182	-2.5934961752	 0.6358108863	 0.099533
H	-0.487940314	-2.5790671038	 1.9997614146	 0.110033
H	-1.4221684074	-4.7593253227	 1.3331678931	 0.110901
H	-0.5346657541	-4.7113237759	-0.1986934608	 0.11031
H	 1.3721044715	-4.8662721317	 1.0953606022	 0.280909
H	-2.8755194418	-3.7455480063	-0.1543204177	 0.114611
H	-3.4943615574	-2.07702359	-0.5928374725	 0.108396
58.0491	76.6654	88.0321	109.2265	146.7311	213.2909	246.2704	289.6963	303.7267	336.0171	359.1389	391.8722	458.1992	569.9337	737.777	749.0613	778.167	842.1082	881.6281	894.145	936.6264	976.3491	1027.2183	1049.2844	1065.148	1078.7963	1104.7713	1119.7381	1137.282	1170.4951	1194.1636	1220.2902	1267.5244	1305.554	1321.9542	1329.6637	1346.0742	1382.8358	1404.8978	1412.5066	1418.1541	1430.2955	1471.7782	1477.8392	1493.526	1500.2441	1510.2663	1518.9073	1535.7086	3009.5764	3014.0784	3017.9272	3028.8567	3032.4263	3052.7403	3059.1897	3072.6709	3082.3824	3088.2019	3098.5642	3103.363	3170.7038	3814.7939
CCCC1(CCO)CO1	CCC[C@@]1(CCO)CO1	
InChI=1S/C7H14O2/c1-2-3-7(4-5-8)6-9-7/h8H,2-6H2,1H3	InChI=1S/C7H14O2/c1-2-3-7(4-5-8)6-9-7/h8H,2-6H2,1H3/t7-/m1/s1
