18
gdb 24293	3.90217	1.58795	1.2383	2.1721	82.57	-0.1887	0.0441	0.2329	1008.337	0.151909	-364.844634	-364.838025	-364.83708	-364.875432	27.456	
C	-0.0138923427	 1.485358817	 0.0922688473	-0.28558
C	 1.304225098	 0.7590522653	 0.0295112457	-0.03791
C	 2.0151211014	 0.4211638116	 1.3415976207	-0.202843
N	 1.0562425047	-0.4450866456	 2.0147710054	-0.001771
C	 1.0002534567	-1.0821776831	 3.2264560696	-0.138755
C	-0.1638096819	-1.8228241208	 3.2413777232	-0.138809
C	-0.8363769421	-1.6176839982	 1.9991353294	-0.332247
C	-0.051143488	-0.7599915787	 1.2630908008	 0.370717
C	-0.0004759721	-0.028276502	-0.021215101	-0.188496
H	-0.3333719397	 1.9168579605	 1.0357416366	 0.121692
H	-0.3014508115	 2.0536278846	-0.7863127139	 0.112971
H	 1.9183635335	 0.8767476137	-0.8545271314	 0.095584
H	 2.9586310172	-0.1071388635	 1.1565485947	 0.118169
H	 2.2385599052	 1.3086001371	 1.9450582452	 0.120661
H	 1.7809081245	-0.9702207266	 3.961686028	 0.109319
H	-0.4995364969	-2.4461979066	 4.0566620461	 0.089066
H	-1.7825647846	-2.0402396313	 1.6985778658	 0.090038
H	-0.3489138917	-0.4975339532	-0.9330166221	 0.098195
141.6153	175.9684	315.6753	413.1415	423.7636	605.0301	614.2244	686.9414	697.3987	707.0029	763.2024	773.3407	801.1471	820.7151	823.0571	895.4848	922.5583	967.5995	999.7976	1029.2074	1056.7161	1069.2584	1083.6923	1099.6785	1114.4686	1172.2056	1194.38	1218.8123	1229.5763	1298.5061	1319.8321	1338.404	1369.3176	1426.3186	1446.864	1481.4375	1503.4352	1529.0935	1603.0931	3022.0206	3057.0268	3123.9701	3183.7318	3189.9952	3214.3144	3236.8058	3253.2148	3267.1957
C1C2CN3C=CC=C3C12	C1[C@H]2Cn3cccc3[C@@H]12	
InChI=1S/C8H9N/c1-2-8-7-4-6(7)5-9(8)3-1/h1-3,6-7H,4-5H2	InChI=1S/C8H9N/c1-2-8-7-4-6(7)5-9(8)3-1/h1-3,6-7H,4-5H2/t6-,7-/m0/s1
