18
gdb 41040	3.48917	1.88565	1.53457	2.0858	78.09	-0.2075	0.0601	0.2676	898.0647	0.149734	-364.683327	-364.676944	-364.676	-364.713722	27.08	
C	 0.0329412065	 1.5169137621	-0.0036868135	-0.203743
C	 1.5425920773	 1.9468297021	-0.0063096891	-0.371811
C	 2.1583526898	 0.8578105785	 0.8280294508	 0.321751
C	 3.3531083342	-0.0602296761	 1.1210064651	-0.218852
C	 2.4913737312	 0.4899141895	 2.2483535902	-0.078532
N	 1.5554542645	-0.7269950937	 2.2305460639	-0.234896
C	 2.381835371	-1.2803709547	 1.079791203	-0.164052
C	 1.2469156008	-0.3647130076	 0.802854508	 0.384481
C	-0.0164680684	-0.0495158224	 0.0484915698	-0.381855
H	-0.445219787	 1.9158662357	 0.897115672	 0.115544
H	-0.5087250571	 1.9181576411	-0.8642946663	 0.101027
H	 1.9406352739	 1.9248113373	-1.0280467656	 0.109854
H	 1.6775636036	 2.9616992266	 0.3768684696	 0.10923
H	 4.4119663706	 0.0613150992	 0.9373480413	 0.092806
H	 2.758589145	 1.0636782235	 3.1284970564	 0.093481
H	 2.5227542856	-2.3464181562	 0.939853791	 0.093684
H	-0.9265628699	-0.4198427826	 0.5266066096	 0.120264
H	 0.0244537483	-0.4696951422	-0.963083316	 0.111619
160.3174	221.54	300.6378	411.0373	528.537	617.1926	648.2098	668.3281	736.8173	805.2202	811.2146	821.9869	842.506	854.6692	879.7806	898.4626	912.1255	921.1248	952.2262	969.2862	993.668	1021.8425	1055.0242	1085.6847	1153.3169	1166.4912	1172.2793	1190.0491	1200.9014	1225.9352	1262.6524	1301.1506	1311.3561	1327.7241	1418.382	1440.6757	1474.6933	1483.0103	1497.1384	3033.6994	3041.5916	3051.3002	3091.8675	3099.4412	3109.7564	3170.6226	3174.5407	3209.4931
C1CC23C4C2N2C4C32C1	C1C[C@@]23[C@H]4[C@@H]2N2[C@H]4[C@]32C1	
InChI=1S/C8H9N/c1-2-7-4-5(7)9-6(4)8(7,9)3-1/h4-6H,1-3H2	InChI=1S/C8H9N/c1-2-7-4-5(7)9-6(4)8(7,9)3-1/h4-6H,1-3H2/t4-,5-,6+,7+,8+,9?/m0/s1
