20
gdb 118592	1.71432	1.32946	0.76031	1.9006	82.68	-0.2117	-0.0122	0.1995	1512.8073	0.169524	-436.504015	-436.493268	-436.492324	-436.541019	36.999	
C	-0.0242474719	 1.52916591	 0.0734742634	-0.407177
C	-0.0068967767	 0.021355523	-0.1560649107	-0.091968
N	-1.3299459299	-0.5361438621	 0.0567367427	-0.366193
C	-1.5433318892	-1.8751799252	-0.0056522699	 0.500116
N	-2.9073802377	-2.266805537	 0.1271870544	-0.377966
C	-4.029560663	-1.4912318968	 0.2020744654	 0.176097
O	-4.074342461	-0.2777552009	 0.1793577872	-0.322216
N	-0.5886639414	-2.7133703275	-0.1533080373	-0.335177
C	-0.8704929371	-4.1316846055	-0.1748780744	-0.340979
H	 0.9735509488	 1.9471890971	-0.0840788188	 0.122243
H	-0.7098762237	 2.0291172979	-0.6196289815	 0.123394
H	-0.3383750183	 1.7691541475	 1.094177245	 0.1265
H	 0.347611507	-0.2103468746	-1.1704002214	 0.107302
H	 0.6949731661	-0.4684411717	 0.5273425434	 0.122334
H	-2.1456856082	 0.0604267825	 0.0446259565	 0.271776
H	-3.0579169187	-3.2631719824	 0.1398731602	 0.26148
H	-4.9407339858	-2.112364624	 0.2883090337	 0.0971
H	 0.0651411068	-4.678987435	-0.3177852088	 0.128574
H	-1.3114470574	-4.5064240229	 0.7654049807	 0.102692
H	-1.5398423789	-4.4341746126	-0.9988494996	 0.102068
39.9251	58.5887	116.4917	132.659	136.9857	210.368	222.3938	252.6855	268.4573	297.0667	361.4703	463.5444	510.349	601.3739	616.8258	722.9897	804.1082	814.2376	858.3504	959.4484	1027.4837	1056.2609	1112.7924	1113.9798	1135.9338	1172.2228	1194.7955	1212.8059	1289.0255	1312.9042	1383.6971	1415.4033	1439.0379	1443.1158	1476.8839	1493.5792	1500.9387	1512.4028	1519.8116	1529.9476	1571.8703	1743.0262	1798.3732	2937.8217	2960.1371	2977.5515	3007.0131	3036.844	3060.7564	3090.5972	3104.9661	3119.7499	3571.8438	3640.5042
CCNC(NC=O)=NC	CCNC(=NC)NC=O	
InChI=1S/C5H11N3O/c1-3-7-5(6-2)8-4-9/h4H,3H2,1-2H3,(H2,6,7,8,9)	InChI=1S/C5H11N3O/c1-3-7-5(6-2)8-4-9/h4H,3H2,1-2H3,(H2,6,7,8,9)
