21
gdb 67803	2.2636	1.92232	1.53916	0.5005	86.97	-0.2144	0.0222	0.2366	1011.5923	0.183188	-349.939502	-349.931416	-349.930472	-349.971291	33.063	
C	-0.036001495	 1.4746256427	 0.0555163148	-0.500342
C	-0.019349879	-0.0330730877	-0.0370290996	 0.277401
C	 0.960056732	-0.721109331	-0.9319074838	-0.143496
C	 0.5465975257	-1.9653364649	-1.1936371725	-0.098908
C	-0.6880166833	-2.247989213	-0.3729102779	-0.157718
C	-0.2347773239	-2.3036401857	 1.1413034563	-0.231616
C	-0.4990134804	-0.8095842888	 1.2290156684	-0.155853
C	-1.3015679839	-0.8338703739	-0.0575972086	 0.314442
C	-2.6789027811	-0.3571274853	-0.4065244211	-0.521622
H	 0.908252706	 1.8547513316	 0.4618103541	 0.118519
H	-0.1821111919	 1.9323416333	-0.9295459841	 0.118077
H	-0.8379318749	 1.8303995167	 0.7098765015	 0.114888
H	 1.8785908633	-0.2574812055	-1.273224696	 0.088219
H	 1.0833802276	-2.7191768694	-1.7569356206	 0.091067
H	-1.3433619897	-3.0489761772	-0.7146684567	 0.063626
H	-0.9643914748	-2.853142191	 1.7426056692	 0.098758
H	 0.7720728843	-2.6848436387	 1.3434949685	 0.087807
H	-0.6853826981	-0.2489658527	 2.1391826712	 0.076637
H	-2.8639928851	 0.6477009656	-0.0136557259	 0.120306
H	-2.8232654417	-0.3217022355	-1.49313504	 0.122015
H	-3.4479569362	-1.0194473796	 0.0081426929	 0.117793
181.3585	194.3032	203.9459	231.3843	295.6319	315.5894	369.9005	432.9093	544.8077	578.0001	636.9131	691.861	722.0205	764.1647	798.6359	862.8533	864.5399	909.4733	926.5205	928.9782	957.9229	973.5459	1004.1149	1059.287	1076.0139	1093.7163	1105.2726	1129.6887	1158.1437	1172.0608	1198.7965	1237.7407	1247.5965	1268.772	1315.7877	1376.2578	1405.9082	1420.427	1436.7994	1483.2958	1488.4986	1491.4172	1497.1408	1506.9264	1646.2909	3019.6041	3025.397	3035.9282	3075.8725	3083.1103	3094.0197	3095.466	3101.1748	3111.4763	3161.9789	3187.0708	3213.7169
CC12C=CC3CC1C23C	C[C@@]12C=C[C@H]3C[C@@H]1[C@@]23C	
InChI=1S/C9H12/c1-8-4-3-6-5-7(8)9(6,8)2/h3-4,6-7H,5H2,1-2H3	InChI=1S/C9H12/c1-8-4-3-6-5-7(8)9(6,8)2/h3-4,6-7H,5H2,1-2H3/t6-,7-,8+,9-/m0/s1
