18
gdb 110151	2.41163	1.17075	0.84948	2.2036	77.82	-0.2605	-0.0407	0.2198	1350.7463	0.146256	-401.9796	-401.970377	-401.969433	-402.014306	33.098	
C	 0.1827468774	 1.6189921895	-0.0491888151	-0.389931
C	 0.3454481855	 0.0960447305	 0.0126045445	-0.206725
C	 0.56314091	-0.5215780191	-1.3658868212	-0.094616
C	 0.6528907172	-2.0885893667	-1.5049448127	-0.183355
C	-0.3307270641	-2.0441858404	-2.7240446511	-0.355553
C	-0.6203570981	-0.5818807913	-2.3502084505	 0.391493
O	-1.4923766702	 0.1849748884	-2.6349948397	-0.28486
C	 1.9693473492	-2.6551737468	-1.7325353925	 0.271462
N	 3.0233761708	-3.0903712822	-1.9245078545	-0.322379
H	 1.0842220372	 2.094551461	-0.4503986407	 0.12008
H	-0.6578744515	 1.8935532909	-0.6915119331	 0.150309
H	 0.0038560058	 2.0301362809	 0.9483971914	 0.119549
H	 1.1939438363	-0.169278083	 0.6550497308	 0.115948
H	-0.5449152415	-0.353989084	 0.4698821809	 0.104728
H	 1.4211880657	-0.0548032326	-1.8661947356	 0.125864
H	 0.1909424667	-2.5789284321	-0.6438145515	 0.132756
H	 0.1827191691	-2.124579446	-3.6864282018	 0.157648
H	-1.1754112254	-2.7353558969	-2.7116854174	 0.147582
58.5934	86.7286	136.1015	157.9591	196.7955	256.3874	284.4123	361.5906	429.42	485.8775	528.2619	611.8897	637.7569	733.2575	776.8008	820.5388	925.9765	944.0447	974.1649	1030.2391	1046.641	1055.9791	1094.938	1139.7685	1158.5895	1205.6678	1217.6588	1229.5865	1272.9945	1330.8229	1351.4781	1369.0759	1412.9809	1440.523	1488.8561	1498.4099	1511.6352	1893.856	2355.8328	3022.2005	3037.9626	3040.4717	3061.0456	3072.9233	3079.9334	3107.6481	3128.8526	3135.7929
CCC1C(CC1=O)C#N	CC[C@H]1[C@@H](CC1=O)C#N	
InChI=1S/C7H9NO/c1-2-6-5(4-8)3-7(6)9/h5-6H,2-3H2,1H3	InChI=1S/C7H9NO/c1-2-6-5(4-8)3-7(6)9/h5-6H,2-3H2,1H3/t5-,6-/m0/s1
