19
gdb 52404	5.13631	0.60768	0.59102	4.7133	73.85	-0.2583	0.0112	0.2695	1864.4173	0.158098	-460.163877	-460.154398	-460.153454	-460.200686	32.221	
O	 0.270943745	 0.1498027	-0.4550504317	-0.275741
C	 0.3341687108	 1.3422136148	-0.4521391793	 0.167611
O	 0.8307779025	 2.043746617	 0.5828966527	-0.176324
C	 0.8937716518	 3.4709845388	 0.4637029058	-0.088824
C	 2.3439140598	 3.9331660321	 0.3630444649	-0.213854
C	 2.4376087448	 5.4467221963	 0.2730658344	 0.158037
C	 3.7818371917	 6.0745160953	-0.1571190108	-0.300487
C	 2.9644429714	 6.6773345769	-1.317579506	-0.058958
O	 1.7766289821	 5.9639809807	-0.9093448971	-0.296676
H	-0.0080114722	 1.9902375497	-1.2834110086	 0.07937
H	 0.329640126	 3.8068798363	-0.4140857694	 0.134136
H	 0.4112186816	 3.8811606869	 1.3565871617	 0.122993
H	 2.9030019508	 3.5822917809	 1.2388040094	 0.117346
H	 2.8052994369	 3.4852951167	-0.5250268126	 0.108057
H	 2.0107653023	 5.9051273503	 1.1779792821	 0.076583
H	 4.2262765334	 6.784321945	 0.5413121376	 0.115722
H	 4.5370415599	 5.3464575464	-0.4601188869	 0.115362
H	 2.821427964	 7.7639528135	-1.2697224856	 0.1062
H	 3.2766517174	 6.4056797824	-2.3321345206	 0.109447
31.7435	47.6508	83.0847	101.8517	141.5339	187.9591	307.8532	348.8757	416.6048	473.2915	668.1517	748.1679	783.9572	820.9392	885.3089	935.0646	974.6943	999.4353	1028.2399	1045.1866	1050.6533	1087.8279	1106.8124	1144.836	1164.6506	1182.6245	1217.5705	1255.855	1266.6139	1289.1622	1307.0182	1332.146	1366.7513	1398.121	1410.9511	1433.2674	1476.6823	1491.5818	1511.4865	1532.7359	1866.2751	2942.2166	2985.4898	3020.9362	3031.8791	3041.1385	3063.4569	3073.2168	3080.4729	3097.8114	3137.1956
O=COCCC1CCO1	O=COCC[C@H]1CCO1	
InChI=1S/C6H10O3/c7-5-8-3-1-6-2-4-9-6/h5-6H,1-4H2	InChI=1S/C6H10O3/c7-5-8-3-1-6-2-4-9-6/h5-6H,1-4H2/t6-/m0/s1
