17
gdb 82646	2.41337	1.72889	1.34577	0.6832	67.43	-0.2167	0.0597	0.2765	1001.4826	0.134013	-458.878266	-458.869979	-458.869034	-458.91052	32.262	
C	 0.0427004318	 1.6238543644	-0.0347898884	-0.431585
C	 0.0532344659	 0.1033315302	-0.0182880473	-0.038237
C	 1.1261840181	-0.6512433093	-0.8622408133	-0.039605
O	 2.3994301079	-0.1019013826	-0.4219879117	-0.279727
C	 2.1874867484	-0.7772753277	 0.813990873	-0.098723
C	 0.6589721821	-0.6658825629	 1.1605968244	 0.276527
O	 0.1772123954	-0.8126021745	 2.4407797415	-0.457943
C	 1.1936107012	-1.7666566646	 0.2803057567	 0.2808
O	 0.9973565762	-3.114876461	 0.3359817609	-0.44343
H	 1.0559695212	 2.0140894019	 0.0896595066	 0.132117
H	-0.3580429674	 2.0070573279	-0.9794894852	 0.115382
H	-0.5851207296	 2.0190862952	 0.7715717237	 0.111493
H	-0.9327333439	-0.3173106978	-0.2440741856	 0.086427
H	 1.0470265213	-0.77093237	-1.9409270171	 0.086065
H	 2.9743302311	-0.8259044175	 1.5557732457	 0.111958
H	 0.4329209213	-0.0395625963	 2.9562992917	 0.291605
H	 1.7620983289	-3.5542376455	-0.0545562555	 0.296875
165.2781	189.6633	197.8498	215.4301	279.0762	314.166	339.5931	392.9137	411.2779	533.801	604.8711	641.1806	689.2243	733.5938	786.1136	804.1133	897.014	922.6999	962.3237	975.1593	1028.3007	1037.3475	1078.2986	1110.9529	1123.3115	1177.7757	1212.2981	1219.6033	1261.8163	1305.0349	1310.7555	1356.2375	1387.6169	1400.9413	1492.4373	1502.1452	1533.5464	3032.3446	3056.805	3091.6033	3123.496	3142.427	3207.1061	3782.9264	3794.2764
CC1C2OC3C1(O)C23O	C[C@H]1[C@H]2O[C@H]3[C@]1(O)[C@@]23O	
InChI=1S/C6H8O3/c1-2-3-6(8)4(9-3)5(2,6)7/h2-4,7-8H,1H3	InChI=1S/C6H8O3/c1-2-3-6(8)4(9-3)5(2,6)7/h2-4,7-8H,1H3/t2-,3+,4-,5-,6+/m0/s1
