14
gdb 49946	2.24715	1.26852	0.97939	3.7162	74.94	-0.2686	-0.0532	0.2154	1198.389	0.098088	-399.516864	-399.508068	-399.507124	-399.550713	31.456	
O	-0.0035556917	-0.0410164516	-0.3422154169	-0.247017
C	 0.0382905945	 1.0872011495	 0.0741110607	 0.164168
C	 1.2781395967	 1.9157196388	 0.0576837722	-0.139241
C	 1.1783768821	 3.3945322059	-0.1915795596	-0.31236
C	 1.5232723878	 2.928324214	 1.2136753918	-0.001906
C	 0.5496580278	 3.0748351221	 2.2646910845	 0.244772
C	-0.2534571121	 3.2115572578	 3.1470582657	-0.40393
C	 2.9031395413	 3.057929024	 1.6261576456	 0.246599
N	 4.0106552773	 3.1614121709	 1.940504884	-0.327652
H	-0.857970655	 1.5956634505	 0.4877446219	 0.096755
H	 2.160664058	 1.3979845391	-0.2992873571	 0.146424
H	 1.9646962183	 3.8644062424	-0.7690454097	 0.163769
H	 0.1898672845	 3.8239453966	-0.309385478	 0.154899
H	-0.9603701394	 3.3281502599	 3.931811775	 0.214721
83.1574	104.8187	131.9614	182.713	208.4738	298.4231	326.5813	443.4883	472.6261	489.9817	587.7269	610.5872	618.3878	640.9534	686.2627	824.8846	866.536	936.3751	975.5052	1034.0549	1071.519	1093.5994	1170.7766	1219.3102	1282.7354	1344.331	1437.486	1472.0109	1826.5503	2246.4035	2359.9422	2915.049	3149.5205	3197.2307	3247.5463	3498.3278
O=CC1CC1(C#C)C#N	O=C[C@H]1C[C@]1(C#C)C#N	
InChI=1S/C7H5NO/c1-2-7(5-8)3-6(7)4-9/h1,4,6H,3H2	InChI=1S/C7H5NO/c1-2-7(5-8)3-6(7)4-9/h1,4,6H,3H2/t6-,7-/m1/s1
