19
gdb 50398	2.68868	1.45289	1.07804	2.7458	82.19	-0.2282	-0.0223	0.2059	1141.8043	0.159877	-385.880839	-385.872848	-385.871904	-385.914037	30.474	
O	 0.0811965916	-0.1239313735	-0.0569374086	-0.25662
C	 0.078933516	 1.0798991428	-0.0941130057	 0.165118
C	 1.3146481157	 1.9514056108	-0.0468662849	-0.119105
C	 1.2186289101	 3.0748711345	-1.1466506873	-0.27647
C	 0.6911134941	 4.295013342	-0.3970161447	-0.242114
C	 0.8759731258	 4.1264486995	 0.9064563631	 0.324733
C	 0.3136069775	 4.3855034781	 2.2856375399	-0.322592
C	 0.3899804484	 2.8233221754	 2.480706224	-0.249451
C	 1.4057773343	 2.7709338241	 1.2746656202	-0.051682
H	-0.8788098078	 1.6455886652	-0.1774156757	 0.074878
H	 2.1765368355	 1.2957472693	-0.1874570861	 0.088836
H	 2.1992788119	 3.2471821542	-1.609102854	 0.11544
H	 0.5464500333	 2.7829664329	-1.9640519633	 0.109113
H	 0.1798457169	 5.1114196124	-0.8933602721	 0.09664
H	 1.0137360989	 4.9015235212	 2.9511128885	 0.116693
H	-0.6621941672	 4.8710429193	 2.356040547	 0.115685
H	 0.756600102	 2.463620092	 3.4442240332	 0.107917
H	-0.5662959392	 2.3458286006	 2.2591904573	 0.116803
H	 2.4315730321	 2.7781823191	 1.660731799	 0.086179
62.3193	71.1589	222.0205	240.2428	303.578	356.958	413.7178	441.2382	625.1821	670.9885	711.4418	774.1053	824.985	832.7168	882.413	899.9117	908.3752	938.6232	976.8153	993.3008	1021.7976	1052.9623	1094.2684	1101.0528	1128.28	1184.2331	1196.3096	1207.6947	1235.4849	1237.011	1257.2082	1284.5902	1308.4408	1315.581	1346.8982	1430.5253	1474.0886	1486.3235	1488.5843	1741.4286	1830.1591	2853.7369	3015.8229	3032.2095	3043.2122	3049.7015	3073.6365	3093.7117	3107.4407	3135.0834	3200.2343
O=CC1CC=C2CCC12	O=C[C@H]1C[CH][C]2CC[C@@H]12	
InChI=1S/C8H10O/c9-5-7-2-1-6-3-4-8(6)7/h1,5,7-8H,2-4H2	InChI=1S/C8H10O/c9-5-7-2-1-6-3-4-8(6)7/h1,5,7-8H,2-4H2/t7-,8-/m1/s1
