19
gdb 86682	2.56594	1.27633	0.99119	3.4284	77.07	-0.2437	-0.0237	0.22	1222.1986	0.157453	-423.004769	-422.995681	-422.994737	-423.039261	33.617	
O	 0.4924467379	 0.7842678662	-0.9156354261	-0.428137
C	 0.167550769	-0.2498439266	-0.0178843731	 0.059017
C	 0.1338384735	 0.0678307353	 1.5043020875	-0.28992
C	-1.2546180292	-0.6463742371	 1.605996072	-0.154851
C	-2.3137665222	 0.0916858723	 2.3765521844	 0.158777
O	-3.0513044351	-0.4011879923	 3.1917659164	-0.255518
C	-1.3241613289	-0.5678818413	 0.0629645811	 0.321494
C	-2.3746245824	 0.1289950426	-0.7590985661	-0.315026
C	-2.157694834	-1.3583037123	-0.8970463491	-0.330391
H	 1.4470451451	 0.8025547836	-1.0325306852	 0.287511
H	 0.7598638592	-1.1527151808	-0.2267491425	 0.071064
H	 0.9359877656	-0.3190486235	 2.1357257893	 0.106402
H	 0.034872931	 1.1472043577	 1.6558200718	 0.115039
H	-1.1912522894	-1.6721547292	 1.9773627449	 0.088623
H	-2.3729877684	 1.1782157808	 2.1300358623	 0.07283
H	-3.2820617719	 0.4671702157	-0.2702286231	 0.119341
H	-2.0177906728	 0.7763034212	-1.5519032868	 0.136013
H	-1.6735701648	-1.7247482108	-1.7971179527	 0.11716
H	-2.9107297021	-2.0244958515	-0.4883446352	 0.120571
54.3499	58.6585	192.0657	216.5559	221.9441	238.6571	314.999	401.1073	427.2233	436.0523	529.7504	571.1988	724.2827	781.3148	840.541	867.5971	884.4135	927.548	960.6789	981.816	1026.3261	1057.7801	1067.3657	1080.7265	1085.7734	1149.6648	1157.413	1192.1422	1207.0726	1216.6737	1249.8415	1262.5969	1295.315	1313.7446	1366.0049	1422.9553	1439.6372	1460.1005	1477.5005	1500.1697	1825.2864	2853.2153	2990.4922	3057.1121	3083.4428	3123.3506	3124.0752	3135.8351	3206.2324	3227.3092	3827.7731
OC1CC(C=O)C11CC1	O[C@H]1C[C@@H](C=O)C21CC2	
InChI=1S/C7H10O2/c8-4-5-3-6(9)7(5)1-2-7/h4-6,9H,1-3H2	InChI=1S/C7H10O2/c8-4-5-3-6(9)7(5)1-2-7/h4-6,9H,1-3H2/t5-,6-/m0/s1
