12
gdb 23790	3.98092	1.86759	1.27122	3.0347	62.14	-0.217	-0.041	0.176	849.9461	0.085349	-418.806954	-418.800639	-418.799695	-418.837486	23.829	
F	 0.1111698157	 0.0650480925	 0.0015915654	-0.053628
C	-0.0533344482	 1.378987587	 0.0112046142	 0.420027
C	-1.2494982265	 1.991058612	 0.0306333588	-0.3458
C	-1.2812199402	 3.4449390166	 0.0392051206	 0.297528
N	-2.3896198218	 4.1007954861	 0.0578577495	-0.547867
C	 0.0652774129	 4.0452219623	 0.0245118901	-0.047172
N	 1.1911929956	 3.4111724276	 0.0058736133	-0.185203
N	 1.1265676528	 2.0616621537	-0.0007228264	-0.29197
H	-2.1668204396	 1.4196103626	 0.0396900827	 0.134349
H	-2.2052794834	 5.1063481336	 0.06108124	 0.205906
H	 0.1493918181	 5.1293652704	 0.0294315016	 0.12756
H	 2.0064642347	 1.5725560259	-0.0154418199	 0.28627
137.8602	210.0054	346.7086	370.0264	476.6921	480.8053	525.7506	534.0584	649.2099	726.5	743.2354	830.5096	873.16	942.9952	952.1152	1042.033	1115.8119	1157.1064	1228.747	1332.492	1368.3708	1399.6459	1508.3394	1626.97	1668.459	1711.2767	3164.4319	3239.7457	3441.7903	3659.2303
FC1=CC(=N)C=NN1	F[C@@H]1C=C([NH])C=NN1	
InChI=1S/C4H4FN3/c5-4-1-3(6)2-7-8-4/h1-2H,(H2,6,8)	InChI=1S/C4H5FN3/c5-4-1-3(6)2-7-8-4/h1-2,4,6,8H/t4-/m0/s1
