23
gdb 107466	2.13748	1.50473	1.23606	1.7254	84.89	-0.2258	0.0727	0.2985	1190.1396	0.20346	-388.266674	-388.256827	-388.255883	-388.300774	38.022	
C	-0.4526708247	 1.5236975564	-0.0773665686	-0.373245
C	 0.017037561	 0.0692245874	 0.0725166151	-0.299257
C	 0.7470343419	-0.4456029652	-1.1389920912	 0.255413
C	 0.020760655	-0.9840409425	-2.3639685841	-0.362952
C	 1.0196160395	-1.8391013055	-1.6507205454	 0.038274
O	 2.3433244362	-1.5247402805	-2.0789095296	-0.340257
C	 2.2274778592	-0.1734394137	-1.5065424601	 0.369617
C	 2.5507978411	 0.9030835169	-2.5321067185	-0.436555
C	 3.1402562789	-0.0863979163	-0.2890553826	-0.429405
H	 0.3947427333	 2.2027103693	-0.2199005945	 0.117531
H	-1.1137311946	 1.6343089315	-0.9429449934	 0.120291
H	-0.9981673072	 1.8555767639	 0.8114899201	 0.111329
H	 0.6533343483	-0.0202151119	 0.961459316	 0.100192
H	-0.8519806196	-0.5741963673	 0.2584631351	 0.097477
H	-1.023141809	-1.2245259451	-2.1813574595	 0.107966
H	 0.2387448835	-0.6378131451	-3.3697618142	 0.111351
H	 0.8371760335	-2.8254939135	-1.2383335648	 0.098006
H	 1.8805144837	 0.857102971	-3.3928702976	 0.119216
H	 2.4686504391	 1.8983180227	-2.0825799334	 0.11588
H	 3.5766655579	 0.7790699117	-2.8946013142	 0.123617
H	 4.1834192314	-0.1870877096	-0.60389281	 0.121979
H	 3.0290215544	 0.8751391868	 0.2237135601	 0.112228
H	 2.9199766473	-0.8880588114	 0.4207612652	 0.121304
73.8053	125.4213	187.8596	203.1499	226.745	244.625	269.8104	309.6358	354.3215	397.0589	427.7004	481.2695	496.9324	637.7062	663.6629	775.7866	827.0003	853.9859	879.2072	904.3578	932.8256	981.3205	989.0052	994.2275	1006.4215	1016.1541	1040.69	1075.17	1094.1864	1122.6468	1158.5497	1216.7679	1227.0808	1254.8896	1287.2709	1335.1993	1352.8115	1393.1114	1403.786	1408.2142	1416.0357	1469.9879	1476.2922	1481.8101	1489.7234	1494.8403	1498.1335	1503.6748	1508.1606	3023.361	3033.937	3034.4648	3040.7982	3054.3669	3100.8291	3102.3864	3107.4648	3108.8319	3114.8573	3118.9688	3128.6555	3168.5591	3202.141
CCC12CC1OC2(C)C	CC[C@]12C[C@H]1OC2(C)C	
InChI=1S/C8H14O/c1-4-8-5-6(8)9-7(8,2)3/h6H,4-5H2,1-3H3	InChI=1S/C8H14O/c1-4-8-5-6(8)9-7(8,2)3/h6H,4-5H2,1-3H3/t6-,8+/m1/s1
