14
gdb 19545	4.57813	1.8044	1.71554	4.8175	67.17	-0.255	-0.0033	0.2516	785.3528	0.109481	-341.518303	-341.512316	-341.511372	-341.548382	23.349	
N	-0.0712669569	-1.1462609819	 0.0023422501	-0.356338
C	-0.0498320487	 0.0118665369	 0.005406929	 0.133854
C	-0.0357066972	 1.4235327384	 0.0094520347	 0.315755
C	-0.7791436547	 2.4878234862	 0.7887140997	-0.13295
C	 0.5676471815	 3.0729263686	 1.1801442861	-0.176482
N	 1.1988566977	 2.3650585325	-0.0053514801	-0.195584
C	 0.5341407845	 3.079595322	-1.1683123145	-0.176493
C	-0.8010622023	 2.4924290899	-0.7417787121	-0.132967
H	-1.6834842265	 2.3546192878	 1.3681775483	 0.120082
H	 0.7025719178	 4.1592065223	 1.1794165767	 0.111002
H	 0.9596208667	 2.6464763534	 2.1056383032	 0.129527
H	 0.6692682205	 4.1658410174	-1.165321997	 0.110979
H	 0.8994111411	 2.6583439381	-2.1070206051	 0.129541
H	-1.7216707135	 2.3626708384	-1.2958486892	 0.120077
142.5834	174.4211	422.5841	438.8538	529.3469	548.1946	562.4273	730.3589	773.1338	816.6692	898.2067	910.2221	917.2747	928.4506	970.429	1009.0484	1018.9956	1087.4988	1089.9083	1100.7224	1161.9188	1188.0089	1230.197	1261.1321	1299.589	1302.109	1414.2821	1502.0057	1523.6485	2341.0855	3049.7552	3057.7976	3119.1484	3122.3715	3202.7954	3211.6454
N#CC12C3CN1CC23	N#C[C@@]12[C@H]3CN1C[C@@H]23	
InChI=1S/C6H6N2/c7-3-6-4-1-8(6)2-5(4)6/h4-5H,1-2H2	InChI=1S/C6H6N2/c7-3-6-4-1-8(6)2-5(4)6/h4-5H,1-2H2/t4-,5+,6-
