16
gdb 81818	2.18552	1.75504	1.18627	5.1647	68.98	-0.2705	0.0182	0.2887	1053.091	0.122958	-437.86373	-437.855297	-437.854353	-437.896803	31.271	
C	-0.1586312427	 1.4779373315	 0.0505560024	-0.505717
C	 0.144520642	 0.0183442796	-0.0102409926	 0.424919
O	-0.7052407409	-0.8988632002	 0.6904824328	-0.28559
C	 0.7077871399	-0.9373372527	 0.9607403358	-0.101034
C	 1.2971287846	-1.831373672	-0.1390921823	 0.134878
O	 0.849719251	-3.1420196749	-0.2003297745	-0.413263
C	 0.7291039699	-0.7740165975	-1.2048572244	-0.320036
C	-0.216508157	-1.2664015365	-2.1882774614	 0.302655
N	-0.9802945638	-1.6712582659	-2.9558729621	-0.328778
H	 0.7069109144	 2.0668646009	-0.2681599474	 0.133203
H	-0.9978854163	 1.7231906059	-0.6087084431	 0.152041
H	-0.4267339414	 1.7660882835	 1.0699484699	 0.145282
H	 1.0194871103	-0.8086385367	 1.9908786013	 0.119751
H	 2.388477395	-1.8499623308	-0.1597128989	 0.111193
H	-0.1103127396	-3.1214473442	-0.0876659781	 0.303009
H	 1.5471140945	-0.24227924	-1.6979157874	 0.127488
93.1256	123.2652	166.2868	201.7247	239.0262	335.344	378.728	399.5556	470.4	546.5131	572.1601	615.5005	726.6605	755.5273	803.6643	856.3623	890.0295	934.9084	1009.32	1042.0322	1044.361	1089.983	1113.8949	1153.1567	1193.4149	1250.8113	1260.1022	1305.0962	1328.7542	1406.8262	1435.7445	1468.655	1484.4876	1495.3229	2356.3872	3041.9262	3083.6446	3105.1883	3107.9717	3129.1328	3190.1662	3767.0803
CC12OC1C(O)C2C#N	C[C@]12O[C@H]1[C@@H](O)[C@H]2C#N	
InChI=1S/C6H7NO2/c1-6-3(2-7)4(8)5(6)9-6/h3-5,8H,1H3	InChI=1S/C6H7NO2/c1-6-3(2-7)4(8)5(6)9-6/h3-5,8H,1H3/t3-,4+,5+,6-/m1/s1
