19
gdb 82663	2.92108	1.65858	1.32273	3.2315	78.82	-0.231	-0.0011	0.23	1012.5364	0.161264	-385.876354	-385.869179	-385.868234	-385.907719	29.285	
C	-0.1113627438	 1.4979759322	 0.0260323376	-0.433473
C	 0.0981460623	-0.0138404546	 0.0485213063	 0.045146
C	 1.0380578147	-0.6185662832	-1.0295450764	-0.057338
C	 2.4111760339	 0.0304665923	-0.7178472783	-0.245567
C	 2.318548996	-0.805040718	 0.5659049923	-0.032594
C	 1.5303631717	-1.9175282912	-0.2553692415	-0.168946
C	 0.6817231998	-2.0873762262	 0.9915698767	 0.436633
O	 0.2366372711	-3.0140336019	 1.6051887799	-0.336781
C	 0.8986366558	-0.5907559625	 1.2559495021	-0.184943
H	 0.8094301619	 2.0564252898	 0.2125189658	 0.12307
H	-0.5113371978	 1.8203219252	-0.9422209123	 0.117729
H	-0.8320028845	 1.7917893732	 0.7959457624	 0.121506
H	-0.8874435079	-0.492937813	-0.0056446768	 0.084775
H	 0.6565105746	-0.6846888921	-2.0486122532	 0.070628
H	 3.1970340911	-0.3574711346	-1.3716292744	 0.105962
H	 2.4928110053	 1.1184950282	-0.6638071082	 0.097882
H	 3.1576127412	-1.0419349391	 1.2166899252	 0.086435
H	 2.004572015	-2.7245245475	-0.8092475806	 0.088874
H	 0.7730097795	-0.1421853669	 2.2389793034	 0.081004
140.0948	178.0262	241.9318	261.0447	376.4086	490.9784	516.9772	559.1934	640.7584	728.913	774.9279	793.7056	808.3469	822.1957	857.532	923.6201	934.829	987.6503	989.6372	1009.7471	1029.5204	1048.0983	1066.9079	1097.5019	1102.3878	1116.7825	1150.313	1175.6259	1190.6992	1218.	1225.2605	1255.2636	1257.473	1300.148	1325.1193	1395.492	1411.8985	1490.8805	1494.8049	1519.7494	1887.6665	3021.7553	3034.0463	3060.2947	3096.2206	3106.819	3113.4434	3119.9031	3137.8537	3147.6286	3152.6829
CC1C2CC3C2C(=O)C13	C[C@H]1[C@H]2C[C@@H]3[C@H]2C(=O)[C@H]13	
InChI=1S/C8H10O/c1-3-4-2-5-6(3)8(9)7(4)5/h3-7H,2H2,1H3	InChI=1S/C8H10O/c1-3-4-2-5-6(3)8(9)7(4)5/h3-7H,2H2,1H3/t3-,4+,5-,6+,7-/m0/s1
