15
gdb 43988	3.32771	1.56875	1.34369	2.2405	65.19	-0.2537	-0.0344	0.2193	945.2636	0.112684	-457.720547	-457.7136	-457.712656	-457.752008	26.785	
O	-0.0432324042	 0.0019431094	 0.1012867951	-0.289476
C	-0.0380748149	 1.186617094	-0.0390802576	 0.370212
C	-1.1670377537	 2.2644957858	-0.1393475585	-0.417303
C	-0.0528406836	 3.2876348212	 0.15037788	 0.274482
C	 0.3012097534	 4.2585433233	 1.2458792877	-0.157432
O	 1.6824522522	 4.009258951	 1.5282190416	-0.259085
C	 2.0397456764	 2.6589962923	 1.1920122023	-0.164917
C	 1.0308458757	 2.263308099	 0.1504630633	 0.13369
O	 0.8689010361	 3.2128291626	-0.9188523877	-0.267678
H	-1.6848490411	 2.3928341241	-1.0904615602	 0.144141
H	-1.8911634196	 2.1192056368	 0.6673524038	 0.14218
H	 0.2176207477	 5.3134563267	 0.9697446534	 0.131805
H	-0.3414780031	 4.0698825081	 2.1202561384	 0.107206
H	 3.0771683189	 2.6777889042	 0.8488999088	 0.134825
H	 1.9610923599	 1.9839787414	 2.0570215894	 0.117351
96.1915	200.0385	238.7409	303.9038	388.2424	460.4606	536.9019	573.7892	602.7254	684.1894	710.5298	837.1993	864.9177	872.0418	907.9298	933.8867	1007.0828	1023.2304	1056.8548	1077.8994	1108.7475	1192.6051	1193.2484	1213.1556	1246.4415	1257.7197	1354.6195	1385.766	1392.5291	1445.3283	1501.4359	1510.4315	1891.6525	2987.5186	3004.4139	3074.781	3087.4419	3097.5454	3140.2784
O=C1CC23COCC12O3	O=C1C[C@@]23COC[C@@]12O3	
InChI=1S/C6H6O3/c7-4-1-5-2-8-3-6(4,5)9-5/h1-3H2	InChI=1S/C6H6O3/c7-4-1-5-2-8-3-6(4,5)9-5/h1-3H2/t5-,6-/m1/s1
