18
gdb 23377	5.07151	0.99974	0.93089	1.6713	81.48	-0.2293	0.0315	0.2608	1285.132	0.147025	-401.82646	-401.81851	-401.817566	-401.858789	31.054	
C	-0.1847655223	 1.5847221453	-0.0423420091	-0.420639
C	-0.0278124141	 0.0734683801	-0.0006425011	-0.014857
C	 1.2074422322	-0.5890032079	-0.6511204737	-0.037205
C	 2.1548209078	-0.2349400248	 0.5673097596	-0.169131
C	 0.7337030194	-0.587959669	 1.1700213502	-0.037206
C	 1.1197251448	-1.8475279096	 0.2989715038	-0.152265
C	 2.5622875707	-1.6821951052	 0.674135198	 0.479329
N	 3.5323745297	-2.4483567007	 0.9269296521	-0.320682
O	 4.6999138798	-1.698431073	 1.2302196593	-0.407465
H	 0.7507783713	 2.0987014007	 0.2007756715	 0.117329
H	-0.5001987088	 1.9183775581	-1.0370645153	 0.119063
H	-0.9449066807	 1.919356036	 0.6721520599	 0.119062
H	-0.97463025	-0.4235363318	-0.2466560688	 0.069249
H	 1.5190820769	-0.6158379216	-1.6962811461	 0.084285
H	 2.7350055031	 0.6701380031	 0.7177163877	 0.097105
H	 0.4965350118	-0.6135866307	 2.2345845242	 0.084285
H	 0.5216153188	-2.7426144641	 0.1438963211	 0.087184
H	 5.3408096896	-2.397060015	 1.3973427966	 0.30256
116.8301	136.8396	214.3929	260.4394	261.9534	322.1839	395.1942	438.6574	595.1781	674.0704	688.3401	729.2285	790.6669	824.2824	830.158	841.7357	873.7526	942.2777	958.158	1005.2565	1043.6741	1048.3897	1088.4288	1104.2385	1122.7709	1126.8418	1134.0033	1152.5191	1171.6296	1217.0136	1236.6616	1245.5318	1296.4078	1396.5951	1411.6074	1418.2838	1494.1604	1498.9731	1823.2434	3026.8379	3030.5303	3092.3179	3102.1094	3103.2688	3106.0303	3150.3676	3171.0961	3823.4688
CC1C2C3C1C2C3=NO	C[C@H]1[C@H]2[C@H]3[C@@H]1[C@@H]2C3=NO	
InChI=1S/C7H9NO/c1-2-3-5-4(2)6(3)7(5)8-9/h2-6,9H,1H3	InChI=1S/C7H9NO/c1-2-3-5-4(2)6(3)7(5)8-9/h2-6,9H,1H3/t2-,3-,4+,5-,6+
