19
gdb 15094	2.71479	1.73106	1.45809	1.8869	67.23	-0.2302	0.0709	0.3012	962.5183	0.16579	-402.150283	-402.141841	-402.140897	-402.183249	31.627	
O	-0.2716539008	 1.6516531025	-0.108826129	-0.424575
C	 0.0576684471	 0.2798066521	 0.1236644817	-0.080943
C	-1.1814405835	-0.6238439206	 0.063597339	 0.012215
C	-2.1372055088	-0.3430192249	 1.2395651101	-0.083807
O	-2.59937405	 0.9926934773	 1.3192622973	-0.427071
N	-1.7156614971	-0.5253242229	-1.3070938658	-0.111861
C	-2.8503963945	-1.3618185245	-1.678410288	-0.226119
C	-3.0161117374	 0.110228551	-1.569985829	-0.236556
H	-0.6238684072	 1.6926830653	-1.0062456746	 0.301343
H	 0.7953368414	-0.0653370216	-0.6114891341	 0.107057
H	 0.5146675297	 0.2421850208	 1.1177304749	 0.11191
H	-0.8270142567	-1.6572363216	 0.1856608287	 0.084523
H	-3.0243096694	-0.9856821837	 1.1759436574	 0.101249
H	-1.6092952606	-0.6349619062	 2.1638359117	 0.089638
H	-1.8721752287	 1.5610828141	 1.0233102599	 0.292313
H	-2.7777615189	-1.8447983778	-2.6494550709	 0.115726
H	-3.3159092183	-1.9719569876	-0.9062881274	 0.112524
H	-3.5752795301	 0.5049570417	-0.729210467	 0.152901
H	-3.0509063063	 0.7153627465	-2.472919135	 0.109534
67.1479	114.6655	182.8825	241.5385	248.81	323.8479	340.2984	381.7757	448.3553	512.6987	633.3128	679.2027	809.2382	819.2284	845.6812	904.5259	910.4342	977.4623	983.896	1032.4268	1068.2069	1103.0671	1117.7166	1128.0197	1131.5458	1176.6406	1186.8514	1222.0242	1255.0868	1318.013	1319.8632	1352.7913	1385.6784	1394.8613	1419.558	1475.9126	1496.6142	1502.1936	1514.5966	1531.969	2955.0407	3011.1042	3028.6857	3041.9364	3088.1998	3095.5857	3111.272	3176.4461	3217.0122	3694.453	3795.0517
OCC(CO)N1CC1	OCC(CO)N1CC1	
InChI=1S/C5H11NO2/c7-3-5(4-8)6-1-2-6/h5,7-8H,1-4H2	InChI=1S/C5H11NO2/c7-3-5(4-8)6-1-2-6/h5,7-8H,1-4H2
