19
gdb 13427	3.61043	1.35136	1.16732	1.6725	77.55	-0.2197	0.0504	0.2701	1099.7331	0.162767	-327.858949	-327.849607	-327.848663	-327.892963	33.967	
C	-0.1320947482	 1.4945879508	 0.6521377346	-0.41407
C	 0.070925587	 0.0511004203	 0.2413855563	-0.002913
C	 0.400874085	-0.3751964011	-1.1567746039	 0.008162
C	 0.5745667217	 0.5907505994	-2.3096952576	-0.419533
N	 1.3808344362	-0.5350307335	-0.0754117263	-0.10493
C	 2.5811398884	 0.3009648193	-0.043711321	-0.31447
C	 3.640179532	-0.2726713239	-0.8717796698	 0.327813
C	 4.5118946443	-0.729345472	-1.5610137804	-0.442753
H	 0.187937524	 1.6514427313	 1.6883670972	 0.124645
H	 0.4031805343	 2.2105853658	 0.026080783	 0.12016
H	-1.1970870763	 1.7447715766	 0.5986689338	 0.123524
H	-0.5428405053	-0.633193863	 0.8279716894	 0.088216
H	-0.0005356258	-1.3358189882	-1.4798449721	 0.088022
H	 0.8693634733	 1.5954434824	-2.0010900783	 0.117358
H	 1.3337117466	 0.220599223	-3.0062995067	 0.137757
H	-0.368433626	 0.6802240555	-2.8592666547	 0.121298
H	 2.424855873	 1.3450150603	-0.3549362746	 0.111973
H	 2.9210907262	 0.3417988955	 0.9990708712	 0.134255
H	 5.2842384196	-1.1381630585	-2.1640452799	 0.195487
52.839	113.8976	143.2111	166.8112	225.0198	231.5686	293.6058	337.3858	404.0475	489.0342	500.2801	561.4779	608.2227	652.574	734.6612	777.1311	840.5901	948.6012	961.7397	1006.7091	1033.9226	1042.8073	1059.9074	1126.1637	1164.2243	1174.9774	1197.3315	1261.9508	1345.7068	1366.9084	1383.1388	1413.4991	1419.9684	1439.0928	1479.2303	1488.6258	1495.4413	1503.3615	1512.4156	2241.709	2983.0562	3034.8398	3037.3861	3042.7965	3087.2417	3091.5951	3098.5133	3100.9891	3126.3303	3137.394	3506.6306
CC1C(C)N1CC#C	C[C@H]1[C@@H](C)N1CC#C	
InChI=1S/C7H11N/c1-4-5-8-6(2)7(8)3/h1,6-7H,5H2,2-3H3	InChI=1S/C7H11N/c1-4-5-8-6(2)7(8)3/h1,6-7H,5H2,2-3H3/t6-,7+,8?
