25
gdb 101016	2.05257	1.13957	0.94822	1.6709	88.34	-0.2555	0.08	0.3355	1459.2124	0.226726	-389.483834	-389.472857	-389.471913	-389.520129	40.679	
C	-0.1343708488	 1.4489789862	-0.1053459242	-0.394337
C	 0.3912962077	 0.0187631553	 0.0528399167	-0.161693
C	 0.6311799155	-0.732418504	-1.277960618	-0.031931
C	 1.7715240821	-0.0970331759	-2.0833902375	-0.418732
C	 0.8450861436	-2.2230126707	-0.9861871582	 0.416262
C	-0.4026306539	-3.0375363689	-0.6680334486	-0.258422
C	-1.2485954808	-3.3675117665	-1.9047327271	-0.380968
C	 2.0147419087	-2.9700970399	-1.4815009746	-0.232013
O	 1.9704077726	-2.5051249863	-0.1310882046	-0.291107
H	 0.5788933768	 2.0990301558	-0.6209855317	 0.118259
H	-1.0716196472	 1.4679768777	-0.673716173	 0.11029
H	-0.3331933225	 1.8975483008	 0.8731241064	 0.113069
H	 1.3303424657	 0.0214969592	 0.6181596787	 0.112876
H	-0.3228751198	-0.5465370528	 0.6622923368	 0.096639
H	-0.2876930941	-0.6554575628	-1.8760285074	 0.069328
H	 1.8789532422	-0.5630571846	-3.0672964529	 0.111239
H	 1.5887545934	 0.9680320997	-2.2466431478	 0.114083
H	 2.7228962687	-0.1943844517	-1.549432559	 0.130298
H	-0.0757927488	-3.9622509865	-0.1811557518	 0.108786
H	-1.0183969681	-2.5045025142	 0.065635927	 0.101448
H	-1.621677251	-2.4638824621	-2.3973545573	 0.120502
H	-0.6681226126	-3.9313516911	-2.6425763913	 0.117001
H	-2.117574089	-3.9725049628	-1.6290394437	 0.116769
H	 1.9374271406	-4.0511243332	-1.6029513219	 0.10222
H	 2.758973409	-2.4946057506	-2.1146214249	 0.110134
48.4964	71.6285	96.2557	183.9201	197.6411	228.9392	234.4509	255.7391	311.7817	319.6871	361.0826	405.796	428.2519	478.8339	574.5353	700.2431	773.1895	789.2591	832.113	853.2052	900.2299	947.759	970.257	985.3444	1002.6847	1037.8668	1064.5446	1090.841	1105.2865	1135.6846	1146.6899	1173.7636	1184.6137	1233.0699	1272.0433	1286.2801	1330.0654	1352.5836	1362.2957	1387.6604	1393.566	1412.714	1414.0767	1417.5001	1482.4374	1490.4665	1495.8858	1501.2249	1504.6685	1506.5226	1510.4051	1511.8017	1534.878	3006.7776	3030.8183	3034.6971	3035.7243	3038.5163	3042.2944	3069.0305	3075.9983	3082.2613	3097.2624	3103.8082	3105.9797	3106.781	3107.1834	3117.0125	3176.184
CCC(C)C1(CC)CO1	CC[C@@H](C)[C@@]1(CC)CO1	
InChI=1S/C8H16O/c1-4-7(3)8(5-2)6-9-8/h7H,4-6H2,1-3H3	InChI=1S/C8H16O/c1-4-7(3)8(5-2)6-9-8/h7H,4-6H2,1-3H3/t7-,8-/m1/s1
