16
gdb 28251	4.56545	1.21928	0.98521	13.4634	84.54	-0.1263	-0.0149	0.1114	1141.5754	0.126449	-437.84818	-437.840845	-437.839901	-437.880144	28.215	
O	 0.1214910721	 0.1007424795	 0.0951500165	-0.401806
C	-0.0794311169	 1.2896060226	 0.0553880302	 0.390001
C	-1.216325379	 2.1484281501	 0.0693007704	-0.581048
C	-0.7488734783	 3.465814252	-0.0496623366	 0.327966
C	 0.6157228421	 3.4389263047	-0.1395731236	 0.264455
C	 1.2639401663	 4.7556047865	-0.0011023634	-0.332048
N	 0.061300984	 5.6259278527	-0.3952224819	-0.248818
H	 0.1040695197	 6.5551742853	 0.0345229109	 0.279527
H	 0.0612090723	 5.7239188172	-1.4087167353	 0.310288
C	-1.2231098472	 4.8697295224	 0.0148381967	-0.338861
O	 1.1117063561	 2.1963594979	-0.064838149	-0.301441
H	-2.2283142286	 1.7810274299	 0.0961311505	 0.080709
H	 1.5500946467	 5.0934870383	 1.0172164653	 0.120345
H	 2.1016772819	 4.9890494193	-0.6706992561	 0.143022
H	-2.0197317092	 5.1726487614	-0.6731862601	 0.145171
H	-1.4842318819	 5.2313136402	 1.0207509456	 0.142538
89.5222	158.1726	207.4212	292.9188	319.0476	502.0301	558.8384	575.3269	599.0413	635.7206	662.4471	700.7378	723.0185	801.0936	813.122	872.5993	901.4467	989.1611	1030.0808	1060.0703	1109.7039	1139.777	1198.7719	1211.5482	1251.577	1326.9822	1348.7147	1354.8798	1425.2848	1500.4144	1507.9868	1522.706	1570.9624	1604.2235	1849.8823	2855.0428	2992.9566	3017.5922	3058.7373	3266.257	3374.2744	3524.4281
[O-]C1=CC2=C(C[NH2+]C2)O1	O=C1[CH]C2=C(C[NH2]C2)O1	
InChI=1S/C6H7NO2/c8-6-1-4-2-7-3-5(4)9-6/h1,7-8H,2-3H2	InChI=1S/C6H7NO2/c8-6-1-4-2-7-3-5(4)9-6/h1H,2-3,7H2
