17
gdb 116548	1.90765	1.26481	0.79309	2.5446	82.57	-0.2517	-0.0548	0.1969	1425.1476	0.134998	-414.197095	-414.187127	-414.186183	-414.233295	34.143	
C	 0.1506926125	 1.6123785264	-0.0815442625	-0.362918
C	 0.1439845246	 0.0814294591	-0.0435718969	-0.160112
N	-1.2169296579	-0.4087703549	 0.052340891	-0.234461
C	-1.6953653255	-1.1970549248	-0.813151152	 0.331869
N	-2.9941143793	-1.7036081042	-0.795077679	-0.348316
C	-4.0215985637	-1.4813765752	 0.1135024018	 0.083156
N	-3.9394121865	-0.7340968166	 1.1337092734	-0.400207
C	-0.9555962504	-1.7036278544	-1.9706886625	 0.208478
N	-0.3662167251	-2.0987952953	-2.8839872949	-0.32907
H	 1.1790446159	 1.9857017022	-0.0703235699	 0.116439
H	-0.3385380686	 1.9807528694	-0.9882427393	 0.121802
H	-0.3825760018	 2.017860381	 0.781968784	 0.138272
H	 0.6909135154	-0.3223868959	-0.909191376	 0.112799
H	 0.6684226723	-0.2554408052	 0.8595422608	 0.122362
H	-3.2182246108	-2.3228223239	-1.5569784957	 0.271065
H	-4.9086110765	-2.0512788484	-0.1907129412	 0.098112
H	-4.8280896148	-0.7434870393	 1.6322803489	 0.23073
45.5756	51.8584	118.5245	142.3672	162.4443	204.9049	238.5654	307.9397	340.5929	418.0454	449.048	496.6462	606.8987	678.4398	713.8964	804.7631	817.4329	828.2745	959.4757	1056.3087	1057.9717	1072.787	1123.3005	1168.0425	1226.429	1282.3088	1304.6088	1383.5298	1405.2883	1433.4269	1487.7663	1490.4829	1511.1748	1561.6506	1718.3865	1745.2513	2338.7127	2989.0607	3036.6063	3042.6122	3045.5552	3115.9323	3128.697	3496.3865	3649.2429
CCN=C(NC=N)C#N	CCN=C(NC=N)C#N	
InChI=1S/C5H8N4/c1-2-8-5(3-6)9-4-7/h4H,2H2,1H3,(H2,7,8,9)	InChI=1S/C5H8N4/c1-2-8-5(3-6)9-4-7/h4H,2H2,1H3,(H2,7,8,9)
