17
gdb 64464	2.27112	1.74852	1.33115	3.2795	63.61	-0.2728	-0.0037	0.269	1004.9842	0.135537	-496.130851	-496.122463	-496.121519	-496.164017	31.473	
C	 0.6187758183	 1.3691646912	-0.1003345879	-0.428781
C	-0.0547171685	-0.0175249612	-0.0175950139	 0.222053
O	-1.4542101166	 0.1357870174	 0.0769231092	-0.473169
C	 0.2661567502	-0.8839929019	-1.2647066661	-0.126408
O	 1.0220681987	-2.0478761095	-0.9359803359	-0.217525
C	 2.0655909703	-1.7467197753	-0.0869723456	 0.00719
O	 1.5846053138	-1.3914046611	 1.2264591328	-0.221761
C	 0.4392782422	-0.6932701596	 1.2748702556	 0.404665
O	-0.1611828268	-0.5543724274	 2.3095862201	-0.356712
H	 1.7086602604	 1.299408819	-0.1795445704	 0.119107
H	 0.2380083302	 1.8934247096	-0.9814521184	 0.13527
H	 0.3709289612	 1.9543335173	 0.7888663764	 0.138826
H	-1.6487188471	 0.1588247927	 1.0265325983	 0.295135
H	-0.6729187046	-1.2327871871	-1.6938721576	 0.14682
H	 0.8115339737	-0.2951273931	-2.0153033745	 0.103513
H	 2.6679370447	-2.6439150882	 0.0583653852	 0.144289
H	 2.68875184	-0.9220366828	-0.4668588073	 0.107489
52.6425	133.1445	222.6623	254.0625	319.6699	339.2086	345.4489	397.0168	457.8339	476.7001	510.5422	574.9444	660.2078	736.4873	780.9467	924.0266	934.8298	979.3343	997.4654	1024.3038	1105.1752	1128.8593	1143.6569	1155.4186	1213.5586	1263.4728	1283.8766	1320.6219	1389.1887	1403.4381	1420.5967	1452.1465	1483.2354	1491.6422	1497.0846	1525.2469	1831.5259	2984.9539	3010.3295	3039.3106	3114.5737	3128.7487	3132.5602	3139.1583	3713.9107
CC1(O)COCOC1=O	C[C@@]1(O)COCOC1=O	
InChI=1S/C5H8O4/c1-5(7)2-8-3-9-4(5)6/h7H,2-3H2,1H3	InChI=1S/C5H8O4/c1-5(7)2-8-3-9-4(5)6/h7H,2-3H2,1H3/t5-/m1/s1
