20
gdb 8318	6.15366	0.87318	0.83202	1.6562	72.81	-0.2506	0.0772	0.3278	1418.6941	0.175875	-386.114526	-386.105452	-386.104508	-386.148745	32.635	
C	-0.0228705202	 1.3457252546	 0.1455669397	-0.223477
O	-0.0320030095	-0.060368818	 0.1503085967	-0.233132
C	-1.3116539407	-0.6046812134	-0.0948285291	-0.067214
C	-1.2153575955	-2.1136338624	-0.032722044	 0.020452
C	-0.9553259866	-2.7852211036	 1.3444026624	-0.236672
C	-1.9569112917	-3.8873323589	 0.949604922	 0.14531
O	-2.7918394647	-4.3109657046	 2.0016492715	-0.430778
C	-2.5318979832	-2.933366026	-0.136699601	-0.291528
H	 1.0022571047	 1.6689726885	 0.343302591	 0.12533
H	-0.342704292	 1.7550999889	-0.8264854065	 0.100717
H	-0.6826741988	 1.7627882613	 0.9234739493	 0.102153
H	-2.0346864878	-0.2396208495	 0.6565497219	 0.079384
H	-1.684670322	-0.2819089887	-1.0838262568	 0.081091
H	-0.4829488907	-2.4523045027	-0.7722598291	 0.078195
H	 0.0640699134	-3.0779888296	 1.6005443816	 0.10222
H	-1.3726344064	-2.1854803652	 2.1594372672	 0.108927
H	-1.44179931	-4.7397748804	 0.4830243463	 0.064643
H	-3.363638317	-5.0117029558	 1.6724455657	 0.280351
H	-3.3803265586	-2.3771667282	 0.275992087	 0.102767
H	-2.8103832227	-3.3504365462	-1.1078862658	 0.091259
60.1864	94.0881	105.9667	171.6236	233.2709	267.9609	332.9265	342.7384	418.1752	426.874	472.184	624.7229	802.2695	812.4681	906.3011	947.8644	956.5151	974.4268	1024.7794	1066.6543	1087.7139	1122.1595	1156.3177	1175.5616	1184.171	1209.0577	1217.7629	1230.5065	1251.9045	1262.1409	1267.7884	1291.8748	1328.9146	1363.4189	1421.5737	1435.3851	1469.952	1480.7147	1485.0658	1498.2236	1504.7724	1527.0129	2934.1669	2961.1758	2966.3236	2990.1511	3007.0818	3046.9646	3058.3265	3063.5902	3107.2214	3110.953	3124.9156	3815.2287
COCC1CC(O)C1	COC[C@H]1C[C@@H](O)C1	
InChI=1S/C6H12O2/c1-8-4-5-2-6(7)3-5/h5-7H,2-4H2,1H3	InChI=1S/C6H12O2/c1-8-4-5-2-6(7)3-5/h5-7H,2-4H2,1H3/t5-,6+
