16
gdb 6346	2.65766	1.14573	1.06618	0.5258	63.77	-0.1941	0.0431	0.2372	1193.5163	0.127517	-417.110282	-417.099873	-417.098928	-417.148508	33.722	
C	 0.6920845428	 1.0182880808	-0.0572894814	-0.326182
N	 1.2891881429	-0.1791533077	 0.5446960574	-0.324839
C	 0.8119718012	-0.5901815014	 1.8061726865	 0.380515
N	-0.5734007178	-0.7915636401	 1.8089603843	-0.546297
H	-0.9111369054	-1.1768491806	 2.6796166235	 0.24348
H	-0.8885653812	-1.3428901174	 1.0186957668	 0.256225
C	 1.6097428497	-0.7653527905	 2.8704598744	-0.454304
C	 0.8669632574	-2.4046677857	-1.3556823745	 0.592699
O	 1.9261853806	-2.2487108267	-1.8064390185	-0.297081
O	-0.204552028	-2.5998372378	-0.9421500051	-0.307239
H	 0.861404319	 1.9288648004	 0.5365715253	 0.114622
H	 1.1208129616	 1.163393502	-1.0525872879	 0.120917
H	-0.3848729093	 0.8810628852	-0.1606599471	 0.143059
H	 2.29860777	-0.1148753926	 0.5619710816	 0.236011
H	 1.2431855427	-1.2279740575	 3.7781009664	 0.08471
H	 2.6439841738	-0.4464483205	 2.8542036082	 0.083704
20.6494	38.7824	69.73	85.503	101.9826	135.5915	166.4838	285.2793	385.6878	455.765	504.132	617.1127	654.9972	688.5125	691.9381	748.9919	774.396	806.7891	872.6196	981.4756	1083.4446	1144.2127	1156.4361	1185.7514	1374.9297	1387.0508	1415.5625	1464.1545	1484.6986	1492.2886	1520.5954	1635.0827	1726.2944	2429.3313	2994.201	3090.1966	3143.3141	3165.9513	3249.3139	3530.0562	3573.2973	3640.8958
CNC(=[NH2+])CC([O-])=O	CNC(=[NH2])[CH2].C(=O)=O	
InChI=1S/C4H8N2O2/c1-6-3(5)2-4(7)8/h2H2,1H3,(H2,5,6)(H,7,8)	InChI=1S/C3H8N2.CO2/c1-3(4)5-2;2-1-3/h5H,1,4H2,2H3;
