21
gdb 110655	3.39476	1.33582	1.1617	0.9052	88.89	-0.2059	-0.0261	0.1798	1156.3268	0.182944	-349.859262	-349.851348	-349.850404	-349.891544	31.964	
C	 0.2580698494	 1.5554426305	-0.1192725537	-0.377507
C	 0.1740082082	 0.0263301014	-0.0486701391	-0.202017
C	 0.6844498993	-0.5333857543	 1.2680428183	 0.008363
C	 0.8382794001	-2.0855289981	 1.5226348137	-0.105261
C	 2.2277763544	-2.8049237521	 1.2461617381	-0.0405
C	 3.3498958685	-2.2202297388	 0.3679693812	-0.259918
C	 3.0492705187	-0.7338259113	 0.5496033302	-0.109309
C	 2.1959380155	-0.5727116032	 1.5814703934	 0.03188
C	 2.0448051559	-1.8758027422	 2.3877077527	-0.111146
H	 1.2931388192	 1.8996408782	-0.0230094317	 0.125011
H	-0.1356449116	 1.932990211	-1.0678816796	 0.111049
H	-0.317722978	 2.0194589061	 0.6893633181	 0.114519
H	-0.8708988906	-0.2882608498	-0.1720311003	 0.093044
H	 0.7350349822	-0.4193904681	-0.8782589266	 0.093978
H	 0.0723871307	-0.15076357	 2.0972818708	 0.075213
H	-0.0096575597	-2.7274151106	 1.7546542353	 0.084497
H	 2.1677435623	-3.8813549825	 1.4008942562	 0.076279
H	 4.3287992376	-2.5926673833	 0.7042027649	 0.105074
H	 3.2695361011	-2.4593267014	-0.6999377851	 0.106267
H	 3.0547725027	-0.0759559666	-0.3146128128	 0.09428
H	 2.184926244	-2.0255426446	 3.4501020563	 0.086206
91.7052	141.8027	190.903	248.0086	337.4533	349.2787	461.276	512.6297	610.2696	650.761	737.7222	755.1252	789.7944	805.6492	826.3481	868.6253	875.0473	902.1782	937.7993	947.7839	978.408	987.929	1001.279	1055.7034	1061.4934	1074.8482	1090.796	1103.5429	1157.8687	1167.3697	1202.5867	1220.8458	1270.8481	1271.9275	1284.1757	1302.2018	1337.7077	1372.5158	1395.1375	1413.3279	1473.8174	1480.2408	1499.04	1505.7076	1590.1818	2993.6736	2999.6635	3019.0887	3032.3379	3044.6368	3058.8415	3099.275	3106.1617	3120.0981	3129.0151	3165.1196	3195.4879
CCC1C2C3CC=C1C23	CC[C@H]1[C@H]2[C@H]3C[CH][C]1[C@@H]23	
InChI=1S/C9H12/c1-2-5-6-3-4-7-8(5)9(6)7/h3,5,7-9H,2,4H2,1H3	InChI=1S/C9H12/c1-2-5-6-3-4-7-8(5)9(6)7/h3,5,7-9H,2,4H2,1H3/t5-,7-,8+,9-/m1/s1
