16
gdb 125030	2.29781	1.87777	1.04079	5.0031	78.58	-0.2112	-0.0533	0.1578	1092.5018	0.124305	-434.060101	-434.051627	-434.050683	-434.093236	31.77	
C	-0.0042040175	 1.5536316492	 0.0256182861	-0.525369
C	-0.0154914798	 0.0516553559	 0.0121497364	 0.153988
C	-1.1633058221	-0.6772857263	 0.0299774847	 0.216057
N	-2.4286638259	-0.1311579623	 0.115005238	-0.589303
C	-1.0570462246	-2.120501334	 0.0203647493	 0.001463
N	 0.0393241323	-2.7862837373	-0.0111212939	-0.071608
O	 1.2105318158	-2.0554262538	-0.0303539083	-0.292551
C	 1.2495076387	-0.6569935895	-0.0093124797	 0.350368
N	 2.3841114955	-0.0808421212	-0.0173955429	-0.543722
H	 1.0174445053	 1.9143655523	-0.0880695246	 0.177721
H	-0.6122621801	 1.9669015023	-0.7906542577	 0.11752
H	-0.4090433988	 1.9482925182	 0.966144949	 0.134441
H	-2.5141631324	 0.8434078159	-0.1296991376	 0.261739
H	-3.1886154163	-0.6958485879	-0.2322620733	 0.258812
H	-1.9526731277	-2.7368368593	 0.0437658707	 0.127285
H	 3.1364532278	-0.7689159321	-0.0386274061	 0.223159
77.8032	112.3023	156.3788	259.819	296.9228	341.1276	357.6055	477.8226	490.7479	512.7024	527.9304	545.0837	664.0055	670.407	736.6086	823.0716	851.0855	901.1738	923.6	961.0433	1014.2695	1054.1587	1061.4047	1196.5495	1229.565	1296.4633	1370.1217	1389.2657	1423.6607	1487.3919	1497.3134	1633.3072	1654.8519	1701.8747	1716.5036	3010.0482	3057.4652	3158.3675	3163.2446	3495.5622	3579.9016	3684.8494
CC1=C(N)C=NOC1=N	CC1=C(ON=C[C]1N)[NH]	
InChI=1S/C5H7N3O/c1-3-4(6)2-8-9-5(3)7/h2,7H,6H2,1H3	InChI=1S/C5H7N3O/c1-3-4(6)2-8-9-5(3)7/h2,7H,6H2,1H3
