15
gdb 46894	2.93885	1.66543	1.30973	5.4194	67.61	-0.2642	-0.0534	0.2108	957.5613	0.113791	-457.769574	-457.762582	-457.761638	-457.801165	26.882	
O	-0.001231608	 0.1591222529	-0.9025751674	-0.32728
C	-0.0156505354	 1.1212220717	-0.1811810508	 0.410595
O	-1.1749027454	 1.457528785	 0.4392520705	-0.209341
C	-1.3027936459	 2.6733815296	 1.1639143397	-0.141003
C	-0.5233432259	 2.6772525016	 2.4726737883	 0.035313
O	 0.1404427993	 1.4792554297	 2.8216446448	-0.222297
C	 0.954418558	 2.5980699742	 2.4291004951	-0.005227
C	 1.6525993068	 2.5354099016	 1.1275273021	-0.034976
C	 1.208918446	 1.9517821544	 0.0082229003	-0.232756
H	-0.9957925722	 3.5279812303	 0.5467036751	 0.124466
H	-2.3724335383	 2.7649161125	 1.3646926385	 0.137506
H	-0.9951913372	 3.2103154948	 3.2988844341	 0.108186
H	 1.5206476603	 3.0349327054	 3.2490248496	 0.107988
H	 2.6228462836	 3.0246867368	 1.0996948155	 0.114968
H	 1.8484918744	 1.9308485595	-0.8677089154	 0.133859
82.2715	228.1217	252.8132	303.3238	334.4163	438.1723	507.487	561.403	678.0275	702.3426	745.9523	782.0507	829.9607	847.5914	887.3445	945.616	965.8886	1009.7671	1028.5464	1096.3187	1132.5287	1142.7127	1190.1188	1252.7418	1283.6462	1309.6407	1378.5353	1410.4612	1417.1446	1456.4416	1494.6843	1694.7163	1821.3253	3025.777	3100.8113	3113.7936	3134.7923	3164.9862	3195.9939
O=C1OCC2OC2C=C1	O=C1OC[C@H]2O[C@H]2C=C1	
InChI=1S/C6H6O3/c7-6-2-1-4-5(9-4)3-8-6/h1-2,4-5H,3H2	InChI=1S/C6H6O3/c7-6-2-1-4-5(9-4)3-8-6/h1-2,4-5H,3H2/t4-,5+/m0/s1
