15
gdb 30302	3.09609	1.64769	1.16575	3.6899	66.81	-0.2026	0.0314	0.234	999.2556	0.115157	-453.95764	-453.950381	-453.949437	-453.989434	27.743	
O	 0.1419953654	 1.3803359517	-0.2127146815	-0.428242
C	 0.0573002739	-0.0259862183	-0.0111911649	-0.018782
C	 0.5003234628	-0.4667911551	 1.4387225926	-0.123704
O	-0.6828805008	-0.910436824	 2.2033783952	-0.291947
C	-1.6203202341	-1.0031426312	 1.2482390555	 0.439879
C	-1.3270293989	-0.5914143865	-0.0105505073	 0.117214
N	-2.4201030788	-0.756552411	-0.8369207633	-0.328487
C	-3.3430869104	-1.2688264285	-0.0596780957	-0.018995
N	-2.9059982076	-1.4456330353	 1.254402141	-0.393265
H	-0.6898639833	 1.7627852118	 0.0873692999	 0.280143
H	 0.7411796291	-0.4581409976	-0.7482199733	 0.1013
H	 1.1879094096	-1.3161030492	 1.4082619722	 0.125076
H	 0.9523889761	 0.3660046658	 1.9789852216	 0.132852
H	-4.3444801789	-1.5435231399	-0.3538148407	 0.131686
H	-3.4277148643	-1.8315671226	 2.0228650886	 0.275273
102.0061	147.818	269.7082	290.8214	331.3164	431.1348	470.9475	499.0013	644.3808	658.7391	706.0797	741.841	757.6766	777.9271	879.4754	938.584	954.7555	991.8776	1049.552	1072.2568	1140.9135	1209.0659	1228.8063	1269.277	1290.3181	1346.9329	1356.6864	1372.4273	1427.5998	1476.1299	1497.8719	1552.3162	1655.9067	3058.6014	3073.0087	3142.3681	3257.6479	3672.2988	3803.8302
OC1COC2=C1N=CN2	O[C@H]1COc2c1nc[nH]2	
InChI=1S/C5H6N2O2/c8-3-1-9-5-4(3)6-2-7-5/h2-3,8H,1H2,(H,6,7)	InChI=1S/C5H6N2O2/c8-3-1-9-5-4(3)6-2-7-5/h2-3,8H,1H2,(H,6,7)/t3-/m0/s1
