17
gdb 51530	5.26515	0.71394	0.69834	3.3791	77.	-0.2692	0.0058	0.275	1588.6997	0.133874	-421.80302	-421.794043	-421.793099	-421.837997	32.208	
O	-1.1022942094	 0.8167852911	-0.3387519051	-0.272678
C	-0.5166162621	 1.839353919	-0.1509533127	 0.16205
O	 0.8103250233	 1.8884981624	 0.0797956934	-0.187442
C	 1.4224336718	 3.1536476507	 0.2929682361	 0.157829
C	 2.2936048571	 3.2736451957	 1.5594090901	-0.260627
C	 3.3521503547	 4.0514786186	 0.7001096179	-0.191005
C	 2.6590826867	 3.4567234963	-0.5765426871	-0.260632
C	 3.2602132965	 5.4954213611	 0.8081807741	 0.340358
C	 3.1668836566	 6.691357552	 0.8947211626	-0.480491
H	-0.9891717275	 2.8413491292	-0.1456183787	 0.080095
H	 0.671220902	 3.948557751	 0.2325393006	 0.101535
H	 1.87392049	 3.782769102	 2.4274032604	 0.120751
H	 2.6760125952	 2.292882137	 1.8510329009	 0.127333
H	 4.3853839739	 3.7297965324	 0.8493134439	 0.113199
H	 3.1439503004	 2.5272894204	-0.8835088445	 0.127337
H	 2.5352270662	 4.1140360999	-1.4375662625	 0.120753
H	 3.0982127646	 7.7481180711	 0.9735690605	 0.201635
43.4613	53.4381	135.7049	185.7929	192.9713	286.3944	370.286	370.9426	504.4451	528.7915	566.3635	626.1425	635.6888	779.0091	799.573	822.3307	922.0441	935.1769	989.3211	995.9917	1043.4963	1091.7605	1102.045	1131.2442	1173.1037	1178.7034	1235.6195	1249.5504	1270.6484	1282.8011	1345.0674	1385.2442	1443.529	1466.307	1492.312	1868.415	2234.0667	2945.7223	3050.2009	3074.3652	3076.967	3084.7971	3144.0795	3145.6909	3504.24
O=COC1CC(C1)C#C	O=CO[C@H]1C[C@@H](C1)C#C	
InChI=1S/C7H8O2/c1-2-6-3-7(4-6)9-5-8/h1,5-7H,3-4H2	InChI=1S/C7H8O2/c1-2-6-3-7(4-6)9-5-8/h1,5-7H,3-4H2/t6-,7-
