19
gdb 36511	4.03165	1.00454	0.84555	1.786	83.92	-0.2462	0.0148	0.261	1366.313	0.158974	-385.862049	-385.853412	-385.852467	-385.895643	32.897	
C	-0.0423362431	-1.2332877807	-0.0133424873	-0.444124
C	-0.0163568332	-0.0323555246	-0.0398546987	 0.315847
C	 0.013389004	 1.424227339	-0.0477568914	-0.37539
C	 1.4394751999	 2.0085490771	 0.0048380131	 0.094736
O	 2.0927633609	 1.5996052628	-1.1828453343	-0.257907
C	 3.3123425168	 2.2841810761	-1.4138269534	-0.074061
C	 3.0645066598	 3.7719687087	-1.6721777374	-0.256686
C	 2.1310742928	 4.3155578921	-0.6229742405	-0.074971
C	 1.4125885598	 3.5096603193	 0.155240639	-0.07286
H	-0.0646601705	-2.2945110567	-0.0003564489	 0.192345
H	-0.4757765068	 1.8099858879	-0.9499169941	 0.139264
H	-0.550818881	 1.8081623876	 0.8110714709	 0.126282
H	 1.9520206931	 1.5665296209	 0.8794998368	 0.083685
H	 3.9867434276	 2.1641807273	-0.5502810022	 0.09168
H	 3.7767135124	 1.7960777738	-2.2749713443	 0.107979
H	 4.0167541485	 4.3173261154	-1.6580285921	 0.104352
H	 2.6397952358	 3.9189879707	-2.674528153	 0.117336
H	 2.0686464626	 5.3939686026	-0.5026622279	 0.092126
H	 0.7740600606	 3.9071996206	 0.9402723458	 0.090366
66.6096	89.5563	142.8512	272.6707	280.6113	335.2985	354.9545	410.3223	488.6773	540.0019	581.0973	612.6099	638.4728	684.6562	783.8845	822.9265	886.1535	934.3011	946.242	983.6791	1001.0328	1002.7348	1065.1168	1077.0887	1101.7167	1118.2145	1206.8066	1226.0378	1242.4924	1287.2141	1302.0749	1353.2142	1363.7366	1369.429	1400.6783	1427.5101	1457.2963	1470.4095	1500.295	1722.9167	2242.3415	2927.993	2975.0339	3015.7608	3030.0657	3050.3522	3069.9805	3090.1119	3148.3154	3171.2093	3508.6392
C#CCC1OCCC=C1	C#CC[C@H]1OCCC=C1	
InChI=1S/C8H10O/c1-2-5-8-6-3-4-7-9-8/h1,3,6,8H,4-5,7H2	InChI=1S/C8H10O/c1-2-5-8-6-3-4-7-9-8/h1,3,6,8H,4-5,7H2/t8-/m1/s1
