21
gdb 94737	2.65272	1.47364	1.24542	1.0556	77.73	-0.2466	0.0673	0.3139	1113.4839	0.182683	-424.225737	-424.21704	-424.216096	-424.258702	34.004	
C	-0.0639809603	 1.5845013373	-0.0676279956	-0.411571
C	 0.1301058894	 0.0795488863	-0.0302583428	 0.121125
O	 1.0355915805	-0.3035406164	-1.0733222563	-0.266476
C	 1.4013664678	-1.6508115054	-0.8164713453	-0.14079
C	 1.4669233172	-1.8181566693	 0.7222772392	 0.373633
O	 0.8999948414	-3.0293028265	 1.1701089981	-0.480893
C	 2.7856751923	-1.3597124367	 1.4018674429	-0.287935
C	 2.1446124255	 0.0312429151	 1.665402078	-0.232087
C	 0.7569123504	-0.5271655363	 1.2274439731	-0.059168
H	 0.8742764876	 2.1119317762	 0.1242329472	 0.123591
H	-0.4325873827	 1.892869705	-1.0499448539	 0.126595
H	-0.7959498596	 1.891135921	 0.6858426307	 0.115835
H	-0.8426742592	-0.4152790276	-0.2005145034	 0.068
H	 0.635021944	-2.3473840303	-1.1929618735	 0.089573
H	 2.3467985624	-1.8462101335	-1.3325245805	 0.097819
H	 1.4618965174	-3.7541641917	 0.8744045892	 0.276581
H	 2.9574310358	-1.92397031	 2.3218562133	 0.103752
H	 3.6933368492	-1.3819101379	 0.791852985	 0.092518
H	 2.2070463672	 0.3987258416	 2.6910092063	 0.100576
H	 2.5202714155	 0.8044822482	 0.9928336054	 0.112029
H	 0.0511543984	-0.6901591289	 2.0426540329	 0.077296
86.8129	174.0585	206.2286	224.1755	239.3106	261.9618	330.5855	394.3705	420.4597	527.5213	584.9537	610.4106	666.2121	755.8562	799.8476	851.9039	878.2762	927.7695	936.5886	951.7252	977.1078	1029.4112	1054.6979	1066.9133	1101.4022	1135.9937	1152.6628	1172.5384	1188.2072	1227.8437	1239.2619	1252.3203	1270.1362	1285.8389	1321.1799	1332.7766	1353.2876	1385.1544	1397.4541	1414.3504	1469.6317	1484.651	1489.2742	1500.3128	1506.1391	2941.7552	2975.5473	3045.5928	3052.0112	3074.8138	3075.2094	3105.0935	3110.4146	3117.1525	3122.5406	3132.916	3797.9537
CC1OCC2(O)CCC12	C[C@H]1OC[C@@]2(O)CC[C@@H]12	
InChI=1S/C7H12O2/c1-5-6-2-3-7(6,8)4-9-5/h5-6,8H,2-4H2,1H3	InChI=1S/C7H12O2/c1-5-6-2-3-7(6,8)4-9-5/h5-6,8H,2-4H2,1H3/t5-,6+,7+/m1/s1
