15
gdb 23541	1.94154	1.78654	1.02486	3.8367	70.52	-0.2372	-0.0281	0.2091	1114.5095	0.111075	-453.84821	-453.839993	-453.839049	-453.881609	29.969	
O	-0.0892919607	 1.2949150186	 0.0253249015	-0.382438
N	 0.0561463936	-0.0937853809	-0.0759469181	-0.252458
C	-1.0601320193	-0.6787747181	 0.0221686305	 0.463226
C	-1.4207027291	-2.1201019243	-0.0875609558	-0.166186
N	-2.2597637164	-2.4090099261	 1.12020702	-0.328978
C	-2.8715638225	-1.7476213182	-0.0456200912	-0.06772
C	-2.5381569317	-0.2357298912	 0.0773953383	-0.192758
C	-3.050039027	 0.4822394365	 1.3069988771	 0.165176
O	-3.6337402807	 1.5353655909	 1.2687957981	-0.252778
H	 0.8171125163	 1.6075480966	-0.0694676564	 0.31344
H	-0.9020226875	-2.911096218	-0.6110946592	 0.119253
H	-2.5031634071	-3.3987518158	 1.0722668419	 0.241608
H	-3.7093129554	-2.177226781	-0.578168354	 0.117363
H	-2.80025454	 0.3407692389	-0.813739855	 0.119599
H	-2.8613397024	-0.050692728	 2.2599800922	 0.103651
68.9389	101.3307	165.6986	196.4649	268.4352	336.9645	412.2637	438.057	489.1972	577.5095	623.5759	694.9621	801.4699	816.4681	827.0131	901.8742	961.2994	996.2525	1017.5634	1053.7137	1082.1975	1099.0445	1113.572	1132.1192	1182.6889	1238.0682	1295.5024	1312.5291	1350.6454	1417.6407	1420.9674	1788.5259	1821.9705	2940.8844	3091.5041	3208.7017	3223.166	3470.8353	3816.5147
ON=C1C2NC2C1C=O	ON=C1[C@H]2N[C@H]2[C@H]1C=O	
InChI=1S/C5H6N2O2/c8-1-2-3-5(6-3)4(2)7-9/h1-3,5-6,9H	InChI=1S/C5H6N2O2/c8-1-2-3-5(6-3)4(2)7-9/h1-3,5-6,9H/t2-,3+,5+/m1/s1
