18
gdb 50298	3.47721	1.36752	1.29677	4.0853	77.3	-0.2339	-0.0016	0.2323	1032.0349	0.150866	-401.976201	-401.969207	-401.968262	-402.007938	27.963	
O	-0.0174064252	 0.0141969778	-0.1135338576	-0.34176
C	 0.0448937526	 1.2243974608	-0.0216747839	 0.130808
N	 1.1860196555	 1.9284285721	 0.1623551436	-0.014656
C	 2.5254288966	 1.3301451337	 0.110934415	-0.16326
C	 3.4161257204	 2.6078202966	-0.0257868244	-0.091234
C	 2.6218041314	 3.5836797637	 0.8853429013	-0.214757
C	 1.3334436904	 3.4038734885	 0.0592912923	-0.05917
C	 1.8587192961	 3.6892282707	-1.3490528012	-0.074231
C	 3.1030360878	 3.2020795091	-1.392951351	-0.070062
H	-0.847809679	 1.8822138591	-0.055604582	 0.062946
H	 2.7431537937	 0.7799321446	 1.0324056935	 0.121238
H	 2.616896165	 0.6401919309	-0.7322578586	 0.127129
H	 4.4661418405	 2.4379788094	 0.2075804122	 0.076398
H	 2.5162928652	 3.242954856	 1.9192092861	 0.105735
H	 3.0107399696	 4.6020376858	 0.8537055261	 0.109519
H	 0.4298256058	 3.9198034547	 0.3797348001	 0.082142
H	 1.2680357821	 4.0902937072	-2.1623387764	 0.107371
H	 3.7524848114	 3.1282530992	-2.255890965	 0.105843
58.2996	214.0458	261.9956	359.7348	406.1053	467.4967	497.0611	541.1751	698.3108	747.6064	797.2512	808.6025	854.6917	883.0177	911.1905	924.6981	945.7059	956.5931	964.6521	1015.4757	1031.0384	1048.9219	1113.8204	1137.2639	1143.2756	1174.9909	1203.8049	1265.1627	1274.7665	1287.4877	1295.1444	1323.7356	1360.4082	1411.4769	1442.5122	1491.3326	1514.7122	1638.2635	1785.5947	2920.0871	3046.5689	3067.6138	3095.5495	3128.5914	3134.9214	3137.4967	3204.4901	3229.6472
O=CN1CC2CC1C=C2	O=CN1C[C@@H]2C[C@H]1C=C2	
InChI=1S/C7H9NO/c9-5-8-4-6-1-2-7(8)3-6/h1-2,5-7H,3-4H2	InChI=1S/C7H9NO/c9-5-8-4-6-1-2-7(8)3-6/h1-2,5-7H,3-4H2/t6-,7+/m0/s1
