16
gdb 44278	3.40108	1.81509	1.42261	2.3659	71.18	-0.227	-0.0176	0.2093	895.6193	0.126375	-400.699001	-400.692713	-400.691769	-400.729688	25.905	
O	 0.029232039	-0.0379620257	 0.2537536885	-0.337644
C	-0.0222599518	 1.1536579753	 0.0433002158	 0.409022
C	-1.3265246152	 1.8998631485	-0.1556967953	-0.363868
C	-1.1408149788	 3.392306533	-0.2842785333	-0.02019
C	-0.0794937166	 4.1621563841	 0.399231843	-0.060922
C	 1.2576057481	 3.4162681398	 0.5251941352	-0.11981
C	 1.2221600544	 3.2439883485	-0.9556083266	-0.036765
C	 1.179466644	 2.0073915574	-0.0689843665	-0.14598
N	-0.0694823962	 4.0177735621	-1.1065843445	-0.16728
H	-1.8103227802	 1.4995323299	-1.0553718968	 0.145781
H	-1.9962730153	 1.6706041452	 0.6807530013	 0.142993
H	-2.0676734153	 3.9441275862	-0.4298962659	 0.106956
H	-0.2479677966	 5.130048718	 0.8598666062	 0.105875
H	 2.0657626324	 3.7010875993	 1.1840840889	 0.111563
H	 1.9777965221	 3.3696877288	-1.7196747143	 0.117431
H	 2.1207630161	 1.4688078998	-0.0224070756	 0.112837
90.8606	264.1968	430.8026	448.1015	466.3609	534.6111	594.4331	694.1487	697.7982	729.0638	742.5385	816.9055	861.9959	902.9696	925.1803	945.2446	963.5229	983.3726	1008.7241	1037.9477	1056.9665	1067.0912	1095.0433	1107.5907	1200.9927	1227.3369	1247.14	1267.1985	1316.0019	1335.4952	1340.9526	1390.3011	1430.5083	1449.1696	1807.2276	3038.0095	3078.6426	3125.7567	3163.4442	3172.5381	3199.4751	3216.3436
O=C1CC2C3C4C(C14)N23	O=C1C[C@H]2[C@H]3[C@@H]4[C@@H]([C@H]14)N23	
InChI=1S/C7H7NO/c9-3-1-2-6-5-4(3)7(5)8(2)6/h2,4-7H,1H2	InChI=1S/C7H7NO/c9-3-1-2-6-5-4(3)7(5)8(2)6/h2,4-7H,1H2/t2-,4+,5+,6-,7+,8?/m0/s1
