15
gdb 10246	2.56328	1.97417	1.41779	4.3223	67.73	-0.2447	-0.0216	0.2231	919.532	0.117148	-396.001656	-395.992915	-395.991971	-396.035767	29.856	
C	-0.8230571215	 1.0167222206	 0.4593841933	-0.48096
C	 0.3368227078	 0.1882291698	-0.0029557539	 0.429879
O	 1.412414082	 0.1120924801	 0.5012782394	-0.252527
N	 0.0478008618	-0.6016439645	-1.2311025655	-0.087676
C	-0.484120485	-1.8681022497	-1.0965746456	 0.088564
N	-0.8002539497	-2.3325544902	 0.0437303811	-0.473074
C	 0.2903004987	-0.0272943565	-2.4625220775	 0.088589
N	 0.6765118202	 1.1796893079	-2.5623121884	-0.473011
H	-1.1059888738	 1.7094130417	-0.3394028479	 0.164195
H	-1.6725087591	 0.3572171933	 0.6627924447	 0.164269
H	-0.5497572763	 1.5687545296	 1.358634183	 0.149553
H	-0.594538867	-2.3825535776	-2.0589155445	 0.107895
H	-1.1700601754	-3.2760387941	-0.0401154279	 0.233203
H	 0.1058777565	-0.7192716224	-3.2932460175	 0.107892
H	 0.811905491	 1.436558112	-3.5368096328	 0.233208
32.1323	123.446	161.1525	173.1543	188.7599	217.3117	250.8905	408.3657	507.1973	535.9804	564.5044	693.4669	724.3267	798.3692	816.2744	991.9984	1041.3158	1048.7162	1054.8898	1091.5812	1161.1605	1203.2539	1298.9703	1369.4555	1385.0845	1419.5261	1425.5405	1464.5592	1473.2958	1698.1198	1736.0914	1888.6662	3039.2146	3048.3891	3052.536	3120.5151	3162.4186	3525.2829	3525.9823
CC(=O)N(C=N)C=N	CC(=O)N(C=N)C=N	
InChI=1S/C4H7N3O/c1-4(8)7(2-5)3-6/h2-3,5-6H,1H3	InChI=1S/C4H7N3O/c1-4(8)7(2-5)3-6/h2-3,5-6H,1H3
