21
gdb 67706	2.17978	1.9204	1.66281	1.6358	80.54	-0.237	0.0814	0.3183	985.2726	0.185299	-387.10265	-387.095012	-387.094068	-387.134461	30.823	
C	-0.0192864271	 1.4748548226	 0.0047760361	-0.510137
C	-0.0027411472	-0.0302695723	 0.0012340869	 0.33658
C	 0.5909581906	-0.9131578847	-1.077027454	-0.096445
C	 1.4623133271	-2.0036731078	-0.4500690953	-0.240958
C	 1.4905185114	-1.6500860718	 1.0582689589	-0.206645
C	 0.1962613374	-0.8516805492	 1.291603122	 0.033551
O	-0.9270233507	-1.7327910907	 1.404414322	-0.275435
C	-1.4922323642	-1.9640881128	 0.114841405	-0.09605
C	-0.9085137715	-0.9137562017	-0.8113394999	-0.125028
H	 0.9266045715	 1.887334816	 0.3753325493	 0.117319
H	-0.173986309	 1.8668461569	-1.0057101015	 0.116408
H	-0.8232386437	 1.8655965563	 0.6393575943	 0.122096
H	 0.9055277982	-0.474734244	-2.0189594462	 0.077426
H	 1.0513384125	-3.0055072245	-0.6199107717	 0.105253
H	 2.4647723788	-2.0000360291	-0.8868249343	 0.096842
H	 1.5523263894	-2.5191405191	 1.7183375529	 0.101507
H	 2.3505321949	-1.002976199	 1.2693104573	 0.093028
H	 0.224356869	-0.245836615	 2.201791136	 0.073912
H	-1.2738428771	-2.9910398529	-0.2153952111	 0.09285
H	-2.5824387147	-1.8645741452	 0.1879786114	 0.099643
H	-1.5519840558	-0.487135982	-1.573644238	 0.084283
111.9834	192.7052	212.5547	241.6655	272.2143	385.0172	477.7429	557.5585	598.8722	692.233	727.0718	743.8345	808.5962	855.7494	860.3705	906.1283	915.2397	943.5777	967.1563	987.4543	1019.0274	1035.4905	1066.7644	1073.6625	1103.266	1115.1277	1128.3792	1173.6703	1187.67	1223.7745	1247.924	1257.7048	1294.468	1308.7113	1321.31	1342.1111	1356.3292	1382.7588	1417.2716	1455.231	1475.3411	1488.6909	1498.6932	1502.539	1533.0412	2984.6158	3021.018	3033.7326	3035.8842	3039.6361	3072.4747	3079.6205	3083.8012	3095.457	3102.9637	3153.8581	3167.2755
CC12C3CCC1OCC23	C[C@@]12[C@H]3CC[C@@H]1OC[C@@H]23	
InChI=1S/C8H12O/c1-8-5-2-3-7(8)9-4-6(5)8/h5-7H,2-4H2,1H3	InChI=1S/C8H12O/c1-8-5-2-3-7(8)9-4-6(5)8/h5-7H,2-4H2,1H3/t5-,6+,7-,8-/m0/s1
