20
gdb 33193	4.36977	0.84554	0.75547	1.3165	82.1	-0.1775	0.064	0.2415	1556.4202	0.171631	-403.179714	-403.170525	-403.169581	-403.214514	34.043	
C	-0.0959364092	 0.3103345279	 0.788948096	-0.384538
C	-0.1637891794	-0.4508659409	-0.5379037651	-0.183196
C	 0.8931131291	 0.0365923135	-1.527583787	-0.063872
O	 0.8186409883	-0.6262697371	-2.7886654359	-0.275483
C	 1.3743661842	-1.8575928815	-2.8573064459	 0.402575
C	 2.0947026107	-2.6460699994	-1.987325056	-0.288315
C	 2.4174861863	-3.8434860956	-2.7024857645	-0.140352
C	 1.8895781609	-3.7435081822	-3.961559114	-0.098668
N	 1.2485628786	-2.5203376542	-4.0456742826	-0.319297
H	 0.8744131262	 0.1744767104	 1.2792681839	 0.118644
H	-0.2438546113	 1.3860680396	 0.6411437818	 0.116478
H	-0.8677245368	-0.0379794903	 1.4810385993	 0.120936
H	-0.0284845908	-1.5237458174	-0.3668843857	 0.118881
H	-1.1512177464	-0.3260375061	-0.9973220198	 0.106036
H	 0.7388078029	 1.0957429668	-1.7564897883	 0.109415
H	 1.9044428314	-0.0717850904	-1.1127912928	 0.109497
H	 2.3590909429	-2.4099782887	-0.9700798889	 0.089869
H	 2.9766393768	-4.6818795156	-2.3164047003	 0.089149
H	 1.9037435665	-4.4180991772	-4.8011379138	 0.11202
H	 0.7697078192	-2.1448929517	-4.8451890805	 0.260221
46.891	73.2947	104.1721	222.1361	240.5595	266.4173	289.7588	365.8046	433.1303	563.2981	621.2527	639.5728	660.038	695.6328	749.2662	764.7705	828.4334	887.2261	894.8447	901.8188	978.084	1036.6237	1050.5078	1080.7655	1105.7533	1127.7143	1144.8895	1201.249	1264.1412	1287.9537	1296.565	1332.6635	1338.2198	1409.2042	1415.6603	1424.8649	1490.5036	1492.2169	1498.6723	1500.6622	1514.23	1534.6573	1622.1591	3016.595	3031.2985	3043.7549	3070.4689	3085.6073	3105.4846	3109.6338	3245.651	3266.2264	3278.8169	3687.7029
CCCOC1=CC=CN1	CCCOc1ccc[nH]1	
InChI=1S/C7H11NO/c1-2-6-9-7-4-3-5-8-7/h3-5,8H,2,6H2,1H3	InChI=1S/C7H11NO/c1-2-6-9-7-4-3-5-8-7/h3-5,8H,2,6H2,1H3
