19
gdb 79402	2.55598	1.51711	1.41129	2.634	75.21	-0.2227	0.065	0.2877	1053.0247	0.156581	-422.943361	-422.934574	-422.93363	-422.976128	33.892	
C	-0.12287679	 1.6400794494	 0.0003366709	-0.430128
C	-0.0552434977	 0.1192247231	-0.0027317796	-0.087032
C	 1.1435745299	-0.5808685418	-0.6844117773	-0.145922
C	 2.0970940253	-0.3721619764	 0.5290995744	-0.006103
O	 2.4865034525	-1.7693318695	 0.6216125316	-0.361789
C	 1.065246276	-1.8225951907	 0.2709677258	 0.419719
C	 0.4033741453	-3.1515081838	 0.1059495392	-0.530839
C	 0.670556853	-0.6021472056	 1.1618552811	 0.315575
O	 0.3098779003	-0.7121619025	 2.4849011677	-0.466733
H	 0.8460494646	 2.0878644079	 0.2480783274	 0.113728
H	-0.4238634061	 2.0267396776	-0.9790135211	 0.122837
H	-0.8559935064	 2.0017906298	 0.7308190451	 0.114608
H	-1.0286824385	-0.3178782298	-0.2546612202	 0.0714
H	 1.4352055919	-0.5948741536	-1.7322496382	 0.084376
H	 2.853359873	 0.3904433079	 0.7091054432	 0.090839
H	 0.4417266225	-3.7122271201	 1.0446339319	 0.143854
H	-0.6460261823	-3.0234047017	-0.1771956391	 0.129229
H	 0.9044170562	-3.737041342	-0.6707092446	 0.133914
H	 0.2848115305	 0.1676286118	 2.8769417518	 0.288465
164.6213	181.3316	188.7922	198.1656	211.6871	228.0789	301.4839	328.4141	424.3334	524.6226	560.3189	668.0075	701.3752	726.2286	761.9889	816.4159	829.7469	896.6495	919.62	939.7519	970.5867	1028.8188	1053.6442	1073.0142	1096.866	1127.1277	1140.9337	1149.3949	1213.9861	1226.5997	1271.257	1272.0284	1322.6248	1390.3965	1410.9285	1414.9724	1435.1962	1472.9627	1491.6245	1494.3923	1504.0801	3025.1957	3036.6536	3040.7806	3087.5393	3096.4076	3114.408	3115.7264	3128.1103	3150.0817	3802.9229
CC1C2C3OC2(C)C13O	C[C@H]1[C@H]2[C@@H]3O[C@@]2(C)[C@]13O	
InChI=1S/C7H10O2/c1-3-4-5-7(3,8)6(4,2)9-5/h3-5,8H,1-2H3	InChI=1S/C7H10O2/c1-3-4-5-7(3,8)6(4,2)9-5/h3-5,8H,1-2H3/t3-,4-,5-,6+,7-/m0/s1
