19
gdb 119396	4.07974	0.99588	0.94695	1.9473	75.19	-0.2364	-0.0013	0.2352	1292.6804	0.15902	-422.971456	-422.963181	-422.962237	-423.004713	31.986	
O	 0.1284841764	 1.435015306	-0.0279666881	-0.416937
C	 0.068480858	 0.0184976597	-0.0849574309	-0.064241
C	-1.3517700672	-0.515227703	 0.141577382	-0.352449
C	-1.4175343019	-2.0190234714	 0.1071507507	 0.385621
C	-2.7290249612	-2.8580804966	-0.0558139065	-0.264796
C	-1.6384300786	-3.8168195156	-0.6165310399	 0.014319
O	-0.9614718595	-2.6362473061	-1.1555600914	-0.32222
C	-0.806084358	-4.1075082521	 0.6477154452	-0.083662
C	-0.6536521573	-2.880141645	 1.1451791162	-0.117695
H	-0.350712591	 1.7793340334	-0.7882534694	 0.281741
H	 0.4596245381	-0.3696969417	-1.0353332048	 0.115435
H	 0.7349472745	-0.3388719815	 0.7070017368	 0.113015
H	-1.7234277342	-0.1553914827	 1.1083275897	 0.111098
H	-2.0174263084	-0.1114778573	-0.6317529093	 0.095628
H	-3.2809015224	-3.1520932487	 0.8392516922	 0.097431
H	-3.3842290306	-2.4592734894	-0.834894839	 0.103185
H	-1.8303041919	-4.6037465541	-1.3441419822	 0.081093
H	-0.4718023973	-5.0687583413	 1.0089952132	 0.111213
H	-0.1554785975	-2.5306818626	 2.0378594254	 0.112219
83.3491	88.8427	125.2838	291.5927	311.7581	348.7771	357.2938	478.0755	537.4884	613.3021	698.061	708.0197	747.2969	777.4023	834.3515	849.7031	887.8262	905.305	914.9721	957.3262	973.1444	1029.1549	1048.1558	1066.9255	1071.086	1084.1454	1114.0723	1199.4487	1205.4399	1235.9741	1256.026	1273.3979	1305.0665	1330.5263	1353.0052	1402.3748	1420.9387	1474.7138	1486.0738	1512.1187	1620.1784	3015.0998	3026.5148	3058.8117	3064.2495	3086.7737	3132.1287	3138.5771	3228.1053	3256.2437	3817.1826
OCCC12CC(O1)C=C2	OCC[C@@]12C[C@@H](O1)C=C2	
InChI=1S/C7H10O2/c8-4-3-7-2-1-6(5-7)9-7/h1-2,6,8H,3-5H2	InChI=1S/C7H10O2/c8-4-3-7-2-1-6(5-7)9-7/h1-2,6,8H,3-5H2/t6-,7-/m0/s1
