17
gdb 102083	2.26412	1.14584	0.83229	1.9215	65.73	-0.2571	-0.0418	0.2153	1341.3597	0.132197	-496.1025	-496.092561	-496.091617	-496.138089	34.506	
O	 0.222154334	 1.4204209251	-0.0075411697	-0.414676
C	 0.0932030838	 0.0098116513	-0.0521279892	-0.096538
C	-1.3900899382	-0.439949164	-0.0015572941	-0.152027
C	-2.1212128015	 0.1222104728	-1.2038298726	 0.153267
O	-2.8548389945	-0.5146450923	-1.9222683581	-0.257147
C	-1.5057136919	-1.9799273393	 0.1199405264	 0.03958
O	-0.6651632526	-2.4588344102	 1.1368467525	-0.441794
C	-2.9366874859	-2.4188719786	 0.4011410346	 0.121338
O	-3.1995559592	-3.0299169963	 1.4111469605	-0.266222
H	 0.0980776245	 1.7044928748	 0.9035297947	 0.290067
H	 0.5436440538	-0.3091942402	-0.9988149595	 0.123703
H	 0.6342997688	-0.4865610164	 0.7585856948	 0.137811
H	-1.8275371984	 0.0250519949	 0.8963115175	 0.101449
H	-1.910001744	 1.1927656896	-1.3985687028	 0.116228
H	-1.2241176455	-2.4163268709	-0.8535144188	 0.110204
H	-1.2555179355	-2.9207431953	 1.7560544713	 0.296534
H	-3.6968337578	-2.156511855	-0.3514332375	 0.138222
63.3222	92.2158	105.5241	124.0936	189.2392	209.0017	307.6101	317.925	338.2683	342.3052	378.1816	481.5643	535.4504	640.0756	772.9629	812.0767	883.4519	901.3899	966.8824	1050.7753	1062.0336	1090.7718	1120.4844	1152.3448	1181.2194	1251.6656	1277.1602	1318.0552	1349.5598	1380.4712	1394.7715	1404.0912	1414.3827	1442.9272	1513.202	1800.1629	1810.8846	2941.4318	2970.2413	2993.165	3026.3676	3045.1788	3098.331	3655.6133	3821.1372
OCC(C=O)C(O)C=O	OC[C@@H](C=O)[C@@H](O)C=O	
InChI=1S/C5H8O4/c6-1-4(2-7)5(9)3-8/h1,3-5,7,9H,2H2	InChI=1S/C5H8O4/c6-1-4(2-7)5(9)3-8/h1,3-5,7,9H,2H2/t4-,5+/m1/s1
