23
gdb 56569	2.03496	1.36635	0.86962	0.5895	91.06	-0.2524	0.0575	0.3099	1400.747	0.203286	-351.114525	-351.104023	-351.103078	-351.149969	39.607	
C	-0.0674835625	 1.530819231	 0.0780244479	-0.403077
C	-0.0315257335	-0.0075411138	-0.055194943	-0.155711
C	-1.4039820893	-0.5140720181	-0.1159054389	 0.338732
C	-2.5528523444	-0.8680482023	-0.1531681424	-0.472742
C	 0.8283956292	-0.5022736807	-1.2571760045	 0.013217
C	 2.2514426098	 0.076954936	-1.2110109906	-0.408209
C	 0.8881748434	-2.0203806313	-1.3119574998	 0.043319
C	-0.1488416849	-2.8302219162	-2.043287466	-0.260716
C	 1.2473438739	-2.718948132	-2.6017082648	-0.284354
H	 0.9237635209	 1.9341411088	 0.2968695808	 0.117799
H	-0.4338133053	 1.9893878267	-0.8461204663	 0.123063
H	-0.7408479447	 1.8243342835	 0.88713229	 0.12573
H	 0.4329726719	-0.4115200912	 0.8569491967	 0.099823
H	-3.5596154168	-1.2036096368	-0.1857344092	 0.189954
H	 0.3392949499	-0.1493557066	-2.1760480976	 0.074138
H	 2.2641153792	 1.1644175055	-1.3188394723	 0.115207
H	 2.7472597893	-0.1732289857	-0.2649538489	 0.110669
H	 2.8540071536	-0.3457430724	-2.0199385555	 0.118549
H	 1.2917466423	-2.4729202185	-0.4076540685	 0.075447
H	-0.4628586086	-3.774438232	-1.6125077084	 0.108364
H	-0.9420407274	-2.2892321927	-2.5459379031	 0.116765
H	 1.389677032	-2.1041138984	-3.4852097141	 0.106859
H	 1.897001852	-3.5862599026	-2.5588320414	 0.107174
46.9916	98.5377	135.0902	193.5937	203.6282	216.1483	223.4503	290.6346	328.055	374.5434	406.6752	459.842	533.9558	563.2547	622.5391	627.6235	759.4947	807.654	820.6352	828.634	905.9995	935.2853	957.2003	968.5159	1012.7561	1050.7803	1062.5966	1075.469	1089.6933	1123.7902	1136.2046	1157.783	1197.1302	1212.5902	1228.2619	1273.6192	1317.9821	1327.615	1358.1364	1402.6929	1412.5188	1418.6015	1470.9147	1491.2353	1494.8652	1499.4232	1506.9976	1512.0909	2229.5561	2990.6908	3011.8409	3031.4593	3044.7241	3098.6919	3114.8312	3117.1489	3117.7935	3126.3049	3129.735	3140.6892	3205.963	3226.7155	3504.4777
CC(C#C)C(C)C1CC1	C[C@@H](C#C)[C@@H](C)C1CC1	
InChI=1S/C9H14/c1-4-7(2)8(3)9-5-6-9/h1,7-9H,5-6H2,2-3H3	InChI=1S/C9H14/c1-4-7(2)8(3)9-5-6-9/h1,7-9H,5-6H2,2-3H3/t7-,8+/m0/s1
