20
gdb 59156	2.81379	1.20566	1.06671	2.6097	80.42	-0.2582	0.0189	0.2771	1238.4851	0.170023	-403.126453	-403.117515	-403.116571	-403.16046	33.899	
C	 0.0536453502	 1.3618208501	-0.2595401799	-0.390155
C	 0.0808669696	-0.1195844128	 0.1435273205	 0.003368
C	 0.706369993	-0.3194295075	 1.5307147917	-0.389646
C	-1.3225938625	-0.6988512118	 0.0999633771	-0.019615
C	-1.9880179114	-1.2461919866	-1.1117371853	 0.05137
O	-1.0179835564	-1.8948042338	-1.9784755578	-0.273089
C	-0.7678216315	-2.8450281577	-0.9834897723	 0.451974
N	-0.0698925325	-3.884610596	-1.0188447075	-0.556978
C	-1.6614578818	-2.198121173	 0.0225844864	-0.241862
H	 1.0634700716	 1.7841022682	-0.2582061721	 0.11514
H	-0.3663704293	 1.4927982732	-1.2616550115	 0.119208
H	-0.5524629678	 1.9506355542	 0.4396590058	 0.11006
H	 0.6902058521	-0.6580436244	-0.5901740642	 0.098277
H	 0.7507649722	-1.3802697017	 1.7944925959	 0.128379
H	 1.7250612605	 0.0800291905	 1.5597067939	 0.113868
H	 0.1253755056	 0.1973985021	 2.3041851527	 0.108527
H	-2.0297278779	-0.1912010039	 0.7576473039	 0.098743
H	-2.9266626518	-0.9541370126	-1.5628511021	 0.12146
H	 0.3728405876	-4.0011511518	-1.9319365889	 0.230235
H	-2.2882953196	-2.7057520846	 0.7406090637	 0.120737
48.4392	102.0783	168.979	229.4753	239.4045	257.7256	326.4604	406.3593	428.2382	455.7496	595.4407	693.2594	722.2673	783.6964	826.251	861.3012	867.6831	902.119	932.6183	945.9405	947.707	970.514	984.0385	1034.491	1055.8689	1082.7886	1087.6358	1141.0203	1189.1567	1197.3985	1222.6193	1294.4068	1307.7011	1341.2995	1348.7662	1400.434	1419.1491	1444.8594	1487.7824	1492.7848	1504.8286	1511.8142	1828.9222	3025.3782	3028.785	3050.9882	3090.8078	3097.6574	3106.6974	3109.9011	3111.2134	3210.2329	3231.7425	3478.5595
CC(C)C1C2OC(=N)C12	CC(C)[C@H]1[C@H]2O[C]([NH])[C@@H]12	
InChI=1S/C7H11NO/c1-3(2)4-5-6(4)9-7(5)8/h3-6,8H,1-2H3	InChI=1S/C7H11NO/c1-3(2)4-5-6(4)9-7(5)8/h3-6,8H,1-2H3/t4-,5+,6-/m1/s1
