19
gdb 56918	2.5454	1.19231	0.95262	1.6265	76.04	-0.2599	0.0229	0.2828	1274.5591	0.157867	-419.195628	-419.185722	-419.184778	-419.230305	36.725	
C	-0.0889000122	 1.5467813655	-0.2460085027	-0.47246
C	-0.0240645148	 0.0544102276	-0.0102516778	 0.386351
O	-1.2285883356	-0.6110858855	-0.3069702231	-0.462604
C	 1.2522945959	-0.72442439	-0.2403796327	-0.372311
C	 0.6752197851	-0.5778923572	 1.1583631325	-0.026396
C	 1.3816710122	 0.1480651031	 2.2984181062	-0.147443
N	 1.9945267451	-0.852838165	 3.1828722276	-0.496007
C	 2.3697028992	 1.1474649946	 1.8349743278	 0.267535
N	 3.1890215271	 1.8992293361	 1.5155681426	-0.346171
H	 0.8470778213	 2.0513635605	-0.0004171203	 0.15156
H	-0.3022809855	 1.7475556715	-1.3032342541	 0.111376
H	-0.8958399412	 1.990689826	 0.3460668338	 0.126611
H	-1.3881182092	-0.5171584719	-1.2531087547	 0.281146
H	 1.173633267	-1.6971304141	-0.712391807	 0.116455
H	 2.1503285097	-0.1630414453	-0.4795614973	 0.133708
H	 0.1587966403	-1.452331767	 1.5401933771	 0.12395
H	 0.6332942748	 0.6879271236	 2.8925031196	 0.137469
H	 2.6969012878	-1.3736298141	 2.6638681082	 0.243625
H	 2.479886643	-0.3923491083	 3.9475721744	 0.243604
50.8903	130.7548	153.8126	198.7451	237.0839	247.2679	285.4573	314.2085	333.7534	371.2549	398.0523	433.4146	516.0769	599.3016	632.2548	710.12	800.5879	856.8384	906.8118	921.0963	935.5784	974.8712	1000.7114	1057.2903	1072.9702	1102.3784	1130.9169	1137.3586	1207.7824	1235.7811	1293.8539	1327.7241	1351.6311	1386.4493	1410.0497	1425.1357	1479.3479	1494.6488	1512.4051	1657.9887	2339.5364	3028.5293	3032.2008	3088.8895	3129.4177	3140.3267	3172.016	3223.6906	3488.2319	3570.3278	3789.719
CC1(O)CC1C(N)C#N	C[C@@]1(O)C[C@H]1[C@@H](N)C#N	
InChI=1S/C6H10N2O/c1-6(9)2-4(6)5(8)3-7/h4-5,9H,2,8H2,1H3	InChI=1S/C6H10N2O/c1-6(9)2-4(6)5(8)3-7/h4-5,9H,2,8H2,1H3/t4-,5-,6+/m0/s1
