18
gdb 74878	2.81921	1.7005	1.22077	2.952	77.84	-0.2361	0.0016	0.2377	1043.029	0.149126	-401.913956	-401.906517	-401.905573	-401.945629	29.624	
C	-0.0301095936	 1.5092932914	 0.0804278952	-0.490314
C	-0.0000211972	 0.0082120023	-0.0053091543	 0.329387
C	 0.0013101684	-0.6532590667	-1.1718029046	-0.138155
C	 0.0225485543	-2.126826626	-1.279534235	-0.090081
N	 1.2525787253	-2.8422685749	-0.8460512103	-0.319699
C	 0.0423115355	-2.9388685172	-0.0228744185	-0.084285
C	 0.0410067659	-2.2090074463	 1.2908342602	 0.057363
O	 1.1946064946	-1.4641849438	 1.6458348451	-0.234771
C	 0.0057199147	-0.7307228422	 1.2862675948	-0.072692
H	 0.8703377939	 1.8927707629	 0.5763091085	 0.138607
H	-0.0947714773	 1.9669226362	-0.910107001	 0.122258
H	-0.8858148303	 1.8562106796	 0.6737508958	 0.123978
H	-0.0258281486	-0.0909133631	-2.1023526004	 0.087306
H	-0.4992071068	-2.5416780806	-2.1390916179	 0.085454
H	 1.3489246795	-3.6939780409	-1.3947890454	 0.231708
H	-0.5101534279	-3.8750532011	-0.0216083284	 0.082198
H	-0.4365778785	-2.7344998018	 2.1179170192	 0.087252
H	-0.448688342	-0.2125929077	 2.1312089371	 0.084486
128.0038	178.0639	218.3102	268.7669	324.4287	441.413	457.5617	527.8994	569.7889	649.0222	726.5707	747.6538	827.8139	833.2423	864.9004	878.141	923.6492	946.6494	971.1322	1007.1745	1038.4199	1066.9132	1069.6463	1110.6467	1132.9772	1155.2551	1187.9553	1211.1274	1247.4822	1283.9008	1339.4652	1395.1584	1410.515	1416.1804	1435.6132	1466.9529	1477.5452	1492.1386	1713.433	3018.0504	3066.5183	3099.1743	3109.4526	3113.891	3125.3913	3141.7632	3152.4656	3490.7137
CC1=CC2NC2C2OC12	CC1=C[C@H]2N[C@H]2[C@H]2O[C@@H]12	
InChI=1S/C7H9NO/c1-3-2-4-5(8-4)7-6(3)9-7/h2,4-8H,1H3	InChI=1S/C7H9NO/c1-3-2-4-5(8-4)7-6(3)9-7/h2,4-8H,1H3/t4-,5-,6+,7-/m1/s1
