18
gdb 54456	3.41367	1.3707	1.12676	2.901	77.57	-0.2157	-0.022	0.1938	1105.8424	0.146828	-401.887233	-401.879161	-401.878217	-401.919896	31.274	
C	-0.3053686423	 1.4363896008	 0.1451504643	-0.493168
C	 0.0615181679	-0.0255090354	-0.0020637839	 0.288985
O	 0.468948666	-0.6926716028	 0.9336059911	-0.343166
C	-0.0730200847	-0.6250966704	-1.3418127296	 0.240743
N	-0.0166339057	-2.1044867484	-1.47475878	-0.367225
C	 1.0576625937	-1.3202473152	-2.0588293009	-0.078777
C	 0.6060104497	-0.7045647913	-3.4091262046	-0.060579
C	-0.826590678	-1.037923631	-3.7350514011	-0.291869
C	-0.5357094563	 0.0027087071	-2.6890441449	-0.140506
H	 0.2851563412	 2.0538434891	-0.5410330412	 0.140221
H	-1.3593084253	 1.590608337	-0.1138983166	 0.144193
H	-0.1293196906	 1.755506924	 1.1726760866	 0.143785
H	 0.3015991583	-2.4277811392	-0.5581530901	 0.252119
H	 2.0808322873	-1.40646103	-1.7147787767	 0.114948
H	 1.3002935159	-0.295048525	-4.1301589183	 0.096201
H	-1.1705539523	-0.6330724536	-4.6816540195	 0.112838
H	-1.2449768291	-1.9961278559	-3.4564706822	 0.148201
H	-0.8426473356	 1.0359464905	-2.7801403723	 0.093056
89.2243	134.7328	159.734	181.1797	342.6045	389.441	442.295	459.5643	585.6218	595.7594	637.4892	716.4097	753.8234	796.5605	849.8171	862.3346	907.4513	925.4601	959.3171	979.0054	993.1193	1030.3492	1050.5352	1056.7171	1063.8695	1102.4916	1144.5125	1189.9786	1192.81	1229.5749	1286.794	1312.3074	1363.6738	1378.0955	1409.6824	1462.8118	1464.5951	1474.713	1755.0246	3034.6463	3094.2106	3142.1307	3155.162	3194.982	3200.3431	3209.681	3239.2405	3449.9874
CC(=O)C12NC1C1CC21	CC(=O)[C@]12N[C@H]1[C@H]1C[C@@H]21	
InChI=1S/C7H9NO/c1-3(9)7-5-2-4(5)6(7)8-7/h4-6,8H,2H2,1H3	InChI=1S/C7H9NO/c1-3(9)7-5-2-4(5)6(7)8-7/h4-6,8H,2H2,1H3/t4-,5+,6-,7+/m0/s1
