18
gdb 86644	2.95675	1.30427	1.02561	5.9161	76.08	-0.2373	0.0058	0.2432	1191.1393	0.149202	-435.317219	-435.308469	-435.307525	-435.351081	31.879	
C	 0.2004200362	 1.4510379371	 0.0136863464	-0.396804
C	-0.0953841748	-0.0495927552	-0.0763829552	 0.020086
C	 0.6930787898	-0.7620507597	-1.1991319103	-0.184501
N	 1.8647342092	-1.2827915027	-0.5018392425	-0.120459
C	 2.9548941863	-1.7772154426	-1.2003760724	 0.081069
N	 3.9629582338	-2.3350267582	-0.6695617803	-0.419882
C	 1.6380644681	-1.33779468	 0.8927735302	 0.466967
O	 2.3690567702	-1.7658544293	 1.7455120238	-0.371147
N	 0.3703161868	-0.7999826535	 1.0829966155	-0.356508
H	 1.2776276256	 1.6312919456	 0.0892875693	 0.136724
H	-0.1796649766	 1.974277379	-0.8700257362	 0.12177
H	-0.281005155	 1.8886680255	 0.8942221429	 0.122113
H	-1.1699285026	-0.2020377005	-0.2202123263	 0.095053
H	 0.1013036838	-1.5758726385	-1.6374253462	 0.121418
H	 0.9783611816	-0.0722627904	-1.9986973333	 0.121254
H	 2.8237785916	-1.6063000379	-2.2779101915	 0.085429
H	 4.6284797267	-2.5931081383	-1.3963193453	 0.225245
H	 0.1693969795	-0.4791806404	 2.0178707115	 0.252174
60.9075	115.3496	138.8404	196.6363	220.5231	258.1977	334.3618	426.122	474.1358	503.2701	538.9645	719.7998	734.0775	761.0328	791.8864	813.7451	847.268	949.2918	987.663	1051.5811	1060.9676	1115.5583	1141.5002	1152.7067	1213.7124	1232.9848	1257.425	1312.6385	1346.2337	1386.7089	1410.0466	1418.7422	1434.1389	1438.9071	1494.351	1495.5349	1521.2604	1723.3492	1869.5394	3010.9769	3019.2674	3033.0239	3049.7698	3080.5659	3104.9951	3113.3119	3498.2135	3631.9124
CC1CN(C=N)C(=O)N1	C[C@H]1CN([CH][NH])C(=O)N1	
InChI=1S/C5H9N3O/c1-4-2-8(3-6)5(9)7-4/h3-4,6H,2H2,1H3,(H,7,9)	InChI=1S/C5H9N3O/c1-4-2-8(3-6)5(9)7-4/h3-4,6H,2H2,1H3,(H,7,9)/t4-/m0/s1
