21
gdb 116010	2.47792	1.14599	0.82547	2.2979	81.84	-0.224	0.0263	0.2503	1428.4284	0.181218	-424.228881	-424.218954	-424.218009	-424.264323	35.561	
C	-0.0310862578	 1.5613660157	-0.1275816856	-0.382328
C	 0.0098276056	 0.0326150778	-0.0647966073	-0.17979
C	-1.3779153092	-0.5866583521	 0.1505596527	 0.0423
O	-2.2587156693	-0.1882348159	-0.9045590425	-0.282094
C	-2.8567282125	-1.3292420821	-1.5154173335	-0.118092
C	-2.2476122339	-2.511055407	-0.821561771	-0.203379
C	-1.4136424201	-2.0984582806	 0.1268282155	 0.298515
C	-0.6244052886	-2.9333119795	 1.0797912211	-0.182926
O	-0.9500009333	-4.2986257148	 0.8933378686	-0.414585
H	 0.9657765401	 1.9766406573	-0.3037335777	 0.106862
H	-0.690623109	 1.8912973237	-0.9339639488	 0.137776
H	-0.4095177467	 1.9846558641	 0.8098228471	 0.110232
H	 0.429121177	-0.374806311	-0.9928312484	 0.098028
H	 0.6673490912	-0.2898600311	 0.7535606449	 0.088289
H	-1.7782224229	-0.2039798554	 1.1083310726	 0.070237
H	-3.9516401976	-1.2916576053	-1.3919478701	 0.101711
H	-2.656300123	-1.3166107151	-2.5981492437	 0.103485
H	-2.4793186141	-3.5398059964	-1.0597232115	 0.117232
H	 0.4532053777	-2.7547220956	 0.9216571853	 0.101484
H	-0.8404335699	-2.6039660352	 2.1124182043	 0.09671
H	-0.3931141838	-4.8209100414	 1.477432258	 0.290337
66.6406	84.9648	102.1949	150.2437	208.422	222.6753	233.3307	246.0286	322.2821	375.1189	490.5699	530.1077	673.5647	753.1176	783.385	815.7263	871.046	924.4119	946.4115	978.4171	1034.5532	1046.0895	1053.8182	1075.6214	1091.3097	1126.4072	1137.1726	1191.0645	1197.2175	1221.2865	1253.5735	1286.9218	1288.465	1324.0698	1352.9204	1384.8358	1390.7024	1405.2038	1469.3423	1475.8713	1495.504	1507.9528	1508.9386	1524.7328	1737.662	2919.2768	2939.905	2957.7199	2967.0703	2987.3436	3017.3423	3035.5642	3059.9353	3100.3944	3125.6348	3238.3222	3836.8952
CCC1OCC=C1CO	CC[C@H]1OCC=C1CO	
InChI=1S/C7H12O2/c1-2-7-6(5-8)3-4-9-7/h3,7-8H,2,4-5H2,1H3	InChI=1S/C7H12O2/c1-2-7-6(5-8)3-4-9-7/h3,7-8H,2,4-5H2,1H3/t7-/m1/s1
