15
gdb 32561	2.68639	1.50845	0.97181	1.9236	71.03	-0.2352	-0.0282	0.207	1131.9509	0.114052	-453.965701	-453.957783	-453.956838	-453.998547	28.917	
O	-0.0205956936	 1.418825019	-0.0390064973	-0.428071
C	-0.0073816612	 0.0019274645	-0.0739877622	-0.160811
C	-1.4125380978	-0.5077483352	 0.0279100831	 0.163879
C	-2.4649050469	 0.3113977774	 0.1316424412	-0.025934
O	-3.7511046871	-0.1546423226	 0.2251427604	-0.186563
C	-3.9010956404	-1.4984509195	 0.2068207742	 0.125317
N	-2.9890477012	-2.3770383427	 0.1130271226	-0.314242
C	-1.6421518031	-1.9542000099	 0.0134224652	 0.284717
N	-0.6623939967	-2.7697908991	-0.0844208743	-0.530246
H	 0.8862990326	 1.7270808259	-0.1122969907	 0.295835
H	 0.4387090725	-0.386999876	-1.0019249556	 0.123232
H	 0.580913156	-0.4288065093	 0.7504926016	 0.123296
H	-2.4167237918	 1.3895086931	 0.1522577113	 0.162937
H	-4.9510922565	-1.7651974769	 0.2858432111	 0.146016
H	-1.021948405	-3.7262999887	-0.0770296206	 0.220637
85.6015	123.3008	199.3142	202.6792	270.1039	346.0712	413.3564	494.7256	503.6486	553.268	607.9591	775.5396	776.8521	894.4421	895.3276	916.7249	971.9184	993.9771	1042.5275	1065.2432	1087.5318	1182.4527	1215.2252	1229.568	1238.6269	1332.7444	1406.3445	1426.9617	1468.6213	1499.7844	1653.5969	1690.4677	1731.8176	2989.0781	3010.8858	3188.6242	3263.4842	3465.143	3849.3978
OCC1=COC=NC1=N	OCC1=C(N=COC1)[NH]	
InChI=1S/C5H6N2O2/c6-5-4(1-8)2-9-3-7-5/h2-3,6,8H,1H2	InChI=1S/C5H7N2O2/c6-5-4(1-8)2-9-3-7-5/h3,6,8H,1-2H2
