20
gdb 39216	2.4865	1.98996	1.51179	1.4556	76.76	-0.2362	0.0659	0.3022	954.5455	0.175178	-403.11299	-403.106089	-403.105145	-403.143919	29.018	
C	-0.0124079482	 1.6464657491	-0.0295031029	-0.267296
C	 1.5106097798	 1.4166106943	-0.1028605692	 0.10828
C	 2.2593753056	 1.5250925244	 1.2420749549	-0.23279
C	 2.2662131421	 0.229016427	 2.0729593343	-0.201672
C	 0.9291482024	-0.4272431376	 2.3749042743	 0.004154
N	-0.2588409271	 0.4145731982	 2.5652318634	-0.338131
C	-0.1968511843	-0.5029381523	 1.403889579	-0.0432
C	-0.0753275625	 0.1091468375	 0.0115571895	 0.097902
O	 1.2888277373	 0.0314633509	-0.4942074552	-0.294461
H	-0.406746316	 2.1825459571	 0.8317572057	 0.12475
H	-0.4167730372	 2.0478525368	-0.9603770012	 0.098473
H	 2.0410159059	 1.9622072267	-0.8898893091	 0.07148
H	 3.304778307	 1.7988273709	 1.0612418759	 0.095729
H	 1.8191420085	 2.3425387207	 1.8233527611	 0.11305
H	 2.8778190662	-0.5178428985	 1.5554279523	 0.116188
H	 2.7679966991	 0.4389266159	 3.0265445737	 0.091307
H	 1.0269217458	-1.2871502665	 3.0375423742	 0.07947
H	-0.8634155391	 0.0347531007	 3.2879124674	 0.229892
H	-0.8127323588	-1.3981301733	 1.4557398215	 0.077888
H	-0.7690376067	-0.3815234123	-0.6783951798	 0.068985
146.5206	244.8123	304.466	341.7224	366.9807	425.9969	522.7424	593.5581	652.4886	725.6021	760.2528	801.2086	842.8603	870.5845	895.111	917.5404	929.0503	947.5697	980.0051	999.5047	1027.6428	1038.4478	1073.1361	1108.1994	1124.8794	1144.4426	1175.2475	1202.1471	1207.4577	1248.3276	1267.8068	1282.6226	1288.9498	1325.7289	1354.4132	1366.1298	1383.6347	1399.7274	1407.9835	1462.2957	1470.2243	1480.7232	1493.6989	3021.5631	3035.5312	3050.7948	3052.2223	3067.092	3083.5214	3086.7783	3101.0144	3126.6729	3159.0834	3507.5806
C1C2CCC3NC3C1O2	C1[C@H]2CC[C@H]3N[C@H]3[C@@H]1O2	
InChI=1S/C7H11NO/c1-2-5-7(8-5)6-3-4(1)9-6/h4-8H,1-3H2	InChI=1S/C7H11NO/c1-2-5-7(8-5)6-3-4(1)9-6/h4-8H,1-3H2/t4-,5-,6-,7-/m1/s1
