21
gdb 110323	1.86861	1.69595	1.10376	1.7208	79.05	-0.2311	0.0677	0.2988	1202.7752	0.180548	-424.181205	-424.171496	-424.170552	-424.215376	36.269	
C	 0.4323609825	 1.1546156628	-0.2318316615	-0.236437
O	-0.2681223685	 0.0700678286	 0.3414473583	-0.229197
C	 0.5037009815	-0.6412027005	 1.2630895789	 0.054008
C	 0.1864661404	-2.0575096302	 1.6381795342	-0.198138
C	-0.2629563554	-2.9182077332	 0.4438677913	 0.052058
C	-1.6350524062	-2.6909011776	-0.1806137766	-0.411003
C	 1.0270462896	-2.4938980908	-0.3381194581	-0.323211
C	 1.4926633121	-1.7048276188	 0.8938950295	 0.322802
O	 2.7795812818	-1.7510717749	 1.4081113111	-0.457471
H	 1.322348078	 0.819770165	-0.7853883366	 0.102426
H	-0.2494981993	 1.6531871461	-0.9245876042	 0.129556
H	 0.7531803883	 1.878230782	 0.533416353	 0.106431
H	 0.8350754166	-0.0402710741	 2.1143130439	 0.086183
H	 0.035968728	-2.3222674509	 2.6789701346	 0.089314
H	-0.1644850999	-3.971329714	 0.7269253189	 0.07713
H	-1.7582258024	-1.6523438043	-0.4918847224	 0.13966
H	-1.7737731377	-3.3381485996	-1.0543095227	 0.104386
H	-2.4309413379	-2.9284100738	 0.5344482084	 0.108192
H	 1.685170607	-3.3363706544	-0.5592204702	 0.105545
H	 0.8698265262	-1.9084641453	-1.2492403112	 0.094648
H	 3.300196565	-1.055284502	 0.9918142315	 0.283118
92.9429	138.7514	161.9132	174.9601	220.3897	225.8034	234.1324	288.037	366.1883	399.4357	405.2457	529.9712	560.2879	640.486	730.3757	803.0199	866.6113	890.2149	906.2217	970.6188	990.3073	1012.8616	1048.0894	1089.976	1099.4745	1120.3142	1163.0968	1182.1533	1186.9234	1214.1853	1231.9698	1244.377	1260.8307	1302.3716	1322.1041	1337.5241	1373.0611	1408.1528	1449.6811	1478.692	1486.4814	1493.0536	1498.777	1507.105	1512.2668	2977.0819	3025.2978	3029.6144	3045.2384	3052.4538	3073.7706	3085.8184	3117.2148	3118.147	3142.8184	3172.5804	3791.812
COC1C2C(C)CC12O	CO[C@H]1[C@H]2[C@@H](C)C[C@@]12O	
InChI=1S/C7H12O2/c1-4-3-7(8)5(4)6(7)9-2/h4-6,8H,3H2,1-2H3	InChI=1S/C7H12O2/c1-4-3-7(8)5(4)6(7)9-2/h4-6,8H,3H2,1-2H3/t4-,5+,6-,7-/m0/s1
