19
gdb 97713	5.07052	0.68075	0.66709	1.325	88.65	-0.2405	0.0268	0.2673	1737.0933	0.159375	-385.802841	-385.794039	-385.793095	-385.838058	32.428	
O	-0.030787454	 1.4403994057	 0.0115747225	-0.409843
C	-0.0324125726	 0.016943495	 0.0022002376	-0.24103
C	-1.4035754774	-0.4738896272	 0.0127268777	 0.455869
C	-2.5283019388	-0.9066233731	 0.0211225102	-0.448627
C	-3.8705970094	-1.412969652	 0.0310846074	 0.286968
C	-4.9940547026	-1.1709279185	-1.0342724341	-0.243388
C	-5.6372756487	-2.0871575205	 0.0440967023	-0.082304
C	-4.3212267421	-2.9143451715	 0.0302455369	-0.243472
C	-4.9755992299	-1.1776996808	 1.1170551966	-0.24338
H	 0.8890131405	 1.7246027387	 0.0043359174	 0.288789
H	 0.4830418702	-0.375091598	-0.8902527583	 0.115481
H	 0.5008171551	-0.386762643	 0.87886317	 0.11548
H	-5.3728355331	-0.1483164967	-1.1073185095	 0.097483
H	-4.8229735962	-1.609988688	-2.0205816579	 0.094707
H	-6.6548520325	-2.4755569865	 0.0516057294	 0.075344
H	-4.1008247729	-3.4812059249	-0.8780813426	 0.094849
H	-4.0853559956	-3.4868089111	 0.931140495	 0.094855
H	-4.7876751081	-1.6229729608	 2.0974961641	 0.094724
H	-5.352957812	-0.1555728667	 1.2030447652	 0.097494
22.1379	77.7765	101.7997	205.7723	227.435	302.4855	393.9315	487.1626	499.1242	553.5695	557.8377	614.0159	793.0233	793.1182	872.5704	912.5044	943.8202	944.1794	961.4116	992.8246	1014.9523	1029.5074	1067.9905	1097.1066	1097.4877	1128.9985	1129.832	1162.4313	1162.9992	1233.534	1233.6155	1243.2201	1245.8066	1254.2001	1327.7799	1460.8617	1496.1374	1498.3268	1503.1661	1551.6731	2362.4978	2959.2399	2976.5198	3049.9356	3051.6811	3058.1807	3116.8905	3122.4227	3123.3944	3123.6443	3816.8202
OCC#CC12CC(C1)C2	OCC#C[C@@]12C[C@@H](C1)C2	
InChI=1S/C8H10O/c9-3-1-2-8-4-7(5-8)6-8/h7,9H,3-6H2	InChI=1S/C8H10O/c9-3-1-2-8-4-7(5-8)6-8/h7,9H,3-6H2/t7-,8+
