17
gdb 96692	2.76377	1.13531	0.82687	2.0875	77.61	-0.2546	-0.0831	0.1715	1348.4307	0.132962	-455.165925	-455.155931	-455.154987	-455.201465	34.023	
C	-0.2134281223	 1.4220263456	 0.1437891983	-0.327908
N	-0.072323275	-0.0122847967	 0.0073587913	-0.279376
C	 0.572544374	-0.5723614004	-0.9329249757	 0.310616
C	 1.3813389618	 0.1525003181	-1.9927532387	 0.063597
O	 1.0161850918	 1.1632222611	-2.5361668281	-0.228111
N	 0.6844108585	-1.9728039868	-0.9326714737	-0.128006
C	 0.2802312264	-2.712674651	 0.2623067581	-0.338612
C	 0.9979690183	-2.6694394398	-2.0824204244	 0.157367
O	 1.071295731	-3.8720331198	-2.1655279397	-0.316567
H	-0.1214722513	 1.6760573578	 1.2045528656	 0.130416
H	 0.4857791929	 2.0254433315	-0.4427384221	 0.136959
H	-1.2290397753	 1.7006754152	-0.1624753169	 0.14503
H	 2.3881818623	-0.277848235	-2.1824130869	 0.114841
H	-0.7847046613	-2.5669692489	 0.457680864	 0.151138
H	 0.4925173925	-3.7643572998	 0.0800044986	 0.165757
H	 0.8383614043	-2.3484835129	 1.1270883878	 0.141579
H	 1.1726165415	-2.0048405782	-2.9481823376	 0.10128
58.664	95.5063	124.9919	133.2947	146.5292	228.8414	264.6429	307.7181	329.3788	354.9305	406.4426	435.1995	469.2652	556.6552	792.2412	856.0977	924.671	1011.3964	1028.0322	1071.6963	1116.217	1128.2457	1158.2113	1170.3174	1325.1928	1360.7647	1416.2846	1441.9865	1444.9442	1461.3222	1478.6037	1487.1263	1498.283	1510.1997	1698.1996	1810.5763	1813.1827	2895.9466	2962.8398	3025.0991	3064.6307	3082.1411	3105.2991	3129.5599	3182.1271
CN=C(C=O)N(C)C=O	CN=C(C=O)N(C)C=O	
InChI=1S/C5H8N2O2/c1-6-5(3-8)7(2)4-9/h3-4H,1-2H3	InChI=1S/C5H8N2O2/c1-6-5(3-8)7(2)4-9/h3-4H,1-2H3
