17
gdb 19053	3.69079	2.24875	2.05126	0.6507	66.28	-0.23	0.0816	0.3116	750.6129	0.144058	-363.813537	-363.807192	-363.806248	-363.843677	25.58	
C	-0.3093590867	 1.5536220836	 0.0227040817	-0.402497
C	 0.0262726365	 0.0662045242	-0.0558318601	 0.114381
O	 0.751256823	-0.2642641642	-1.2578151997	-0.281627
C	 2.0360316101	-0.7220530522	-0.8689524575	 0.068173
C	 2.8126547742	 0.3755042698	-0.1106097101	-0.17522
N	 2.3246916849	-0.1445276119	 1.2177347955	-0.164259
C	 1.883215997	-1.4082554073	 0.5111894168	-0.066259
C	 0.8778157319	-0.4985959834	 1.0740049454	-0.050431
H	 0.5835925031	 2.172518634	 0.1332186016	 0.127153
H	-0.8386054939	 1.8659308909	-0.8817854516	 0.128026
H	-0.9617871359	 1.7419077651	 0.8821756925	 0.116597
H	-0.9180412106	-0.4978342366	-0.0802308061	 0.083993
H	 2.5005068585	-1.2339955932	-1.7108586759	 0.086128
H	 3.8965831284	 0.2343924573	-0.1417962103	 0.111191
H	 2.5695779265	 1.4149516754	-0.347571418	 0.104988
H	 2.1443258678	-2.4068692975	 0.8381157941	 0.097359
H	 0.4072221652	-0.7026012639	 2.0294947915	 0.102305
171.8696	207.6313	252.0716	397.1858	452.3588	523.3474	656.9353	660.65	774.8473	786.1887	833.5131	849.9738	874.633	895.1403	951.7007	971.1981	986.3239	1027.1465	1050.3629	1088.1511	1109.7657	1116.3034	1138.7981	1181.5667	1192.1462	1232.3638	1271.2427	1297.8308	1324.5522	1356.8402	1375.9037	1394.6473	1409.3509	1484.3888	1494.5875	1502.1197	2990.1575	3043.3877	3053.0911	3107.722	3112.3929	3126.2838	3134.3983	3177.4906	3195.5988
CC1OC2CN3C2C13	C[C@H]1O[C@H]2CN3[C@H]2[C@H]13	
InChI=1S/C6H9NO/c1-3-5-6-4(8-3)2-7(5)6/h3-6H,2H2,1H3	InChI=1S/C6H9NO/c1-3-5-6-4(8-3)2-7(5)6/h3-6H,2H2,1H3/t3-,4+,5+,6-,7?/m1/s1
