13
gdb 5052	3.75142	2.11732	1.3676	3.8241	72.55	-0.2404	-0.089	0.1514	833.4632	0.09751	-361.491298	-361.48496	-361.484016	-361.522295	23.456	
O	 0.0344979895	-0.0351811731	-0.3714227194	-0.347054
C	-0.0301687255	 1.160850657	-0.1210382505	 0.313493
C	-1.3163042585	 1.8352549646	 0.053301525	-0.166445
C	-1.5721338588	 3.1664141495	 0.115347883	-0.070297
C	-0.6569511429	 4.257662182	 0.0050266928	-0.079477
C	 0.7031090543	 4.2096895005	-0.0488349044	-0.000145
N	 1.554972848	 3.1488974258	 0.1002918199	-0.221621
C	 1.2487519111	 1.899418797	 0.1072877383	-0.041638
H	-2.150000646	 1.1412888008	 0.1194323272	 0.125301
H	-2.6156883817	 3.4521600402	 0.2258303884	 0.11848
H	-1.1002986527	 5.248984282	-0.0347002795	 0.112163
H	 1.2285271454	 5.1551473997	-0.1648966786	 0.121015
H	 2.0722184077	 1.2007220939	 0.2769031279	 0.136224
55.0329	231.5325	326.3219	381.5157	419.6664	488.2702	594.8098	609.6401	694.6521	817.7641	860.0949	873.7395	897.1996	954.7815	979.1767	1005.7943	1043.184	1084.5106	1221.8057	1285.0961	1307.9464	1401.9941	1433.9289	1485.1109	1558.7332	1652.8423	1661.4043	1719.8467	3102.9362	3146.15	3153.4014	3172.6759	3180.4245
O=C1C=CC=CN=C1	O=c1ccccnc1	
InChI=1S/C6H5NO/c8-6-3-1-2-4-7-5-6/h1-5H	InChI=1S/C6H5NO/c8-6-3-1-2-4-7-5-6/h1-5H
