20
gdb 96202	2.58289	1.36135	0.94674	4.6066	87.52	-0.2579	-0.0343	0.2237	1258.2355	0.172721	-366.062063	-366.053419	-366.052475	-366.095309	33.015	
C	-0.032513906	 1.5709578785	-0.0024235295	-0.411893
C	 0.0254153915	 0.0358249539	 0.0139515076	-0.074924
C	 0.6689467797	-0.5124222952	-1.2705934399	-0.198852
C	 0.9733475483	-2.0098770491	-1.1723768328	-0.223688
C	 1.9689624918	-2.2826403404	-0.0374785535	-0.249363
C	 1.6288750107	-1.5180891363	 1.2078933504	-0.126588
C	 0.7545695497	-0.4993733849	 1.243065495	 0.169685
C	 0.460664896	 0.1181620845	 2.5009024486	 0.227563
N	 0.1980400465	 0.6296350457	 3.5070944255	-0.350925
H	 0.9746406542	 1.9999546568	-0.0398956859	 0.121235
H	-0.5805691519	 1.9169906719	-0.8842463109	 0.115969
H	-0.5330140625	 1.9649975913	 0.8858085237	 0.142886
H	-1.009969238	-0.3328056086	 0.0672694777	 0.097913
H	 0.0071159005	-0.3063051082	-2.1185682914	 0.100487
H	 1.6018419607	 0.0355060197	-1.4616263827	 0.100812
H	 0.043487315	-2.5589830571	-0.977810743	 0.106315
H	 1.3695734659	-2.3869397047	-2.120471465	 0.100511
H	 2.0102733466	-3.353290041	 0.1979628765	 0.116832
H	 2.9900640904	-2.0160344245	-0.3498815179	 0.122836
H	 2.1169129609	-1.8217378823	 2.1300389074	 0.113188
72.0477	154.5704	175.0586	224.5634	275.4603	295.4946	330.6374	403.7349	456.7543	464.5858	568.7533	605.4244	650.6102	723.9646	829.6935	850.6753	880.6552	916.9727	946.508	992.7155	1014.2083	1071.9176	1093.3474	1106.3024	1125.602	1159.269	1188.5995	1245.5868	1281.1521	1322.5581	1333.8724	1364.554	1372.5303	1382.103	1384.5395	1415.8175	1466.8971	1486.8348	1495.9577	1497.5735	1501.0297	1687.7707	2329.9929	2990.7502	2999.4267	3017.2983	3029.2595	3036.9685	3048.3805	3071.281	3079.9299	3104.8417	3121.1298	3169.4279
CC1CCCC=C1C#N	C[C@H]1CCCC=C1C#N	
InChI=1S/C8H11N/c1-7-4-2-3-5-8(7)6-9/h5,7H,2-4H2,1H3	InChI=1S/C8H11N/c1-7-4-2-3-5-8(7)6-9/h5,7H,2-4H2,1H3/t7-/m0/s1
