15
gdb 26047	3.44364	1.23676	0.94211	5.7567	71.62	-0.2328	0.0067	0.2395	1176.6383	0.115709	-413.028734	-413.020805	-413.019861	-413.061805	29.098	
N	-0.8938495573	 0.5927454441	 0.1389159198	-0.51656
C	 0.1669465187	-0.3802141842	-0.1596947033	-0.266327
C	 1.093657101	 0.0640565891	-1.2220367135	 0.301897
N	 1.7411252202	 0.4712690247	-2.0877545654	-0.322274
C	 0.9070156411	-0.7203689727	 1.108125457	 0.397055
N	 2.1287036754	-1.1861807483	 1.213168004	-0.303969
C	 2.3184487743	-1.4004387988	 2.5590570358	-0.090225
C	 1.1951321777	-1.0562076329	 3.2652503364	-0.108287
N	 0.2940539966	-0.6228404291	 2.3200708959	-0.274807
H	-0.4793957182	 1.5067434047	 0.302859096	 0.252575
H	-1.505892546	 0.6914873268	-0.6652317764	 0.253468
H	-0.3310849261	-1.2860440955	-0.5326892391	 0.154828
H	 3.252572165	-1.7836378429	 2.9398133855	 0.114634
H	 0.959161577	-1.0687806459	 4.3160891127	 0.133327
H	-0.6401642793	-0.2717863293	 2.4561865647	 0.274666
55.3454	123.0017	174.9963	237.6952	297.3894	334.4989	441.8285	467.7273	592.7437	603.2992	668.7274	682.704	742.0242	797.3357	862.5405	873.0866	927.5251	978.1214	1004.9135	1079.2589	1113.1392	1139.5889	1170.9489	1199.8407	1247.251	1328.6167	1386.5397	1404.2867	1468.333	1502.5065	1581.8579	1663.023	2359.1005	3014.8315	3253.5633	3283.4794	3494.5531	3576.2645	3657.7228
NC(C#N)C1=NC=CN1	N[C@@H](C#N)c1ncc[nH]1	
InChI=1S/C5H6N4/c6-3-4(7)5-8-1-2-9-5/h1-2,4H,7H2,(H,8,9)	InChI=1S/C5H6N4/c6-3-4(7)5-8-1-2-9-5/h1-2,4H,7H2,(H,8,9)/t4-/m0/s1
