21
gdb 51088	3.61951	1.05832	0.98834	2.7888	82.53	-0.2455	-0.0198	0.2257	1274.3167	0.183561	-387.096185	-387.087945	-387.087001	-387.129832	31.893	
O	-0.1903229551	-0.0236555884	-0.0857646781	-0.242984
C	-0.0012024792	 1.1619945892	 0.0079954844	 0.162977
C	 1.3399983292	 1.8443507156	-0.1511839363	-0.388483
C	 1.3261726227	 2.9119142776	-1.2361606247	 0.339656
C	 0.4451014587	 4.2018608281	-1.1493602705	-0.260952
C	 1.4644852925	 4.7288437825	-2.1982551912	-0.016077
C	 2.5265533876	 3.8874362897	-1.4355177493	-0.2671
C	 1.1622220519	 3.8356476695	-3.4172178543	-0.211828
C	 1.0578916069	 2.4556244233	-2.6900911657	-0.247541
H	-0.8451840317	 1.8572517732	 0.2279371911	 0.073927
H	 1.5837804543	 2.3148860909	 0.8126422183	 0.112052
H	 2.094842651	 1.0779649393	-0.3568557799	 0.11745
H	-0.6074173744	 4.134295306	-1.4421270161	 0.090342
H	 0.5356698227	 4.704162551	-0.1825634139	 0.09419
H	 1.6003430583	 5.795289194	-2.3781203512	 0.061452
H	 2.8426010925	 4.3534217209	-0.4985206906	 0.093667
H	 3.3980001496	 3.5233709461	-1.9890924588	 0.089506
H	 0.2324051913	 4.1182598332	-3.9191887585	 0.097679
H	 1.964764956	 3.8606826003	-4.159897287	 0.097825
H	 1.8057197167	 1.7346020001	-3.0340692412	 0.100888
H	 0.0741703387	 1.9897105781	-2.8031740264	 0.103352
50.329	67.6961	166.1588	270.0697	290.639	371.6379	435.5726	467.656	507.9273	607.8996	679.8986	815.0622	829.2227	832.161	845.2544	889.9686	902.3553	934.6028	950.3964	973.2119	989.9164	995.3522	1042.1316	1068.8771	1090.3491	1119.5092	1148.6082	1156.1124	1181.4833	1204.5546	1242.1614	1245.2402	1265.5094	1272.9833	1288.4729	1312.2492	1327.0177	1347.1667	1429.4822	1459.5497	1485.3583	1493.1254	1500.5604	1531.4496	1832.9238	2856.3008	3007.9491	3042.7657	3045.8899	3048.5014	3057.7751	3081.2411	3083.3258	3101.1439	3106.7449	3108.7156	3115.734
O=CCC12CC(C1)CC2	O=CC[C@@]12C[C@@H](C1)CC2	
InChI=1S/C8H12O/c9-4-3-8-2-1-7(5-8)6-8/h4,7H,1-3,5-6H2	InChI=1S/C8H12O/c9-4-3-8-2-1-7(5-8)6-8/h4,7H,1-3,5-6H2/t7-,8-
