20
gdb 17189	4.63726	1.59293	1.4163	0.1599	80.37	-0.2634	0.1056	0.369	969.1143	0.177739	-311.799549	-311.792211	-311.791267	-311.830588	29.769	
C	-0.1813391132	 1.5539337806	-0.003800598	-0.446302
C	 0.0415048006	 0.0489493852	 0.024270642	 0.073996
C	 1.2218866042	-0.6302192267	-0.7559199843	-0.14293
C	 2.1941632339	-0.1095179081	 0.348315163	-0.230366
C	 0.9400455042	-0.6370041538	 1.1129789523	-0.142888
C	 0.9937677373	-1.8472711334	 0.1609727102	 0.483791
C	 0.1517269734	-3.0667080189	 0.0295473832	-0.375751
C	 1.6627677126	-3.1717564226	 0.2570470641	-0.380739
H	 0.7335203187	 2.135019162	 0.1343127115	 0.116743
H	-0.6228674268	 1.8554866093	-0.9604091681	 0.115134
H	-0.8826625934	 1.8496389917	 0.7846792908	 0.115144
H	-0.9127450922	-0.4690360779	-0.1214895787	 0.065459
H	 1.3853910245	-0.6385407821	-1.8355450792	 0.064061
H	 3.1141295313	-0.6822771436	 0.4849591631	 0.093206
H	 2.3910190263	 0.9625707155	 0.3819181666	 0.088236
H	 0.7778873573	-0.6531457206	 2.1927204929	 0.064051
H	-0.5006304601	-3.3474624697	 0.851021209	 0.109749
H	-0.2290645866	-3.3409109151	-0.9497496593	 0.109749
H	 2.2730301422	-3.5148903435	-0.5730529072	 0.109828
H	 2.001440826	-3.5214407582	 1.2277420661	 0.109829
173.3677	177.1128	205.08	263.1944	344.6863	366.6463	463.4181	589.0234	642.9062	739.6749	777.1753	784.9058	792.583	867.9139	895.894	912.529	947.7902	988.1335	1018.5073	1024.1779	1028.0723	1042.6833	1075.5441	1079.6414	1093.1822	1121.0113	1133.5055	1155.3201	1179.0364	1180.5982	1208.3209	1211.1098	1254.7362	1258.6758	1399.5189	1406.6979	1421.9747	1462.4045	1492.6938	1494.8654	1513.172	1530.886	3031.2693	3044.2386	3069.1182	3086.7365	3088.3102	3095.5856	3115.4662	3116.2903	3119.8677	3135.748	3191.5717	3205.927
CC1C2CC1C21CC1	C[C@H]1[C@H]2C[C@@H]1C12CC1	
InChI=1S/C8H12/c1-5-6-4-7(5)8(6)2-3-8/h5-7H,2-4H2,1H3	InChI=1S/C8H12/c1-5-6-4-7(5)8(6)2-3-8/h5-7H,2-4H2,1H3/t5-,6+,7-
