16
gdb 53857	3.91483	0.82465	0.70246	1.6843	74.21	-0.2431	-0.0284	0.2147	1538.2679	0.123439	-434.065677	-434.056003	-434.055058	-434.101716	34.627	
N	-0.0881967156	 1.2839812831	 0.18326963	-0.503818
C	 0.071087066	-0.0637746639	 0.0568815967	 0.25583
N	 1.2221670341	-0.6232782768	 0.0303455091	-0.522225
C	-1.289515198	-0.761010339	-0.0345138863	 0.396181
O	-2.2703832506	-0.1733732326	-0.4635750075	-0.391359
N	-1.3080412987	-2.0488062568	 0.3873398746	-0.334626
C	-2.5192300271	-2.8576605435	 0.3299182812	-0.290554
C	-2.233150446	-4.2354657445	-0.0524522955	 0.275272
C	-1.9846940168	-5.3738924829	-0.3433907739	-0.425074
H	 0.7241280123	 1.8544186321	 0.0112207729	 0.261835
H	-0.9874143689	 1.6415254617	-0.101448665	 0.273109
H	 1.1441499183	-1.6297927875	-0.0943815558	 0.211328
H	-0.4949752005	-2.4312192398	 0.8421448765	 0.259784
H	-3.0418407192	-2.8413827615	 1.2965396365	 0.147456
H	-3.1824678504	-2.3719124461	-0.3922969373	 0.178259
H	-1.7769176488	-6.379854222	-0.6138471861	 0.208603
21.2911	72.1363	84.266	180.3948	218.8557	310.1691	324.9559	349.6471	399.1665	492.6197	523.8689	529.1972	555.064	606.4523	626.3403	639.2023	678.5306	804.7651	842.3537	876.0337	965.0293	1025.225	1079.3859	1128.5963	1146.2978	1237.6241	1259.3521	1375.4729	1418.3858	1489.6565	1541.8065	1601.253	1716.6401	1764.2666	2246.3462	3010.7082	3089.5635	3503.3789	3512.7318	3581.9915	3646.1377	3708.4136
NC(=N)C(=O)NCC#C	NC(=N)C(=O)NCC#C	
InChI=1S/C5H7N3O/c1-2-3-8-5(9)4(6)7/h1H,3H2,(H3,6,7)(H,8,9)	InChI=1S/C5H7N3O/c1-2-3-8-5(9)4(6)7/h1H,3H2,(H3,6,7)(H,8,9)
