18
gdb 54030	1.92709	1.6045	0.92775	4.1637	73.06	-0.246	-0.0293	0.2167	1242.7385	0.143781	-439.069405	-439.059608	-439.058664	-439.105599	33.967	
C	 0.3257926491	 0.6114687918	 1.0673569733	-0.488195
C	-0.2395583077	 0.2565954822	-0.2869539456	 0.377337
O	 0.102839878	 0.8076153831	-1.30897833	-0.290178
C	-1.3016500876	-0.8493466411	-0.3723196256	-0.154081
C	-1.1977518431	-1.5283065538	-1.7434431688	 0.186251
O	-2.1478761103	-1.7386866611	-2.4476583178	-0.249118
N	-1.1328652406	-1.8706144758	 0.6600019751	-0.099759
C	-1.9586413259	-1.7287999563	 1.8632778257	-0.224234
C	-2.2758898173	-2.7699733759	 0.8535476773	-0.22196
H	 1.0473872892	 1.4219030598	 0.9602371296	 0.144547
H	-0.474947767	 0.9140439261	 1.7515377915	 0.139657
H	 0.8017236474	-0.2699121244	 1.5083155586	 0.161548
H	-2.2934888506	-0.363280582	-0.3351893191	 0.103352
H	-0.1750242958	-1.8567421705	-2.018348223	 0.100584
H	-1.4716724262	-1.9939037294	 2.7968044014	 0.127376
H	-2.6265220651	-0.8713680207	 1.9231459449	 0.120146
H	-3.1504593537	-2.6161806596	 0.2260122824	 0.138446
H	-2.0201338828	-3.8089000326	 1.0363757701	 0.12828
31.6677	57.2729	90.0775	160.9095	177.0131	212.9315	237.0931	335.5695	370.0469	426.5801	490.7623	528.3664	599.5137	777.741	816.7001	851.0243	884.4036	945.7797	989.4345	1014.2951	1050.6104	1070.9365	1103.6107	1116.7815	1127.3862	1178.1875	1187.779	1198.4431	1270.6396	1305.4948	1330.6498	1380.4265	1417.1087	1462.0564	1469.6843	1493.241	1519.3236	1799.7503	1839.4139	2929.8451	2944.8334	3042.3586	3101.2504	3107.4589	3115.1471	3157.5478	3188.7167	3206.5122
CC(=O)C(C=O)N1CC1	CC(=O)[C@@H](C=O)N1CC1	
InChI=1S/C6H9NO2/c1-5(9)6(4-8)7-2-3-7/h4,6H,2-3H2,1H3	InChI=1S/C6H9NO2/c1-5(9)6(4-8)7-2-3-7/h4,6H,2-3H2,1H3/t6-/m1/s1
