21
gdb 102684	2.27549	0.78522	0.61527	2.1851	81.44	-0.2542	0.0565	0.3107	1793.2262	0.179329	-424.181068	-424.16989	-424.168946	-424.218255	39.578	
O	-0.8966300369	 1.6568256214	 0.4270322958	-0.423383
C	-0.4120591222	 0.32902304	 0.2746813402	-0.09162
C	-1.6066867729	-0.5894364128	 0.0134252778	 0.010086
C	-2.2669783721	-0.2310643163	-1.3287797043	-0.086327
O	-3.4628677562	-0.9585891775	-1.5718948401	-0.41931
C	-1.2215467688	-2.07701369	 0.0513606533	-0.195832
C	-0.9944710157	-2.6336054529	 1.4731494362	-0.36831
C	-0.6247657004	-4.0438847308	 1.474033441	 0.297873
C	-0.3183681297	-5.2059612814	 1.4471956734	-0.438298
H	-0.1432108224	 2.2442986091	 0.5344247203	 0.288802
H	 0.2943952404	 0.256400374	-0.56943468	 0.089123
H	 0.1274917416	 0.0049718456	 1.1773970045	 0.088232
H	-2.342475745	-0.389166973	 0.8076584063	 0.070623
H	-2.4374529246	 0.8515232313	-1.3728756349	 0.109689
H	-1.590416833	-0.4948120346	-2.1511589869	 0.104316
H	-4.1274079984	-0.6443498691	-0.9505966666	 0.281962
H	-2.022084844	-2.6486663822	-0.4260217396	 0.129683
H	-0.3178294993	-2.243098919	-0.5487264569	 0.102891
H	-0.2145449745	-2.0601909725	 1.9897879981	 0.127932
H	-1.9096367773	-2.4966476161	 2.0644332412	 0.129387
H	-0.0495403789	-6.232852433	 1.4346341713	 0.192481
49.6843	79.2934	89.2302	118.6601	134.6994	215.2294	243.3983	258.339	267.5763	310.4103	346.6311	406.0218	460.6573	498.4918	564.121	615.1305	633.8916	757.4505	861.0201	905.8208	940.7385	958.6427	1031.7648	1059.3493	1065.7162	1090.5694	1102.384	1136.8878	1173.8549	1196.2709	1264.4928	1270.3123	1296.9427	1313.3722	1342.81	1356.4669	1392.062	1400.0772	1413.1537	1456.1849	1473.6557	1498.3391	1509.8078	1519.4808	2238.6213	2960.7707	2987.9354	3002.3576	3016.6438	3022.4777	3035.1858	3047.8174	3068.7492	3099.6915	3508.0708	3816.0669	3832.8317
OCC(CO)CCC#C	OCC(CO)CCC#C	
InChI=1S/C7H12O2/c1-2-3-4-7(5-8)6-9/h1,7-9H,3-6H2	InChI=1S/C7H12O2/c1-2-3-4-7(5-8)6-9/h1,7-9H,3-6H2
