15
gdb 54367	3.93052	1.4754	1.26471	2.5014	68.49	-0.229	0.0136	0.2426	970.6404	0.112694	-416.71713	-416.709786	-416.708842	-416.749172	28.084	
N	-0.1180966271	 1.2525529575	 0.2263634496	-0.546997
C	 0.0153338916	-0.072386707	-0.0484226459	 0.263842
O	 1.0676564817	-0.63248386	-0.2999999099	-0.377966
C	-1.2731288165	-0.7981824404	-0.0136059614	 0.335377
C	-1.8401861803	-1.8665619937	-0.9250667279	-0.158129
C	-3.2394110098	-1.2794327567	-0.6031331099	-0.05301
C	-3.0430723974	-1.5585886319	 0.8433751634	-0.05301
C	-1.6390769743	-2.1526121022	 0.5568322846	-0.158109
N	-2.6513035384	-0.2136595808	 0.2862394926	-0.236699
H	 0.6988745159	 1.8394738907	 0.2271855443	 0.262579
H	-1.0255394701	 1.6421665053	 0.4234806629	 0.274729
H	-1.3902588552	-2.3342479004	-1.7878601904	 0.118486
H	-4.1322538834	-1.1140488531	-1.1932588836	 0.10521
H	-3.7447837308	-1.6649491095	 1.6613342817	 0.105213
H	-1.0062204258	-2.880470188	 1.0419022398	 0.118484
78.4039	149.1972	168.6137	237.3825	362.5015	465.8955	590.604	636.086	659.0594	736.9991	777.968	785.3979	798.2213	843.225	854.7074	861.6177	908.6171	943.0929	967.4046	979.2911	1012.4252	1045.9916	1065.1972	1094.9195	1155.3237	1163.2034	1200.026	1266.7245	1310.2164	1322.4082	1447.8808	1608.621	1787.7231	3183.3154	3197.2024	3232.2304	3241.7825	3592.7871	3734.4643
NC(=O)C12C3C4C(C13)N24	NC(=O)[C@@]12[C@@H]3[C@H]4[C@@H]([C@H]13)N24	
InChI=1S/C6H6N2O/c7-5(9)6-1-2(6)4-3(1)8(4)6/h1-4H,(H2,7,9)	InChI=1S/C6H6N2O/c7-5(9)6-1-2(6)4-3(1)8(4)6/h1-4H,(H2,7,9)/t1-,2+,3-,4+,6+,8?
