17
gdb 64677	3.41929	1.01775	0.93225	2.8289	74.34	-0.2435	-0.024	0.2195	1272.1735	0.132229	-421.800088	-421.791031	-421.790087	-421.834189	34.263	
O	 0.0570692293	 1.5525768877	-0.3054126561	-0.478876
C	-0.016932226	 0.1834437282	 0.0030196589	 0.402915
C	 0.8779091776	-0.6485975445	-0.9394038549	-0.399344
C	 2.2700898848	-0.222775037	-0.8562159832	 0.262338
C	 3.3941595406	 0.1929992345	-0.7525847198	-0.421792
C	 0.1512440874	-0.1927777333	 1.5182058045	-0.403995
C	-1.2071147799	-0.9020270815	 1.4310120636	 0.410783
O	-1.7884842403	-1.6745314237	 2.1356398441	-0.289459
C	-1.4911967924	-0.3089485925	 0.0432052537	-0.397165
H	 0.9919358264	 1.7952155591	-0.3311386804	 0.28516
H	 0.7917589695	-1.7141582254	-0.6941533885	 0.136647
H	 0.5114053456	-0.5239189263	-1.9654916037	 0.143054
H	 4.399610002	 0.5275385092	-0.6779876613	 0.205676
H	 1.0115441499	-0.7967903987	 1.8169491056	 0.131321
H	 0.0969838578	 0.6981785333	 2.1518215815	 0.138351
H	-2.18234444	 0.5379944469	 0.0977465237	 0.147248
H	-1.8301734324	-0.998963806	-0.7338084276	 0.127136
52.2519	81.7197	133.3984	285.0016	321.5606	351.9688	369.6874	372.7325	416.9562	424.5803	485.2076	530.3981	632.921	661.4508	667.3721	681.8079	746.8625	845.5253	894.8831	937.7144	966.8912	989.3843	1008.582	1087.5107	1122.6888	1129.8476	1184.2943	1216.9989	1257.3678	1299.3807	1312.972	1397.4417	1416.7794	1440.453	1464.1401	1896.264	2231.619	3029.6329	3057.7506	3062.7602	3068.7532	3119.4802	3121.3785	3502.9991	3762.4148
OC1(CC#C)CC(=O)C1	OC1(CC#C)CC(=O)C1	
InChI=1S/C7H8O2/c1-2-3-7(9)4-6(8)5-7/h1,9H,3-5H2	InChI=1S/C7H8O2/c1-2-3-7(9)4-6(8)5-7/h1,9H,3-5H2
