20
gdb 38435	3.75153	1.3007	1.18866	1.4559	84.63	-0.2238	0.0254	0.2492	1112.6547	0.173217	-365.976907	-365.969426	-365.968481	-366.008874	30.337	
C	 0.0311814114	 1.575203473	 0.0436393328	-0.303116
C	 1.5514447791	 1.5457832019	-0.1213206968	-0.033773
N	 2.0769594656	 0.8124240412	 1.0579265315	-0.338828
C	 1.5665302091	 0.0608414305	-0.1155586208	-0.114401
C	 0.0257070386	-0.0058132046	 0.035030689	 0.362285
C	-0.5646327439	-0.7685261036	 1.243782301	-0.287071
C	-1.1993232246	-2.0617561749	 0.6691911541	-0.265898
C	-1.3176724256	-1.7568650383	-0.8052333454	-0.078772
C	-0.6632806887	-0.6464768361	-1.1415583557	-0.139571
H	-0.3275706115	 2.0515030518	 0.9600379773	 0.10218
H	-0.4962290825	 1.9912264092	-0.8185024782	 0.10053
H	 2.1773882855	 2.2486198857	-0.6570542814	 0.088697
H	 3.0943951241	 0.8178158733	 0.9823990692	 0.224988
H	 2.2004465275	-0.6405524853	-0.6462778162	 0.08353
H	 0.1896579732	-0.9509508139	 2.01175744	 0.113555
H	-1.3454862101	-0.1532448988	 1.7029369095	 0.10099
H	-0.5640329939	-2.9438988879	 0.8316886037	 0.104583
H	-2.1647213649	-2.296596	 1.1321847127	 0.101661
H	-1.8537146398	-2.3982474062	-1.4969638091	 0.09012
H	-0.5778621685	-0.2453586471	-2.146584487	 0.08831
82.4709	150.6359	211.048	287.7196	402.7753	413.5712	490.8627	525.9663	691.3145	751.9172	766.0666	785.5174	817.2221	838.0433	850.6746	888.5667	929.3768	939.4608	948.2355	974.6178	980.994	988.6288	1017.2158	1071.4738	1078.4454	1094.3282	1120.9679	1149.0217	1165.0203	1184.6457	1210.1281	1242.653	1248.8454	1296.2301	1304.3646	1319.7687	1325.4298	1376.4371	1385.0593	1471.9638	1482.0316	1499.2805	1682.721	3008.6111	3043.4716	3055.4108	3059.0725	3112.5007	3114.4226	3170.7554	3173.0031	3191.7825	3197.7236	3464.9928
C1C2NC2C11CCC=C1	C1[C@H]2N[C@H]2[C@]21CCC=C2	
InChI=1S/C8H11N/c1-2-4-8(3-1)5-6-7(8)9-6/h1,3,6-7,9H,2,4-5H2	InChI=1S/C8H11N/c1-2-4-8(3-1)5-6-7(8)9-6/h1,3,6-7,9H,2,4-5H2/t6-,7-,8+/m1/s1
