15
gdb 29388	5.91284	0.91677	0.79757	2.4946	73.13	-0.1964	0.0309	0.2272	1344.6925	0.112679	-416.816536	-416.808177	-416.807233	-416.850313	31.104	
O	-0.8849332927	 1.0512345493	-0.8484225717	-0.438344
C	-0.2684422399	-0.0250178891	-0.3122588113	 0.33747
C	 0.7960985661	-0.7133183352	-0.8351355112	-0.212982
N	 1.035241323	-1.7143309012	 0.0953876638	-0.272346
C	 0.1338138002	-1.5803289471	 1.0938900481	 0.381646
C	 0.0762258024	-2.4882182246	 2.2924307522	-0.474241
C	 1.0941908031	-3.533018561	 2.2720860795	 0.286796
C	 1.9427136151	-4.383352842	 2.2296149035	-0.432258
N	-0.6770295345	-0.5589248669	 0.8766533716	-0.403945
H	-1.5892173242	 1.2894985412	-0.233705982	 0.299542
H	 1.3769028127	-0.5955312235	-1.7317481762	 0.12923
H	 1.7472776578	-2.4253666223	 0.0559156394	 0.269366
H	 0.1803913172	-1.8854141063	 3.2037631842	 0.162376
H	-0.9213751091	-2.9423221107	 2.3502650428	 0.162366
H	 2.6824801628	-5.1454886105	 2.2184392975	 0.205324
25.6642	119.8364	191.8139	276.9502	323.0376	343.3659	368.0726	418.6882	500.3515	554.4011	622.0929	645.0714	663.4301	679.5657	694.4773	727.331	757.0692	949.2634	958.3743	1015.4174	1035.9621	1108.3325	1175.0536	1206.7482	1287.4685	1309.636	1323.0885	1422.2427	1462.2544	1501.3379	1557.4244	1661.2096	2240.2775	3023.9108	3047.9159	3298.5012	3502.564	3655.5966	3806.4368
OC1=CNC(CC#C)=N1	Oc1c[nH]c(CC#C)n1	
InChI=1S/C6H6N2O/c1-2-3-5-7-4-6(9)8-5/h1,4,9H,3H2,(H,7,8)	InChI=1S/C6H6N2O/c1-2-3-5-7-4-6(9)8-5/h1,4,9H,3H2,(H,7,8)
