20
gdb 109469	1.99346	1.80297	1.03342	1.4676	82.7	-0.2154	0.0045	0.2198	1200.1288	0.171651	-399.373266	-399.36399	-399.363046	-399.407464	34.189	
C	-0.1255070914	 1.5821018011	-0.0358287945	-0.381809
C	 0.0223970436	 0.0578075619	-0.0215206707	-0.15349
N	 0.7225924774	-0.4597330883	-1.1863025282	-0.096091
C	 0.0943614878	-0.6872009387	-2.4056662742	 0.335988
N	-1.1490201128	-0.4784873604	-2.5880933522	-0.56223
C	 1.2229273534	-1.1896903106	-3.3030570726	-0.275995
N	 2.4354466889	-1.1844255637	-2.4817587648	-0.303338
C	 2.0795086851	-0.7675586115	-1.3223015918	 0.371435
C	 3.0178538931	-0.6209961669	-0.1692496018	-0.497358
H	 0.8503623742	 2.0780029399	-0.0403269026	 0.115273
H	-0.6809251993	 1.8956321699	-0.9226529141	 0.1512
H	-0.6736749242	 1.9155269827	 0.8509248082	 0.117985
H	 0.5522494905	-0.2731598538	 0.8758980601	 0.109262
H	-0.9679645959	-0.4067979808	-0.017497063	 0.141773
H	-1.4162023263	-0.7178004221	-3.5415680333	 0.217905
H	 1.012276966	-2.1996862378	-3.675137969	 0.135023
H	 1.3465475402	-0.5460308036	-4.1822681435	 0.134708
H	 4.0206818345	-0.8873635773	-0.5025152161	 0.157038
H	 3.0255825176	 0.4053773404	 0.2124457392	 0.140484
H	 2.7327957977	-1.2777427003	 0.6599652348	 0.142237
69.313	101.4423	138.3291	177.9789	217.7259	260.1877	301.1334	320.049	400.9301	502.542	524.2344	593.7798	636.0884	692.7917	723.6198	784.6599	826.6957	940.1259	966.638	986.8815	995.4999	1043.2494	1064.5319	1078.9547	1104.0522	1182.4309	1190.243	1224.9238	1280.5209	1321.1199	1384.0901	1392.1891	1404.7821	1411.0222	1441.0394	1455.7282	1470.0393	1480.7178	1486.6389	1492.4583	1506.4516	1697.8146	1730.9111	3034.0981	3041.1198	3041.6168	3059.9234	3063.8515	3096.7017	3100.4176	3113.2443	3136.6238	3159.1535	3494.8654
CCN1C(=N)CN=C1C	CCN1[C]([NH])CN=C1C	
InChI=1S/C6H11N3/c1-3-9-5(2)8-4-6(9)7/h7H,3-4H2,1-2H3	InChI=1S/C6H11N3/c1-3-9-5(2)8-4-6(9)7/h7H,3-4H2,1-2H3
