21
gdb 97799	3.61005	0.66861	0.59767	1.1128	91.17	-0.2245	0.0552	0.2797	1958.1516	0.180115	-387.040795	-387.03018	-387.029236	-387.078135	37.144	
C	 0.0230603798	 1.6250148919	-0.0119006718	-0.362882
C	 0.0168671723	 0.0861716083	-0.0659969898	-0.313364
C	-1.3277324455	-0.4802089224	-0.0567258562	 0.087074
C	-2.4439191421	-0.9344406673	-0.0463949276	 0.078875
C	-3.7819183082	-1.4500707995	-0.0241247843	-0.243342
C	-4.256192203	-2.4226866445	-1.1075189722	-0.326184
C	-4.0546063521	-2.9001883089	 0.3040439867	 0.141158
O	-2.9623976838	-3.6948987124	 0.6097330351	-0.228541
C	-3.1767138861	-5.061286817	 0.317691408	-0.231648
H	 1.0495634452	 2.0040439445	-0.0191505091	 0.111086
H	-0.5064880942	 2.0460801481	-0.8709588384	 0.125741
H	-0.4701908173	 1.9834291155	 0.8957977864	 0.126407
H	 0.5483106697	-0.2484204998	-0.9666122404	 0.124485
H	 0.5879421984	-0.310745021	 0.7836040535	 0.126878
H	-4.5329238133	-0.7541868861	 0.3405573483	 0.110491
H	-5.2624116812	-2.3080508984	-1.4951993351	 0.114088
H	-3.5070808484	-2.7203005937	-1.8318176661	 0.130515
H	-4.9460662514	-3.1084775674	 0.8994802926	 0.085259
H	-4.0186096949	-5.4722264233	 0.8957211988	 0.105271
H	-3.3801682166	-5.2213343007	-0.7508377167	 0.109358
H	-2.2643306273	-5.5944588862	 0.5939233282	 0.129275
26.8612	59.5624	98.4769	119.5195	142.9519	196.9466	219.9712	249.311	306.9784	375.4468	428.226	501.8989	525.6459	610.3456	708.1282	785.3869	787.1882	834.0219	912.5487	967.3418	988.3048	1046.6676	1062.3231	1078.647	1090.9653	1104.3209	1127.9936	1165.4921	1180.5023	1187.6972	1224.5281	1266.3931	1285.2214	1348.6048	1379.9779	1403.6758	1408.4594	1467.0941	1477.8707	1485.7319	1489.4938	1494.3159	1506.3105	1508.5641	2366.8428	2981.6875	3015.1768	3033.4215	3040.941	3042.6319	3076.675	3115.2677	3120.9716	3121.7291	3136.1577	3139.4599	3234.622
CCC#CC1CC1OC	CCC#C[C@H]1C[C@H]1OC	
InChI=1S/C8H12O/c1-3-4-5-7-6-8(7)9-2/h7-8H,3,6H2,1-2H3	InChI=1S/C8H12O/c1-3-4-5-7-6-8(7)9-2/h7-8H,3,6H2,1-2H3/t7-,8+/m0/s1
