19
gdb 110214	2.51747	1.3723	1.14337	2.191	72.27	-0.2189	0.0526	0.2715	1146.2999	0.157784	-460.111978	-460.102932	-460.101988	-460.145312	34.446	
C	 0.2099615574	 1.604233371	-0.0650802015	-0.497323
C	 0.0818812441	 0.1236458478	 0.0732707166	 0.364764
O	 0.5163667073	-0.6714215221	-1.0410231108	-0.322764
C	 1.0553875544	-1.6916801762	-0.1537844332	-0.147728
C	 0.4950673381	-0.961123769	 1.0543873997	 0.291845
O	 1.0781038528	-0.9451432342	 2.2992636481	-0.465982
C	-0.9791973976	-0.6718316471	 0.8271536821	-0.189839
C	-1.6676815769	-0.0585051084	 2.0250800181	-0.129526
O	-1.6169358743	-0.9259162132	 3.1738402191	-0.416079
H	 1.2432023152	 1.8751148867	-0.3021994858	 0.135723
H	-0.4319976032	 1.9712725111	-0.8743156547	 0.132013
H	-0.0761046427	 2.1189552445	 0.8553604311	 0.129266
H	 0.6698581898	-2.6930176559	-0.381034887	 0.097978
H	 2.1509017295	-1.6938308259	-0.1850119755	 0.115396
H	 0.3744200295	-1.1320506806	 2.9408910052	 0.296169
H	-1.5783344774	-1.3773701344	 0.2491201163	 0.080668
H	-1.1622864387	 0.8531402596	 2.3522023589	 0.125478
H	-2.7070776105	 0.2042455737	 1.7911493215	 0.109794
H	-2.0705930869	-1.7437675973	 2.9425442018	 0.290146
123.6737	146.1985	160.6039	188.5729	245.3319	259.6778	325.6607	373.7035	399.8312	434.4817	490.2232	559.4035	625.1403	699.8903	720.2374	741.1352	822.1002	910.7083	974.0459	991.3074	1006.408	1022.0229	1063.9714	1085.1241	1102.5513	1135.6138	1156.1801	1175.2334	1217.2668	1279.0096	1326.939	1335.4302	1366.5385	1407.5182	1419.875	1439.0972	1467.2574	1476.5279	1500.1693	1501.9476	1520.3847	3021.1546	3026.1287	3034.3514	3075.3978	3084.7081	3097.35	3108.7031	3125.4095	3679.6963	3809.3593
CC12OCC1(O)C2CO	C[C@@]12OC[C@]1(O)[C@H]2CO	
InChI=1S/C6H10O3/c1-5-4(2-7)6(5,8)3-9-5/h4,7-8H,2-3H2,1H3	InChI=1S/C6H10O3/c1-5-4(2-7)6(5,8)3-9-5/h4,7-8H,2-3H2,1H3/t4-,5-,6-/m0/s1
