18
gdb 128786	4.80325	0.84797	0.73069	3.5331	76.27	-0.243	0.0062	0.2492	1551.359	0.147351	-435.254234	-435.244898	-435.243954	-435.289909	31.772	
C	 0.0432075834	 1.4246367119	 0.044480047	-0.224253
O	 0.0261597993	 0.0181588708	-0.015337382	-0.236626
C	 0.6434981463	-0.5828066187	 1.1011619877	-0.155453
C	 0.5711987204	-2.0656587551	 0.9374224094	 0.279002
C	 0.0228907853	-2.7994761505	-0.0867038729	-0.173799
N	 0.2345784321	-4.0882200223	 0.276121375	 0.076883
C	-0.1283225167	-5.3074822454	-0.4163668764	-0.331023
N	 0.878196646	-4.150731459	 1.4579022315	-0.150337
N	 1.0817708785	-2.927144468	 1.8591896865	-0.265374
H	 1.0710646201	 1.8191323758	 0.0734128211	 0.10831
H	-0.4529612327	 1.7956240823	-0.8553607796	 0.127863
H	-0.4937507274	 1.80171106	 0.9290364918	 0.108328
H	 1.6953061294	-0.2612345038	 1.1890898742	 0.110106
H	 0.1442718862	-0.2793938107	 2.0371653787	 0.110172
H	-0.4751398879	-2.5152466195	-0.996739274	 0.151436
H	 0.3542573892	-5.3538756087	-1.3965798558	 0.147235
H	 0.2143070439	-6.1402633159	 0.1975277712	 0.170279
H	-1.2123659552	-5.3709908933	-0.5454639434	 0.147252
40.0307	78.0334	85.4039	118.5221	173.8229	232.5609	311.3929	320.0461	360.6735	446.1914	652.4932	667.0648	710.6786	797.9296	798.6983	997.1032	1030.8487	1049.5255	1052.8915	1070.1666	1150.9032	1151.9793	1169.5712	1185.67	1227.1516	1242.2642	1288.9378	1293.5559	1348.9664	1439.3133	1440.8761	1482.1717	1485.1361	1485.2181	1486.0192	1502.1999	1512.9881	1523.8891	1601.8746	2954.7612	2974.8154	2975.4278	3018.6227	3049.597	3114.3723	3117.1077	3164.0392	3298.1503
COCC1=CN(C)N=N1	COCc1cn(C)nn1	
InChI=1S/C5H9N3O/c1-8-3-5(4-9-2)6-7-8/h3H,4H2,1-2H3	InChI=1S/C5H9N3O/c1-8-3-5(4-9-2)6-7-8/h3H,4H2,1-2H3
