17
gdb 55120	2.5501	1.46741	1.17619	3.4001	68.88	-0.236	-0.02	0.216	1090.7546	0.132743	-458.924373	-458.915475	-458.91453	-458.958286	32.694	
C	 0.3411211496	 1.4443550265	-0.0075676786	-0.485382
C	-0.0370265646	-0.0231808291	 0.0971623753	 0.360968
O	-0.3658566654	-0.5468265679	 1.1353538175	-0.300839
C	-0.0348635161	-0.7664926144	-1.2249095148	-0.024508
O	-0.0898190076	-2.2046056718	-1.1434069036	-0.280718
C	-1.2740976188	-2.2396549691	-1.9438025903	 0.049587
C	-2.4085600272	-1.5363803801	-1.2439958209	-0.370113
C	-1.3729003377	-0.7379815876	-2.0045607373	 0.291966
O	-1.6339588205	 0.1225899564	-3.0457399394	-0.453132
H	 1.4281736145	 1.5326383898	-0.1223983087	 0.150381
H	-0.1086338079	 1.9062060312	-0.8938150988	 0.134277
H	 0.0345037581	 1.9737343157	 0.8952849259	 0.145591
H	 0.7963099986	-0.4467719875	-1.8660014387	 0.10109
H	-1.3723290137	-3.024557072	-2.6828868794	 0.118046
H	-3.3593417502	-1.6046957242	-1.7655433472	 0.119076
H	-2.4532915548	-1.5255499668	-0.159228881	 0.147896
H	-2.3299471561	 0.731051231	-2.77496652	 0.295815
58.0741	125.3952	139.84	148.454	262.2193	309.6761	353.3074	361.8147	425.2721	457.0851	567.0914	605.9091	669.7684	732.0353	857.1689	880.9675	906.12	932.0616	962.2628	995.0739	1014.6676	1043.356	1060.7749	1084.9641	1100.8284	1168.6767	1207.5113	1212.9943	1256.4467	1332.1708	1358.5795	1380.8955	1409.2406	1464.7743	1473.1802	1484.0652	1815.3005	3031.0443	3037.0261	3092.5545	3118.7138	3152.4916	3200.3342	3216.3826	3800.8213
CC(=O)C1OC2CC12O	CC(=O)[C@H]1O[C@H]2C[C@@]12O	
InChI=1S/C6H8O3/c1-3(7)5-6(8)2-4(6)9-5/h4-5,8H,2H2,1H3	InChI=1S/C6H8O3/c1-3(7)5-6(8)2-4(6)9-5/h4-5,8H,2H2,1H3/t4-,5+,6-/m0/s1
