21
gdb 101344	2.47414	1.05198	0.89927	1.8671	75.02	-0.2537	0.0644	0.3181	1407.0965	0.180623	-461.336107	-461.325925	-461.324981	-461.371711	37.209	
C	 0.9536755035	 0.8493920187	 0.7702981392	-0.382843
C	-0.0470493533	-0.138381728	 0.1570703119	-0.226438
C	 0.3699690588	-0.5814032496	-1.2238776782	 0.086862
O	 1.3926860943	-1.5963316128	-1.3075387795	-0.276915
C	 0.0677263748	-1.9046364591	-1.7923274061	 0.007441
C	-0.7478952357	-3.0017027229	-1.0946816298	 0.050163
O	-1.5824029826	-3.6535802259	-2.0423118467	-0.423781
C	 0.1344808759	-4.0163080077	-0.34641885	-0.085273
O	 0.8567760514	-3.438720776	 0.7189079204	-0.41907
H	 1.9453526525	 0.3946997579	 0.8564382259	 0.130633
H	 1.0512768283	 1.7508245293	 0.1555625235	 0.116794
H	 0.6356325866	 1.1581858043	 1.7699334825	 0.120317
H	-0.1475430072	-1.016722618	 0.8019740894	 0.127684
H	-1.0378077634	 0.3292130175	 0.0845687984	 0.106262
H	 0.5323530426	 0.2318198673	-1.9345230404	 0.093811
H	 0.0192801409	-1.9814915011	-2.8800841397	 0.094834
H	-1.437083075	-2.5530619673	-0.37291495	 0.106352
H	-1.0191948079	-4.1793563809	-2.6223755341	 0.282488
H	-0.517378139	-4.7865373527	 0.0770482738	 0.117542
H	 0.8032494142	-4.5123678102	-1.0730608306	 0.077494
H	 1.4401455703	-2.7827935427	 0.3116890699	 0.295643
42.5773	98.5125	121.7388	168.4031	197.4514	238.0423	250.2766	297.0611	323.9622	372.7603	438.6167	469.2042	542.3527	567.359	617.054	755.9725	801.755	842.3578	907.005	938.1808	997.4337	1032.6133	1055.2259	1087.0171	1090.2496	1101.5185	1116.5123	1167.0834	1182.8967	1211.0583	1265.4155	1289.8169	1305.1419	1330.5067	1345.5596	1380.6978	1407.3475	1409.3453	1419.2861	1452.2837	1477.3594	1482.5014	1498.4887	1504.1157	1507.6638	2942.901	3027.7211	3036.9387	3067.7452	3079.4047	3085.5108	3088.8716	3099.1776	3110.4447	3115.9552	3733.6373	3788.2042
CCC1OC1C(O)CO	CC[C@H]1O[C@H]1[C@@H](O)CO	
InChI=1S/C6H12O3/c1-2-5-6(9-5)4(8)3-7/h4-8H,2-3H2,1H3	InChI=1S/C6H12O3/c1-2-5-6(9-5)4(8)3-7/h4-8H,2-3H2,1H3/t4-,5+,6-/m0/s1
