18
gdb 67840	2.34841	2.17282	1.60338	1.6872	73.89	-0.2459	0.0213	0.2672	912.3773	0.149215	-401.936022	-401.928902	-401.927958	-401.967112	28.966	
C	-0.0506247486	 1.4985337418	-0.0194086743	-0.462264
C	-0.0006161208	-0.0178581674	 0.0002577281	 0.296144
N	-1.2745934891	-0.6179660285	-0.4303172138	-0.299807
C	-1.586957303	-1.4448404751	 0.482078775	 0.094127
O	-0.7885479527	-1.6164726896	 1.5737188196	-0.233942
C	 0.3314849284	-0.7307161885	 1.3446673145	 0.029339
C	 1.5977484017	-1.3289687284	 0.7375844698	-0.065055
C	 1.3004315031	-2.1187710236	-0.5061305496	-0.306874
C	 1.2899630757	-0.6270734938	-0.606540416	-0.070076
H	 0.8890729675	 1.9228139081	 0.3495485857	 0.113829
H	-0.2141035332	 1.8572979006	-1.0402111875	 0.131703
H	-0.8697508977	 1.867198623	 0.6052749446	 0.121938
H	-2.4789171704	-2.063055001	 0.4901352584	 0.135578
H	 0.4799577371	-0.1168760355	 2.2343238134	 0.08932
H	 2.5427579265	-1.4183773164	 1.2586728634	 0.089724
H	 2.1697881963	-2.5982492935	-0.9445753131	 0.116761
H	 0.3854390251	-2.6936432288	-0.6049767516	 0.129985
H	 1.9675408041	-0.0844773633	-1.2548831463	 0.089569
165.4129	223.3357	257.6118	262.7305	309.6052	446.2402	487.8928	608.7093	630.9526	643.4299	766.3067	823.3858	834.821	863.7946	915.3225	929.2292	935.0661	959.1231	968.576	995.8437	1021.5894	1038.9654	1055.8073	1084.7038	1087.8542	1164.4542	1171.5555	1203.0526	1218.3799	1249.3782	1312.0335	1323.5907	1353.5781	1365.8773	1406.6203	1485.9053	1490.4547	1493.3096	1669.5603	3034.777	3101.5507	3107.8637	3113.0569	3129.6475	3180.7214	3190.0229	3204.633	3211.3523
CC12N=COC1C1CC21	C[C@]12N=CO[C@H]1[C@H]1C[C@@H]21	
InChI=1S/C7H9NO/c1-7-5-2-4(5)6(7)9-3-8-7/h3-6H,2H2,1H3	InChI=1S/C7H9NO/c1-7-5-2-4(5)6(7)9-3-8-7/h3-6H,2H2,1H3/t4-,5+,6-,7+/m0/s1
