15
gdb 117004	4.50927	0.5485	0.50138	2.824	75.5	-0.2791	-0.0828	0.1963	2059.4779	0.108489	-457.741193	-457.730961	-457.730017	-457.778589	33.14	
O	-0.1984315707	 1.4488446312	 0.2535605202	-0.424028
C	 0.0069966876	 0.0700332231	-0.0054707282	-0.085264
C	-1.3570376277	-0.6004406064	 0.0912429852	-0.289681
C	-1.303624258	-2.0882028135	-0.1712949335	 0.210106
O	-0.2867188845	-2.6939860988	-0.4326163609	-0.283191
C	-2.5808837793	-2.784054077	-0.0915348365	 0.020227
C	-3.6370848009	-3.3699393621	-0.0149142635	 0.125923
C	-4.8972240037	-4.0735279827	 0.0409946005	 0.020307
O	-5.389745675	-4.4933637243	 1.0604441387	-0.213524
H	 0.6530510689	 1.8927781267	 0.2037904635	 0.291137
H	 0.4323396699	-0.1014645265	-1.004463252	 0.107447
H	 0.6942176388	-0.3868622713	 0.720551948	 0.108677
H	-1.7959457344	-0.4329972422	 1.0834400793	 0.150324
H	-2.0584204381	-0.1414050761	-0.6178452141	 0.146339
H	-5.386004853	-4.1993560601	-0.9454691667	 0.115201
44.7259	55.5104	78.7516	90.6006	114.927	189.1685	265.3035	270.4192	271.4996	370.2907	392.9323	567.8217	579.0194	678.1344	803.6688	823.7584	971.9642	1016.6465	1036.9842	1073.8606	1075.3745	1152.9335	1207.0725	1257.8615	1299.0119	1352.7853	1417.258	1444.7924	1468.8153	1523.5668	1762.6929	1773.2332	2295.4953	2933.3708	2997.5838	3026.7648	3033.7276	3068.7167	3834.0612
OCCC(=O)C#CC=O	OCCC(=O)C#CC=O	
InChI=1S/C6H6O3/c7-4-1-2-6(9)3-5-8/h4,8H,3,5H2	InChI=1S/C6H6O3/c7-4-1-2-6(9)3-5-8/h4,8H,3,5H2
