20
gdb 126145	3.66594	0.94718	0.81008	3.3955	80.33	-0.2526	-0.0071	0.2455	1450.8112	0.170902	-403.152254	-403.143156	-403.142212	-403.186917	33.398	
C	-0.0918025565	 1.595641644	 0.2571260378	-0.392758
C	-0.1084017068	 0.0655390949	 0.1979742508	-0.16255
C	-1.482457793	-0.5489406958	-0.1652487923	-0.100039
C	-1.9368900172	-0.1676782882	-1.5814028561	-0.405956
C	-1.4555305628	-2.042084794	 0.0262577412	 0.157613
C	-1.506801075	-3.0469693077	-0.8898149828	-0.015883
O	-1.43894705	-4.2497636607	-0.2955525886	-0.16999
N	-1.3395103128	-4.0656059858	 1.078084628	-0.134276
C	-1.349070535	-2.7685222159	 1.2515994058	-0.049557
H	 0.8862556702	 1.9584429118	 0.5875016881	 0.117386
H	-0.2955514901	 2.0491651175	-0.7174988676	 0.120748
H	-0.8406627691	 1.9727671082	 0.9630404834	 0.115152
H	 0.6358913707	-0.2915109115	-0.5256024681	 0.100989
H	 0.2040840156	-0.3321855505	 1.1708547004	 0.09997
H	-2.2162308715	-0.1396724459	 0.5445610716	 0.084844
H	-2.9019259127	-0.6242846438	-1.820871886	 0.120851
H	-2.0462867749	 0.9144424708	-1.6843626524	 0.121099
H	-1.2085683712	-0.5002538434	-2.330134281	 0.117414
H	-1.5949171201	-3.0651439497	-1.9644872151	 0.147446
H	-1.2852804879	-2.3768796243	 2.2579188527	 0.127498
40.98	92.4401	127.9446	198.2341	232.2906	282.4552	289.79	346.2986	411.2727	461.5069	619.9229	657.945	714.4797	781.4916	836.9234	852.3842	907.0339	913.1309	937.7822	966.053	983.9459	1010.1422	1042.1565	1101.2641	1130.3541	1150.9469	1171.5864	1207.0643	1280.8287	1290.9457	1314.6822	1344.6032	1369.4202	1402.7248	1415.1018	1416.6029	1479.2842	1482.7088	1495.4397	1503.6488	1507.2282	1512.3213	1647.5521	2994.8831	3024.2216	3033.9941	3035.9118	3058.5192	3100.1983	3101.3415	3108.8771	3122.75	3234.789	3270.9086
CCC(C)C1=CON=C1	CC[C@@H](C)c1conc1	
InChI=1S/C7H11NO/c1-3-6(2)7-4-8-9-5-7/h4-6H,3H2,1-2H3	InChI=1S/C7H11NO/c1-3-6(2)7-4-8-9-5-7/h4-6H,3H2,1-2H3/t6-/m1/s1
