20
gdb 39416	2.34971	2.02885	1.33544	0.9927	78.72	-0.2134	0.0813	0.2947	1005.4786	0.173543	-403.09309	-403.085677	-403.084733	-403.124924	30.07	
C	 0.2059392486	 1.6634285355	 0.0444416525	-0.301328
C	 1.2934693063	 0.6783256244	-0.3047414929	-0.032203
C	 2.538648692	 0.5215293647	 0.5466150046	-0.112857
O	 2.3009703452	 0.2747749469	 1.9192091869	-0.23933
C	 1.8488520992	-1.0367770331	 2.1957957897	-0.121147
C	 0.3376194322	-1.1634685413	 2.2268871411	-0.002391
C	-0.4771670691	 0.0260338909	 2.6087823295	-0.25426
N	-0.5234741626	-0.5102232067	 1.2591565685	-0.089843
C	-0.1001072844	 0.1876950169	 0.07005924	 0.021084
H	 0.2945280009	 2.1575087011	 1.006158338	 0.121899
H	-0.2314450761	 2.2782740799	-0.734641122	 0.109708
H	 1.5187900877	 0.5834269473	-1.3653121486	 0.084227
H	 3.1611968325	-0.2867173053	 0.1284716848	 0.090853
H	 3.1336883217	 1.4416828376	 0.5109397108	 0.109099
H	 2.2754330178	-1.7477435637	 1.4708032028	 0.095704
H	 2.2381333157	-1.3101097428	 3.1851868663	 0.111558
H	 0.0074177701	-2.1593827411	 2.5287250638	 0.082195
H	-1.392380117	-0.0797990902	 3.1874682634	 0.106798
H	 0.0843694707	 0.9373833446	 2.7969840449	 0.124519
H	-0.6617169216	-0.1743231655	-0.7881174743	 0.095717
70.2139	224.2379	260.8743	302.6477	354.4664	409.0589	446.7175	483.4495	642.6141	658.8121	706.7972	755.3689	780.8297	835.1364	878.224	928.5571	938.3776	979.9336	986.398	1048.0695	1066.2706	1072.7454	1084.7015	1116.7021	1122.8508	1145.8896	1147.7334	1157.9545	1165.3776	1179.3017	1235.8768	1288.4338	1334.0954	1353.4304	1382.7732	1393.8528	1404.144	1419.6077	1437.52	1480.9181	1488.5425	1500.2992	1512.5878	2964.5575	2981.16	3040.9567	3053.2032	3084.5416	3095.5572	3115.4298	3126.5773	3132.7799	3182.0928	3217.3709
C1C2COCC3CN3C12	C1[C@H]2COC[C@H]3CN3[C@@H]12	
InChI=1S/C7H11NO/c1-5-3-9-4-6-2-8(6)7(1)5/h5-7H,1-4H2	InChI=1S/C7H11NO/c1-5-3-9-4-6-2-8(6)7(1)5/h5-7H,1-4H2/t5-,6+,7-,8?/m0/s1
