17
gdb 69999	3.14712	1.72982	1.62853	2.1542	65.58	-0.2532	0.0687	0.3219	898.1328	0.137043	-458.934009	-458.927205	-458.926261	-458.964882	27.681	
C	-0.0574871933	 1.5093222693	 0.0272520044	-0.505129
C	 0.0739450694	 0.015478548	 0.0319459792	 0.41241
O	-0.762193212	-0.7302376027	 0.9375316342	-0.276088
C	 0.6595758677	-0.8323951415	 1.0760839099	-0.0389
C	 1.3017732611	-1.9831086169	 0.2508943628	 0.132906
O	 0.2953992728	-2.8512800343	-0.2311025014	-0.255251
C	-0.3418512428	-2.1041414895	-1.287232584	-0.079621
C	 0.4470726049	-0.780246719	-1.2494519316	-0.054764
O	 1.7594246675	-1.2859107449	-0.9011573076	-0.253704
H	 0.829673565	 1.9707108732	-0.4185561086	 0.135568
H	-0.9313332541	 1.825684351	-0.5528443231	 0.130991
H	-0.173848977	 1.8832526462	 1.0474129257	 0.136417
H	 1.0873037738	-0.4783671835	 2.0098737479	 0.10244
H	 2.1050533247	-2.548259282	 0.7209281124	 0.095855
H	-0.1979571934	-2.6249473721	-2.239442136	 0.104755
H	-1.4047620086	-1.9837467538	-1.0707921123	 0.12237
H	 0.4941212342	-0.2092189575	-2.1747108119	 0.089745
181.8048	200.6132	272.5397	312.4928	372.5672	460.8498	550.8654	607.7314	655.8284	701.2683	772.6824	832.371	845.7726	875.4211	897.4022	922.0651	958.4489	966.0729	990.3798	1019.4311	1027.3832	1074.9409	1098.4092	1118.6425	1190.8054	1208.4937	1250.5011	1272.0644	1298.5215	1304.6589	1320.3363	1372.5383	1408.7869	1453.2159	1485.0138	1493.5665	1504.1831	3036.3937	3048.117	3099.8614	3118.5194	3125.7298	3142.3313	3146.8797	3158.5296
CC12OC1C1OCC2O1	C[C@]12O[C@H]1[C@H]1OC[C@@H]2O1	
InChI=1S/C6H8O3/c1-6-3-2-7-5(8-3)4(6)9-6/h3-5H,2H2,1H3	InChI=1S/C6H8O3/c1-6-3-2-7-5(8-3)4(6)9-6/h3-5H,2H2,1H3/t3-,4-,5-,6+/m0/s1
