18
gdb 56400	3.47906	0.70658	0.61984	4.1782	87.57	-0.2501	0.0186	0.2687	1805.4411	0.146595	-364.787995	-364.778299	-364.777355	-364.824379	34.17	
C	-0.0178492558	 1.6024102121	 0.1726276078	-0.37954
C	-0.0321632937	 0.0655520141	-0.0228254492	-0.303186
C	 0.7714145915	-0.591056779	 1.0250922964	 0.289332
N	 1.4170298489	-1.0896549992	 1.8430293657	-0.32391
C	-1.3929513836	-0.472350484	-0.0576931197	 0.090898
C	-2.5219461165	-0.8914286368	-0.0891196276	 0.088459
C	-3.8639951658	-1.3933586307	-0.1227441705	-0.158935
C	-4.3022339615	-2.3371703205	-1.2329892759	-0.252548
C	-4.1354986537	-2.8634934691	 0.1600744124	-0.250006
H	 1.0092410936	 1.9750704562	 0.1689048131	 0.137616
H	-0.5748164451	 2.0735092302	-0.6399314067	 0.137099
H	-0.487867471	 1.8688835182	 1.1212966202	 0.148353
H	 0.4635044926	-0.1586075039	-0.9778928591	 0.153194
H	-4.618744854	-0.6973427673	 0.2313414878	 0.114603
H	-5.3048035083	-2.206047022	-1.6238263819	 0.122238
H	-3.5578473896	-2.6062890886	-1.9726646934	 0.128625
H	-3.2770910315	-3.4896393779	 0.3708332727	 0.134282
H	-5.0220491166	-3.0974609118	 0.7381832378	 0.123427
21.6607	67.7568	97.9817	173.122	184.9669	218.9806	233.8515	342.2989	442.3209	470.0196	515.4272	556.0423	584.3247	707.6008	789.6122	822.7345	824.7079	895.3305	906.117	988.4788	1050.4806	1064.878	1075.7231	1083.8374	1117.4284	1118.9348	1191.856	1201.6157	1231.488	1296.5818	1327.2601	1392.9191	1406.9906	1468.3281	1489.0909	1496.7605	1498.5161	2360.0702	2368.1708	3011.7969	3056.8667	3139.1498	3143.2009	3145.5006	3145.6761	3150.1824	3228.0807	3243.1383
CC(C#N)C#CC1CC1	C[C@@H](C#N)C#CC1CC1	
InChI=1S/C8H9N/c1-7(6-9)2-3-8-4-5-8/h7-8H,4-5H2,1H3	InChI=1S/C8H9N/c1-7(6-9)2-3-8-4-5-8/h7-8H,4-5H2,1H3/t7-/m1/s1
