18
gdb 87445	4.3227	1.22584	1.12059	0.7315	77.28	-0.2254	0.065	0.2903	1114.2575	0.147093	-401.809616	-401.801929	-401.800985	-401.841912	29.957	
O	 0.2321044946	 1.3827942503	-0.0658091666	-0.427033
C	 0.1002407121	-0.0094425894	 0.0087589549	 0.040405
C	-0.39320598	-0.7164443789	 1.2586333996	-0.412895
C	-1.2225566972	-0.6926373321	 0.0032001039	 0.39112
C	-2.631732106	-0.1957979831	-0.2638595972	-0.126993
C	-2.650498878	-0.7457176285	-1.7245192333	-0.053456
C	-3.9403793874	-1.4920811749	-1.4101405822	-0.190626
N	-3.2121107268	-1.6332448144	-0.0753865008	-0.157348
C	-1.86189452	-1.7713052895	-0.8488232155	-0.131916
H	-0.461927623	 1.7856208949	 0.4655417672	 0.284186
H	 0.9187099132	-0.4725126326	-0.5343785248	 0.109772
H	 0.0898065233	-1.6394710675	 1.5644109657	 0.120162
H	-0.7252183027	-0.0956844404	 2.0873146016	 0.112618
H	-3.1682117307	 0.6689498163	 0.13221061	 0.080389
H	-2.310179105	-0.2399785689	-2.6337270817	 0.074312
H	-4.8691501716	-0.9161821626	-1.3401674442	 0.100849
H	-4.1203435738	-2.449187841	-1.9105723879	 0.101605
H	-1.488683451	-2.7549405576	-1.1385066587	 0.084849
113.9649	119.3541	148.3496	212.3412	348.1227	439.5119	458.6476	527.399	630.9421	711.0238	791.7253	806.5409	834.8369	837.5952	875.0734	879.0694	923.0374	963.1855	992.9571	1025.3361	1029.7796	1040.4716	1063.1104	1089.5816	1095.5522	1108.1069	1147.5802	1157.961	1162.8608	1183.0505	1206.4509	1232.6205	1270.7133	1286.2245	1313.0937	1396.3464	1440.8694	1507.9151	1520.3434	3034.9345	3055.1856	3093.2139	3094.522	3106.0905	3112.4364	3157.3229	3198.5433	3822.5226
OC1CC11C2C3CN2C13	O[C@H]1C[C@]21[C@H]1[C@@H]3CN1[C@H]23	
InChI=1S/C7H9NO/c9-4-1-7(4)5-3-2-8(5)6(3)7/h3-6,9H,1-2H2	InChI=1S/C7H9NO/c9-4-1-7(4)5-3-2-8(5)6(3)7/h3-6,9H,1-2H2/t3-,4-,5+,6-,7-/m0/s1
