20
gdb 33103	6.27439	0.74881	0.6776	1.0059	84.76	-0.1899	0.0527	0.2425	1693.2204	0.170359	-403.179168	-403.169277	-403.168333	-403.215544	34.828	
C	 0.6297708461	 1.4730723381	-0.0295855667	-0.219783
O	 0.6920270985	 0.0706781762	 0.0205851781	-0.230099
C	 0.0634734615	-0.5440886751	-1.0853469796	-0.170201
C	 0.1918317695	-2.0298720748	-0.9693348904	 0.256899
C	 0.8842143416	-2.7108747354	 0.0018126642	-0.166793
N	 0.756333154	-4.0557834678	-0.2576146358	-0.306246
C	-0.0087189	-4.2542576139	-1.3824639348	 0.334043
C	-0.3160297099	-5.6197812142	-1.9026047401	-0.500916
C	-0.3716087011	-3.0080480764	-1.8430314734	-0.343686
H	 1.130904	 1.8749200138	-0.9253606348	 0.101086
H	-0.4102908234	 1.8381217814	-0.0301298127	 0.101111
H	 1.136746415	 1.857058852	 0.8593046265	 0.12303
H	-1.000464063	-0.2471008766	-1.1294191408	 0.089384
H	 0.520614223	-0.1831723297	-2.0252595389	 0.089796
H	 1.4450632987	-2.3447337855	 0.8444618635	 0.125146
H	 1.1593413434	-4.789197283	 0.2987947462	 0.25267
H	-0.8596260747	-6.2311532724	-1.1709078442	 0.123795
H	-0.9404587891	-5.5444853199	-2.7957631669	 0.135925
H	 0.5902079048	-6.1736047733	-2.1795312727	 0.123986
H	-0.9791516347	-2.8196209434	-2.7164901566	 0.080851
19.9423	71.8806	98.0704	124.8455	189.7801	226.7084	291.6241	296.9778	348.6532	421.9971	457.5516	633.5242	648.6054	660.4425	732.9494	761.1963	797.4248	972.7308	987.4402	1003.8031	1014.1742	1048.9118	1061.9051	1130.6899	1156.0089	1174.6535	1184.9427	1224.3568	1250.5942	1266.057	1304.4111	1390.5835	1417.5974	1447.5612	1449.929	1480.1731	1481.6698	1483.9623	1502.5611	1504.6521	1527.2558	1557.5793	1641.234	2926.1728	2938.2371	2964.2592	3004.4188	3013.5764	3056.0091	3109.6602	3121.2055	3233.0706	3284.5468	3680.0586
COCC1=CNC(C)=C1	COCc1c[nH]c(C)c1	
InChI=1S/C7H11NO/c1-6-3-7(4-8-6)5-9-2/h3-4,8H,5H2,1-2H3	InChI=1S/C7H11NO/c1-6-3-7(4-8-6)5-9-2/h3-4,8H,5H2,1-2H3
