18
gdb 88913	3.43039	0.93711	0.88216	3.4444	80.77	-0.2498	-0.0262	0.2236	1385.2463	0.145633	-401.928369	-401.918712	-401.917767	-401.963548	34.973	
C	-0.2576078828	 1.3581218944	 0.3324295697	-0.408553
C	 0.0844027135	-0.0967003913	 0.1115427112	 0.030767
C	 1.4505889842	-0.5095970599	-0.3824756928	-0.33791
C	 1.0330446069	-0.8357891033	 1.0277793393	 0.034514
N	 1.6860414325	-0.145641762	 2.1003893992	-0.325942
C	 1.0571360129	 0.0934595411	 3.2907581409	 0.288719
O	-0.1160766068	-0.1493263543	 3.5006879418	-0.359709
C	 1.9327912742	 0.6838179011	 4.2987665648	 0.212568
C	 2.6279210807	 1.1658673429	 5.1533311211	-0.401609
H	 0.6105856977	 1.9212002611	 0.6864072915	 0.114245
H	-0.6009062218	 1.8223277923	-0.5980503753	 0.114096
H	-1.0485061325	 1.4598556223	 1.081410091	 0.14131
H	-0.744601416	-0.7053451851	-0.2384436567	 0.09324
H	 1.5453129404	-1.3252320865	-1.0902383134	 0.118696
H	 2.1865801612	 0.2791086105	-0.5083198104	 0.112678
H	 0.7799282984	-1.8688336516	 1.2529696298	 0.107693
H	 2.6847638084	-0.0131137625	 2.0626396319	 0.256122
H	 3.2303181888	 1.5920724807	 5.9181722265	 0.209074
48.3786	68.5384	114.2572	180.4727	207.8934	241.0115	292.3976	315.5938	411.7461	455.9035	478.9725	596.6323	616.6771	657.8993	677.0503	768.432	784.8337	816.545	843.3579	916.4625	951.0337	1019.1989	1057.5428	1085.0303	1104.5571	1145.7754	1177.8073	1194.4784	1226.8331	1273.4293	1383.1203	1412.0027	1422.9725	1484.1956	1495.9451	1502.1614	1508.1221	1761.3435	2224.8831	3039.103	3103.6802	3114.4548	3127.6433	3130.2589	3151.8014	3215.6423	3495.7789	3623.718
CC1CC1NC(=O)C#C	C[C@H]1C[C@H]1NC(=O)C#C	
InChI=1S/C7H9NO/c1-3-7(9)8-6-4-5(6)2/h1,5-6H,4H2,2H3,(H,8,9)	InChI=1S/C7H9NO/c1-3-7(9)8-6-4-5(6)2/h1,5-6H,4H2,2H3,(H,8,9)/t5-,6+/m0/s1
