23
gdb 15427	4.92561	0.85108	0.78307	1.2181	83.57	-0.219	0.0892	0.3082	1572.7636	0.210818	-330.306256	-330.296381	-330.295436	-330.341481	35.623	
C	-5.0526270027	 0.0358586626	-0.7373989224	-0.381518
C	-4.1983729479	-1.1960157807	-0.4274136978	-0.162511
C	-2.7752504609	-1.0979968796	-0.9953023847	-0.197088
C	-1.9384135665	-2.3111471879	-0.6383482838	 0.016942
C	-1.8485166024	-3.4921255246	-1.5467012982	-0.254501
N	-0.677867236	-2.6575607576	-1.2948213492	-0.090855
C	-0.1686449483	-1.8431515572	-2.3936652555	-0.110464
C	 0.9166084618	-2.6054057205	-3.1511339783	-0.373154
H	-6.0589865086	-0.0605405653	-0.318163895	 0.112203
H	-4.6034485722	 0.9441293069	-0.3205135909	 0.114455
H	-5.1552159643	 0.1851602034	-1.8180899798	 0.113544
H	-4.143484593	-1.3405536524	 0.659558384	 0.097445
H	-4.6835557433	-2.094923869	-0.8282019724	 0.099946
H	-2.829450006	-0.9710244927	-2.082058189	 0.095992
H	-2.292277752	-0.1926652729	-0.6010448303	 0.097187
H	-1.9088403548	-2.506542264	 0.4346214962	 0.083724
H	-1.8128916896	-4.5065248768	-1.1570565923	 0.10941
H	-2.3374140663	-3.3987257711	-2.5175369675	 0.099274
H	-0.9547852379	-1.5316685468	-3.1016505937	 0.080415
H	 0.2526386628	-0.9266306043	-1.9627143108	 0.100115
H	 1.3335710613	-1.990319708	-3.9548263982	 0.107595
H	 1.7254840224	-2.8944207442	-2.4744336039	 0.125295
H	 0.5102171545	-3.5182397675	-3.5991200568	 0.116548
59.5718	87.1585	98.415	110.1779	218.6231	240.0019	246.4531	303.1001	307.6541	401.7025	456.9289	563.3221	726.3533	749.5109	811.627	847.5725	869.2351	900.3234	930.3711	970.4766	1005.9794	1044.8336	1051.6282	1096.5613	1108.9378	1115.6792	1148.5669	1155.5725	1193.2724	1200.3599	1261.3081	1302.5569	1308.5898	1323.7505	1343.1581	1380.9407	1388.5257	1409.4926	1412.5456	1427.9128	1482.5411	1488.69	1489.7875	1494.1892	1499.985	1505.1908	1510.613	1518.683	2956.2973	3008.7488	3020.3587	3029.5257	3037.6692	3044.1499	3047.3354	3068.4844	3076.5188	3091.3176	3097.6179	3102.0453	3106.2149	3119.1602	3164.4713
CCCC1CN1CC	CCC[C@H]1CN1CC	
InChI=1S/C7H15N/c1-3-5-7-6-8(7)4-2/h7H,3-6H2,1-2H3	InChI=1S/C7H15N/c1-3-5-7-6-8(7)4-2/h7H,3-6H2,1-2H3/t7-,8?/m0/s1
