21
gdb 105792	2.31209	1.42929	1.17567	1.5029	82.03	-0.2079	0.0673	0.2752	1173.1793	0.182145	-387.005494	-386.996542	-386.995598	-387.039096	34.662	
C	-0.2225224625	 1.5974774474	 0.0534358257	-0.437981
C	 0.0930573701	 0.101918449	 0.1108829943	-0.074587
C	 1.3307659758	-0.6683360084	-0.2967376744	-0.151459
C	 2.7057630238	-0.1363857165	 0.1855059279	-0.049615
C	 2.6657970183	 1.1420177583	 0.9738671354	-0.30996
C	 2.2064368473	-0.1374843139	 1.6225395852	-0.104947
C	 0.8373450275	-0.7106896186	 1.1500970158	 0.287998
C	 0.2139576615	-1.8540967356	 1.891363983	-0.161849
O	-0.3459289118	-1.4623730186	 3.1412221788	-0.416093
H	 0.3743146713	 2.1194442446	-0.6998179287	 0.132512
H	-1.2738695664	 1.7380176394	-0.2166070256	 0.11036
H	-0.0695730207	 2.0955384707	 1.0142949177	 0.130473
H	-0.7670622608	-0.4859346128	-0.213040351	 0.087705
H	 1.2655060824	-1.4627973696	-1.0313518988	 0.086561
H	 3.6323000564	-0.5431839631	-0.1986383298	 0.088161
H	 3.6455417045	 1.4608300591	 1.3209804849	 0.111337
H	 2.0111326176	 1.966755723	 0.7363587892	 0.11217
H	 2.694072353	-0.5339432706	 2.5038580206	 0.093668
H	-0.5359147293	-2.3444624154	 1.2488929743	 0.080372
H	 0.9700238501	-2.607820498	 2.142037268	 0.1063
H	-0.9559970481	-0.7388304805	 2.9632392073	 0.278874
78.9262	108.5871	133.6752	231.5675	273.4226	283.9879	327.5735	386.3627	407.7564	475.3397	604.9312	680.7024	690.0134	737.0597	761.7354	856.5023	863.5102	917.7275	925.9992	942.4138	981.9431	994.3461	1027.4637	1046.1315	1060.4058	1066.242	1082.6785	1091.2768	1106.1389	1128.3608	1186.2413	1199.9708	1240.3027	1262.0537	1299.871	1332.4022	1354.9377	1372.2781	1413.9071	1423.4311	1466.6637	1491.2868	1500.4069	1504.1645	1515.7346	2966.9494	3039.2116	3052.6257	3084.5586	3105.3922	3113.7676	3135.8914	3171.139	3187.8039	3197.8806	3250.6897	3809.9083
CC1C2C3CC3C12CO	C[C@H]1[C@H]2[C@H]3C[C@H]3[C@@]12CO	
InChI=1S/C8H12O/c1-4-7-5-2-6(5)8(4,7)3-9/h4-7,9H,2-3H2,1H3	InChI=1S/C8H12O/c1-4-7-5-2-6(5)8(4,7)3-9/h4-7,9H,2-3H2,1H3/t4-,5-,6+,7-,8+/m0/s1
