22
gdb 115448	3.91895	0.85717	0.73203	4.4188	84.34	-0.2349	0.0306	0.2655	1580.5106	0.19532	-404.397074	-404.387548	-404.386604	-404.432277	34.61	
C	 0.0202372091	 1.5701512368	-0.0849719669	-0.388071
C	-0.014012961	 0.0389842941	-0.0355888603	-0.192832
C	-1.4211014792	-0.5471196369	 0.0892362786	 0.033388
C	-1.4752778434	-2.0881464391	 0.098790467	-0.249204
C	-2.8575224811	-2.4149511235	 0.6835437976	-0.160966
N	-3.1574033091	-1.2481884748	 1.5199336238	-0.038477
C	-2.1554645939	-0.1923034873	 1.3961500143	-0.17742
C	-4.2955302797	-1.1661946077	 2.2470495327	 0.135254
O	-5.137262307	-2.0411596867	 2.3131423213	-0.343795
H	 1.0438509128	 1.937148878	-0.2055407363	 0.117732
H	-0.5710274795	 1.9527215661	-0.9243055768	 0.117912
H	-0.3816514289	 2.0129761889	 0.8324563335	 0.12058
H	 0.4542505867	-0.3641306146	-0.9421648573	 0.100505
H	 0.595725577	-0.317552618	 0.8058267123	 0.097541
H	-2.0336767525	-0.1856669029	-0.7485670207	 0.081139
H	-1.3273333946	-2.5249017365	-0.8917615682	 0.108313
H	-0.6853856077	-2.4775775691	 0.7524315951	 0.106397
H	-3.6234275605	-2.5218428598	-0.0940375691	 0.120003
H	-2.8743538098	-3.3323207597	 1.2786917617	 0.126365
H	-1.4493210406	-0.20698611	 2.2411421254	 0.103721
H	-2.6281160209	 0.7936099263	 1.3738086794	 0.118095
H	-4.3827718663	-0.1999061035	 2.7848861231	 0.063822
39.0876	95.3558	134.2334	170.6502	187.7251	243.5675	251.809	332.7757	395.2204	402.5708	484.8065	576.1653	743.8673	778.7848	818.8711	865.6407	882.3872	947.8044	958.3424	988.3495	1005.7005	1034.7264	1045.8219	1100.4474	1148.8863	1162.4644	1184.0805	1215.6594	1232.5487	1258.1337	1289.1771	1297.8996	1330.3898	1351.1634	1358.6811	1372.5573	1398.2717	1410.1997	1415.5111	1447.6169	1484.6684	1494.3177	1501.8823	1506.0828	1518.5886	1527.9245	1787.993	2921.1949	2977.3817	3007.0972	3017.047	3033.5401	3033.7754	3039.1631	3051.5838	3080.864	3083.4623	3100.0704	3104.6031	3106.5485
CCC1CCN(C1)C=O	CC[C@H]1CCN(C1)C=O	
InChI=1S/C7H13NO/c1-2-7-3-4-8(5-7)6-9/h6-7H,2-5H2,1H3	InChI=1S/C7H13NO/c1-2-7-3-4-8(5-7)6-9/h6-7H,2-5H2,1H3/t7-/m0/s1
