21
gdb 85424	2.28001	1.49753	1.19688	4.1317	78.44	-0.2419	0.0641	0.306	1153.8926	0.183123	-420.475554	-420.466318	-420.465373	-420.508698	36.345	
C	 0.2133726223	 1.6019159598	-0.240499487	-0.410545
C	-0.0251029059	 0.1227708729	 0.0793838152	 0.017228
N	 0.4724916737	-0.7585673196	-0.9737599959	-0.343362
C	 1.7435772562	-1.2360570097	-0.6780396869	 0.421147
O	 2.4916653575	-1.8231001621	-1.4273320654	-0.413614
N	 1.9802694956	-0.90347955	 0.6502125486	-0.359069
C	 0.7556594213	-0.4463081245	 1.3166485858	 0.270867
C	 1.073420943	 0.5860093559	 2.4000099366	-0.43094
C	-0.0244126251	-1.628318578	 1.9236071967	-0.417208
H	 1.2794896732	 1.8130648532	-0.3647227494	 0.136814
H	-0.2943950948	 1.8640992475	-1.1748548598	 0.113577
H	-0.1848182984	 2.2526372647	 0.5434329589	 0.120626
H	-1.0984699928	-0.0407379882	 0.2308311254	 0.082122
H	 0.2785070605	-0.5599480377	-1.943193794	 0.246225
H	 2.6415585161	-1.4817264501	 1.1465793601	 0.243384
H	 1.6870266349	 1.4012814816	 2.0122543204	 0.127728
H	 0.1553667536	 1.005656405	 2.8239612139	 0.118391
H	 1.6242010981	 0.111063668	 3.2189969527	 0.114623
H	 0.5826620235	-2.1422432	 2.6766462098	 0.110747
H	-0.9411408237	-1.2827950173	 2.4132544274	 0.114953
H	-0.296992029	-2.3502489514	 1.149079997	 0.136305
117.3578	133.6554	236.8312	248.2536	270.6115	289.1918	322.8511	342.4665	352.6908	446.7638	487.4	503.9641	535.1401	555.5707	617.4783	701.6328	761.9874	770.4905	908.5281	936.9925	966.49	972.0689	998.8661	1011.7811	1037.325	1093.1742	1140.9119	1191.6417	1231.0401	1233.6023	1270.4182	1359.8652	1380.0499	1396.6599	1403.5146	1408.5204	1413.1632	1431.0493	1480.3738	1484.7572	1495.3506	1496.3921	1507.4354	1515.0566	1848.9577	3029.1764	3031.817	3036.6174	3040.9773	3095.2324	3101.8278	3103.8729	3120.5128	3121.2381	3135.2106	3624.9575	3632.161
CC1NC(=O)NC1(C)C	C[C@H]1NC(=O)NC1(C)C	
InChI=1S/C6H12N2O/c1-4-6(2,3)8-5(9)7-4/h4H,1-3H3,(H2,7,8,9)	InChI=1S/C6H12N2O/c1-4-6(2,3)8-5(9)7-4/h4H,1-3H3,(H2,7,8,9)/t4-/m1/s1
