18
gdb 91052	2.19323	1.85576	1.56351	3.5096	70.47	-0.2152	0.0563	0.2715	955.2036	0.147106	-438.996994	-438.989087	-438.988142	-439.028767	31.843	
O	 0.0809645179	 1.4370779159	-0.1325590973	-0.420552
C	 0.0422067844	 0.0388113588	 0.0134534081	 0.031018
C	 0.3199380878	-0.6064830692	 1.4222227708	-0.299314
C	-1.0697148529	-1.288679236	 1.3779135841	-0.053361
N	-2.2628885847	-0.622489918	 2.0486302892	-0.152725
C	-2.12725491	 0.847982939	 1.9608796834	-0.251361
C	-2.5231511964	 0.1274977507	 0.7447703214	-0.050856
C	-1.3788997602	-0.5922673309	 0.0185773264	 0.405685
O	-1.8565595323	-1.2116330351	-1.1343208237	-0.485996
H	 1.0016163559	 1.7163752314	-0.1607726294	 0.288046
H	 0.6506642729	-0.4539846932	-0.7624476919	 0.061086
H	 1.1490725835	-1.3185892914	 1.4180756827	 0.101146
H	 0.4822095195	 0.1043935605	 2.2346173041	 0.114741
H	-1.1160711165	-2.3678791103	 1.5198187669	 0.082437
H	-2.9181215814	 1.3504317733	 2.5110308551	 0.120024
H	-1.1643014613	 1.3394701042	 2.0224800939	 0.127652
H	-3.5139885893	 0.1782441546	 0.3051821287	 0.102436
H	-1.1644165271	-1.7771754944	-1.4923881025	 0.279893
148.9753	224.5883	231.7084	265.1202	308.858	334.7877	361.1093	440.134	487.1461	558.6762	634.6366	652.0931	719.3553	748.723	782.8394	874.8834	905.0942	959.6449	976.6514	1011.6396	1044.9501	1058.4665	1087.6803	1108.9979	1115.1893	1132.5842	1144.6756	1163.008	1190.7011	1222.6005	1235.2681	1265.8849	1288.4504	1312.6619	1349.1492	1399.779	1433.625	1470.7431	1513.4199	2960.9652	3066.4314	3113.5851	3123.3833	3129.7175	3166.5403	3220.9698	3810.9853	3815.0799
OC1CC2N3CC3C12O	O[C@H]1C[C@H]2N3C[C@H]3[C@@]12O	
InChI=1S/C6H9NO2/c8-5-1-3-6(5,9)4-2-7(3)4/h3-5,8-9H,1-2H2	InChI=1S/C6H9NO2/c8-5-1-3-6(5,9)4-2-7(3)4/h3-5,8-9H,1-2H2/t3-,4+,5+,6-,7?/m1/s1
