16
gdb 83015	2.86149	1.45522	1.21588	5.3647	75.25	-0.26	-0.0637	0.1963	1050.484	0.125512	-396.923341	-396.915605	-396.914661	-396.95561	29.01	
C	-0.0682655298	 1.546995487	 0.0627526241	-0.430357
C	 0.0210382892	 0.0465257622	-0.0678613051	 0.000234
C	 0.7099613576	-0.6599430289	-1.1780439984	-0.066473
C	 1.7394999648	 0.0875347464	-2.0277241717	-0.204586
N	 2.7930722408	 0.5114596121	-1.0889968769	-0.248125
C	 2.4561993392	 0.0634131137	 0.0579401272	 0.230096
C	 3.2423373376	 0.2989628146	 1.2383918525	 0.289598
N	 3.8501535678	 0.4877906391	 2.2030556659	-0.317056
N	 1.2816558332	-0.7289845617	 0.1984421942	-0.177074
H	 0.7934623464	 2.067468227	-0.3596574216	 0.146246
H	-0.9644884739	 1.8985836926	-0.4591767542	 0.134973
H	-0.160620602	 1.8369827714	 1.1140076901	 0.144424
H	-0.8278946561	-0.4779573603	 0.3641422298	 0.114292
H	 0.2939578591	-1.5868709233	-1.5593719542	 0.112446
H	 2.1798505098	-0.5642334113	-2.7900441726	 0.13812
H	 1.3454640362	 0.9674819993	-2.549308039	 0.133242
99.5813	171.8347	193.6409	222.4755	250.5994	371.1232	441.6376	516.3685	540.4653	565.3374	693.6889	748.6277	790.9264	794.1906	879.2736	946.0581	970.7822	982.6334	993.4952	1077.9273	1090.618	1135.3254	1165.4777	1202.2509	1208.956	1294.1706	1331.4533	1365.2875	1413.1114	1427.0126	1482.0559	1497.0636	1502.9434	1660.3289	2363.1824	3042.2357	3044.5854	3073.9275	3105.3053	3128.1442	3144.8964	3164.5393
CC1C2CN=C(C#N)N12	C[C@H]1[C@H]2CN=C(C#N)N12	
InChI=1S/C6H7N3/c1-4-5-3-8-6(2-7)9(4)5/h4-5H,3H2,1H3	InChI=1S/C6H7N3/c1-4-5-3-8-6(2-7)9(4)5/h4-5H,3H2,1H3/t4-,5+,9?/m0/s1
