18
gdb 12465	3.23348	1.84332	1.23917	3.7202	75.39	-0.2368	-0.0466	0.1902	978.39	0.155901	-347.840318	-347.832963	-347.832019	-347.872335	27.989	
O	-0.0423588709	 0.5626506535	 1.364817428	-0.325394
C	-0.0616300273	 1.3580239537	 0.4420185463	 0.35819
C	-1.3979495178	 1.9423292254	-0.0004148055	-0.294587
C	-1.6053909023	 2.2703753585	-1.4825582863	-0.210976
C	-0.7594269235	 3.4454925404	-1.9846181215	-0.197319
C	 0.6919322619	 3.09680303	-2.3209317982	-0.249024
C	 1.5411147448	 2.4331163828	-1.275785579	-0.034897
C	 1.2357309126	 1.7431379034	-0.1679165845	-0.141639
H	-2.1567229233	 1.2395138373	 0.3546374174	 0.122083
H	-1.537402176	 2.862835314	 0.5860927959	 0.122058
H	-1.4197473736	 1.3814855185	-2.0996538652	 0.102273
H	-2.664749476	 2.5157489629	-1.61753408	 0.104425
H	-1.2157943215	 3.8632272831	-2.8892896214	 0.099279
H	-0.778515359	 4.2473004911	-1.2350019857	 0.10138
H	 0.7112266991	 2.443307114	-3.2083551623	 0.123635
H	 1.2128701949	 4.0084346402	-2.6422225261	 0.112635
H	 2.6060347999	 2.4988834687	-1.5002770317	 0.104571
H	 2.0581647383	 1.3158247025	 0.4007925599	 0.103309
54.9215	136.7928	258.9611	333.7364	350.3672	362.4928	475.0997	492.0882	626.7401	672.1024	700.1186	804.7637	834.4492	876.5377	896.6664	923.9519	964.36	1042.1071	1048.838	1086.9485	1108.6331	1161.6885	1210.4578	1229.4638	1269.5023	1303.4556	1305.3476	1365.2187	1381.6274	1389.4028	1405.2726	1428.1637	1459.1981	1460.816	1491.8466	1494.0333	1699.6242	1746.8714	2984.5818	3008.0815	3018.41	3024.2159	3036.1532	3064.1189	3065.9948	3092.8535	3121.4803	3164.1896
O=C1CCCCC=C1	O=C1CCCCC=C1	
InChI=1S/C7H10O/c8-7-5-3-1-2-4-6-7/h3,5H,1-2,4,6H2	InChI=1S/C7H10O/c8-7-5-3-1-2-4-6-7/h3,5H,1-2,4,6H2
