13
gdb 16100	4.69498	1.80315	1.54608	6.0465	63.16	-0.2505	-0.0029	0.2476	797.8189	0.097484	-357.647203	-357.640827	-357.639883	-357.677541	24.411	
N	 0.0483163006	-1.1248511441	-0.036714424	-0.347394
C	 0.0075966629	 0.029846587	 0.0140209577	 0.23517
C	 0.0028774049	 1.4663787825	 0.0553036828	 0.198163
C	 0.3810149928	 2.2490191171	-1.1962063336	-0.313748
C	 1.2923874508	 2.3482170323	-0.015821724	-0.060532
N	 0.9907206285	 3.404202808	 0.9089144041	-0.284348
C	-0.2628684511	 3.1472827745	 1.4338123218	 0.042697
N	-0.8769205541	 2.1060766398	 0.9999135525	-0.28413
H	 0.7371552497	 1.6591807379	-2.0324111308	 0.144497
H	-0.2469900519	 3.0967105575	-1.4487411264	 0.136967
H	 2.3041324942	 1.9647781097	-0.0415955581	 0.130463
H	 1.7168513644	 3.7971727605	 1.4879525282	 0.260286
H	-0.6927091717	 3.8342937774	 2.1544435	 0.141911
155.3113	173.0215	327.1338	402.5747	424.7609	489.4333	561.2965	566.507	648.4681	713.9342	787.1612	863.5369	910.011	937.2954	965.5088	994.2751	1061.6896	1074.1692	1086.6024	1139.0918	1213.4213	1277.105	1326.235	1378.566	1437.3954	1470.7875	1640.6142	2355.9536	3137.7655	3201.5534	3208.532	3237.2673	3623.3511
N#CC12CC1NC=N2	N#C[C@]12C[C@H]1NC=N2	
InChI=1S/C5H5N3/c6-2-5-1-4(5)7-3-8-5/h3-4H,1H2,(H,7,8)	InChI=1S/C5H5N3/c6-2-5-1-4(5)7-3-8-5/h3-4H,1H2,(H,7,8)/t4-,5-/m1/s1
