17
gdb 74306	2.26669	1.41661	0.95005	2.9187	76.23	-0.2448	-0.0393	0.2055	1231.6812	0.13366	-421.873576	-421.86477	-421.863826	-421.907791	31.66	
C	-0.0415102213	 1.4598267423	-0.1096978217	-0.486083
C	-0.0213117357	-0.0337130602	-0.0510871184	 0.30261
C	-0.0952404767	-0.8791583788	-1.0842734483	-0.158912
C	-0.0371000697	-2.3204876585	-0.6720071582	-0.261478
C	 1.0981172196	-3.1443563237	-1.2694603134	 0.149019
O	 1.8361835531	-2.7521768565	-2.1333551087	-0.2341
C	 0.0938488217	-2.2460886782	 0.86915154	 0.382801
O	 0.1874001037	-3.1925251403	 1.6035565283	-0.303232
C	 0.0983893559	-0.7664605971	 1.2641894745	-0.413577
H	 0.8711668281	 1.8831032192	 0.3281977463	 0.132915
H	-0.1256431377	 1.8195107814	-1.1384206563	 0.131471
H	-0.8813304512	 1.8674361448	 0.4671625874	 0.129641
H	-0.1668456681	-0.5787490317	-2.1223329336	 0.111167
H	-0.9555789499	-2.8899121939	-0.8899698792	 0.13157
H	 1.189875852	-4.1596247452	-0.8283929429	 0.104733
H	 1.0170741506	-0.5276032529	 1.816844002	 0.142279
H	-0.7304154446	-0.5635465407	 1.955895202	 0.139174
55.7641	103.3667	124.8742	180.8614	211.1655	282.7968	314.6522	425.8523	465.3786	541.3751	571.8723	616.9376	700.8231	779.8045	846.841	884.7174	903.5258	917.823	1001.5508	1012.4645	1056.0483	1081.0451	1123.1583	1161.2918	1182.7609	1209.4493	1265.9686	1296.0046	1347.7524	1411.5096	1417.5206	1439.552	1478.5936	1486.3238	1715.2592	1821.5589	1853.2153	2912.9893	2983.9357	3018.8449	3022.5208	3048.7202	3067.6457	3116.1384	3209.6487
CC1=CC(C=O)C(=O)C1	CC1=C[C@@H](C=O)C(=O)C1	
InChI=1S/C7H8O2/c1-5-2-6(4-8)7(9)3-5/h2,4,6H,3H2,1H3	InChI=1S/C7H8O2/c1-5-2-6(4-8)7(9)3-5/h2,4,6H,3H2,1H3/t6-/m0/s1
