18
gdb 8520	4.05513	1.96114	1.65707	1.4924	71.7	-0.2225	0.0911	0.3136	857.0134	0.152715	-347.755177	-347.747798	-347.746854	-347.786128	29.309	
C	 0.0103999429	 1.3980834925	-0.0851206808	-0.506195
C	-0.0123232334	-0.088802361	 0.0100788227	 0.489877
O	 0.9110963885	-0.8518896089	-0.7731095455	-0.361297
C	 0.1090290824	-2.0301244587	-0.439794477	 0.427807
C	 0.1666972511	-3.1178892576	-1.4653355234	-0.505535
C	 0.4227968583	-2.2327528525	 1.0708523212	-0.26549
C	-0.3261802423	-0.9178489486	 1.2719939019	-0.159338
C	-1.1042757281	-1.1020149052	-0.0323717055	-0.258195
H	 0.969866447	 1.7947839375	 0.2638501346	 0.131767
H	-0.1408348106	 1.7268255995	-1.1181894888	 0.129248
H	-0.7817000218	 1.8296235853	 0.5341913257	 0.12421
H	 1.1949691189	-3.4816731445	-1.5684907535	 0.13205
H	-0.468151295	-3.9590874321	-1.1709955278	 0.121121
H	-0.1656662649	-2.7510650731	-2.4406739132	 0.129699
H	-0.1303707684	-3.0785458325	 1.4889559525	 0.097651
H	 1.4825857185	-2.2926859078	 1.3401144737	 0.094912
H	-0.6719402258	-0.4660809469	 2.1934374244	 0.085615
H	-2.1568584472	-1.0718837354	-0.2799037311	 0.092093
193.8601	198.8965	203.1964	252.2497	298.2358	351.2487	465.4435	550.0199	602.8425	632.9272	757.2405	780.8207	816.3967	830.0423	866.4357	889.7932	921.5351	960.8554	970.0643	1000.1755	1059.9929	1084.7812	1100.8579	1131.1676	1133.0862	1157.5042	1229.0582	1239.0998	1257.7009	1342.8217	1399.5599	1415.1249	1460.0848	1474.4897	1480.1447	1487.4272	1489.3635	1502.0958	3034.3272	3036.0449	3042.1249	3099.6543	3103.2753	3106.8252	3112.8136	3117.1184	3191.1189	3204.0199
CC12OC3(C)CC1C23	C[C@@]12O[C@@]3(C)C[C@@H]1[C@@H]23	
InChI=1S/C7H10O/c1-6-3-4-5(6)7(4,2)8-6/h4-5H,3H2,1-2H3	InChI=1S/C7H10O/c1-6-3-4-5(6)7(4,2)8-6/h4-5H,3H2,1-2H3/t4-,5-,6+,7-/m1/s1
