17
gdb 23050	2.95101	1.21593	0.99413	2.0704	72.52	-0.2369	-0.0084	0.2285	1197.7537	0.135298	-455.044384	-455.035927	-455.034983	-455.078043	30.997	
O	-0.1544916345	 1.3813970557	 0.0238439961	-0.386943
N	-0.0090100863	-0.0096714537	 0.1356611228	-0.234822
C	-1.1190254498	-0.5986178474	 0.0051184962	 0.334934
C	-2.5650327731	-0.2441150989	-0.2607318698	-0.262489
N	-2.8280144315	-1.7066314761	-0.4168924021	-0.372103
C	-1.466508249	-2.0662188769	 0.043015511	 0.19916
C	-0.6512908864	-3.1656450856	-0.668331465	-0.110007
O	-0.4160193405	-3.8631454712	 0.573182692	-0.271628
C	-1.2139931034	-2.9247344295	 1.3108149438	-0.122792
H	 0.7514742734	 1.6919480208	 0.1292344176	 0.311153
H	-3.0584773056	 0.242649204	 0.590684533	 0.122912
H	-2.7642224457	 0.3443884795	-1.1622053046	 0.134213
H	-3.5732598955	-2.066485775	 0.1695520505	 0.222707
H	-1.2435265917	-3.755622961	-1.3783350691	 0.108734
H	 0.2803886104	-2.8324037185	-1.1388446044	 0.11594
H	-0.6518455048	-2.4353824535	 2.114790644	 0.115566
H	-2.1233482161	-3.3838886827	 1.726264338	 0.095466
73.0571	96.7857	138.5098	178.9307	287.3945	309.285	363.5694	444.4351	476.225	521.6264	576.9298	699.0472	772.0672	852.9393	916.5308	935.5696	953.5637	982.9705	991.7199	1010.8633	1041.5855	1087.8243	1105.3626	1133.9874	1153.5859	1156.3573	1212.0559	1261.7729	1297.2125	1303.6887	1365.3482	1373.5077	1418.3057	1493.9568	1494.469	1520.8701	1801.34	2988.5585	3019.7213	3022.7011	3057.1717	3071.9392	3078.4115	3532.2554	3814.959
ON=C1CNC11COC1	ON=C1CNC21COC2	
InChI=1S/C5H8N2O2/c8-7-4-1-6-5(4)2-9-3-5/h6,8H,1-3H2	InChI=1S/C5H8N2O2/c8-7-4-1-6-5(4)2-9-3-5/h6,8H,1-3H2
