16
gdb 68727	2.47233	1.67265	1.31324	4.5701	73.66	-0.2694	-0.0013	0.2681	1008.1891	0.123487	-400.710421	-400.702604	-400.701659	-400.742623	29.902	
C	 0.0112975813	 1.5316531494	 0.0202002689	-0.4921
C	-0.0908213753	 0.0435146906	 0.0960063775	 0.321292
O	 1.0667541386	-0.7340797243	-0.2336145495	-0.311097
C	 0.4874177817	-0.9366308059	 1.0671161723	 0.243107
C	 1.3144462817	-0.703685862	 2.2104737495	 0.227111
N	 1.9576598931	-0.5266323833	 3.1554412908	-0.345417
C	-0.7254620317	-1.832806835	 0.95104734	-0.14835
C	-1.9666309742	-1.0475826016	 1.2874722818	-0.292992
C	-1.3202133973	-0.8373406527	-0.0569797956	-0.122845
H	 0.9520244617	 1.8751013959	 0.456550972	 0.152658
H	-0.0228690258	 1.8599615148	-1.0242357524	 0.142237
H	-0.8220432514	 2.0015529939	 0.5503592055	 0.137198
H	-0.6999392674	-2.9120451326	 0.8828974823	 0.118001
H	-2.8917173016	-1.6154352769	 1.2807670841	 0.129901
H	-1.9313873077	-0.2681513372	 2.0431812048	 0.128572
H	-1.8104758957	-1.0728654932	-0.9926528421	 0.112723
122.7687	137.5762	185.3818	219.5991	299.9457	376.1115	447.8741	536.0332	555.9006	597.7949	601.7827	690.2007	744.4824	805.5192	840.3634	860.3479	928.1327	937.1824	1001.7013	1039.7445	1061.4047	1072.9989	1101.1072	1122.1074	1157.8324	1200.1268	1236.9675	1311.5048	1315.2395	1404.3889	1447.6312	1480.4737	1488.7067	1489.9138	2354.5556	3042.5696	3107.9253	3123.2764	3133.6881	3200.9297	3205.8422	3216.8179
CC12OC1(C#N)C1CC21	C[C@@]12O[C@]1(C#N)[C@H]1C[C@@H]21	
InChI=1S/C7H7NO/c1-6-4-2-5(4)7(6,3-8)9-6/h4-5H,2H2,1H3	InChI=1S/C7H7NO/c1-6-4-2-5(4)7(6,3-8)9-6/h4-5H,2H2,1H3/t4-,5+,6+,7-/m1/s1
