17
gdb 45767	3.22585	1.11542	0.8629	2.3377	80.	-0.2451	-0.025	0.2201	1301.4894	0.13451	-384.687492	-384.678918	-384.677974	-384.721435	31.846	
O	 0.0117387772	 0.0710638094	 0.2465494892	-0.31214
C	-0.0503398116	 1.2619675971	 0.0881962317	 0.389838
C	-1.3306018803	 2.093650462	-0.0769264834	-0.371965
C	-0.8231013454	 3.5092767022	-0.0099902628	-0.078625
C	 0.5074283068	 3.5761065504	 0.0676953572	-0.070854
C	 1.1599159089	 2.2188720225	 0.0649959775	-0.15406
C	 2.1325644373	 1.9233357325	 1.2327704068	-0.362763
C	 3.3405848654	 2.7347024401	 1.1783811769	 0.297911
C	 4.3254283941	 3.4205090278	 1.1076777232	-0.440868
H	-1.810080626	 1.8483012362	-1.0346598399	 0.139926
H	-2.05830997	 1.8338092913	 0.7014211685	 0.138922
H	-1.4866661774	 4.3659736904	-0.030886689	 0.104731
H	 1.0878835554	 4.4893509924	 0.1229236234	 0.115188
H	 1.7117883681	 2.0453030229	-0.8703298039	 0.121791
H	 1.6156443407	 2.0921875468	 2.1856892788	 0.133103
H	 2.3833339599	 0.8569016361	 1.1991494346	 0.15356
H	 5.2040430469	 4.01466707	 1.0591273412	 0.196306
59.91	75.8203	121.4511	225.2752	248.518	348.1396	413.4178	447.561	537.4916	572.4344	622.082	635.7691	643.1684	724.7307	757.2828	800.9473	871.5178	911.0915	971.1033	986.4595	993.3612	1028.5654	1076.6264	1130.4077	1135.7512	1159.0871	1198.6214	1238.5977	1282.6359	1318.7797	1340.5673	1382.0343	1442.9431	1473.2439	1677.9726	1848.1931	2238.027	3004.4036	3022.945	3030.7461	3058.5878	3071.5274	3192.6114	3216.0266	3506.7662
O=C1CC=CC1CC#C	O=C1CC=C[C@H]1CC#C	
InChI=1S/C8H8O/c1-2-4-7-5-3-6-8(7)9/h1,3,5,7H,4,6H2	InChI=1S/C8H8O/c1-2-4-7-5-3-6-8(7)9/h1,3,5,7H,4,6H2/t7-/m1/s1
