13
gdb 21810	6.91835	1.15677	1.0789	3.6448	59.31	-0.2615	-0.0603	0.2012	1029.3682	0.095719	-394.791219	-394.784073	-394.783129	-394.824904	24.002	
O	-0.2818131484	 0.3017988087	 0.7591585952	-0.211085
C	-0.0037153138	 1.0573627054	-0.1291761929	 0.141633
C	 1.3132333512	 1.8409715302	-0.162963516	-0.271973
N	 1.3314291599	 2.8776907835	-1.1709086577	-0.010382
C	 1.7967669447	 2.8018176655	-2.4565659476	 0.017795
N	 1.5851357301	 3.9206630448	-3.0977000574	-0.214697
N	 0.9511796352	 4.7796676431	-2.220980441	-0.213732
C	 0.8082349875	 4.1409977084	-1.0896551451	 0.018335
H	-0.6738622273	 1.2396248114	-0.9984480753	 0.112698
H	 1.4952198203	 2.2676177596	 0.8274665585	 0.167826
H	 2.1255708807	 1.133142676	-0.3595889063	 0.167337
H	 2.2800243487	 1.9223179027	-2.8543452467	 0.147223
H	 0.3546782711	 4.5322867405	-0.1916246877	 0.149022
18.6812	68.6051	107.2855	313.7657	351.1529	428.6405	651.9574	694.1728	699.4496	783.165	815.9615	846.2462	956.2677	1017.6433	1024.9383	1058.5661	1085.342	1197.1261	1215.6524	1237.2757	1327.3389	1390.2399	1390.3952	1406.151	1445.8893	1501.4365	1548.0644	1847.2781	2897.3322	3059.493	3109.3942	3258.276	3262.5886
O=CCN1C=NN=C1	O=CCn1cnnc1	
InChI=1S/C4H5N3O/c8-2-1-7-3-5-6-4-7/h2-4H,1H2	InChI=1S/C4H5N3O/c8-2-1-7-3-5-6-4-7/h2-4H,1H2
