23
gdb 40075	3.03037	1.36161	1.30958	0.1855	87.91	-0.2618	0.083	0.3448	1126.8635	0.208528	-351.149967	-351.142056	-351.141111	-351.182405	32.551	
C	-0.3604248476	 1.3220686916	-0.2297079832	-0.300977
C	 1.0968967467	 0.9788741838	-0.0182898962	-0.339041
C	 0.0685172939	-0.1141415797	-0.0278175295	 0.394861
C	-0.3262179233	-0.8761858271	 1.2350390331	-0.300399
C	-1.4224629794	-1.8498777985	 0.7717717011	 0.001516
C	-2.8330231897	-1.23667338	 0.5271096375	-0.220211
C	-2.6481438606	-1.3974834116	-1.0079640432	-0.220204
C	-1.235040321	-2.0126765314	-0.7838747246	 0.001506
C	-0.0371116846	-1.1272477836	-1.1652690535	-0.300394
H	-0.8868530079	 1.8217330371	 0.5771556917	 0.106682
H	-0.6701524599	 1.6335207361	-1.2221225371	 0.106682
H	 1.767440353	 1.0600856449	-0.8680377592	 0.106495
H	 1.5508566924	 1.248188935	 0.9302276307	 0.106495
H	 0.537925028	-1.4416134238	 1.6091472312	 0.092047
H	-0.6564537067	-0.2165531739	 2.045167577	 0.090656
H	-1.43274225	-2.770078397	 1.3597266289	 0.057046
H	-3.6541046148	-1.8235178384	 0.9465164191	 0.093415
H	-2.9442467177	-0.2053580058	 0.8733001279	 0.095332
H	-3.3618274645	-2.0778225067	-1.4794083081	 0.09342
H	-2.6497179515	-0.4617524556	-1.5738601129	 0.095322
H	-1.1293590298	-3.033459548	-1.1572373231	 0.057048
H	-0.1515356006	-0.6550667745	-2.1473233299	 0.090656
H	 0.8765976954	-1.7356515228	-1.2024980176	 0.092048
71.2873	110.6527	248.7158	316.9394	327.9911	376.0912	387.6172	527.2405	591.3092	734.64	737.336	753.6844	784.9217	828.2672	838.9552	870.9941	892.5582	908.2571	934.0969	941.3585	958.6189	982.4667	999.3506	1034.2597	1053.895	1070.7562	1081.6548	1082.7061	1135.6547	1165.0092	1170.1798	1188.8481	1224.5989	1225.9347	1265.2046	1265.9388	1273.344	1285.371	1307.3859	1308.9723	1340.1259	1347.8818	1389.623	1467.4264	1471.5129	1480.8667	1487.45	1494.3769	1507.9805	3010.1825	3014.7865	3050.7584	3057.1646	3064.0146	3066.8529	3070.0747	3083.6357	3094.0903	3113.7928	3120.7269	3125.6547	3197.8561	3213.3252
C1CC11CC2CCC2C1	C1CC21C[C@H]1CC[C@H]1C2	
InChI=1S/C9H14/c1-2-8-6-9(3-4-9)5-7(1)8/h7-8H,1-6H2	InChI=1S/C9H14/c1-2-8-6-9(3-4-9)5-7(1)8/h7-8H,1-6H2/t7-,8+
