14
gdb 21853	4.08127	2.0761	1.40065	1.5887	64.93	-0.2056	0.0318	0.2374	834.1095	0.109403	-378.693802	-378.687145	-378.686201	-378.724907	24.568	
O	 0.0022876638	 1.4415405739	-0.0771782844	-0.442079
C	 0.0694751983	 0.0816766738	-0.0304601021	 0.050502
C	 0.1796425046	-0.7920957269	-1.0975207776	 0.324883
C	 0.2951900717	-1.3405700763	-2.5132291008	-0.382667
C	 0.3257502616	-2.7654335313	-1.8185898806	-0.164752
N	 0.209600304	-2.0243838689	-0.5557118535	 0.087753
N	 0.1320366814	-2.0943839014	 0.7684503291	-0.30295
C	 0.0447477388	-0.7873323712	 1.0967284182	-0.105152
H	-0.0673498927	 1.7756114077	 0.8221326462	 0.300074
H	-0.5672267517	-1.1751013684	-3.1629013116	 0.131928
H	 1.2089556966	-1.0835436381	-3.0537245019	 0.131932
H	-0.5263647826	-3.4153865235	-2.0330820085	 0.13491
H	 1.260143466	-3.3227955652	-1.9228316892	 0.134906
H	-0.0337702899	-0.5029926242	 2.1371997667	 0.100711
74.4847	216.9173	222.6075	291.6217	360.4235	529.4495	648.6256	649.3428	655.9355	724.886	808.7713	813.1939	852.1803	896.506	1058.6159	1073.0341	1094.0459	1133.9839	1172.3471	1208.7168	1224.4475	1259.0815	1303.9964	1335.2492	1384.0399	1418.0806	1483.476	1496.0006	1535.7034	1659.8029	3061.9971	3072.0276	3112.3492	3126.1018	3227.54	3836.5637
OC1=C2CCN2N=C1	Oc1c2CCn2nc1	
InChI=1S/C5H6N2O/c8-5-3-6-7-2-1-4(5)7/h3,8H,1-2H2	InChI=1S/C5H6N2O/c8-5-3-6-7-2-1-4(5)7/h3,8H,1-2H2
