23
gdb 75207	3.3378	1.20483	1.02343	0.26	92.04	-0.2258	0.0347	0.2604	1289.7556	0.206482	-351.176717	-351.167748	-351.166804	-351.209736	35.708	
C	-0.4139327375	 1.5110713758	 0.0647934483	-0.474794
C	-0.0228723168	 0.059780231	-0.0070761247	 0.311589
C	-0.0720071324	-0.6361123712	-1.1450868348	-0.151225
C	 0.2642029677	-2.0958298905	-1.281646707	-0.321625
C	 1.0898932014	-2.6711277256	-0.1380639682	 0.346657
C	 1.0789618542	-4.183860562	-0.0566648597	-0.466234
C	 2.3657911393	-1.9509725072	 0.2353851506	-0.326408
C	 1.1611783086	-1.8782471644	 1.1466415078	-0.05637
C	 0.3991816696	-0.5747180411	 1.2973379759	-0.313073
H	 0.4246228105	 2.1317918542	 0.4067568664	 0.119998
H	-0.7457399236	 1.8901093908	-0.9056196828	 0.117149
H	-1.2269729657	 1.66729674	 0.7862567178	 0.119314
H	-0.4064554624	-0.1367836058	-2.0525760012	 0.072718
H	-0.6729647427	-2.6697025841	-1.3640493719	 0.102852
H	 0.7857067565	-2.2678434716	-2.2347064059	 0.099395
H	 1.459710186	-4.6332150277	-0.9822350326	 0.112135
H	 1.705009344	-4.5419564479	 0.7669189617	 0.109903
H	 0.0636246054	-4.5666730133	 0.1029998787	 0.111218
H	 3.2156920676	-2.5463816423	 0.5529020957	 0.10024
H	 2.6259514599	-1.057855501	-0.3238109336	 0.109366
H	 1.2269369357	-2.4610438325	 2.0620352706	 0.072679
H	 1.0010379637	 0.1436614021	 1.8736369459	 0.098369
H	-0.500386019	-0.7476188956	 1.9082640132	 0.106148
87.8812	180.4586	204.5874	233.4661	264.5998	292.2633	337.8476	362.9364	380.2366	446.995	461.9556	566.1707	656.9403	706.4157	779.7369	813.6065	849.4942	889.5477	911.7728	931.2394	968.1252	985.9952	1014.8919	1035.3939	1058.297	1074.8777	1091.427	1111.4497	1116.3035	1131.4249	1179.7711	1222.0558	1248.5404	1266.1223	1315.4323	1327.715	1376.1271	1393.6635	1413.5397	1416.7741	1424.4582	1476.1556	1478.0664	1481.2772	1490.3072	1491.803	1494.4466	1508.9064	1745.1529	2976.4291	2985.2437	3005.2194	3005.8893	3011.8327	3016.2441	3055.7564	3073.6564	3094.5741	3108.5955	3124.0829	3132.1569	3139.3069	3209.6676
CC1=CCC2(C)CC2C1	CC1=CC[C@@]2(C)C[C@H]2C1	
InChI=1S/C9H14/c1-7-3-4-9(2)6-8(9)5-7/h3,8H,4-6H2,1-2H3	InChI=1S/C9H14/c1-7-3-4-9(2)6-8(9)5-7/h3,8H,4-6H2,1-2H3/t8-,9+/m1/s1
