19
gdb 126728	5.17354	0.86433	0.79878	1.035	80.26	-0.203	0.0252	0.2282	1492.931	0.159777	-419.216251	-419.207074	-419.20613	-419.251221	32.84	
C	-0.0637782916	 1.4972166512	-0.3155651912	-0.372301
C	-0.0651451434	 0.0423265949	 0.1564803712	-0.138952
N	-1.385276673	-0.5635395534	 0.1085224151	 0.067107
C	-1.9176622226	-1.3104432971	-0.8964077955	-0.157194
C	-3.2240356192	-1.5766371583	-0.5274158844	 0.253193
O	-4.0922709473	-2.3129587934	-1.2656553197	-0.265861
C	-5.3789671824	-2.4767020241	-0.7004929926	-0.246867
C	-3.387280647	-0.9379469556	 0.7210867224	-0.119195
N	-2.2607386291	-0.3221127318	 1.0932613435	-0.271938
H	 0.943905882	 1.9174581832	-0.2405300755	 0.118335
H	-0.3922635468	 1.5725645827	-1.3564461802	 0.125186
H	-0.7376381238	 2.0944710108	 0.3036688734	 0.145583
H	 0.6003069769	-0.5700464161	-0.4591911529	 0.117821
H	 0.2783354139	-0.0244413364	 1.1919458009	 0.13343
H	-1.353096556	-1.5999516457	-1.7669960124	 0.129602
H	-5.9538682408	-3.0809812954	-1.40421874	 0.132123
H	-5.3301943075	-2.9955153576	 0.2664788341	 0.121194
H	-5.8815216804	-1.5103168789	-0.5585923723	 0.121003
H	-4.253951202	-0.9051201889	 1.3623925359	 0.107733
41.3954	62.9785	122.7089	191.6724	214.566	238.6179	317.4091	346.4044	412.2004	502.5375	622.3611	652.5033	674.2063	722.9213	751.8659	795.3542	836.764	960.2267	1005.2844	1024.586	1083.6598	1099.0023	1108.2771	1181.0755	1199.5673	1207.1783	1236.9468	1283.7551	1378.7451	1382.9914	1394.9997	1409.5183	1427.3022	1476.6433	1481.5128	1487.3742	1487.8656	1489.1252	1506.7695	1509.652	1629.1595	2997.8365	3043.8037	3053.5374	3062.0172	3104.5315	3118.7246	3132.65	3134.5177	3257.4744	3271.1523
CCN1C=C(OC)C=N1	CCn1cc(OC)cn1	
InChI=1S/C6H10N2O/c1-3-8-5-6(9-2)4-7-8/h4-5H,3H2,1-2H3	InChI=1S/C6H10N2O/c1-3-8-5-6(9-2)4-7-8/h4-5H,3H2,1-2H3
