15
gdb 48653	2.46374	1.4139	1.14358	2.9398	74.24	-0.2494	-0.0552	0.1942	1083.0225	0.112544	-416.781247	-416.773249	-416.772305	-416.814101	29.334	
O	-0.1199171344	 0.0044650049	 0.0523714495	-0.259058
C	-0.0336841316	 1.2087944737	 0.0044202911	 0.070078
C	 1.2465645583	 1.9290901545	 0.0297054148	 0.155557
C	 1.3717373381	 3.4036188207	 0.3440709959	-0.352765
C	 1.7990381983	 2.9739730829	-1.0162262088	 0.207309
N	 3.1402550897	 2.3767097519	-0.9439687273	-0.361249
C	 2.6224410112	 1.2712687577	-0.0644274644	-0.230669
C	 1.2131209105	 3.4354142738	-2.2306382093	 0.206252
N	 0.7591042823	 3.8047477514	-3.2295921592	-0.334071
H	-0.9331447748	 1.85838365	-0.0756414528	 0.085246
H	 0.4260587217	 3.9344246398	 0.3938222509	 0.150818
H	 2.139431927	 3.7381937648	 1.0352644472	 0.145801
H	 3.4364576205	 2.0222597629	-1.8471060426	 0.246777
H	 3.1800981392	 1.1583030841	 0.869281104	 0.125793
H	 2.5562570141	 0.3072779169	-0.5734549089	 0.144182
80.7093	150.8183	153.2351	222.7311	253.545	343.2175	422.9497	482.9376	514.6673	562.4603	638.052	717.282	766.7332	782.103	820.9969	948.9423	972.3938	1000.4024	1020.2221	1035.8917	1100.8951	1139.0749	1168.2044	1225.0507	1276.3145	1296.9225	1373.5532	1401.5891	1438.2615	1480.1328	1512.618	1794.8521	2342.6013	2890.6698	3062.7319	3121.1139	3124.4799	3221.2487	3540.6414
O=CC12CC1(NC2)C#N	O=C[C@]12C[C@]1(NC2)C#N	
InChI=1S/C6H6N2O/c7-2-6-1-5(6,4-9)3-8-6/h4,8H,1,3H2	InChI=1S/C6H6N2O/c7-2-6-1-5(6,4-9)3-8-6/h4,8H,1,3H2/t5-,6+/m1/s1
