15
gdb 17202	5.32403	1.61752	1.45795	2.0722	61.61	-0.2479	0.0621	0.31	856.3039	0.119009	-399.680899	-399.674429	-399.673485	-399.711251	25.857	
O	 0.122480842	 1.4249706328	-0.0837396647	-0.454228
C	 0.0855127598	 0.0410204027	-0.0818882702	 0.214468
C	 0.0324858615	-0.6866375935	 1.3012805495	-0.132676
O	-1.3443876617	-0.1286180473	 1.4633092985	-0.341896
C	-1.3054461051	-0.6552184814	 0.0615260752	-0.113999
C	-0.5874830717	-1.89286472	 0.5971095509	 0.474479
C	-0.0757439347	-3.1683304736	 0.0742147887	-0.34313
N	-1.1580365871	-3.1127369993	 1.0972562965	-0.385685
H	-0.5119474004	 1.6923897308	 0.5983320098	 0.288486
H	 0.776477366	-0.3398432175	-0.836247439	 0.098219
H	 0.7044329436	-0.626548314	 2.1581381273	 0.100034
H	-2.2118281462	-0.5635800901	-0.5352032558	 0.107256
H	-0.3913544092	-3.5405754412	-0.8963399987	 0.129367
H	 0.9177692418	-3.4864143854	 0.3813390618	 0.119963
H	-0.7968914586	-3.3392823029	 2.0205731502	 0.239341
160.4672	252.5983	271.2238	327.4302	437.8223	481.9408	586.5692	612.3768	731.0436	746.1633	768.3914	843.9796	879.1919	894.9618	922.5042	936.6547	971.8218	1048.6159	1083.3705	1098.1388	1127.7553	1130.6	1150.2616	1174.7513	1202.5823	1240.7488	1252.1793	1257.2646	1314.0793	1443.1363	1461.1337	1534.8864	3106.0428	3106.8767	3119.3106	3139.6398	3191.6454	3502.7707	3727.9251
OC1C2OC1C21CN1	O[C@H]1[C@H]2O[C@@H]1[C@]12CN1	
InChI=1S/C5H7NO2/c7-2-3-5(1-6-5)4(2)8-3/h2-4,6-7H,1H2	InChI=1S/C5H7NO2/c7-2-3-5(1-6-5)4(2)8-3/h2-4,6-7H,1H2/t2-,3+,4-,5+
