18
gdb 99148	4.01532	0.86312	0.75444	2.4698	70.18	-0.2459	0.0535	0.2993	1511.7036	0.145278	-476.235221	-476.225	-476.224056	-476.272597	34.979	
C	-0.0279184871	 1.2040495171	 0.2031456301	-0.330388
N	-0.1857411102	-0.1501738341	-0.2841769999	-0.360883
C	 0.6720586696	-0.7011167522	-1.1797355071	 0.526861
O	 1.6618354678	-0.1850772233	-1.6408036225	-0.399303
O	 0.240047091	-1.961890182	-1.5065881286	-0.300414
C	 1.0741867544	-2.67945048	-2.3925163561	 0.086036
C	 2.0696335414	-3.6408901469	-1.7941188913	-0.336477
C	 0.7780061424	-4.1484827673	-2.4045481255	 0.100263
O	-0.2332001097	-4.6499453849	-1.5860421457	-0.431286
H	 0.9071453792	 1.5914872954	-0.2025252349	 0.172919
H	-0.8503307945	 1.8504315506	-0.1246062591	 0.128573
H	 0.0220300944	 1.2272685822	 1.2970112886	 0.129299
H	-0.9892500463	-0.6921264423	-0.0152910998	 0.252117
H	 1.3117772907	-2.1384952977	-3.3004103109	 0.120935
H	 3.0094985629	-3.7975114004	-2.3117984449	 0.120757
H	 2.1239003512	-3.6668120924	-0.7112145885	 0.124509
H	 0.828787477	-4.6690655635	-3.3565751332	 0.105181
H	-0.6641824643	-3.8919870184	-1.1743132305	 0.2913
19.1548	54.3136	82.0087	116.4536	133.3106	214.2453	231.0154	299.2424	345.0048	430.5104	458.3114	506.9379	585.1417	739.2424	763.1316	771.1147	806.223	904.2455	945.9762	1002.9875	1036.9007	1065.2934	1107.9694	1128.6513	1134.3649	1159.216	1172.2725	1187.469	1237.4923	1248.7487	1345.6332	1375.6945	1420.4999	1447.4703	1477.1948	1497.7029	1499.8865	1566.4931	1834.7148	3027.7101	3080.1767	3136.0201	3148.631	3155.4728	3185.0481	3230.6268	3660.5796	3793.2013
CNC(=O)OC1CC1O	CNC(=O)O[C@H]1C[C@H]1O	
InChI=1S/C5H9NO3/c1-6-5(8)9-4-2-3(4)7/h3-4,7H,2H2,1H3,(H,6,8)	InChI=1S/C5H9NO3/c1-6-5(8)9-4-2-3(4)7/h3-4,7H,2H2,1H3,(H,6,8)/t3-,4+/m1/s1
