18
gdb 14203	2.7296	2.41652	1.84709	0.9186	71.76	-0.2297	0.0811	0.3108	821.9874	0.153971	-347.755424	-347.748111	-347.747167	-347.786358	29.1	
C	-0.145828162	 1.5215528763	-0.0561288007	-0.531495
C	-0.0192856264	 0.0372445579	 0.0214826928	 0.308642
C	 0.0110423554	-1.0581233788	-1.0363914368	-0.18544
C	 1.2995518284	-1.6517036629	-0.4787529269	-0.230336
C	 0.9117649619	-0.950401804	 0.8529514278	-0.111029
C	-0.369721839	-1.6976704761	 1.327596831	-0.294495
C	-1.031709801	-1.0691331987	 0.1062705193	 0.350711
O	-2.3820335482	-0.9289777879	-0.1483152288	-0.468773
H	 0.7661159476	 1.9904009062	-0.4435656034	 0.117415
H	-0.9724454428	 1.7958397975	-0.7199913331	 0.131697
H	-0.3538721101	 1.9597831858	 0.9271004852	 0.120795
H	-0.3210979723	-0.9783263947	-2.0649769826	 0.078721
H	 1.4182264062	-2.7419442172	-0.4551723228	 0.082768
H	 2.1844152485	-1.1994701116	-0.936752807	 0.096556
H	 1.6693009498	-0.65026172	 1.5740765045	 0.069921
H	-0.3159047903	-2.7901587924	 1.4145785913	 0.079725
H	-0.7708702622	-1.2703007763	 2.251124179	 0.10065
H	-2.6905646336	-1.7197418929	-0.6044576087	 0.283968
170.1984	200.1625	219.5774	278.3901	340.4433	366.0953	424.3967	519.1568	604.268	658.4495	696.984	749.7757	823.6076	887.6374	912.0088	922.5641	935.5217	987.8613	991.3711	1053.4209	1085.8939	1104.7962	1125.6556	1137.6638	1156.1796	1184.7504	1211.1523	1230.2721	1254.8386	1286.0253	1301.1863	1354.6867	1413.832	1477.1496	1484.9657	1495.053	1498.8479	1519.3355	3018.9367	3020.029	3026.6397	3076.4815	3084.2003	3093.4005	3095.3315	3133.9226	3183.1403	3789.2948
CC12C3CC1CC23O	C[C@@]12[C@H]3C[C@@H]1C[C@@]23O	
InChI=1S/C7H10O/c1-6-4-2-5(6)7(6,8)3-4/h4-5,8H,2-3H2,1H3	InChI=1S/C7H10O/c1-6-4-2-5(6)7(6,8)3-4/h4-5,8H,2-3H2,1H3/t4-,5-,6+,7+/m1/s1
