17
gdb 103003	2.07989	1.43265	1.16109	4.3435	69.88	-0.2268	0.0096	0.2365	1134.3551	0.134071	-455.111158	-455.101358	-455.100414	-455.145729	35.215	
C	 0.1159006934	 1.3065937352	-0.3235676829	-0.336167
N	-0.0791220777	-0.0273859967	 0.2568179884	-0.346727
C	-1.4071778554	-0.5419358959	 0.0915869823	 0.086679
C	-2.4226436592	 0.097621594	 0.8888503545	 0.281369
N	-3.2692218858	 0.5975959497	 1.4996592928	-0.346547
C	-1.8678015264	-1.1335332815	-1.2733039323	 0.058891
O	-0.9589206186	-1.0885438057	-2.3179613488	-0.424945
C	-1.5746757749	-2.0520252626	-0.1265931446	-0.031511
O	-0.4185877112	-2.811542859	-0.3044932456	-0.429639
H	 1.1558984627	 1.605547495	-0.1683222231	 0.121908
H	-0.1147177141	 1.354511583	-1.3964334775	 0.127438
H	-0.5196362669	 2.0245911639	 0.2034878283	 0.143515
H	 0.5681834212	-0.6851255103	-0.1613360696	 0.225107
H	-2.9005726907	-0.9852583452	-1.5753377666	 0.125325
H	-0.3988750518	-1.8725807666	-2.2518994163	 0.306872
H	-2.3955159374	-2.549494497	 0.3843823397	 0.126086
H	-0.0344291874	-3.0092914701	 0.5569891414	 0.312344
71.803	122.8459	148.0025	172.0229	193.5413	227.2456	281.5081	290.8281	322.4193	363.3877	472.7913	480.6427	568.1977	619.178	653.8867	710.6012	758.6524	837.6868	873.8588	1009.7931	1066.9204	1083.9974	1087.7621	1159.7563	1163.6689	1183.5811	1242.7706	1258.0341	1307.7263	1340.076	1390.6054	1449.413	1457.9894	1484.8339	1492.0756	1520.7042	2343.4539	3011.3781	3087.5864	3117.9737	3135.0889	3153.6562	3552.4461	3770.7966	3808.9694
CNC1(C#N)C(O)C1O	CN[C@@]1(C#N)[C@@H](O)[C@H]1O	
InChI=1S/C5H8N2O2/c1-7-5(2-6)3(8)4(5)9/h3-4,7-9H,1H3	InChI=1S/C5H8N2O2/c1-7-5(2-6)3(8)4(5)9/h3-4,7-9H,1H3/t3-,4+,5-
