21
gdb 112877	2.47536	1.28017	1.03182	4.1655	78.35	-0.2576	0.0162	0.2738	1272.1802	0.18257	-424.290578	-424.281172	-424.280227	-424.325358	34.588	
C	 0.2582618183	 1.3150568254	 0.2436110931	-0.388177
C	-0.0362382469	-0.1841401509	 0.1482762074	-0.190277
C	-1.5313791033	-0.515564957	-0.0640498562	-0.128411
C	-1.8331074296	-2.0027062977	-0.3144960858	-0.279881
C	-2.448704971	-2.5088027487	 1.0127236823	 0.127068
C	-1.5093785403	-3.3352663987	 1.8814617998	-0.397947
O	-2.8481048048	-1.3242433982	 1.7344312935	-0.223293
C	-2.3559509469	-0.1866591755	 1.181594143	 0.427506
O	-2.5647999671	 0.8913415876	 1.6639148728	-0.343956
H	 1.3258195321	 1.4884925617	 0.4097636852	 0.109795
H	-0.0234511075	 1.8266759214	-0.6834729479	 0.113518
H	-0.3023846837	 1.7759129828	 1.0594884024	 0.155381
H	 0.5203265152	-0.6186254845	-0.6910400982	 0.100524
H	 0.3259381072	-0.6940559698	 1.0502479018	 0.105776
H	-1.9042280392	 0.112914982	-0.8786814698	 0.106549
H	-2.5497288012	-2.120386835	-1.1310455681	 0.11405
H	-0.9386952356	-2.5726656397	-0.5791773186	 0.11022
H	-3.3674545731	-3.0749181927	 0.8316727532	 0.096282
H	-0.5716786982	-2.8021170286	 2.068046828	 0.128043
H	-1.9752341316	-3.5580723699	 2.8449936638	 0.135756
H	-1.2730928426	-4.2812233143	 1.3835574482	 0.121477
49.3358	95.0993	103.7215	196.4885	235.3969	244.6994	300.4361	334.0132	367.6652	429.2162	503.6019	662.492	708.8454	721.8543	745.3418	803.0687	859.6746	884.7369	939.6648	973.0188	1019.8146	1050.164	1059.6772	1078.5088	1114.3769	1134.2744	1164.3328	1188.4218	1241.06	1256.2105	1281.0557	1323.717	1349.5084	1369.7419	1371.1252	1394.0029	1412.4437	1416.417	1484.9251	1489.2846	1494.9342	1497.1015	1498.8789	1511.1698	1861.0442	3020.1387	3038.0724	3039.8309	3050.4603	3053.7244	3063.0358	3071.0523	3101.6976	3106.2109	3113.0955	3124.0767	3137.1859
CCC1CC(C)OC1=O	CC[C@H]1C[C@@H](C)OC1=O	
InChI=1S/C7H12O2/c1-3-6-4-5(2)9-7(6)8/h5-6H,3-4H2,1-2H3	InChI=1S/C7H12O2/c1-3-6-4-5(2)9-7(6)8/h5-6H,3-4H2,1-2H3/t5-,6+/m1/s1
