15
gdb 18206	4.34367	1.73012	1.4166	5.7024	65.17	-0.2363	0.0317	0.268	865.4388	0.121634	-358.820453	-358.813753	-358.812809	-358.851401	25.456	
N	-0.0047224696	-1.1211988697	-0.2983899345	-0.327821
C	 0.0102245605	 0.0279181181	-0.1816770864	 0.302368
C	 0.01590117	 1.4975061482	-0.0947084871	-0.121254
N	-0.6144264765	 1.9594677726	 1.144630663	-0.300439
C	-0.0378243029	 3.2523390204	 1.5322154909	-0.16306
C	 1.3686312899	 3.195841393	 0.9695633826	-0.036026
N	 2.0662790867	 1.9308818381	 1.2705175077	-0.306027
C	 1.4136280135	 2.1092000527	-0.0347029347	-0.04532
H	-0.4644302972	 1.8750165554	-1.0151328194	 0.105691
H	-1.6240324694	 1.9568133045	 1.0984941626	 0.235251
H	-0.5528168467	 4.1235006588	 1.0932267146	 0.090455
H	-0.0588423074	 3.3572991168	 2.622855174	 0.120449
H	 1.9356358732	 4.1124415489	 0.852016185	 0.099319
H	 3.0687484969	 2.0609681261	 1.1580199227	 0.239367
H	 2.0000474791	 2.1549406661	-0.944589111	 0.107045
107.3644	157.5419	257.1057	339.1539	406.257	496.3681	520.4492	592.691	659.7757	811.6206	832.8038	868.3653	879.4032	905.4239	973.2644	1000.323	1029.1949	1046.9575	1094.0606	1106.3892	1150.863	1166.7412	1218.0268	1250.7362	1279.6605	1341.4105	1354.5054	1373.8051	1433.8425	1451.5548	1512.24	2362.2733	2938.8288	2960.914	3055.3465	3175.948	3188.8514	3506.0719	3584.9054
N#CC1NCC2NC12	N#C[C@H]1NC[C@H]2N[C@@H]12	
InChI=1S/C5H7N3/c6-1-3-5-4(8-5)2-7-3/h3-5,7-8H,2H2	InChI=1S/C5H7N3/c6-1-3-5-4(8-5)2-7-3/h3-5,7-8H,2H2/t3-,4-,5+/m1/s1
