17
gdb 53066	5.92834	0.7774	0.72972	2.2279	88.72	-0.2207	-0.0262	0.1945	1562.5707	0.135252	-384.662188	-384.653639	-384.652695	-384.697321	30.909	
C	-0.0728245268	 1.4472966486	 0.0597368952	-0.508024
C	-0.003942159	-0.0039410918	 0.0067461955	 0.206957
C	 0.0709056796	-1.2088009847	-0.0371579866	-0.11937
C	 0.0927585483	-2.620468288	-0.0898432266	 0.189863
C	 1.1675650752	-3.4130136821	-0.2710228501	-0.208063
C	 0.7842868834	-4.8461191067	-0.1648520899	 0.00905
O	 0.2360139981	-5.1980839743	 1.131703132	-0.25609
C	-0.6698563686	-4.8828046234	 0.0751325661	 0.02852
C	-1.179958055	-3.4494548977	 0.0944214046	-0.346849
H	 0.5538615113	 1.8457826194	 0.865733154	 0.15355
H	 0.2734304693	 1.8949338835	-0.8788810587	 0.152569
H	-1.0980986009	 1.7916122644	 0.2336538672	 0.151289
H	 2.1792287425	-3.0644296471	-0.4309246072	 0.10332
H	 1.3424550669	-5.6370691266	-0.6554933487	 0.096306
H	-1.3101508232	-5.6967089978	-0.2544171693	 0.095539
H	-1.6865352069	-3.2059838246	 1.0344826683	 0.132997
H	-1.8931110644	-3.263448671	-0.7174449459	 0.118435
15.1609	85.3	94.3639	215.9641	298.6555	349.9128	369.1585	439.4607	521.7541	535.0553	555.5388	716.3226	813.0021	830.4638	851.0289	876.427	923.1351	965.9614	969.7691	1018.3013	1029.493	1047.9562	1053.4399	1107.9916	1183.4155	1240.1906	1257.8579	1277.1656	1308.0178	1340.6116	1406.0187	1413.0589	1459.4374	1474.8011	1475.5358	1648.5288	2345.3755	3024.2352	3039.9335	3081.5639	3082.9672	3088.5187	3146.63	3168.7982	3222.2911
CC#CC1=CC2OC2C1	CC#CC1=C[C@H]2O[C@H]2C1	
InChI=1S/C8H8O/c1-2-3-6-4-7-8(5-6)9-7/h4,7-8H,5H2,1H3	InChI=1S/C8H8O/c1-2-3-6-4-7-8(5-6)9-7/h4,7-8H,5H2,1H3/t7-,8+/m1/s1
