21
gdb 41953	2.21915	1.97423	1.64102	1.6669	76.76	-0.2267	0.0732	0.2999	962.2352	0.187315	-424.239508	-424.232465	-424.23152	-424.270495	29.559	
C	-0.0127207234	 1.3861173087	-0.1777834222	-0.059911
C	 1.3946609133	 1.9828724773	-0.0107450797	-0.220126
C	 2.1356982273	 1.4079411641	 1.2143344952	-0.020883
C	 1.5004706963	 1.7978442143	 2.5578685351	-0.07631
O	 0.1649002109	 1.3333460303	 2.6926294976	-0.25015
C	 0.0130336157	-0.0605964092	 2.4665845192	-0.094413
C	 0.63126377	-0.5295028417	 1.1410257295	 0.110658
C	 2.1092978626	-0.1249128355	 1.1018169164	-0.232719
O	-0.0480742772	-0.0316729671	-0.0074819435	-0.278599
H	-0.7066937819	 1.867600168	 0.5196019732	 0.111737
H	-0.3794172375	 1.5603589384	-1.1945075653	 0.097848
H	 1.9920348087	 1.7598054036	-0.9030846321	 0.09902
H	 1.3116807157	 3.0743377645	 0.0559482992	 0.093498
H	 3.1679366409	 1.7784805993	 1.2172737351	 0.06671
H	 2.1243209041	 1.404448852	 3.3799500462	 0.083678
H	 1.4464387831	 2.8855755185	 2.6710265408	 0.104268
H	 0.4704560455	-0.6379334855	 3.2900278023	 0.084063
H	-1.0640617675	-0.2500540094	 2.4714865048	 0.114619
H	 0.5168460951	-1.617727149	 1.0825650362	 0.078167
H	 2.5625452061	-0.4639284735	 0.164804149	 0.098987
H	 2.6548096823	-0.592894828	 1.9298284328	 0.089859
174.7822	249.7849	283.7549	351.8038	388.4567	399.6667	422.9723	503.0851	578.3849	684.9533	767.6981	794.7599	825.6551	854.6514	876.9622	906.2021	933.7184	962.7866	1001.1469	1019.0435	1057.8624	1070.5329	1102.823	1104.7208	1133.1692	1138.5769	1225.0787	1227.1191	1247.3551	1288.2466	1311.2601	1313.8397	1346.0902	1354.5131	1366.2907	1374.1714	1386.6145	1397.4708	1419.9048	1432.6398	1476.6478	1487.0539	1488.8031	1505.6018	1517.4607	2947.1745	2952.3498	3020.4411	3027.9438	3037.3145	3039.5404	3051.5131	3063.1046	3071.6556	3080.5609	3085.395	3090.7121
C1CC2COCC(C2)O1	C1C[C@H]2COC[C@H](C2)O1	
InChI=1S/C7H12O2/c1-2-9-7-3-6(1)4-8-5-7/h6-7H,1-5H2	InChI=1S/C7H12O2/c1-2-9-7-3-6(1)4-8-5-7/h6-7H,1-5H2/t6-,7+/m1/s1
