21
gdb 109061	3.80156	1.20756	1.10053	0.3254	87.76	-0.2106	0.0244	0.235	1209.3877	0.184356	-349.934356	-349.926546	-349.925602	-349.966789	31.514	
C	-0.3144845227	 1.4531999812	-0.0243408592	-0.371723
C	 0.1715204504	-0.0065575723	 0.0167846123	-0.300368
C	 0.8945537675	-0.4313452914	-1.226299248	 0.350312
C	 2.1647721013	-0.8417918202	-1.34740066	-0.21446
C	 2.4074602629	-1.3395473878	-2.7534682682	-0.092985
C	 1.5621985371	-2.6661937844	-2.9298422063	-0.223851
C	 0.4001613096	-1.8076352479	-3.4106695884	-0.071217
C	 1.315949753	-0.6251420359	-3.6226373419	-0.069021
C	 0.2464021507	-0.5060710244	-2.575654421	-0.134959
H	 0.5284069089	 2.1403273283	-0.1469392945	 0.1205
H	-1.0055605613	 1.6233151526	-0.8562726963	 0.117345
H	-0.8376437714	 1.7156770361	 0.9005020254	 0.110666
H	 0.828460555	-0.1472773557	 0.8824606358	 0.100017
H	-0.6961589804	-0.6622892493	 0.1758977904	 0.103606
H	 2.8660890895	-0.9818641505	-0.5325439568	 0.084902
H	 3.4394991214	-1.3710799156	-3.099386643	 0.064643
H	 1.9520946523	-3.2666540808	-3.7561628774	 0.099671
H	 1.4338690519	-3.2958814044	-2.0427420396	 0.087284
H	-0.4313586545	-2.1448183516	-4.0184497501	 0.081823
H	 1.4537230126	 0.0303596367	-4.4741578607	 0.081183
H	-0.6509020337	 0.0611798175	-2.7973648022	 0.07663
68.9794	131.0517	204.9924	260.8912	329.3398	401.6825	472.171	569.704	611.4303	697.2826	761.0395	767.0561	781.4039	804.6206	826.2638	868.6306	874.8527	908.597	945.9659	961.4022	982.1648	999.5145	1020.1894	1043.4548	1056.9515	1074.5102	1092.5718	1096.7475	1136.2298	1168.8138	1204.4173	1226.4733	1248.1157	1274.025	1289.3827	1312.2124	1348.9362	1354.0308	1386.5903	1407.6334	1478.0971	1487.8251	1498.3389	1506.4717	1683.8429	3007.7968	3035.7493	3037.1035	3059.1445	3097.5463	3104.6016	3110.0466	3120.5999	3171.075	3172.4524	3187.8459	3194.0276
CCC1=CC2CC3C2C13	CCC1=C[C@H]2C[C@@H]3[C@H]2[C@H]13	
InChI=1S/C9H12/c1-2-5-3-6-4-7-8(5)9(6)7/h3,6-9H,2,4H2,1H3	InChI=1S/C9H12/c1-2-5-3-6-4-7-8(5)9(6)7/h3,6-9H,2,4H2,1H3/t6-,7-,8+,9-/m0/s1
