16
gdb 74112	2.49049	1.65815	1.08831	5.8489	74.71	-0.2214	-0.0324	0.189	1075.7997	0.125545	-437.907308	-437.899637	-437.898693	-437.939361	29.831	
N	 0.0834412065	 1.3462562409	-0.0198759901	-0.558864
C	-0.0053739506	-0.0208734953	-0.0010307409	 0.393945
C	-1.1915228854	-0.6786455637	-0.0410161941	-0.314098
C	-1.3118616853	-2.1226509984	 0.0348428239	 0.40775
O	-2.3709342976	-2.7111952799	 0.1851940741	-0.367544
C	-0.0310741481	-2.9136756277	-0.0939848207	-0.081734
O	 0.7492702656	-2.6557725056	-1.2790213465	-0.249471
C	 1.2650212501	-2.2190184606	-0.0315160792	 0.046647
C	 1.3190144412	-0.7242300948	 0.1809924046	-0.353891
H	 0.9629432113	 1.7663399414	-0.2718250352	 0.258889
H	-0.7312725546	 1.8694065806	-0.2996683357	 0.264097
H	-2.1242464172	-0.1258006318	-0.1037036775	 0.08654
H	-0.116554978	-3.962507244	 0.1810500168	 0.106175
H	 2.1381429911	-2.7702084434	 0.317861158	 0.099002
H	 2.060398636	-0.2935857282	-0.5067468727	 0.123433
H	 1.687892855	-0.5170113794	 1.1944447952	 0.139124
102.4704	160.4361	258.8893	333.5366	345.967	362.624	439.3873	471.8289	484.5339	535.222	553.2652	650.6781	753.5772	796.6999	866.8994	879.9729	889.9465	926.9144	957.858	1023.5313	1073.185	1104.1197	1139.0668	1238.618	1260.6414	1274.217	1302.6222	1356.5093	1367.0488	1425.5471	1452.4389	1462.0992	1645.2578	1679.3175	1750.2644	3011.7377	3046.5817	3110.1733	3148.8877	3171.5915	3590.6984	3703.1566
NC1=CC(=O)C2OC2C1	NC1=CC(=O)[C@H]2O[C@H]2C1	
InChI=1S/C6H7NO2/c7-3-1-4(8)6-5(2-3)9-6/h1,5-6H,2,7H2	InChI=1S/C6H7NO2/c7-3-1-4(8)6-5(2-3)9-6/h1,5-6H,2,7H2/t5-,6+/m0/s1
