21
gdb 100635	2.51676	1.09139	0.94475	0.3327	80.38	-0.2615	0.0358	0.2973	1344.1041	0.177917	-424.185555	-424.174314	-424.17337	-424.221315	41.429	
C	-0.0515856913	 1.5603356917	-0.0523219586	-0.42528
C	 0.0136824593	 0.0270429642	-0.0283766911	 0.029268
C	 0.6612716904	-0.5002108073	-1.3137233411	-0.104031
O	-0.0752882303	 0.0169761756	-2.4161274685	-0.426615
C	 0.7489347389	-0.5033145372	 1.244143537	 0.151697
C	 0.8581333931	-2.0370750189	 1.2775478449	-0.412887
O	 2.1033337498	-0.0309331356	 1.2833947593	-0.45595
C	 0.0263655047	-0.0548588469	 2.4472712182	 0.319421
C	-0.5501763543	 0.3134683543	 3.436235038	-0.472089
H	 0.9540411228	 1.9942119829	-0.1088808732	 0.102865
H	-0.5983932008	 1.8950065708	-0.9345164533	 0.140623
H	-0.5475249025	 1.9499635069	 0.8401887099	 0.12246
H	-1.0116988646	-0.3619895849	 0.0119507833	 0.088732
H	 1.712766081	-0.1789777257	-1.3440978007	 0.099817
H	 0.6454834332	-1.5984784176	-1.3298848788	 0.08645
H	 0.3611904883	-0.2676457118	-3.2238762339	 0.286115
H	 1.5469933931	-2.3812733052	 0.5034819892	 0.129065
H	 1.2484059699	-2.3541170571	 2.2465177348	 0.131689
H	-0.1198586017	-2.4995941197	 1.1227449563	 0.123681
H	 2.0835025233	 0.9005323704	 1.5265251229	 0.28715
H	-1.0583199624	 0.6356626812	 4.3116310154	 0.197821
68.3604	88.0968	140.2271	179.6074	225.043	230.3175	238.2379	262.0625	284.7221	294.4089	324.9964	362.5713	414.3154	425.5219	495.5063	576.359	607.0175	627.8874	662.3351	742.0571	857.2996	925.0334	930.9751	942.6594	1023.6287	1041.2091	1068.6193	1119.0466	1157.3306	1173.5038	1196.8243	1253.3709	1276.9967	1329.3151	1351.3552	1369.8161	1397.1321	1404.8635	1455.8446	1481.4579	1496.659	1499.969	1510.8309	1529.1868	2226.763	2990.5903	3020.8596	3033.2135	3041.5461	3057.5078	3108.561	3137.1669	3139.4832	3146.1034	3498.9213	3818.5251	3834.5394
CC(CO)C(C)(O)C#C	C[C@@H](CO)[C@@](C)(O)C#C	
InChI=1S/C7H12O2/c1-4-7(3,9)6(2)5-8/h1,6,8-9H,5H2,2-3H3	InChI=1S/C7H12O2/c1-4-7(3,9)6(2)5-8/h1,6,8-9H,5H2,2-3H3/t6-,7-/m0/s1
