17
gdb 80277	2.58001	1.60673	1.3253	3.4484	69.51	-0.2243	0.0493	0.2736	1020.898	0.135758	-455.140467	-455.131986	-455.131042	-455.173286	32.112	
C	-0.1255252246	 1.5055987668	 0.0821438185	-0.471431
C	-0.0070413311	 0.0068082537	 0.0083962751	 0.266798
N	-1.1998552495	-0.7363754303	-0.2864904428	-0.368474
C	-1.1754597462	-1.9896966426	 0.3050419466	 0.45577
N	-1.9887030339	-2.9288921515	 0.0815650885	-0.584605
O	-0.1174275308	-2.0331352129	 1.1956541186	-0.256053
C	 0.6658998146	-0.8697403625	 1.0339620931	-0.038718
C	 1.312051825	-0.6978351453	-0.3253745297	 0.027522
O	 1.3067860443	-1.7429896001	-1.2385611818	-0.421582
H	 0.8193883736	 1.9538142633	 0.4025086864	 0.123869
H	-0.3743928881	 1.9275529913	-0.8980332099	 0.128887
H	-0.9075675221	 1.7984468656	 0.78924222	 0.135365
H	-1.5958092476	-0.707547314	-1.2140721989	 0.263578
H	-1.7599612752	-3.7420228733	 0.6477469142	 0.223593
H	 1.1188242731	-0.5264080073	 1.9562225837	 0.115483
H	 2.1962395269	-0.0608700523	-0.3524508217	 0.098821
H	 1.4911995215	-2.5636068586	-0.7678187	 0.301177
120.8695	125.1243	194.7345	213.9952	248.0985	265.6607	302.9389	463.3512	483.9534	554.6535	607.2717	660.93	702.5122	738.6997	779.0094	789.6006	837.1279	888.4786	935.1533	989.5555	1020.3042	1063.422	1083.0329	1118.5775	1131.898	1184.7082	1238.2487	1269.2436	1330.7364	1337.854	1375.7976	1384.648	1418.2591	1454.4329	1485.3511	1500.1591	1794.3274	3033.9173	3098.147	3103.8825	3116.6853	3186.9791	3534.5983	3626.2545	3797.8015
CC12NC(=N)OC1C2O	C[C@]12N[C]([NH])O[C@H]1[C@H]2O	
InChI=1S/C5H8N2O2/c1-5-2(8)3(5)9-4(6)7-5/h2-3,8H,1H3,(H2,6,7)	InChI=1S/C5H8N2O2/c1-5-2(8)3(5)9-4(6)7-5/h2-3,8H,1H3,(H2,6,7)/t2-,3+,5-/m1/s1
