13
gdb 123306	2.00708	1.90575	0.97755	2.5085	81.84	-0.2291	-0.0155	0.2135	1112.8641	0.089196	-378.428884	-378.421086	-378.420142	-378.461179	29.559	
C	 0.0288358674	-1.2167322277	-0.0040876109	-0.404318
C	 0.0027429857	-0.0131812011	 0.0029837744	 0.169395
C	-0.0177226446	 1.3971549706	 0.0110330049	 0.005362
C	-1.1237755397	 2.2302298479	 0.0295745762	-0.117986
N	-0.6489870084	 3.4947761793	 0.0305896417	-0.192648
N	 0.690776299	 3.5719707564	 0.0141347838	-0.291451
C	 1.0974033977	 2.2987515191	 0.0019392339	 0.15851
C	 2.4700887569	 1.9542962533	-0.0172784772	 0.25768
C	 3.628660615	 1.6316363058	-0.033620268	-0.40241
H	 0.057083049	-2.2779127849	-0.0104469049	 0.185556
H	-2.1777927597	 2.0058465069	 0.0416177902	 0.154098
H	-1.1801896957	 4.3494942407	 0.0420291212	 0.285703
H	 4.6527225774	 1.3515286138	-0.0478384052	 0.192509
103.1031	156.3392	189.7461	198.7094	434.7085	452.3473	506.6767	521.4384	548.9221	565.1315	595.6842	626.5254	659.956	663.3475	667.2715	671.1201	761.5409	805.3538	949.9599	1087.1248	1133.7882	1231.5602	1319.9541	1351.3061	1451.1793	1494.1251	1570.8963	2237.3101	2244.5928	3274.5174	3503.7054	3504.2604	3670.4815
C#CC1=CNN=C1C#C	C#Cc1c[nH]nc1C#C	
InChI=1S/C7H4N2/c1-3-6-5-8-9-7(6)4-2/h1-2,5H,(H,8,9)	InChI=1S/C7H4N2/c1-3-6-5-8-9-7(6)4-2/h1-2,5H,(H,8,9)
