21
gdb 106670	2.70745	1.22647	1.00617	2.1445	78.99	-0.2484	0.0746	0.323	1279.2257	0.180246	-424.200836	-424.191015	-424.190071	-424.235372	36.615	
C	 0.0092497375	 1.5612996704	 0.0525323174	-0.408509
C	-0.0116222634	 0.0421417676	-0.0415810116	-0.030769
C	 0.9581501126	-0.6586074059	-1.0637221609	-0.313512
C	 1.5832289007	-1.4140441939	 0.115622954	 0.323122
C	 2.3218431168	-2.7142812257	 0.1374615549	-0.174983
O	 3.62627842	-2.58401307	-0.409092064	-0.414929
O	 2.0837098107	-0.3956892519	 1.0169582993	-0.337668
C	 0.6903906513	-0.7484166308	 1.0884233563	 0.333435
C	 0.1324042809	-1.1498803292	 2.4159199547	-0.506485
H	 1.0267611486	 1.9140578659	 0.2428985263	 0.132006
H	-0.3426278151	 2.0170464457	-0.8789323454	 0.114602
H	-0.6358770202	 1.9216322526	 0.8617321878	 0.111242
H	-1.0341184049	-0.3256421555	-0.1800846235	 0.07229
H	 0.436960139	-1.3058999861	-1.7733580442	 0.103181
H	 1.6475053164	-0.005609891	-1.6045459128	 0.108994
H	 2.3533104991	-3.0975485454	 1.1686277267	 0.092312
H	 1.8045119924	-3.4546956338	-0.4817426265	 0.110989
H	 4.062847859	-1.8839700784	 0.0895784779	 0.293427
H	-0.0101417748	-0.271096866	 3.0552323956	 0.133225
H	-0.8403266334	-1.6375602575	 2.2949125836	 0.12494
H	 0.8081476268	-1.8359221013	 2.9331307544	 0.133088
69.6174	106.1769	162.3779	184.0965	211.1617	224.2371	268.9789	300.9442	357.3464	399.1868	423.7795	492.3167	596.8428	635.9554	696.313	749.1975	798.0686	861.776	888.9075	917.9949	943.257	1007.8066	1047.3936	1064.1307	1101.8854	1111.1911	1123.1062	1179.9216	1199.1198	1206.9425	1226.2616	1260.7253	1313.2145	1355.3134	1371.6548	1402.7939	1406.475	1426.5571	1465.1426	1477.7824	1487.3373	1490.0533	1494.5905	1502.7782	1516.8231	2990.3421	3031.0892	3033.6565	3047.9588	3064.5967	3075.3835	3092.9588	3095.54	3116.0606	3119.5505	3121.4583	3802.5088
CC1CC2(CO)OC12C	C[C@H]1C[C@@]2(CO)O[C@@]12C	
InChI=1S/C7H12O2/c1-5-3-7(4-8)6(5,2)9-7/h5,8H,3-4H2,1-2H3	InChI=1S/C7H12O2/c1-5-3-7(4-8)6(5,2)9-7/h5,8H,3-4H2,1-2H3/t5-,6-,7-/m0/s1
