17
gdb 74988	2.91247	1.56196	1.15962	4.2451	75.57	-0.2323	-0.0524	0.1799	1069.1854	0.136407	-421.841801	-421.833888	-421.832944	-421.874583	29.267	
C	 0.000013982	 1.525260531	 0.1757506068	-0.492702
C	-0.0536344787	 0.0373995243	 0.0646576425	 0.204414
C	-1.1148129215	-0.7841815811	 0.1342717285	-0.174373
C	-0.7710339922	-2.2348378546	-0.0527517657	-0.133802
C	-0.843451758	-2.7636219745	-1.5117702963	-0.07451
O	 0.5773427384	-2.5965079573	-1.6832664278	-0.285611
C	 0.7511219695	-2.2289892611	-0.2883684584	 0.012178
C	 1.1848032991	-0.7613742657	-0.1525241636	 0.333079
O	 2.3132454355	-0.3351982436	-0.2302139849	-0.322407
H	 0.6749738048	 1.8241521749	 0.9848725115	 0.146182
H	 0.410115411	 1.9626936505	-0.741227994	 0.148011
H	-0.9864069062	 1.9571523421	 0.360740005	 0.121975
H	-2.1385580166	-0.4530624097	 0.2824769268	 0.110687
H	-1.1888821644	-2.8921891765	 0.7114566885	 0.094788
H	-1.136266284	-3.8176688018	-1.5924159653	 0.107437
H	-1.4238231068	-2.1658248939	-2.223350549	 0.109449
H	 1.3994359382	-2.9262016031	 0.2496485554	 0.095207
90.3464	110.4085	156.0019	225.9237	252.7877	365.0093	379.7727	486.4556	602.183	638.2677	733.7933	803.939	832.3028	885.2754	888.742	907.7748	976.2788	980.7904	1013.3489	1051.7938	1067.4229	1083.5902	1093.3915	1161.7252	1208.5364	1231.8863	1263.2021	1292.9463	1322.0567	1339.8823	1353.0234	1414.0692	1472.3438	1482.6547	1516.769	1684.9183	1813.2141	3018.5422	3037.9729	3069.8753	3074.4825	3092.5472	3098.7711	3124.3948	3176.4745
CC1=CC2COC2C1=O	CC1=C[C@H]2CO[C@H]2C1=O	
InChI=1S/C7H8O2/c1-4-2-5-3-9-7(5)6(4)8/h2,5,7H,3H2,1H3	InChI=1S/C7H8O2/c1-4-2-5-3-9-7(5)6(4)8/h2,5,7H,3H2,1H3/t5-,7+/m0/s1
