18
gdb 86920	3.15501	0.91892	0.80664	3.0506	75.43	-0.2477	-0.0372	0.2105	1445.3422	0.145649	-439.117082	-439.107557	-439.106613	-439.152878	32.787	
C	-0.1798200769	 1.5853553451	-0.0205216836	-0.403323
C	-0.0060537127	 0.0769838176	-0.1380659554	-0.132507
C	 0.9960906165	-0.4681566994	-1.2046481578	-0.194909
N	 1.7809691572	-1.0211744381	-0.0929122227	-0.087616
C	 2.9526757156	-1.8514515031	-0.0402445969	-0.259273
C	 4.2223774331	-1.1033745928	-0.4325925815	 0.153759
O	 5.1338627966	-1.5949383271	-1.0412427389	-0.225517
C	 0.9310903918	-0.5864946252	 0.9009245261	 0.404993
O	 0.9705790395	-0.7117506731	 2.0965623329	-0.371826
H	 0.789293049	 2.0950547836	-0.0041704332	 0.123623
H	-0.7599674563	 1.9838954976	-0.8585585682	 0.123659
H	-0.7045743571	 1.8346650288	 0.9061719923	 0.142612
H	-0.9753905564	-0.428217062	-0.1778929626	 0.108071
H	 0.5963820305	-1.2283419979	-1.8846405045	 0.115549
H	 1.5194176518	 0.3005355253	-1.7835081917	 0.115571
H	 3.0620843751	-2.1688452582	 1.0062713106	 0.165237
H	 2.8601023306	-2.7487048934	-0.6633243248	 0.134781
H	 4.2381805323	-0.0419136677	-0.09398479	 0.087116
50.285	55.439	95.7325	136.5413	202.078	225.0835	232.6477	337.3629	355.4606	439.7996	534.2382	668.2627	717.6433	769.8235	791.04	851.1275	930.3174	968.2394	1027.6613	1048.8928	1084.4117	1108.3089	1144.8359	1161.4662	1176.8372	1223.2095	1260.984	1313.4144	1332.7269	1361.1928	1400.2662	1409.05	1419.9004	1441.1311	1495.4723	1496.4638	1525.5196	1842.7056	1875.6999	2876.1126	3021.8619	3032.0807	3037.347	3070.997	3076.5921	3082.7429	3107.2654	3116.44
CC1CN(CC=O)C1=O	C[C@H]1CN(CC=O)C1=O	
InChI=1S/C6H9NO2/c1-5-4-7(2-3-8)6(5)9/h3,5H,2,4H2,1H3	InChI=1S/C6H9NO2/c1-5-4-7(2-3-8)6(5)9/h3,5H,2,4H2,1H3/t5-/m0/s1
