20
gdb 72281	3.16365	1.5923	1.34288	1.1227	78.3	-0.2176	0.0879	0.3055	1027.1405	0.173034	-403.106511	-403.099003	-403.098059	-403.138009	30.575	
C	-0.145073999	 1.5947898897	 0.0245458566	-0.481349
C	-0.033311354	 0.1023816984	-0.073948418	 0.323354
C	 0.6772028495	-0.6569798696	-1.2083566107	-0.339148
C	-0.3104780851	-1.8540976123	-0.9802569272	 0.102064
O	 0.2185858014	-3.0434875522	-0.4260291005	-0.261428
C	 1.1683549456	-2.7877920206	 0.5981296842	-0.092817
C	 0.6704303268	-1.7551740603	 1.6312279482	-0.163076
N	-0.2108757103	-0.6927474836	 1.1344226743	-0.131989
C	-1.0893298947	-0.9797957913	 0.0200482011	-0.118067
H	 0.8215804305	 2.0433001525	 0.2838071064	 0.119889
H	-0.4652234345	 2.0270808534	-0.9297325225	 0.115609
H	-0.8636090328	 1.8744903412	 0.7989096963	 0.131684
H	 0.4806223179	-0.1877121536	-2.1766173943	 0.104876
H	 1.7521834721	-0.8304044686	-1.123884258	 0.099936
H	-0.8623281695	-2.1516640011	-1.873063072	 0.086681
H	 1.3475085172	-3.7464656867	 1.09357565	 0.107538
H	 2.1217993279	-2.4684541088	 0.1544330561	 0.093866
H	 0.0858078348	-2.2732343326	 2.4002145998	 0.113639
H	 1.5275775578	-1.2947096598	 2.1348599795	 0.10561
H	-2.1654348016	-0.923957094	 0.1537074606	 0.083128
153.9037	193.0799	227.5199	285.7301	317.0305	405.6781	428.372	521.075	532.8621	636.8699	691.3021	733.7295	776.9145	836.8642	875.4814	914.4578	929.9522	935.0158	974.6026	988.9889	1007.6292	1032.7032	1083.6447	1132.304	1148.3102	1152.8922	1176.4381	1207.0197	1213.399	1255.6633	1280.0389	1283.6276	1301.1588	1367.5091	1377.3555	1404.122	1413.3924	1436.5065	1482.1561	1483.1738	1485.9628	1495.3757	1522.2094	3001.1873	3027.1791	3031.3757	3061.	3071.5398	3085.2548	3085.891	3099.8953	3111.1547	3121.7956	3154.8013
CC12CC3OCCN1C23	C[C@@]12C[C@H]3OCCN1[C@@H]23	
InChI=1S/C7H11NO/c1-7-4-5-6(7)8(7)2-3-9-5/h5-6H,2-4H2,1H3	InChI=1S/C7H11NO/c1-7-4-5-6(7)8(7)2-3-9-5/h5-6H,2-4H2,1H3/t5-,6-,7+,8?/m1/s1
