17
gdb 11440	4.54007	1.30005	1.1753	3.2754	64.36	-0.2367	0.0384	0.275	1030.9618	0.143682	-401.042641	-401.034738	-401.033794	-401.075228	28.969	
O	 0.1366690647	 1.1975217971	-0.4208686787	-0.421934
C	-0.0214172507	-0.189635736	-0.1639288653	-0.082266
C	-1.4832054831	-0.4399540426	 0.202892638	 0.009
C	-2.4250170796	-0.1001731521	-0.9820070179	-0.178124
N	-2.5897908123	-1.3852801677	-1.6391180931	-0.297145
C	-2.2978678919	-2.476711785	-0.8663070447	 0.403712
O	-2.4557522403	-3.6367897402	-1.1772583971	-0.380689
C	-1.7486936643	-1.9343931232	 0.4596147354	-0.358707
H	 1.0328976562	 1.3480972884	-0.734456993	 0.290376
H	 0.2461701327	-0.793733998	-1.0457894977	 0.098075
H	 0.6204535894	-0.5164265132	 0.668953783	 0.092389
H	-1.7223831449	 0.1828062619	 1.0683048104	 0.08955
H	-3.3844483211	 0.3000947744	-0.6258910921	 0.102655
H	-1.973418929	 0.6436635174	-1.6434827146	 0.128095
H	-3.0702200532	-1.503443596	-2.5168332924	 0.249735
H	-0.8640702881	-2.5004276531	 0.7624051202	 0.125723
H	-2.5107389645	-2.0913005622	 1.2303498695	 0.129555
70.6786	129.5649	158.2468	248.481	257.0245	346.5913	416.1218	490.0712	509.9655	596.236	679.6762	732.4529	827.4923	866.56	904.724	949.9979	1018.6688	1038.6858	1078.9974	1081.9412	1135.638	1174.9148	1206.1592	1237.3371	1266.5878	1270.4165	1281.9012	1312.9841	1356.1523	1376.3265	1441.4236	1459.0087	1468.6248	1519.2837	1539.0372	1831.4069	2969.7009	3001.6382	3002.9735	3056.4749	3083.6175	3091.5702	3105.1977	3643.0483	3835.4719
OCC1CNC(=O)C1	OC[C@H]1CNC(=O)C1	
InChI=1S/C5H9NO2/c7-3-4-1-5(8)6-2-4/h4,7H,1-3H2,(H,6,8)	InChI=1S/C5H9NO2/c7-3-4-1-5(8)6-2-4/h4,7H,1-3H2,(H,6,8)/t4-/m1/s1
