17
gdb 24970	4.50709	1.25163	1.00011	3.6077	77.1	-0.1838	0.0431	0.2269	1157.9091	0.138946	-418.040467	-418.032932	-418.031988	-418.07252	29.014	
N	-0.0501996527	 1.2671442474	-0.0265814845	-0.599983
C	-0.0119171716	 0.0024169109	-0.0209391819	 0.432486
N	-1.1098081143	-0.8521874984	-0.0343705338	-0.451111
C	-0.6444869881	-2.1593441278	 0.0981447137	 0.281926
C	 0.684004469	-2.1056195947	 0.0952591303	 0.296294
C	 1.3740552768	-3.4198644691	 0.0318394433	-0.343337
C	 0.1466988494	-4.3685030783	 0.282775162	-0.195213
C	-1.1757414346	-3.5513619158	 0.0424948595	-0.344933
O	 1.1274714546	-0.8013704618	 0.0035520358	-0.262055
H	 0.8879708788	 1.657185582	-0.0097443573	 0.225751
H	-2.029588916	-0.4994456862	 0.1632267122	 0.270478
H	 1.8409380882	-3.5996089592	-0.9462216593	 0.115876
H	 2.1558060346	-3.5596257372	 0.7865636897	 0.116421
H	 0.1884662074	-5.2569950597	-0.3506340401	 0.11
H	 0.1686822473	-4.7100030467	 1.3204871284	 0.119191
H	-1.9325644277	-3.7812324795	 0.8010607884	 0.111413
H	-1.6271337911	-3.7774643559	-0.9330391462	 0.116796
109.1183	134.8296	216.8506	244.2741	308.3349	382.5409	522.666	529.998	619.7044	699.038	711.1936	718.0846	747.8423	795.095	860.5045	896.2377	907.4065	921.8183	987.4731	1030.2491	1064.6717	1094.0153	1156.4535	1204.3108	1211.3107	1239.5015	1269.7484	1293.9653	1325.0654	1337.8728	1377.4759	1461.8583	1486.0898	1503.5809	1517.2113	1758.5328	1793.3393	3010.7629	3012.942	3048.6334	3053.2775	3074.4459	3118.0172	3545.0177	3688.6809
N=C1NC2=C(CCC2)O1	[NH][C@@H]1NC2=C(CCC2)O1	
InChI=1S/C6H8N2O/c7-6-8-4-2-1-3-5(4)9-6/h1-3H2,(H2,7,8)	InChI=1S/C6H9N2O/c7-6-8-4-2-1-3-5(4)9-6/h6-8H,1-3H2/t6-/m1/s1
