18
gdb 77179	3.42305	1.08902	0.87341	2.548	73.93	-0.2471	-0.0283	0.2187	1300.6225	0.1457	-439.048948	-439.040044	-439.039099	-439.08309	32.579	
O	 0.4008997155	 0.7566117981	 0.7996311096	-0.435761
C	 0.1460947778	-0.3403161278	-0.0224836329	 0.051784
C	-1.3105978751	-0.8752497209	-0.2598355272	-0.002871
C	-0.9568712239	-1.117585716	-1.7611539424	-0.365436
C	 0.2073841932	-0.1488106602	-1.5365702757	 0.332394
O	 0.7545123586	 0.6870771993	-2.201589675	-0.30746
N	-1.6654718614	-2.0479180513	 0.5047471241	-0.067181
C	-2.288680797	-1.8013992162	 1.8051406411	-0.222336
C	-3.0950145527	-2.3143210204	 0.6648377553	-0.227636
H	 0.5770792029	 1.5095061416	 0.2215082616	 0.296861
H	 0.7554467833	-1.2019934894	 0.2863211566	 0.117647
H	-2.0286407252	-0.0449181791	-0.1577183624	 0.072229
H	-0.6186156168	-2.1464371538	-1.916855716	 0.142211
H	-1.6829030389	-0.8442197162	-2.527704844	 0.132079
H	-1.9796749662	-2.467320529	 2.6050315317	 0.122922
H	-2.4444221194	-0.7675526735	 2.1062000316	 0.124729
H	-3.7965577765	-1.6244781681	 0.1989564001	 0.113953
H	-3.3854192882	-3.359669277	 0.6196340939	 0.121874
70.4118	82.3742	148.614	183.3876	218.7293	265.2155	338.0702	368.503	408.7242	497.3026	623.2219	657.7536	755.3552	782.4574	818.3341	893.5834	905.9421	929.398	994.7791	1039.3957	1057.3329	1068.8112	1111.8091	1120.183	1120.767	1159.84	1174.8218	1178.1938	1196.027	1214.8073	1244.6123	1321.1169	1327.3693	1388.218	1402.8953	1443.1789	1491.5368	1517.7922	1877.0838	2966.225	3015.147	3069.8033	3099.6085	3106.6317	3140.0355	3184.5483	3199.2806	3775.8166
OC1C(CC1=O)N1CC1	O[C@H]1[C@@H](CC1=O)N1CC1	
InChI=1S/C6H9NO2/c8-5-3-4(6(5)9)7-1-2-7/h4,6,9H,1-3H2	InChI=1S/C6H9NO2/c8-5-3-4(6(5)9)7-1-2-7/h4,6,9H,1-3H2/t4-,6+/m1/s1
