23
gdb 120739	3.53691	0.78833	0.71265	1.7472	83.04	-0.2604	0.0848	0.3452	1714.1029	0.20364	-425.416571	-425.405987	-425.405043	-425.452907	38.665	
C	 0.1103414211	 1.5114479825	-0.2454667739	-0.382341
C	 0.2641976716	 0.0001460414	-0.0602071086	-0.158941
C	 0.315191868	-0.4156427436	 1.4175740476	-0.233382
C	 0.424329856	-1.9116408847	 1.5857977877	 0.064856
O	 1.6840775268	-2.5535556803	 1.2769220358	-0.276842
C	 1.1937688889	-2.6105059944	 2.6262096896	 0.019665
C	 2.0891829026	-1.9358935969	 3.6673481563	 0.09881
C	 2.9343155898	-2.9768132063	 4.4098823744	-0.39417
O	 2.9156372977	-0.9543579203	 3.0651989627	-0.428739
H	 0.9418611152	 2.0531207129	 0.2184775227	 0.119416
H	 0.0858530213	 1.7821827356	-1.3055165821	 0.11267
H	-0.8162069921	 1.8752748746	 0.2129094933	 0.112708
H	-0.5657798377	-0.5193483891	-0.5575358349	 0.092865
H	 1.1797795215	-0.3447481616	-0.5556739379	 0.109443
H	 1.1480988792	 0.0776799064	 1.9243310854	 0.130384
H	-0.6064768567	-0.0908720835	 1.9209975932	 0.096774
H	-0.421158673	-2.4664991348	 1.1708496749	 0.090358
H	 0.8392877016	-3.5992613534	 2.9234609142	 0.090487
H	 1.452411701	-1.4117569971	 4.3929813874	 0.091003
H	 3.5496461902	-3.5464268835	 3.7050038737	 0.121958
H	 3.5983497378	-2.4754357773	 5.1182051509	 0.12573
H	 2.3025516658	-3.680803955	 4.9627798083	 0.109104
H	 3.0782361534	-1.2740038914	 2.1658524494	 0.288182
48.8601	65.943	87.6459	137.2625	211.4788	240.1854	252.2711	278.9026	290.1015	338.078	413.9914	479.2764	501.1773	569.6972	645.4897	744.9239	774.9437	800.7073	888.4123	902.9177	909.4894	951.6785	992.9196	1042.1902	1054.6458	1074.8224	1106.8725	1125.8887	1143.1022	1173.7019	1189.7971	1263.1187	1279.3176	1301.7792	1312.974	1330.2389	1348.7352	1385.0277	1402.0591	1411.2544	1413.3267	1438.3998	1482.5578	1484.6505	1493.78	1494.3568	1495.2958	1499.6669	1510.9901	3014.5299	3017.2397	3019.5559	3029.9275	3031.9352	3055.6559	3071.5092	3093.6914	3095.8578	3102.5739	3103.4277	3111.0979	3124.505	3731.0015
CCCC1OC1C(C)O	CCC[C@H]1O[C@H]1[C@@H](C)O	
InChI=1S/C7H14O2/c1-3-4-6-7(9-6)5(2)8/h5-8H,3-4H2,1-2H3	InChI=1S/C7H14O2/c1-3-4-6-7(9-6)5(2)8/h5-8H,3-4H2,1-2H3/t5-,6-,7+/m1/s1
