12
gdb 25131	3.72377	1.30531	0.96651	5.3031	71.72	-0.2609	-0.1014	0.1595	1097.9367	0.080772	-427.894814	-427.887869	-427.886925	-427.92662	25.317	
N	-0.1300792353	 1.3290239464	 0.0083431057	-0.547014
C	 0.014014649	 0.0685778536	 0.0010530507	 0.418716
N	-1.1526389036	-0.7353123516	 0.0029738698	-0.2833
C	-1.0917573652	-2.0740725494	-0.0042670855	 0.118602
N	 0.0215544732	-2.7476286297	-0.0135477116	-0.311247
C	 1.1400374396	-1.9420043175	-0.015270257	 0.23459
N	 1.2097043147	-0.6469876621	-0.0088687438	-0.313751
C	 2.3970565004	-2.6634353441	-0.0253110796	 0.300536
N	 3.3977857855	-3.2406680142	-0.0333306281	-0.310506
H	 0.785974164	 1.7743281312	 0.0058962186	 0.241588
H	-2.0352313465	-0.2418138815	 0.0101094039	 0.289348
H	-2.0409928759	-2.6042903011	-0.0020522032	 0.162439
115.5072	141.3779	161.4155	362.9652	427.7574	445.6144	490.2189	565.6953	595.8773	683.1298	748.7995	775.307	804.4233	866.1905	917.6048	978.3494	1002.228	1089.8944	1178.6026	1256.3714	1329.101	1404.3476	1481.7326	1566.2964	1653.0989	1748.4721	2364.8128	3175.8147	3520.2618	3603.7556
N=C1NC=NC(=N1)C#N	[NH]C1=NC(=NCN1)C#N	
InChI=1S/C4H3N5/c5-1-3-7-2-8-4(6)9-3/h2H,(H2,6,7,8,9)	InChI=1S/C4H4N5/c5-1-3-7-2-8-4(6)9-3/h6H,2H2,(H,7,8,9)
