21
gdb 112033	2.47824	1.38987	1.17153	0.1983	92.86	-0.2099	-0.0332	0.1767	1187.8545	0.184381	-349.977911	-349.969371	-349.968427	-350.010929	33.339	
C	-0.2060932187	 1.7101064162	-0.148507207	-0.385351
C	-0.1884153055	 0.1802981059	-0.0949802165	-0.167719
C	 0.6978154276	-0.460348956	-1.1921281961	-0.07845
C	 2.1586249505	-0.0766251336	-1.0906787488	-0.093463
C	 2.9980194678	-0.4485026062	-0.1037338553	-0.056208
C	 2.7522554326	-1.4175591657	 0.9368132942	-0.100631
C	 1.8878054722	-2.4620434075	 0.8673182882	-0.100723
C	 1.0501447263	-2.7992999451	-0.2582261187	-0.051221
C	 0.5916062628	-1.968727405	-1.2153345065	-0.109453
H	 0.7953455969	 2.1249284844	 0.0025908109	 0.119612
H	-0.5747008334	 2.0710598729	-1.1160199264	 0.107221
H	-0.8572416865	 2.121935689	 0.6287748011	 0.110855
H	 0.1571838265	-0.156511664	 0.8870093549	 0.112572
H	-1.2072446724	-0.2079744374	-0.2171234278	 0.089475
H	 0.3262631977	-0.086982183	-2.1538477165	 0.070349
H	 2.5464615279	 0.579690631	-1.8661846721	 0.090914
H	 3.9902192179	-0.0002453513	-0.0971896059	 0.087959
H	 3.4036755683	-1.3631554551	 1.8059779523	 0.087995
H	 1.9006237929	-3.1780979746	 1.6857897089	 0.088197
H	 0.7935581918	-3.853528377	-0.3479869151	 0.08795
H	 0.064949357	-2.4067072077	-2.0602456177	 0.090119
84.1508	125.964	173.6344	233.93	282.0562	307.8095	368.995	407.7383	468.4963	495.153	643.8952	710.7145	753.6174	778.9286	784.3023	828.0696	876.9578	899.6683	933.5597	949.2192	963.7406	990.3604	992.4874	1007.8547	1049.6142	1064.5848	1119.9119	1130.1068	1242.2029	1249.382	1250.4999	1284.3816	1321.8974	1371.743	1374.6383	1393.2336	1407.8665	1437.7194	1477.0787	1484.7925	1497.8322	1507.3694	1593.9571	1674.1436	1680.731	3025.5636	3028.9881	3031.1311	3079.6965	3100.5906	3107.3148	3128.7595	3131.6683	3143.8655	3156.0949	3157.8976	3167.4735
CCC1C=CC=CC=C1	CC[C@H]1C=CC=CC=C1	
InChI=1S/C9H12/c1-2-9-7-5-3-4-6-8-9/h3-9H,2H2,1H3	InChI=1S/C9H12/c1-2-9-7-5-3-4-6-8-9/h3-9H,2H2,1H3
