19
gdb 123404	4.75913	0.86855	0.81046	2.1349	80.95	-0.2319	0.0258	0.2578	1444.7466	0.161882	-382.078285	-382.070091	-382.069147	-382.11277	30.654	
C	-0.2018287843	 1.3271319708	-0.1908501212	-0.250529
C	 1.2367482763	 1.0150500848	 0.1511368387	-0.275429
C	 0.2314841281	-0.099195009	 0.0220461843	 0.048607
C	-0.2282053444	-0.8673967181	 1.2530531425	-0.360499
C	-1.5593969656	-1.5411526857	 1.0754164149	 0.223096
C	-2.815604991	-1.0525870214	 1.3804610105	-0.127171
N	-3.7061000472	-2.0056815073	 1.0101103123	-0.175221
N	-3.124157869	-3.0974995985	 0.4821036099	-0.226761
C	-1.8246373861	-2.8164650558	 0.5199358055	-0.08079
H	-0.8133873896	 1.7905817995	 0.5771901199	 0.103128
H	-0.4343479219	 1.6566563596	-1.1974031067	 0.1106
H	 1.988011256	 1.1293412772	-0.6225807837	 0.110191
H	 1.5863905901	 1.2691795335	 1.146880967	 0.10794
H	 0.3057155326	-0.7088102195	-0.8747024378	 0.085831
H	 0.5275777568	-1.6203149252	 1.5103453216	 0.106131
H	-0.2709219665	-0.1765366552	 2.1041318094	 0.096407
H	-3.1323377128	-0.122498066	 1.8262999767	 0.127607
H	-4.7072688657	-1.9833568413	 1.101376094	 0.272562
H	-1.1113218959	-3.5407372623	 0.1518017821	 0.104301
24.0837	68.8449	113.1746	278.0195	302.5765	342.6012	408.7155	510.3328	648.0157	693.8824	726.6426	772.8268	787.0144	804.6731	843.0393	884.5933	895.7974	952.1521	953.2305	992.5205	1014.8483	1054.7694	1067.8231	1077.1523	1116.0647	1141.2919	1169.0873	1196.561	1223.0284	1236.4824	1261.5114	1313.4018	1338.732	1390.7337	1404.8268	1421.4774	1468.3616	1481.8764	1494.7901	1507.5744	1610.4465	3018.8197	3055.1357	3126.3851	3131.0454	3141.6012	3203.9484	3219.1762	3235.0138	3255.9171	3677.2802
C1CC1CC1=CNN=C1	C1CC1Cc1c[nH]nc1	
InChI=1S/C7H10N2/c1-2-6(1)3-7-4-8-9-5-7/h4-6H,1-3H2,(H,8,9)	InChI=1S/C7H10N2/c1-2-6(1)3-7-4-8-9-5-7/h4-6H,1-3H2,(H,8,9)
