19
gdb 109013	4.22946	0.99756	0.88734	2.7271	77.28	-0.2304	0.0099	0.2403	1341.4442	0.157716	-423.016614	-423.007642	-423.006698	-423.050277	33.598	
C	 0.0429141833	 1.4997402187	-0.0581286533	-0.484646
C	-0.0694846133	 0.0111062243	 0.1244974806	 0.417238
C	-1.394149327	-0.7097217094	-0.1485224396	-0.383779
C	-1.3213412461	-1.9430781608	 0.7357553566	 0.294954
C	-2.3955240087	-2.9797630727	 0.7064758076	-0.17078
O	-2.1158796667	-3.9873313843	 1.6598909943	-0.412496
C	-0.2019047172	-1.9640280634	 1.4670197075	-0.177943
C	 0.6530696846	-0.7908374312	 1.1294886535	-0.06607
O	 1.0713430317	-0.7650758104	-0.2619006676	-0.303149
H	 1.0382074155	 1.8455647275	 0.2316547356	 0.129923
H	-0.1193150282	 1.7761496093	-1.1062834456	 0.125213
H	-0.7030374749	 2.0264363199	 0.5465161454	 0.119308
H	-2.2537328383	-0.0759095772	 0.1094365862	 0.105467
H	-1.4943730509	-0.9639220477	-1.2112006449	 0.119527
H	-3.3703875027	-2.4973150539	 0.9035711291	 0.093356
H	-2.4635268818	-3.3969903911	-0.3142867169	 0.100629
H	-2.796504244	-4.6623937238	 1.5911330535	 0.290617
H	 0.069864196	-2.7407241273	 2.1679912846	 0.114389
H	 1.3728421888	-0.3727421963	 1.8275761135	 0.088243
72.7683	138.9069	177.9688	181.5649	225.1063	264.7514	305.0913	388.3773	401.2463	447.1184	540.1824	605.6345	694.3124	726.8903	828.5717	851.5942	882.8965	912.187	942.6055	971.7184	1008.31	1023.2736	1073.2959	1087.1805	1104.8523	1165.7439	1193.9708	1209.6759	1233.1335	1253.2324	1273.5482	1308.1618	1337.1406	1407.1209	1440.9506	1462.1164	1467.282	1485.3488	1495.2487	1504.8386	1701.8633	2935.1861	2948.8863	3015.3976	3032.3074	3054.1734	3092.8158	3122.6575	3154.8184	3236.6263	3840.5929
CC12CC(CO)=CC1O2	C[C@]12CC(=C[C@H]1O2)CO	
InChI=1S/C7H10O2/c1-7-3-5(4-8)2-6(7)9-7/h2,6,8H,3-4H2,1H3	InChI=1S/C7H10O2/c1-7-3-5(4-8)2-6(7)9-7/h2,6,8H,3-4H2,1H3/t6-,7+/m1/s1
