14
gdb 45941	2.31264	2.0181	1.16837	2.5131	64.3	-0.2626	-0.0665	0.1961	986.3012	0.100316	-473.821199	-473.81365	-473.812706	-473.85372	27.628	
N	-0.0804126407	 1.2972951768	 0.0199361374	-0.529095
C	-0.0393738979	 0.0411430447	 0.0758621543	 0.346535
O	 1.1015420905	-0.7113970979	 0.1978422824	-0.252133
C	 0.8313929618	-2.1196197786	 0.2052460779	-0.213712
C	-0.6828651377	-2.2729886767	 0.0815384535	 0.327712
O	-1.2998864289	-3.3013939059	 0.0271630919	-0.295318
C	-1.2216447944	-0.8703998476	 0.0444086705	 0.228164
C	-2.5476961349	-0.5118290534	 0.593708236	-0.215001
O	-2.3302221853	-0.5822343839	-0.8012451265	-0.24037
H	 0.856645384	 1.7011928628	 0.053246498	 0.233405
H	 1.3423276968	-2.600140589	-0.635911794	 0.158287
H	 1.199013295	-2.561597174	 1.137539626	 0.154691
H	-3.1603975476	-1.3066452522	 1.015519523	 0.143129
H	-2.6589411007	 0.490206725	 1.0027121196	 0.153705
64.9254	143.4866	227.051	240.6925	265.0595	335.0585	523.5032	566.8024	580.7619	632.134	685.2072	699.0108	856.9867	881.4217	901.3069	932.623	989.0991	1018.8883	1070.1392	1112.0629	1138.3893	1167.0984	1200.9096	1202.4675	1263.3609	1354.8877	1424.9243	1480.5443	1498.9011	1789.9981	1870.1984	3046.2972	3091.8564	3092.2471	3199.9516	3485.234
N=C1OCC(=O)C11CO1	[NH][C]1OCC(=O)[C@]21CO2	
InChI=1S/C5H5NO3/c6-4-5(2-9-5)3(7)1-8-4/h6H,1-2H2	InChI=1S/C5H5NO3/c6-4-5(2-9-5)3(7)1-8-4/h6H,1-2H2/t5-/m0/s1
