19
gdb 54313	2.58834	1.4389	1.0468	2.532	75.44	-0.242	0.0263	0.2683	1160.2819	0.159904	-419.200081	-419.191154	-419.19021	-419.233964	33.925	
N	 0.7536431931	 0.2335046491	-0.842024948	-0.548893
C	-0.4147437016	 0.5931624555	-0.2327961696	 0.37011
O	-0.6848596737	 1.7549772792	 0.0169472968	-0.378874
C	-1.3616396608	-0.5411337136	 0.0948837191	 0.229087
C	-2.0814863496	-0.3575665559	 1.4226027553	-0.30992
C	-2.8235219198	-0.127309357	 0.1457345033	-0.283906
C	-1.0095587806	-1.9084834565	-0.4271329504	-0.125654
C	-0.1203737584	-2.8312259151	 0.3389764089	-0.249462
N	-1.5451137761	-3.1454653109	 0.1494496941	-0.32431
H	 1.4409997778	 0.9582254043	-0.9720663976	 0.259743
H	 1.0560939944	-0.724803862	-0.8670814023	 0.264674
H	-2.3151488857	-1.235931125	 2.0156084686	 0.107084
H	-1.7890789383	 0.5143687042	 1.995018523	 0.142963
H	-3.0397362606	 0.8974316182	-0.1295128864	 0.145413
H	-3.5473556502	-0.8714513593	-0.1676348256	 0.121378
H	-0.9592056306	-1.9543079185	-1.5144451868	 0.107471
H	 0.5681968491	-3.4965174507	-0.175386531	 0.120919
H	 0.2089636578	-2.50085959	 1.3210428434	 0.118637
H	-2.0552757363	-2.9507220059	 1.0069880952	 0.23354
56.9159	83.6773	182.6076	229.1361	266.8234	300.3856	318.7149	389.8805	416.4804	490.6376	567.7352	601.2588	663.5767	770.587	784.5479	812.3057	856.7631	902.2076	914.9158	956.4041	964.8612	991.8699	1035.5624	1067.0655	1094.6897	1099.364	1111.3262	1165.7419	1182.9392	1203.5881	1219.5986	1251.9733	1290.3712	1330.5574	1378.5447	1416.9251	1449.5627	1485.2245	1505.9396	1610.1632	1780.5388	3103.3234	3109.872	3133.2543	3143.2177	3190.2186	3226.0585	3244.4468	3506.9451	3598.3012	3732.0413
NC(=O)C1(CC1)C1CN1	NC(=O)C1(CC1)[C@H]1CN1	
InChI=1S/C6H10N2O/c7-5(9)6(1-2-6)4-3-8-4/h4,8H,1-3H2,(H2,7,9)	InChI=1S/C6H10N2O/c7-5(9)6(1-2-6)4-3-8-4/h4,8H,1-3H2,(H2,7,9)/t4-/m1/s1
