17
gdb 83030	2.65983	1.5229	1.23625	3.5296	74.3	-0.2468	-0.0736	0.1732	1054.3186	0.136204	-417.998861	-417.990836	-417.989892	-418.031654	29.738	
C	 0.1956402782	 1.7140784253	 0.010175517	-0.428907
C	 0.0849011463	 0.208769361	-0.0084526121	 0.000348
C	 0.6084606321	-0.658554782	-1.0961486	-0.063155
C	 1.67189003	-0.1189784156	-2.0552892298	-0.202736
N	 2.8246564129	 0.2211457752	-1.2044325763	-0.235129
C	 2.5029227164	-0.081909991	-0.0033783143	 0.227225
C	 3.4451870577	 0.2025592075	 1.1171920318	 0.115975
O	 3.1728567064	 0.0548349021	 2.2807313311	-0.240622
N	 1.2488300851	-0.6984146656	 0.2491028668	-0.161704
H	 1.0814944496	 2.0853662837	-0.5095564177	 0.138949
H	-0.6859419145	 2.1471441208	-0.4742056103	 0.130299
H	 0.2249107405	 2.0828789292	 1.040382392	 0.142714
H	-0.7986888094	-0.1646050731	 0.504375031	 0.108799
H	 0.0519193125	-1.5457932875	-1.3814325607	 0.105473
H	 1.9733717457	-0.8764793127	-2.7876233954	 0.132127
H	 1.3667075833	 0.7670497784	-2.6250370629	 0.127515
H	 4.4228920271	 0.5896208844	 0.7672703397	 0.102829
74.213	158.612	192.3259	207.9746	228.3874	302.6485	392.918	488.8074	504.1814	640.7397	707.5344	736.3845	781.7888	806.8566	880.0858	949.4187	973.2527	983.4293	991.0739	1040.7194	1081.0518	1090.032	1136.9566	1165.8671	1203.2042	1241.3642	1307.6227	1347.2797	1366.0116	1393.5429	1412.7574	1426.5434	1481.2201	1495.2148	1503.3454	1661.3588	1817.8408	2944.2553	3035.8589	3042.3442	3065.9229	3103.2931	3122.6846	3139.8702	3159.9053
CC1C2CN=C(C=O)N12	C[C@H]1[C@H]2CN=C(C=O)N12	
InChI=1S/C6H8N2O/c1-4-5-2-7-6(3-9)8(4)5/h3-5H,2H2,1H3	InChI=1S/C6H8N2O/c1-4-5-2-7-6(3-9)8(4)5/h3-5H,2H2,1H3/t4-,5+,8?/m0/s1
