14
gdb 44714	3.4229	1.38322	1.16073	5.5924	62.09	-0.2633	-0.0025	0.2609	1017.4028	0.102287	-473.882378	-473.875333	-473.874389	-473.914466	26.335	
O	-0.0781755486	-0.0223731747	-0.2358639064	-0.336994
C	-0.0430865184	 1.1672043312	-0.111709178	 0.416226
N	-1.0107899295	 2.1484625451	-0.1066440318	-0.33128
C	-0.1123187364	 3.2897552974	 0.0864562645	-0.001831
C	-0.0834915827	 3.9128168751	 1.4756052298	-0.37928
C	 0.9747847822	 3.1198310176	 2.2505457519	 0.42441
O	 1.2560546997	 3.2055455266	 3.4053684947	-0.311503
O	 1.628201749	 2.2604879867	 1.4039729569	-0.210423
C	 1.05997858	 2.2551499537	 0.1068292804	-0.062884
H	-2.014405635	 2.0962477572	-0.207357845	 0.260145
H	-0.1241646015	 4.0094299852	-0.7340142486	 0.105717
H	 0.2249040812	 4.9623986422	 1.4548604597	 0.150839
H	-1.0373186312	 3.8589943572	 2.0040600116	 0.151058
H	 1.8473076212	 2.3166638296	-0.6438551997	 0.125799
85.8981	95.2016	236.0963	358.8653	405.7964	473.2991	507.2641	552.2805	647.8014	654.1941	750.468	804.5601	833.7267	865.4278	888.6889	958.8652	1021.2246	1055.8048	1108.0766	1131.7372	1163.2713	1172.5604	1187.6718	1266.9919	1289.5444	1350.1807	1366.0848	1380.9156	1449.9584	1895.8614	1914.3016	3072.2905	3093.7976	3126.0552	3128.8676	3605.3578
O=C1NC2CC(=O)OC12	O=C1N[C@H]2CC(=O)O[C@@H]12	
InChI=1S/C5H5NO3/c7-3-1-2-4(9-3)5(8)6-2/h2,4H,1H2,(H,6,8)	InChI=1S/C5H5NO3/c7-3-1-2-4(9-3)5(8)6-2/h2,4H,1H2,(H,6,8)/t2-,4+/m0/s1
