19
gdb 96666	3.02419	0.89975	0.80435	4.587	80.43	-0.2628	0.0107	0.2734	1502.9039	0.15596	-419.229751	-419.218934	-419.21799	-419.267004	36.76	
C	-0.0892997715	 1.4609891355	-0.0107469751	-0.331894
N	 0.0029896378	 0.0166281574	-0.0101213917	-0.286502
C	 0.6070200436	-0.5981238254	 0.9131137623	 0.418358
C	 1.3371726039	-0.0555078455	 2.1182161979	-0.489428
O	 0.6616733572	-1.9619604009	 0.9176985111	-0.263367
C	-0.0256940725	-2.6403755262	-0.1431505629	-0.009943
C	 0.8888577397	-2.8447026763	-1.3529352407	-0.404624
C	-0.4901746302	-3.9192821796	 0.4124268128	 0.284135
N	-0.8697929876	-4.934684093	 0.8107132215	-0.318777
H	 0.4341126406	 1.9623062084	 0.813960191	 0.107062
H	 0.3102229793	 1.8495851973	-0.9544675027	 0.130529
H	-1.1441244581	 1.7568990318	 0.0296924841	 0.132945
H	 0.6333009465	 0.4149922029	 2.8115881368	 0.152256
H	 1.8496565727	-0.8643274572	 2.6382895507	 0.151931
H	 2.0690314279	 0.7006931602	 1.8232219037	 0.147559
H	-0.8932764572	-2.040815089	-0.4354983881	 0.152736
H	 1.1602870021	-1.8678572235	-1.7564679579	 0.146803
H	 1.791617032	-3.3861646915	-1.0609033139	 0.140929
H	 0.3690061537	-3.4167522451	-2.1260352288	 0.139292
43.5834	51.9398	86.1424	97.8414	147.7095	186.807	231.0901	258.5538	277.039	329.4519	385.4433	432.7692	559.9481	568.3014	584.9388	627.9798	819.0492	840.957	930.147	1010.5898	1053.8429	1059.8488	1105.0182	1134.2672	1136.5899	1141.4686	1158.377	1274.6416	1332.7827	1361.5328	1399.7748	1401.6635	1449.9582	1477.78	1478.7949	1484.8932	1495.8043	1498.6878	1507.2156	1764.4385	2366.6713	3007.022	3055.2708	3056.9118	3070.8803	3073.5838	3076.1612	3118.32	3135.2455	3151.5928	3159.4228
CN=C(C)OC(C)C#N	CN=C(C)O[C@@H](C)C#N	
InChI=1S/C6H10N2O/c1-5(4-7)9-6(2)8-3/h5H,1-3H3	InChI=1S/C6H10N2O/c1-5(4-7)9-6(2)8-3/h5H,1-3H3/t5-/m0/s1
