21
gdb 109978	2.13281	1.24541	0.90014	4.4875	84.72	-0.2376	0.0185	0.2561	1372.3957	0.181724	-383.271753	-383.261947	-383.261003	-383.306798	35.742	
C	 1.0142887307	 0.137889304	 1.1611121845	-0.389998
C	-0.0263262845	 0.0287545874	 0.049300711	-0.133419
N	 0.5681569462	-0.2383136161	-1.2507996734	-0.077761
C	 1.3039113556	 0.8287918462	-1.9809399188	 0.075402
C	 2.8186363105	 0.8026231066	-1.8696475264	-0.404959
C	 0.6589263157	 0.3223201044	-3.2964460063	-0.274407
C	-0.3587033636	-0.4127451181	-2.3832734829	-0.110804
C	-0.7186820851	-1.7960408461	-2.6959832805	 0.291824
N	-1.0044678249	-2.8862429648	-2.9523544796	-0.327725
H	 1.6329970133	-0.7628481933	 1.1988944638	 0.131926
H	 1.6725046452	 0.9993338747	 1.0128708992	 0.12099
H	 0.5202721748	 0.2638185923	 2.129162506	 0.119277
H	-0.7079486159	-0.8024878107	 0.2669018272	 0.116634
H	-0.6444029452	 0.9483138295	 0.0247473588	 0.077032
H	 0.9184763126	 1.8304732837	-1.7227526737	 0.063868
H	 3.1987107995	-0.1973169258	-2.0981357298	 0.127796
H	 3.2621037817	 1.5153309011	-2.5739446965	 0.118026
H	 3.1547763759	 1.0734907313	-0.8644718177	 0.123845
H	 0.2464509229	 1.0627400811	-3.980562989	 0.119836
H	 1.3035254747	-0.3697193121	-3.8402542055	 0.13006
H	-1.2886231303	 0.1701481949	-2.2761345003	 0.102558
63.3726	79.3209	138.7644	162.6113	212.2239	236.4578	266.3721	316.4747	324.8954	398.3417	459.6737	522.6481	577.0171	623.0511	763.823	808.6121	827.9847	912.8607	927.8895	959.7968	1011.0695	1048.2718	1076.5976	1091.1899	1130.3192	1136.8412	1165.5276	1214.2896	1219.8714	1246.0407	1260.8321	1298.3049	1330.9514	1356.3755	1384.87	1404.331	1409.9707	1424.1104	1482.4165	1487.1673	1489.7767	1495.1289	1498.242	1512.6329	2356.0665	2906.2384	2948.3668	2962.8984	3036.2462	3043.8417	3047.6275	3092.4861	3105.2904	3112.6084	3119.3473	3123.5659	3155.6795
CCN1C(C)CC1C#N	CCN1[C@@H](C)C[C@H]1C#N	
InChI=1S/C7H12N2/c1-3-9-6(2)4-7(9)5-8/h6-7H,3-4H2,1-2H3	InChI=1S/C7H12N2/c1-3-9-6(2)4-7(9)5-8/h6-7H,3-4H2,1-2H3/t6-,7-/m0/s1
