16
gdb 35642	2.47597	1.52319	1.28795	1.8256	77.17	-0.2477	-0.0046	0.2431	1044.7877	0.123893	-400.701438	-400.69323	-400.692286	-400.735005	30.364	
C	 0.3341627978	-1.2192098871	 0.059826754	-0.472752
C	 0.1377365274	-0.0341095395	 0.0365306642	 0.337911
C	-0.096002799	 1.4138051392	-0.0027852396	-0.112007
O	-0.9648649231	 1.8124068974	 1.0696333251	-0.227232
C	-0.5631642992	 1.7805253563	 2.3738961559	 0.133788
N	 0.5333383371	 2.004919833	 2.9434261006	-0.252681
C	 1.7752040672	 2.4413822712	 2.3538182038	-0.202858
C	 1.9802248937	 2.5796156954	 0.871244227	-0.050382
C	 1.209777334	 2.162431599	-0.1256570415	-0.082338
H	 0.5078667589	-2.2667687082	 0.0858011829	 0.205486
H	-0.6995047442	 1.6366190129	-0.8899925896	 0.13048
H	-1.4337259825	 1.5500676338	 2.9891180228	 0.12142
H	 2.0025004006	 3.4133557875	 2.817960684	 0.132318
H	 2.5700129064	 1.7817715895	 2.737219302	 0.134374
H	 2.9162034641	 3.0744064381	 0.6138203171	 0.098437
H	 1.5364953309	 2.3113675015	-1.1509971187	 0.106036
39.6532	86.9438	165.9194	233.8136	314.9236	368.3002	424.8826	462.8238	541.0941	569.5194	620.9176	678.9015	705.9995	741.7199	811.055	878.5126	926.6333	946.5348	966.9674	993.9665	1008.7193	1017.7394	1083.9	1137.6957	1247.3737	1289.2516	1315.6148	1378.7071	1388.3755	1412.9434	1437.1313	1450.2775	1752.8705	1785.3852	2233.6691	2987.2491	3000.	3044.912	3129.4356	3130.4801	3169.6486	3502.4837
C#CC1OC=NCC=C1	C#C[C@H]1OC=NCC=C1	
InChI=1S/C7H7NO/c1-2-7-4-3-5-8-6-9-7/h1,3-4,6-7H,5H2	InChI=1S/C7H7NO/c1-2-7-4-3-5-8-6-9-7/h1,3-4,6-7H,5H2/t7-/m1/s1
