20
gdb 68980	3.26794	1.09145	0.95464	1.9686	85.7	-0.2209	0.0484	0.2692	1306.9841	0.169335	-365.942821	-365.933532	-365.932588	-365.976977	35.348	
C	-0.1674515523	 1.4918466072	 0.1993791908	-0.505885
C	 0.1267658171	 0.0329271032	 0.0360206286	 0.273993
C	 0.5702403379	-0.6839406348	-1.2493360765	-0.255306
C	 1.3623019321	-1.7095201943	-0.3657143849	-0.25802
C	 0.8807109891	-0.948183039	 0.8753842191	 0.313244
C	 1.6172294684	-0.7827553965	 2.1810272586	-0.49055
C	 1.6098806855	-1.9904426737	 3.0051736097	 0.317337
C	 1.6003059842	-2.9921967713	 3.6685023998	-0.448006
N	-0.6030737841	-1.0048676108	 0.817334402	-0.39993
H	 0.6107655891	 2.1070553427	-0.2652642794	 0.123484
H	-1.1229955263	 1.7543595989	-0.2704963806	 0.131014
H	-0.2315645594	 1.77167075	 1.2569775425	 0.114834
H	-0.2420353005	-1.088268774	-1.8582241614	 0.105035
H	 1.2281882005	-0.0737450586	-1.8732804163	 0.096571
H	 1.0462888105	-2.7533128505	-0.4210202062	 0.110857
H	 2.4428838397	-1.6441878378	-0.5159990941	 0.097473
H	 2.6564711576	-0.4921857365	 1.9755789691	 0.133649
H	 1.1756577409	 0.0491044301	 2.7469412513	 0.125195
H	 1.5891063527	-3.8762004146	 4.256389597	 0.197201
H	-0.9496767326	-0.5491276897	 1.663204771	 0.217808
50.2655	99.1184	187.9384	198.7089	212.7269	309.3168	330.4509	347.4314	399.2897	478.6149	507.6526	605.4388	622.876	640.3996	689.7747	766.0409	781.8311	875.3415	894.7143	928.8514	941.6972	955.4394	994.9431	1053.9141	1068.1186	1096.3579	1131.1657	1160.9259	1207.6417	1227.7717	1231.7261	1241.4437	1322.3341	1340.351	1361.7634	1410.9874	1450.0931	1456.9849	1466.5878	1481.3818	1495.9013	1506.8742	2239.998	3006.3318	3020.4885	3038.2897	3058.1869	3067.3628	3081.3202	3091.9787	3110.3439	3128.0374	3448.5803	3507.3248
CC12CCC1(CC#C)N2	C[C@@]12CC[C@]1(CC#C)N2	
InChI=1S/C8H11N/c1-3-4-8-6-5-7(8,2)9-8/h1,9H,4-6H2,2H3	InChI=1S/C8H11N/c1-3-4-8-6-5-7(8,2)9-8/h1,9H,4-6H2,2H3/t7-,8+/m1/s1
