17
gdb 107224	3.97284	1.24232	1.12019	2.6241	66.53	-0.2586	0.0523	0.3109	1092.849	0.135802	-458.919081	-458.911452	-458.910508	-458.951473	29.491	
O	 0.0527455903	 1.3517818442	-0.3492082036	-0.415532
C	 0.0628651459	 0.0226700584	 0.1462244329	-0.145762
C	-1.3302870052	-0.5430360646	 0.2323134369	 0.364573
C	-2.3593442592	 0.0503365324	 1.2000155479	-0.311739
C	-3.3566224534	-1.0731464137	 1.4700489696	 0.033209
O	-4.0960442041	-1.5197115311	 0.3324936854	-0.230607
C	-2.9542730567	-2.2801133815	 0.7239782553	 0.007412
C	-1.6963660308	-1.9439866439	-0.0606515975	-0.067534
O	-1.8862150654	-0.9230841341	-1.0413310365	-0.279415
H	-0.3530221136	 1.3199299329	-1.2231868492	 0.295014
H	 0.6791971241	-0.6400901528	-0.4791574563	 0.095681
H	 0.5185947794	 0.0726968779	 1.1409272276	 0.1104
H	-1.8650849123	 0.3397343651	 2.1341715755	 0.111053
H	-2.8400156427	 0.9417669197	 0.7880955274	 0.135411
H	-3.8969865951	-1.1061202361	 2.4135363424	 0.100407
H	-3.1395810565	-3.2980980218	 1.0541928331	 0.100282
H	-0.9781653045	-2.721437471	-0.307636161	 0.097145
66.9057	134.8227	239.5487	301.6218	350.0425	365.3781	418.9073	435.7955	615.6964	690.5812	714.1668	734.0196	830.1975	846.5577	865.074	900.5916	944.502	960.5251	977.0662	1022.3381	1040.1136	1058.2774	1088.7097	1108.7573	1174.4193	1209.4381	1236.6594	1259.5463	1275.0802	1314.8869	1335.0597	1372.6496	1415.8517	1427.7812	1447.2602	1463.2834	1488.9356	2996.7901	3053.6321	3075.4288	3105.1238	3136.2839	3147.2588	3163.9462	3800.7931
OCC12CC3OC3C1O2	OC[C@]12C[C@H]3O[C@H]3[C@H]1O2	
InChI=1S/C6H8O3/c7-2-6-1-3-4(8-3)5(6)9-6/h3-5,7H,1-2H2	InChI=1S/C6H8O3/c7-2-6-1-3-4(8-3)5(6)9-6/h3-5,7H,1-2H2/t3-,4-,5-,6-/m1/s1
