18
gdb 95101	2.46727	1.57317	1.18462	3.2608	76.67	-0.2737	0.025	0.2987	1082.1663	0.148652	-401.965443	-401.957352	-401.956408	-401.99791	31.017	
C	 0.0431072178	 1.5659345852	-0.0611293435	-0.411216
C	 0.0498056646	 0.050621064	 0.0291345043	 0.066139
O	 0.767850246	-0.4823268132	-1.0802666104	-0.266692
C	 1.1937145015	-1.8001871614	-0.753640095	-0.099971
C	 1.5235933019	-1.7589418791	 0.7293421822	-0.109483
C	 2.2789913439	-0.5536125937	 1.20075914	-0.323176
C	 0.7589880695	-0.5507521841	 1.2550070543	 0.185213
C	 0.0761622112	-0.5566104789	 2.5123431801	 0.200999
N	-0.4920051122	-0.5439144952	 3.5206522803	-0.3468
H	 1.0608612935	 1.9636655244	-0.0221228854	 0.125411
H	-0.4170931353	 1.882995339	-1.0005406915	 0.13381
H	-0.5321337112	 1.9900814914	 0.7668317331	 0.136437
H	-0.9862619854	-0.3265415203	 0.0280928337	 0.085329
H	 0.3985016015	-2.538161321	-0.9424633104	 0.105939
H	 2.0491009078	-2.0361607422	-1.3940151893	 0.120407
H	 1.5621870052	-2.680252646	 1.2969281279	 0.118558
H	 2.7982864583	-0.6243328987	 2.1485373612	 0.139729
H	 2.7428274815	 0.0885406597	 0.4598306485	 0.139367
117.7864	149.7856	191.8516	221.0864	264.2964	334.3227	376.5961	488.8105	505.8114	554.2576	594.425	656.8938	716.696	833.7217	869.949	893.609	917.1467	947.5974	1004.0652	1056.6075	1075.1285	1090.7307	1092.1309	1120.6443	1123.4333	1152.507	1233.5182	1253.5514	1261.7202	1334.0373	1367.8204	1386.3109	1405.2753	1414.9948	1476.2346	1486.3094	1495.7253	1514.4513	2349.4045	2968.0675	2987.6694	3048.7783	3081.4098	3125.4948	3127.3575	3143.6851	3199.6288	3239.2052
CC1OCC2CC12C#N	C[C@H]1OC[C@H]2C[C@@]12C#N	
InChI=1S/C7H9NO/c1-5-7(4-8)2-6(7)3-9-5/h5-6H,2-3H2,1H3	InChI=1S/C7H9NO/c1-5-7(4-8)2-6(7)3-9-5/h5-6H,2-3H2,1H3/t5-,6-,7-/m1/s1
