16
gdb 29983	3.32005	1.73604	1.14844	1.5905	78.28	-0.1837	0.0234	0.2071	1014.7652	0.127901	-396.97698	-396.969535	-396.968591	-397.009172	28.144	
C	-0.0017848667	 1.4347131823	 0.0544070955	-0.343939
N	-0.0484080326	-0.0100552623	 0.0151527916	-0.126731
C	-0.0487768076	-0.8083380076	-1.1166321633	-0.078541
C	 0.0011734567	-2.1508273759	-0.7796959545	-0.344539
C	 0.0418035994	-2.1638319582	 0.6383880921	 0.311868
C	 0.0169735181	-0.8547124254	 1.0939094906	 0.345952
N	 0.0464621936	-0.7471552027	 2.4535507505	-0.37182
C	 0.0877625683	-2.0080617215	 2.8441115136	-0.007391
N	 0.0858417619	-2.9107427186	 1.8008647019	-0.406565
H	 1.027877413	 1.8105137727	 0.0891510602	 0.135393
H	-0.4952983288	 1.8413611205	-0.8314865793	 0.133145
H	-0.5278040483	 1.787907738	 0.9442419541	 0.156431
H	-0.0881579517	-0.3508511996	-2.0930628181	 0.114515
H	-0.0061373383	-2.9741477287	-1.4756811746	 0.095708
H	 0.1218374973	-2.3381467053	 3.8715384184	 0.124271
H	 0.1145410856	-3.9109563279	 1.8917708312	 0.262242
65.0835	140.4784	220.5918	250.5795	349.5195	426.4509	534.5747	582.2578	621.815	639.6176	685.2329	709.0509	754.5601	761.9447	788.2525	816.0291	956.6255	1030.9981	1086.3103	1104.3098	1123.4572	1152.71	1238.2212	1262.6423	1295.9748	1367.4056	1383.7931	1450.2929	1458.2916	1484.1284	1494.6921	1516.3131	1523.5008	1555.1169	1605.6947	3026.8021	3097.473	3134.5085	3246.8084	3252.5438	3264.513	3683.0413
CN1C=CC2=C1N=CN2	Cn1ccc2c1nc[nH]2	
InChI=1S/C6H7N3/c1-9-3-2-5-6(9)8-4-7-5/h2-4H,1H3,(H,7,8)	InChI=1S/C6H7N3/c1-9-3-2-5-6(9)8-4-7-5/h2-4H,1H3,(H,7,8)
