13
gdb 128955	7.73021	0.81624	0.7417	6.7249	64.57	-0.2591	-0.006	0.2531	1394.3434	0.091208	-448.94621	-448.938627	-448.937683	-448.979445	26.377	
N	-0.0191500446	-1.078814115	-0.0042716466	-0.286892
C	 0.0200546438	 0.0746107674	 0.0024710248	 0.279622
C	 0.007967859	 1.5372678781	 0.0117530208	-0.20545
O	 1.3548342331	 1.9961561101	-0.0010526326	-0.242219
C	 1.4839697361	 3.3299168608	 0.0055874528	 0.465127
N	 0.4581016542	 4.1669715245	 0.0227013726	-0.306856
N	 1.1040714822	 5.3677652252	 0.0224894979	-0.202058
C	 2.4349027425	 5.1796402205	 0.0058206646	 0.038914
N	 2.7186664845	 3.8907146183	-0.0054045643	-0.32416
H	-0.5376375808	 1.9107580721	-0.8631384619	 0.168522
H	-0.5170778951	 1.8997123437	 0.903705224	 0.168519
H	 0.572180585	 6.2219375941	 0.0338933187	 0.28757
H	 3.14897399	 5.9892912203	 0.0024444291	 0.159362
45.8594	114.1313	121.4643	245.8683	339.7063	387.5107	450.2078	489.5715	547.3738	668.1466	771.8277	793.6413	867.292	964.1291	993.5593	1008.9709	1021.4033	1093.8517	1109.5742	1186.9401	1251.383	1302.9682	1357.8261	1403.4861	1476.9793	1486.1031	1533.9739	1579.747	2378.5806	3035.9992	3072.1612	3263.3376	3672.1828
N#CCOC1=NNC=N1	N#CCOc1n[nH]cn1	
InChI=1S/C4H4N4O/c5-1-2-9-4-6-3-7-8-4/h3H,2H2,(H,6,7,8)	InChI=1S/C4H4N4O/c5-1-2-9-4-6-3-7-8-4/h3H,2H2,(H,6,7,8)
