16
gdb 17037	3.83537	1.69998	1.38047	1.1807	65.55	-0.2426	-0.0385	0.2041	911.907	0.128927	-383.672785	-383.665413	-383.664468	-383.704562	27.357	
C	-0.1753660549	 1.5034054326	 0.2149506903	-0.433331
C	-0.0434103473	-0.0008078428	 0.0741342478	 0.02885
C	 1.1848844097	-0.5738267304	-0.6847250596	 0.014922
O	 2.0612992549	-0.1453609596	 0.4194479912	-0.308784
C	 0.8761296862	-0.773772996	 1.0657170793	 0.027743
C	 1.0155535558	-1.9465935698	 0.0649419778	-0.071777
C	-0.0989190344	-2.9007076158	-0.2566016735	 0.119792
O	-1.2058452367	-2.8790269835	 0.2240752133	-0.249068
H	 0.791328342	 1.959016219	 0.4372717122	 0.138747
H	-0.5667994308	 1.9448848266	-0.707878642	 0.117327
H	-0.8753239307	 1.7544447725	 1.0188061354	 0.120989
H	-0.9959771164	-0.4902793528	-0.1335962037	 0.104503
H	 1.533825795	-0.4016398505	-1.7038939116	 0.100172
H	 0.8565676426	-0.8094681056	 2.154847402	 0.103227
H	 1.9730875297	-2.4704857427	 0.1328714704	 0.103518
H	 0.1790111253	-3.677921271	-1.0055176294	 0.083169
84.8826	168.9847	212.3479	230.3253	289.4456	322.9419	453.9763	622.3465	704.0251	738.0744	768.7511	793.7355	839.2122	879.7201	924.6441	1001.6273	1013.4679	1043.286	1059.6811	1099.3172	1127.4877	1144.7926	1153.5218	1188.6258	1213.8761	1243.3058	1270.871	1365.6057	1398.7478	1421.2171	1428.7308	1494.4774	1505.1994	1815.1406	2865.5026	3039.1145	3083.9673	3096.0936	3108.0845	3112.5956	3125.4016	3139.4445
CC1C2OC1C2C=O	C[C@H]1[C@H]2O[C@@H]1[C@H]2C=O	
InChI=1S/C6H8O2/c1-3-5-4(2-7)6(3)8-5/h2-6H,1H3	InChI=1S/C6H8O2/c1-3-5-4(2-7)6(3)8-5/h2-6H,1H3/t3-,4-,5+,6-
