23
gdb 93840	2.31784	1.33893	1.01924	0.3059	81.29	-0.2388	0.0691	0.3079	1283.4923	0.206017	-425.441213	-425.431643	-425.430699	-425.474878	37.21	
C	-0.1182286076	 1.5572671252	 0.0228737144	-0.405535
C	-0.0165398722	 0.0301301022	 0.0226376995	 0.011395
C	 0.7103117712	-0.4797875131	-1.2280234569	-0.074366
O	 0.8505967685	-1.8922399121	-1.2409240096	-0.26622
C	 1.5703030323	-2.4291327494	-0.1314430451	 0.088812
C	 3.0660277439	-2.1032940499	-0.1684409386	-0.39848
C	 0.8654053869	-2.0226059319	 1.1833483213	 0.092007
O	 1.579003511	-2.454844404	 2.3352270326	-0.432847
C	 0.6947834007	-0.5086761576	 1.2740886097	-0.205901
H	 0.8758394584	 2.0194983371	 0.0318046762	 0.11492
H	-0.648274782	 1.9228681835	-0.8632368937	 0.112853
H	-0.6572185814	 1.9148490757	 0.9059980785	 0.116412
H	-1.0316206895	-0.3904161963	-0.0004102588	 0.077444
H	 0.1442787109	-0.2351631025	-2.132471141	 0.10355
H	 1.6911287327	 0.0161939865	-1.3120625973	 0.08507
H	 1.461902283	-3.5153390361	-0.2517578777	 0.068704
H	 3.2693490459	-1.0351323097	-0.057289379	 0.118785
H	 3.5775435429	-2.6173103715	 0.6486491845	 0.120737
H	 3.4911801431	-2.4349837773	-1.1196594186	 0.118372
H	-0.137665518	-2.4780524533	 1.1610935961	 0.068669
H	 1.5758493086	-3.4175499701	 2.3455518915	 0.28258
H	 1.6808661179	-0.0380838251	 1.3793668675	 0.102777
H	 0.1326070327	-0.2626575205	 2.1815182645	 0.10026
104.7159	152.3986	201.6398	225.4248	257.5032	262.8694	276.801	301.0445	376.9484	394.982	426.7221	448.2115	483.4631	562.2057	636.7994	800.3562	856.4406	865.731	909.898	958.7384	967.402	990.6724	1029.4635	1057.1005	1066.437	1119.4389	1131.4394	1143.2057	1171.1063	1180.8362	1216.6025	1267.0369	1303.2837	1317.3843	1334.267	1356.0061	1356.8331	1381.0732	1384.9015	1407.7097	1409.9087	1419.4543	1443.456	1482.4	1486.2855	1497.4075	1500.2964	1508.8826	1510.9177	2968.3886	2973.3758	3009.505	3015.5661	3026.2345	3032.1969	3053.1769	3072.3763	3075.0068	3093.4395	3100.6403	3122.5515	3131.74	3812.8891
CC1COC(C)C(O)C1	C[C@H]1CO[C@@H](C)[C@@H](O)C1	
InChI=1S/C7H14O2/c1-5-3-7(8)6(2)9-4-5/h5-8H,3-4H2,1-2H3	InChI=1S/C7H14O2/c1-5-3-7(8)6(2)9-4-5/h5-8H,3-4H2,1-2H3/t5-,6+,7+/m1/s1
