15
gdb 32049	4.03047	1.2285	0.94715	4.0242	72.57	-0.2299	-0.0389	0.1911	1179.3505	0.115385	-450.177628	-450.169836	-450.168891	-450.210356	28.215	
C	 0.0405483953	 1.3780041185	 0.0063138855	-0.237541
O	-0.0483302607	-0.0571608483	 0.0036885318	-0.256062
C	-1.2669417009	-0.5787642072	 0.0116227973	 0.563029
N	-2.3482042524	 0.1502840599	 0.0215160422	-0.397344
C	-3.5047779286	-0.5889638957	 0.0284509614	 0.063371
N	-3.6459483753	-1.8776327062	 0.0264601741	-0.299605
C	-2.4913963015	-2.6534377189	 0.0159162923	 0.415895
N	-2.4109202246	-3.9233091172	 0.0123238192	-0.560905
N	-1.279544342	-1.9237354183	 0.0084994637	-0.374338
H	 1.1081834515	 1.5949867029	-0.0020736952	 0.143592
H	-0.4469527112	 1.7919577873	-0.8782492506	 0.153778
H	-0.4320555314	 1.7877514848	 0.9008788568	 0.153733
H	-4.41627772	 0.0065702403	 0.0367319793	 0.125248
H	-3.354539572	-4.3072685581	 0.0185390142	 0.228203
H	-0.4153914362	-2.4477065538	 0.000724898	 0.278946
91.4787	135.0138	152.271	221.4694	227.8325	394.9292	433.1177	494.7234	577.9546	646.5587	652.2825	750.0299	787.8527	822.7768	862.4469	917.7973	1003.8861	1021.3961	1054.7055	1092.0343	1180.0159	1196.3269	1273.442	1297.0326	1330.7161	1423.1412	1460.2664	1479.2576	1495.9334	1519.339	1596.7642	1658.7732	1741.0167	3063.4742	3146.4293	3151.0588	3170.2076	3513.1604	3611.0501
COC1=NC=NC(=N)N1	CO[C@@H]1N=CN=C([NH])N1	
InChI=1S/C4H6N4O/c1-9-4-7-2-6-3(5)8-4/h2H,1H3,(H2,5,6,7,8)	InChI=1S/C4H7N4O/c1-9-4-7-2-6-3(5)8-4/h2,4-5H,1H3,(H,6,7,8)/t4-/m1/s1
