21
gdb 60439	4.53987	0.60418	0.55789	2.8441	77.03	-0.2616	0.0232	0.2848	2014.8641	0.178849	-461.406574	-461.39531	-461.394366	-461.445062	38.499	
C	-0.0527276216	 1.5420086199	 0.098090793	-0.403086
C	 0.0178931693	 0.0170008284	 0.021857356	 0.128745
O	 0.7757314633	-0.4108901347	-1.108732062	-0.432839
C	 0.6931684815	-0.5909742376	 1.2503372153	-0.193054
C	 0.7201551991	-2.1106674186	 1.2017710282	-0.064785
O	 1.3601536992	-2.566953261	 2.4099877472	-0.243208
C	 1.4179735889	-3.9041235451	 2.5760729166	 0.42554
C	 2.1240065799	-4.2504277537	 3.8661749307	-0.477755
O	 0.9630268786	-4.6971812483	 1.7909669874	-0.350127
H	 0.9529255009	 1.9670238707	 0.1755100469	 0.12644
H	-0.5290476358	 1.9537442131	-0.7990911235	 0.105568
H	-0.6387237203	 1.8680182186	 0.963560877	 0.117282
H	-1.0089485244	-0.3824354902	-0.0463174006	 0.067193
H	 0.3571316678	-0.0601872772	-1.9009082376	 0.283314
H	 1.7187595393	-0.2099193699	 1.3173863683	 0.112584
H	 0.1629422338	-0.2643869054	 2.1516504816	 0.102804
H	-0.2886350454	-2.534122414	 1.1499787669	 0.114707
H	 1.2764522618	-2.4724944383	 0.3345313449	 0.139747
H	 1.6203601973	-3.7743030488	 4.712021602	 0.14626
H	 2.1317912945	-5.3318794081	 3.9963128004	 0.14619
H	 3.149849072	-3.8713659799	 3.8438896712	 0.148478
31.5198	47.2074	58.9792	97.0433	120.0178	183.896	229.1035	244.6926	262.1711	286.2814	400.6048	413.511	488.1256	497.9815	607.4655	647.8548	788.6581	848.9778	917.2254	953.6633	979.5	982.7229	1053.0621	1064.1945	1077.499	1087.0797	1147.2795	1157.4334	1221.9914	1270.4126	1288.5801	1303.7136	1314.7705	1379.2974	1391.0606	1406.3034	1415.4785	1432.7925	1469.9409	1476.5743	1479.5159	1492.8352	1499.064	1518.7201	1823.7791	2948.4189	3027.8915	3040.0863	3053.2398	3056.2721	3082.6513	3095.0899	3112.827	3120.2574	3120.8901	3167.7896	3821.7485
CC(O)CCOC(C)=O	C[C@@H](O)CCOC(=O)C	
InChI=1S/C6H12O3/c1-5(7)3-4-9-6(2)8/h5,7H,3-4H2,1-2H3	InChI=1S/C6H12O3/c1-5(7)3-4-9-6(2)8/h5,7H,3-4H2,1-2H3/t5-/m1/s1
