19
gdb 28321	4.58036	1.21624	0.9891	3.5031	83.34	-0.2024	0.0441	0.2466	1220.9111	0.162665	-382.134297	-382.126417	-382.125473	-382.166796	29.922	
C	-0.0163855373	 1.4660043507	 0.0402927979	-0.486534
C	 0.0117538399	-0.0267344481	-0.0257120604	 0.272508
C	-0.0460482934	-0.8299818213	-1.1438501331	-0.246056
N	 0.0437110826	-2.1174853525	-0.663934743	 0.021055
C	-0.035389507	-3.4731685747	-1.1762282843	-0.181014
C	 0.4265241067	-4.3024389244	 0.0545699425	-0.21381
C	 0.1538678456	-3.4061398791	 1.2969280653	-0.347602
C	 0.1288153138	-2.0362249025	 0.6903410715	 0.372567
N	 0.1180820882	-0.7968460008	 1.1213591384	-0.40931
H	 0.9022237583	 1.8601052943	 0.4890768706	 0.129375
H	-0.1224847368	 1.9025518582	-0.9568585631	 0.112258
H	-0.8501631949	 1.8173722588	 0.6579413804	 0.129761
H	-0.1205612283	-0.6020238313	-2.1941484763	 0.11932
H	-1.0630356155	-3.7153662663	-1.4758820861	 0.119486
H	 0.6119307612	-3.6156822899	-2.0463966548	 0.121963
H	-0.0804274538	-5.2678601397	 0.1061861988	 0.111717
H	 1.4995966964	-4.4961489575	-0.0274602956	 0.121776
H	-0.8103654488	-3.6448517003	 1.7626517224	 0.123417
H	 0.9189737133	-3.5172810538	 2.068959089	 0.129124
108.3174	114.5699	177.5877	222.2164	266.9658	298.8178	485.035	528.2165	646.8948	658.0165	692.1925	710.2134	738.6919	804.2465	871.4171	903.6641	917.374	987.6635	1008.933	1017.0125	1062.6511	1089.9085	1140.9508	1173.1957	1191.6954	1225.8511	1233.493	1303.5742	1307.0873	1321.5997	1344.3607	1403.1272	1425.3938	1462.3661	1474.9729	1488.3403	1494.7407	1501.2243	1529.5663	1568.3114	1586.0445	3022.0982	3030.9863	3032.175	3064.9592	3081.5015	3084.2983	3096.631	3111.8182	3121.0684	3269.8138
CC1=CN2CCCC2=N1	Cc1cn2CCCc2n1	
InChI=1S/C7H10N2/c1-6-5-9-4-2-3-7(9)8-6/h5H,2-4H2,1H3	InChI=1S/C7H10N2/c1-6-5-9-4-2-3-7(9)8-6/h5H,2-4H2,1H3
