23
gdb 108578	2.35543	1.3717	1.13287	1.494	85.01	-0.2303	0.083	0.3133	1237.6134	0.205739	-388.288357	-388.278851	-388.277907	-388.322581	35.886	
C	-0.5310854321	 1.3647506355	-0.0508626582	-0.372979
C	 0.2807808706	 0.0655214791	 0.0270636804	-0.2829
C	 0.8545332864	-0.3661151589	-1.3067623763	 0.322565
C	-0.1019518539	-0.9010975464	-2.3828997893	-0.31748
C	 0.5409503534	-2.245884418	-2.7796026699	-0.063333
O	 1.9380209414	-2.1233083311	-2.4951011854	-0.262406
C	 2.0868538985	-1.2233869783	-1.4262507753	 0.016889
C	 2.1698587318	 0.242572491	-1.7903698247	-0.081762
C	 2.429986023	 0.6970587236	-3.2082216521	-0.416903
H	 0.0874082927	 2.1919894646	-0.4145537074	 0.118147
H	-1.381322391	 1.2627337527	-0.733758522	 0.11654
H	-0.9255260088	 1.6441962521	 0.9310430136	 0.1106
H	 1.0999042016	 0.1937760351	 0.7456964999	 0.093986
H	-0.3515938143	-0.7389155166	 0.4278027049	 0.092504
H	-1.1082367768	-1.0428891483	-1.9773907274	 0.100885
H	-0.1888260034	-0.2286916783	-3.242034141	 0.106964
H	 0.1102392631	-3.0688844505	-2.1885470465	 0.092472
H	 0.4369644177	-2.4934087937	-3.8401501236	 0.105416
H	 2.6181787217	-1.627601238	-0.5682982613	 0.08694
H	 2.6524291585	 0.8569213625	-1.0314922988	 0.076474
H	 1.894543166	 1.6240913664	-3.4414182203	 0.11146
H	 3.4987671475	 0.8849895777	-3.3563346665	 0.117346
H	 2.1337887165	-0.0653289422	-3.9319109127	 0.128573
85.7742	123.3748	136.4144	148.0306	204.9065	228.4878	267.7585	330.0699	361.4531	446.8552	575.8276	603.0829	660.783	739.8187	785.8689	801.2098	861.8587	875.7709	942.5817	960.9871	970.2195	1010.0208	1021.7703	1029.3512	1067.9049	1085.5175	1107.9402	1125.3621	1146.3556	1155.6395	1206.9091	1237.9255	1255.6618	1269.8193	1299.0498	1331.6566	1344.9311	1362.8777	1388.4904	1409.4709	1413.2015	1444.0742	1480.6316	1487.8459	1498.5758	1499.3481	1501.1698	1507.358	1518.4544	2982.8031	3008.3738	3032.619	3033.5765	3045.1386	3047.924	3078.7642	3088.7452	3092.832	3100.6737	3104.7244	3110.1827	3127.6485	3136.3846
CCC12CCOC1C2C	CC[C@]12CCO[C@H]1[C@H]2C	
InChI=1S/C8H14O/c1-3-8-4-5-9-7(8)6(8)2/h6-7H,3-5H2,1-2H3	InChI=1S/C8H14O/c1-3-8-4-5-9-7(8)6(8)2/h6-7H,3-5H2,1-2H3/t6-,7+,8-/m1/s1
