29
gdb 118466	1.78031	0.9658	0.7634	0.0794	99.72	-0.2907	0.0783	0.369	1764.136	0.273168	-354.774161	-354.76181	-354.760866	-354.811835	45.324	
C	-1.3224055374	 0.2318472394	 2.615680804	-0.378857
C	-0.7171506265	-0.6605673634	 1.5267562387	-0.181302
C	-1.6987516353	-1.7375121854	 1.0452661029	-0.168714
C	-1.1490536661	-2.836135303	 0.1081341674	 0.022302
C	-2.224897816	-3.9345377631	-0.0689261578	-0.183928
C	-1.6895765921	-5.2901408957	-0.5429022274	-0.389799
C	-0.6204103283	-2.3466766015	-1.2758083489	 0.058353
C	-1.5119991857	-1.2844541856	-1.9375826077	-0.396943
C	 0.8483884667	-1.8932755405	-1.2435624918	-0.404622
H	-0.6133439473	 0.9972998707	 2.9466004481	 0.108954
H	-2.220230735	 0.7450789549	 2.252892438	 0.11281
H	-1.61272335	-0.3563571383	 3.4934906768	 0.112292
H	-0.3978518691	-0.0303368823	 0.6897566629	 0.101759
H	 0.1922979738	-1.1408627239	 1.9113242532	 0.092109
H	-2.098220109	-2.2427312849	 1.9353387145	 0.085486
H	-2.5646499437	-1.2512935811	 0.5756561543	 0.091757
H	-0.298992243	-3.3048764265	 0.6271068014	 0.059597
H	-2.7362099496	-4.083446743	 0.8900353588	 0.088054
H	-2.9974322373	-3.5801930786	-0.7646711787	 0.093233
H	-2.4992938457	-6.0223044972	-0.6259610565	 0.11031
H	-1.2060413227	-5.2288222382	-1.5230106402	 0.11814
H	-0.952735318	-5.6891787162	 0.1634791394	 0.112358
H	-0.6437294513	-3.2239661215	-1.9349756358	 0.071527
H	-1.476337525	-0.3284112094	-1.4047456922	 0.116002
H	-1.1816600796	-1.0965046446	-2.964706726	 0.107464
H	-2.5593798824	-1.6003425372	-1.9831062207	 0.112211
H	 1.4931379182	-2.6777596664	-0.8328761758	 0.107504
H	 1.2036793098	-1.6675901484	-2.2552815098	 0.104956
H	 0.9948578574	-0.994705869	-0.6381394112	 0.116987
63.7835	70.8013	101.3768	120.9003	142.9884	206.1429	212.3151	242.1436	251.1758	259.664	282.012	286.0476	342.0162	381.5367	434.5562	479.5852	567.5313	722.5094	746.3499	807.0682	876.9003	887.4544	898.217	923.421	962.2785	966.8346	1002.567	1040.3176	1047.563	1065.4443	1071.7861	1082.6496	1148.6462	1180.4947	1184.3122	1205.4073	1259.0241	1281.8603	1304.2041	1322.8205	1333.4944	1354.7612	1362.6296	1384.1343	1393.0798	1400.9869	1405.1435	1413.4206	1413.5034	1425.114	1475.7596	1485.9813	1489.097	1493.1651	1499.2788	1499.8745	1500.9449	1503.9944	1506.84	1508.939	1514.4628	2982.5705	3004.6065	3015.3367	3017.9777	3021.3008	3027.4966	3029.1565	3031.2184	3034.6228	3035.8417	3048.7889	3064.9467	3090.0762	3094.9252	3095.9996	3096.2831	3099.738	3100.4246	3101.7292	3116.5426
CCCC(CC)C(C)C	CCC[C@@H](CC)C(C)C	
InChI=1S/C9H20/c1-5-7-9(6-2)8(3)4/h8-9H,5-7H2,1-4H3	InChI=1S/C9H20/c1-5-7-9(6-2)8(3)4/h8-9H,5-7H2,1-4H3/t9-/m1/s1
