16
gdb 77175	2.89075	1.25877	1.02702	3.2391	65.1	-0.248	0.001	0.249	1163.9579	0.124206	-475.01014	-475.001781	-475.000837	-475.043805	30.075	
N	 0.3288011958	 1.1344151001	 0.4246424586	-0.517932
C	 0.0280176853	-0.1836767871	-0.0746325782	-0.178618
C	-1.4616758966	-0.5858891795	-0.2487317614	 0.103229
O	-1.2035758103	-0.9477828979	-1.6444142661	-0.260291
C	 0.1035058326	-0.5146201318	-1.5806338373	 0.430707
O	 0.8824299893	-0.4292631618	-2.4732550267	-0.321487
C	-1.9674344666	-1.7383976475	 0.5720186079	 0.043351
C	-2.4502796945	-2.9826890206	-0.0391188566	-0.169442
O	-1.1538832233	-2.9089382626	 0.5650085592	-0.234015
H	 1.3253536517	 1.2354890966	 0.5835027506	 0.249773
H	 0.0637349092	 1.8511307068	-0.2443769685	 0.241358
H	 0.5682728882	-0.9343753882	 0.507778787	 0.141487
H	-2.1497533553	 0.263901871	-0.2022459435	 0.10039
H	-2.3467421852	-1.4502867568	 1.5536644721	 0.108832
H	-3.1780283262	-3.5931197353	 0.4925047635	 0.12104
H	-2.4474615739	-3.0708173453	-1.1221937807	 0.141619
71.5967	86.9522	171.5487	200.6565	235.2329	258.322	337.9458	410.5641	536.9306	625.8574	713.1468	735.9172	806.025	821.8469	888.9373	908.505	940.215	949.5672	1008.49	1074.1523	1091.821	1128.9499	1164.2736	1168.409	1173.2932	1201.3853	1221.8867	1280.1569	1289.36	1376.9098	1421.9881	1433.042	1521.2625	1668.8226	1937.7975	3068.5121	3094.922	3098.2165	3107.522	3198.902	3504.1356	3586.1116
NC1C(OC1=O)C1CO1	N[C@H]1[C@@H](OC1=O)[C@H]1CO1	
InChI=1S/C5H7NO3/c6-3-4(2-1-8-2)9-5(3)7/h2-4H,1,6H2	InChI=1S/C5H7NO3/c6-3-4(2-1-8-2)9-5(3)7/h2-4H,1,6H2/t2-,3+,4+/m1/s1
