14
gdb 20350	5.19542	2.23626	1.57855	2.6845	69.88	-0.2185	-0.0145	0.204	758.6824	0.111033	-341.6124	-341.606829	-341.605885	-341.641875	22.286	
C	-0.0484321747	 1.5303297198	 0.0107474211	-0.417681
C	 1.4437021408	 1.8436993572	-0.0018106816	-0.12591
C	 2.1480164391	 0.7051521856	-0.0147850351	-0.010513
N	 1.2570734143	-0.3790126374	-0.0122163715	 0.053453
N	 1.4255249999	-1.709756129	-0.0211971174	-0.299831
C	 0.1694647721	-2.1672626346	-0.0119251602	 0.013949
C	-0.7971396777	-1.1278365745	 0.0032285872	-0.387502
C	-0.0443543926	 0.0272507135	 0.0024447843	 0.410504
H	-0.5446160091	 1.9460306391	 0.8966326559	 0.142544
H	-0.5614607028	 1.9556859738	-0.8608426295	 0.142545
H	 1.8528169235	 2.8423647726	-0.0002099519	 0.116328
H	 3.2113529276	 0.5232597454	-0.0259306809	 0.144808
H	-0.0060295082	-3.2332997706	-0.0162434569	 0.111913
H	-1.8700490821	-1.226808391	 0.0129565366	 0.105392
181.5644	264.7515	441.3065	453.0578	644.0066	677.1916	678.7426	720.6915	732.3952	791.0457	880.9513	881.2561	914.8472	935.1328	945.4545	959.9533	1046.8595	1080.4999	1144.9083	1168.3975	1201.6663	1254.8173	1305.0559	1339.57	1399.7046	1418.1711	1446.9892	1460.7019	1583.5328	1650.4531	3032.3326	3057.859	3243.531	3250.6478	3273.4067	3276.4061
C1C=CN2N=CC=C12	C1C=Cn2nccc12	
InChI=1S/C6H6N2/c1-2-6-3-4-7-8(6)5-1/h1,3-5H,2H2	InChI=1S/C6H6N2/c1-2-6-3-4-7-8(6)5-1/h1,3-5H,2H2
