14
gdb 28001	2.69656	1.40871	0.92723	3.9191	68.54	-0.2029	-0.038	0.1649	1157.561	0.102098	-470.06149	-470.053499	-470.052554	-470.093943	29.791	
N	-0.0171215122	 1.3171269169	 0.1197275085	-0.592117
C	-0.0239606538	-0.0604620076	-0.0020285542	 0.42915
N	-1.0898626886	-0.8130406185	-0.0071469525	-0.410403
C	-0.6136977248	-2.1151933235	-0.0642328376	 0.356898
O	-1.4772506299	-3.1447197531	-0.0834974988	-0.427577
C	 0.740804495	-2.1667823583	-0.1096007255	-0.236201
N	 1.1413649991	-0.8129569563	-0.0513626914	-0.090853
C	 2.4445307549	-0.3510108343	 0.0523484917	 0.167025
O	 3.413616091	-1.0642497795	 0.010946489	-0.292342
H	 0.563902025	 1.8077274682	-0.5471350998	 0.263032
H	-0.9635521061	 1.6745913071	 0.1064854858	 0.270736
H	-2.3625480038	-2.7625946512	-0.0489722339	 0.304721
H	 1.4609723366	-2.9598202199	-0.169021543	 0.157496
H	 2.4898873976	 0.7430382101	 0.1871714216	 0.100435
118.9506	185.7805	222.4873	235.8724	272.2608	321.5428	377.6438	417.0836	448.2267	575.7353	628.5337	648.7783	686.6369	710.5184	721.9677	769.8756	900.0219	1015.991	1020.6287	1135.0544	1159.1526	1179.8473	1261.2563	1373.9879	1409.1239	1442.0665	1479.4173	1599.0934	1663.3555	1702.2568	1815.2746	2994.8303	3325.4151	3548.2758	3643.0792	3805.8265
NC1=NC(O)=CN1C=O	Nc1nc(O)cn1C=O	
InChI=1S/C4H5N3O2/c5-4-6-3(9)1-7(4)2-8/h1-2,9H,(H2,5,6)	InChI=1S/C4H5N3O2/c5-4-6-3(9)1-7(4)2-8/h1-2,9H,(H2,5,6)
