20
gdb 62096	3.41996	0.78643	0.67993	4.0046	78.19	-0.2404	-0.0234	0.217	1653.6696	0.167831	-440.324416	-440.313538	-440.312594	-440.362258	36.634	
C	-0.0607235245	 1.532903142	 0.050080734	-0.347598
N	 0.0359229286	 0.0855280106	 0.0099202447	-0.067871
C	 0.1021901718	-0.6067958452	 1.2918514945	-0.178039
C	-1.2873684715	-1.0364760676	 1.8102628645	-0.273454
C	-1.177643537	-1.8238220029	 3.093885787	 0.154927
O	-1.6755295684	-1.5053936575	 4.1434593334	-0.23774
C	-0.038397279	-0.6894814535	-1.121064649	 0.400188
C	-0.1015883401	 0.0149151617	-2.4685670904	-0.500193
O	-0.045547821	-1.9090871723	-1.0441226456	-0.38353
H	-0.1357510955	 1.9439614649	-0.9545420568	 0.142631
H	-0.945792878	 1.856597186	 0.6132480212	 0.133193
H	 0.822951796	 1.969145384	 0.5326246	 0.132464
H	 0.7292891369	-1.4920224831	 1.1643233086	 0.14178
H	 0.5848151599	 0.061512171	 2.0122067381	 0.111371
H	-1.9398380122	-0.175318735	 1.9786744508	 0.114948
H	-1.7293520321	-1.6876538743	 1.0461388376	 0.146807
H	-0.5724844026	-2.7565295943	 3.0079381122	 0.080482
H	 0.7455485816	 0.6903235604	-2.6217332411	 0.138347
H	-0.0855173186	-0.7583970197	-3.235617396	 0.151427
H	-1.0207899644	 0.5996887749	-2.5768875378	 0.139859
42.4819	61.4503	71.0295	86.0674	105.3724	136.2282	205.5893	269.0217	303.2996	355.2186	401.1314	498.9676	527.342	591.301	607.9466	744.7346	773.3406	864.052	956.9124	995.5094	1031.0211	1049.9316	1085.4288	1097.2501	1154.1655	1172.934	1212.017	1272.9801	1282.0878	1339.1575	1387.3145	1405.8322	1428.0638	1438.2606	1459.6514	1466.1446	1476.3985	1479.0963	1495.3546	1499.6926	1529.8049	1747.3392	1833.1981	2861.6509	3011.8356	3038.3731	3045.42	3054.0746	3055.5011	3101.707	3108.9764	3120.9248	3161.7188	3169.1995
CN(CCC=O)C(C)=O	CN(CCC=O)C(=O)C	
InChI=1S/C6H11NO2/c1-6(9)7(2)4-3-5-8/h5H,3-4H2,1-2H3	InChI=1S/C6H11NO2/c1-6(9)7(2)4-3-5-8/h5H,3-4H2,1-2H3
