19
gdb 72591	2.19159	1.66543	1.48798	2.2147	77.11	-0.2325	0.0227	0.2552	1034.9291	0.158727	-419.19448	-419.185696	-419.184752	-419.227432	33.498	
C	 0.1213200214	 1.6073897852	-0.1567954536	-0.48703
C	 0.0478416778	 0.1266586135	 0.0687593573	 0.397982
C	 0.5723474992	-0.9012115497	-0.9539434349	-0.224033
N	 1.2789260699	-1.6302723109	 0.1354373413	-0.352987
C	 0.7422435253	-0.7208127613	 1.1868487011	 0.143132
C	 1.7182630272	-0.2744351206	 2.2437737323	-0.474175
C	-0.6846642654	-1.0552094529	 1.5822374893	 0.392721
N	-1.2048485642	-1.7712611741	 2.4724755582	-0.558359
O	-1.2638119507	-0.3072546442	 0.5740474515	-0.308279
H	 1.1337301787	 1.8983768303	-0.4519848496	 0.131878
H	-0.5658089797	 1.9069714932	-0.9556800536	 0.136784
H	-0.1513404469	 2.1553401466	 0.7496523337	 0.13367
H	-0.2309844658	-1.4420376437	-1.4646992688	 0.113141
H	 1.2697746802	-0.5041580903	-1.6998966414	 0.109608
H	 1.017813598	-2.604302735	 0.2510105927	 0.230291
H	 2.653938429	 0.0559582086	 1.785238671	 0.123994
H	 1.3036053544	 0.5379040941	 2.8487326421	 0.123554
H	 1.9412311183	-1.1083648622	 2.9175891015	 0.142484
H	-2.2238401366	-1.7833941265	 2.39653972	 0.225623
114.0337	174.0624	184.3498	196.615	202.6991	275.8189	318.3808	340.5726	412.1535	525.3325	607.4707	625.6144	684.6844	720.3315	757.0557	843.4459	867.9559	877.048	913.8403	944.0188	975.342	997.9999	1011.9011	1105.3599	1142.1449	1170.9595	1185.1293	1201.1875	1250.3515	1269.1461	1335.2438	1350.712	1373.2339	1409.3453	1417.0748	1477.5658	1483.466	1487.6497	1491.1575	1499.9714	1813.0193	3029.9179	3038.2718	3039.8093	3080.5768	3106.3291	3107.9951	3120.0803	3123.1	3467.9419	3525.772
CC12CNC1(C)C(=N)O2	C[C@@]12CN[C@]1(C)[C]([NH])O2	
InChI=1S/C6H10N2O/c1-5-3-8-6(5,2)4(7)9-5/h7-8H,3H2,1-2H3	InChI=1S/C6H10N2O/c1-5-3-8-6(5,2)4(7)9-5/h7-8H,3H2,1-2H3/t5-,6-/m1/s1
