25
gdb 58559	2.04009	1.40658	1.16542	1.6728	88.14	-0.2378	0.076	0.3138	1273.8795	0.226717	-389.490146	-389.479377	-389.478433	-389.5255	40.66	
C	-0.4806641616	 1.2630824672	-1.4378512555	-0.403541
C	-0.2525498702	-0.0184344324	-0.6198485704	 0.002853
C	 0.7478329653	 0.2307780749	 0.5193003758	-0.408914
C	-1.5899574901	-0.6226962653	-0.1404950229	 0.429991
C	-2.2994736303	 0.2110394852	 0.9206460712	-0.448986
O	-2.4700443013	-0.8138727236	-1.2943649932	-0.327176
C	-2.420088329	-2.2446535691	-1.1749482814	-0.083834
C	-1.6243638438	-2.1689971468	 0.1410927531	-0.075583
C	-0.3657401391	-3.0173789887	 0.256871739	-0.424313
H	 0.4541106459	 1.5817335817	-1.9105374568	 0.104709
H	-1.2247642042	 1.0933180532	-2.2188855288	 0.136493
H	-0.8251414075	 2.0908489067	-0.8082195003	 0.10967
H	 0.1888296223	-0.7541601958	-1.3042562295	 0.068663
H	 0.4028387342	 1.0298377257	 1.1836133542	 0.117316
H	 0.9176757967	-0.6613947066	 1.1285194429	 0.113012
H	 1.7151748364	 0.5418241424	 0.1114875303	 0.113038
H	-2.435974027	 1.2457404864	 0.5937210983	 0.123234
H	-3.2884616346	-0.2106514499	 1.119409803	 0.116418
H	-1.7351533606	 0.2184604265	 1.858786671	 0.115914
H	-3.4205179332	-2.6912489725	-1.1242580576	 0.09677
H	-1.8729756235	-2.7077350603	-2.0091757117	 0.090648
H	-2.2674440619	-2.3691283714	 1.0036916829	 0.074444
H	 0.3400846034	-2.8301787967	-0.5579647966	 0.121951
H	 0.156165132	-2.8504631875	 1.2041363728	 0.121249
H	-0.6325877082	-4.0798581733	 0.2182067002	 0.115974
50.5895	91.6879	174.9487	209.8135	221.7674	244.2407	248.441	266.1429	293.1753	300.3361	337.9331	389.6119	457.6536	463.6675	523.592	652.0964	712.9709	858.6784	879.3449	907.9316	920.8801	929.4847	931.4257	967.7213	1021.9732	1038.4288	1049.6034	1098.9574	1131.2695	1149.4634	1157.6839	1174.6449	1186.0653	1216.8086	1243.958	1297.183	1340.7203	1346.2007	1374.3792	1391.406	1395.0976	1404.1681	1415.2868	1418.3247	1478.7684	1488.8458	1489.9681	1496.9255	1500.1801	1503.3297	1509.0203	1515.2111	1528.6447	2991.7856	3018.3632	3032.2455	3033.4402	3036.7398	3037.8385	3042.3518	3057.5111	3091.3003	3092.2779	3100.7818	3109.8036	3113.1771	3113.9116	3118.1556	3130.9705
CC(C)C1(C)OCC1C	CC(C)[C@@]1(C)OC[C@H]1C	
InChI=1S/C8H16O/c1-6(2)8(4)7(3)5-9-8/h6-7H,5H2,1-4H3	InChI=1S/C8H16O/c1-6(2)8(4)7(3)5-9-8/h6-7H,5H2,1-4H3/t7-,8-/m1/s1
