16
gdb 49805	2.65738	1.54403	1.00271	3.713	73.73	-0.242	-0.0357	0.2063	1126.8041	0.125778	-437.96021	-437.95252	-437.951576	-437.992671	28.757	
O	-0.051933867	-0.0580339262	-0.1804270201	-0.306222
C	-0.036020001	 1.1448751182	-0.0983453646	 0.161212
N	 1.1434599443	 1.8897484642	 0.0419776009	-0.172849
C	 2.3828186533	 1.2075176031	 0.0847934602	 0.038564
C	 3.5228243079	 1.8148086808	 0.4025896248	-0.138702
C	 3.5564476508	 3.2821396887	 0.728060542	-0.277684
C	 2.4076949608	 4.0081855825	 0.0131310695	-0.325195
C	 1.0685740068	 3.2998739592	 0.1125424739	 0.425284
O	 0.0095592134	 3.8762252353	 0.1912233811	-0.337544
H	-0.921267141	 1.7920177544	-0.1280999916	 0.141355
H	 2.2847814707	 0.1527693322	-0.1324337725	 0.151891
H	 4.4353123191	 1.2320789235	 0.4454897082	 0.110148
H	 3.4813616425	 3.4280367644	 1.8154628457	 0.128219
H	 4.5107845199	 3.7276356768	 0.4305547345	 0.121133
H	 2.2616018119	 5.0280483118	 0.3724573491	 0.138247
H	 2.6360409775	 4.068672311	-1.0601536911	 0.142143
88.2577	150.4716	192.7015	253.7962	285.5549	376.2318	434.2351	518.5621	528.607	585.2162	661.6099	733.8375	786.8465	817.7266	887.1348	915.0047	981.6108	1023.7006	1042.818	1048.8488	1112.9161	1158.025	1189.75	1255.0802	1270.5998	1314.3384	1338.6508	1376.1771	1410.2188	1423.6292	1462.4504	1485.389	1732.1398	1800.4208	1819.3473	3005.431	3026.9006	3074.1989	3075.8598	3123.9661	3200.9613	3240.719
O=CN1C=CCCC1=O	O=CN1C=CCCC1=O	
InChI=1S/C6H7NO2/c8-5-7-4-2-1-3-6(7)9/h2,4-5H,1,3H2	InChI=1S/C6H7NO2/c8-5-7-4-2-1-3-6(7)9/h2,4-5H,1,3H2
