13
gdb 5197	5.81648	1.46071	1.16751	3.9072	61.79	-0.215	0.0005	0.2155	939.1887	0.097057	-398.647092	-398.640449	-398.639505	-398.678263	24.439	
O	-0.2497162178	 0.018720964	 0.0003886545	-0.308884
C	-0.0767459577	 1.2178436674	 0.0077747534	 0.140894
N	 1.1425420149	 1.8314608958	 0.0010996101	-0.402782
C	 2.3750872811	 1.1697658431	-0.0150719669	 0.306722
C	 2.6195040687	-0.1730756373	-0.0281459327	-0.069882
O	 3.9670973341	-0.3872265806	-0.041410748	-0.141908
C	 4.5731203547	 0.8216218337	-0.0369527928	 0.025404
C	 3.6543140562	 1.8209976252	-0.0210790972	-0.309211
H	-0.9024906486	 1.9545096497	 0.0209825705	 0.083487
H	 1.1587461271	 2.8390205942	 0.0084636113	 0.256575
H	 1.9818369838	-1.0356893758	-0.0294388279	 0.169646
H	 5.6502619716	 0.8117157422	-0.0463354758	 0.140757
H	 3.8495909419	 2.8822553684	-0.0142896085	 0.109181
81.2168	180.5098	216.8826	351.8244	388.9995	534.5528	607.2402	617.2092	656.8154	726.9393	780.7481	808.6176	863.0724	891.068	995.5379	1011.8296	1057.2729	1093.0997	1166.528	1214.4867	1249.3055	1284.2985	1398.7862	1430.8258	1519.1538	1569.4901	1644.3087	1800.7051	2953.7786	3250.1143	3286.4918	3335.7864	3635.4938
O=CNC1=COC=C1	O=CNc1cocc1	
InChI=1S/C5H5NO2/c7-4-6-5-1-2-8-3-5/h1-4H,(H,6,7)	InChI=1S/C5H5NO2/c7-4-6-5-1-2-8-3-5/h1-4H,(H,6,7)
