16
gdb 12384	2.85502	2.29086	1.49497	3.3955	60.48	-0.2659	0.0045	0.2704	852.5555	0.131534	-420.914026	-420.906661	-420.905717	-420.945952	26.908	
C	-0.17285463	 1.4812812822	 0.0470201534	-0.395467
C	 0.0472560779	-0.0417370559	-0.0379877841	-0.117142
C	 0.8637906927	-0.4291625069	-1.2744151143	-0.114841
O	 2.2294723524	-0.0925994502	-1.0556434169	-0.219644
C	 2.7507256924	-0.8723636945	-0.0392194376	 0.023196
O	 2.0653024798	-0.7301496301	 1.2144860953	-0.232608
C	 0.725853608	-0.5040031539	 1.2521606817	 0.40502
O	 0.1432381824	-0.5959152276	 2.2968968151	-0.325983
H	 0.7842453075	 2.0098068142	 0.0237484714	 0.138051
H	-0.7732598864	 1.8220076459	-0.8021225705	 0.118926
H	-0.6950917412	 1.740827247	 0.9701350797	 0.145719
H	-0.9268857032	-0.5399410523	-0.0622217975	 0.11124
H	 0.7769830967	-1.5062746322	-1.4880344403	 0.102859
H	 0.5373919479	 0.1238653354	-2.1586546168	 0.120635
H	 2.724921291	-1.9416245706	-0.3051175306	 0.104417
H	 3.7775462321	-0.5506127205	 0.1416789618	 0.135623
72.5434	138.3593	227.5838	258.6863	289.5879	405.9167	437.4179	494.3024	584.1973	717.011	753.1349	779.0821	880.8386	952.8353	969.5794	1029.1269	1048.0064	1064.9957	1124.2633	1135.1119	1185.5931	1254.7954	1267.3162	1312.0226	1329.3146	1339.4446	1389.4593	1414.9883	1459.1606	1493.424	1502.8611	1505.3522	1524.5095	1846.9103	2974.7887	2984.8943	3045.3077	3068.9962	3098.1027	3117.56	3121.7036	3137.8275
CC1COCOC1=O	C[C@H]1COCOC1=O	
InChI=1S/C5H8O3/c1-4-2-7-3-8-5(4)6/h4H,2-3H2,1H3	InChI=1S/C5H8O3/c1-4-2-7-3-8-5(4)6/h4H,2-3H2,1H3/t4-/m0/s1
