23
gdb 60401	3.72133	0.64315	0.5976	2.4395	82.99	-0.2503	0.0754	0.3257	1932.1937	0.203506	-425.409466	-425.398727	-425.397783	-425.445982	39.55	
C	 0.0275363864	 1.5088523034	-0.2299608408	-0.401322
C	 0.0238189907	 0.0216303556	 0.1261391547	 0.137804
O	 0.5423941081	-0.1916967149	 1.4392199423	-0.427693
C	-1.3605384189	-0.6172338889	-0.0436791082	-0.185128
C	-1.3673925463	-2.1282447604	 0.216988606	-0.201721
C	-2.7542300317	-2.7321791752	 0.1503987065	-0.016022
C	-3.3896577045	-3.0648770302	-1.1894757331	-0.327759
C	-2.9614056752	-4.1641536545	-0.2477705161	 0.089246
O	-1.8169581589	-4.9151037214	-0.5386964667	-0.416373
H	 1.0223532391	 1.9347841495	-0.0734083048	 0.121953
H	-0.2604006568	 1.6691319396	-1.2741145133	 0.1137
H	-0.6834473794	 2.0604117859	 0.3986427145	 0.103402
H	 0.7341264248	-0.5019691825	-0.5269413801	 0.086793
H	-0.0289927196	 0.2816744382	 2.0546467783	 0.273445
H	-2.0620054142	-0.1157059565	 0.6415400532	 0.076099
H	-1.7301426435	-0.4119364909	-1.0566583948	 0.093289
H	-0.7192081667	-2.6336753524	-0.5065595472	 0.105563
H	-0.9273301607	-2.3181217152	 1.2022496103	 0.110144
H	-3.4390509207	-2.3659214377	 0.9123246582	 0.080042
H	-4.4475559813	-2.8805423941	-1.3432437649	 0.106293
H	-2.7703512744	-2.9203842711	-2.0697447026	 0.109342
H	-3.7449497641	-4.7190909437	 0.2688510361	 0.082045
H	-2.0223518321	-5.4897561726	-1.2831291875	 0.286859
45.4822	67.7072	99.2062	136.8046	211.8931	235.6856	248.5592	290.7685	303.889	347.3594	381.4227	454.4621	471.0703	488.8459	586.4061	756.4851	778.2799	834.5713	842.3692	899.2128	926.0027	939.0645	985.2403	1009.3585	1041.6693	1046.3138	1077.512	1103.1518	1120.7492	1134.7847	1171.9922	1178.5584	1220.4799	1239.9485	1273.4847	1292.5456	1305.6391	1339.5235	1349.6303	1390.2245	1402.4676	1409.2001	1421.5035	1426.4691	1475.044	1488.6115	1493.0355	1495.9413	1502.9288	2988.4063	3021.1632	3029.9824	3044.4669	3047.879	3086.6891	3091.4926	3092.7675	3117.1848	3123.6051	3129.4093	3212.0853	3792.6947	3809.4429
CC(O)CCC1CC1O	C[C@@H](O)CC[C@H]1C[C@H]1O	
InChI=1S/C7H14O2/c1-5(8)2-3-6-4-7(6)9/h5-9H,2-4H2,1H3	InChI=1S/C7H14O2/c1-5(8)2-3-6-4-7(6)9/h5-9H,2-4H2,1H3/t5-,6+,7-/m1/s1
