19
gdb 107154	4.40061	1.04277	0.97568	1.5809	76.71	-0.2506	0.0835	0.3341	1264.7734	0.157588	-422.958733	-422.950175	-422.949231	-422.992089	32.431	
C	-0.2935240447	 1.3245566548	-0.1018935925	-0.258184
O	 0.1445938422	-0.0133503913	 0.0753801518	-0.280575
C	 0.781246735	-0.5290168128	-1.0285563192	 0.449886
C	 0.0427900203	-1.0656528099	-2.2196152417	-0.342963
C	 0.9020809843	-2.0064510637	-1.3881220642	-0.241047
C	 2.3541466912	-1.7766708823	-1.7253257884	 0.481395
C	 3.4925757186	-2.6797316684	-1.5816888957	-0.273255
O	 3.0037887034	-2.2938214711	-2.8763196857	-0.275697
C	 2.2635576639	-0.2765618419	-1.3710493331	-0.405556
H	 0.5494152826	 2.0073959036	-0.2784365991	 0.114311
H	-0.9944576515	 1.4082318822	-0.9437613164	 0.114095
H	-0.7998152343	 1.6178501659	 0.8201225053	 0.12933
H	-1.0227791933	-1.1968235909	-2.0602845703	 0.118499
H	 0.3276923256	-0.81258313	-3.2375130533	 0.118275
H	 0.4834815651	-2.8752514774	-0.8957955264	 0.099551
H	 4.470008422	-2.2807740216	-1.311412812	 0.113963
H	 3.3285577011	-3.7234427621	-1.3145893939	 0.115584
H	 2.4773047939	 0.4273441678	-2.1807066628	 0.107151
H	 2.8565323046	-0.0199027006	-0.4893206224	 0.115237
75.676	94.5003	173.0112	220.1817	278.6126	316.7676	380.9442	395.8369	429.519	489.4252	576.2261	682.1117	774.1591	824.8507	857.1139	897.2266	927.751	936.5174	979.0395	994.7973	1010.5643	1068.0096	1087.1028	1095.9009	1121.2774	1141.1018	1156.186	1169.2719	1180.4035	1206.7062	1228.3862	1246.7528	1271.9276	1377.3458	1441.9739	1470.2427	1477.5423	1487.3805	1502.4032	1506.9609	1540.3056	2993.8699	3048.0992	3052.9115	3075.2129	3111.1585	3112.8626	3124.6404	3160.4555	3193.4704	3208.2324
COC12CC1C1(CO1)C2	CO[C@]12C[C@H]1[C@]1(CO1)C2	
InChI=1S/C7H10O2/c1-8-6-2-5(6)7(3-6)4-9-7/h5H,2-4H2,1H3	InChI=1S/C7H10O2/c1-8-6-2-5(6)7(3-6)4-9-7/h5H,2-4H2,1H3/t5-,6+,7-/m1/s1
