14
gdb 25940	2.91752	1.61658	1.04683	1.7574	64.58	-0.2423	-0.0341	0.2082	1053.2867	0.100622	-473.906989	-473.899241	-473.898296	-473.939637	28.191	
C	-0.0319392782	 1.5100728987	 0.0532988295	-0.481366
C	-0.0252709695	 0.0054644208	 0.0749694474	 0.410888
O	-0.0355783778	-0.6671478758	 1.0776319791	-0.321504
N	-0.0056955738	-0.6522265485	-1.1800070692	-0.212552
C	 0.0023783938	-2.0524483767	-1.307964689	-0.100361
C	 0.0208792795	-2.3145764264	-2.6142087648	-0.042031
O	 0.0251269829	-1.1401942556	-3.3412513218	-0.211448
C	 0.0085495946	-0.0846150548	-2.4629649774	 0.517109
O	 0.0077384402	 1.067141196	-2.7926991552	-0.38672
H	 0.8458082319	 1.8963476049	-0.4708462187	 0.16651
H	-0.8999098044	 1.8881488549	-0.4926936357	 0.16649
H	-0.0465840579	 1.8559728274	 1.0862760602	 0.145032
H	-0.0062181955	-2.6834309765	-0.4382795987	 0.183316
H	 0.0325883743	-3.2297214185	-3.1792230358	 0.166637
87.631	131.7657	160.5914	228.4012	266.7623	385.4967	409.5287	561.3532	616.8218	624.4532	627.5807	724.5448	771.8829	783.899	833.1861	892.2951	984.6249	1006.5103	1061.1548	1089.6104	1126.6297	1158.4429	1260.7855	1304.7962	1390.6302	1408.0662	1446.4077	1469.6014	1669.1005	1809.9405	1884.8471	3064.0439	3129.963	3171.413	3299.2766	3325.9806
CC(=O)N1C=COC1=O	CC(=O)n1ccoc1=O	
InChI=1S/C5H5NO3/c1-4(7)6-2-3-9-5(6)8/h2-3H,1H3	InChI=1S/C5H5NO3/c1-4(7)6-2-3-9-5(6)8/h2-3H,1H3
