18
gdb 86770	3.69937	0.99275	0.82692	3.8365	80.23	-0.2427	0.0326	0.2753	1390.4609	0.145922	-401.936749	-401.927131	-401.926187	-401.971936	33.852	
C	 0.029942464	 1.457447565	-0.0781548079	-0.344346
N	-0.0001674222	 0.0191726314	-0.0702792097	-0.067694
C	-1.0997444022	-0.9445012649	-0.0925502112	-0.204336
C	-0.0263621314	-2.0737399851	-0.0386748813	-0.141766
C	 0.0228899892	-3.0333648226	-1.2362563754	-0.371541
C	 1.1276385288	-3.9813827495	-1.1636412482	 0.313209
C	 2.0276883315	-4.7730049181	-1.0860814606	-0.436709
C	 1.007241727	-0.9147568027	-0.031290912	 0.404479
O	 2.2049373911	-0.8064215761	-0.0089935648	-0.367874
H	 1.0782740822	 1.7648931887	-0.0569104357	 0.163545
H	-0.4401945898	 1.8664462183	-0.9810881295	 0.127611
H	-0.4796261888	 1.8773559202	 0.7980814424	 0.128121
H	-1.7677464284	-0.8856872579	 0.7743886689	 0.109746
H	-1.697715051	-0.9174875616	-1.0122087887	 0.106966
H	-0.029243564	-2.6345069332	 0.8988231251	 0.113479
H	-0.9253639928	-3.5844927724	-1.2886696358	 0.133896
H	 0.0920270842	-2.4525791606	-2.1654925223	 0.135083
H	 2.8356828724	-5.4589019789	-1.0239117232	 0.19813
55.3431	82.5968	113.2475	145.6282	170.0871	230.4665	246.7007	342.5255	348.3356	462.3092	512.6216	623.1339	644.8977	668.8809	730.1112	785.3386	869.3382	929.9138	954.8084	1007.2959	1022.1249	1081.4614	1119.8924	1135.6737	1166.6867	1182.4164	1238.4208	1254.8867	1300.2442	1319.9498	1370.2792	1418.483	1447.9164	1471.3383	1482.2455	1511.7274	1533.7713	1878.7681	2244.4116	3011.5754	3013.7346	3020.1767	3044.881	3060.8239	3063.488	3096.0661	3129.1379	3508.1731
CN1CC(CC#C)C1=O	CN1C[C@@H](CC#C)C1=O	
InChI=1S/C7H9NO/c1-3-4-6-5-8(2)7(6)9/h1,6H,4-5H2,2H3	InChI=1S/C7H9NO/c1-3-4-6-5-8(2)7(6)9/h1,6H,4-5H2,2H3/t6-/m1/s1
