19
gdb 73821	3.04787	1.49621	1.13947	2.2304	81.4	-0.2127	0.009	0.2216	1114.1209	0.158351	-385.825418	-385.817398	-385.816454	-385.85766	31.392	
C	-0.0281030138	 1.5262658217	 0.0577973295	-0.50652
C	 0.0113468819	 0.0368454077	-0.0197176307	 0.19074
C	-0.0032551438	-0.7965724715	-1.0741100737	 0.19074
C	-0.0640992686	-0.5273452573	-2.5403138191	-0.50652
C	 0.0588089031	-2.1839764352	-0.4511415283	-0.13743
C	-0.7871250018	-2.1552793628	 0.8673348143	 0.077601
O	 0.1561062966	-3.0446175804	 1.5572676708	-0.327324
C	 0.9949663845	-2.1046317593	 0.8027032498	 0.077593
C	 0.0813978247	-0.8905858412	 1.1851872845	-0.13743
H	 0.859153567	 1.9248489622	 0.5669005934	 0.127596
H	-0.0779056854	 1.9849410891	-0.9334895779	 0.124249
H	-0.8963979302	 1.8749362939	 0.6320395634	 0.127583
H	-0.1031268822	 0.5436726857	-2.756902556	 0.124249
H	 0.8088733317	-0.9425352174	-3.060710755	 0.127595
H	-0.9467033677	-0.9937053454	-2.9972396734	 0.127584
H	 0.0621965669	-3.0850856719	-1.0637369911	 0.071124
H	-1.8563215333	-2.3260468494	 1.0170716269	 0.088724
H	 2.0801553252	-2.214180537	 0.8743138058	 0.088722
H	 0.1072975852	-0.5028545714	 2.203163797	 0.071124
147.3207	173.726	175.7774	195.7817	254.0969	299.737	440.5426	510.9649	560.5291	578.6108	626.7781	708.9055	803.9168	830.8791	866.731	876.051	893.6328	925.3325	977.5848	992.7817	1011.5641	1039.9551	1071.0476	1115.0469	1116.8729	1139.8738	1163.5087	1174.3306	1183.2788	1200.339	1230.4831	1267.4051	1329.4631	1346.4959	1411.1269	1421.056	1477.094	1478.2891	1487.3291	1490.9803	1725.2247	3012.4509	3014.166	3054.8043	3055.0017	3083.3313	3088.0456	3106.0806	3110.3635	3129.67	3133.4801
CC1=C(C)C2C3OC2C13	CC1=C(C)[C@@H]2[C@H]3O[C@@H]2[C@@H]13	
InChI=1S/C8H10O/c1-3-4(2)6-7-5(3)8(6)9-7/h5-8H,1-2H3	InChI=1S/C8H10O/c1-3-4(2)6-7-5(3)8(6)9-7/h5-8H,1-2H3/t5-,6+,7-,8+
