20
gdb 9775	3.21127	1.74934	1.55705	0.5004	70.53	-0.2556	0.0858	0.3415	948.2129	0.176803	-386.153576	-386.145008	-386.144064	-386.186784	31.82	
C	-0.0294173538	 1.4582275808	-0.1911074496	-0.253098
O	-0.0522397637	 0.0418076059	-0.1742495083	-0.283537
C	 0.7317054956	-0.6056369885	-1.1695924698	 0.493287
C	 2.2122080088	-0.2557038073	-1.0664227166	-0.455239
C	 0.3987733618	-2.113741819	-1.0260193814	-0.28298
C	-0.46056013	-2.4379995742	-2.2684722362	-0.211422
C	-0.8348889553	-1.0436786866	-2.7866151324	-0.089371
O	 0.294640397	-0.2344276113	-2.4670724314	-0.272545
H	 0.9087197142	 1.8632533479	 0.2129368406	 0.105343
H	-0.1792633917	 1.8494536976	-1.2036465412	 0.124143
H	-0.8513778196	 1.7911615252	 0.4476700754	 0.120486
H	 2.5761547019	-0.4578690809	-0.0554488553	 0.122989
H	 2.785000891	-0.8552403891	-1.7779447367	 0.121454
H	 2.3846746189	 0.7974283208	-1.3007359737	 0.125684
H	 1.3080939395	-2.7171308843	-0.9876872215	 0.102933
H	-0.147145119	-2.2620553636	-0.0932751117	 0.120687
H	 0.1310160944	-2.9682231186	-3.0204299135	 0.106036
H	-1.3349660194	-3.0506397071	-2.0365070682	 0.102722
H	-0.9867210699	-0.9918102617	-3.8673617775	 0.102827
H	-1.7350748507	-0.6631407562	-2.2842867708	 0.0996
47.8501	122.4068	173.2848	215.2502	253.4871	285.1966	342.5771	374.9376	436.1444	559.7977	623.2519	646.3722	786.1668	820.3261	866.8279	904.8344	911.3573	934.4886	1007.1838	1044.1006	1062.8048	1100.9914	1136.2716	1170.143	1179.7202	1201.2246	1220.7403	1232.0152	1269.836	1275.9359	1321.0781	1343.2509	1390.2419	1405.1026	1465.1573	1482.8459	1483.867	1486.777	1498.4055	1506.1954	1514.7463	1517.2949	3002.6351	3009.6234	3052.1064	3058.0825	3070.5171	3079.6802	3098.4814	3107.9304	3114.2102	3129.0468	3130.6808	3133.8782
COC1(C)CCCO1	CO[C@@]1(C)CCCO1	
InChI=1S/C6H12O2/c1-6(7-2)4-3-5-8-6/h3-5H2,1-2H3	InChI=1S/C6H12O2/c1-6(7-2)4-3-5-8-6/h3-5H2,1-2H3/t6-/m1/s1
