16
gdb 24692	3.7884	1.56074	1.12228	2.8872	77.53	-0.2337	-0.0086	0.2251	1030.8863	0.128646	-400.820326	-400.813719	-400.812774	-400.851716	25.627	
C	 0.0397869233	 1.371511952	-0.1988135473	-0.09536
C	 1.4609369895	 1.8717972494	 0.1708112297	-0.367649
C	 2.1092869791	 0.5962511542	 0.6550302223	 0.157364
C	 3.3967480171	 0.2694914006	 1.0393254979	-0.10127
N	 3.7368395818	-0.9530607339	 1.4768028163	-0.290835
C	 2.7700723669	-1.8726477997	 1.5398343519	 0.024506
C	 1.437053516	-1.6627485075	 1.1812337131	-0.283383
C	 1.1262945699	-0.3902245647	 0.7281358191	 0.407226
O	-0.0961394135	 0.0268266898	 0.3325812175	-0.278224
H	-0.7613814246	 1.9762993673	 0.2306000111	 0.126193
H	-0.1051268379	 1.3148061417	-1.2826729339	 0.122837
H	 1.9682743718	 2.3169104953	-0.6896003009	 0.128077
H	 1.4286907672	 2.6326970276	 0.9585682506	 0.129268
H	 4.1970637582	 1.0056170756	 0.9998461938	 0.104592
H	 3.0732412249	-2.8535539355	 1.8991528645	 0.10843
H	 0.6949477103	-2.4482504121	 1.2490069242	 0.108227
71.559	200.6455	256.9946	395.589	414.6339	543.9797	579.7723	622.3114	710.3486	764.8188	812.0768	846.1601	852.398	873.7671	949.6449	961.6766	986.9379	1002.4078	1051.7071	1078.6662	1168.7879	1198.7565	1210.7212	1240.9855	1277.2882	1281.3289	1315.2646	1346.8393	1401.2014	1456.4062	1488.8852	1513.2681	1528.3687	1624.2267	1644.0995	3040.6225	3048.9895	3084.028	3113.0922	3145.9281	3152.5119	3211.4489
C1CC2=CN=CC=C2O1	C1Cc2cnccc2O1	
InChI=1S/C7H7NO/c1-3-8-5-6-2-4-9-7(1)6/h1,3,5H,2,4H2	InChI=1S/C7H7NO/c1-3-8-5-6-2-4-9-7(1)6/h1,3,5H,2,4H2
