21
gdb 39413	2.36981	1.88309	1.32442	1.6784	81.04	-0.2519	0.0837	0.3356	1039.3971	0.185655	-387.069994	-387.062439	-387.061495	-387.101653	30.929	
C	 0.0606261893	 1.4948956256	-0.2500517492	-0.313699
C	 1.2978429495	 0.6358962143	-0.1193517834	-0.020165
C	 2.2790968082	 0.896878359	 1.0108860509	-0.212363
C	 2.8059305664	-0.3605401689	 1.7379760508	-0.18953
C	 1.8043585002	-1.5201329888	 1.9377080885	-0.242834
C	 0.3917449497	-1.1618539264	 2.3839309138	 0.052469
O	 0.066833032	 0.208867268	 2.6653332408	-0.25362
C	-0.5134364058	-0.3987839356	 1.506060155	 0.030612
C	-0.0694704558	 0.0434951264	 0.1471812419	-0.025221
H	-0.0994854605	 2.2358861863	 0.5266427331	 0.12188
H	-0.2824990897	 1.7926734787	-1.2348801972	 0.107466
H	 1.7513017276	 0.3144037458	-1.0540816173	 0.078302
H	 3.1336147295	 1.4580072194	 0.6127439713	 0.085481
H	 1.7981220273	 1.5403099944	 1.7474641403	 0.12333
H	 3.6660006549	-0.7751602771	 1.1980309078	 0.092135
H	 3.1893188517	-0.0458631506	 2.7150517917	 0.102584
H	 1.7144537881	-2.085149123	 1.000941556	 0.107695
H	 2.2349497324	-2.2176760677	 2.6647290542	 0.098777
H	-0.063022358	-1.8584985336	 3.0895434354	 0.087139
H	-1.5875469956	-0.5710854536	 1.6016483175	 0.085674
H	-0.4529873616	-0.6180953127	-0.6272217521	 0.083887
134.4693	197.8563	211.8653	270.5499	312.9651	397.4598	460.1732	503.4363	619.9581	666.5333	726.9317	763.0655	780.3528	826.6803	845.64	887.4785	894.1972	933.9757	968.0077	979.6734	1038.4948	1056.3682	1072.7492	1080.7023	1105.9331	1128.0154	1140.8509	1143.7035	1162.081	1215.7843	1239.3734	1258.5476	1293.1877	1310.2832	1343.8332	1365.1881	1388.323	1397.3462	1406.6251	1429.8822	1464.1806	1478.5954	1487.2145	1498.2113	1501.7143	3019.4913	3025.4445	3036.5754	3054.1402	3069.5978	3080.0804	3100.0972	3115.4576	3122.926	3129.2554	3135.5763	3216.0229
C1C2CCCC3OC3C12	C1[C@H]2CCC[C@H]3O[C@H]3[C@@H]12	
InChI=1S/C8H12O/c1-2-5-4-6(5)8-7(3-1)9-8/h5-8H,1-4H2	InChI=1S/C8H12O/c1-2-5-4-6(5)8-7(3-1)9-8/h5-8H,1-4H2/t5-,6+,7-,8+/m1/s1
