17
gdb 30834	2.46759	1.29376	0.89597	1.5553	72.02	-0.1783	0.0553	0.2337	1282.1446	0.136122	-455.196953	-455.187803	-455.186859	-455.231092	33.619	
C	 0.3171505847	 1.4953463599	 0.3886314128	-0.364982
C	-0.1271520911	 0.0948671435	-0.0732367524	-0.309854
C	 0.5644964537	-0.3987586253	-1.297113344	 0.206826
C	 0.1367231275	-0.6517393004	-2.5692663069	 0.263033
O	-1.1255599747	-0.5063093689	-3.0402674648	-0.442943
N	 1.1504438279	-1.0955319021	-3.391636505	-0.447712
C	 2.2046504649	-1.111829943	-2.6132390218	 0.439069
O	 3.45105528	-1.47820283	-2.9591616842	-0.425245
N	 1.9401961076	-0.7099272893	-1.3544226644	-0.367159
H	 1.3862400612	 1.5184063833	 0.6278878301	 0.103448
H	 0.1383937816	 2.2370320716	-0.3952919179	 0.125894
H	-0.2288931309	 1.8028617527	 1.2863167195	 0.111878
H	 0.0033199513	-0.6145654009	 0.7572952199	 0.098757
H	-1.1991378272	 0.1063146054	-0.2940176747	 0.129253
H	-1.1024324754	-0.7792757302	-3.9643725503	 0.298181
H	 3.4121280411	-1.7262866519	-3.8909781018	 0.313635
H	 2.604598228	-0.6585176147	-0.6018277339	 0.26792
50.3554	118.1311	179.7189	240.2752	271.6389	279.4637	314.207	326.	384.9173	400.787	460.5054	549.9999	613.1363	652.1704	701.4289	730.8703	778.4732	821.7225	966.0995	1049.1052	1066.5804	1082.1245	1134.1742	1186.4147	1233.095	1256.1995	1321.3868	1349.03	1367.8966	1407.0624	1447.6368	1475.8717	1496.304	1503.5639	1572.6993	1625.1759	1712.0388	2994.6568	3030.8763	3076.9082	3099.2776	3113.9337	3678.8662	3811.5758	3818.1988
CCC1=C(O)N=C(O)N1	CCc1c(O)nc(O)[nH]1	
InChI=1S/C5H8N2O2/c1-2-3-4(8)7-5(9)6-3/h8H,2H2,1H3,(H2,6,7,9)	InChI=1S/C5H8N2O2/c1-2-3-4(8)7-5(9)6-3/h8H,2H2,1H3,(H2,6,7,9)
