19
gdb 99619	2.24489	1.31405	1.05379	4.2299	76.59	-0.2363	0.0226	0.2589	1236.712	0.157552	-419.18197	-419.171969	-419.171024	-419.216964	36.021	
C	 0.143180193	 1.4227696815	-0.0471944327	-0.248934
O	-0.2183916712	 0.0784646106	-0.3127845124	-0.246626
C	 0.6322063373	-0.590000578	-1.217947842	-0.045463
C	 2.0101421237	-0.7106022645	-0.680269245	 0.292796
N	 3.09445031	-0.7524636753	-0.2838304146	-0.33473
C	 0.0261821252	-1.9534760362	-1.4940995865	 0.331219
N	-0.0844195536	-2.732525246	-0.2882788231	-0.562741
C	-0.9833868288	-2.0339882494	-2.6230130651	-0.322136
C	 0.3977668714	-2.6376495431	-2.7750716752	-0.304315
H	 1.1297945321	 1.4918291545	 0.428907078	 0.139391
H	 0.1514335128	 2.0230110409	-0.9692613239	 0.111234
H	-0.6127801649	 1.8217540561	 0.6315537123	 0.137016
H	 0.7053079245	-0.0254651321	-2.1618821134	 0.103491
H	-0.78474082	-2.3249446527	 0.3234259664	 0.242126
H	-0.3627156169	-3.6853785616	-0.492226862	 0.230527
H	-1.8197217977	-2.710034666	-2.4825216232	 0.113985
H	-1.2208197164	-1.1402837032	-3.1906095295	 0.115867
H	 1.1054757198	-2.153502275	-3.4397081044	 0.125429
H	 0.4956565096	-3.7178862905	-2.7475729137	 0.121863
67.8372	98.5626	133.456	167.7991	177.116	221.6916	255.5187	313.5203	330.7093	356.3826	400.1761	497.3939	529.2219	610.6259	767.4326	796.1206	862.5859	876.2396	917.7868	957.9733	978.4853	994.3312	1010.9009	1046.6955	1080.6482	1137.7963	1177.3872	1184.5431	1184.7082	1214.8515	1294.1714	1349.2691	1355.4065	1412.8745	1465.9968	1480.1203	1487.2564	1504.1552	1508.7651	1644.5613	2355.4783	2975.1773	2991.8665	3056.3756	3128.9327	3132.1376	3133.4471	3208.2808	3222.8205	3506.7882	3594.7912
COC(C#N)C1(N)CC1	CO[C@@H](C#N)C1(N)CC1	
InChI=1S/C6H10N2O/c1-9-5(4-7)6(8)2-3-6/h5H,2-3,8H2,1H3	InChI=1S/C6H10N2O/c1-9-5(4-7)6(8)2-3-6/h5H,2-3,8H2,1H3/t5-/m0/s1
