17
gdb 30230	3.69277	1.32272	1.03923	4.0182	77.06	-0.1897	0.0225	0.2122	1145.254	0.137155	-417.994212	-417.986389	-417.985444	-418.026681	29.778	
C	-0.377693159	 1.4888552279	 0.1197963068	-0.396792
C	 0.0045752386	 0.0171471217	 0.003723381	-0.142673
C	 0.8610483693	-0.3735200692	-1.2698702999	-0.181313
N	 2.0035097521	-0.5691492988	-0.3549274677	-0.091108
C	 1.2225933153	-0.4506765433	 0.7923605462	 0.282423
C	 1.8660612912	-1.0507920209	 1.7953246255	-0.204713
O	 3.0669647741	-1.5607619189	 1.278439895	-0.235067
C	 3.0855009997	-1.3870129656	-0.1079621487	 0.442339
N	 3.9315504724	-1.8501427657	-0.926961953	-0.597865
H	 0.4947771628	 2.1328314883	-0.0256758924	 0.134133
H	-1.1286412514	 1.7509685056	-0.6324297536	 0.123284
H	-0.7978920712	 1.7053927361	 1.1064580573	 0.129367
H	-0.8699283049	-0.6223721385	 0.1445869468	 0.105727
H	 0.5413052097	-1.2958565632	-1.7631485135	 0.13406
H	 1.0159008695	 0.4147523176	-2.01030338	 0.128486
H	 1.6792889548	-1.2320451274	 2.8380509487	 0.144703
H	 4.622997737	-2.4188307957	-0.4446108085	 0.225009
101.1056	110.3243	217.4261	231.8585	269.8735	360.3856	419.5054	548.7756	634.6295	670.2413	692.6465	710.7053	718.7091	754.9981	787.1027	872.7519	915.8654	947.6762	964.2446	1023.7812	1083.9991	1110.4339	1131.1331	1173.7728	1178.836	1219.3902	1239.8042	1278.8398	1333.3154	1355.3504	1382.7398	1413.7274	1494.4	1496.4435	1511.6081	1702.4652	1785.403	3038.3014	3056.7322	3082.3742	3109.6502	3113.9941	3119.7921	3304.0758	3534.9394
CC1CN2C1=COC2=N	C[C@H]1CN2[C@@H]1CO[C@@H]2[NH]	
InChI=1S/C6H8N2O/c1-4-2-8-5(4)3-9-6(8)7/h3-4,7H,2H2,1H3	InChI=1S/C6H11N2O/c1-4-2-8-5(4)3-9-6(8)7/h4-7H,2-3H2,1H3/t4-,5+,6+/m0/s1
