17
gdb 48935	3.90672	1.42351	1.23996	2.8982	78.71	-0.2324	-0.0309	0.2016	1011.7	0.137003	-384.673933	-384.6669	-384.665956	-384.705397	27.949	
O	-0.3113290999	 0.4495853588	-0.7749613656	-0.276524
C	 0.0974726439	 1.0833950022	 0.1734942382	 0.032506
C	 1.3034023904	 1.9202226124	 0.156191365	 0.238509
C	 1.7396349273	 2.9611958404	 1.1788582685	-0.306254
C	 2.5880227627	 3.6647761823	 0.0386274212	-0.10749
C	 3.9588119926	 3.027423537	 0.0814745354	-0.09173
C	 3.8658380026	 1.7626802364	-0.345519835	-0.08026
C	 2.4800581565	 1.5053940907	-0.8203524522	-0.10446
C	 1.7886222905	 2.8054825627	-0.9938861103	-0.098883
H	-0.4452502037	 1.0685929681	 1.1462885815	 0.070123
H	 0.8894332163	 3.5860953241	 1.4650845116	 0.111952
H	 2.2845308554	 2.642458191	 2.0729824667	 0.100164
H	 2.5381310763	 4.7506493044	-0.005419834	 0.07908
H	 4.8163664427	 3.4882768432	 0.5555401442	 0.102979
H	 4.6396897829	 1.0065726851	-0.3179303694	 0.104635
H	 2.2114579755	 0.663943485	-1.4462541619	 0.117008
H	 1.220308448	 3.1231138262	-1.8590611238	 0.108645
100.5355	178.3226	197.2544	352.8597	369.9163	501.3014	532.3289	653.1438	691.3859	730.2224	761.0368	797.5556	840.035	865.6619	871.5863	919.1354	945.7176	948.5944	982.0861	1007.9894	1018.4628	1048.0409	1065.1889	1114.3212	1141.6431	1175.0118	1189.1548	1218.8522	1259.7613	1277.7148	1292.0357	1361.6231	1391.624	1432.8573	1489.7301	1639.1026	1786.3417	2866.8398	3045.0758	3104.2733	3135.7036	3193.8642	3203.1376	3210.509	3229.9314
O=CC12CC3C=CC1C23	O=C[C@@]12C[C@H]3C=C[C@@H]1[C@@H]23	
InChI=1S/C8H8O/c9-4-8-3-5-1-2-6(8)7(5)8/h1-2,4-7H,3H2	InChI=1S/C8H8O/c9-4-8-3-5-1-2-6(8)7(5)8/h1-2,4-7H,3H2/t5-,6-,7+,8+/m1/s1
