13
gdb 42803	3.46901	1.27819	1.14762	2.0013	75.12	-0.2475	-0.0501	0.1974	1050.3304	0.08793	-419.364085	-419.35689	-419.355946	-419.3959	27.537	
O	 0.0544181085	-0.0116920708	-0.1159895872	-0.282553
C	 0.0122022881	 1.1657780015	-0.0891843191	 0.428391
C	-1.0352959973	 2.3655201949	 0.0706157448	-0.095745
O	-0.0239510731	 2.9267285874	 0.9554411379	-0.256352
C	 0.9687657754	 2.4366464921	 0.0216110025	-0.175481
C	 0.5807867278	 3.1252246974	-1.2825182465	 0.263144
C	-0.7750653269	 3.0702595457	-1.2331705067	-0.209452
C	 1.46361029	 3.5787403528	-2.2755456082	 0.140686
C	 2.2559735015	 3.9628911779	-3.0984885423	-0.375921
H	-2.0312741703	 2.28042318	 0.4953645551	 0.113834
H	 1.9949276132	 2.4370759199	 0.3772137365	 0.115975
H	-1.4988642088	 3.3595838199	-1.9794542706	 0.135574
H	 2.944542772	 4.3031003312	-3.8319920362	 0.197901
94.0025	159.4192	185.9016	347.2918	443.4616	505.6705	522.103	551.2342	570.9714	602.1546	650.609	672.1596	768.4929	832.3418	840.4545	880.0416	912.9485	943.9071	961.109	1040.07	1101.7305	1144.5971	1179.1138	1236.1701	1276.7927	1294.5952	1596.9561	1938.2135	2225.167	3178.2028	3182.4394	3257.8569	3500.7717
O=C1C2OC1C(=C2)C#C	O=C1[C@H]2O[C@@H]1C(=C2)C#C	
InChI=1S/C7H4O2/c1-2-4-3-5-6(8)7(4)9-5/h1,3,5,7H	InChI=1S/C7H4O2/c1-2-4-3-5-6(8)7(4)9-5/h1,3,5,7H/t5-,7+/m0/s1
