22
gdb 6223	3.4652	1.45026	1.35197	1.3203	77.74	-0.2586	0.0696	0.3282	1066.3722	0.20014	-350.233076	-350.224245	-350.2233	-350.266195	34.549	
C	 0.066174988	 1.5997736931	-0.0177723785	-0.408861
C	 0.0296413015	 0.0723823669	-0.0518191937	 0.058232
C	 0.8401251755	-0.5604135119	-1.2020064678	-0.205911
C	 1.0720917404	-1.9947918038	-0.7172161504	-0.242108
C	 1.4563318667	-1.8103654002	 0.7680558334	 0.406326
C	 1.280177851	-3.0674456746	 1.6182679232	-0.452946
O	 2.8157897951	-1.3504525913	 0.856482741	-0.475398
C	 0.5916406584	-0.6075715978	 1.2293462261	-0.237516
H	 1.0941553743	 1.9607106259	 0.1019586008	 0.118199
H	-0.3343523263	 2.0293393224	-0.9427474208	 0.107752
H	-0.5250664319	 1.9962839858	 0.8148547471	 0.109458
H	-1.0157105376	-0.2424019904	-0.1735984047	 0.063509
H	 0.3282131919	-0.4986970075	-2.166939034	 0.084645
H	 1.8054417089	-0.0508156679	-1.2989838381	 0.104036
H	 0.1442113673	-2.5765702586	-0.7919206002	 0.089319
H	 1.8438002843	-2.5383984934	-1.2739055388	 0.077185
H	 1.9044849121	-3.8867198685	 1.2400029988	 0.099941
H	 1.5727313979	-2.8709693273	 2.6541804072	 0.122094
H	 0.2409007713	-3.411580332	 1.6095641945	 0.111577
H	 3.3825552351	-2.0538312572	 0.520796163	 0.270102
H	 1.2330288741	 0.0724999446	 1.7968085489	 0.110885
H	-0.2122449877	-0.9300380362	 1.897095813	 0.089481
39.4109	194.1395	235.9833	251.8483	264.5003	319.5614	339.2018	364.1282	413.6163	425.5216	459.5891	549.4975	588.2681	753.1363	808.4742	856.326	898.4069	905.7767	937.4848	949.9675	968.327	992.2409	1044.2136	1068.6726	1089.3886	1113.6042	1150.4895	1199.387	1218.7337	1237.9245	1273.1134	1293.7574	1326.0674	1343.4089	1348.4705	1376.3746	1385.9637	1405.5608	1409.9173	1479.0503	1481.1019	1491.1113	1494.5579	1495.6342	1498.724	1501.1784	3002.1844	3019.7494	3023.3691	3024.906	3042.3181	3055.3899	3068.5049	3086.985	3089.9564	3090.9901	3094.8612	3102.6077	3110.7349	3797.1269
CC1CCC(C)(O)C1	C[C@H]1CC[C@@](C)(O)C1	
InChI=1S/C7H14O/c1-6-3-4-7(2,8)5-6/h6,8H,3-5H2,1-2H3	InChI=1S/C7H14O/c1-6-3-4-7(2,8)5-6/h6,8H,3-5H2,1-2H3/t6-,7+/m0/s1
