18
gdb 24714	3.85403	1.54648	1.32301	1.9746	82.58	-0.1975	0.0441	0.2416	994.1696	0.151165	-364.799908	-364.793198	-364.792254	-364.831104	27.281	
C	 0.1766853442	 1.5735980999	-0.1803417422	-0.227451
C	 1.6406321409	 1.4810381421	 0.3409164307	-0.217665
C	 1.4902995862	-0.0652710567	 0.52405483	-0.193928
C	-0.016513378	 0.0464193632	 0.0492438627	-0.009816
N	 0.3636345578	-0.8001543253	-1.094010417	 0.035384
C	 0.1839714802	-1.1338122405	-2.4101358512	-0.164427
C	 1.4397405544	-1.4904158136	-2.8778370849	-0.122819
C	 2.4119162484	-1.2864845647	-1.8459176134	-0.30951
C	 1.6894373852	-0.8581784268	-0.7541695292	 0.295342
H	-0.4742279847	 2.1841446186	 0.4497634507	 0.108404
H	 0.0488865271	 1.8837411244	-1.2192258895	 0.118223
H	 2.4276453408	 1.7878041487	-0.3496166712	 0.113284
H	 1.7829511928	 2.0047095691	 1.2894255777	 0.103358
H	 1.7919348484	-0.4991700962	 1.4770878809	 0.08468
H	-0.884470084	-0.2949207679	 0.6147368658	 0.089052
H	-0.7843985068	-1.1770493523	-2.8819710901	 0.11415
H	 1.6395115952	-1.9001326124	-3.8577984511	 0.090801
H	 3.474403962	-1.4562586796	-1.9222876388	 0.092937
100.3093	137.0545	270.298	424.1528	466.5681	609.5446	673.2189	684.7172	705.8383	718.2738	771.6594	780.7359	816.0728	836.9363	838.8951	904.1073	929.4955	961.2006	982.0944	1009.0178	1040.5654	1074.065	1117.8648	1130.1725	1140.0347	1182.8574	1230.755	1234.8938	1241.9766	1271.9231	1273.0741	1297.479	1305.0051	1404.724	1429.6172	1468.0261	1472.5317	1489.1367	1572.3323	3065.7921	3072.2082	3100.6887	3112.8887	3117.4256	3134.4658	3230.9518	3255.7127	3266.3125
C1CC2C1N1C=CC=C21	C1C[C@H]2[C@@H]1n1cccc21	
InChI=1S/C8H9N/c1-2-7-6-3-4-8(6)9(7)5-1/h1-2,5-6,8H,3-4H2	InChI=1S/C8H9N/c1-2-7-6-3-4-8(6)9(7)5-1/h1-2,5-6,8H,3-4H2/t6-,8-/m1/s1
