20
gdb 39137	3.32402	1.42334	1.26731	2.6312	78.82	-0.2345	0.0736	0.3081	1073.941	0.172978	-403.116968	-403.109427	-403.108483	-403.148944	30.334	
C	 0.0656090928	 1.6333222301	-0.1072598663	-0.217407
C	 1.6034370035	 1.4627730829	 0.0413714756	-0.273278
C	 1.3555910715	 0.0616934924	 0.6441082026	 0.48501
C	-0.0857699686	 0.0951030665	 0.050047	-0.291594
O	 2.2478707713	-0.9396880166	 0.1748688931	-0.313415
C	 2.4367222241	-1.9588279405	 1.1530361184	-0.09483
C	 2.0699529973	-1.3254680612	 2.477255234	-0.051425
N	 2.7647368148	-0.0386163143	 2.6919529962	-0.338797
C	 1.3881319077	-0.053783721	 2.1543384449	-0.134488
H	-0.3741160502	 2.1805772254	 0.7313193448	 0.098744
H	-0.2999683097	 2.0762836945	-1.0353941269	 0.101219
H	 2.0985807943	 1.366603704	-0.9280266492	 0.112394
H	 2.1577116259	 2.1742149242	 0.6569957327	 0.104256
H	-0.9051508049	-0.2872699007	 0.6660314805	 0.087797
H	-0.0969695014	-0.4156059849	-0.9160663741	 0.109728
H	 1.7860900602	-2.8264522847	 0.9601604963	 0.090179
H	 3.4808691861	-2.2845596706	 1.097924685	 0.111937
H	 1.7936824689	-1.9444438447	 3.324051006	 0.092528
H	 2.7292122947	 0.193344883	 3.6821532476	 0.230195
H	 0.5692032819	 0.3409426464	 2.7463429386	 0.091247
104.9638	132.8773	199.0675	321.9207	337.6933	389.3878	461.2169	518.2452	674.7174	724.5064	781.7784	797.624	813.2425	853.3723	882.2528	888.6472	912.0902	926.6832	958.6165	974.4328	1015.3812	1033.5955	1046.6726	1079.7816	1102.0629	1119.8387	1159.0583	1175.674	1193.9882	1199.5344	1229.3369	1244.1151	1256.0023	1268.3646	1272.1825	1290.3781	1372.1182	1390.8552	1432.067	1470.2761	1485.7812	1506.7379	1511.7806	2981.3343	3051.3418	3062.5331	3067.5234	3069.7735	3104.5903	3117.6053	3129.812	3164.5847	3175.449	3495.0686
C1CC2(C1)OCC1NC21	C1CC2(C1)OC[C@H]1N[C@@H]21	
InChI=1S/C7H11NO/c1-2-7(3-1)6-5(8-6)4-9-7/h5-6,8H,1-4H2	InChI=1S/C7H11NO/c1-2-7(3-1)6-5(8-6)4-9-7/h5-6,8H,1-4H2/t5-,6-/m1/s1
