13
gdb 128950	7.76971	0.79812	0.72705	4.9894	65.54	-0.2483	-0.0202	0.2281	1414.3766	0.090454	-448.916204	-448.908543	-448.907599	-448.949698	26.643	
N	-0.0587909527	-1.0993807493	-0.0033484605	-0.288429
C	-0.0106173806	 0.0538058822	 0.002311843	 0.275724
C	-0.0005063475	 1.5166889996	 0.0107182226	-0.212621
O	 1.3585483108	 1.9449849649	-0.0025054233	-0.267478
C	 1.5211567672	 3.2824081853	 0.003012309	 0.421221
C	 2.7175956248	 3.964751943	-0.0073791942	-0.195763
N	 2.3137389117	 5.2602845864	 0.0047263938	-0.138415
N	 0.9835285835	 5.3801780463	 0.0210228157	-0.12264
N	 0.4943067693	 4.1635490494	 0.0201467422	-0.268998
H	-0.5400712796	 1.898764384	-0.8637276431	 0.17205
H	-0.5196683616	 1.888516966	 0.901776617	 0.172073
H	 3.7465597831	 3.6540966247	-0.0213343179	 0.161098
H	 2.8806834616	 6.0936554774	 0.0027001058	 0.292178
43.1894	90.3011	120.1695	239.5032	334.8908	386.1082	441.8191	531.5727	591.0911	686.2929	724.0616	760.3702	771.3121	961.9909	988.277	1019.6131	1024.7582	1064.1747	1091.3388	1140.5633	1248.5412	1278.1064	1345.3643	1351.582	1395.9455	1486.419	1509.028	1623.8933	2377.4436	3040.5399	3077.0762	3303.9658	3655.6001
N#CCOC1=CNN=N1	N#CCOc1c[nH]nn1	
InChI=1S/C4H4N4O/c5-1-2-9-4-3-6-8-7-4/h3H,2H2,(H,6,7,8)	InChI=1S/C4H4N4O/c5-1-2-9-4-3-6-8-7-4/h3H,2H2,(H,6,7,8)
