21
gdb 103500	2.6423	1.28556	1.14354	0.9491	77.49	-0.246	0.0647	0.3107	1185.0565	0.183313	-424.21579	-424.206707	-424.205762	-424.249735	34.598	
O	 0.176412024	 1.4234153547	-0.2245440034	-0.424419
C	 0.1899406193	 0.0050826462	-0.1265592	-0.143666
C	-1.2237276795	-0.5478099855	-0.0488106165	 0.376913
O	-1.9917024904	 0.1866587192	 0.8890578215	-0.480697
C	-2.0205111019	-1.1031000042	-1.2067875788	-0.1161
C	-1.3192135037	-1.5812421876	-2.4728083684	-0.22905
C	-0.2466639219	-2.6104665221	-2.0210313252	-0.225405
C	-0.6482519524	-3.0668944865	-0.5940506434	-0.226514
C	-1.5973999904	-2.0053722	-0.0539399681	-0.090839
H	-0.195476466	 1.7383315205	 0.6065000014	 0.278779
H	 0.7203010066	-0.3533567938	-1.0092201959	 0.112393
H	 0.7565908661	-0.3172560884	 0.7609162021	 0.093041
H	-2.3209468605	 0.9652476235	 0.426108393	 0.282557
H	-3.0479353739	-0.7619124215	-1.2867013355	 0.079289
H	-2.0634050595	-2.0633715801	-3.1163177785	 0.102249
H	-0.8805008692	-0.7652038762	-3.0573046638	 0.105154
H	-0.1843284701	-3.455731231	-2.7118051308	 0.099655
H	 0.7474097856	-2.1562702439	-2.011633225	 0.110038
H	-1.1914756041	-4.0176310375	-0.6347847543	 0.103656
H	 0.2267457085	-3.2349142275	 0.0432233569	 0.10088
H	-2.3133972068	-2.2913070282	 0.7085684926	 0.092084
62.9421	123.5026	148.2045	178.9912	206.7739	294.0999	294.9669	410.5752	427.7988	509.2228	545.4381	651.2142	674.4825	754.8261	800.8705	837.1275	864.974	897.4749	905.6005	947.8466	972.9991	1002.785	1040.7807	1060.1303	1068.0455	1088.0189	1100.5393	1140.915	1178.3356	1211.1558	1229.4565	1254.0815	1283.5519	1297.6786	1316.8787	1328.7317	1336.2157	1353.3796	1385.0476	1415.7942	1447.3921	1488.3898	1495.9137	1499.7921	1517.1356	2983.2869	3036.6776	3037.5292	3059.8245	3068.976	3070.4741	3100.1692	3127.224	3154.6849	3174.7563	3794.829	3806.6603
OCC1(O)C2CCCC12	OC[C@@]1(O)[C@H]2CCC[C@@H]12	
InChI=1S/C7H12O2/c8-4-7(9)5-2-1-3-6(5)7/h5-6,8-9H,1-4H2	InChI=1S/C7H12O2/c8-4-7(9)5-2-1-3-6(5)7/h5-6,8-9H,1-4H2/t5-,6+,7+
