17
gdb 29403	3.74924	1.05501	0.82755	1.9988	81.37	-0.1869	0.0103	0.1973	1360.0797	0.136672	-418.043537	-418.034877	-418.033932	-418.077163	31.838	
C	 0.5752847589	 1.3139697458	-0.0934685353	-0.499591
C	-0.1040531942	-0.019466023	-0.0740239461	 0.274055
C	-1.3619121575	-0.3042512383	-0.4936343137	-0.1255
O	-1.6394878697	-1.640759663	-0.3205874612	-0.20177
C	-0.523953946	-2.1921405885	 0.2193669098	 0.472575
N	-0.6412268634	-3.5499152311	 0.4580076659	-0.391119
C	 0.3184996162	-4.3702848211	 0.9946861218	 0.076654
N	 1.4711901501	-3.9542697788	 1.3470620281	-0.450416
C	 0.4537178386	-1.2633649027	 0.3979692821	-0.38289
H	 1.4868585787	 1.2888485752	-0.7012749665	 0.130587
H	-0.080071672	 2.0870568027	-0.5043677274	 0.120949
H	 0.8714152906	 1.6259493276	 0.9145017425	 0.130587
H	-2.1583893702	 0.2820169066	-0.9194846755	 0.126986
H	-1.5270232209	-3.9557651227	 0.2053326374	 0.261679
H	-0.0418574221	-5.4022829154	 1.0725604073	 0.094113
H	 2.0214432323	-4.7252272445	 1.7173580782	 0.223659
H	 1.4291226807	-1.4520324088	 0.8089436628	 0.139442
73.0279	137.7345	151.0018	151.7878	254.8509	288.0647	364.695	398.5888	435.3044	546.8712	620.5236	672.123	695.1395	698.0995	794.76	804.3224	814.1028	978.0184	986.683	1018.0351	1030.3001	1064.7496	1101.6371	1148.6477	1174.7829	1223.9245	1259.9019	1293.454	1390.0187	1414.5974	1421.7603	1481.6282	1496.5694	1569.811	1613.4399	1663.2118	1721.9575	3029.194	3054.7853	3080.2126	3109.525	3283.643	3303.5609	3518.7895	3658.2833
CC1=COC(NC=N)=C1	Cc1coc(NC=N)c1	
InChI=1S/C6H8N2O/c1-5-2-6(8-4-7)9-3-5/h2-4H,1H3,(H2,7,8)	InChI=1S/C6H8N2O/c1-5-2-6(8-4-7)9-3-5/h2-4H,1H3,(H2,7,8)
