17
gdb 35348	3.74325	1.37942	1.24287	4.917	78.36	-0.2406	0.0118	0.2524	1025.0782	0.13755	-380.735012	-380.728048	-380.727104	-380.766236	28.334	
N	-0.2021892102	-1.2314719287	-0.0094849829	-0.341085
C	-0.123924812	-0.0785235582	 0.0323802497	 0.352846
C	-0.0298370475	 1.3752056023	 0.0294448989	-0.227428
N	-0.2764809353	 2.0069420912	 1.411834552	-0.408745
C	 1.1881186602	 2.3272806584	 1.3996673907	 0.315874
C	 2.4204553076	 3.2809209703	 1.3995077493	-0.301035
C	 2.8001381013	 1.9632993708	 0.5561817767	-0.08425
C	 2.1638494806	 1.1507454949	 1.6989305163	-0.247692
C	 1.3758859951	 2.1197065371	-0.0865019276	-0.042059
H	-0.7181069046	 1.7521184552	-0.7310569253	 0.133657
H	-0.8459050138	 2.840673818	 1.2730101114	 0.227984
H	 2.3181186049	 4.2092741234	 0.8326325919	 0.105688
H	 2.9815244299	 3.4239044374	 2.3273938007	 0.108951
H	 3.7597889912	 1.7875156469	 0.0681528102	 0.092263
H	 2.6699662315	 1.1821726114	 2.6661178136	 0.098668
H	 1.8252876379	 0.1435909813	 1.4618032798	 0.135195
H	 1.2498324431	 2.9973571383	-0.7246740953	 0.081168
132.0395	149.0014	315.6616	343.0326	423.3305	464.2301	540.5755	554.5395	634.1342	687.9989	730.9543	803.4054	827.4412	851.8891	858.3137	894.6313	945.0365	983.1869	998.7352	1013.4086	1028.5215	1056.645	1088.3553	1112.9506	1146.3204	1156.4637	1172.5116	1197.5064	1207.7125	1231.5796	1250.1445	1302.574	1333.5715	1392.0768	1496.1045	1541.8441	2352.4418	3051.8728	3069.5692	3078.6877	3085.6398	3105.6281	3127.8884	3160.1566	3479.1472
N#CC1NC23CC(C2)C13	N#C[C@H]1N[C@@]23C[C@@H](C2)[C@@H]13	
InChI=1S/C7H8N2/c8-3-5-6-4-1-7(6,2-4)9-5/h4-6,9H,1-2H2	InChI=1S/C7H8N2/c8-3-5-6-4-1-7(6,2-4)9-5/h4-6,9H,1-2H2/t4-,5-,6+,7-/m1/s1
