18
gdb 44544	3.49875	1.42204	1.32074	2.5836	74.31	-0.2163	-0.0224	0.1938	1009.9222	0.14907	-401.926336	-401.919248	-401.918304	-401.958471	28.459	
O	 0.0175449745	 0.2123447877	 0.6170611374	-0.299941
C	-0.008994733	 1.3007214785	 0.1096558271	 0.391837
C	-1.2777395178	 2.1107247078	-0.2185473951	-0.367104
C	-0.7793699012	 3.4039976072	-0.8606628383	 0.01567
C	-0.7127398964	 4.7052637113	-0.0518311492	-0.086143
C	 0.0801785321	 4.5059573047	 1.2158554939	-0.307294
C	 0.8021304079	 4.589896693	-0.1034779969	-0.005175
N	 0.7356636356	 3.3612602017	-0.9002930501	-0.100767
C	 1.2239192139	 2.1151088678	-0.3247208671	-0.296607
H	-1.9126495184	 1.5124562238	-0.8787752733	 0.136622
H	-1.839355218	 2.2730794716	 0.7066683107	 0.142103
H	-1.1858200199	 3.557316127	-1.8641725153	 0.087827
H	-1.3368271039	 5.5728530544	-0.2198662196	 0.095589
H	 0.1652863708	 5.3913793268	 1.8381811129	 0.118916
H	 0.0296108832	 3.5793531442	 1.7812187254	 0.11347
H	 1.55646285	 5.3396389296	-0.3143900307	 0.097023
H	 1.8714015741	 2.273482323	 0.5464095887	 0.132898
H	 1.7963708364	 1.52253756	-1.0503533105	 0.131077
37.2245	175.9888	275.4525	375.6259	449.8005	479.168	519.9565	600.3228	660.4314	670.078	763.7081	768.1001	792.2259	822.81	853.8527	924.1408	947.9154	975.86	1025.3458	1044.4322	1063.7542	1072.0897	1082.2408	1094.2843	1122.7665	1150.5	1173.3167	1205.0955	1233.5525	1253.3306	1270.3356	1289.2073	1300.3371	1346.1635	1370.7251	1446.4187	1464.1139	1494.2627	1849.0577	3018.2731	3055.291	3057.7356	3063.0356	3103.3471	3119.2199	3169.3495	3197.503	3206.5128
O=C1CC2C3CC3N2C1	O=C1C[C@H]2[C@H]3C[C@H]3N2C1	
InChI=1S/C7H9NO/c9-4-1-6-5-2-7(5)8(6)3-4/h5-7H,1-3H2	InChI=1S/C7H9NO/c9-4-1-6-5-2-7(5)8(6)3-4/h5-7H,1-3H2/t5-,6+,7-/m1/s1
