19
gdb 62864	2.77514	1.89435	1.45239	0.1563	72.97	-0.2403	0.0653	0.3056	954.3921	0.158736	-422.955089	-422.947418	-422.946473	-422.986777	31.169	
C	-0.1027676043	 1.4186691163	 0.469955678	-0.453237
C	-0.1139725732	-0.040288822	-0.0091922062	 0.363722
C	-1.5685089392	-0.4794917275	-0.2628460438	-0.46532
C	 1.0457268635	-0.2936052981	-1.0341117203	-0.028139
O	 1.9901131443	-0.2094840786	 0.0939810803	-0.300267
C	 0.9062900185	-0.8998876102	 0.8152408111	-0.028138
C	 0.983052323	-2.2784227766	 0.1109762982	 0.030579
O	-0.058822487	-2.5656401649	-0.8329311671	-0.242352
C	 1.0875190805	-1.8241830821	-1.2746118448	 0.030579
H	 0.9064886183	 1.7808939601	 0.664799577	 0.135313
H	-0.5691612108	 2.062065903	-0.2846082846	 0.11287
H	-0.6951816932	 1.5140781893	 1.3869030756	 0.11287
H	-1.7305133985	-0.7842614883	-1.2981161447	 0.127009
H	-1.8555793934	-1.327973694	 0.3605196394	 0.127007
H	-2.2533044676	 0.3456938842	-0.0439788854	 0.097983
H	 1.2812025407	 0.3803657324	-1.8584395104	 0.076118
H	 0.9977614655	-0.8520524292	 1.9008496917	 0.076118
H	 1.5015879667	-3.1274067953	 0.5417893092	 0.113643
H	 1.6968292262	-2.2784937085	-2.0476561132	 0.113642
106.8593	189.0342	265.9537	290.1011	325.1037	391.8758	411.6491	450.3798	585.1445	616.4461	666.0456	723.1289	763.5533	839.1995	855.5382	859.7479	903.462	917.1208	918.633	966.9154	987.6495	996.4609	1020.8363	1049.806	1075.5646	1159.6444	1165.9878	1189.4092	1232.1012	1236.2577	1238.5517	1286.5961	1293.7933	1305.983	1396.224	1404.3163	1427.5041	1488.233	1491.6563	1501.6059	1512.4781	3030.9982	3048.0674	3087.6565	3115.1454	3117.3357	3119.8336	3135.6202	3149.2474	3177.2641	3189.5389
CC1(C)C2OC1C1OC21	CC1(C)[C@H]2O[C@@H]1[C@H]1O[C@@H]21	
InChI=1S/C7H10O2/c1-7(2)5-3-4(8-3)6(7)9-5/h3-6H,1-2H3	InChI=1S/C7H10O2/c1-7(2)5-3-4(8-3)6(7)9-5/h3-6H,1-2H3/t3-,4+,5+,6-
