17
gdb 67883	2.86172	2.11217	1.42058	1.9531	71.73	-0.2443	0.0088	0.2531	905.9887	0.138384	-417.954183	-417.947522	-417.946578	-417.984823	27.475	
C	 0.0035234502	 1.5297167334	-0.0852348108	-0.468625
C	-0.0009549469	 0.0178874905	-0.0099507677	 0.392467
N	 0.3388999826	-0.5589590163	-1.3040945948	-0.339443
C	 0.3648877014	-1.821963775	-1.3563637926	 0.112255
O	 0.1059828674	-2.6550465865	-0.3217334301	-0.235966
C	-0.2071608005	-1.9400063555	 0.8636538398	 0.114604
C	 0.6344381148	-0.6894813742	 1.2414166767	-0.124216
N	-0.5321850647	-0.1834630215	 2.0551731447	-0.321661
C	-1.1494631399	-0.7071188925	 0.7808020282	-0.12421
H	 0.9913719423	 1.8796654851	-0.4009360549	 0.120096
H	-0.7146178015	 1.8628120042	-0.8410803038	 0.120093
H	-0.2493445096	 1.9729945662	 0.8778286844	 0.139223
H	 0.6046693319	-2.3691412722	-2.2640659666	 0.133078
H	-0.4026862759	-2.6717853245	 1.6489191987	 0.093871
H	 1.6657946033	-0.6396124251	 1.5909832676	 0.088626
H	-0.723541206	-0.8384207324	 2.8213556946	 0.211181
H	-2.221862319	-0.6780491636	 0.5871649965	 0.088626
201.5223	214.7916	333.6845	338.9467	376.8578	450.4495	565.9506	597.0098	607.6357	665.904	786.4572	830.9483	850.0927	882.1511	921.8559	924.3289	948.0324	962.8668	1027.3082	1027.7431	1088.5434	1118.2921	1128.0618	1142.3241	1163.0465	1173.588	1222.8816	1252.5415	1261.4081	1286.4273	1318.6703	1365.3642	1400.1368	1406.2964	1489.0245	1492.1675	1713.3182	3046.0387	3104.9491	3107.4976	3115.4526	3123.2898	3155.9015	3181.9571	3371.7667
CC12N=COC3C1NC23	C[C@@]12N=CO[C@H]3[C@@H]1N[C@@H]23	
InChI=1S/C6H8N2O/c1-6-4-3(5(6)8-4)9-2-7-6/h2-5,8H,1H3	InChI=1S/C6H8N2O/c1-6-4-3(5(6)8-4)9-2-7-6/h2-5,8H,1H3/t3-,4-,5+,6+
