14
gdb 9195	5.65541	0.97016	0.93971	3.7511	59.59	-0.2821	0.0122	0.2943	1222.794	0.106559	-415.906963	-415.898242	-415.897298	-415.941674	28.75	
C	-0.2218783008	 1.2613123759	-0.0195394264	-0.23628
O	 0.3359526425	-0.0566874369	 0.0486677332	-0.262233
C	 0.7293578564	-0.5650325143	-1.1370294146	 0.537588
O	 0.6374661067	-0.003204268	-2.2040778204	-0.405366
N	 1.2768448829	-1.8077879878	-0.9454412977	-0.362192
C	 1.616256558	-2.6375410468	-2.0776396448	-0.282987
C	 0.6811446664	-3.7574855084	-2.2744381036	 0.25506
N	-0.0436775939	-4.6477125483	-2.4024037922	-0.29605
H	 0.5123301375	 1.9721785283	-0.4063630723	 0.143653
H	-1.1028773977	 1.2747736178	-0.6654765823	 0.146595
H	-0.4956781071	 1.5162538163	 1.0041611244	 0.136774
H	 1.1888882525	-2.2230342008	-0.0319452268	 0.267824
H	 1.5986401275	-1.9908648173	-2.9596944819	 0.197398
H	 2.6286973892	-3.0449654396	-1.9776705446	 0.160216
36.3271	73.0366	101.4323	152.115	220.4061	248.3787	334.1279	371.8536	449.7633	477.984	612.1342	702.1985	782.0209	904.12	921.2867	1029.8879	1066.4158	1177.3941	1183.8955	1218.8793	1250.0936	1289.1547	1381.5289	1461.6215	1470.0482	1482.7192	1499.7161	1541.456	1820.2796	2363.0469	3046.7608	3054.8796	3108.7795	3131.3127	3161.3274	3647.8217
COC(=O)NCC#N	COC(=O)NCC#N	
InChI=1S/C4H6N2O2/c1-8-4(7)6-3-2-5/h3H2,1H3,(H,6,7)	InChI=1S/C4H6N2O2/c1-8-4(7)6-3-2-5/h3H2,1H3,(H,6,7)
