15
gdb 83609	2.40102	1.76892	1.19014	1.0221	61.79	-0.2558	-0.0512	0.2046	1003.6062	0.110784	-494.860459	-494.852334	-494.851389	-494.89319	30.199	
O	 0.5905881137	 0.8700279421	 0.6537154285	-0.434608
C	 0.0498855204	-0.2888235147	 0.0909737451	 0.053841
C	-1.4956579641	-0.3666977427	-0.1337314523	-0.030187
O	-1.9765856777	-1.6921386159	 0.0922480697	-0.267882
C	-1.8043909437	-2.0762125343	-1.2886495044	-0.134692
C	-1.2872152148	-0.691998307	-1.7081647913	 0.272486
O	-1.8692558915	-0.1560751866	-2.8301106823	-0.453732
C	 0.153473447	-0.3025452579	-1.4448549323	 0.23393
O	 0.8687161534	 0.371904216	-2.1458180397	-0.32886
H	 1.0978532664	 1.3126580505	-0.0404093307	 0.300655
H	 0.3905937048	-1.1922294163	 0.6097556599	 0.115002
H	-2.1063749113	 0.4401458882	 0.271362874	 0.117241
H	-1.1277912959	-2.9280650564	-1.4139454485	 0.120777
H	-2.7653460833	-2.2897835133	-1.7685981778	 0.133738
H	-1.2497295134	 0.4911148683	-3.1965407177	 0.30229
77.5226	154.7724	229.1366	254.4025	271.7214	305.0932	367.0648	410.861	437.665	488.0892	578.8878	707.4984	774.9343	814.3949	852.4925	954.7856	982.2347	997.1952	1031.9126	1046.3313	1064.9543	1116.0301	1141.0445	1162.767	1212.8017	1250.6179	1310.359	1334.2214	1374.3674	1389.7665	1411.2068	1511.9574	1819.4188	3036.8884	3044.2497	3091.4566	3127.0415	3742.0635	3750.2418
OC1C2OCC2(O)C1=O	O[C@H]1[C@@H]2OC[C@]2(O)C1=O	
InChI=1S/C5H6O4/c6-2-3(7)5(8)1-9-4(2)5/h2,4,6,8H,1H2	InChI=1S/C5H6O4/c6-2-3(7)5(8)1-9-4(2)5/h2,4,6,8H,1H2/t2-,4+,5+/m1/s1
