20
gdb 18281	2.84514	2.07575	1.80508	0.192	78.99	-0.2328	0.0362	0.2689	876.444	0.179279	-311.87601	-311.868507	-311.867562	-311.907455	29.512	
C	 0.1600542948	 1.6623000924	 0.0820888786	-0.416699
C	 0.0772817182	 0.1511301502	 0.0412121953	-0.006672
C	 1.2409731462	-0.7325209537	-0.357061749	-0.0526
C	 2.6147555882	-0.1623300918	-0.6761047153	-0.273496
C	 3.3538965446	 0.4115549096	 0.5012544676	-0.046746
C	 2.9082404419	 0.4020410766	 1.7553834944	-0.046748
C	 1.594675052	-0.1840998884	 2.1945122099	-0.273497
C	 0.7329699296	-0.7433656955	 1.0725179476	-0.052601
H	 1.1326253404	 2.0173935056	 0.4304077867	 0.129871
H	-0.0131257588	 2.0887930609	-0.9126764027	 0.112088
H	-0.6040475044	 2.0761807473	 0.7501433524	 0.112088
H	-0.8891602856	-0.2090881138	-0.3049475541	 0.075904
H	 0.9787724231	-1.5950888432	-0.9625854315	 0.076269
H	 3.2327088495	-0.9585341864	-1.1149059294	 0.107776
H	 2.5404052459	 0.6011012145	-1.4653268674	 0.105107
H	 4.3246724032	 0.8513604479	 0.282947043	 0.080401
H	 3.5214919724	 0.8342138327	 2.5431921621	 0.080401
H	 1.8009944904	-0.9890836735	 2.9140861966	 0.107776
H	 1.0353519664	 0.5689878929	 2.7700502685	 0.105108
H	 0.151611692	-1.6127469944	 1.3651440666	 0.076269
125.771	154.9748	174.4798	224.6371	385.3434	427.6409	458.9959	536.9173	562.5571	681.4765	742.0694	760.3413	806.187	872.6882	908.5334	942.4708	952.3157	964.3477	996.2041	1011.6969	1042.93	1077.378	1111.5681	1121.6869	1150.5777	1157.2294	1205.9332	1234.355	1243.4441	1261.1408	1354.1089	1363.9259	1372.8378	1380.0019	1421.0176	1424.0587	1449.7789	1474.3479	1477.2619	1501.099	1505.1225	1736.123	2990.9007	2991.3218	3014.207	3014.351	3028.4476	3079.7108	3111.5369	3128.2831	3134.5923	3136.1079	3149.2983	3160.221
CC1C2CC=CCC12	C[C@H]1[C@H]2CC=CC[C@@H]12	
InChI=1S/C8H12/c1-6-7-4-2-3-5-8(6)7/h2-3,6-8H,4-5H2,1H3	InChI=1S/C8H12/c1-6-7-4-2-3-5-8(6)7/h2-3,6-8H,4-5H2,1H3/t6-,7+,8-
