19
gdb 87927	4.11794	1.03154	0.92779	3.3152	75.76	-0.2397	-0.0192	0.2205	1294.8684	0.157842	-423.049705	-423.041011	-423.040066	-423.083415	32.735	
C	 0.0426516599	 1.5101778587	-0.1547469611	-0.423361
C	 0.0111624136	 0.0237584331	 0.0966241666	-0.00412
O	 1.2589012811	-0.6858507582	 0.033971265	-0.296765
C	 0.5625331879	-0.626541976	 1.2902109716	 0.397669
C	 1.2823805236	 0.0851838548	 2.4359796754	-0.300141
C	 1.9128804396	-1.0639085827	 3.2420874316	-0.32198
C	 0.9932893737	-2.2707376851	 3.0148816219	 0.401532
O	 0.9982262277	-3.2912566319	 3.6507427077	-0.308706
C	 0.0581007557	-1.949960957	 1.8400506939	-0.401449
H	 0.8498520805	 1.9963693858	 0.3966629239	 0.12654
H	 0.1889901898	 1.7101839858	-1.2211698016	 0.133238
H	-0.9080934315	 1.9658635736	 0.1428485831	 0.123463
H	-0.8040752652	-0.4994297497	-0.4094130725	 0.085937
H	 2.0140962152	 0.8035089813	 2.0649607129	 0.12133
H	 0.5540675709	 0.6279288778	 3.0507859453	 0.11092
H	 2.8970051474	-1.3298870531	 2.8353278823	 0.144893
H	 2.0460047826	-0.8679442685	 4.3080105815	 0.129413
H	-0.9622317802	-1.8609118831	 2.2349498465	 0.13561
H	 0.0574281679	-2.7494774956	 1.095845876	 0.145976
55.1051	115.2085	168.8577	175.203	230.5411	358.9786	369.4795	463.9477	467.7251	496.5468	550.4284	592.8897	708.6894	736.5897	801.4726	820.2722	878.5096	941.0886	961.1135	984.9819	1002.2644	1028.2654	1115.6947	1133.1749	1146.8848	1170.5146	1183.7412	1217.8385	1244.9504	1262.0818	1295.5769	1310.2855	1368.9402	1409.5691	1426.7999	1449.2645	1473.2702	1479.576	1490.9282	1520.9253	1852.008	3035.7488	3038.732	3040.008	3043.293	3075.7597	3101.1958	3114.191	3115.4119	3123.7872	3136.1173
CC1OC11CCC(=O)C1	C[C@H]1O[C@]21CCC(=O)C2	
InChI=1S/C7H10O2/c1-5-7(9-5)3-2-6(8)4-7/h5H,2-4H2,1H3	InChI=1S/C7H10O2/c1-5-7(9-5)3-2-6(8)4-7/h5H,2-4H2,1H3/t5-,7-/m1/s1
