16
gdb 79809	4.33115	1.47296	1.26862	2.1481	67.49	-0.2478	0.013	0.2607	960.9865	0.127078	-437.842723	-437.836262	-437.835318	-437.873274	26.455	
O	 0.0045095583	 1.4465560061	-0.0886801403	-0.440769
C	 0.0240958863	 0.0440420973	-0.0014857353	 0.141029
C	-0.0288203454	-0.6423343056	 1.3921863412	-0.175184
C	-1.4907317388	-0.1217855462	 1.4968887917	 0.145823
O	-2.3745010844	-0.8393071278	 2.3534066686	-0.243994
C	-2.2640346386	-2.1793088262	 2.2273398209	 0.118138
N	-1.4681562262	-2.7751236716	 1.4425963633	-0.290866
C	-0.6498147473	-1.8782113039	 0.6548775639	 0.036488
C	-1.3599255397	-0.6263412925	 0.0294295872	-0.142503
H	 0.8966077529	 1.7717236362	 0.0673372777	 0.288002
H	 0.7383296335	-0.4023032476	-0.7050086371	 0.076195
H	 0.726801639	-0.663304231	 2.1772037827	 0.080964
H	-1.6629245122	 0.9350375779	 1.6743448454	 0.110452
H	-2.947158712	-2.7071221328	 2.8872660339	 0.130036
H	 0.0161168703	-2.4371884549	-0.0044492628	 0.078516
H	-2.1266209856	-0.6254822573	-0.743742781	 0.087672
227.9422	230.2532	286.7419	340.1679	400.7792	496.0667	550.7531	621.648	643.0193	761.6063	826.2075	838.2999	858.5961	921.1661	932.5054	965.5837	992.593	1016.5305	1025.8835	1084.9633	1097.7731	1124.3296	1140.5311	1154.5506	1188.1295	1197.758	1219.872	1222.9284	1262.1335	1313.9978	1343.6732	1381.1564	1407.1901	1444.2598	1711.7229	3024.683	3094.7984	3119.1409	3131.8469	3175.2495	3181.8278	3821.902
OC1C2C3OC=NC2C13	O[C@H]1[C@H]2[C@@H]3O[CH][N][C@H]2[C@H]13	
InChI=1S/C6H7NO2/c8-5-2-4-3(5)6(2)9-1-7-4/h1-6,8H	InChI=1S/C6H7NO2/c8-5-2-4-3(5)6(2)9-1-7-4/h1-6,8H/t2-,3+,4+,5-,6-
