25
gdb 121945	3.68597	0.64086	0.575	0.9448	90.74	-0.2493	0.0888	0.3382	2026.7587	0.227019	-389.47201	-389.460907	-389.459962	-389.509222	39.793	
C	 0.0605078129	 1.3132429138	 0.2259541168	-0.226123
O	-0.0210685127	-0.0897806844	 0.227101533	-0.229393
C	-1.3215039247	-0.5661159439	-0.0514842929	-0.06293
C	-1.2834511398	-2.0896295238	-0.0444254492	-0.192495
C	-2.6578236432	-2.7675858632	-0.1948635916	 0.004565
C	-3.3228139814	-2.4674618991	-1.5476962785	-0.394265
C	-2.5285865634	-4.2672766866	 0.0136064176	 0.047282
C	-2.4964436731	-4.8537002323	 1.4011878937	-0.274898
C	-3.6959652793	-5.080066579	 0.5111274043	-0.279712
H	 1.0958438815	 1.5832055542	 0.4494227807	 0.12449
H	-0.2137545795	 1.7404539672	-0.7524471374	 0.10027
H	-0.5955155613	 1.7638987221	 0.988533713	 0.100054
H	-2.0343121786	-0.1968849769	 0.7082934841	 0.079102
H	-1.663137761	-0.1773368442	-1.0252082101	 0.084215
H	-0.6133026596	-2.4291633378	-0.8448967531	 0.098472
H	-0.8264137786	-2.4073181927	 0.8994661499	 0.107312
H	-3.3140424086	-2.3819495629	 0.6003311585	 0.063729
H	-4.2778964148	-2.9946239722	-1.6344642781	 0.1151
H	-3.517462097	-1.3995139561	-1.6841354436	 0.111734
H	-2.684343859	-2.7972564561	-2.3761133605	 0.111969
H	-1.8922607759	-4.7579503208	-0.7208051318	 0.077153
H	-1.8344893365	-5.6893932063	 1.5995815823	 0.109594
H	-2.6133263196	-4.1738747765	 2.2394059205	 0.108472
H	-4.6120378172	-4.5521889975	 0.7578894197	 0.107548
H	-3.8545758396	-6.070914755	 0.0998598328	 0.108756
53.3101	63.9913	99.1603	107.9693	131.982	194.5979	229.917	232.6808	288.1885	298.9697	333.0417	438.424	469.3087	523.2769	762.5062	791.5879	820.6494	827.9599	891.8366	934.3025	959.4069	975.2219	985.1864	1012.7774	1054.7891	1065.2315	1077.59	1125.3351	1139.1815	1162.3607	1170.5029	1185.0726	1197.5821	1203.5942	1227.3621	1232.5628	1246.5697	1290.6701	1310.3393	1335.8391	1363.4786	1409.7893	1420.4591	1427.1416	1468.5936	1481.1325	1484.4503	1487.6884	1498.703	1501.7078	1506.2554	1507.6014	1533.3624	2937.5425	2963.9623	2975.5851	2987.7487	3004.4773	3026.8314	3030.3225	3074.574	3094.6577	3106.3946	3109.3955	3120.5328	3125.2012	3130.65	3202.8381	3218.0648
COCCC(C)C1CC1	COCC[C@@H](C)C1CC1	
InChI=1S/C8H16O/c1-7(5-6-9-2)8-3-4-8/h7-8H,3-6H2,1-2H3	InChI=1S/C8H16O/c1-7(5-6-9-2)8-3-4-8/h7-8H,3-6H2,1-2H3/t7-/m1/s1
