15
gdb 49257	2.93358	1.36281	0.94553	4.3993	74.1	-0.2283	-0.0737	0.1546	1162.1714	0.113584	-453.980561	-453.972744	-453.9718	-454.013366	28.8	
N	-0.127086185	 1.2092234654	-0.4608161705	-0.562932
C	-0.0209801859	 0.0557767726	 0.0519841602	 0.452625
N	-1.142811594	-0.6438807408	 0.4643964116	-0.410614
C	-1.0982818829	-1.985992316	 0.7878333812	 0.29911
C	-2.3849328943	-2.7032574438	 0.7835115305	 0.096633
O	-3.435488409	-2.1677472316	 0.5129367035	-0.277902
C	 0.0676301505	-2.5725745725	 1.1001063744	-0.202768
C	 1.2801048687	-1.6991263783	 1.1120550217	-0.13153
O	 1.1637601919	-0.6031920235	 0.184235082	-0.25643
H	 0.7948846561	 1.5786186369	-0.6821341319	 0.227205
H	-2.0392204977	-0.2514745656	 0.2140734522	 0.280596
H	-2.3176709141	-3.7746575295	 1.0590539977	 0.094941
H	 0.1302220977	-3.6234948676	 1.3495017926	 0.119868
H	 1.4591994845	-1.2909258703	 2.1195995446	 0.132519
H	 2.1822447235	-2.2366074154	 0.8090368901	 0.138679
97.7705	121.2694	152.0357	188.8806	305.3732	401.2228	474.4997	547.1938	567.3489	609.949	632.4037	714.3254	736.1073	767.2577	816.6425	857.0909	973.8894	1003.5458	1017.3096	1056.3504	1091.0585	1134.8556	1201.0054	1253.5527	1308.5301	1338.2701	1406.8527	1437.6744	1496.069	1503.7988	1714.9016	1760.397	1788.7572	2936.5138	2979.0492	3093.1454	3223.7192	3528.9283	3620.0923
N=C1NC(C=O)=CCO1	[NH][C]1NC(=CCO1)C=O	
InChI=1S/C5H6N2O2/c6-5-7-4(3-8)1-2-9-5/h1,3H,2H2,(H2,6,7)	InChI=1S/C5H6N2O2/c6-5-7-4(3-8)1-2-9-5/h1,3H,2H2,(H2,6,7)
