21
gdb 107735	3.24816	1.33539	1.21224	1.099	89.67	-0.2042	-0.0273	0.1768	1141.71	0.182825	-349.860348	-349.852301	-349.851357	-349.892736	32.339	
C	 0.0685722597	 1.5047899321	 0.0783820406	-0.370013
C	-0.0773876244	-0.0071036759	-0.1370804932	-0.280457
C	 0.6788484995	-0.510985657	-1.3449626645	 0.338307
C	 0.1252164878	-0.3297790967	-2.8171655433	-0.311496
C	 1.1342908697	-1.444660365	-3.1093047212	 0.048922
C	 2.3664818171	-1.0498870647	-3.4891767901	-0.102178
C	 3.2689161265	-0.9523321292	-2.2633811968	-0.263692
C	 2.1874651656	-0.9970344991	-1.1653107268	-0.087041
C	 1.1203828384	-1.9158688392	-1.6433537055	-0.170243
H	 1.117539297	 1.7781273141	 0.2316264349	 0.117734
H	-0.2959145141	 2.0649444527	-0.7892209786	 0.117413
H	-0.5000393888	 1.8369820359	 0.9525970639	 0.109648
H	 0.2664656307	-0.5427061517	 0.7564959495	 0.098312
H	-1.1400066978	-0.260407707	-0.253363239	 0.096189
H	-0.9372025374	-0.6052714913	-2.8147557243	 0.098809
H	 0.2654213867	 0.6167972539	-3.3483782338	 0.09681
H	 2.5205547351	-0.3763545815	-4.3281827521	 0.092427
H	 4.0086726815	-1.7506912028	-2.1029167617	 0.106014
H	 3.8279332006	-0.0098645439	-2.3179794009	 0.106281
H	 2.488833413	-1.0088437802	-0.1189590624	 0.073967
H	 0.778260664	-2.8613092937	-1.2406595447	 0.084286
83.9442	138.4817	208.1225	278.7315	322.6695	343.7957	390.8004	448.7164	560.6596	644.9163	680.139	731.5372	772.3557	801.2544	855.1551	878.7308	889.6554	913.6231	915.6354	970.9909	985.1813	1004.8178	1016.9871	1031.94	1057.1512	1067.4085	1089.704	1132.2981	1159.7245	1190.3328	1199.7623	1228.0475	1248.1666	1288.7295	1293.0307	1311.5727	1351.4685	1398.1806	1411.3375	1475.306	1479.4209	1497.7825	1500.9456	1506.1338	1592.9997	2991.9484	3010.8009	3014.9395	3033.8356	3045.66	3048.1753	3081.284	3102.5926	3106.2628	3125.3256	3157.6059	3184.0956
CCC12CC3=CCC1C23	CC[C@@]12C[C]3[CH]C[C@@H]1[C@@H]23	
InChI=1S/C9H12/c1-2-9-5-6-3-4-7(9)8(6)9/h3,7-8H,2,4-5H2,1H3	InChI=1S/C9H12/c1-2-9-5-6-3-4-7(9)8(6)9/h3,7-8H,2,4-5H2,1H3/t7-,8+,9-/m1/s1
