20
gdb 115303	4.32556	0.9645	0.83109	2.1409	77.64	-0.2375	0.0304	0.2679	1421.0862	0.170579	-440.295936	-440.286511	-440.285567	-440.330531	33.883	
C	 0.047850811	 1.3851454722	 0.0934921405	-0.241246
O	-0.0533706403	-0.0157554697	-0.0521767818	-0.240482
C	 0.6295454142	-0.546108994	-1.1703612796	 0.07701
C	 2.112228135	-0.7760249799	-0.8697869591	-0.100309
O	 2.7578717247	-1.4171359733	-1.9727396171	-0.25811
C	 2.0475741481	-2.4137738012	-2.5839973291	 0.401614
C	 2.9242436727	-3.1665394755	-3.5408110683	-0.45317
N	 0.826317806	-2.7061503058	-2.4139150784	-0.313606
C	 0.0099549613	-1.897999558	-1.5163725964	-0.178675
H	 1.0788542927	 1.7194794444	 0.2790778461	 0.108303
H	-0.3309233641	 1.9116796448	-0.795530987	 0.110716
H	-0.5648980066	 1.6617624413	 0.9547293419	 0.132102
H	 0.543147377	 0.1340617629	-2.0327578504	 0.076359
H	 2.6579440741	 0.1553555099	-0.7025367159	 0.112448
H	 2.2039104916	-1.4008777507	 0.0282975474	 0.115882
H	 3.7562596851	-3.6358985974	-3.0060288462	 0.136337
H	 2.3377279885	-3.928252	-4.0523028792	 0.144539
H	 3.3593988706	-2.4796027009	-4.2737830626	 0.137158
H	-0.1659843668	-2.4492399128	-0.5831882417	 0.120796
H	-0.9730785048	-1.7557513463	-1.9775925331	 0.112335
69.4636	91.1717	145.777	164.5595	174.9799	237.4913	288.001	333.9463	374.2799	426.2746	508.4664	524.0987	615.1004	700.5823	819.2397	899.7604	931.4898	960.6154	1007.3122	1061.1608	1092.0951	1102.4493	1128.7657	1144.7029	1165.6104	1183.1621	1213.6367	1233.287	1242.9279	1289.6241	1336.78	1357.0652	1374.984	1407.5342	1421.6379	1475.6216	1477.5404	1480.8367	1488.0661	1492.0925	1508.6339	1513.9311	1755.7294	2975.3053	2984.8422	3022.8826	3030.0333	3032.3851	3047.7435	3067.272	3104.1321	3105.0843	3116.9145	3168.4571
COC1COC(C)=NC1	CO[C@H]1COC(=NC1)C	
InChI=1S/C6H11NO2/c1-5-7-3-6(8-2)4-9-5/h6H,3-4H2,1-2H3	InChI=1S/C6H11NO2/c1-5-7-3-6(8-2)4-9-5/h6H,3-4H2,1-2H3/t6-/m1/s1
