19
gdb 125866	3.56745	1.10225	1.04339	2.7276	81.59	-0.2269	0.0229	0.2498	1231.3462	0.161626	-382.085198	-382.076934	-382.075989	-382.11909	31.22	
C	-0.6151896727	 1.3486820977	 0.2748967598	-0.409776
C	-0.1599909077	-0.087902514	 0.1621356719	 0.016163
C	 1.166639491	-0.4310667312	-0.4580132628	-0.295015
C	 0.9745414641	-0.6352909486	 1.0264355715	-0.161375
C	 1.6885717556	 0.2123506662	 2.0028344562	 0.396826
C	 2.8115619137	 1.0167155218	 1.9143524134	-0.311122
C	 2.9849433134	 1.5497378325	 3.20937156	-0.005954
N	 2.0527363631	 1.1191082293	 4.0535698889	-0.229612
N	 1.2799678486	 0.3137274277	 3.2977869338	-0.256081
H	 0.2239443027	 2.0138973202	 0.4969440021	 0.131149
H	-1.075596136	 1.6854441645	-0.6601741037	 0.118093
H	-1.354983899	 1.4712914148	 1.0738742895	 0.115833
H	-0.9601923209	-0.8004105852	-0.0211994209	 0.086297
H	 1.2475801037	-1.3108139822	-1.0863479698	 0.113715
H	 1.7980889807	 0.3953719388	-0.766798816	 0.119826
H	 0.8466378968	-1.6672923207	 1.345250071	 0.094904
H	 3.4231325556	 1.174956671	 1.0412121778	 0.100539
H	 3.7525440419	 2.2239862314	 3.5605297393	 0.107863
H	 0.4831790455	-0.1335770039	 3.7192180079	 0.267727
27.3614	106.6157	172.6846	220.8466	266.8819	345.5665	411.3248	495.2182	529.0636	623.9154	687.1185	735.1299	778.0054	804.9122	847.9342	881.6464	893.0972	932.6204	938.5626	1001.3425	1042.1496	1065.3548	1080.4448	1090.631	1113.3648	1140.109	1146.6762	1198.3808	1208.2574	1243.0632	1277.753	1366.8151	1382.9249	1406.1619	1426.7748	1439.48	1482.0463	1493.3627	1496.5504	1504.4167	1608.4256	3031.6739	3090.2383	3110.4841	3123.5237	3134.9802	3142.3707	3219.5966	3241.603	3270.4519	3667.5113
CC1CC1C1=CC=NN1	C[C@H]1C[C@H]1c1ccn[nH]1	
InChI=1S/C7H10N2/c1-5-4-6(5)7-2-3-8-9-7/h2-3,5-6H,4H2,1H3,(H,8,9)	InChI=1S/C7H10N2/c1-5-4-6(5)7-2-3-8-9-7/h2-3,5-6H,4H2,1H3,(H,8,9)/t5-,6+/m0/s1
