25
gdb 105517	1.81531	1.45591	1.163	1.5113	87.79	-0.2375	0.0699	0.3075	1290.2	0.227351	-389.485498	-389.474808	-389.473864	-389.521452	39.879	
C	-1.7236538673	 0.199573028	-0.6215227365	-0.396331
C	-0.2142220007	 0.2148462485	-0.3498571421	-0.228125
C	 0.6851779469	-0.5360416522	-1.3411210262	 0.426033
C	 0.7622820176	 0.1024213543	-2.7570586316	-0.33552
C	 2.2075894379	 0.464808835	-2.3743843047	-0.073546
O	 2.073864568	-0.1390214645	-1.0750890839	-0.324256
C	 0.6291445878	-2.0791583261	-1.3407190449	 0.01863
C	 0.9675895458	-2.6590712656	 0.0392104607	-0.410341
C	-0.6639009245	-2.6847550881	-1.9071869941	-0.411224
H	-1.9508780868	 0.4699370703	-1.6586542409	 0.114849
H	-2.1768306708	-0.7745507043	-0.4265250244	 0.123081
H	-2.2268246195	 0.9269622236	 0.0231186503	 0.115388
H	 0.1353057301	 1.2537007991	-0.3587414944	 0.099646
H	-0.0103852811	-0.1550592769	 0.6611774427	 0.105197
H	 0.6586265935	-0.5963471376	-3.5891235351	 0.105071
H	 0.0954364719	 0.9510680696	-2.9197983426	 0.104786
H	 2.9930556839	-0.0146045949	-2.9720977911	 0.098754
H	 2.4279972272	 1.5376291998	-2.3073458822	 0.098563
H	 1.4431271752	-2.3701267143	-2.0186910636	 0.072572
H	 0.1614210283	-2.4841377297	 0.7603181093	 0.110272
H	 1.1175174174	-3.7416558912	-0.0259286343	 0.106444
H	 1.88384921	-2.2094277596	 0.4303229934	 0.135475
H	-1.4955939039	-2.6183976813	-1.2008989962	 0.119951
H	-0.9741604948	-2.1998366357	-2.838569158	 0.111392
H	-0.5120054023	-3.7471927861	-2.1245124396	 0.113239
37.4502	72.2017	126.2308	195.9292	207.4653	213.1581	260.1612	275.0714	309.1607	324.2858	372.9933	416.9694	463.0342	503.4299	647.9155	776.1908	785.7571	839.6357	869.2896	925.3638	926.7793	950.3297	964.3571	982.4457	1009.5725	1024.0062	1035.5671	1072.0093	1109.1793	1145.1891	1163.6167	1179.7324	1211.9215	1213.6812	1254.6092	1274.4194	1325.2833	1342.3363	1345.3022	1362.9213	1392.3267	1394.9191	1410.5765	1419.484	1478.7979	1486.1866	1490.8666	1496.1812	1502.3262	1505.1448	1511.9029	1521.8401	1532.2704	3005.7581	3010.0907	3032.9418	3036.6552	3038.1574	3041.3306	3045.2474	3071.2208	3073.8728	3094.4391	3098.2374	3100.1925	3110.7343	3121.8498	3126.9282	3129.9176
CCC1(CCO1)C(C)C	CC[C@]1(CCO1)C(C)C	
InChI=1S/C8H16O/c1-4-8(7(2)3)5-6-9-8/h7H,4-6H2,1-3H3	InChI=1S/C8H16O/c1-4-8(7(2)3)5-6-9-8/h7H,4-6H2,1-3H3/t8-/m0/s1
