16
gdb 123586	4.22607	1.61441	1.40229	2.1947	73.98	-0.2133	0.0263	0.2395	914.1856	0.129545	-396.863381	-396.857405	-396.856461	-396.893663	24.805	
N	-0.0426214885	 1.3635353133	-0.0153703975	-0.229997
C	 1.222736394	 1.8195599743	-0.0259436869	-0.220672
C	 2.1376449188	 0.7575546835	-0.0162339418	 0.244157
C	 1.3513631257	-0.3682364882	 0.000806365	 0.454913
N	 2.177023572	-1.5620785214	 0.0124570373	-0.245756
C	 3.2222715525	-1.0419074717	 1.0319023262	-0.167581
C	 3.5156474283	 0.0890576804	-0.0131880141	-0.197401
C	 3.2143804266	-1.0674949318	-1.0275774893	-0.167578
N	 0.065263935	 0.0043555201	 0.0011736762	-0.392077
H	 1.3858498993	 2.8870783564	-0.0398706136	 0.109074
H	 2.8021397603	-0.7606571167	 1.9990327806	 0.117992
H	 4.0205675766	-1.7808509346	 1.1462404796	 0.111254
H	 4.4333840218	 0.6743879559	-0.0239806016	 0.079023
H	 4.0118531006	-1.8091200403	-1.1296363287	 0.111254
H	 2.7868232873	-0.8103173575	-1.9981486842	 0.117992
H	-0.7709842702	-0.5546843117	 0.011400753	 0.275402
120.9819	307.0895	419.2629	505.5425	520.0908	560.3496	669.5314	673.6814	717.9696	752.6653	808.9128	820.2015	827.8134	881.9986	907.699	965.0231	1002.964	1024.4648	1042.3529	1070.6394	1091.4353	1110.9875	1181.1818	1189.4552	1224.8337	1237.7673	1243.0411	1294.7908	1308.7799	1349.079	1470.7493	1487.5681	1521.5611	1547.433	1567.501	3052.5259	3063.021	3132.3862	3135.9513	3137.2171	3244.3482	3672.7236
N1=CC2=C(N3CC2C3)N1	n1cc2c(N3C[C@H]2C3)[nH]1	
InChI=1S/C6H7N3/c1-5-4-2-9(3-4)6(5)8-7-1/h1,4H,2-3H2,(H,7,8)	InChI=1S/C6H7N3/c1-5-4-2-9(3-4)6(5)8-7-1/h1,4H,2-3H2,(H,7,8)
