17
gdb 10643	2.65713	1.81921	1.33207	3.7136	70.04	-0.2712	0.0198	0.2911	984.9807	0.140381	-363.854395	-363.84561	-363.844666	-363.887532	31.361	
C	-0.2957933144	 1.3092130865	 0.1095649078	-0.260968
O	 0.2504797635	 0.0084138575	-0.072919247	-0.272389
C	 0.7665571293	-0.5592136926	 1.085165895	 0.279159
C	-0.1927780851	-1.205038248	 2.0771437321	-0.343482
C	 0.6732322586	-2.068636544	 1.1970143365	-0.058872
C	 0.0855975607	-2.8732532088	 0.0601287272	-0.405748
C	 1.9499051765	 0.0964113989	 1.6070758229	 0.251268
N	 2.8878471891	 0.635266479	 2.0175041231	-0.353055
H	 0.470643221	 2.0215229137	 0.440278872	 0.137963
H	-0.6821323341	 1.6210665617	-0.8622499538	 0.137241
H	-1.1134940021	 1.2998000681	 0.8424946274	 0.115556
H	 0.0257658361	-1.1313344326	 3.1359399154	 0.136536
H	-1.2416843524	-1.119496347	 1.8126422895	 0.13103
H	 1.5244125997	-2.5272963497	 1.691424049	 0.115331
H	-0.714188559	-2.323504603	-0.4392390202	 0.134606
H	 0.8489858413	-3.1086703827	-0.6877230964	 0.131757
H	-0.3220927286	-3.816711117	 0.4371132795	 0.124066
107.8446	142.6423	159.1752	172.8845	186.2131	214.2726	302.3551	369.9017	414.6406	496.1814	577.1241	608.1413	669.9626	804.341	897.4651	920.7686	934.8765	999.7507	1062.0883	1068.0726	1106.4804	1140.6979	1184.5608	1195.1376	1214.9968	1249.6346	1287.9102	1399.6513	1420.1261	1472.4114	1480.8078	1488.5532	1492.2011	1501.2237	1508.1362	2344.1248	3006.0062	3044.2458	3067.5847	3105.8156	3134.4482	3136.0695	3138.4472	3159.7993	3232.1616
COC1(CC1C)C#N	CO[C@]1(C[C@H]1C)C#N	
InChI=1S/C6H9NO/c1-5-3-6(5,4-7)8-2/h5H,3H2,1-2H3	InChI=1S/C6H9NO/c1-5-3-6(5,4-7)8-2/h5H,3H2,1-2H3/t5-,6-/m1/s1
