14
gdb 131127	3.93008	1.08018	0.95324	2.8431	63.77	-0.2567	-0.0426	0.2141	1179.5633	0.101405	-470.0046	-469.996858	-469.995914	-470.037848	27.738	
O	-0.116665703	 1.4445751194	 0.0563121296	-0.429975
C	 0.0072778728	 0.0502282543	 0.0423423857	-0.043989
C	 0.7940520246	-0.3956524057	-1.1889244938	 0.130401
O	 1.1662254126	 0.4064529246	-2.0093608738	-0.256964
C	 0.6955456698	-0.4466304462	 1.2819851028	 0.27578
C	 1.3285206414	 0.2779490138	 2.2628658737	-0.154416
N	 1.7741856838	-0.6729455511	 3.1164331563	-0.154589
N	 1.4493765483	-1.9103053282	 2.7020044887	-0.107599
N	 0.7923965991	-1.7722050691	 1.5855444343	-0.262926
H	 0.2929105126	 1.7440320948	-0.7725157981	 0.297737
H	-0.9805901436	-0.4390132771	-0.0291896408	 0.120601
H	 0.999483794	-1.4786565599	-1.2706905755	 0.131012
H	 1.4706526194	 1.3332714331	 2.4122414585	 0.167579
H	 2.2804426482	-0.5620162628	 3.9806862824	 0.287348
53.9711	92.9765	167.2798	236.1659	311.6224	371.1915	437.5947	501.7016	591.8876	666.6782	700.7044	740.6907	788.3303	811.2831	877.6455	986.1782	1029.9323	1040.5901	1056.2018	1126.3022	1153.8048	1252.2368	1258.9873	1286.4957	1334.7484	1356.0584	1386.6338	1432.8843	1488.225	1591.8608	1814.2249	2951.0202	2981.2352	3306.7508	3657.6004	3669.8476
OC(C=O)C1=CNN=N1	O[C@@H](C=O)c1c[nH]nn1	
InChI=1S/C4H5N3O2/c8-2-4(9)3-1-5-7-6-3/h1-2,4,9H,(H,5,6,7)	InChI=1S/C4H5N3O2/c8-2-4(9)3-1-5-7-6-3/h1-2,4,9H,(H,5,6,7)/t4-/m0/s1
