18
gdb 32530	1.8797	1.6923	0.93953	2.5657	74.71	-0.2064	0.0231	0.2295	1237.5217	0.148541	-439.092198	-439.083375	-439.082431	-439.125957	32.654	
C	-0.5063490903	 1.0410485979	-0.1434062064	-0.329925
N	-0.1822142881	-0.3785130813	-0.1088986662	-0.400419
C	 0.7053185183	-0.8416008353	-1.0941115794	 0.159429
C	 1.269926381	-0.1769449448	-2.1414779022	-0.083355
O	 1.996764651	-1.0477216564	-2.9084438133	-0.156792
C	 1.886415036	-2.2689646629	-2.3320072715	-0.097164
C	 1.1105169468	-2.2217528616	-1.2191403561	 0.144156
C	 0.6631509493	-3.3209829257	-0.3057291689	-0.188308
O	-0.7536980697	-3.4339393387	-0.2486527027	-0.423969
H	 0.3779156577	 1.6934455096	-0.0671959454	 0.114004
H	-1.0149221537	 1.2694685663	-1.0854372031	 0.139334
H	-1.1871290651	 1.2770967908	 0.6776063177	 0.127785
H	 0.1082084562	-0.6698560067	 0.8177425509	 0.24131
H	 1.2406569042	 0.8416551588	-2.4861746297	 0.129771
H	 2.4092393316	-3.0726697616	-2.8250334712	 0.138618
H	 1.0439371319	-4.2857696193	-0.6552196016	 0.114015
H	 1.0786214959	-3.1661093723	 0.7062015493	 0.082565
H	-1.103588493	-2.5360524069	-0.1799444302	 0.288945
76.9769	122.8909	147.4859	197.7474	223.7012	274.25	317.9631	430.7072	448.1897	495.0478	607.3687	627.5843	648.8696	686.7497	752.2474	780.5764	791.6272	898.0888	998.0063	1041.8067	1069.0628	1076.5365	1144.549	1160.8042	1191.6131	1204.8444	1227.0088	1265.3859	1325.3059	1360.8357	1399.0803	1445.3373	1459.6343	1481.3164	1491.5756	1511.7276	1521.8809	1593.0494	1670.2114	2935.0843	2979.9438	3074.1963	3074.5921	3123.4656	3269.3385	3291.7341	3530.4118	3755.4882
CNC1=COC=C1CO	CNc1cocc1CO	
InChI=1S/C6H9NO2/c1-7-6-4-9-3-5(6)2-8/h3-4,7-8H,2H2,1H3	InChI=1S/C6H9NO2/c1-7-6-4-9-3-5(6)2-8/h3-4,7-8H,2H2,1H3
