17
gdb 24085	6.69725	0.70381	0.66542	0.3754	80.62	-0.2246	0.0171	0.2418	1626.7855	0.135634	-384.684919	-384.676387	-384.675443	-384.719191	31.338	
C	 0.0011859612	-1.2470419266	 0.0240702512	-0.44265
C	-0.0206948248	-0.0464484869	 0.0810243067	 0.29663
C	-0.0075059028	 1.4094605069	 0.140654772	-0.340831
C	 1.3969134378	 2.008375148	-0.1308600514	-0.323991
C	 1.4094324842	 3.5046653395	-0.0483491823	 0.25065
C	 1.5555651652	 4.3854453289	-1.0752576741	-0.104569
O	 1.5000554032	 5.6700157021	-0.6317648115	-0.140556
C	 1.3118853071	 5.6109341677	 0.7121775667	 0.007372
C	 1.2478191346	 4.3208944681	 1.1276818579	-0.282329
H	 0.0050989148	-2.3076623435	-0.0226762076	 0.194244
H	-0.7172831712	 1.8195121237	-0.588064814	 0.135048
H	-0.3592991897	 1.7417793334	 1.1251748688	 0.133268
H	 2.1015526528	 1.5803746796	 0.5910039281	 0.121041
H	 1.7316443481	 1.6855244017	-1.1214847613	 0.116421
H	 1.7093538811	 4.2608733788	-2.1348940814	 0.13463
H	 1.249704491	 6.5602616466	 1.2180792445	 0.136195
H	 1.1114552375	 3.9803617519	 2.1428782277	 0.10943
57.9457	61.4391	96.4952	185.6967	303.3187	358.0483	365.2308	473.5818	618.3427	622.9336	640.8386	649.2052	723.4364	738.4159	766.6517	789.1775	834.4243	892.5975	966.3219	979.5923	1015.5288	1025.5197	1059.2731	1101.6213	1169.2319	1208.4502	1264.768	1276.3202	1293.9498	1311.3009	1370.5884	1411.2188	1472.2422	1492.1312	1537.508	1635.1388	2238.1574	3026.8013	3043.5441	3057.2296	3091.3504	3247.8838	3271.1955	3284.2751	3507.5522
C#CCCC1=COC=C1	C#CCCc1cocc1	
InChI=1S/C8H8O/c1-2-3-4-8-5-6-9-7-8/h1,5-7H,3-4H2	InChI=1S/C8H8O/c1-2-3-4-8-5-6-9-7-8/h1,5-7H,3-4H2
