17
gdb 124759	2.65203	1.46713	0.97565	2.0127	70.1	-0.2111	0.0386	0.2497	1166.8536	0.137356	-455.166942	-455.158564	-455.157619	-455.19997	31.895	
C	 0.2559319848	 1.1479817479	 1.1457587473	-0.403681
C	-0.2422119216	 0.5327975343	-0.1579130397	-0.012857
O	 0.7152203108	-0.4243636865	-0.6803404657	-0.437019
C	-1.5903858909	-0.1184949865	-0.048718018	 0.049108
C	-2.0205590941	-1.1456027671	-0.8755740916	 0.37991
O	-1.3973116685	-1.8010775492	-1.8672774421	-0.430078
N	-3.2826126812	-1.4528987462	-0.5135521133	-0.264499
N	-3.7329668187	-0.6824094554	 0.5160448507	-0.245135
C	-2.7084719708	 0.115195232	 0.7892151047	-0.096127
H	 1.2538043856	 1.5718041495	 1.0059827937	 0.126325
H	-0.4157124475	 1.9456813131	 1.4772552294	 0.131543
H	 0.2968848185	 0.3947563508	 1.9408383223	 0.117401
H	-0.2498711167	 1.3110954252	-0.9320099583	 0.108183
H	 0.8732266563	-1.0700147959	 0.0201217533	 0.285769
H	-0.4752715646	-1.4841951678	-1.8340762229	 0.309328
H	-3.8715597086	-2.1677916724	-0.9052637832	 0.275678
H	-2.8045684527	 0.8431969641	 1.5824072934	 0.106152
65.819	168.7764	193.2055	251.5725	295.925	321.1922	369.4811	439.934	463.6585	485.8792	518.9006	657.7144	675.5132	714.312	725.785	756.6593	877.3595	882.8583	947.042	1024.7554	1068.8545	1092.7396	1100.2085	1192.8923	1239.892	1259.246	1276.61	1354.7065	1369.1925	1403.6839	1410.3243	1418.7942	1462.1001	1490.4272	1493.7682	1604.5419	1635.1938	3020.8192	3035.1178	3106.1642	3124.0918	3233.9455	3606.2134	3679.1334	3777.5229
CC(O)C1=C(O)NN=C1	C[C@@H](O)c1c(O)[nH]nc1	
InChI=1S/C5H8N2O2/c1-3(8)4-2-6-7-5(4)9/h2-3,8H,1H3,(H2,6,7,9)	InChI=1S/C5H8N2O2/c1-3(8)4-2-6-7-5(4)9/h2-3,8H,1H3,(H2,6,7,9)/t3-/m1/s1
