13
gdb 129261	5.18849	1.07395	0.88978	0.336	73.39	-0.2592	-0.1021	0.1571	1193.1055	0.089111	-452.735389	-452.728078	-452.727134	-452.767585	26.816	
N	-0.1843336997	 1.1797567583	 0.5922517068	-0.512828
C	-0.0909308472	 0.0551678887	 0.0202190212	 0.410242
O	 0.9877660146	-0.200308365	-0.8456619446	-0.279724
N	 1.162794452	-1.3897771083	-1.5037746204	-0.100339
C	 0.2821423642	-2.3174623033	-1.309173087	 0.231609
C	 0.5476781119	-3.5742002834	-2.0605840634	 0.12211
O	-0.1756407057	-4.5375739042	-1.991458487	-0.252523
C	-0.8710186245	-2.1867264224	-0.4477117546	-0.150271
C	-1.0450023546	-1.0246668317	 0.1973035131	-0.124667
H	 0.5879412775	 1.7948744146	 0.332144773	 0.237892
H	 1.4619432649	-3.5441251834	-2.6831728819	 0.113159
H	-1.5431335147	-3.031307867	-0.3607628929	 0.154504
H	-1.8741527087	-0.824728433	 0.8644707376	 0.150835
77.1162	152.4304	196.6936	277.8913	380.8349	398.863	431.7248	523.8032	617.921	634.1234	735.5823	770.6765	792.0738	849.6967	886.2342	947.9128	1027.187	1030.973	1040.2241	1067.5684	1154.8121	1252.7473	1320.1933	1395.3991	1419.1589	1610.4726	1671.9104	1748.6502	1805.3518	2964.2081	3215.1336	3230.176	3487.2524
N=C1ON=C(C=O)C=C1	[NH]C1=C[CH]C(=NO1)C=O	
InChI=1S/C5H4N2O2/c6-5-2-1-4(3-8)7-9-5/h1-3,6H	InChI=1S/C5H4N2O2/c6-5-2-1-4(3-8)7-9-5/h1-3,6H
