22
gdb 61543	2.85509	1.00178	0.87266	3.8451	83.96	-0.2385	0.0299	0.2684	1428.3105	0.192952	-404.363166	-404.352971	-404.352027	-404.398879	37.168	
C	 0.0090602786	 1.4667063083	-0.1845528571	-0.351052
N	 0.0264040531	 0.0224359837	-0.0112228729	-0.026972
C	-0.0833154617	-0.5484895617	 1.3278347024	-0.270022
C	-1.4897968916	-0.951040112	 1.7577767855	 0.385829
C	-2.5304875611	 0.1520902354	 1.7597353534	-0.467727
C	-1.9479243819	-2.3499641325	 1.4193434301	-0.296612
C	-1.5701831587	-2.0018598519	 2.8400529218	-0.3052
C	 0.2491063754	-0.7790645597	-1.0922136251	 0.156554
O	 0.3667557648	-0.4069270565	-2.2414557971	-0.344551
H	 0.8133483827	 1.9349445352	 0.3961373974	 0.12292
H	 0.1614861119	 1.6723162601	-1.2442493491	 0.168249
H	-0.9436363476	 1.9013805559	 0.1331938177	 0.12636
H	 0.5679231651	-1.428576383	 1.3833652348	 0.111298
H	 0.3233484342	 0.1868490704	 2.033457221	 0.109719
H	-2.7134154106	 0.5300433212	 0.7485340052	 0.130523
H	-3.4849361976	-0.2145012703	 2.1495625403	 0.116267
H	-2.218827392	 0.9957274821	 2.387324036	 0.113299
H	-2.9974163013	-2.4992369814	 1.1895418814	 0.115755
H	-1.2795449105	-2.995949462	 0.8597046986	 0.113014
H	-0.6450126199	-2.4096031652	 3.2350867297	 0.110645
H	-2.3617246696	-1.9131129418	 3.5763317079	 0.113659
H	 0.3188737382	-1.8454646744	-0.8002455917	 0.068046
41.4536	79.0236	111.3568	147.1058	245.5742	251.7502	291.6519	299.7658	339.0423	349.3599	363.2595	421.8128	461.8423	707.3595	724.4397	785.3318	865.8679	874.2794	906.8231	940.6129	956.4155	991.6566	1030.0023	1043.9884	1072.6551	1081.298	1088.3642	1124.4343	1159.7945	1186.16	1221.2553	1271.4143	1322.8237	1350.2557	1394.4746	1421.7759	1429.6779	1439.7171	1444.892	1468.2369	1478.501	1493.4891	1495.0358	1506.0497	1512.7643	1522.279	1794.714	2936.2573	3019.87	3023.6785	3027.2098	3064.9734	3083.9414	3089.0989	3103.2894	3127.0811	3131.8368	3155.7075	3204.676	3218.6591
CN(CC1(C)CC1)C=O	CN(CC1(C)CC1)C=O	
InChI=1S/C7H13NO/c1-7(3-4-7)5-8(2)6-9/h6H,3-5H2,1-2H3	InChI=1S/C7H13NO/c1-7(3-4-7)5-8(2)6-9/h6H,3-5H2,1-2H3
