18
gdb 59014	3.62959	1.0875	0.86601	2.9353	75.6	-0.2277	-0.0046	0.2231	1320.8474	0.148013	-435.295832	-435.286872	-435.285928	-435.32985	33.277	
C	 0.0229606253	 1.527418544	 0.5151795409	-0.399588
C	-0.0831660402	 0.1109380517	-0.0350281837	 0.019785
O	 0.7590630546	-0.820628333	 0.6467822371	-0.431808
C	-1.5078999793	-0.3979722665	-0.0517022617	 0.350554
N	-2.5668526916	 0.317818588	-0.0870322872	-0.316686
C	-3.6914584134	-0.6273420114	-0.1338010442	-0.239843
C	-3.0863111016	-2.0300932265	-0.0786806788	 0.378013
N	-3.725519327	-3.1268059863	-0.054252639	-0.552209
N	-1.7158694477	-1.7731187702	-0.0641805945	-0.36699
H	 1.056219167	 1.8765172206	 0.4495451306	 0.123448
H	-0.6290932878	 2.2001085609	-0.045296751	 0.154049
H	-0.2990327435	 1.5593090961	 1.5620017717	 0.117716
H	 0.2813992512	 0.0935876888	-1.0704504593	 0.121723
H	 0.617235846	-0.7023585573	 1.593130767	 0.286478
H	-4.3784442406	-0.4583030343	 0.7019186626	 0.14298
H	-4.2713203047	-0.4896139059	-1.0533012573	 0.144193
H	-3.0978677993	-3.9319084792	-0.0232625366	 0.206916
H	-0.9765578873	-2.4434723896	 0.0673423935	 0.261268
53.7744	100.7809	175.5029	196.5351	228.6285	314.4803	337.7807	404.1542	438.6256	499.2935	517.3348	522.6031	600.3513	684.6597	759.4136	855.8573	883.5935	898.1337	973.0417	984.3973	1016.535	1050.7939	1079.2265	1091.0819	1141.9491	1181.6926	1202.0411	1278.5577	1291.7173	1320.6125	1348.1618	1403.9362	1412.3678	1444.5894	1454.8827	1485.6249	1490.7714	1702.8037	1761.9671	3030.9097	3044.1057	3050.153	3082.5567	3116.4153	3145.7633	3455.6388	3661.3092	3795.2181
CC(O)C1=NCC(=N)N1	C[C@@H](O)C1=NC[C]([NH])N1	
InChI=1S/C5H9N3O/c1-3(9)5-7-2-4(6)8-5/h3,9H,2H2,1H3,(H2,6,7,8)	InChI=1S/C5H9N3O/c1-3(9)5-7-2-4(6)8-5/h3,9H,2H2,1H3,(H2,6,7,8)/t3-/m1/s1
