25
gdb 89148	2.23886	1.39279	1.15158	0.1491	92.58	-0.2524	0.0818	0.3342	1270.3264	0.228454	-352.346717	-352.336978	-352.336034	-352.38057	38.336	
C	 0.2221428287	 1.6630580336	-0.0490288239	-0.414899
C	 0.0778252078	 0.149887389	 0.0220615224	 0.055943
C	 0.9263204537	-0.7507354544	-0.926649291	-0.317167
C	 1.182817313	-1.7521938571	 0.2499495744	 0.373669
C	 0.5678762667	-3.1266750336	 0.0929342851	-0.498164
C	 2.5780060869	-1.6378326875	 0.9273169294	-0.000551
C	 3.8562469963	-1.5990766742	 0.1013221248	-0.416942
C	 2.0943570924	-0.3510580387	 1.6618944049	-0.267096
C	 0.626843496	-0.6498504455	 1.2295938637	-0.077462
H	 1.2654836577	 1.9785181048	 0.056621966	 0.112978
H	-0.1383297907	 2.0450428627	-1.0110081385	 0.111813
H	-0.3560359967	 2.1557273507	 0.7410732147	 0.111296
H	-0.9806769376	-0.1098600546	-0.0991155369	 0.068248
H	 0.3975860152	-1.1672710449	-1.7883629713	 0.092871
H	 1.8309200122	-0.2587732807	-1.295938517	 0.092597
H	 1.0967082923	-3.7122434224	-0.6701168299	 0.112935
H	 0.6078833108	-3.6915214853	 1.0314842632	 0.108915
H	-0.482574548	-3.0651007286	-0.2149270464	 0.110602
H	 2.6558203747	-2.4532175447	 1.6578853023	 0.063546
H	 3.8463847331	-0.7833179395	-0.6291794752	 0.112927
H	 4.7307526327	-1.4493525365	 0.7446649796	 0.112502
H	 4.0076042999	-2.5357943797	-0.4473852244	 0.111644
H	 2.2742330139	-0.3257889286	 2.7391723116	 0.095031
H	 2.5016917198	 0.5710287645	 1.2358572291	 0.093654
H	-0.0623653206	-0.879897499	 2.0455392333	 0.051112
76.806	177.6294	195.0331	213.4355	218.117	238.5124	262.4855	293.2208	347.821	383.1317	467.7647	508.2141	556.442	608.1216	729.574	774.3333	827.6972	868.1051	879.0526	889.884	923.1701	925.308	958.2388	996.6596	1030.8627	1046.8863	1100.0782	1108.7205	1129.9465	1148.1546	1159.5981	1167.7177	1195.5886	1221.5736	1251.6093	1258.8769	1273.6151	1284.3333	1318.62	1334.7333	1370.2937	1379.1631	1405.3392	1410.6854	1411.3844	1481.7003	1487.2132	1490.7141	1492.8631	1494.5116	1496.6772	1499.3275	1504.512	3011.4133	3015.7046	3022.9844	3025.6857	3025.8363	3050.671	3053.8308	3072.7765	3073.695	3083.4504	3086.9131	3087.507	3092.7994	3095.7455	3100.3109	3106.5377
CC1CC2(C)C(C)CC12	C[C@H]1C[C@@]2(C)[C@@H](C)C[C@@H]12	
InChI=1S/C9H16/c1-6-5-9(3)7(2)4-8(6)9/h6-8H,4-5H2,1-3H3	InChI=1S/C9H16/c1-6-5-9(3)7(2)4-8(6)9/h6-8H,4-5H2,1-3H3/t6-,7-,8-,9-/m0/s1
