21
gdb 109305	2.20593	1.38611	1.03945	0.8416	80.56	-0.2351	0.026	0.2612	1244.9168	0.181196	-424.238075	-424.228222	-424.227278	-424.272634	36.954	
C	-0.0387426901	 1.5770665992	-0.0535256826	-0.422308
C	 0.0229749749	 0.0542089995	 0.0467077754	 0.290272
O	-1.3489569958	-0.3572527396	 0.2002776735	-0.469125
C	 0.7002578589	-0.6079114223	-1.1873444004	-0.260338
C	 1.5417839161	-1.7888671439	-0.6451482003	-0.272655
C	 1.6292128177	-1.4986969561	 0.8328138311	-0.169593
C	 0.8461222478	-0.4870408681	 1.2088192924	 0.266742
C	 0.6486002192	 0.0293868345	 2.5977544191	-0.186163
O	 1.3340403762	-0.8014914056	 3.5203143594	-0.419175
H	 0.9659766976	 2.0031882073	-0.1224447421	 0.113751
H	-0.603668206	 1.868695965	-0.9441453182	 0.12254
H	-0.545127134	 2.0043806322	 0.8167233322	 0.119187
H	-1.3442029869	-1.306411492	 0.3664440956	 0.274355
H	-0.0590200135	-0.9042184552	-1.9154489109	 0.103129
H	 1.3560625598	 0.1181243079	-1.6773298263	 0.101519
H	 1.0702944946	-2.7643893012	-0.8288331978	 0.103027
H	 2.5289720337	-1.8430750832	-1.1185417604	 0.10606
H	 2.2440780914	-2.0743932053	 1.5140909546	 0.109012
H	 1.0100851603	 1.0705537304	 2.6591939301	 0.096783
H	-0.433734414	 0.0641350382	 2.8074534713	 0.104678
H	 1.229556842	-0.4206138916	 4.3966543542	 0.288299
70.8038	87.5216	180.2517	198.0632	237.8922	249.146	259.069	310.1091	346.3815	362.4226	375.9525	521.559	586.9779	590.4781	695.4515	750.7899	799.828	857.0997	918.6367	927.9259	933.0851	1001.5052	1026.0607	1047.3395	1050.816	1084.7676	1114.0349	1143.4082	1199.4179	1204.5295	1240.0266	1246.705	1255.2502	1292.363	1319.2887	1329.1173	1384.0655	1411.6979	1462.0951	1476.57	1484.4856	1497.1721	1499.6854	1513.0038	1722.8846	2949.8766	2972.9914	3010.4084	3040.9984	3046.2926	3060.3449	3105.4304	3112.8178	3121.3704	3210.9796	3802.212	3836.4074
CC1(O)CCC=C1CO	C[C@@]1(O)CCC=C1CO	
InChI=1S/C7H12O2/c1-7(9)4-2-3-6(7)5-8/h3,8-9H,2,4-5H2,1H3	InChI=1S/C7H12O2/c1-7(9)4-2-3-6(7)5-8/h3,8-9H,2,4-5H2,1H3/t7-/m1/s1
