21
gdb 86415	2.12805	1.88979	1.42815	2.4839	76.49	-0.241	0.0711	0.3121	1029.6185	0.184673	-424.22214	-424.214176	-424.213232	-424.254216	32.404	
C	-0.3928615498	 1.4973727952	 0.1104481254	-0.395271
C	-0.0288215003	 0.0112580567	 0.0075273061	 0.02149
C	 0.772940452	-0.3425130077	-1.282033425	-0.271609
C	 2.3084263436	-0.3961576753	-1.0609999601	 0.151757
O	 2.9464593439	 0.8480759857	-1.3003490889	-0.443748
C	 2.5964844569	-0.8203270231	 0.3843937589	 0.059523
C	 1.5349475312	-1.7687953592	 0.9689823578	-0.275533
C	 0.7901336066	-0.4402551608	 1.2220054377	 0.099195
O	 2.0749724383	 0.2650933715	 1.214295084	-0.314059
H	 0.5048748119	 2.1203793248	 0.1453236035	 0.125496
H	-0.9898624361	 1.8121217738	-0.7508623313	 0.114819
H	-0.9760559359	 1.7005189143	 1.0156305564	 0.109302
H	-0.9616531367	-0.5685458346	 0.0061863023	 0.071363
H	 0.4434661217	-1.319674336	-1.6510475372	 0.096735
H	 0.5678843693	 0.3756109196	-2.0808642559	 0.108803
H	 2.7537488969	-1.1044360746	-1.7690349613	 0.07795
H	 2.7811548277	 1.3761138262	-0.5072270891	 0.288038
H	 3.6582828938	-1.0018011587	 0.5677389695	 0.083097
H	 1.0757243935	-2.5152553168	 0.318236666	 0.103796
H	 1.8729881485	-2.2323473736	 1.8968974571	 0.113242
H	 0.2629375131	-0.3000035574	 2.1701119441	 0.075614
104.7246	177.1277	219.0132	291.2039	353.5204	385.4058	410.4309	433.3905	475.6892	512.1371	607.2459	721.2867	736.9649	806.4327	860.0158	885.0791	909.0839	922.1484	943.7895	952.1406	996.5079	1025.0054	1039.8193	1050.1249	1094.821	1113.0948	1134.2741	1154.6276	1215.1783	1224.3324	1254.9656	1271.2552	1296.2937	1312.6617	1329.4648	1332.7082	1358.9037	1367.9808	1385.2185	1409.9913	1439.798	1479.6997	1495.0005	1499.6284	1503.7122	3009.8473	3034.5611	3038.1445	3052.651	3067.2802	3078.052	3089.0015	3092.5348	3100.0455	3119.4045	3137.5446	3751.088
CC1CC(O)C2CC1O2	C[C@H]1C[C@@H](O)[C@@H]2C[C@H]1O2	
InChI=1S/C7H12O2/c1-4-2-5(8)7-3-6(4)9-7/h4-8H,2-3H2,1H3	InChI=1S/C7H12O2/c1-4-2-5(8)7-3-6(4)9-7/h4-8H,2-3H2,1H3/t4-,5+,6+,7-/m0/s1
