13
gdb 132206	2.0768	1.86064	0.9818	4.6856	65.83	-0.2297	-0.0099	0.2198	1082.3201	0.090154	-494.070402	-494.063024	-494.06208	-494.102326	28.019	
N	 0.0863491657	 1.3026327098	 0.1366405058	-0.563954
C	-0.0446602996	-0.0453332859	 0.0477848454	 0.493171
N	-1.1664001834	-0.6502168249	 0.0231352944	-0.388879
C	-1.1971513094	-2.0588430683	-0.0040961278	 0.345562
N	-2.2794827936	-2.7376640953	-0.017623529	-0.537912
C	 0.1028563945	-2.7341116876	-0.0231347234	-0.360552
C	 1.2007049378	-1.9867521919	-0.0080754507	 0.378958
F	 2.4366150792	-2.4249877066	-0.0261829684	-0.038067
O	 1.2045893419	-0.6323279863	 0.0296087345	-0.239283
H	 0.966742831	 1.7116667589	-0.1286270326	 0.275666
H	-0.7497831385	 1.8351656296	-0.0365320257	 0.28212
H	-3.0718539714	-2.0925573973	-0.0012787381	 0.213997
H	 0.1590210558	-3.8118222843	-0.0518182644	 0.139171
129.8995	180.8314	206.654	325.4939	361.8564	375.6304	477.1713	499.8211	543.9707	576.504	639.3928	652.2784	689.1185	749.8868	858.1175	912.9746	919.913	938.4648	1020.8162	1101.1794	1206.9094	1238.4922	1282.7404	1397.8216	1414.1091	1608.8728	1682.0963	1729.8047	1786.6495	3254.2132	3464.2562	3610.746	3736.4292
NC1=NC(=N)C=C(F)O1	NC1=NC(=C[C@H](F)O1)[NH]	
InChI=1S/C4H4FN3O/c5-2-1-3(6)8-4(7)9-2/h1H,(H3,6,7,8)	InChI=1S/C4H5FN3O/c5-2-1-3(6)8-4(7)9-2/h1-2,6H,(H2,7,8)/t2-/m1/s1
