17
gdb 29978	3.19037	1.65031	1.153	3.0438	81.43	-0.1901	-0.0078	0.1823	1044.0655	0.139186	-380.914281	-380.907071	-380.906127	-380.945738	28.582	
C	-0.0882199634	 1.5782899512	 0.0182403985	-0.388838
C	 0.0214193819	 0.0438670008	 0.0297772853	-0.187332
C	 0.8305575907	-0.5246185107	-1.1361168188	-0.081928
C	 1.8658968146	-1.2855190039	-0.714940751	-0.220376
C	 1.8276425331	-1.283838049	 0.7366050576	 0.302281
C	 0.7794063406	-0.5270408804	 1.1957517341	 0.280656
N	 0.7305406522	-0.5038273281	 2.5612519597	-0.347859
C	 1.7538624045	-1.2522476737	 2.9307604389	-0.022788
N	 2.4598234572	-1.7558383359	 1.8582267733	-0.390194
H	 0.9051058896	 2.0359887348	 0.0316026699	 0.122537
H	-0.6166730736	 1.9278521474	-0.8743592247	 0.10983
H	-0.6348801684	 1.9246627821	 0.8996914186	 0.133072
H	-0.9951120175	-0.3752728452	-0.011818015	 0.104799
H	 0.5798155303	-0.3186364895	-2.1689908388	 0.097145
H	 2.5826774909	-1.7982236302	-1.3429676293	 0.099328
H	 2.0409173696	-1.4711768711	 3.9482893266	 0.125184
H	 3.2711289776	-2.3478006885	 1.911330795	 0.264483
131.3453	163.2455	248.7962	288.5482	361.6493	475.6838	497.4058	549.4283	650.0167	656.4546	689.4388	703.0217	757.6195	789.3202	810.3178	908.6283	925.2203	954.6589	1019.0337	1063.2858	1076.3699	1092.995	1093.9637	1163.9434	1217.6204	1260.1283	1284.0005	1334.0007	1373.8798	1387.9617	1406.2287	1464.7471	1496.005	1498.101	1511.0066	1563.3887	1599.7924	3004.9986	3038.3823	3109.6636	3119.4317	3205.3107	3227.3949	3252.7897	3670.4149
CC1C=CC2=C1N=CN2	C[C@H]1C=Cc2c1nc[nH]2	
InChI=1S/C7H8N2/c1-5-2-3-6-7(5)9-4-8-6/h2-5H,1H3,(H,8,9)	InChI=1S/C7H8N2/c1-5-2-3-6-7(5)9-4-8-6/h2-5H,1H3,(H,8,9)/t5-/m0/s1
