17
gdb 62287	3.37157	1.51801	1.32749	1.1434	77.58	-0.249	0.037	0.286	992.4371	0.135141	-384.599104	-384.591424	-384.59048	-384.630777	31.077	
O	-0.0417107586	 1.3951859794	-0.0645869766	-0.481312
C	-0.011987414	-0.0189466913	-0.0614354581	 0.274245
C	 0.8264943356	-0.5249484903	 1.0230464097	 0.262007
C	 1.5574067587	-0.8913908625	 1.9051323906	-0.452745
C	-1.3784261279	-0.6906252841	-0.1206798523	-0.10771
C	-1.8016674282	-0.7485948447	-1.5928920157	-0.08929
C	-0.6944767498	-0.0931484993	-2.4177392194	-0.244309
C	 0.2861999059	-0.7603137123	-1.4205784206	-0.126332
C	-0.8540660938	-1.779108571	-1.0320354172	-0.066974
H	 0.8289866277	 1.7141680083	 0.1958116435	 0.281794
H	 2.1885454713	-1.2247600668	 2.6916718475	 0.195218
H	-2.0919993311	-0.7797141583	 0.6873414992	 0.093056
H	-2.8462355732	-0.8757484893	-1.8470072139	 0.089231
H	-0.6182725047	-0.5486574132	-3.4086728032	 0.094162
H	-0.66306717	 0.9971825639	-2.4912560349	 0.107932
H	 1.3123732906	-1.0003661278	-1.6887394296	 0.075832
H	-0.8929423386	-2.8535717007	-0.944180859	 0.095193
137.5052	145.0082	240.3977	274.7412	314.876	455.9794	484.5087	513.028	527.2735	614.5473	661.6411	668.8731	756.9047	789.6785	799.2044	821.8753	853.0483	914.4294	929.4765	990.9136	994.0433	1009.0548	1038.6588	1045.9803	1076.7114	1107.2095	1120.4367	1156.3746	1176.7108	1184.2362	1212.9297	1264.8801	1300.2248	1353.9601	1389.1839	1489.7116	2229.335	3056.2625	3113.4687	3145.4646	3195.9529	3209.7492	3242.085	3499.9059	3813.6315
OC1(C#C)C2C3CC1C23	O[C@@]1(C#C)[C@H]2[C@H]3C[C@@H]1[C@@H]23	
InChI=1S/C8H8O/c1-2-8(9)5-3-4-6(5)7(4)8/h1,4-7,9H,3H2	InChI=1S/C8H8O/c1-2-8(9)5-3-4-6(5)7(4)8/h1,4-7,9H,3H2/t4-,5+,6-,7-,8+/m0/s1
