15
gdb 67098	2.72781	2.19032	1.8154	0.797	68.26	-0.2216	-0.0074	0.2142	805.3021	0.112226	-420.483914	-420.477586	-420.476641	-420.514082	26.837	
O	 0.2399197669	 1.3778900494	-0.0991514566	-0.463856
C	 0.1744078995	 0.0154843223	-0.0710140174	 0.423399
C	 0.3916299487	-0.9734313909	 1.1100718124	-0.101169
O	-1.0600219745	-0.9374264862	 1.5210016715	-0.402705
C	-1.0763347772	-0.9313216727	 0.0662114373	 0.348167
C	-1.8462098108	-0.8887822444	-1.2287787893	-0.251145
C	-0.8242794449	-0.877385884	-2.1051659713	-0.071221
C	 0.4849476652	-0.919371148	-1.2713886393	-0.222901
C	 0.1232986897	-1.8921811123	-0.0983275908	-0.058834
H	-0.1619322558	 1.7137798362	 0.7124485411	 0.298173
H	 1.1134333449	-1.0301464291	 1.9227788749	 0.09694
H	-2.9107855843	-0.8510098228	-1.3982797642	 0.122795
H	-0.8779110169	-0.8466810504	-3.1838215188	 0.11064
H	 1.4406110102	-0.9370736523	-1.7932833359	 0.075212
H	 0.0514148393	-2.9773059649	-0.1049052937	 0.096504
225.5503	257.8913	347.0348	411.7071	457.8592	505.0593	596.0519	665.2787	691.7535	716.1178	757.1104	782.4102	824.4343	839.3903	867.2742	882.3491	887.6727	918.5953	957.6394	978.6894	1017.8009	1067.9355	1084.93	1128.1313	1151.9637	1187.5823	1233.2244	1237.7572	1250.656	1314.1426	1349.4304	1396.2162	1572.2771	3126.4529	3137.0356	3158.5047	3235.1882	3264.6603	3777.7168
OC12C3OC11C=CC2C31	O[C@@]12[C@H]3O[C@]41C=C[C@@H]2[C@@H]34	
InChI=1S/C7H6O2/c8-7-3-1-2-6(7)4(3)5(7)9-6/h1-5,8H	InChI=1S/C7H6O2/c8-7-3-1-2-6(7)4(3)5(7)9-6/h1-5,8H/t3-,4+,5+,6-,7+/m1/s1
