16
gdb 23447	3.65341	1.20965	1.06949	1.1885	68.22	-0.2564	-0.0167	0.2397	1117.3848	0.124501	-474.958657	-474.951049	-474.950105	-474.991316	28.611	
O	-0.0527108735	 1.3119019955	 0.064980851	-0.384482
N	 0.0549715583	-0.077495109	 0.2070546452	-0.228959
C	-1.0441964834	-0.6508253979	-0.0489518683	 0.389469
C	-2.4478222246	-0.2248758239	-0.437211953	-0.36188
C	-2.8537398235	-1.7343094572	-0.4281131607	 0.077916
O	-3.0210345413	-2.3434325541	-1.6915662422	-0.250949
C	-1.7242731034	-2.639403344	-2.1724568467	 0.007429
O	-0.9282737314	-2.9568312647	-1.0507288083	-0.241721
C	-1.3966454608	-2.1370307335	 0.000840162	-0.012808
H	 0.8364659345	 1.6113679112	 0.2854450658	 0.310853
H	-2.9524145794	 0.3933834888	 0.3114889991	 0.132385
H	-2.5410962355	 0.2673121015	-1.4097336443	 0.135951
H	-3.6948477876	-2.0109622546	 0.2069891593	 0.097609
H	-1.7769483889	-3.5092850198	-2.8316024042	 0.127189
H	-1.3030997938	-1.7748334352	-2.7134915795	 0.096393
H	-1.2206570258	-2.6507753632	 0.9469087849	 0.105606
57.1928	151.5726	196.7947	245.7323	348.5666	395.749	416.5511	490.4063	574.8473	671.5777	731.7828	765.2137	800.3708	852.5016	930.1117	950.6097	973.8144	990.0133	1020.2459	1076.6417	1097.2627	1128.2842	1157.9533	1180.7045	1194.8353	1222.6979	1248.0002	1256.4305	1328.9418	1346.981	1404.7936	1424.7174	1445.6807	1538.3984	1774.7048	2956.7231	3056.3864	3101.6585	3103.099	3108.5416	3122.393	3810.3185
ON=C1CC2OCOC12	ON=C1C[C@H]2OCO[C@@H]12	
InChI=1S/C5H7NO3/c7-6-3-1-4-5(3)9-2-8-4/h4-5,7H,1-2H2	InChI=1S/C5H7NO3/c7-6-3-1-4-5(3)9-2-8-4/h4-5,7H,1-2H2/t4-,5+/m1/s1
