18
gdb 38230	3.11396	2.09845	1.72573	0.5285	76.45	-0.2229	-0.009	0.2139	841.3126	0.149044	-401.780911	-401.774634	-401.773689	-401.811005	27.443	
C	 0.0424481403	 1.7880857388	-0.0255168814	-0.246196
C	 1.5031630721	 1.4606072203	 0.1335881194	 0.012483
C	 1.0074627696	 0.2406550327	 1.07198528	-0.329253
C	-0.0407376323	 0.2194917055	-0.1025836466	 0.396609
O	-1.276456257	-0.2319663604	-0.6342619014	-0.355048
C	-1.1255730264	 0.3628145641	-1.9707911625	-0.129298
C	 0.4087346586	 0.4404766094	-2.2666422048	-0.091688
C	 0.9804312343	-0.2725856269	-1.1681614914	-0.009282
N	 1.8131581924	 0.8915284008	-1.2570386002	-0.20429
H	-0.4542572503	 2.1212570363	 0.8889405859	 0.097355
H	-0.2265409163	 2.4207673236	-0.8678316487	 0.106845
H	 2.2570310522	 2.1687201139	 0.4731878354	 0.085334
H	 1.6460654063	-0.6367310559	 1.1901358382	 0.112157
H	 0.6691495283	 0.612323979	 2.0401574692	 0.113718
H	-1.5448689425	-0.3466743566	-2.6946738511	 0.127925
H	-1.6871102781	 1.2993788623	-2.0272006053	 0.122342
H	 0.7828323171	 0.4109377046	-3.2817979713	 0.115962
H	 1.3588377017	-1.2947166115	-1.1051808832	 0.074327
195.5803	323.0472	386.0954	423.662	451.612	533.954	592.1389	635.2167	687.7855	736.4002	781.1267	800.3577	818.1335	847.4102	885.6948	916.9699	956.5324	978.8986	982.7014	995.3711	1008.9326	1040.2977	1061.6013	1089.5035	1135.6619	1150.145	1161.0978	1184.2482	1196.7396	1219.0869	1228.9006	1244.7923	1262.274	1278.5966	1318.9707	1411.9951	1484.8673	1490.7999	1524.3653	3037.187	3070.0234	3073.0205	3080.6502	3088.1473	3136.1103	3146.7808	3158.5248	3210.9498
C1C2CC11OCC3C1N23	C1[C@H]2C[C@]31OC[C@@H]1[C@H]3N21	
InChI=1S/C7H9NO/c1-4-2-7(1)6-5(3-9-7)8(4)6/h4-6H,1-3H2	InChI=1S/C7H9NO/c1-4-2-7(1)6-5(3-9-7)8(4)6/h4-6H,1-3H2/t4-,5-,6-,7-,8?/m1/s1
