18
gdb 89205	2.42956	1.6264	1.27707	4.1864	72.62	-0.2352	0.016	0.2512	1061.6611	0.146617	-439.09323	-439.084624	-439.08368	-439.126176	32.43	
C	-0.0521869277	 1.5220180667	-0.0516879823	-0.417893
C	 0.0970364584	 0.023175535	 0.0865332381	 0.139929
O	 1.1090158638	-0.5361353265	-0.7947953648	-0.343143
C	 1.7510754303	-1.2515961869	 0.2924801745	 0.297645
C	 1.9976557719	-2.7051183358	 0.0199727652	-0.489044
C	 0.7923908557	-0.5874434668	 1.3290965656	-0.113639
N	 1.9471509646	 0.14022756	 1.8450898861	-0.330055
C	 2.8591952311	-0.3495207941	 0.9209274389	 0.391174
O	 4.0136500388	-0.106316422	 0.7075477229	-0.355028
H	 0.8816779426	 2.0349247083	 0.1934288563	 0.126085
H	-0.3179188142	 1.7764144069	-1.0819816039	 0.138041
H	-0.8464472084	 1.8919880464	 0.6059965791	 0.117851
H	-0.8613792869	-0.4813530709	-0.099463228	 0.082599
H	 2.7350118418	-2.8027305308	-0.783332606	 0.151663
H	 2.3965305891	-3.204448578	 0.9081481374	 0.131414
H	 1.0778192423	-3.2073136922	-0.2922975629	 0.127536
H	 0.1946451509	-1.1154235356	 2.0712573684	 0.095691
H	 1.989312516	 0.9883690659	 2.3936571056	 0.249173
99.3739	175.3449	186.6768	215.8302	236.4256	260.3428	265.9065	407.2089	452.2038	507.5691	591.1159	656.2748	697.9403	749.2644	793.7912	835.7046	878.6049	895.6898	950.6269	979.6523	1052.0958	1094.3019	1110.7097	1123.0945	1148.7244	1166.9078	1205.2108	1296.1087	1314.9293	1342.1044	1362.8346	1384.9568	1409.154	1411.7816	1477.3248	1483.521	1485.6798	1496.4339	1895.2158	3006.4579	3039.1645	3040.7554	3110.1266	3113.7865	3118.1265	3120.2747	3123.5858	3588.64
CC1OC2(C)C1NC2=O	C[C@H]1O[C@]2(C)[C@H]1NC2=O	
InChI=1S/C6H9NO2/c1-3-4-6(2,9-3)5(8)7-4/h3-4H,1-2H3,(H,7,8)	InChI=1S/C6H9NO2/c1-3-4-6(2,9-3)5(8)7-4/h3-4H,1-2H3,(H,7,8)/t3-,4+,6-/m1/s1
