17
gdb 54591	2.77314	1.55739	1.17672	2.2821	68.46	-0.2473	-0.0352	0.2121	1059.1577	0.134101	-458.932781	-458.924405	-458.923461	-458.966404	30.489	
C	 0.3655646942	 0.9119644208	-0.9096146879	-0.480845
C	-0.1478658172	 0.2665520895	 0.3560147067	 0.300567
O	 0.3384581858	 0.4590196939	 1.4485915427	-0.303454
C	-1.3196915551	-0.6789194621	 0.2206804001	 0.277362
C	-2.2944914962	-0.8414857473	 1.4023918161	-0.116882
O	-2.2211340922	-2.2909367261	 1.324687473	-0.285163
C	-1.2603429465	-2.2358234226	 0.2699553211	 0.025311
C	-1.8825128047	-2.1618953857	-1.1332082677	-0.108409
O	-1.9556210815	-0.7114901917	-1.0684424705	-0.334166
H	 1.2056704761	 1.5648956475	-0.6717987923	 0.140171
H	 0.673745943	 0.1462974481	-1.6297851124	 0.142996
H	-0.4367867761	 1.4769129482	-1.3951503884	 0.157013
H	-1.8889254832	-0.4732990438	 2.3491521539	 0.133051
H	-3.303477178	-0.4576683303	 1.2233336461	 0.116145
H	-0.380487942	-2.8564121682	 0.4471061805	 0.103568
H	-1.2300924665	-2.4868791194	-1.9529785881	 0.109979
H	-2.8668863598	-2.6313821907	-1.2232469229	 0.122756
49.5672	130.3879	137.018	172.4911	240.873	335.2351	391.79	411.773	490.3763	574.8658	619.4365	706.2744	831.9663	870.4265	911.4965	939.2619	973.0686	986.4256	1001.9754	1041.9205	1064.9042	1101.2079	1104.626	1140.8277	1165.7731	1187.8873	1194.0686	1295.1247	1311.3855	1337.2628	1355.9677	1385.99	1451.2989	1464.9514	1498.0295	1502.8981	1799.314	3024.4198	3044.4625	3045.566	3090.9839	3104.0112	3104.7061	3111.9426	3159.0864
CC(=O)C12COC1CO2	CC(=O)[C@]12CO[C@H]1CO2	
InChI=1S/C6H8O3/c1-4(7)6-3-8-5(6)2-9-6/h5H,2-3H2,1H3	InChI=1S/C6H8O3/c1-4(7)6-3-8-5(6)2-9-6/h5H,2-3H2,1H3/t5-,6+/m0/s1
