19
gdb 99039	4.8168	0.77439	0.67553	0.4787	79.52	-0.2395	0.0028	0.2423	1674.8156	0.156692	-456.39498	-456.383967	-456.383023	-456.434668	36.398	
C	-0.1040748961	 1.0801279063	-0.5517085635	-0.233194
O	-0.1753586027	 0.345905565	 0.6735109997	-0.262617
C	 0.7992080343	-0.5827775625	 0.8338079113	 0.535964
O	 1.6730908497	-0.7985151821	 0.0264718521	-0.409526
N	 0.6089503006	-1.2049348877	 2.0408342136	-0.413642
C	 1.3534225199	-2.228731905	 2.6497990751	 0.38121
C	 2.5497875505	-2.7527557912	 1.8999560166	-0.468889
N	 0.9131150553	-2.5903254255	 3.7872639306	-0.285697
C	 1.5798027791	-3.6389692772	 4.5371406877	-0.32087
H	-0.1890223203	 0.4109092506	-1.4116532016	 0.140904
H	-0.9439252674	 1.7747255281	-0.5265030927	 0.133833
H	 0.8398784904	 1.6263644611	-0.623447111	 0.140904
H	-0.1780999356	-0.8975175279	 2.5946420379	 0.261208
H	 2.2554017282	-3.1408915203	 0.9222226135	 0.157569
H	 3.2611279424	-1.9479396971	 1.7005993531	 0.157996
H	 3.041615825	-3.5382722282	 2.472229415	 0.124012
H	 0.9857177256	-3.8634821331	 5.4270200669	 0.123542
H	 1.691339733	-4.573829764	 3.9707500256	 0.11747
H	 2.5790633582	-3.3358397794	 4.87937299	 0.119822
4.8292	49.9198	79.4928	105.3735	117.1491	148.1659	165.5385	269.0416	289.9539	336.3003	381.8775	387.3295	543.7447	626.6912	688.6897	741.5157	777.3363	820.6195	964.5162	997.2536	1053.6783	1089.6367	1111.03	1126.4957	1162.8522	1183.4173	1215.0086	1231.7068	1335.4883	1412.7122	1439.3799	1458.7068	1465.6123	1473.12	1482.072	1493.4189	1499.2874	1513.2605	1531.0908	1741.1477	1820.3197	2992.9231	3045.4393	3051.4505	3069.6548	3096.3171	3125.4194	3130.0366	3157.2147	3164.2326	3612.2836
COC(=O)NC(C)=NC	COC(=O)NC(=NC)C	
InChI=1S/C5H10N2O2/c1-4(6-2)7-5(8)9-3/h1-3H3,(H,6,7,8)	InChI=1S/C5H10N2O2/c1-4(6-2)7-5(8)9-3/h1-3H3,(H,6,7,8)
