15
gdb 17218	5.56485	1.70715	1.54128	1.8483	72.27	-0.2399	0.0229	0.2628	833.9192	0.119569	-325.433382	-325.426981	-325.426037	-325.463609	25.604	
C	 0.0310069853	-1.137694071	-0.0705613418	-0.377169
C	 0.0242311056	 0.0632628249	 0.0007464687	 0.16035
C	-0.00418082	 1.48092697	 0.1228108418	 0.201936
C	-1.1343020839	 2.3423231208	 0.6752675799	-0.296059
C	-0.4476279131	 3.4784707518	-0.0996659089	-0.017182
C	 0.9114107637	 3.714079281	 0.5883018178	-0.239341
C	 1.236300447	 2.3341104869	 0.0508575193	-0.07377
N	 0.2253175301	 2.4287808823	-1.0498187823	-0.188826
H	 0.0400096055	-2.1969147558	-0.1437266585	 0.187916
H	-2.0846243076	 2.0572301086	 0.218835097	 0.123156
H	-1.2501100373	 2.4389253551	 1.7593903466	 0.102555
H	-1.0195578385	 4.2945953343	-0.5345252819	 0.091944
H	 1.4966741484	 4.4755943654	 0.0667495362	 0.118241
H	 0.9303336867	 3.8994787531	 1.6669600927	 0.102424
H	 2.2062171183	 1.8803000826	-0.1172843067	 0.103824
154.2164	160.2296	380.8824	404.6069	498.8614	524.8728	557.5564	598.7136	661.4991	731.8323	748.1149	798.6775	844.4392	897.0812	941.0797	943.2996	998.4005	1009.3087	1028.3964	1070.7793	1127.0533	1146.9841	1179.382	1208.781	1235.3606	1270.0778	1277.4713	1308.2633	1386.4677	1487.769	1503.5074	2236.5003	3046.6082	3051.5303	3109.02	3117.5135	3149.1179	3187.2702	3503.2023
C#CC12CC3CC1N23	C#C[C@@]12C[C@H]3C[C@@H]1N23	
InChI=1S/C7H7N/c1-2-7-4-5-3-6(7)8(5)7/h1,5-6H,3-4H2	InChI=1S/C7H7N/c1-2-7-4-5-3-6(7)8(5)7/h1,5-6H,3-4H2/t5-,6+,7-,8?/m1/s1
