18
gdb 111085	3.86813	1.08712	1.06999	3.7657	73.62	-0.2526	0.0316	0.2843	1185.1905	0.149322	-439.064291	-439.056498	-439.055554	-439.096888	30.143	
O	-0.1213553905	 1.4092519674	-0.2275982718	-0.419243
C	 0.0092466095	 0.0437901339	 0.1444917314	-0.136672
C	-1.3711402376	-0.5757947908	 0.0396297545	 0.036076
C	-2.0236636867	-0.7115748267	-1.3618097038	 0.093316
C	-1.1803354605	-1.9815807198	-1.598980359	-0.254537
C	-1.4651910848	-2.1484639818	-0.0619128117	-0.155829
C	-2.9676489345	-2.2707313811	-0.121318159	 0.446818
N	-3.7366502458	-3.0647967991	 0.480569509	-0.579696
O	-3.3252948421	-1.2791447072	-1.0163566537	-0.264531
H	 0.7199437431	 1.8481803835	-0.0707473051	 0.291253
H	 0.7414954774	-0.4720300094	-0.4931551799	 0.090647
H	 0.3604113523	-0.0569509924	 1.1834151009	 0.098233
H	-2.0291219946	-0.1119922304	 0.7798373806	 0.098541
H	-2.1532859504	 0.104970578	-2.0667067632	 0.102677
H	-1.5967433796	-2.7295192223	-2.276347756	 0.11841
H	-0.1341329175	-1.7913472796	-1.8325103033	 0.11521
H	-0.9358759942	-2.8380123679	 0.5899695814	 0.096211
H	-4.7092952936	-2.8864315542	 0.2215253589	 0.223116
72.9278	154.1392	169.9162	251.4394	323.9526	372.9987	458.8133	496.716	529.3073	636.5553	719.948	804.825	830.8298	853.9309	871.9695	891.5341	934.5282	947.4361	977.7224	1015.3837	1048.9634	1064.0742	1080.3145	1104.5681	1117.7769	1130.6334	1185.3062	1224.4367	1231.4503	1243.7132	1262.8668	1272.3764	1286.728	1344.0397	1390.7421	1463.2549	1498.6105	1531.4591	1809.1171	2979.79	3010.5145	3078.2757	3088.9395	3157.5267	3164.3204	3167.6964	3463.5909	3828.8985
OCC1C2CC1C(=N)O2	OC[C@H]1[C@H]2C[C@@H]1[C]([NH])O2	
InChI=1S/C6H9NO2/c7-6-3-1-5(9-6)4(3)2-8/h3-5,7-8H,1-2H2	InChI=1S/C6H9NO2/c7-6-3-1-5(9-6)4(3)2-8/h3-5,7-8H,1-2H2/t3-,4+,5+/m0/s1
