21
gdb 94670	2.15275	1.74298	1.32742	1.0654	77.75	-0.2269	0.073	0.2999	1081.5219	0.181668	-424.223305	-424.21416	-424.213216	-424.256432	35.708	
C	-0.1325445109	 1.4861365065	-0.0336281738	-0.468404
C	 0.0008459155	-0.0057393561	 0.0642114217	 0.414279
C	 1.2928088829	-0.7372460956	-0.2075990819	-0.413609
C	 0.6597072022	-0.7910247347	 1.1799232797	 0.216973
C	 1.3797193309	-0.1953887892	 2.366361427	-0.47498
C	-0.2876106741	-1.967275886	 1.4247188346	 0.071847
O	-1.09183806	-1.748746029	 2.5779792249	-0.432643
C	-1.125186879	-2.0083752394	 0.1331210738	-0.147017
O	-1.1883947194	-0.6626610101	-0.3363378654	-0.302816
H	 0.772174989	 1.9826023698	 0.3257971625	 0.120557
H	-0.295886515	 1.7895645428	-1.0728026917	 0.131093
H	-0.9828490646	 1.8401724253	 0.5584976176	 0.119327
H	 1.2956841753	-1.6149481227	-0.8448572578	 0.111732
H	 2.1894938744	-0.1315026979	-0.2928183608	 0.109662
H	 1.8740839088	 0.7443292315	 2.101953897	 0.111539
H	 0.6901092058	-0.0019127917	 3.1920074679	 0.12475
H	 2.1529579794	-0.8795218326	 2.7354120772	 0.119427
H	 0.2290385033	-2.9142506857	 1.6081760707	 0.090048
H	-1.618458926	-0.9579927699	 2.4120194472	 0.284964
H	-0.6694386447	-2.6649072383	-0.620627248	 0.098619
H	-2.1427128937	-2.3579384969	 0.3244289675	 0.114651
109.5158	168.0763	187.1864	206.5221	223.84	277.0242	350.2092	356.2858	419.7077	441.2976	453.3956	492.8868	565.0515	675.293	725.9157	789.9576	848.8005	890.0281	896.7716	937.9158	953.605	980.5868	1016.614	1037.1953	1070.8244	1096.3503	1112.1441	1121.4436	1180.0819	1220.5074	1240.3844	1249.0664	1291.7045	1326.7335	1373.4577	1392.1023	1411.9254	1427.6993	1430.3571	1474.1019	1483.9131	1488.767	1499.3117	1511.6216	1520.3831	3008.1709	3031.3531	3038.3565	3072.913	3090.9438	3099.412	3100.1487	3116.9839	3123.6421	3129.1009	3211.3332	3793.9965
CC12CC1(C)C(O)CO2	C[C@@]12C[C@]1(C)[C@@H](O)CO2	
InChI=1S/C7H12O2/c1-6-4-7(6,2)9-3-5(6)8/h5,8H,3-4H2,1-2H3	InChI=1S/C7H12O2/c1-6-4-7(6,2)9-3-5(6)8/h5,8H,3-4H2,1-2H3/t5-,6+,7+/m0/s1
