20
gdb 78324	3.06825	1.41273	1.22878	0.4898	78.71	-0.2271	0.058	0.2852	1117.5455	0.170257	-403.080021	-403.071732	-403.070788	-403.112283	32.725	
C	-0.0563206436	 1.4816960423	-0.0383506225	-0.418856
C	 0.0048048152	-0.0248234853	-0.1174883428	 0.007011
C	 0.8446294863	-0.670470265	-1.1394305183	-0.091465
N	 1.29877149	-0.5931601903	 0.3230216515	-0.175062
C	 1.2124043999	-2.1076454774	 0.3898500943	-0.075133
C	-0.1225082162	-2.7863273904	 0.7182829408	-0.111979
O	-0.5299705186	-2.7382298875	-0.6752864875	-0.336206
C	 0.7692904406	-2.21025137	-1.0775505007	 0.43844
C	 1.420877445	-3.0025257943	-2.1764239529	-0.4853
H	 0.8986839111	 1.9257465295	-0.3317009455	 0.127196
H	-0.8402099423	 1.8701063196	-0.6969342448	 0.118811
H	-0.2774096474	 1.8040275105	 0.9840772958	 0.124104
H	-0.9130133533	-0.5332203067	 0.161012254	 0.105349
H	 1.3606872023	-0.1131341586	-1.9173985684	 0.084673
H	 2.1343611714	-2.5276285013	 0.7894630528	 0.09069
H	-0.0142300953	-3.822421966	 1.0637480756	 0.104729
H	-0.816073179	-2.2591021227	 1.3831004178	 0.108547
H	 0.8313442592	-2.9220527172	-3.0968777818	 0.132485
H	 2.4270289043	-2.6238266877	-2.3828815999	 0.126179
H	 1.4893244302	-4.0602182714	-1.9077075274	 0.125785
165.8994	187.2976	203.8556	220.4926	255.2992	280.5526	336.3934	386.717	461.4038	527.9314	628.607	716.5823	731.2025	773.0855	864.3959	875.5085	904.8514	922.6056	967.2273	981.4352	1000.531	1022.5205	1048.936	1079.0689	1128.927	1141.0922	1148.8345	1165.4805	1167.8291	1186.9995	1228.5937	1281.1288	1306.7741	1333.55	1358.3602	1408.0083	1413.3049	1438.8488	1480.8064	1487.8361	1489.9604	1496.6101	1516.2043	3015.0032	3033.4237	3037.8174	3062.5177	3101.1726	3104.2123	3117.4545	3117.8541	3121.3995	3138.5999	3163.0657
CC1C2N1C1COC21C	C[C@H]1[C@H]2N1[C@H]1CO[C@@]21C	
InChI=1S/C7H11NO/c1-4-6-7(2)5(3-9-7)8(4)6/h4-6H,3H2,1-2H3	InChI=1S/C7H11NO/c1-4-6-7(2)5(3-9-7)8(4)6/h4-6H,3H2,1-2H3/t4-,5-,6+,7+,8?/m0/s1
