20
gdb 119768	3.83018	0.82732	0.71393	1.2715	76.95	-0.2414	0.0299	0.2713	1604.1348	0.170492	-440.307242	-440.297476	-440.296532	-440.343177	34.372	
C	 0.0397197069	 1.5460844764	-0.08789698	-0.386294
C	-0.0098715821	 0.0206649998	-0.0135548144	 0.026523
C	 0.7511717679	-0.6933768484	-1.1665832744	-0.122886
O	 1.7131039798	-1.5324494039	-0.4936885669	-0.260269
C	 1.5503751186	-1.2942507355	 0.8385024096	 0.417338
C	 2.4830794971	-2.0521525619	 1.7239555243	-0.289677
C	 2.2623266223	-1.7738277212	 3.2048548072	-0.073145
O	 3.2132314759	-2.5549975822	 3.9145221093	-0.423468
N	 0.6479689368	-0.4792600102	 1.2068726308	-0.327457
H	 1.0769112744	 1.8967999104	-0.1108271666	 0.118202
H	-0.4673796826	 1.9098119535	-0.9880876103	 0.111594
H	-0.4485184009	 1.9858013794	 0.7856500508	 0.129746
H	-1.0603569073	-0.2949189019	 0.0097855029	 0.086102
H	 0.1150397455	-1.32898799	-1.7882263609	 0.116298
H	 1.2947678522	 0.0044079273	-1.812728774	 0.111836
H	 2.3697109549	-3.124548241	 1.5258245796	 0.135822
H	 3.515567447	-1.8060659204	 1.4489102752	 0.135593
H	 2.3867247669	-0.6999259081	 3.4015389442	 0.103507
H	 1.2311716671	-2.0352686123	 3.4802543032	 0.103474
H	 3.0876267994	-2.3942533598	 4.8538842506	 0.287162
53.7269	59.8477	83.0358	128.5152	191.4658	235.7228	259.1808	324.1371	350.875	417.1704	441.2982	619.6496	708.3924	733.1764	804.1851	852.7872	929.8655	938.4838	969.9752	1006.281	1040.6233	1065.5553	1091.3948	1096.0354	1124.2988	1161.5961	1197.9966	1210.9255	1227.9815	1258.1654	1299.3022	1311.7908	1346.1927	1374.9381	1397.7362	1409.6207	1466.4034	1474.1873	1488.4775	1496.175	1522.4294	1524.3917	1735.4967	3000.9237	3020.4076	3030.6268	3033.3134	3042.8071	3044.8159	3079.5641	3093.9679	3103.4204	3121.5695	3836.4589
CC1COC(CCO)=N1	C[C@H]1COC(=N1)CCO	
InChI=1S/C6H11NO2/c1-5-4-9-6(7-5)2-3-8/h5,8H,2-4H2,1H3	InChI=1S/C6H11NO2/c1-5-4-9-6(7-5)2-3-8/h5,8H,2-4H2,1H3/t5-/m0/s1
