16
gdb 21173	5.24624	1.35248	1.08612	3.1789	68.55	-0.1839	0.0504	0.2343	1064.0622	0.132702	-376.112673	-376.104513	-376.103568	-376.144973	30.037	
C	 0.0776850951	 1.4079177056	-0.0102307554	-0.322579
N	 0.0167446391	-0.0411301013	 0.1024445863	-0.395828
C	-1.2398221605	-0.6282659356	 0.0512459546	 0.463378
C	-2.5115437999	-0.084957743	 0.0781981015	-0.375656
C	-3.3729299162	-1.2162241223	 0.0830152181	 0.379263
N	-4.7668636779	-1.1984938402	 0.169520624	-0.591109
N	-2.7106876746	-2.3621185348	 0.0481214865	-0.316277
N	-1.3912657129	-1.9757601217	 0.0170126709	-0.295019
H	 1.1214556927	 1.7248256909	 0.047870738	 0.125405
H	-0.3593057698	 1.7961972487	-0.9431239158	 0.11623
H	-0.4595120685	 1.8590760532	 0.8293199226	 0.14296
H	 0.6936026277	-0.5080272284	-0.4861600183	 0.236106
H	-2.7825774852	 0.9570614315	 0.0857022835	 0.087623
H	-5.1910465492	-0.4833697965	-0.4062459185	 0.240478
H	-5.1561897856	-2.1054264985	-0.0564937506	 0.245697
H	-0.6816206444	-2.6680447576	 0.1787890024	 0.25933
94.9981	164.7011	192.2073	237.3123	251.4134	275.1305	368.2659	414.7375	478.5245	547.1142	657.9696	679.3782	691.752	721.1265	775.9313	799.8889	998.3571	1028.2325	1073.4415	1103.4223	1152.5406	1159.0285	1194.1014	1220.7154	1311.8272	1438.2343	1459.871	1472.7048	1488.3112	1519.745	1528.9146	1580.7722	1631.7198	1650.241	2986.0565	3079.4782	3124.4595	3272.1203	3537.9886	3568.9606	3632.5788	3685.1576
CNC1=CC(N)=NN1	CNc1cc(N)n[nH]1	
InChI=1S/C4H8N4/c1-6-4-2-3(5)7-8-4/h2H,1H3,(H4,5,6,7,8)	InChI=1S/C4H8N4/c1-6-4-2-3(5)7-8-4/h2H,1H3,(H4,5,6,7,8)
