16
gdb 44505	4.38244	1.41701	1.22707	2.9767	68.42	-0.2579	0.0035	0.2614	985.9223	0.127145	-437.858437	-437.852084	-437.85114	-437.88933	25.657	
O	 0.03419637	 0.0795165518	 0.6424603599	-0.322339
C	-0.0224860522	 1.1497864791	 0.1079169348	 0.417423
C	-1.3163793946	 1.9051714343	-0.1628320417	-0.404057
C	-1.1155897415	 3.2414259334	-0.8537875515	 0.023108
C	-0.0730027008	 3.2998948685	-2.0072878219	-0.088068
N	 0.043051543	 4.782804896	-1.7297695542	-0.316465
C	 0.0668043005	 4.1274924438	-0.3661314073	-0.088071
C	 1.0157215855	 3.0355650306	-0.9315391256	 0.133159
O	 1.1204323034	 1.7662552719	-0.3003638445	-0.242799
H	-1.9571141806	 1.2429784856	-0.755778702	 0.148325
H	-1.8245626322	 2.0276295203	 0.8001740225	 0.148313
H	-2.0390723867	 3.78864397	-1.0510821952	 0.094299
H	-0.1502560957	 2.8980123911	-3.0184929921	 0.093244
H	 0.9868109555	 5.1054548037	-1.9728721208	 0.213732
H	 0.154374006	 4.7012990848	 0.5574976702	 0.093242
H	 2.0344554903	 3.3448714351	-1.1743108106	 0.096954
90.8239	247.925	398.165	415.5361	445.2172	477.1834	569.5576	642.9166	756.2187	777.1241	818.2449	821.4888	878.3054	893.5943	915.5971	979.561	997.8674	1039.4031	1053.2433	1095.0872	1128.4973	1149.9471	1168.0984	1173.543	1186.1719	1190.8037	1257.5273	1257.8271	1300.5526	1305.1936	1331.7777	1381.2397	1415.6007	1456.0066	1864.663	3049.9525	3083.6706	3098.0725	3101.4455	3109.7414	3118.2129	3368.3896
O=C1CC2C3NC2C3O1	O=C1C[C@@H]2[C@H]3N[C@@H]2[C@H]3O1	
InChI=1S/C6H7NO2/c8-3-1-2-4-6(9-3)5(2)7-4/h2,4-7H,1H2	InChI=1S/C6H7NO2/c8-3-1-2-4-6(9-3)5(2)7-4/h2,4-7H,1H2/t2-,4-,5+,6+
