18
gdb 75772	2.53606	1.23885	1.10911	2.2094	76.91	-0.2591	-0.0373	0.2218	1178.1837	0.145403	-401.980835	-401.971483	-401.970539	-402.01491	34.275	
C	-0.6491262902	 1.246213654	-0.0444403675	-0.422101
C	 0.0905305208	-0.0809029507	-0.0777866476	-0.11979
C	 1.45494827	-0.18422656	-0.7749933622	 0.388786
O	 1.9277023355	 0.3471524265	-1.7353453901	-0.286515
C	 2.0119936358	-1.1190894598	 0.3093143765	-0.37695
C	 0.7980749263	-0.6843797643	 1.2102112318	 0.112796
C	 1.1979139978	 0.3629231078	 2.2583165366	-0.445629
C	 0.0671809947	-1.7842101912	 1.8267207386	 0.23998
N	-0.5192812611	-2.6566667678	 2.3088752747	-0.34228
H	-0.0359480182	 2.0452193775	 0.3799556068	 0.129222
H	-0.9143096166	 1.5402184332	-1.0640207938	 0.145919
H	-1.5724175435	 1.1713516883	 0.5376728219	 0.13485
H	-0.5524788299	-0.8600578192	-0.5066990737	 0.128737
H	 1.9641165802	-2.1676488767	 0.0026836077	 0.153167
H	 3.0113573962	-0.9012112373	 0.6917718311	 0.141815
H	 1.7759105034	 1.1652878639	 1.7900070283	 0.132649
H	 0.3194656876	 0.8036330208	 2.7362631196	 0.142789
H	 1.817557481	-0.093521025	 3.0347494913	 0.142555
65.2238	135.5309	172.7042	181.3711	205.8511	244.3937	268.3139	343.5089	386.0972	439.647	504.0108	548.2975	596.2902	612.2482	729.8229	751.5175	844.9555	862.9074	947.5186	967.9276	1035.5232	1045.0807	1104.9804	1119.3199	1162.2997	1189.3275	1196.9876	1226.7254	1285.6141	1342.6243	1404.6172	1417.2483	1441.4912	1485.0808	1489.1999	1498.0504	1503.2522	1899.4852	2350.4681	3037.048	3044.2604	3047.5304	3070.6856	3116.9006	3118.4278	3124.2645	3127.6069	3132.1414
CC1C(=O)CC1(C)C#N	C[C@H]1C(=O)C[C@]1(C)C#N	
InChI=1S/C7H9NO/c1-5-6(9)3-7(5,2)4-8/h5H,3H2,1-2H3	InChI=1S/C7H9NO/c1-5-6(9)3-7(5,2)4-8/h5H,3H2,1-2H3/t5-,7+/m0/s1
