17
gdb 17477	3.57708	2.4967	1.96113	1.6296	71.61	-0.2249	0.0047	0.2295	750.067	0.143624	-326.682105	-326.675774	-326.67483	-326.711966	26.27	
C	-0.0341282673	 1.5507328478	 0.0306195992	-0.501925
C	-0.026113631	 0.0378429902	 0.053979047	 0.260032
C	 0.3115852046	-0.7533737732	-1.2678845822	-0.168256
N	-0.8112122877	-1.7077732695	-1.0638665963	-0.163201
C	-0.8645506289	-2.1093420517	 0.4255521891	-0.060875
C	 0.3294466316	-1.9104225141	 1.2825388779	-0.091775
C	 0.7817518999	-0.6599606636	 1.1251384219	-0.140134
C	-1.3533986779	-0.7888562353	-0.0179745499	-0.0853
H	 0.9821626713	 1.9470544691	-0.073694477	 0.119634
H	-0.6274910103	 1.9323030478	-0.807072156	 0.117612
H	-0.4556503578	 1.9588963898	 0.9556885551	 0.122916
H	 0.0728522868	-0.1631492545	-2.1570504571	 0.110359
H	 1.3104196671	-1.1923728419	-1.362313785	 0.09711
H	-1.5396593565	-2.945249633	 0.5603962872	 0.096197
H	 0.7775708887	-2.6948336014	 1.8787880349	 0.101026
H	 1.6952004017	-0.2451564163	 1.536306536	 0.097478
H	-2.3776810142	-0.4265598802	-0.0095602448	 0.089101
209.5769	266.9499	276.799	391.8052	411.6297	543.7495	596.7582	668.5964	713.3066	749.8202	790.5491	803.5024	845.8484	873.311	908.8761	929.0284	970.2458	974.4753	1004.9263	1031.1924	1073.5476	1103.9537	1141.0968	1160.5049	1189.8158	1221.9101	1248.921	1264.3898	1288.4844	1363.5379	1383.7313	1415.4379	1488.2718	1492.6233	1498.8814	1637.8132	3026.3545	3038.9345	3092.5654	3095.6347	3102.0165	3145.6315	3189.5468	3195.7315	3223.3002
CC12CN3C(C=C1)C23	C[C@@]12CN3[C@@H](C=C1)[C@@H]23	
InChI=1S/C7H9N/c1-7-3-2-5-6(7)8(5)4-7/h2-3,5-6H,4H2,1H3	InChI=1S/C7H9N/c1-7-3-2-5-6(7)8(5)4-7/h2-3,5-6H,4H2,1H3/t5-,6-,7-,8?/m0/s1
