20
gdb 82617	2.36625	2.03343	1.53283	2.7484	77.25	-0.2333	0.0693	0.3026	960.7426	0.173234	-403.150024	-403.142387	-403.141443	-403.181509	31.206	
C	 0.0068719772	 1.4603662418	 0.1080966424	-0.504584
C	-0.0401647533	-0.035270157	-0.0094084793	 0.351431
C	 0.5579950295	-0.8527282065	-1.1045966565	-0.088127
C	-0.2562571364	-2.1370030865	-1.2361250772	-0.244056
C	-0.6255770243	-2.2470472781	 0.2572145208	-0.117374
C	 0.7565777555	-2.0640484765	 0.9085358437	-0.150475
N	 1.2010625932	-0.8172845674	 0.2372191132	-0.162741
C	-1.2260557708	-0.8427895495	 0.5140995064	 0.086464
O	-1.4647473052	-0.5175017946	 1.871679848	-0.446529
H	 0.9660318149	 1.8428937602	-0.2493640569	 0.125839
H	-0.7931510268	 1.9263894379	-0.4783483408	 0.110324
H	-0.1186997931	 1.7640866413	 1.1517031859	 0.136964
H	 1.1152871435	-0.4217249996	-1.9282257339	 0.086794
H	-1.127805057	-2.0179922518	-1.8883145229	 0.099193
H	 0.3330573172	-2.9857836509	-1.5973974991	 0.102533
H	-1.2273643942	-3.1029245858	 0.5628334516	 0.058952
H	 0.7033023938	-1.9027801369	 1.9870783533	 0.114147
H	 1.4533435382	-2.8792725822	 0.6914073025	 0.095973
H	-2.127477464	-0.669410806	-0.0935821276	 0.061396
H	-2.2197896781	-1.030551582	 2.1756320565	 0.283877
173.7916	202.4968	231.17	264.4725	290.8256	366.3113	421.4993	477.0933	539.702	611.4684	680.7869	746.2179	821.8414	825.2943	876.6776	910.0595	911.6998	935.7358	941.1416	983.7305	1003.7445	1031.5458	1059.1888	1082.8016	1099.0682	1116.1847	1159.8595	1182.3389	1199.9756	1218.858	1245.0277	1260.3703	1281.3647	1306.2405	1327.586	1334.1992	1400.7739	1419.2956	1443.106	1484.2459	1487.6437	1497.6353	1506.2519	2984.5841	3035.5719	3045.4731	3060.0085	3088.7876	3100.361	3118.8119	3121.4525	3123.7476	3180.0754	3822.7271
CC12C3CC(CN13)C2O	C[C@@]12[C@@H]3C[C@@H](CN13)[C@H]2O	
InChI=1S/C7H11NO/c1-7-5-2-4(6(7)9)3-8(5)7/h4-6,9H,2-3H2,1H3	InChI=1S/C7H11NO/c1-7-5-2-4(6(7)9)3-8(5)7/h4-6,9H,2-3H2,1H3/t4-,5-,6+,7-,8?/m0/s1
