16
gdb 56932	2.25147	1.24298	0.96027	5.7754	73.71	-0.298	-0.0004	0.2975	1242.8299	0.124201	-396.929222	-396.920254	-396.91931	-396.963648	31.812	
C	-0.2884115968	 1.3762025412	 0.1159444258	-0.399882
C	 0.1654831305	-0.0692733856	-0.1693752594	-0.151678
C	 1.0098137432	-0.1319405997	-1.367937163	 0.267973
N	 1.6932063823	-0.1629998921	-2.2990106341	-0.312045
C	 0.919544602	-0.652445273	 1.0194031147	-0.005446
N	 0.1036784764	-1.0100349238	 2.1719707484	-0.317765
C	 0.7937246879	-2.0864400082	 1.4307703778	-0.195478
C	-0.0516594774	-3.0119553893	 0.7146572263	 0.337661
N	-0.7155410549	-3.7544101408	 0.1281746091	-0.326818
H	 0.5707935175	 2.0300532205	 0.2908439727	 0.135269
H	-0.8550847746	 1.7756941782	-0.7277657017	 0.145848
H	-0.9243883309	 1.379833178	 1.0040918304	 0.146297
H	-0.7195624112	-0.6897981924	-0.3494922469	 0.156148
H	 1.8961961644	-0.2050981285	 1.1959904029	 0.121577
H	 0.5848826761	-0.8256942095	 3.0478303773	 0.254493
H	 1.6703720955	-2.547240115	 1.8773663299	 0.143847
47.5585	99.3101	142.5426	209.9025	230.3267	246.4201	262.2086	364.9314	424.1	523.1273	555.4526	581.2512	641.391	783.0308	844.4366	861.1314	918.2988	959.7034	980.2167	1032.529	1085.9221	1110.9373	1138.4092	1196.7426	1222.1551	1251.5306	1306.2693	1322.8997	1399.1325	1408.7036	1459.3361	1497.3292	1498.3068	2361.7092	2363.5019	3051.6056	3059.7587	3127.9978	3131.05	3141.2138	3155.5712	3519.7822
CC(C#N)C1NC1C#N	C[C@@H](C#N)[C@H]1N[C@H]1C#N	
InChI=1S/C6H7N3/c1-4(2-7)6-5(3-8)9-6/h4-6,9H,1H3	InChI=1S/C6H7N3/c1-4(2-7)6-5(3-8)9-6/h4-6,9H,1H3/t4-,5-,6+/m0/s1
