22
gdb 5850	2.88409	1.36496	1.19619	2.6043	74.17	-0.2616	0.0665	0.3281	1137.9848	0.196791	-387.341548	-387.330963	-387.330019	-387.376607	39.071	
C	 0.0459228036	 1.5389148225	-0.1015740899	-0.41124
C	-0.0072095117	 0.0154578796	 0.0861075892	 0.049107
C	 0.8069844778	-0.3979730365	 1.3163422597	-0.093806
O	 2.1588988697	-0.021842388	 1.0807299085	-0.422277
C	-1.4538607356	-0.550602864	 0.0829040424	 0.343224
C	-1.4572079537	-2.0884874924	 0.0534699601	-0.419536
C	-2.3101253552	-0.0403729907	 1.2529822374	-0.421792
O	-2.0082688175	-0.0756497045	-1.1530714952	-0.466889
H	 1.0853294574	 1.8574299899	-0.2015935766	 0.127194
H	-0.5092134559	 1.8384699268	-0.9911539066	 0.130101
H	-0.3767848187	 2.0662598301	 0.7612770616	 0.1005
H	 0.4879272161	-0.4421423182	-0.780121479	 0.087529
H	 0.4135749135	 0.1056151975	 2.2140335849	 0.082864
H	 0.7368583218	-1.4818454563	 1.4869301655	 0.082136
H	 2.6651237214	-0.2144420546	 1.8748435894	 0.284811
H	-1.0964640249	-2.5284262014	 0.9875497093	 0.114203
H	-2.4789837469	-2.4555544054	-0.1017571804	 0.097849
H	-0.8374468746	-2.4568770116	-0.769140559	 0.123044
H	-2.3767972983	 1.0497297811	 1.2437238205	 0.12708
H	-3.3278304317	-0.4411414339	 1.1738351328	 0.099865
H	-1.9117366315	-0.358011471	 2.2216849746	 0.114124
H	-2.9120602852	-0.4028227791	-1.2113677893	 0.271909
38.6157	99.4403	207.988	219.6174	242.7417	249.5349	259.7627	270.0992	285.0384	318.3943	353.1492	363.0152	409.2163	465.923	501.3672	547.8415	741.874	865.3399	914.5275	924.2208	932.3012	967.4184	1000.1158	1049.1583	1069.52	1093.0402	1134.0457	1174.4748	1198.2971	1222.4633	1260.3122	1277.8791	1336.639	1360.8657	1381.6336	1398.359	1400.6682	1419.0877	1458.8212	1478.3579	1487.8631	1498.4366	1500.3118	1508.9806	1514.3959	1523.5246	2967.1904	3006.429	3026.1676	3029.4273	3034.5546	3044.4916	3089.5808	3096.7134	3116.1015	3119.7018	3131.8861	3151.0462	3808.281	3835.1729
CC(CO)C(C)(C)O	C[C@@H](CO)C(C)(C)O	
InChI=1S/C6H14O2/c1-5(4-7)6(2,3)8/h5,7-8H,4H2,1-3H3	InChI=1S/C6H14O2/c1-5(4-7)6(2,3)8/h5,7-8H,4H2,1-3H3/t5-/m0/s1
