22
gdb 59967	2.35672	1.15669	0.87074	6.5533	78.63	-0.2386	0.0369	0.2756	1397.2122	0.193878	-441.531706	-441.521517	-441.520573	-441.567016	37.871	
C	 1.1984786779	-0.218531007	-0.7582502769	-0.389001
C	 0.0792035896	 0.3360237705	 0.1249950598	 0.028534
N	-0.8855033286	 1.0744338658	-0.7207944735	-0.515977
H	-2.2272575192	-0.0071114177	-1.0331559747	 0.310282
H	-1.4095061503	 1.7413815644	-0.1600815236	 0.250554
H	-0.4023492788	 1.6097906799	-1.435625623	 0.241825
C	-0.6523107647	-0.7466106439	 0.9450775147	-0.213092
C	-1.3202305187	-1.9153608452	 0.1634161768	-0.123275
C	-1.1948801415	-3.23448862	 0.933127111	-0.387182
C	-2.7981283972	-1.64870681	-0.1797856211	 0.399938
O	-3.6873079429	-2.3899542368	 0.1573500695	-0.335064
O	-3.0496044063	-0.5514635291	-0.9015074109	-0.391411
H	 1.7724762131	 0.5981186285	-1.2097700113	 0.116024
H	 1.8911634949	-0.8252791281	-0.1686841135	 0.129059
H	 0.806063202	-0.8372056821	-1.5705846464	 0.134646
H	 0.5460212592	 1.0156983472	 0.854416778	 0.076223
H	 0.0893174314	-1.1763700732	 1.6278381173	 0.107162
H	-1.3968173254	-0.2600275245	 1.5882902702	 0.108397
H	-0.8046516397	-2.0292914301	-0.7990298182	 0.094465
H	-1.6876067711	-4.0468335753	 0.3962438503	 0.133173
H	-0.1409440616	-3.492826787	 1.0787873679	 0.097217
H	-1.6725414622	-3.1585440862	 1.9142373274	 0.127501
51.4888	75.637	154.9397	221.4451	225.2073	244.2579	266.4658	311.8536	316.7058	347.7739	376.9374	428.3878	502.4902	557.828	648.5887	726.6931	800.3314	830.172	890.9715	914.6763	924.4244	988.7454	1000.5801	1022.0019	1057.9383	1059.0188	1115.0863	1137.387	1149.7552	1236.7296	1243.4262	1274.054	1308.8925	1353.5534	1365.7892	1397.13	1401.3158	1412.9374	1424.0375	1479.6542	1482.2941	1488.2626	1493.2733	1496.9736	1504.4766	1650.7779	1841.9717	2973.4995	3023.1857	3031.6197	3039.1822	3042.5786	3066.1384	3102.8133	3111.5431	3122.5378	3137.0209	3190.3371	3489.7546	3568.8695
CC([NH3+])CC(C)C([O-])=O	C[C@@H](N)C[C@@H](C)C(=O)O	
InChI=1S/C6H13NO2/c1-4(6(8)9)3-5(2)7/h4-5H,3,7H2,1-2H3,(H,8,9)	InChI=1S/C6H13NO2/c1-4(6(8)9)3-5(2)7/h4-5H,3,7H2,1-2H3,(H,8,9)/t4-,5-/m1/s1
