20
gdb 109183	4.29654	0.91434	0.76823	3.4324	84.59	-0.2204	0.0038	0.2242	1520.8648	0.170393	-399.365414	-399.355497	-399.354552	-399.40102	34.977	
C	-0.0564093209	 1.5248851893	 0.0845695968	-0.365233
C	 0.0327009327	 0.0052580731	-0.0543294957	-0.301681
C	 0.7403336789	-0.4410516861	-1.2988213096	 0.3975
N	 1.2411847384	 0.3252556238	-2.191232789	-0.302575
C	 1.8267743444	-0.548430591	-3.2152499064	-0.264881
C	 1.5756054935	-1.9805907495	-2.7560822718	 0.403458
N	 0.8915906087	-1.8078572916	-1.5512001125	-0.398972
N	 1.9183320127	-3.0466335972	-3.3491661781	-0.326612
C	 1.5675681805	-4.3077906531	-2.7168830881	-0.337529
H	 0.9398651264	 1.9721108548	 0.1054597264	 0.137219
H	-0.5914318567	 1.9615657112	-0.7616422693	 0.137196
H	-0.580308743	 1.7916425457	 1.0065397961	 0.108801
H	 0.5509262719	-0.4311320102	 0.8109511327	 0.119814
H	-0.9712420312	-0.4416912642	-0.0507504698	 0.119816
H	 1.3680879123	-0.3599029269	-4.1921833256	 0.140162
H	 2.8986831494	-0.3502380526	-3.3251213527	 0.140147
H	 0.5626349317	-2.5502526762	-0.9591824244	 0.258309
H	 1.9162844196	-5.1375658345	-3.3365900848	 0.126858
H	 2.0299771643	-4.4222084048	-1.723012472	 0.104345
H	 0.4791615364	-4.4263853199	-2.589875692	 0.103859
48.6115	75.3281	107.2015	152.4453	187.2575	210.4554	230.1296	263.845	347.0576	413.1746	489.3016	565.6252	647.3396	651.4796	710.5909	807.9184	895.5685	949.7301	978.9075	994.0201	1036.6234	1051.6881	1095.4643	1106.2784	1110.6545	1153.7102	1183.6629	1184.5777	1247.1259	1287.0478	1301.9493	1366.4143	1415.664	1435.935	1438.9695	1457.9259	1473.337	1490.1275	1493.7398	1502.2037	1505.8473	1710.8065	1780.0714	2959.7181	3004.2754	3013.1574	3038.3973	3047.0327	3055.1601	3077.1454	3100.2171	3127.5262	3136.208	3679.4001
CCC1=NCC(N1)=NC	CCC1=NCC(=NC)N1	
InChI=1S/C6H11N3/c1-3-5-8-4-6(7-2)9-5/h3-4H2,1-2H3,(H,7,8,9)	InChI=1S/C6H11N3/c1-3-5-8-4-6(7-2)9-5/h3-4H2,1-2H3,(H,7,8,9)
