20
gdb 110625	2.40058	1.39633	1.07315	2.9981	78.91	-0.2071	0.0722	0.2793	1197.5807	0.170149	-403.04829	-403.039494	-403.03855	-403.081713	34.106	
C	-0.0952982699	 1.4725861669	 0.116339393	-0.494371
C	 0.0109904613	-0.0218600632	 0.0141554446	 0.330496
C	-0.8436118482	-0.9906174218	 0.7979966882	-0.102281
C	-1.8136533933	-2.0866485099	 0.3409134406	-0.089272
O	-2.9605006405	-2.1293047354	 1.1915584848	-0.429495
C	 0.6592561841	-1.0281136573	 0.9781561087	-0.148822
C	 1.4263345427	-1.6429851114	-0.2226869356	-0.050368
N	 0.4453876949	-2.1319573373	-1.2292275651	-0.334557
C	 0.7963390055	-0.6914730438	-1.1541217738	-0.118521
H	 0.8698745082	 1.9576857811	-0.0747098169	 0.114169
H	-0.8151808739	 1.8727325212	-0.6087474794	 0.121903
H	-0.4282755491	 1.7750984386	 1.1141290083	 0.120512
H	-1.2969210314	-0.4516910971	 1.6312879122	 0.088521
H	-2.1949719184	-1.8725345513	-0.6594479072	 0.116977
H	-1.3168141878	-3.0598425986	 0.2957795253	 0.104089
H	-2.6801381286	-2.4940764981	 2.0365470607	 0.276127
H	 1.1390606082	-0.8275917681	 1.9291048317	 0.082733
H	 2.4362404289	-2.0301740243	-0.1922327303	 0.093749
H	 0.9824859854	-2.530146478	-1.999954189	 0.227718
H	 1.2035193118	-0.1650050121	-2.0081539608	 0.090692
59.3604	177.9266	199.7377	218.3399	223.1039	279.2283	320.763	387.9766	413.9829	494.0919	571.5034	674.74	726.7111	768.2562	829.6908	840.1135	864.871	895.1657	917.3807	937.9451	957.4026	991.8929	1011.5478	1042.0374	1063.1751	1089.2429	1110.4357	1119.0742	1143.512	1216.3666	1216.8923	1231.1012	1276.2271	1313.7781	1324.4303	1348.9326	1383.1964	1401.5077	1415.8842	1458.5675	1483.8056	1483.9681	1499.1956	3014.8953	3058.0601	3068.6532	3097.0172	3104.1144	3113.8911	3174.6656	3187.4	3203.0221	3463.1522	3818.7511
CC12C(CO)C1C1NC21	C[C@]12[C@@H](CO)[C@H]1[C@H]1N[C@@H]21	
InChI=1S/C7H11NO/c1-7-3(2-9)4(7)5-6(7)8-5/h3-6,8-9H,2H2,1H3	InChI=1S/C7H11NO/c1-7-3(2-9)4(7)5-6(7)8-5/h3-6,8-9H,2H2,1H3/t3-,4-,5+,6+,7-/m0/s1
