15
gdb 16321	3.25245	2.07265	1.45864	2.1158	62.84	-0.2572	0.0149	0.2721	860.898	0.117766	-399.748145	-399.740689	-399.739744	-399.780079	27.333	
C	-0.2343616111	 1.3648530843	-0.0222054331	-0.265808
O	 0.1357469911	-0.0080178045	 0.1070618774	-0.271228
C	 0.7357908415	-0.5083135229	-1.0087522097	 0.305261
C	-0.0382698521	-1.0282433298	-2.2342947723	-0.352153
C	 0.8887109502	-1.9269826997	-1.484201241	 0.000021
O	 2.2516176815	-1.6617322585	-1.9235751651	-0.275446
C	 2.1815199664	-0.3694487787	-1.3977107567	 0.389311
N	 3.05881499	 0.5135733584	-1.2701702951	-0.561841
H	 0.6465133481	 1.9927273382	-0.1952975599	 0.149726
H	-0.9470169001	 1.5041482213	-0.8460222104	 0.114286
H	-0.7078160166	 1.6478912135	 0.9193837868	 0.132724
H	-1.0937432157	-1.1732526034	-2.0217899804	 0.13274
H	 0.2082004032	-0.7193642535	-3.2452809185	 0.131902
H	 0.6866478292	-2.8830068524	-1.0231759701	 0.136796
H	 3.9610618545	 0.2034610976	-1.6350410518	 0.23371
77.9511	156.8802	177.7804	221.9338	304.2765	409.0541	463.7053	480.9805	630.0925	693.1789	763.1074	857.6913	871.9349	894.5436	920.0381	958.2648	1002.4305	1021.537	1037.7217	1069.9535	1076.1417	1169.7012	1181.9355	1221.9697	1274.2207	1279.8489	1400.077	1464.0532	1486.541	1504.6556	1507.6222	1835.7265	3010.1063	3082.6447	3121.1012	3137.9446	3217.86	3230.1129	3477.8622
COC12CC1OC2=N	CO[C@]12C[C@H]1O[C]2[NH]	
InChI=1S/C5H7NO2/c1-7-5-2-3(5)8-4(5)6/h3,6H,2H2,1H3	InChI=1S/C5H7NO2/c1-7-5-2-3(5)8-4(5)6/h3,6H,2H2,1H3/t3-,5-/m1/s1
