15
gdb 10940	4.54572	1.41327	1.30104	2.8068	65.69	-0.2582	0.0277	0.2858	943.8542	0.11909	-362.64322	-362.636097	-362.635153	-362.674512	27.295	
O	 0.0941061164	 1.3692880278	-0.3723222358	-0.451706
C	-0.02707697	 0.0200923259	-0.1328281583	 0.427385
C	-0.4823601676	-0.8790124519	-1.2290530405	-0.319404
C	-1.260010782	-0.8760964191	 0.0704841314	-0.140556
C	-0.4834429076	-1.7151853016	 1.1053370022	-0.144114
C	 0.757818051	-0.7569840274	 0.9287068407	-0.321659
C	-1.0504872682	-1.7034949461	 2.444503986	 0.261497
N	-1.5056980799	-1.6798168593	 3.5072070631	-0.325035
H	-0.0554275532	 1.8431915489	 0.454129862	 0.290729
H	-0.9797329279	-0.3575426707	-2.0399401172	 0.131753
H	 0.0962705859	-1.7491194897	-1.5338612071	 0.110555
H	-2.3166174423	-0.6494285818	 0.1219475122	 0.114562
H	-0.302845661	-2.7525217571	 0.8041815666	 0.122932
H	 1.6956152706	-1.2247680386	 0.6151197691	 0.115944
H	 0.9331596258	-0.1730893792	 1.8351047056	 0.127116
95.3735	171.5805	281.5776	334.1401	382.7215	415.2861	426.3109	485.913	556.851	639.4432	746.5866	810.3067	848.4294	891.4854	933.9796	963.3504	1007.3905	1024.0032	1050.3446	1085.7346	1098.4318	1137.5284	1198.6824	1209.6939	1244.1476	1257.0147	1326.4342	1345.1887	1426.3812	1477.1944	1510.5581	2355.0424	3051.821	3058.8578	3101.6339	3119.2914	3204.6093	3212.3084	3788.7299
OC12CC1C(C2)C#N	O[C@]12C[C@H]1[C@@H](C2)C#N	
InChI=1S/C6H7NO/c7-3-4-1-6(8)2-5(4)6/h4-5,8H,1-2H2	InChI=1S/C6H7NO/c7-3-4-1-6(8)2-5(4)6/h4-5,8H,1-2H2/t4-,5-,6+/m0/s1
