18
gdb 105832	2.46648	1.45741	1.17461	3.3423	72.95	-0.2494	-0.0312	0.2182	1117.771	0.146414	-439.052793	-439.043958	-439.043014	-439.08631	32.871	
C	-0.0615183208	 1.560154172	-0.0446670286	-0.434342
C	 0.0858812993	 0.0582451636	 0.0846938934	-0.028264
N	 1.2882579667	-0.7189246147	-0.2301641665	-0.163839
C	 2.4759755842	 0.1002379974	 0.2015934549	-0.288769
C	 1.9844099518	 0.0086504764	 1.6533566325	 0.357582
O	 2.5137450611	 0.1010392797	 2.7300028977	-0.332035
C	 0.7246173091	-0.6711203845	 1.2214345916	 0.154067
C	 0.1053595447	-1.8066713899	 1.9920061317	-0.171612
O	 1.0610850738	-2.5796962688	 2.686932065	-0.417474
H	 0.7372698341	 2.1232620009	 0.4401230192	 0.135118
H	-0.0959960286	 1.8473274236	-1.1010565965	 0.13566
H	-1.0057649321	 1.8697307834	 0.4137632973	 0.135903
H	-0.7886384448	-0.4759647436	-0.2886603983	 0.109858
H	 3.3986644402	-0.4698463883	 0.0662993218	 0.148968
H	 2.5749457189	 1.0763588604	-0.2772852366	 0.129916
H	-0.65943873	-1.3952799889	 2.6721191709	 0.101131
H	-0.4061834528	-2.4801787352	 1.2964073908	 0.127601
H	 1.5516815753	-1.9802904036	 3.2632895096	 0.300531
90.8462	117.3413	152.5304	173.0641	224.7402	300.4532	340.1939	444.1545	456.7439	470.4578	525.6918	608.7114	612.9266	693.7507	736.0781	838.6828	898.2997	937.5368	1003.2733	1010.479	1051.0753	1069.0739	1088.9337	1112.9761	1140.6424	1181.7813	1217.3666	1245.1343	1309.7771	1319.9222	1381.0081	1413.6373	1434.7195	1444.4122	1468.8322	1484.3664	1496.8455	1502.8474	1854.0254	2965.4694	3044.4619	3073.4374	3075.2171	3102.1083	3105.5822	3129.281	3140.5826	3778.8208
CC1N2CC(=O)C12CO	C[C@H]1N2CC(=O)[C@@]12CO	
InChI=1S/C6H9NO2/c1-4-6(3-8)5(9)2-7(4)6/h4,8H,2-3H2,1H3	InChI=1S/C6H9NO2/c1-4-6(3-8)5(9)2-7(4)6/h4,8H,2-3H2,1H3/t4-,6-,7?/m1/s1
