17
gdb 48069	3.61194	1.12073	0.99183	4.3703	74.4	-0.243	-0.0948	0.1482	1204.4525	0.134915	-421.783502	-421.775335	-421.774391	-421.817743	29.663	
O	-0.078719625	 0.0406966851	 0.0008277749	-0.207312
C	-0.0091481083	 1.238254717	 0.0074783693	 0.079438
C	 1.3469032215	 1.9897643759	-0.0012958035	 0.151533
O	 2.3826751989	 1.371078913	-0.0148104733	-0.264122
C	 1.2715258434	 3.4811617437	 0.0081152099	 0.258304
C	 0.6052907545	 4.3970702477	 1.0972519072	-0.260191
C	 1.1826367177	 5.3597896463	 0.0203788776	-0.046381
C	 2.4635238723	 4.4727218841	 0.0004949828	-0.255679
C	 0.580709105	 4.4099205374	-1.0544420631	-0.260303
H	-0.9163257351	 1.8818143945	 0.0203990132	 0.087544
H	-0.4833214473	 4.3506510288	 1.1845144419	 0.101001
H	 1.0898736767	 4.3994732188	 2.0767051903	 0.109211
H	 1.1381219817	 6.4485002561	 0.0273942615	 0.085041
H	 3.0872924492	 4.4850543218	 0.8968742964	 0.105887
H	 3.0667525261	 4.4958377719	-0.9096324169	 0.105852
H	 1.0427763314	 4.4241597851	-2.044620436	 0.109177
H	-0.5096225627	 4.3644626428	-1.1173726621	 0.101003
30.7204	73.4696	132.1263	184.1366	280.5928	374.3814	446.053	519.2981	550.8302	588.769	781.0899	799.8207	822.9945	880.1765	895.6332	920.0453	960.1856	968.2743	1000.229	1004.3059	1027.5892	1092.7778	1098.1675	1135.3226	1135.6006	1162.3308	1169.0416	1232.0213	1232.9208	1247.2449	1313.4844	1412.9367	1496.5254	1499.4968	1551.1713	1798.2242	1840.3064	2887.3539	3052.385	3056.4579	3067.4621	3117.9489	3121.4816	3125.4843	3134.1884
O=CC(=O)C12CC(C1)C2	O=CC(=O)[C@@]12C[C@@H](C1)C2	
InChI=1S/C7H8O2/c8-4-6(9)7-1-5(2-7)3-7/h4-5H,1-3H2	InChI=1S/C7H8O2/c8-4-6(9)7-1-5(2-7)3-7/h4-5H,1-3H2/t5-,7-
