17
gdb 81905	2.33306	1.94177	1.16486	4.3919	75.79	-0.2248	-0.0571	0.1677	1041.8544	0.137014	-418.025408	-418.017307	-418.016363	-418.058212	30.26	
C	-0.0745774667	 1.3951355192	-0.0985949238	-0.341781
N	 0.0028631375	-0.0265736572	 0.1621967622	-0.06308
C	-1.1647869088	-0.8659708497	 0.0823082663	-0.010371
C	-1.3823413567	-1.5937578533	-1.210516317	-0.306027
C	-0.693389469	-2.2926661252	-0.0284248614	-0.181098
C	 0.7972181294	-2.2199028493	 0.0038939065	 0.364425
O	 1.5971134942	-3.1192261606	 0.0499464641	-0.319945
C	 1.1702561056	-0.7377279985	 0.0038198436	 0.242811
N	 2.3347571611	-0.2401300242	-0.1381491382	-0.550773
H	 0.9117219249	 1.8247164037	 0.0815989379	 0.172356
H	-0.3660112702	 1.6087235718	-1.1368771978	 0.122349
H	-0.8038015426	 1.862149999	 0.5709278772	 0.124327
H	-1.9992817968	-0.585355078	 0.7159091717	 0.1135
H	-2.3756025162	-1.9598096323	-1.4463402827	 0.134276
H	-0.7811849362	-1.3088142849	-2.0674186908	 0.139529
H	-1.1934739871	-3.1255623089	 0.4467677981	 0.125193
H	 3.0046876875	-1.0100390914	-0.1921541958	 0.234308
102.6965	117.2595	139.1015	204.4143	288.7972	321.9332	442.9579	481.9009	514.2363	564.9946	657.1127	727.1938	791.4202	824.6826	836.2484	861.3846	930.4694	965.6962	988.853	1025.9816	1054.0288	1091.0374	1104.2752	1153.0351	1164.4765	1197.9957	1226.0126	1299.1779	1325.8181	1355.3298	1430.6688	1464.3174	1479.4638	1491.2763	1511.4365	1726.6505	1843.1905	3003.2984	3077.1008	3133.9461	3149.2815	3169.0513	3211.3951	3227.6639	3464.9798
CN1C2CC2C(=O)C1=N	CN1[C@H]2C[C@H]2C(=O)[C]1[NH]	
InChI=1S/C6H8N2O/c1-8-4-2-3(4)5(9)6(8)7/h3-4,7H,2H2,1H3	InChI=1S/C6H8N2O/c1-8-4-2-3(4)5(9)6(8)7/h3-4,7H,2H2,1H3/t3-,4+/m1/s1
