16
gdb 124755	2.62128	1.4936	0.98893	3.7658	68.72	-0.2238	-0.0158	0.208	1145.7794	0.123168	-471.188999	-471.180205	-471.179261	-471.222379	32.766	
C	 0.1415257936	 1.3197912614	 0.9876167547	-0.396734
C	-0.1686899347	 0.4453400222	-0.2226388918	-0.004286
O	 0.8357637303	-0.5683571549	-0.4272951394	-0.430789
C	-1.5202543403	-0.2007843284	-0.1514313445	 0.158031
C	-1.9851750224	-1.2798134289	-0.8891537262	 0.389848
N	-1.3579127844	-1.9926293534	-1.8589138357	-0.587668
O	-3.2245294831	-1.5564461891	-0.5568965379	-0.236823
N	-3.577796385	-0.5274325972	 0.5076186811	-0.057359
N	-2.5558589266	 0.1690088889	 0.6517333954	-0.159213
H	 1.140430679	 1.7503477737	 0.8842770605	 0.123826
H	-0.5898030176	 2.1266809863	 1.0792891453	 0.143879
H	 0.099995123	 0.7326922344	 1.9117024842	 0.118967
H	-0.089015025	 1.0547581003	-1.1322179812	 0.108453
H	 0.8817819822	-1.0859385453	 0.3860191471	 0.281645
H	-0.3495651141	-1.9208445915	-1.8304189309	 0.277384
H	-1.7434533449	-2.8953578686	-2.0863222406	 0.270837
64.9245	171.4638	177.7155	240.2991	272.8524	289.4376	350.0823	367.264	416.4685	449.5549	482.8326	565.5619	601.837	660.5247	672.77	742.4707	782.9888	889.2706	969.7111	1026.8805	1076.2651	1085.1798	1112.5479	1238.9206	1281.4297	1330.8231	1365.0788	1406.7311	1417.4359	1472.3748	1487.8895	1493.7392	1510.352	1589.0129	1658.234	3022.5914	3041.94	3114.6828	3135.9345	3558.1188	3688.1773	3781.9678
CC(O)C1=C(N)ON=N1	C[C@@H](O)c1c(N)onn1	
InChI=1S/C4H7N3O2/c1-2(8)3-4(5)9-7-6-3/h2,8H,5H2,1H3	InChI=1S/C4H7N3O2/c1-2(8)3-4(5)9-7-6-3/h2,8H,5H2,1H3/t2-/m1/s1
