23
gdb 63677	4.25488	0.6226	0.60001	2.9284	88.47	-0.2455	-0.0185	0.227	1927.2733	0.20271	-388.298652	-388.287911	-388.286967	-388.335386	38.701	
C	 0.0219705099	 1.5296778253	-0.2199550833	-0.454278
C	 0.0022571226	 0.0235672801	-0.0336252918	 0.328216
C	-1.1609355246	-0.656586834	-0.7335260407	-0.446757
C	 1.3201256866	-0.720438982	 0.0112168718	-0.328178
C	 0.47688145	-0.6006591749	 1.2631196724	-0.014811
C	 0.9582843734	 0.1900299746	 2.4626935778	-0.235231
C	 1.8541658259	-0.6570613386	 3.3895671381	-0.26294
C	 2.4228911124	 0.1613327315	 4.5237238983	 0.157085
O	 2.2853169068	-0.0815208833	 5.6949359254	-0.237523
H	 0.8908356957	 1.9999467325	 0.247144985	 0.113213
H	 0.0500643244	 1.7807834807	-1.2867383928	 0.116137
H	-0.8773646699	 1.9943218831	 0.2019457516	 0.115376
H	-1.1359835346	-0.4662071708	-1.813187596	 0.114058
H	-1.1391294115	-1.7408874043	-0.5863826641	 0.111857
H	-2.1215094619	-0.287126814	-0.3549088859	 0.114468
H	 1.3943631864	-1.6845337502	-0.4814134877	 0.107232
H	 2.2311902083	-0.130194342	-0.0352935827	 0.102814
H	-0.0591197605	-1.5058023496	 1.5436616512	 0.080069
H	 1.5188098346	 1.0741393555	 2.1381348552	 0.100201
H	 0.099796696	 0.5618687167	 3.0368100381	 0.11198
H	 1.3090376176	-1.5077949094	 3.808654848	 0.119659
H	 2.6975443088	-1.0467746817	 2.8014066955	 0.121249
H	 3.0020721835	 1.0568676048	 4.1915230567	 0.066103
48.0814	62.4461	87.7745	118.8779	191.854	210.4914	236.9709	270.5299	291.991	361.7027	390.3215	447.2225	473.8753	533.2789	695.065	763.4947	828.3981	845.9717	882.8764	917.6898	945.9727	970.6786	992.8793	1014.5004	1042.4568	1057.0845	1079.4103	1106.5713	1140.0256	1155.4591	1175.4777	1214.4705	1257.1555	1288.8557	1318.2417	1336.0789	1362.0433	1412.0815	1423.8154	1426.6882	1431.8206	1463.5799	1481.1376	1487.6377	1494.1374	1496.4383	1502.3017	1514.9687	1836.2143	2839.5627	3013.3677	3018.7881	3023.6756	3027.6983	3063.1597	3077.2853	3080.6564	3098.0836	3099.6481	3111.3047	3118.4289	3119.2909	3201.509
CC1(C)CC1CCC=O	CC1(C)C[C@H]1CCC=O	
InChI=1S/C8H14O/c1-8(2)6-7(8)4-3-5-9/h5,7H,3-4,6H2,1-2H3	InChI=1S/C8H14O/c1-8(2)6-7(8)4-3-5-9/h5,7H,3-4,6H2,1-2H3/t7-/m1/s1
