18
gdb 120420	3.04948	0.89069	0.76821	2.1879	68.42	-0.2494	0.0001	0.2495	1477.847	0.14709	-476.232767	-476.223161	-476.222216	-476.268102	33.891	
N	 0.1751209383	 1.4987488688	 0.217153946	-0.510824
C	 0.078763913	 0.0742783395	 0.0167596429	-0.182759
C	-1.2902784118	-0.6308505992	 0.2263322978	 0.118126
C	-2.5260379934	 0.2346771413	 0.3497177631	-0.211531
C	-3.823503051	-0.5805907731	 0.3206652774	-0.070351
O	-4.9749367843	 0.2273009097	 0.4940354722	-0.415976
O	-1.1699031477	-1.240509379	-1.1116245147	-0.258393
C	-0.0202745557	-0.5449162228	-1.396132267	 0.4163
O	 0.5686665596	-0.4995767345	-2.4282326248	-0.324466
H	 1.1441473794	 1.7953766951	 0.2052420036	 0.24885
H	-0.2987202784	 2.0119352792	-0.5185425713	 0.243102
H	 0.8699353835	-0.4186769512	 0.5884415823	 0.123368
H	-1.2817939364	-1.4253383185	 0.9787772688	 0.097275
H	-2.4676587829	 0.7986776521	 1.2870437001	 0.130247
H	-2.5404386877	 0.9703921691	-0.4656020108	 0.087348
H	-3.8734007413	-1.1674551946	-0.6076769445	 0.112236
H	-3.8311415062	-1.2921428175	 1.154238007	 0.113668
H	-5.082110377	 0.7647341157	-0.2970184383	 0.283781
62.0101	86.4643	115.2231	131.154	189.9755	238.1162	265.8974	290.5959	354.5421	424.0788	507.6611	575.8526	699.5947	747.9095	798.5994	816.5503	853.0939	883.9326	946.105	1025.7725	1053.9837	1074.1209	1103.477	1123.9423	1148.3329	1202.5316	1208.4909	1229.436	1265.5787	1316.5024	1327.1267	1387.5967	1415.9693	1421.5438	1429.8584	1469.8821	1512.3362	1670.0377	1929.6587	3005.4916	3020.3419	3063.4143	3064.626	3083.3067	3090.8771	3517.4707	3596.5961	3819.3436
NC1C(CCO)OC1=O	N[C@H]1[C@@H](CCO)OC1=O	
InChI=1S/C5H9NO3/c6-4-3(1-2-7)9-5(4)8/h3-4,7H,1-2,6H2	InChI=1S/C5H9NO3/c6-4-3(1-2-7)9-5(4)8/h3-4,7H,1-2,6H2/t3-,4+/m1/s1
