19
gdb 50768	3.07834	1.18149	0.92513	1.9294	72.41	-0.2438	-0.0316	0.2122	1253.4778	0.159512	-460.15455	-460.146052	-460.145108	-460.188201	31.329	
O	-0.9798741943	 1.3671609632	 0.6973708158	-0.242104
C	-0.1538046859	 1.230018372	-0.1694948803	 0.140873
C	 1.2705462396	 1.7381447921	-0.098080895	-0.103865
C	 1.5888087273	 2.6100352369	-1.3364173007	-0.106511
O	 2.9775256108	 2.7307464121	-1.5425441924	-0.243089
C	 3.6629385921	 3.7459803864	-0.8267624119	-0.062061
C	 3.1259097583	 4.0644157731	 0.5734831505	-0.109827
O	 2.876989999	 2.9182553962	 1.3595802515	-0.241048
C	 1.5557440526	 2.4214696683	 1.2435388059	-0.091256
H	-0.4044456236	 0.6972528693	-1.1166991314	 0.083278
H	 1.9191221769	 0.8549306705	-0.2035213977	 0.116776
H	 1.1958281489	 2.1181027264	-2.2338320711	 0.111906
H	 1.0915199177	 3.5886290622	-1.2609370799	 0.103453
H	 4.6953985217	 3.3898047893	-0.7519830704	 0.118762
H	 3.6740886624	 4.6865526263	-1.4034198104	 0.090403
H	 3.8866091981	 4.662585708	 1.0899611149	 0.111044
H	 2.2185374171	 4.6841725175	 0.5125872843	 0.095342
H	 0.8275061476	 3.2312273516	 1.4035771615	 0.104636
H	 1.4251061436	 1.7050963888	 2.0581984468	 0.123289
65.7017	103.7141	163.5779	209.0299	276.8063	313.6856	354.5772	374.4838	420.4467	508.0939	599.2802	686.1546	813.9401	837.2555	858.4091	916.8916	928.4063	974.5117	1012.2876	1042.701	1117.9038	1132.2226	1149.3792	1168.4842	1201.9204	1249.8135	1272.4667	1283.7265	1309.2526	1338.4416	1349.3458	1377.7609	1410.7232	1418.844	1424.317	1437.8317	1484.6888	1492.7348	1498.9103	1514.7364	1822.6889	2857.3618	2964.8279	2986.7661	2991.6714	2999.4293	3010.9016	3051.9204	3058.28	3078.2737	3101.9235
O=CC1COCCOC1	O=CC1COCCOC1	
InChI=1S/C6H10O3/c7-3-6-4-8-1-2-9-5-6/h3,6H,1-2,4-5H2	InChI=1S/C6H10O3/c7-3-6-4-8-1-2-9-5-6/h3,6H,1-2,4-5H2
