21
gdb 104619	2.51785	1.14089	0.93343	1.5094	85.13	-0.253	0.0436	0.2965	1355.9254	0.18046	-387.048123	-387.038192	-387.037248	-387.082908	37.489	
C	 0.1103205117	 1.6353628092	 0.0821030123	-0.408698
C	 0.0750583802	 0.1158214881	 0.0465653971	 0.060469
C	 1.0514061674	-0.6300573275	-0.9045477916	-0.281601
C	 1.3163555056	-1.6867129236	 0.2229208024	 0.093631
C	 2.7865536358	-2.0623375898	 0.4628010616	-0.113873
O	 2.9654585418	-2.8439384617	 1.6251421891	-0.420689
C	 0.6810849013	-0.6737683117	 1.2387944042	-0.260672
C	 0.5257474629	-2.9001151106	 0.0717028905	 0.309528
C	-0.0855415662	-3.9327206501	-0.0293020156	-0.497959
H	 1.1270131958	 2.0010239671	 0.2672470639	 0.110468
H	-0.2309160787	 2.0643214347	-0.8667643015	 0.115677
H	-0.5343307324	 2.0294879498	 0.8756904907	 0.117034
H	-0.9478396318	-0.228154542	-0.1389560907	 0.081711
H	 0.6601267404	-1.0050086498	-1.8517203871	 0.107447
H	 1.9571501711	-0.045357496	-1.1003528473	 0.098162
H	 3.1809647923	-2.5658375972	-0.4348006644	 0.091077
H	 3.3677788905	-1.1469357135	 0.6153964414	 0.102041
H	 2.4092328567	-3.6261655288	 1.5254258871	 0.286097
H	 1.4652779388	-0.1091979546	 1.752877785	 0.102977
H	-0.0047199184	-1.0827185727	 1.9819106749	 0.108862
H	-0.6465514946	-4.8286718993	-0.132079262	 0.198309
58.7235	98.475	144.7193	164.5586	220.094	248.4679	311.2912	335.2731	390.4362	395.9819	436.4281	483.6443	555.897	614.3822	644.3913	663.6262	717.434	830.211	854.3706	903.8067	917.2802	935.6831	971.3345	1028.4631	1064.8764	1086.3174	1092.2423	1148.4685	1151.2914	1200.4659	1227.553	1237.6191	1278.6895	1295.2693	1313.0269	1373.3715	1377.0501	1411.0521	1427.3543	1470.3114	1488.531	1496.2605	1496.947	1505.6713	2219.237	2973.7795	3022.5792	3042.8092	3048.3765	3058.0437	3072.2238	3091.3526	3091.5154	3118.5123	3126.1446	3499.7459	3781.0636
CC1CC(CO)(C1)C#C	C[C@H]1C[C@@](CO)(C1)C#C	
InChI=1S/C8H12O/c1-3-8(6-9)4-7(2)5-8/h1,7,9H,4-6H2,2H3	InChI=1S/C8H12O/c1-3-8(6-9)4-7(2)5-8/h1,7,9H,4-6H2,2H3/t7-,8+
