16
gdb 12056	4.13691	1.66635	1.53172	2.6912	64.65	-0.2406	-0.0323	0.2082	871.2664	0.128279	-383.705349	-383.697718	-383.696773	-383.737406	28.358	
C	 0.0215935753	 1.6661675648	-0.0441779432	-0.45102
C	 0.0800948693	 0.156172277	 0.009751786	 0.301223
O	 1.1111103585	-0.4420675977	-0.8444586026	-0.332196
C	 1.5971475351	-1.2252089021	 0.2493282481	 0.105052
C	 2.1539957442	-0.3456252485	 1.3161591674	-0.310962
C	 0.6564976905	-0.5731870055	 1.2382012665	-0.163222
C	-1.247134689	-0.498074479	-0.3669484195	 0.141944
O	-2.3227517859	 0.027956243	-0.2559472098	-0.250856
H	 0.9287952518	 2.1137359361	 0.3662127349	 0.120468
H	-0.094244657	 1.9999123892	-1.0797904408	 0.135992
H	-0.8457657317	 2.0162165866	 0.5210085432	 0.144275
H	 1.8705609982	-2.2551626216	 0.0555385715	 0.111201
H	 2.6278758606	-0.8611537439	 2.1459600855	 0.12246
H	 2.5966769282	 0.6097666199	 1.052193502	 0.123461
H	 0.0752196642	-0.9830072193	 2.0527819505	 0.112433
H	-1.1267750123	-1.533828759	-0.7533712297	 0.089748
60.1675	178.7908	190.352	256.1083	279.1953	338.4404	444.1888	480.0496	534.5246	717.2756	754.0171	795.4925	841.5434	890.4649	953.7238	970.42	974.5268	996.9081	1031.5184	1047.3238	1057.5681	1087.6691	1128.2252	1166.3618	1209.969	1262.5483	1285.7643	1349.0592	1393.225	1414.2505	1469.039	1479.4919	1488.9149	1832.6764	2900.127	3052.0436	3122.3201	3123.9819	3139.9366	3188.9382	3205.3607	3215.4988
CC1(OC2CC12)C=O	C[C@]1(O[C@H]2C[C@@H]12)C=O	
InChI=1S/C6H8O2/c1-6(3-7)4-2-5(4)8-6/h3-5H,2H2,1H3	InChI=1S/C6H8O2/c1-6(3-7)4-2-5(4)8-6/h3-5H,2H2,1H3/t4-,5+,6+/m1/s1
