18
gdb 27348	1.85751	1.79837	0.92427	6.9581	83.98	-0.2069	-0.0068	0.2001	1254.2512	0.148186	-402.027418	-402.018616	-402.017672	-402.060819	32.853	
C	-0.0177281222	 1.4997829255	 0.091563505	-0.493888
C	-0.0005786948	 0.0035158221	-0.0334493188	 0.409097
C	-0.0162407277	-0.6742876258	-1.2065850157	-0.347408
C	 0.0018149895	-2.1374720833	-1.2686865881	 0.405929
O	-0.0120220638	-2.7660413218	-2.3240959835	-0.408451
C	 0.0379472279	-2.7801521478	 0.0468924429	-0.347408
C	 0.052814806	-2.0715181721	 1.2016768542	 0.409097
C	 0.0896444343	-2.6746400984	 2.576313198	-0.493888
N	 0.0335395339	-0.6950116468	 1.1533013635	-0.437243
H	 0.8731566676	 1.8651167048	 0.6166691663	 0.136542
H	-0.0446588794	 1.9637723706	-0.8948563504	 0.15127
H	-0.8950319382	 1.8417335433	 0.6539553	 0.136542
H	-0.0431028787	-0.1329963556	-2.1447810969	 0.101785
H	 0.0528773741	-3.8631511955	 0.0755257935	 0.101785
H	 0.1028689802	-3.763208252	 2.5140223839	 0.15127
H	 0.9815410881	-2.3532058126	 3.1277477274	 0.136536
H	-0.7866502001	-2.3767980923	 3.1647648352	 0.136549
H	 0.0450756134	-0.1796523723	 2.0186152133	 0.251881
117.9022	120.8389	167.953	174.7797	223.14	267.8979	325.3621	474.09	500.8665	515.6147	521.4106	544.2217	593.3257	596.6372	738.6793	871.7472	890.2799	917.7204	966.5365	970.7687	1045.1773	1064.2161	1065.7142	1069.8623	1174.1127	1215.2466	1248.5503	1366.495	1387.0179	1414.4917	1419.7567	1473.8583	1480.5953	1480.6594	1489.0198	1532.006	1659.9144	1683.7141	1728.6566	3025.8366	3026.486	3076.7905	3077.1233	3144.6023	3144.7901	3205.3814	3206.2482	3640.1875
CC1=CC(=O)C=C(C)N1	Cc1cc(=O)cc(C)[nH]1	
InChI=1S/C7H9NO/c1-5-3-7(9)4-6(2)8-5/h3-4H,1-2H3,(H,8,9)	InChI=1S/C7H9NO/c1-5-3-7(9)4-6(2)8-5/h3-4H,1-2H3,(H,8,9)
