18
gdb 114945	4.12188	0.89613	0.81048	5.1152	79.98	-0.2059	-0.0272	0.1788	1403.2633	0.148272	-439.1077	-439.098909	-439.097965	-439.141635	32.163	
O	-0.0575288793	 1.3502443165	 0.2563285915	-0.428321
C	-0.0141057777	-0.0548896675	 0.0441801312	-0.085092
C	-1.4551699493	-0.530971337	-0.1212670201	 0.025404
C	-1.5713511108	-2.0799903175	-0.1641809188	-0.349636
C	-2.0742863778	-2.4193688758	 1.2277508804	 0.180006
C	-2.1918673649	-3.7434895152	 1.7729774046	 0.051466
O	-1.8704574198	-4.7677036025	 1.1943881741	-0.313892
C	-2.4219140616	-1.2655137669	 1.8507084408	-0.0769
N	-2.2540890594	-0.1607176896	 1.0654970863	-0.273914
H	 0.8312411705	 1.6600767143	 0.4517657651	 0.295059
H	 0.5573238892	-0.3124909276	-0.860302454	 0.100246
H	 0.4445902687	-0.5768048821	 0.8981252037	 0.100946
H	-1.8781585021	-0.0516549614	-1.0089573603	 0.098428
H	-2.2800621694	-2.4072492192	-0.9326830723	 0.123677
H	-0.6154236557	-2.5616360484	-0.3948850395	 0.122276
H	-2.6046856162	-3.7788408905	 2.8087732411	 0.042713
H	-2.8301766269	-1.1584649083	 2.8491266521	 0.131468
H	-2.0713436275	 0.7445616688	 1.4736841243	 0.256067
61.5978	120.5463	151.5412	185.1434	240.3114	268.2134	336.5452	377.1428	438.7422	512.3447	552.4384	571.1829	726.5177	803.2022	838.0476	892.0514	911.3016	932.7869	1017.4218	1026.8279	1058.2307	1076.3402	1101.8978	1158.7329	1169.8746	1238.2234	1257.2137	1268.0329	1290.2331	1314.8894	1364.4172	1378.5911	1427.4501	1447.4668	1457.5486	1496.9932	1514.3993	1657.2799	1754.9969	2845.962	2979.7701	3016.9678	3041.148	3066.3689	3077.3868	3209.0008	3612.7872	3837.7824
OCC1CC(C=O)=CN1	OC[C@H]1CC(=CN1)C=O	
InChI=1S/C6H9NO2/c8-3-5-1-6(4-9)7-2-5/h2-3,6-7,9H,1,4H2	InChI=1S/C6H9NO2/c8-3-5-1-6(4-9)7-2-5/h2-3,6-7,9H,1,4H2/t6-/m1/s1
