17
gdb 115473	4.94019	0.84848	0.77462	1.9775	74.64	-0.2517	-0.0727	0.1791	1428.6013	0.135131	-458.971031	-458.962321	-458.961376	-459.005233	31.052	
O	 0.0700523889	 1.3292689526	-0.2656004328	-0.416829
C	 0.058449439	-0.0658823218	-0.0688317173	-0.055633
C	-1.3678383509	-0.5556175488	 0.2273529306	 0.067419
O	-2.220648017	-0.1368029884	-0.8483533586	-0.298046
C	-2.8160129328	-1.2679021898	-1.49160129	-0.164771
C	-2.3248545461	-2.4568094698	-0.707705732	 0.212457
C	-2.6978202966	-3.8404738005	-1.0075719314	 0.074825
O	-3.4314860462	-4.1532374134	-1.9189585068	-0.261282
C	-1.518322715	-2.0444434702	 0.2755719428	-0.214728
H	-0.6134070305	 1.5085052474	-0.9234689762	 0.293932
H	 0.4447801586	-0.608463361	-0.9468314115	 0.088952
H	 0.7157903984	-0.280603357	 0.7809252968	 0.108246
H	-1.7089991164	-0.0710041116	 1.1554773502	 0.10447
H	-3.9100179415	-1.1774967686	-1.467217869	 0.128531
H	-2.5148168789	-1.314589216	-2.5468597382	 0.125977
H	-2.2546891581	-4.602774816	-0.3304741099	 0.077849
H	-1.0199572748	-2.6748905969	 1.0025249634	 0.128629
57.8558	110.8353	119.2312	163.2625	199.3176	285.9319	363.552	415.8245	468.6117	503.5	542.2117	710.1907	759.7911	836.7798	863.9629	910.1039	989.8697	1012.2549	1016.6311	1053.6653	1078.0533	1080.5866	1103.6129	1189.5297	1213.5767	1223.7916	1278.0603	1315.2116	1357.9432	1386.8219	1387.7481	1418.3283	1431.9653	1498.5458	1520.1701	1689.4254	1783.684	2895.0121	2972.1661	2990.6052	3011.4604	3038.1674	3072.5645	3211.1224	3783.9586
OCC1OCC(C=O)=C1	OC[C@H]1OCC(=C1)C=O	
InChI=1S/C6H8O3/c7-2-5-1-6(3-8)9-4-5/h1-2,6,8H,3-4H2	InChI=1S/C6H8O3/c7-2-5-1-6(3-8)9-4-5/h1-2,6,8H,3-4H2/t6-/m0/s1
