15
gdb 25692	6.15447	0.75235	0.67321	2.0343	81.71	-0.1951	0.0143	0.2094	1610.6813	0.112926	-416.833199	-416.824426	-416.823482	-416.868508	31.181	
C	-0.0767663385	 1.4429799145	 0.012010727	-0.509384
C	-0.0156608634	-0.0099195449	 0.0065473816	 0.232797
C	 0.0314562587	-1.2153053558	 0.0024078286	-0.117508
C	 0.0823296447	-2.6286619034	-0.0019322546	 0.147707
C	 1.1985699763	-3.4227273936	-0.090806826	-0.211147
N	 0.7310357416	-4.7269317454	-0.0538999506	-0.288314
C	-0.6208892446	-4.6471823356	 0.0536104557	 0.425279
O	-1.3482286894	-5.774446896	 0.1111939904	-0.430014
N	-1.0651949624	-3.4243182368	 0.089180859	-0.416729
H	 0.9268608394	 1.8814732317	 0.0462823722	 0.146416
H	-0.5746502136	 1.827074672	-0.8858988773	 0.147975
H	-0.629969958	 1.8159467007	 0.8816165369	 0.148839
H	 2.2455066904	-3.1888488615	-0.1740116436	 0.133036
H	 1.2730225692	-5.572779354	-0.0972461738	 0.275021
H	-2.2700713903	-5.4963738618	 0.1845996944	 0.316026
14.3011	87.5059	98.0398	244.8884	293.9708	321.2853	410.5568	411.1463	456.582	458.1314	501.5371	561.786	668.9815	728.5709	734.2843	737.3998	938.1932	1030.2848	1050.9596	1052.5124	1055.182	1100.4535	1198.8548	1258.4171	1318.3981	1381.4552	1413.3611	1475.1664	1478.5789	1547.7614	1587.1375	1635.1778	2362.0299	3022.209	3079.4675	3084.9805	3289.1379	3676.3369	3803.9418
CC#CC1=CNC(O)=N1	CC#Cc1c[nH]c(O)n1	
InChI=1S/C6H6N2O/c1-2-3-5-4-7-6(9)8-5/h4H,1H3,(H2,7,8,9)	InChI=1S/C6H6N2O/c1-2-3-5-4-7-6(9)8-5/h4H,1H3,(H2,7,8,9)
