14
gdb 67188	3.11511	1.54939	1.49485	4.1595	60.98	-0.2334	0.0004	0.2338	905.9001	0.101607	-473.791114	-473.784311	-473.783366	-473.822071	27.137	
O	-0.0632920664	 1.4373801464	 0.0494589153	-0.453257
C	 0.0342348572	 0.0719079205	 0.0136183574	 0.31447
C	 0.0424120607	-0.8440373196	-1.1779699068	-0.140109
N	 1.2256947989	-1.6515491323	-1.134273287	-0.316077
C	 1.7596195456	-1.7046837069	 0.1457121784	 0.442586
O	 2.7273214604	-2.3323958579	 0.502377021	-0.374207
C	 0.7709564842	-0.8913057947	 0.9933119865	-0.131731
O	-0.4171503702	-1.7634876598	 1.0200852685	-0.284536
C	-0.9984968691	-1.0122182101	-0.0296131317	 0.028047
H	 0.6515218857	 1.8166021394	-0.4757644859	 0.297588
H	-0.3025593672	-0.4834917912	-2.1391261689	 0.118421
H	 1.3924865103	-2.4172416452	-1.7694957203	 0.258569
H	 1.0921507661	-0.5825932747	 1.9848172018	 0.113343
H	-2.072600306	-1.0436493539	-0.1648025881	 0.126893
150.192	244.6346	317.8901	330.6966	365.1838	463.8274	474.196	562.2928	588.3401	658.5033	729.8928	761.0556	809.2437	848.2243	877.9001	913.1754	940.2534	978.3322	1041.5467	1064.6878	1092.2698	1137.0236	1174.1777	1220.3862	1235.7039	1269.9266	1320.244	1326.9714	1386.0406	1502.0388	1841.4619	3163.9774	3196.5995	3204.2248	3626.4747	3782.6398
OC12C3NC(=O)C1OC23	O[C@@]12[C@H]3NC(=O)[C@@H]1O[C@@H]23	
InChI=1S/C5H5NO3/c7-4-3-5(8)1(6-4)2(5)9-3/h1-3,8H,(H,6,7)	InChI=1S/C5H5NO3/c7-4-3-5(8)1(6-4)2(5)9-3/h1-3,8H,(H,6,7)/t1-,2+,3-,5+/m0/s1
