20
gdb 28010	5.20249	0.93677	0.85226	1.8261	88.19	-0.196	0.0471	0.2431	1419.8167	0.171663	-366.033518	-366.02478	-366.023836	-366.06814	32.983	
C	 0.1724118966	 1.5208404845	-0.0047875345	-0.496563
C	 0.0373311542	 0.0277395918	 0.0197487615	 0.258665
C	 0.0335693978	-0.812583977	-1.071734601	-0.194289
N	-0.1106322571	-2.1118585292	-0.6409162839	 0.014932
C	-0.1999189321	-2.1088886375	 0.7297884931	-0.094242
C	-0.1120866265	-0.8067544943	 1.1653674229	-0.272078
C	-0.1553455225	-3.248919843	-1.5137718065	 0.084727
C	 0.4624477678	-4.5641010279	-1.1219623416	-0.286145
C	-1.041828761	-4.4292255343	-1.2206096433	-0.286124
H	 1.0527829252	 1.8602463044	 0.5539968832	 0.121255
H	 0.2716024642	 1.8912321478	-1.0296340331	 0.114573
H	-0.6980575144	 2.0167517458	 0.4411175582	 0.12125
H	 0.1219121507	-0.5936989686	-2.1248585247	 0.111531
H	-0.3180753683	-3.026330762	 1.2836084959	 0.116055
H	-0.1505831903	-0.4842408564	 2.1955073777	 0.087822
H	-0.060063092	-2.9433783803	-2.5488397796	 0.103545
H	 0.9891696071	-5.1297764344	-1.8824973551	 0.120264
H	 0.898977963	-4.6307268553	-0.1318011679	 0.12728
H	-1.6077846497	-4.4059283343	-0.2961802378	 0.127282
H	-1.5573833626	-4.9014655098	-2.0494835737	 0.120262
20.4587	99.7967	135.9866	177.8373	256.9163	297.6545	413.7134	426.2804	594.7107	626.6396	635.6156	672.8583	679.1752	755.4155	774.9879	801.1857	806.1043	898.7069	941.8223	982.0966	1004.3887	1014.9109	1058.4622	1062.2993	1070.9935	1082.4862	1106.737	1120.5024	1186.3673	1196.2783	1236.9194	1272.9948	1322.3932	1385.0308	1414.7318	1423.5817	1447.9475	1462.7473	1484.0424	1497.9753	1506.8723	1539.6313	1609.3404	3021.3116	3067.9377	3100.1326	3136.9648	3139.7969	3181.8513	3218.2521	3232.7041	3235.3227	3247.6706	3263.7263
CC1=CN(C=C1)C1CC1	Cc1cn(cc1)C1CC1	
InChI=1S/C8H11N/c1-7-4-5-9(6-7)8-2-3-8/h4-6,8H,2-3H2,1H3	InChI=1S/C8H11N/c1-7-4-5-9(6-7)8-2-3-8/h4-6,8H,2-3H2,1H3
