21
gdb 72729	2.5617	1.94851	1.5648	1.3604	82.39	-0.213	0.0701	0.283	958.8593	0.184445	-387.002219	-386.994939	-386.993994	-387.033061	31.831	
O	 0.1635712794	 1.3528695536	 0.1582690005	-0.48692
C	 0.0945077859	-0.058864987	-0.0184807572	 0.472951
C	 0.1530015672	-0.3659317346	-1.5604905121	-0.358197
C	-1.4460979916	-0.2807399361	-1.5056272814	-0.359825
C	-1.2984258162	-0.6764655663	-0.004390939	 0.280922
C	-1.3701578718	-0.2472272205	 1.5048181854	-0.328656
C	 0.1891739485	-0.6530858618	 1.4343704253	-0.107051
C	 0.1098190869	-2.1648784091	 1.2404305106	-0.218403
C	-1.0263321407	-2.1971914035	 0.1724230686	-0.240006
H	-0.1328043786	 1.7866304491	-0.6480814641	 0.275568
H	 0.6833508004	 0.371603796	-2.1707990324	 0.093907
H	 0.5035534379	-1.3587349678	-1.8398538939	 0.119698
H	-1.7987271072	 0.7404479097	-1.6741578562	 0.101611
H	-2.0127994311	-0.9518512394	-2.156008487	 0.102873
H	-1.5075233971	 0.8168132393	 1.6696769798	 0.12175
H	-1.9990902031	-0.8392514729	 2.1769366537	 0.083498
H	 0.9027640461	-0.2534404764	 2.1567711006	 0.067071
H	 1.0476935679	-2.5935476675	 0.8746837381	 0.095552
H	-0.1574995823	-2.6842079477	 2.1648669617	 0.096911
H	-1.9284784588	-2.7001757164	 0.5341388787	 0.095392
H	-0.7284847516	-2.7018363607	-0.7488268699	 0.091355
219.9058	268.1053	284.1156	329.6748	368.3997	443.2799	467.9097	496.9405	524.0115	611.3484	655.5131	710.7334	782.3314	820.3185	837.3277	864.4133	876.5458	899.0762	924.7473	944.388	959.7342	977.1108	1004.1467	1036.8031	1047.3314	1086.847	1121.1286	1142.3731	1161.6315	1182.9295	1192.6772	1202.4746	1218.5505	1229.3201	1237.6566	1260.4463	1268.9822	1307.6649	1324.0083	1359.2811	1476.7495	1485.7424	1493.2489	1500.6151	1526.8625	3048.5504	3054.0675	3055.2563	3058.3185	3062.4105	3087.0973	3104.7796	3105.6481	3107.0777	3145.0562	3187.6485	3812.7698
OC12CCC11CC2CC1	O[C@]12CC[C@@]31C[C@H]2CC3	
InChI=1S/C8H12O/c9-8-4-3-7(8)2-1-6(8)5-7/h6,9H,1-5H2	InChI=1S/C8H12O/c9-8-4-3-7(8)2-1-6(8)5-7/h6,9H,1-5H2/t6-,7-,8+/m1/s1
