16
gdb 16352	2.69773	2.26868	1.41024	3.6239	67.47	-0.2394	0.0142	0.2535	895.3672	0.130057	-379.889058	-379.881385	-379.880441	-379.920804	28.769	
C	-0.4474682172	 1.4515333005	 0.0138990453	-0.40438
C	 0.1162007786	 0.0419826607	-0.0086728098	-0.015434
N	 1.426660683	-0.1114766051	-0.6908333745	-0.370851
C	 2.0308949309	-0.8055185477	 0.3646837019	 0.320194
N	 3.1054082321	-1.4376776554	 0.5655837735	-0.547532
C	 0.8347238181	-0.5085454219	 1.2445236028	 0.354581
C	 0.766057287	-0.1293297154	 2.6549955809	-0.256793
O	 0.2720912983	-1.391401067	 2.1814330191	-0.259317
H	 0.2961980432	 2.1593592613	 0.3906709335	 0.125645
H	-0.7469457454	 1.7706650978	-0.9898194509	 0.121082
H	-1.3347899235	 1.4970667262	 0.6542635407	 0.126032
H	-0.6334897053	-0.6777555296	-0.3615667632	 0.096188
H	 1.5519344113	-0.3191955036	-1.6713602793	 0.240275
H	 3.686012343	-1.4813334694	-0.2737655507	 0.211763
H	 1.669258282	-0.1822423893	 3.2593051646	 0.138743
H	 0.004538694	 0.573905338	 2.9883899663	 0.119805
108.6708	192.8323	223.5223	230.7635	259.6209	306.1604	408.1425	489.1788	529.5855	620.4325	700.6166	732.4826	829.1909	846.0221	894.6128	923.9623	957.6954	1043.6781	1062.2656	1085.7506	1117.6222	1129.71	1165.1391	1166.1289	1211.4615	1314.0529	1349.8295	1386.6398	1410.6573	1447.8602	1490.655	1495.9677	1534.6661	1802.7741	3026.4474	3035.7429	3089.7745	3102.1299	3119.1779	3184.9056	3461.0796	3600.6757
CC1NC(=N)C11CO1	C[C@H]1N[C]([NH])[C@]21CO2	
InChI=1S/C5H8N2O/c1-3-5(2-8-5)4(6)7-3/h3H,2H2,1H3,(H2,6,7)	InChI=1S/C5H8N2O/c1-3-5(2-8-5)4(6)7-3/h3H,2H2,1H3,(H2,6,7)/t3-,5-/m1/s1
