21
gdb 109868	2.26837	1.41153	1.03161	1.4164	78.2	-0.2445	0.0573	0.3018	1236.8366	0.180998	-424.192682	-424.183049	-424.182105	-424.226753	36.658	
C	 0.0174229238	 1.5704525663	-0.0733702978	-0.379195
C	 0.1089541989	 0.0399612898	-0.0878237462	-0.201373
C	 0.6931676308	-0.5372917687	 1.1980904767	-0.085304
C	-0.2171034878	-0.6391831195	 2.4922378056	 0.088599
O	-1.5999977337	-0.3774919044	 2.3499171264	-0.426219
C	 0.0976011106	-2.1248125344	 2.5916627571	-0.117059
C	-0.3477796137	-2.8280773014	 1.3262951285	-0.347915
C	 0.9343036668	-2.047533529	 1.3205025393	 0.375562
O	 2.1677929032	-2.6433094937	 1.1094819115	-0.465455
H	 1.0040570677	 2.0263354396	 0.0649533082	 0.116617
H	-0.4012949419	 1.9552814675	-1.0083722491	 0.114743
H	-0.6233129423	 1.9280075333	 0.7411095698	 0.097203
H	-0.8866720359	-0.3819183869	-0.261241173	 0.106542
H	 0.7337073954	-0.2751717094	-0.9341632404	 0.089586
H	 1.6209155118	-0.0134172714	 1.4556893439	 0.070442
H	 0.2040812512	-0.0673112534	 3.3279646357	 0.07004
H	-1.7256022532	 0.5761016757	 2.322345795	 0.284428
H	 0.2840581947	-2.6704921537	 3.5077564685	 0.090909
H	-0.2019389095	-3.9034375891	 1.353675719	 0.109792
H	-1.2359894459	-2.4996958369	 0.7968622348	 0.122302
H	 2.191442679	-2.9775115105	 0.2066689163	 0.285757
95.9647	112.0615	157.881	211.1052	225.5572	262.9488	271.4932	301.1575	318.9868	397.9942	496.746	529.1853	555.0957	663.8464	719.2599	760.4465	825.8333	847.6374	908.4888	948.1022	962.0158	985.2561	1020.998	1026.9257	1059.1533	1080.5572	1090.3155	1135.5036	1155.6637	1187.6171	1213.0156	1239.6769	1253.9713	1297.7308	1321.273	1322.7373	1337.5854	1380.9959	1407.9653	1415.8689	1427.4678	1480.8189	1497.2171	1501.7316	1502.346	3018.0973	3019.4366	3027.7087	3043.2351	3068.9945	3091.9589	3103.3782	3128.5126	3193.6184	3215.4591	3802.6402	3821.9078
CCC1C(O)C2CC12O	CC[C@H]1[C@@H](O)[C@H]2C[C@@]12O	
InChI=1S/C7H12O2/c1-2-4-6(8)5-3-7(4,5)9/h4-6,8-9H,2-3H2,1H3	InChI=1S/C7H12O2/c1-2-4-6(8)5-3-7(4,5)9/h4-6,8-9H,2-3H2,1H3/t4-,5+,6+,7+/m0/s1
