21
gdb 72644	2.0104	1.89506	1.57672	1.4792	82.65	-0.2404	0.0133	0.2538	1018.0463	0.182746	-387.101101	-387.092639	-387.091695	-387.133358	34.249	
C	-0.1134335157	 1.4867480459	 0.1231216324	-0.467177
C	-0.0199252029	-0.0263026404	 0.0114756379	 0.279945
C	 1.0956097768	-0.5266446804	-0.9637746584	-0.268888
C	 1.9996563455	-0.8949602038	 0.2441984199	-0.270923
C	 0.7770163044	-0.7520721815	 1.1729737698	 0.379929
O	 1.0909389071	-0.0604310387	 2.3653004434	-0.477578
C	-0.0371993333	-1.9986632521	 1.4034758665	-0.174084
C	-1.1904258961	-1.9905803382	 0.7332032461	-0.060227
C	-1.3743476393	-0.7527429891	-0.1154620121	-0.34057
H	 0.8722109407	 1.9385593682	 0.2712831431	 0.120984
H	-0.5504568054	 1.918645525	-0.7847358941	 0.109275
H	-0.7398727382	 1.7850248761	 0.9712132369	 0.10496
H	 0.7851284518	-1.3992915481	-1.5443290576	 0.097636
H	 1.4936137709	 0.2233869452	-1.6518204905	 0.095979
H	 2.5048270165	-1.8637398892	 0.226380265	 0.094542
H	 2.7336897725	-0.1171930717	 0.4705849566	 0.110589
H	 0.3068450922	-0.0659242276	 2.9255837715	 0.271814
H	 0.3026788443	-2.7833115645	 2.0723025672	 0.094427
H	-1.9340099669	-2.7805589113	 0.7723580141	 0.09513
H	-2.2184988342	-0.1468999927	 0.2448033367	 0.098339
H	-1.6057049306	-1.0014719011	-1.1594132144	 0.105896
118.0077	205.6136	224.1949	233.0449	287.9241	333.4144	340.2237	382.1554	468.8875	493.4376	549.9375	644.4952	669.108	758.0293	763.6842	771.2686	868.1069	906.2237	939.5104	947.7269	970.1613	974.8081	987.8111	1009.0505	1028.0631	1090.9702	1117.5861	1156.3265	1172.7831	1208.2196	1224.4718	1236.9818	1246.2594	1269.7631	1275.2065	1337.7184	1349.3086	1387.9248	1412.304	1473.8737	1479.4777	1489.1012	1491.6493	1494.9375	1674.7037	3001.0539	3024.2459	3037.0378	3055.3804	3062.4276	3086.2738	3100.429	3102.3043	3120.3266	3169.7806	3194.846	3797.7734
CC12CCC1(O)C=CC2	C[C@@]12CC[C@]1(O)C=CC2	
InChI=1S/C8H12O/c1-7-3-2-4-8(7,9)6-5-7/h2,4,9H,3,5-6H2,1H3	InChI=1S/C8H12O/c1-7-3-2-4-8(7,9)6-5-7/h2,4,9H,3,5-6H2,1H3/t7-,8-/m1/s1
