14
gdb 45728	2.66103	1.44121	1.11824	4.7889	67.71	-0.2821	-0.0337	0.2484	1066.1079	0.101223	-436.728996	-436.721271	-436.720326	-436.76246	27.782	
O	-0.067478569	 0.177325895	 0.8597651615	-0.302315
C	-0.0557898779	 1.1280518375	 0.1351592916	 0.426852
C	-1.3164668417	 1.8009165348	-0.3823354197	-0.409666
C	-1.119919626	 3.2073157637	-0.8626786678	-0.063833
C	 0.0760174199	 3.6433163662	-1.2323666698	-0.078113
C	 1.2772744508	 2.7356319413	-1.1569511109	-0.054112
O	 1.1524025482	 1.6541251624	-0.2292603705	-0.231049
C	 1.6072349196	 2.2009153046	-2.4958064504	 0.272107
N	 1.8546253802	 1.8053463726	-3.5525312763	-0.30381
H	-1.7095636218	 1.1719080322	-1.1941728194	 0.170205
H	-2.0558207644	 1.737050314	 0.4206044872	 0.159326
H	-1.989395747	 3.8552548976	-0.9114433251	 0.124126
H	 0.250700768	 4.6426019787	-1.6137544939	 0.130796
H	 2.150978881	 3.2986016294	-0.8091982565	 0.159487
40.5846	74.5399	166.7956	250.8442	381.1067	446.7752	455.8686	497.1036	564.4019	585.6958	615.6021	713.5088	773.0102	890.7292	926.2918	966.5695	971.4016	1006.2661	1010.8628	1104.7134	1154.6707	1203.0422	1227.628	1312.4279	1342.127	1376.1765	1401.8152	1448.0742	1740.8807	1867.291	2358.3906	3020.9989	3052.2933	3096.1835	3179.3962	3207.6865
O=C1CC=CC(O1)C#N	O=C1CC=C[C@@H](O1)C#N	
InChI=1S/C6H5NO2/c7-4-5-2-1-3-6(8)9-5/h1-2,5H,3H2	InChI=1S/C6H5NO2/c7-4-5-2-1-3-6(8)9-5/h1-2,5H,3H2/t5-/m1/s1
