16
gdb 23531	2.37415	1.57681	1.2258	1.227	68.72	-0.2378	0.0032	0.241	1043.8536	0.123945	-474.928667	-474.920821	-474.919876	-474.960912	30.218	
O	-0.0819929468	 1.3740583038	 0.05341521	-0.395867
N	 0.0572153313	-0.0290430012	 0.0594824355	-0.298873
C	-1.0639896132	-0.6018951477	 0.0532629263	 0.500185
C	-1.4916506113	-2.0621955804	-0.0241752554	-0.184708
C	-2.3044300114	-2.1445369163	 1.2788726926	-0.090307
O	-3.0494276369	-0.8934347149	 1.2103779666	-0.280408
C	-2.561243081	-0.3128766541	-0.0079509101	-0.054196
C	-2.6107488852	-1.535957821	-0.9884934051	 0.121692
O	-2.1033024835	-1.3312071025	-2.2779156572	-0.429716
H	 0.8364015135	 1.664776523	 0.0515703258	 0.307224
H	-0.8215858021	-2.8763359544	-0.2875491084	 0.101215
H	-3.0031740646	-2.9874335882	 1.3084330148	 0.109735
H	-1.6772020536	-2.158215383	 2.1762089782	 0.119773
H	-3.0119867351	 0.6587758437	-0.1898213577	 0.101653
H	-3.5593574481	-2.0887379119	-0.9753201625	 0.080458
H	-2.7173760221	-0.7686693948	-2.7610355034	 0.29214
100.2476	188.4832	250.7854	280.3212	302.3318	322.3271	354.8461	410.3598	496.7641	532.0725	663.4949	697.0833	771.4183	866.1425	891.0518	924.6234	931.228	951.9989	990.6279	1014.6126	1066.4289	1085.0255	1139.9415	1143.8999	1174.4886	1189.415	1225.2708	1244.9238	1264.6519	1305.681	1353.1594	1400.8678	1419.8708	1524.395	1817.0533	3023.0051	3036.1569	3082.1077	3164.7008	3171.5818	3814.475	3817.5313
ON=C1C2COC1C2O	ON=C1[C@H]2CO[C@@H]1[C@H]2O	
InChI=1S/C5H7NO3/c7-4-2-1-9-5(4)3(2)6-8/h2,4-5,7-8H,1H2	InChI=1S/C5H7NO3/c7-4-2-1-9-5(4)3(2)6-8/h2,4-5,7-8H,1H2/t2-,4+,5+/m1/s1
