21
gdb 59439	2.66859	1.06659	0.94937	4.4896	80.32	-0.2411	0.022	0.2631	1367.0575	0.181095	-420.422708	-420.412105	-420.41116	-420.459145	38.013	
C	 0.1916337266	 0.3542455267	-2.4844336352	-0.395413
C	 0.1428254924	-0.1672658213	-1.0414943483	 0.033547
C	 0.2648111859	 0.9718372715	-0.0206195566	-0.393735
C	-1.1418024279	-0.9412451516	-0.8204092662	-0.004271
N	-1.2064388229	-2.3093073752	-1.3244040355	-0.31763
C	-1.2788614131	-2.0962823492	 0.1305763525	-0.156795
C	-0.1218526824	-2.6053745124	 0.9530383692	 0.435024
N	-0.4569253277	-2.8930535442	 2.2490489169	-0.534924
O	 1.0078608966	-2.747079317	 0.5293759964	-0.357794
H	 1.131683435	 0.8812250616	-2.6769151461	 0.110401
H	 0.1127298374	-0.4718214583	-3.1972446586	 0.126382
H	-0.6279972593	 1.0565392749	-2.6832197026	 0.099798
H	 0.9686048581	-0.8675915955	-0.8930400208	 0.124007
H	-0.5665355112	 1.6821141073	-0.1130029759	 0.102957
H	 0.2671455941	 0.5897509931	 1.0054736932	 0.111604
H	 1.1935579214	 1.5311175062	-0.1710723254	 0.114556
H	-2.0459986401	-0.3345946067	-0.912848827	 0.076948
H	-2.1308571735	-2.5298957134	-1.6844476791	 0.233858
H	-2.254558427	-2.2044349799	 0.6027009825	 0.073791
H	-1.3640280571	-2.6917481272	 2.6306911453	 0.256267
H	 0.2844583949	-3.1504405293	 2.8796365213	 0.261423
38.272	59.8046	107.82	132.5929	191.7991	218.2386	237.4229	268.6356	318.0173	342.2038	400.7508	466.3877	497.8465	580.0429	647.1954	749.6362	778.544	827.2035	888.067	917.1297	932.2564	944.823	972.21	985.0648	1051.3624	1081.9135	1132.6295	1150.2093	1190.0899	1196.8697	1237.5054	1266.1937	1293.9176	1330.8823	1361.5497	1395.5153	1414.0627	1442.1758	1479.8028	1487.3326	1491.7812	1503.6162	1512.0395	1616.2965	1798.6777	3019.6586	3023.6328	3069.7377	3078.6944	3084.7001	3102.2672	3105.3813	3108.4981	3111.2882	3506.6104	3604.4166	3740.3101
CC(C)C1NC1C(N)=O	CC(C)[C@H]1N[C@H]1C(=O)N	
InChI=1S/C6H12N2O/c1-3(2)4-5(8-4)6(7)9/h3-5,8H,1-2H3,(H2,7,9)	InChI=1S/C6H12N2O/c1-3(2)4-5(8-4)6(7)9/h3-5,8H,1-2H3,(H2,7,9)/t4-,5-/m1/s1
