15
gdb 132973	3.24634	1.42852	0.99824	5.8623	74.02	-0.214	-0.0188	0.1952	1112.2499	0.113644	-458.132002	-458.124014	-458.12307	-458.166301	28.669	
C	-0.0080102086	 1.4885115388	 0.0214434901	-0.350494
N	-0.0087427239	 0.0295024881	-0.0005045931	-0.153534
C	-1.1747810695	-0.7176511411	-0.1513059724	 0.00264
C	-1.1406816911	-2.057736373	-0.154806517	-0.155808
C	 0.1275876027	-2.769152252	 0.0016918498	 0.332968
N	 0.1725288599	-4.0475105257	-0.0019051643	-0.541097
N	 1.2763877947	-1.9544448585	 0.1542961923	-0.409128
C	 1.1393092711	-0.6959735881	 0.1446063739	 0.410114
F	 2.2048784072	 0.0850174777	 0.2884980222	-0.070962
H	 0.6435369819	 1.8909769993	-0.7579818451	 0.158
H	-1.0268520544	 1.8328639229	-0.1588743719	 0.145176
H	 0.3273822875	 1.8696771313	 0.990038097	 0.156276
H	-2.0806363327	-0.1360681278	-0.2630318071	 0.13644
H	-2.0458535078	-2.637285044	-0.2737799929	 0.124105
H	 1.142198813	-4.345565418	 0.1193641587	 0.215305
16.1531	89.1662	188.9606	222.6805	320.1507	368.383	420.8689	483.6245	542.9011	586.6547	686.4693	741.8822	756.3992	789.3732	828.4984	901.2033	961.2967	966.8471	1026.8586	1129.6137	1151.5562	1172.6579	1248.8098	1288.5481	1335.0285	1403.917	1448.1138	1481.8218	1484.1871	1518.556	1639.585	1704.4389	1743.2386	3050.2872	3115.9146	3149.4456	3215.1213	3237.5924	3467.3547	16.1287	89.1659	188.96	222.6805	320.1506	368.3829	420.869	483.6246	542.9011	586.6548	686.469	741.8817	756.3991	789.3729	828.4981	901.2036	961.2958	966.847	1026.8584	1129.6138	1151.5568	1172.6571	1248.8094	1288.5479	1335.0281	1403.9168	1448.1136	1481.8226	1484.1878	1518.5569	1639.5849	1704.439	1743.2385	3050.2871	3115.9145	3149.4455	3215.1213	3237.5922	3467.3547
CN1C=CC(=N)N=C1F	CN1CC=C([NH])N=C1F	
InChI=1S/C5H6FN3/c1-9-3-2-4(7)8-5(9)6/h2-3,7H,1H3	InChI=1S/C5H7FN3/c1-9-3-2-4(7)8-5(9)6/h2,7H,3H2,1H3
