16
gdb 44749	2.68683	1.82212	1.30461	6.1004	69.49	-0.2376	-0.0575	0.18	961.6625	0.126434	-437.920422	-437.913286	-437.912342	-437.952076	28.005	
O	-0.0045323348	-0.0316921584	 0.0459423781	-0.341997
C	-0.0267805091	 1.1774649432	 0.0246307393	 0.294962
N	-1.1593516387	 1.944542965	 0.0336156959	-0.303796
C	-1.0926314984	 3.4021551474	 0.0066514925	 0.004706
C	-0.0923895971	 3.8479998592	-1.0942060331	-0.239145
C	 1.0232610522	 3.5485671625	-0.0378908955	-0.130789
C	-0.0498508904	 3.8857341312	 1.0506346559	-0.239145
C	 1.2717644026	 2.0508776219	-0.0165055039	 0.327124
O	 2.3559995891	 1.534617075	-0.0286822656	-0.289357
H	-2.0467513164	 1.4660438818	 0.0599180586	 0.25744
H	-2.1035483705	 3.809103002	 0.0195480049	 0.087291
H	-0.0936562521	 3.2854849979	-2.030478703	 0.120204
H	-0.1535723897	 4.9189774677	-1.2995603534	 0.118972
H	 1.9647127961	 4.0969706238	-0.0662030469	 0.094347
H	-0.1036011444	 4.963311402	 1.2204735871	 0.118973
H	-0.0136089784	 3.3564887077	 2.005421519	 0.12021
80.8235	168.3725	335.047	353.6831	382.1064	437.4356	444.0717	540.513	558.8123	586.1155	679.5607	799.2243	815.9829	873.8638	889.7996	894.604	965.618	994.4202	1000.0661	1081.2095	1095.4035	1114.9837	1138.7636	1175.3312	1241.7317	1258.5301	1264.6532	1297.1498	1317.0754	1370.3991	1444.6197	1473.592	1503.5466	1816.7214	1845.7468	3066.1002	3069.9746	3115.6245	3118.5424	3129.6382	3131.9608	3626.9102
O=C1NC2CC(C2)C1=O	O=C1N[C@@H]2C[C@@H](C2)C1=O	
InChI=1S/C6H7NO2/c8-5-3-1-4(2-3)7-6(5)9/h3-4H,1-2H2,(H,7,9)	InChI=1S/C6H7NO2/c8-5-3-1-4(2-3)7-6(5)9/h3-4H,1-2H2,(H,7,9)/t3-,4+
