19
gdb 33192	6.38549	0.70515	0.64516	1.8865	79.51	-0.1981	0.0335	0.2316	1741.8701	0.160119	-419.243903	-419.234783	-419.233839	-419.279206	32.64	
C	 0.0463688488	 1.5089621053	 0.0117382191	-0.380604
C	-0.0385309437	-0.0110525314	 0.1683561111	-0.189042
C	-1.430166014	-0.5505683569	-0.156892363	-0.114227
N	-1.4729478968	-1.9999438628	-0.0043100624	-0.409662
C	-2.6775152537	-2.6371388809	 0.0136089882	 0.514671
N	-3.8597863325	-2.1243962882	 0.1901195415	-0.360595
C	-4.7003663016	-3.2375358368	 0.1854070846	-0.105988
C	-3.9786005973	-4.3593144596	-0.003801026	-0.058261
O	-2.6495716301	-3.985104372	-0.1194677928	-0.205724
H	 1.0506359307	 1.8734683423	 0.2457753991	 0.117705
H	-0.1904776452	 1.8177711209	-1.0121810373	 0.119299
H	-0.6569780549	 2.0153860649	 0.6813817201	 0.122988
H	 0.6991431146	-0.4888597878	-0.4916209161	 0.092416
H	 0.2255622093	-0.3040860787	 1.1909461533	 0.111793
H	-2.1757093535	-0.1320793138	 0.524916821	 0.14305
H	-1.7284003561	-0.2441947645	-1.1721707753	 0.101544
H	-0.7351846301	-2.520152027	-0.4561263283	 0.246937
H	-5.7664727064	-3.1369083194	 0.3151077203	 0.117028
H	-4.1858302176	-5.4111243037	-0.0848069371	 0.136673
34.5379	66.9683	95.8941	158.1448	237.2234	276.3122	312.3113	331.5167	447.5659	559.8169	612.1304	686.961	753.9011	760.3753	788.053	859.9115	891.4214	910.5821	928.4776	976.3038	1045.7603	1076.4454	1105.6395	1130.4433	1148.175	1168.6185	1193.4164	1245.2904	1275.64	1313.6718	1329.4481	1366.442	1410.4793	1418.1478	1490.4395	1500.0264	1505.0175	1521.0003	1528.9652	1586.9697	1662.813	2979.5644	3011.3258	3034.9453	3060.6631	3092.9484	3103.7344	3110.5293	3259.7556	3309.6463	3609.8793
CCCNC1=NC=CO1	CCCNc1ncco1	
InChI=1S/C6H10N2O/c1-2-3-7-6-8-4-5-9-6/h4-5H,2-3H2,1H3,(H,7,8)	InChI=1S/C6H10N2O/c1-2-3-7-6-8-4-5-9-6/h4-5H,2-3H2,1H3,(H,7,8)
