20
gdb 8387	3.71674	1.43581	1.27224	1.7925	75.18	-0.2531	0.0776	0.3307	1062.4027	0.175632	-348.98748	-348.978992	-348.978047	-349.020393	32.109	
C	-0.2452457276	 1.4972141161	 0.4295697388	-0.41496
C	-0.1736244831	-0.005727885	 0.3688555147	-0.025002
O	 0.9799054099	-0.573455601	-0.277840909	-0.297754
C	 0.8140800977	-0.796391489	 1.1121118095	 0.463002
C	 1.7995715332	-0.3533139834	 2.1969851059	-0.3287
C	 1.362289587	-1.6041654186	 3.0286880337	 0.029789
C	 0.4183399293	-1.2904080328	 4.1844286973	-0.390392
C	 0.6570833583	-2.1757291201	 1.7552187179	-0.330835
H	 0.7150990448	 1.9225574393	 0.7316398869	 0.127383
H	-0.5082290009	 1.9096390492	-0.550214468	 0.129091
H	-1.011553173	 1.81749263	 1.1444193023	 0.118368
H	-1.1081676834	-0.5049501006	 0.1019823934	 0.085375
H	 2.8344416101	-0.4128138962	 1.8480531122	 0.110824
H	 1.6389771618	 0.6260575821	 2.6574480298	 0.099021
H	 2.1965358598	-2.21344818	 3.3850357835	 0.072062
H	-0.4267515484	-0.6772662099	 3.8499695123	 0.113496
H	 0.0096899215	-2.2076780267	 4.6221802738	 0.114969
H	 0.9338353181	-0.7395139881	 4.9786767451	 0.114677
H	-0.3591737416	-2.5609830921	 1.8804662729	 0.098784
H	 1.2590791864	-2.928403023	 1.2378743469	 0.110803
54.6493	169.7938	187.8211	205.5222	253.1328	313.2656	345.4772	387.7895	453.6862	472.1543	559.8345	770.3574	786.0857	826.3965	832.9638	889.3005	918.429	941.5991	969.9328	1018.2302	1032.6621	1071.5412	1120.3372	1134.9857	1144.7191	1161.2588	1190.8456	1212.9425	1229.0079	1266.5998	1281.1546	1353.1498	1365.1849	1408.266	1412.1823	1464.026	1469.5148	1486.8053	1490.8978	1497.5983	1498.6527	1521.9928	3023.7077	3034.4267	3048.7813	3052.0986	3066.1545	3078.9336	3092.5874	3094.5209	3097.2723	3103.5809	3105.9654	3124.8998
CC1OC11CC(C)C1	C[C@H]1O[C@]21C[C@@H](C)C2	
InChI=1S/C7H12O/c1-5-3-7(4-5)6(2)8-7/h5-6H,3-4H2,1-2H3	InChI=1S/C7H12O/c1-5-3-7(4-5)6(2)8-7/h5-6H,3-4H2,1-2H3/t5-,6-,7-/m1/s1
