12
gdb 19818	4.48763	2.15115	1.93495	5.1366	52.69	-0.2713	-0.001	0.2703	685.7719	0.084139	-418.435579	-418.430014	-418.42907	-418.465277	21.517	
O	-0.0752001659	 0.0602276839	 0.0940560994	-0.315539
C	 0.0161097408	 1.2407986724	 0.0664445791	 0.473737
O	-1.0127361259	 2.1693186814	 0.0807562722	-0.24594
C	-0.0831040658	 3.2819594783	-0.0098742828	 0.085936
C	 0.4208287223	 3.8319242143	 1.360350717	-0.003255
O	 0.512560818	 2.7252342922	 2.2538915591	-0.213772
C	 1.5742076065	 2.9124501977	 1.3228863796	 0.029836
C	 1.1148844335	 2.3156930746	-0.040981284	-0.293916
H	-0.3336133047	 3.9879432341	-0.7982227901	 0.111459
H	 0.2905774994	 4.8183546348	 1.7882197174	 0.122592
H	 2.5818288546	 3.0018547754	 1.708167444	 0.127043
H	 1.8331181872	 2.2613976209	-0.8548368508	 0.121819
142.5154	266.8786	367.1608	487.1412	589.8015	698.7538	735.3528	787.1167	820.949	850.2498	875.9176	898.3156	921.0925	954.8962	994.7626	1015.6658	1043.5823	1074.4645	1161.9006	1196.6493	1201.8242	1237.3669	1261.394	1301.4524	1376.4854	1950.9727	3150.6798	3164.113	3194.4693	3211.0108
O=C1OC2C3OC3C12	O=C1O[C@H]2[C@H]3O[C@H]3[C@@H]12	
InChI=1S/C5H4O3/c6-5-1-2-4(7-2)3(1)8-5/h1-4H	InChI=1S/C5H4O3/c6-5-1-2-4(7-2)3(1)8-5/h1-4H/t1-,2+,3-,4+/m1/s1
