14
gdb 12720	3.04213	2.35646	1.75685	4.0755	57.32	-0.2604	-0.0091	0.2513	772.0608	0.106582	-419.676058	-419.669166	-419.668222	-419.707081	25.379	
C	-0.1918397449	 1.483706453	 0.0365088686	-0.487119
C	 0.0496418208	 0.0046443235	 0.0326252362	 0.24234
O	-1.1508973403	-0.8039039786	 0.1300082606	-0.316526
C	-0.563150914	-1.6499613803	 1.1524032694	-0.105014
C	 0.7730928956	-0.9144691309	 1.0451922534	 0.01666
O	 1.6122862516	-1.4497816949	-0.0180248234	-0.26254
C	 1.0316654781	-0.6363038716	-0.9771787782	 0.435426
O	 1.2923647731	-0.5756682441	-2.1322280635	-0.318029
H	 0.7544722422	 2.0326786087	 0.0393663715	 0.137995
H	-0.7441680993	 1.7624952307	-0.8664203659	 0.157258
H	-0.781893866	 1.7771067355	 0.9085784133	 0.134682
H	-1.0778808957	-1.5193197826	 2.1109556556	 0.119641
H	-0.5428090959	-2.707305235	 0.8725117186	 0.130528
H	 1.3518562847	-0.6223138635	 1.917679294	 0.114697
142.4577	187.0958	196.5043	271.9962	293.0021	393.812	514.4929	662.3261	691.9924	757.8318	832.763	847.7254	878.1409	917.9531	989.1448	998.5847	1067.0417	1083.9889	1133.7721	1158.2115	1172.8415	1195.286	1311.2372	1326.3584	1357.2595	1412.6655	1477.0274	1484.9215	1502.6214	1943.0008	3037.826	3044.5743	3099.5817	3118.0437	3126.9851	3154.8152
CC12OCC1OC2=O	C[C@]12OC[C@H]1OC2=O	
InChI=1S/C5H6O3/c1-5-3(2-7-5)8-4(5)6/h3H,2H2,1H3	InChI=1S/C5H6O3/c1-5-3(2-7-5)8-4(5)6/h3H,2H2,1H3/t3-,5+/m1/s1
