18
gdb 67381	2.74215	1.6418	1.49554	4.2698	75.32	-0.2447	-0.0073	0.2374	976.6364	0.148552	-401.948783	-401.941385	-401.94044	-401.980409	29.476	
C	-0.0198181543	 1.5264280896	-0.0202201233	-0.514119
C	 0.0565403394	 0.0328054565	 0.0123393902	 0.331125
C	 0.5043905114	-0.9918127047	-0.9689858065	-0.093963
C	 1.2196774629	-1.7963759379	 0.1223481706	-0.253178
C	 0.4941891272	-0.9067220495	 1.1868434791	-0.104625
C	-0.8108961246	-1.5679711275	 1.6184579321	-0.332031
C	-1.5197887867	-1.7325229893	 0.2655192087	 0.390494
O	-2.396834536	-2.4984457031	-0.0128660028	-0.307272
N	-0.9507627818	-0.7920689559	-0.6678501226	-0.180964
H	 0.9534149499	 1.9732770828	 0.2083140709	 0.124223
H	-0.336750005	 1.8685245389	-1.0088714774	 0.141779
H	-0.7423901141	 1.900150944	 0.7142521015	 0.12748
H	 0.7860410545	-0.9034486302	-2.0120182391	 0.106335
H	 1.0527264813	-2.8777044755	 0.1682636821	 0.110278
H	 2.2940850038	-1.5994057749	 0.0930046995	 0.113958
H	 1.1104247297	-0.4930620758	 1.9836021489	 0.081129
H	-0.7030087907	-2.5375761311	 2.1099013634	 0.130654
H	-1.4071976369	-0.9187611464	 2.2718202647	 0.128698
115.3593	192.9601	199.0483	272.9055	374.3403	388.5695	509.5091	558.7819	597.2508	649.7126	671.0345	743.1282	791.4354	860.3211	866.7523	888.8409	923.5636	952.1741	977.6172	1021.3845	1053.2875	1070.4825	1083.9539	1116.6825	1125.99	1159.242	1196.0492	1208.5815	1251.1893	1267.5988	1287.8862	1319.2104	1405.0374	1446.4089	1460.1164	1484.3863	1491.0528	1494.4585	1869.6892	3032.2335	3039.9391	3046.8871	3093.413	3106.9646	3112.6252	3121.1889	3127.5239	3180.1741
CC12C3CC1CC(=O)N23	C[C@@]12[C@H]3C[C@@H]1CC(=O)N23	
InChI=1S/C7H9NO/c1-7-4-2-5(7)8(7)6(9)3-4/h4-5H,2-3H2,1H3	InChI=1S/C7H9NO/c1-7-4-2-5(7)8(7)6(9)3-4/h4-5H,2-3H2,1H3/t4-,5-,7+,8?/m1/s1
