20
gdb 30913	2.06348	1.659	0.98608	0.7937	84.23	-0.1993	0.0318	0.2311	1233.6545	0.17098	-403.185748	-403.176021	-403.175076	-403.220508	35.308	
C	-0.0978708833	 1.4267716604	 0.1288611669	-0.350633
N	-0.0573317603	-0.0224392566	 0.0800678896	-0.027895
C	-0.0414726906	-0.7775569182	-1.0603486166	-0.099724
C	 0.0427735739	-2.1033714281	-0.7060920625	-0.255446
C	 0.0785739265	-2.1668909084	 0.7155890889	 0.195837
C	 0.1738344399	-3.4214773478	 1.5335232018	-0.504543
C	 0.0213618459	-0.8606772431	 1.1789173256	 0.154552
C	 0.0035495523	-0.3210789476	 2.5680802172	-0.188958
O	-1.2237551579	 0.3386341301	 2.9109453051	-0.414047
H	 0.8979858322	 1.8537969112	 0.2995382918	 0.131313
H	-0.4761968054	 1.8057020016	-0.8227386468	 0.133291
H	-0.7619768106	 1.7472265307	 0.9338052982	 0.163527
H	-0.1010927255	-0.3057927629	-2.0291067179	 0.112564
H	 0.063063576	-2.941508159	-1.3867042415	 0.089339
H	 1.1530729533	-3.9039443158	 1.4259675473	 0.126347
H	 0.0229459792	-3.2306803585	 2.5997473162	 0.116513
H	-0.5775035381	-4.1565800868	 1.2233436808	 0.123153
H	 0.2205295304	-1.1360582387	 3.2712237748	 0.103839
H	 0.7764802359	 0.4417488319	 2.7189849545	 0.111648
H	-1.9367992136	-0.2613938943	 2.6660179667	 0.279323
69.0294	105.7841	124.8907	139.2687	179.7774	263.2181	279.2691	286.7317	363.9448	410.0781	478.0038	577.5349	622.6813	670.6994	723.9781	735.0485	766.3139	801.9601	933.2447	985.3927	1009.6352	1053.0492	1057.9769	1085.1833	1116.1514	1155.6104	1211.0052	1215.1091	1256.0308	1345.8438	1370.7209	1412.0154	1414.3899	1421.9467	1452.3837	1459.4963	1483.5617	1491.007	1494.536	1508.6937	1527.054	1540.2331	1610.6222	3017.2748	3023.7295	3026.2407	3055.2136	3070.4766	3103.5772	3104.8885	3144.3489	3235.7941	3258.0349	3802.7404
CN1C=CC(C)=C1CO	Cn1ccc(C)c1CO	
InChI=1S/C7H11NO/c1-6-3-4-8(2)7(6)5-9/h3-4,9H,5H2,1-2H3	InChI=1S/C7H11NO/c1-6-3-4-8(2)7(6)5-9/h3-4,9H,5H2,1-2H3
