15
gdb 123725	3.56235	1.61482	1.12634	4.1053	71.	-0.2641	-0.0412	0.2228	1007.5875	0.115206	-416.791762	-416.785221	-416.784276	-416.822999	25.477	
C	-0.0190139278	 1.4902484218	-0.1364626026	-0.389093
C	 1.3581777177	 2.061005479	 0.1060438546	-0.053251
C	 2.4566078289	 1.3536855145	 0.3719028389	-0.053251
C	 2.5297691791	-0.1510072193	 0.4804240435	-0.389093
C	 1.1840456566	-0.7548989483	 0.2460781938	 0.300589
N	 0.8754257171	-2.0215252711	 0.2624101123	-0.172882
O	-0.4674428432	-2.0726233808	-0.005734828	-0.155021
N	-0.9910257263	-0.8196465098	-0.189358603	-0.172882
C	 0.0112476627	 0.0003088339	-0.0377768233	 0.300589
H	-0.7345936076	 1.9061906231	 0.5851553993	 0.145677
H	-0.3899657425	 1.8000924988	-1.122452893	 0.145676
H	 1.4294308233	 3.1437947827	 0.0529814006	 0.100795
H	 3.3951187792	 1.8780148264	 0.5287506927	 0.100795
H	 3.2572323294	-0.5484690947	-0.2397202977	 0.145676
H	 2.9121397432	-0.4420792961	 1.4677758319	 0.145677
76.6809	231.0804	315.1876	391.8718	407.5907	474.6133	593.6304	636.3469	681.2469	704.799	721.9528	864.386	897.3714	923.6457	944.8781	974.5482	975.6364	987.1699	1018.2179	1056.8803	1202.8992	1209.5132	1210.003	1233.1773	1346.1756	1347.6701	1414.2947	1429.969	1465.9631	1471.6556	1536.9418	1632.8053	1728.297	3020.4027	3021.4151	3041.0144	3041.3536	3158.4406	3179.8522
C1C=CCC2=NON=C12	C1C=CCc2nonc12	
InChI=1S/C6H6N2O/c1-2-4-6-5(3-1)7-9-8-6/h1-2H,3-4H2	InChI=1S/C6H6N2O/c1-2-4-6-5(3-1)7-9-8-6/h1-2H,3-4H2
