19
gdb 112484	2.32555	1.18804	0.8792	1.1267	74.93	-0.2449	0.0166	0.2615	1357.569	0.158612	-456.324083	-456.314045	-456.313101	-456.359736	35.257	
C	 0.3400992601	 1.386854522	-0.2259084734	-0.338067
N	 0.4784927116	-0.0557419796	-0.0801075736	-0.329695
C	 0.5399779427	-0.774895093	-1.0998474216	 0.434405
O	 0.508688152	-0.4431786191	-2.4510768273	-0.297293
C	 0.8585736791	-1.8192975213	-2.8411488357	 0.098903
C	 2.2257749825	-1.8419027717	-3.4935584652	-0.059568
O	 2.2280171232	-1.0802372178	-4.6854655579	-0.420302
C	 0.7402904427	-2.2653739428	-1.356142444	-0.157429
N	 1.8343826487	-2.9963528807	-0.7555924638	-0.513584
H	 1.0789878182	 1.8823959221	 0.4124054401	 0.126603
H	 0.4607992549	 1.7449062253	-1.2551328154	 0.122792
H	-0.6489032904	 1.6925647232	 0.1339359384	 0.131698
H	 0.0998542691	-2.2079146597	-3.5258378572	 0.098058
H	 2.9864008594	-1.480171842	-2.7838189878	 0.082792
H	 2.4880522228	-2.8694050592	-3.7623594469	 0.127678
H	 1.9152475655	-0.1990934102	-4.4490062411	 0.29219
H	-0.1860093716	-2.822148905	-1.1916824722	 0.114994
H	 2.6070037264	-2.3739576585	-0.5412343186	 0.240252
H	 1.540165403	-3.396896202	 0.1280411832	 0.245572
63.4603	89.083	104.9204	146.2294	169.8613	193.5626	205.594	281.8141	330.857	423.7292	467.9215	489.9152	589.2291	677.3916	745.4489	817.4988	852.4902	867.5177	953.4566	1000.6019	1055.3899	1078.2563	1083.8031	1120.6064	1130.3425	1173.1172	1180.3339	1209.1649	1222.4319	1234.1171	1299.0128	1344.4024	1398.8771	1429.2883	1432.0149	1440.6003	1489.7108	1493.211	1497.9425	1673.4003	1842.5003	2982.2337	3017.0254	3074.0562	3082.1466	3085.3538	3089.7431	3095.8493	3512.6731	3588.8465	3795.7079
CN=C1OC(CO)C1N	CN=C1O[C@@H](CO)[C@H]1N	
InChI=1S/C5H10N2O2/c1-7-5-4(6)3(2-8)9-5/h3-4,8H,2,6H2,1H3	InChI=1S/C5H10N2O2/c1-7-5-4(6)3(2-8)9-5/h3-4,8H,2,6H2,1H3/t3-,4+/m0/s1
