16
gdb 26832	3.52756	1.11176	0.84983	4.6618	80.77	-0.2033	-0.0321	0.1712	1296.8574	0.123985	-437.949347	-437.940531	-437.939587	-437.983367	31.735	
C	 0.0224455901	 1.5407303311	-0.043287351	-0.527369
C	 0.025486163	 0.041969159	 0.0115774675	 0.145664
C	 0.0521845808	-0.8169893413	-1.0878343564	 0.340309
O	 0.066049222	-0.5684341859	-2.4126925013	-0.420525
N	 0.0576831219	-2.097817179	-0.6670241264	-0.348895
C	 0.0353219598	-2.1218651189	 0.7197862004	 0.220103
C	 0.0314941265	-3.3721324949	 1.4246194367	 0.068164
O	 0.0486558401	-4.4642884306	 0.8777633625	-0.337372
C	 0.0159156412	-0.7998985742	 1.1454829637	-0.302381
H	 1.0223590329	 1.9618947849	-0.2095156555	 0.13288
H	-0.6293149182	 1.9236440302	-0.8395851276	 0.114995
H	-0.3512711572	 1.9599509454	 0.8946945089	 0.140082
H	 0.0712722817	 0.3848967716	-2.5479573684	 0.313423
H	 0.0690232183	-2.9290707167	-1.2362719707	 0.283736
H	 0.0114613288	-3.2748880075	 2.530812524	 0.066742
H	-0.0066319916	-0.4786748033	 2.1770444437	 0.110442
50.1899	111.5414	156.8702	224.6904	244.1101	260.6533	298.8467	390.4933	417.7458	523.2832	561.5726	634.5004	647.7519	696.21	722.9721	820.4503	830.9282	989.7684	1018.6096	1019.694	1060.2673	1149.8022	1182.7546	1225.7024	1269.1073	1378.9282	1396.1425	1419.5346	1433.6049	1488.5924	1498.0093	1524.7431	1595.9205	1628.5323	1744.9419	2904.1782	3009.8169	3053.3947	3107.3067	3237.8202	3660.1802	3832.7663
CC1=C(O)NC(C=O)=C1	Cc1c(O)[nH]c(C=O)c1	
InChI=1S/C6H7NO2/c1-4-2-5(3-8)7-6(4)9/h2-3,7,9H,1H3	InChI=1S/C6H7NO2/c1-4-2-5(3-8)7-6(4)9/h2-3,7,9H,1H3
