15
gdb 43066	3.01204	2.08709	1.60026	2.9294	70.1	-0.2269	-0.0195	0.2073	837.0936	0.115061	-416.755611	-416.749469	-416.748525	-416.785995	25.059	
N	-0.0914359347	 1.2727418032	-0.0632146671	-0.522554
C	-0.0418011588	 0.0212884981	-0.0056079461	 0.383842
C	-1.0910562333	-1.0804319621	 0.0460055067	 0.022786
O	-1.313469657	-1.6532729788	-1.2715691879	-0.311219
C	-0.1854854114	-2.5951231225	-1.1160182968	 0.061608
C	 1.0496503527	-2.1818641901	-1.8863555621	-0.094454
C	 1.6835405799	-1.2281713447	-1.2002915249	-0.073881
N	 1.068115301	-0.9438493228	 0.0747350309	-0.163824
C	 0.0778112772	-2.0568919758	 0.2914232292	-0.061337
H	 0.844398506	 1.6855835465	-0.0853307438	 0.226361
H	-2.0071768567	-0.9617888486	 0.624468908	 0.099675
H	-0.5254452233	-3.6222977051	-1.2587161199	 0.092394
H	 1.3311510108	-2.5620479086	-2.8583181423	 0.115206
H	 2.5510660115	-0.6523680067	-1.496034766	 0.126003
H	 0.2589004062	-2.6842204023	 1.1610021922	 0.099395
142.0652	240.5375	324.4773	407.2408	549.2987	600.59	656.6769	698.3912	761.1497	788.6454	832.5916	863.2499	870.741	904.7824	927.1187	935.6996	940.5458	967.1771	979.2977	1006.0049	1025.9087	1087.485	1155.3811	1180.2536	1214.4707	1249.3616	1253.6532	1282.5834	1296.056	1304.5718	1349.9299	1639.9107	1803.2376	3099.4843	3118.2973	3144.5998	3214.8972	3243.4531	3446.2468
N=C1C2OC3C=CN1C23	[NH][C]1[C@H]2O[C@H]3C=CN1[C@@H]23	
InChI=1S/C6H6N2O/c7-6-5-4-3(9-5)1-2-8(4)6/h1-5,7H	InChI=1S/C6H6N2O/c7-6-5-4-3(9-5)1-2-8(4)6/h1-5,7H/t3-,4+,5-/m0/s1
