20
gdb 41975	2.42572	2.08011	1.62305	0.8101	76.1	-0.2229	0.0746	0.2975	926.1626	0.175745	-403.130492	-403.123801	-403.122857	-403.161214	28.247	
C	 0.0904168137	 1.5227781689	 0.2094756447	-0.237434
C	 1.5257317925	 1.9409011877	-0.1866933377	-0.174878
N	 2.0312088638	 0.8992706357	-1.1102004662	-0.111544
C	 2.5025310981	-0.3665454235	-0.5200877498	-0.004427
C	 2.7431916487	-0.6415125443	 0.9548163906	-0.248581
C	 1.5198517708	-0.4204197881	 1.8657735874	-0.088246
O	 0.2950366373	-0.7438937538	 1.2353975311	-0.258292
C	 0.0536106658	-0.01485234	 0.0336354851	 0.090303
C	 1.116158112	-0.2589065854	-1.0407665591	-0.076693
H	-0.2126768283	 1.8328740263	 1.2132952224	 0.110377
H	-0.619509642	 1.9638685919	-0.4974148605	 0.108521
H	 1.5346135774	 2.8965560247	-0.7190610175	 0.1076
H	 2.1869404658	 2.0552080221	 0.6792694954	 0.102508
H	 3.2439004556	-0.8439222941	-1.1586178338	 0.089973
H	 3.0474576536	-1.6928308837	 1.0175085372	 0.113085
H	 3.5904170317	-0.0524567457	 1.328054649	 0.106153
H	 1.58427882	-1.0732496421	 2.7407267495	 0.108958
H	 1.4976453098	 0.6127802956	 2.2400401515	 0.092208
H	-0.9297289983	-0.3600383967	-0.2918356945	 0.085286
H	 0.818385562	-0.7160004956	-1.9802345946	 0.085121
164.6247	231.607	285.8069	388.671	414.3019	492.6395	512.9742	670.4088	699.8771	722.8668	745.7435	781.7073	832.7884	856.5595	896.5436	915.7872	934.0248	963.6214	990.6048	1013.7878	1051.4373	1078.7493	1099.2469	1111.554	1134.6037	1156.926	1211.0118	1216.695	1263.3632	1283.1318	1286.384	1298.2754	1329.065	1333.8732	1359.784	1368.0535	1386.4593	1417.0449	1437.0249	1477.533	1481.7115	1513.4651	1532.4676	3001.8935	3026.4039	3043.5497	3052.3608	3061.177	3076.0757	3085.6253	3092.2778	3105.6597	3112.4693	3142.9699
C1CN2C3CCOC1C23	C1CN2[C@H]3CCO[C@@H]1[C@@H]23	
InChI=1S/C7H11NO/c1-3-8-5-2-4-9-6(1)7(5)8/h5-7H,1-4H2	InChI=1S/C7H11NO/c1-3-8-5-2-4-9-6(1)7(5)8/h5-7H,1-4H2/t5-,6-,7-,8?/m0/s1
