13
gdb 23922	4.37059	1.23051	1.19954	3.0165	47.2	-0.2807	0.083	0.3637	982.9869	0.091163	-530.087367	-530.079898	-530.078953	-530.120376	26.114	
F	-0.1968225871	 0.0897611474	 0.0966141797	-0.068699
C	-0.0415935542	 1.4177761733	 0.0646041915	 0.283179
F	 1.2756397612	 1.6671066525	-0.0499394808	-0.087555
F	-0.6336364362	 1.8713905427	-1.0513398158	-0.079035
C	-0.6198752375	 2.0886343763	 1.296944071	-0.362522
C	 0.0493471424	 1.6289570424	 2.5706142083	 0.092233
C	-0.6685260123	 1.6254736619	 3.849983145	-0.183456
O	-0.4288779331	 0.4112303963	 3.1384660549	-0.223157
H	-0.4923104634	 3.1683568461	 1.1673077157	 0.136552
H	-1.6897682118	 1.868036024	 1.3321706079	 0.139544
H	 1.1337797153	 1.7355846195	 2.5883098238	 0.112237
H	-0.1142245701	 1.7446985213	 4.7793427199	 0.122967
H	-1.7075235231	 1.9515484662	 3.8833190189	 0.117712
51.9119	80.1456	152.4303	304.2054	338.7044	366.3717	450.3528	535.1189	550.7806	660.9943	805.4358	842.5565	874.93	939.5999	960.4431	1073.2049	1092.5303	1156.3849	1162.8044	1181.7913	1193.0721	1270.9383	1296.4328	1313.276	1362.6652	1451.3234	1455.8633	1531.1393	3063.12	3084.687	3112.8782	3127.1492	3172.6666
FC(F)(F)CC1CO1	FC(F)(F)C[C@H]1CO1	
InChI=1S/C4H5F3O/c5-4(6,7)1-3-2-8-3/h3H,1-2H2	InChI=1S/C4H5F3O/c5-4(6,7)1-3-2-8-3/h3H,1-2H2/t3-/m0/s1
