18
gdb 80297	2.48404	1.51864	1.24919	2.0495	72.71	-0.2399	0.0215	0.2615	1070.7899	0.147288	-439.086036	-439.077639	-439.076695	-439.118797	32.401	
C	 0.2604642534	 1.5800203342	 0.0160162214	-0.429508
C	 0.1388175387	 0.0753784185	 0.1022467134	-0.07375
C	 1.2893570048	-0.8815352455	-0.1462686159	-0.02542
O	 2.5992929427	-0.346690958	-0.1212749718	-0.229644
C	 2.9221362513	 0.0900676608	 1.1424959339	 0.404623
N	 4.0105871051	 0.6514840675	 1.4421863051	-0.536319
C	 1.7809090814	-0.1972660516	 2.104105021	-0.394257
C	 0.6781398669	-0.7717483033	 1.2295163378	 0.358618
O	-0.1965711188	-1.7138286422	 1.7627115948	-0.469134
H	 1.2427909935	 1.9389455222	 0.3318114109	 0.14056
H	 0.1056001414	 1.9171244705	-1.0137985396	 0.12771
H	-0.4923827994	 2.0657307887	 0.6451626427	 0.127604
H	-0.8014851744	-0.3278120157	-0.2668286872	 0.106702
H	 1.1933628323	-1.7374997049	-0.8028121821	 0.111512
H	 4.6126511267	 0.7276060514	 0.6203143219	 0.224184
H	 2.1014916547	-0.9395850044	 2.844019792	 0.128628
H	 1.505553719	 0.7054864341	 2.6545930232	 0.145461
H	 0.3163245405	-2.4791230623	 2.0485969886	 0.282429
90.6466	163.036	198.5042	215.9952	268.5878	330.8504	350.5699	448.7096	479.0169	530.4313	550.4617	588.7829	681.1762	755.1224	816.7565	842.0321	892.1236	914.4373	957.1986	984.9724	1005.8985	1037.5508	1059.6754	1124.4082	1137.4559	1142.3202	1162.3808	1221.2832	1243.0022	1283.9084	1316.8901	1349.7843	1357.9364	1423.0729	1453.249	1478.6771	1497.3567	1507.1313	1777.1723	3042.0688	3051.0749	3101.8959	3103.8432	3122.4578	3146.5376	3192.8428	3471.8746	3780.7554
CC1C2OC(=N)CC12O	C[C@H]1[C@H]2O[C]([NH])C[C@@]12O	
InChI=1S/C6H9NO2/c1-3-5-6(3,8)2-4(7)9-5/h3,5,7-8H,2H2,1H3	InChI=1S/C6H9NO2/c1-3-5-6(3,8)2-4(7)9-5/h3,5,7-8H,2H2,1H3/t3-,5+,6+/m0/s1
