21
gdb 78107	2.18836	1.61263	1.13668	2.0129	78.71	-0.2356	0.0636	0.2992	1157.8002	0.179935	-424.193094	-424.183387	-424.182442	-424.226531	37.796	
C	-0.1473716154	 1.5912920163	 0.0702700296	-0.453199
C	 0.0339846271	 0.0742211674	 0.0192148405	 0.346626
C	-1.3081462523	-0.619749563	-0.2341228431	-0.434203
C	 1.1396819977	-0.4908332214	-0.9453487313	-0.353012
C	 1.7650338628	-1.2409730542	 0.2385837383	 0.322218
O	 2.1558241823	-2.5716888882	 0.2012820926	-0.458873
C	 2.2175485835	-0.2921896684	 1.3061748405	 0.007072
O	 2.71164738	 1.0006422788	 1.0753261938	-0.413261
C	 0.7523966889	-0.6072310881	 1.2066260234	-0.176288
H	 0.8019317671	 2.1001106803	 0.2373203982	 0.139663
H	-0.5843282263	 1.9569703983	-0.8669018361	 0.101215
H	-0.831625303	 1.8699639792	 0.8804204595	 0.105555
H	-1.7402542691	-0.2927585203	-1.1867529617	 0.108677
H	-1.194909877	-1.7083859396	-0.267177345	 0.118275
H	-2.0263850376	-0.381166712	 0.5591150519	 0.109176
H	 0.7329977808	-1.1676509262	-1.6996736413	 0.102806
H	 1.7841260281	 0.2492588148	-1.4294746049	 0.085695
H	 3.0578225088	-2.6174110737	-0.1354369337	 0.281403
H	 2.6886122572	-0.8090870752	 2.1446600766	 0.090555
H	 3.6034838742	 0.9215260769	 0.7207609564	 0.283793
H	 0.2313923222	-1.0532919718	 2.0476276259	 0.086108
135.1608	173.6412	200.2932	219.2771	250.968	269.4407	270.3503	297.1472	345.9689	358.0058	390.148	412.6232	517.8907	568.114	624.9225	684.1742	801.0584	837.3782	883.6054	909.2925	948.502	963.9835	984.9917	997.1863	1036.7465	1047.1974	1081.6123	1139.4385	1191.5013	1205.0814	1218.2573	1259.0786	1265.1611	1281.0324	1300.8582	1332.6244	1348.4597	1398.9984	1418.5449	1462.182	1482.7508	1490.5204	1495.8188	1500.9071	1515.0985	3019.2446	3025.6342	3050.8553	3077.9596	3087.5152	3089.2127	3096.9472	3114.3887	3150.3407	3164.3469	3785.729	3804.0575
CC1(C)CC2(O)C(O)C12	CC1(C)C[C@@]2(O)[C@@H](O)[C@@H]12	
InChI=1S/C7H12O2/c1-6(2)3-7(9)4(6)5(7)8/h4-5,8-9H,3H2,1-2H3	InChI=1S/C7H12O2/c1-6(2)3-7(9)4(6)5(7)8/h4-5,8-9H,3H2,1-2H3/t4-,5-,7-/m0/s1
