19
gdb 32842	5.23312	0.78114	0.72034	1.1447	79.67	-0.1963	0.0175	0.2138	1617.9596	0.159976	-419.251466	-419.242207	-419.241262	-419.286401	33.751	
C	-0.0598708551	 1.5567275199	-0.1386747024	-0.382178
C	-0.0144926902	 0.0275313882	-0.1326804486	-0.165259
C	-1.3880907453	-0.5995494188	 0.1775255101	-0.29403
C	-1.3659930482	-2.0886045272	 0.1770589337	 0.395064
N	-1.5081268541	-2.8932609808	 1.1882709257	-0.347543
C	-1.381440871	-4.1669210669	 0.6515340229	 0.257113
N	-1.4228868109	-5.2762795384	 1.4891059214	-0.598712
C	-1.1648689081	-4.0638699508	-0.6862025276	-0.12916
O	-1.154245701	-2.7175150275	-0.996690385	-0.180811
H	 0.9244917979	 1.9800687322	-0.3600213967	 0.115673
H	-0.7609645767	 1.9301226063	-0.8934855909	 0.115743
H	-0.3804367677	 1.9483583488	 0.8330568767	 0.117429
H	 0.332874383	-0.3414999687	-1.104166492	 0.112986
H	 0.7110186952	-0.3231686969	 0.6106173812	 0.110786
H	-1.7373571901	-0.2805086461	 1.1633274575	 0.128447
H	-2.1198135173	-0.2479021814	-0.5609899026	 0.117266
H	-1.9312074817	-5.0753180589	 2.3398890722	 0.253743
H	-1.7721459612	-6.1152857453	 1.0478185133	 0.246304
H	-1.0089579975	-4.7513984576	-1.4973616188	 0.127138
37.1098	85.0114	105.325	233.0136	247.4695	266.484	300.4609	315.332	376.0294	455.5008	629.8991	643.1039	678.409	708.5462	746.7762	768.51	793.3591	872.9991	899.1869	979.2449	1020.6169	1043.9242	1092.2184	1110.2082	1116.9349	1133.3797	1236.3236	1262.9006	1305.1467	1320.7393	1358.2576	1383.5511	1405.1278	1414.313	1471.4695	1493.3751	1500.3901	1509.9591	1603.3401	1635.7385	1675.4878	3027.8586	3030.4863	3040.2855	3067.8627	3096.1134	3105.5164	3108.5521	3303.3012	3553.9374	3652.2919
CCCC1=NC(N)=CO1	CCCc1nc(N)co1	
InChI=1S/C6H10N2O/c1-2-3-6-8-5(7)4-9-6/h4H,2-3,7H2,1H3	InChI=1S/C6H10N2O/c1-2-3-6-8-5(7)4-9-6/h4H,2-3,7H2,1H3
