14
gdb 26902	3.18885	1.42512	0.98826	7.1792	69.76	-0.21	-0.0365	0.1735	1096.2818	0.102354	-470.066316	-470.058409	-470.057465	-470.09854	29.999	
N	-0.0334498353	 1.3753735209	 0.1307161011	-0.575735
C	-0.0416290357	 0.0131846322	 0.0390162605	 0.397858
C	-1.2112807782	-0.725006217	-0.005806808	 0.169071
O	-2.4219165531	-0.0522142122	-0.0786827304	-0.462447
C	-1.0814476292	-2.1200431632	-0.0776986154	-0.030807
N	 0.0449377444	-2.7981498922	-0.0723569886	-0.347008
C	 1.2316524378	-2.1063802502	-0.0092840977	 0.435154
O	 2.3436957251	-2.5880160754	 0.0145093487	-0.392818
N	 1.1223945561	-0.6765124871	 0.0251775452	-0.41786
H	 0.7684192627	 1.8710766156	-0.2270281461	 0.265571
H	-0.9256169184	 1.7987617068	-0.0803619778	 0.278389
H	-2.9035447669	-0.1744463095	 0.7467677137	 0.304623
H	-2.0015793284	-2.7039250816	-0.1456528386	 0.116643
H	 2.0100959989	-0.1965671371	 0.0851651235	 0.259366
109.3443	180.3334	223.6973	289.3238	310.6259	362.1088	381.9503	446.6527	473.1897	553.2264	562.7151	616.688	628.3269	727.2578	780.5074	799.6049	809.3965	924.6019	997.3592	1081.6844	1104.156	1202.6405	1295.739	1314.1203	1345.3776	1418.5067	1498.4376	1590.0903	1647.9664	1680.2125	1810.26	3111.7002	3574.3331	3598.7615	3686.3339	3790.9651
NC1=C(O)C=NC(=O)N1	Nc1c(O)cnc(=O)[nH]1	
InChI=1S/C4H5N3O2/c5-3-2(8)1-6-4(9)7-3/h1,8H,(H3,5,6,7,9)	InChI=1S/C4H5N3O2/c5-3-2(8)1-6-4(9)7-3/h1,8H,(H3,5,6,7,9)
