18
gdb 19722	3.76142	2.31552	2.11661	1.9265	68.78	-0.2537	0.0899	0.3436	736.9413	0.158024	-347.802569	-347.796883	-347.795939	-347.831949	24.498	
C	-0.0258977645	 1.5420641707	 0.0087597093	-0.206494
C	 1.4855785403	 1.9585365926	-0.0037905886	-0.206494
C	 2.2286987812	 0.591870113	-0.005017737	-0.061467
C	 1.2786473648	-0.26759329	-0.8651948645	-0.220448
C	 0.0358811734	-0.0123394764	 0.0131868206	-0.061467
C	 0.5637526438	-0.3683896901	 1.4056419814	 0.057142
O	 1.5988170732	-1.3596908115	 1.4541187302	-0.265901
C	 1.9792324119	 0.0216333156	 1.3938893645	 0.057142
H	-0.5596131759	 1.9356251388	 0.8792947362	 0.096373
H	-0.546649996	 1.9058684447	-0.8814948424	 0.098912
H	 1.7327091251	 2.5339175315	-0.9004253985	 0.098912
H	 1.7557750402	 2.5736134171	 0.8600653489	 0.096374
H	 3.2714881663	 0.6390394412	-0.3218813801	 0.06267
H	 1.1613343232	 0.1276563129	-1.8778026325	 0.087932
H	 1.5673369691	-1.3166532804	-0.909678593	 0.117509
H	-0.8886629858	-0.5072515392	-0.287341444	 0.06267
H	-0.0720762912	-0.3017899501	 2.2841795905	 0.093316
H	 2.5046980909	 0.4082081795	 2.262789179	 0.093316
239.9045	331.0308	375.7447	457.0527	549.1037	590.7468	769.7396	779.0516	817.1174	824.7974	867.0413	886.6661	892.5808	919.9735	936.1123	939.71	969.4685	990.544	1013.7473	1042.5827	1043.4067	1114.3303	1146.7228	1154.5577	1183.6827	1208.5194	1241.0202	1252.4539	1289.9588	1291.6158	1316.9734	1317.7436	1335.6896	1346.7045	1418.0776	1484.1787	1491.6778	1514.3426	3046.705	3056.9697	3071.8833	3081.4358	3100.4178	3102.2995	3107.4738	3146.6555	3146.7328	3159.3983
C1CC2CC1C1OC21	C1C[C@@H]2C[C@H]1[C@H]1O[C@@H]21	
InChI=1S/C7H10O/c1-2-5-3-4(1)6-7(5)8-6/h4-7H,1-3H2	InChI=1S/C7H10O/c1-2-5-3-4(1)6-7(5)8-6/h4-7H,1-3H2/t4-,5+,6+,7-
