16
gdb 30512	2.64365	1.65531	1.02457	0.4701	79.77	-0.1987	-0.0346	0.1641	1118.4779	0.124869	-434.098948	-434.090368	-434.089424	-434.132452	31.242	
C	 0.0282008247	 1.3884470414	-0.1614772127	-0.325281
N	-0.0105156023	-0.0624180654	-0.23562876	-0.335776
C	-1.0870287605	-0.657219011	 0.0793556447	 0.379664
O	-2.2068265094	 0.0078886525	 0.4830969478	-0.237093
C	-3.328521262	-0.7057769043	 0.8300056567	-0.000027
C	-3.3401439112	-2.0435439216	 0.7772305534	-0.079076
N	-2.2531734301	-2.7980682346	 0.3728968705	-0.351065
C	-1.1882001988	-2.1370464228	 0.0325782206	 0.33851
N	-0.0738311255	-2.7584264462	-0.4083837501	-0.543546
H	 1.025162221	 1.7360629738	-0.4404576235	 0.120286
H	-0.7032761814	 1.8492915004	-0.8388290775	 0.125986
H	-0.1993959708	 1.7526466676	 0.8493735047	 0.124945
H	-4.1412323814	-0.061723517	 1.1318612445	 0.129323
H	-4.2325874138	-2.5902780299	 1.0578465991	 0.112548
H	-0.0235672391	-3.7610154988	-0.3613482145	 0.264178
H	 0.7479392205	-2.1943647142	-0.5504151238	 0.276423
66.3148	106.4532	198.1555	203.6509	211.0763	256.6624	343.8023	506.1811	520.9796	549.0726	567.3856	573.4988	602.7177	758.4632	765.294	794.5002	904.6104	918.6287	1005.2751	1054.9694	1070.4563	1109.1291	1155.1657	1185.4899	1257.447	1289.2552	1410.4638	1430.9143	1437.8265	1485.1136	1496.3929	1566.7744	1650.1123	1668.018	1733.3055	3002.4287	3052.0085	3112.266	3198.4403	3248.077	3599.9407	3744.3069
CN=C1OC=CN=C1N	C[N]C1=C([N]C=CO1)N	
InChI=1S/C5H7N3O/c1-7-5-4(6)8-2-3-9-5/h2-3H,1H3,(H2,6,8)	InChI=1S/C5H7N3O/c1-7-5-4(6)8-2-3-9-5/h2-3H,1H3,(H2,6,8)
