19
gdb 116746	5.56773	0.60204	0.54883	2.6227	80.22	-0.2555	-0.0212	0.2343	1988.8988	0.157684	-456.378677	-456.368484	-456.36754	-456.41489	35.705	
C	 0.1562466059	 1.3074362063	-0.0893128659	-0.397619
C	 0.3674445971	-0.1233298574	-0.5894398686	-0.111826
N	-0.764943032	-1.0377530916	-0.5874545921	-0.257533
C	-1.8959222958	-0.6516104771	-0.1789924414	 0.116826
N	-2.9699225343	-1.5423455827	-0.1837308468	-0.347404
C	-4.2335429221	-1.2254116121	 0.233909317	 0.396842
O	-4.5502052911	-0.1268589645	 0.6562006792	-0.371736
C	-5.2696581373	-2.3460984602	 0.146932883	-0.148637
O	-6.5072179567	-1.8906224609	 0.6001907132	-0.416722
H	 1.0975929383	 1.8606364057	-0.156020317	 0.118414
H	-0.5868719765	 1.8439426232	-0.6887213394	 0.126114
H	-0.1686639699	 1.3307652966	 0.9562689158	 0.126093
H	 0.7506108717	-0.0997365894	-1.6183826203	 0.11701
H	 1.1608804845	-0.6042539532	-0.0018291065	 0.117018
H	-2.1725217158	 0.3325570164	 0.1991184708	 0.138455
H	-2.7682787076	-2.4717779203	-0.526422911	 0.263973
H	-5.3288383887	-2.6916593861	-0.8982779069	 0.116834
H	-4.9142666272	-3.2013880698	 0.745075684	 0.116823
H	-6.3544697226	-0.9644144529	 0.8513960029	 0.297075
57.8999	63.9752	93.0841	103.8974	207.1488	218.8651	258.0649	333.7581	337.2264	362.6255	422.6432	445.4196	568.772	601.0982	656.1195	726.5575	778.6982	875.0395	965.698	1006.9483	1033.5661	1074.9543	1092.8991	1131.756	1148.361	1187.6615	1247.3715	1249.5112	1310.9378	1314.3561	1355.111	1383.6467	1410.2935	1456.1723	1479.9685	1495.9014	1503.6928	1505.1722	1534.0852	1755.993	1784.9341	2970.8494	2989.1221	3017.4545	3034.9317	3036.9271	3103.4757	3110.6255	3140.0331	3602.3839	3669.4688
CCN=CNC(=O)CO	CCN=CNC(=O)CO	
InChI=1S/C5H10N2O2/c1-2-6-4-7-5(9)3-8/h4,8H,2-3H2,1H3,(H,6,7,9)	InChI=1S/C5H10N2O2/c1-2-6-4-7-5(9)3-8/h4,8H,2-3H2,1H3,(H,6,7,9)
