17
gdb 23503	4.99005	1.1814	1.07957	1.7569	77.3	-0.2313	0.0034	0.2347	1114.4681	0.137707	-417.900047	-417.893119	-417.892175	-417.931308	28.044	
O	-0.1324004295	 1.3178269593	 0.0335710293	-0.389517
N	 0.0142043971	-0.0800993318	 0.0108785909	-0.266353
C	-1.1174830443	-0.6546705984	 0.0097086188	 0.468595
C	-2.5329577789	-0.1166954131	 0.0196777858	-0.343201
C	-3.2417660999	-1.4674595864	 0.0374443918	 0.014166
C	-2.5028810045	-2.4824906256	 0.9534628528	-0.073652
C	-2.8910468495	-3.5470105323	-0.0759744488	-0.175515
N	-2.5072893852	-2.3759724508	-0.9862640438	-0.162014
C	-1.320154496	-2.1293723139	-0.0004366177	-0.089344
H	 0.7824816476	 1.618944056	 0.0231572622	 0.307617
H	-2.7435771385	 0.5044795244	 0.8958995445	 0.128128
H	-2.7554140708	 0.4714149988	-0.8761065884	 0.137751
H	-4.3299911043	-1.4922105067	-0.0360037854	 0.079613
H	-2.4896403182	-2.5347623437	 2.0482103343	 0.07003
H	-2.2419590254	-4.419356682	-0.1912406037	 0.104176
H	-3.9449046231	-3.8296888209	-0.1550876347	 0.102179
H	-0.4595128268	-2.7864848228	-0.1121324478	 0.087342
109.0605	202.8061	282.0375	374.8968	406.6457	439.9586	486.9264	555.2675	681.6566	721.6461	738.8412	770.587	849.4937	867.7207	897.0094	926.7374	963.7482	972.6108	980.8436	1009.1221	1053.2412	1094.0439	1111.3684	1124.8584	1136.9321	1200.8493	1209.8098	1226.4937	1246.2616	1269.3484	1271.5098	1291.7333	1355.3246	1415.6025	1461.6023	1530.8182	1782.7113	3033.9164	3052.3324	3057.0706	3098.8231	3110.3035	3112.3933	3144.1964	3817.0676
ON=C1CC2C3CN2C13	ON=C1C[C@@H]2[C@H]3CN2[C@@H]13	
InChI=1S/C6H8N2O/c9-7-4-1-5-3-2-8(5)6(3)4/h3,5-6,9H,1-2H2	InChI=1S/C6H8N2O/c9-7-4-1-5-3-2-8(5)6(3)4/h3,5-6,9H,1-2H2/t3-,5-,6-/m1/s1
