21
gdb 69319	2.78323	1.3285	1.25744	2.3764	77.78	-0.2504	0.0714	0.3218	1130.0608	0.18153	-424.228167	-424.219151	-424.218207	-424.260894	36.333	
C	-0.0429316697	 1.5394676527	-0.0041294009	-0.442352
C	 0.0390193125	 0.0131639735	 0.0011033837	 0.385749
O	-1.2772485415	-0.5530267449	 0.05912576	-0.476379
C	 0.81693414	-0.5705199196	-1.2115293085	-0.26963
C	 1.3168260939	-1.9520047688	-0.7430301219	-0.279888
C	 1.5303331573	-1.7855487442	 0.755988554	 0.414928
O	 1.5349390172	-2.930716541	 1.5532350984	-0.475951
C	 2.2739194063	-0.5570920388	 1.2226744135	-0.377714
C	 0.7556172464	-0.5800071895	 1.2047863675	-0.072155
H	 0.9517548762	 1.9914055721	 0.0545270864	 0.11653
H	-0.5200960555	 1.90204626	-0.9235472081	 0.10092
H	-0.6346095188	 1.889048324	 0.8469326704	 0.122822
H	-1.7863228961	-0.181840626	-0.6695763106	 0.272459
H	 0.1735097937	-0.6271986772	-2.0947372166	 0.08869
H	 1.6576592999	 0.0809187175	-1.4724854644	 0.09787
H	 0.542141373	-2.7121961986	-0.884543839	 0.117556
H	 2.2144791774	-2.2801068269	-1.2798473477	 0.083665
H	 2.3907556751	-3.3606302128	 1.4494534111	 0.279466
H	 2.7249310864	-0.6294027597	 2.2062064226	 0.11227
H	 2.8236749295	 0.0608176495	 0.5191707649	 0.10375
H	 0.2268217269	-0.5810416015	 2.1504372752	 0.097395
121.8223	190.2455	235.6882	252.0774	279.1626	296.1657	336.8712	369.8058	391.4708	428.7937	439.6217	485.377	559.9376	602.0983	700.2423	764.1694	812.7216	879.0809	916.7482	928.5826	937.8674	979.037	993.1314	1011.7058	1029.8214	1051.3096	1066.4701	1109.3646	1124.3881	1192.6387	1203.6297	1211.5265	1255.7764	1269.0422	1315.21	1328.0223	1337.9506	1395.038	1405.4366	1413.0354	1479.5307	1480.6165	1489.6516	1495.9107	1504.5644	3022.5077	3035.0867	3047.198	3078.2407	3090.2254	3095.113	3116.4628	3124.2419	3187.7234	3214.1208	3796.3633	3803.8819
CC1(O)CCC2(O)CC12	C[C@@]1(O)CC[C@@]2(O)C[C@@H]12	
InChI=1S/C7H12O2/c1-6(8)2-3-7(9)4-5(6)7/h5,8-9H,2-4H2,1H3	InChI=1S/C7H12O2/c1-6(8)2-3-7(9)4-5(6)7/h5,8-9H,2-4H2,1H3/t5-,6+,7+/m0/s1
