13
gdb 23745	3.40014	2.25063	1.35548	3.5215	63.64	-0.2284	-0.008	0.2204	823.2514	0.097566	-402.805093	-402.798712	-402.797768	-402.83537	24.869	
N	-0.0009726549	 1.4056575199	 0.1681515098	-0.593264
C	-0.0237465262	 0.0320291462	 0.0621932483	 0.232423
C	-1.1952784054	-0.7335651427	 0.0404045272	-0.205372
C	-1.1022700977	-2.1191733106	-0.0136330213	 0.014254
N	 0.0460402148	-2.8005225534	-0.0492207926	-0.287755
C	 1.1699935729	-2.0745910911	-0.0323457471	-0.088907
C	 1.1715460679	-0.6960539593	 0.0213850012	 0.186628
F	 2.3292985775	-0.0089936568	 0.0258565963	-0.095895
H	 0.8659780593	 1.8478148562	-0.0951130766	 0.263409
H	-0.8241641495	 1.8964208852	-0.1429966598	 0.257942
H	-2.1650225367	-0.2470506376	 0.0691024641	 0.092784
H	-2.011854813	-2.7146760397	-0.0300645389	 0.106212
H	 2.1189933911	-2.6038743662	-0.0657618708	 0.117541
188.3115	287.1169	292.5558	378.3846	435.7956	449.7286	512.6908	548.8439	605.6265	606.6889	762.1535	792.4811	842.0539	879.416	938.9272	980.3015	1049.3974	1104.7344	1216.0936	1248.6827	1317.6089	1325.7542	1365.4431	1459.3864	1545.138	1617.7907	1630.2303	1663.4439	3154.4531	3162.8183	3181.733	3586.8804	3695.8996
NC1=CC=NC=C1F	Nc1ccncc1F	
InChI=1S/C5H5FN2/c6-4-3-8-2-1-5(4)7/h1-3H,(H2,7,8)	InChI=1S/C5H5FN2/c6-4-3-8-2-1-5(4)7/h1-3H,(H2,7,8)
