13
gdb 133300	5.15059	1.08112	0.89861	1.2467	63.97	-0.2513	-0.0827	0.1686	1180.286	0.088935	-494.035012	-494.027689	-494.026745	-494.067216	26.428	
C	-0.0155577211	 1.3888589739	 0.0094297514	-0.230705
O	 0.0256286473	-0.0417376901	-0.0438422191	-0.238156
C	 0.6247331575	-0.5986803238	-1.0926171166	 0.512898
N	 0.6263462919	-1.945544969	-1.0771313094	-0.266485
C	 1.2154704008	-2.5082079527	-2.1080548834	-0.110574
C	 1.7781137193	-1.705243268	-3.1108328181	 0.323829
F	 2.3720784403	-2.2708574551	-4.1503706034	-0.055832
N	 1.7471351981	-0.4001228278	-3.0739585988	-0.227342
N	 1.1514721713	 0.1855279494	-2.0318253219	-0.289602
H	 0.9939874238	 1.8073783445	 0.024350979	 0.146112
H	-0.5512323318	 1.7955277056	-0.8521011098	 0.146113
H	-0.542005288	 1.6243582198	 0.934394302	 0.139115
H	 1.2555932207	-3.5931011267	-2.164107032	 0.15063
91.6928	153.0278	199.2839	230.3658	390.0693	394.4379	445.7998	503.9964	567.9956	577.8435	655.2752	787.9913	829.1719	877.5422	971.007	1049.1445	1074.3578	1175.7358	1178.8322	1202.8617	1294.1415	1347.1712	1408.948	1438.1126	1480.9166	1493.9317	1521.7334	1568.8992	1623.2589	3050.4685	3126.198	3159.2093	3168.7223
COC1=NC=C(F)N=N1	COc1ncc(F)nn1	
InChI=1S/C4H4FN3O/c1-9-4-6-2-3(5)7-8-4/h2H,1H3	InChI=1S/C4H4FN3O/c1-9-4-6-2-3(5)7-8-4/h2H,1H3
