19
gdb 63711	3.5798	1.14294	1.02604	1.9079	83.71	-0.2424	0.0204	0.2628	1232.2349	0.15606	-385.827371	-385.818291	-385.817347	-385.860521	35.342	
C	-0.0062501524	 1.5616753194	 0.1060179728	-0.449
C	-0.0052554624	 0.0397295482	 0.0063066125	 0.302845
C	-1.4047458169	-0.5287745711	-0.2238243539	-0.449312
C	 1.061540024	-0.5914665292	-0.97411425	-0.367491
C	 1.6916618974	-1.3148424755	 0.2289886644	 0.300049
O	 2.0854970456	-0.2850184447	 1.1626370182	-0.285665
C	 0.7209967346	-0.6917109867	 1.1598001397	-0.082818
C	 2.3636860178	-2.5679009477	 0.2553167675	 0.172823
C	 2.9227216057	-3.6324373281	 0.2281277461	-0.379422
H	 0.9949152095	 1.9317153053	 0.3406374725	 0.134054
H	-0.3281141853	 2.0138490317	-0.8387800026	 0.113695
H	-0.6926619778	 1.9045416991	 0.8886485677	 0.11203
H	-1.8214466295	-0.1640564965	-1.1687540671	 0.120767
H	-1.3933501134	-1.6235458358	-0.2616204382	 0.118234
H	-2.0862362849	-0.2277700851	 0.5800571845	 0.116541
H	 0.6147483464	-1.2726262578	-1.7012340813	 0.115209
H	 1.7363199824	 0.1023040664	-1.4804289926	 0.111754
H	 0.3093309012	-1.0660937448	 2.0920026193	 0.105343
H	 3.4198628181	-4.570699707	 0.2167183005	 0.190365
93.6585	139.3963	221.4032	234.3884	258.3806	269.7959	317.011	364.2359	421.1499	471.3123	524.6331	550.2459	571.2269	607.9019	670.9967	679.8477	782.7756	844.265	901.9145	923.2222	942.6493	956.0297	965.1554	1012.4811	1049.0164	1102.7754	1153.9219	1193.285	1206.7425	1241.5892	1271.4116	1310.3498	1394.8061	1405.5494	1424.5757	1472.7774	1486.4068	1488.0306	1502.2941	1510.1206	2240.6073	3023.5952	3029.0171	3069.7346	3088.1137	3092.7041	3097.6609	3119.8255	3131.0998	3169.7238	3502.6948
CC1(C)CC2(OC12)C#C	CC1(C)C[C@]2(O[C@@H]12)C#C	
InChI=1S/C8H10O/c1-4-8-5-7(2,3)6(8)9-8/h1,6H,5H2,2-3H3	InChI=1S/C8H10O/c1-4-8-5-7(2,3)6(8)9-8/h1,6H,5H2,2-3H3/t6-,8+/m0/s1
