19
gdb 105203	2.02844	1.60818	1.09281	6.9581	72.49	-0.2347	0.0222	0.2569	1163.3088	0.159146	-456.340962	-456.331738	-456.330794	-456.374887	34.374	
C	-0.1069264782	 1.4640633366	-0.0097320007	-0.326859
N	 0.1270154636	 0.0304590568	 0.0736099184	-0.092921
C	 1.4864015707	-0.4521194101	-0.0878140228	-0.280072
C	 0.8223234451	-0.5507816004	 1.2448517155	 0.145478
C	 1.3291475251	 0.3115774526	 2.3898203363	-0.271748
N	 0.246335001	 0.5811048799	 3.3575440724	-0.524038
H	-0.4249700874	 1.2374128176	 2.9709830791	 0.250077
H	-0.289440859	-1.1076454387	 3.2568725658	 0.314418
H	 0.6138524199	 0.9885132671	 4.2107132507	 0.249572
C	 0.2446585798	-1.9200317153	 1.6153550201	 0.40754
O	 0.2837641602	-2.8579119105	 0.863999333	-0.339269
O	-0.3109574324	-2.0026922794	 2.8306347234	-0.385353
H	 0.712807195	 2.0971202296	 0.3655928197	 0.098825
H	-0.2636029559	 1.7204401483	-1.0621218038	 0.139577
H	-1.0253958042	 1.7184914453	 0.5309530634	 0.121966
H	 1.6004674179	-1.3589537027	-0.6722615194	 0.148494
H	 2.2824316457	 0.2868540002	-0.1849712267	 0.100206
H	 2.1091480118	-0.2441934386	 2.9220806425	 0.134584
H	 1.7993399014	 1.2240088916	 2.004029953	 0.109524
70.3546	126.4516	160.0173	197.2342	255.8835	281.6214	306.1446	330.8473	399.4631	406.2301	458.6425	515.3985	621.9427	711.0748	743.3618	812.6308	861.2155	885.3237	925.9009	972.534	996.0075	1045.7293	1056.8118	1128.9677	1136.185	1141.6971	1181.7136	1200.7197	1222.5082	1285.7396	1314.5077	1382.7714	1421.3509	1443.9881	1485.2074	1489.1679	1495.7331	1498.3	1516.2359	1647.676	1855.9805	2969.3915	3027.7664	3061.174	3071.7145	3084.9488	3098.2195	3202.5769	3258.2767	3505.4663	3588.313
CN1CC1(C[NH3+])C([O-])=O	CN1C[C@]1(CN)C(=O)O	
InChI=1S/C5H10N2O2/c1-7-3-5(7,2-6)4(8)9/h2-3,6H2,1H3,(H,8,9)	InChI=1S/C5H10N2O2/c1-7-3-5(7,2-6)4(8)9/h2-3,6H2,1H3,(H,8,9)/t5-,7?/m1/s1
