17
gdb 126922	6.79996	0.77898	0.70771	3.1242	74.08	-0.2052	0.0292	0.2344	1565.8581	0.135987	-455.143789	-455.134945	-455.134001	-455.178044	32.266	
C	-0.1296900763	 1.4522581392	-0.0382966716	-0.39929
C	 0.1631044281	-0.0435818487	-0.0599277881	-0.122627
N	 0.7170358218	-0.470113769	 1.2239100309	-0.408162
C	 0.8880867955	-1.7901170098	 1.5207951015	 0.581362
C	 1.6147857665	-2.4352216045	 2.4881536341	-0.503873
C	 1.2800751475	-3.7918042546	 2.2631450858	 0.491788
O	 1.750660909	-4.8268998097	 2.978291589	-0.423745
N	 0.445853808	-3.9800369284	 1.2671860807	-0.284664
O	 0.1946048237	-2.6685749075	 0.781037351	-0.230175
H	 0.7841972421	 2.0345331131	 0.1284660474	 0.116871
H	-0.5514808243	 1.7690265014	-0.9958432362	 0.129319
H	-0.8410557744	 1.6997609492	 0.7546927114	 0.133687
H	-0.7566344326	-0.6092082061	-0.2283241197	 0.142873
H	 0.8424209949	-0.2873378142	-0.8907369025	 0.109925
H	 1.4269138457	 0.1337348259	 1.6103431416	 0.248158
H	 2.267212489	-2.0219705908	 3.2365691959	 0.110344
H	 1.3605721957	-5.6309685256	 2.6098988589	 0.308207
49.5622	75.1903	133.8962	212.149	260.6432	336.0089	346.2374	391.9697	452.6967	470.7621	527.8258	673.9703	678.4579	703.8176	751.0214	786.9008	812.2294	916.6278	942.2459	1008.8191	1048.2422	1071.7889	1138.6358	1157.6943	1201.9435	1251.15	1292.8837	1350.1404	1384.8808	1416.4232	1469.2129	1494.6944	1499.185	1523.5497	1561.5829	1585.9856	1676.441	2991.1541	3035.0902	3089.5804	3110.5595	3125.8932	3288.7357	3615.35	3779.4712
CCNC1=CC(O)=NO1	CCNc1cc(O)no1	
InChI=1S/C5H8N2O2/c1-2-6-5-3-4(8)7-9-5/h3,6H,2H2,1H3,(H,7,8)	InChI=1S/C5H8N2O2/c1-2-6-5-3-4(8)7-9-5/h3,6H,2H2,1H3,(H,7,8)
