17
gdb 55399	3.48256	1.22037	0.93998	7.0453	69.88	-0.2367	0.0096	0.2463	1192.7471	0.138691	-455.20332	-455.195316	-455.194372	-455.236379	29.714	
O	-0.1859058309	-0.0476830675	 0.4738133795	-0.370327
C	-0.078400655	 1.2183878774	 0.0626179623	 0.423199
O	 0.9640235998	 1.7323764614	-0.2495194488	-0.354904
C	-1.419928332	 1.9728990944	 0.0406790277	-0.1149
C	-1.6009609716	 2.7604699583	-1.2644258044	-0.209307
C	-2.9781589575	 3.4274472356	-1.2634915897	-0.177696
N	-3.9846935405	 2.445375097	-0.868159618	-0.289026
H	-4.9282229677	 2.5459349757	-1.1994052313	 0.255686
C	-3.655511324	 1.3213772953	-0.1798982223	 0.096411
N	-2.5025468497	 1.023755866	 0.2924352388	-0.29836
H	-1.3671609484	 2.6854572699	 0.8783579586	 0.115908
H	-0.8069850523	 3.5007518268	-1.3721430077	 0.136127
H	-1.5283039543	 2.0705603669	-2.1122139406	 0.118631
H	-2.9906951695	 4.2832802179	-0.5751861327	 0.119852
H	-3.2250052876	 3.8061421592	-2.2603050324	 0.119478
H	-4.4816705621	 0.6261223374	-0.0300734354	 0.122429
H	-1.152026057	-0.1818975318	 0.6158217166	 0.306799
73.6865	99.2591	204.6748	229.8468	270.4303	338.3957	411.8199	487.7665	535.9499	593.9923	610.4191	734.1616	792.2261	833.4392	866.38	897.0059	934.6133	972.0358	1003.2188	1042.0082	1084.2975	1122.4832	1203.9752	1221.2868	1235.9052	1258.7498	1301.5279	1316.281	1365.6643	1370.8516	1418.5913	1449.0555	1483.0797	1506.6238	1535.2888	1722.021	1863.8641	2987.9387	3012.551	3054.0396	3076.0192	3130.0191	3133.3793	3427.4064	3666.3001
[O-]C(=O)C1CC[NH+]=CN1	OC(=O)[C@H]1CCNC=N1	
InChI=1S/C5H8N2O2/c8-5(9)4-1-2-6-3-7-4/h3-4H,1-2H2,(H,6,7)(H,8,9)	InChI=1S/C5H8N2O2/c8-5(9)4-1-2-6-3-7-4/h3-4H,1-2H2,(H,6,7)(H,8,9)/t4-/m1/s1
