15
gdb 5753	5.27197	2.11713	1.76398	1.823	71.44	-0.1987	0.0218	0.2205	748.0764	0.12178	-325.492258	-325.486594	-325.485649	-325.521764	23.277	
C	-0.0932463397	 1.3613850615	-0.1364947317	-0.27239
C	 1.2973554769	 0.8322794214	 0.0996043246	-0.020924
C	 0.1100476935	-0.1255095988	 0.131071434	-0.196025
C	 0.7028236687	-0.7327864648	-1.123749352	 0.230884
C	 0.5517694463	-1.2045566494	-2.4063141425	-0.266034
C	 1.6192502211	-0.6079564078	-3.157789343	-0.12369
C	 2.3202413562	 0.2632306593	-2.3436878322	-0.149465
N	 1.7966763575	 0.1092691305	-1.082421169	 0.018189
H	-0.5172716236	 1.9406482649	 0.6807505571	 0.118226
H	-0.3796177881	 1.6929926706	-1.1294445475	 0.135139
H	 1.9622117938	 1.1502089767	 0.8916169653	 0.114937
H	-0.3163795117	-0.6326825599	 0.9851712499	 0.107125
H	-0.1914193614	-1.8906303506	-2.7818371743	 0.09594
H	 1.8729908476	-0.8381758575	-4.1830062979	 0.092782
H	 3.1928920029	 0.8643547741	-2.5446270008	 0.115305
150.5003	283.8415	462.7235	486.6988	610.0658	705.2925	708.8751	727.5872	770.1459	789.2934	803.6318	847.541	853.5241	918.8095	962.1952	986.4606	997.5936	1036.6685	1047.1824	1076.3723	1085.7396	1122.1497	1179.9065	1225.9809	1246.5975	1263.4306	1300.6607	1385.6936	1420.5419	1464.27	1473.4349	1577.8688	3113.4361	3202.033	3205.37	3216.9194	3228.723	3254.2724	3263.1561
C1C2C1C1=CC=CN21	C1[C@H]2[C@@H]1c1cccn21	
InChI=1S/C7H7N/c1-2-6-5-4-7(5)8(6)3-1/h1-3,5,7H,4H2	InChI=1S/C7H7N/c1-2-6-5-4-7(5)8(6)3-1/h1-3,5,7H,4H2/t5-,7-/m0/s1
