16
gdb 55677	2.48044	1.23768	0.90792	4.6928	70.61	-0.2482	-0.0401	0.2081	1248.3515	0.12503	-471.246288	-471.237637	-471.236693	-471.280374	30.892	
O	 0.1882708779	 0.8143281615	-1.4209649581	-0.367607
C	-0.0030561953	 1.4448635595	-0.2645852072	 0.406172
O	 0.870754146	 1.6146287593	 0.5445837647	-0.323535
C	-1.4308872245	 1.9859349583	-0.0360222438	-0.323785
N	-2.4756901424	 0.9607544755	 0.0348449199	-0.043315
C	-3.0134119279	 0.6041992168	 1.2747572921	 0.102194
N	-3.8947839665	-0.2991407725	 1.3968830873	-0.461466
C	-2.956979101	 0.3879065567	-1.1181250183	 0.122425
N	-2.3804027749	 0.5902376435	-2.2426555222	-0.513812
H	-0.6650995191	 0.7780925773	-1.9311845494	 0.329369
H	-2.8671495803	 0.1260117897	-3.0033496385	 0.245864
H	-1.4185903564	 2.5335858299	 0.9055626607	 0.144875
H	-1.6856332243	 2.6739236207	-0.8494092964	 0.151028
H	-2.5798133703	 1.1940443392	 2.0873256307	 0.123101
H	-4.1746737924	-0.3990678542	 2.3692303559	 0.241693
H	-3.8415129986	-0.2245479813	-0.9482293075	 0.166799
68.0804	77.1235	155.4725	225.1176	231.7059	286.5616	318.4796	352.8092	437.6116	531.8324	609.9362	674.1889	761.9644	804.2359	812.1179	883.8678	889.7336	922.7377	981.2015	1054.1887	1068.6228	1138.1858	1160.4868	1222.0149	1302.5418	1351.4371	1368.923	1377.1571	1426.2875	1436.3906	1472.0629	1499.5413	1685.657	1729.7342	1860.8615	3054.8725	3084.5459	3146.3648	3154.0596	3191.4322	3529.504	3542.1208
[O-]C(=O)CN(C=N)C=[NH2+]	OC(=O)CN(C=N)C=N	
InChI=1S/C4H7N3O2/c5-2-7(3-6)1-4(8)9/h2-3,5-6H,1H2,(H,8,9)	InChI=1S/C4H7N3O2/c5-2-7(3-6)1-4(8)9/h2-3,5-6H,1H2,(H,8,9)
