22
gdb 111406	1.98776	1.46496	0.97559	2.5588	81.45	-0.2265	0.0691	0.2956	1295.088	0.19412	-404.29587	-404.286345	-404.2854	-404.330345	35.68	
C	-0.2713957148	 1.8199374448	 0.3627998643	-0.383876
C	-0.4806201227	 0.3023844537	 0.3217137865	-0.1954
C	 0.4426818994	-0.430588162	 1.284067737	 0.062555
C	 0.4905755015	-1.9922200737	 1.3470468751	-0.023615
C	-0.3871297864	-2.8471691417	 0.4500379478	-0.101302
O	-1.7209531577	-2.7379418654	 0.9334134867	-0.421292
C	 1.9750750385	-1.8632517742	 1.0145366034	-0.057344
C	 2.2082582715	-1.0879413241	-0.2192455971	-0.247235
N	 1.9377331899	-0.3433830709	 1.0230912318	-0.140802
H	 0.7617923451	 2.0788303363	 0.1121087177	 0.132821
H	-0.9320087185	 2.3307293008	-0.3443709333	 0.107264
H	-0.4781074978	 2.2185862662	 1.3620463936	 0.115278
H	-1.5114016807	 0.0447903716	 0.5913107425	 0.115233
H	-0.3419192419	-0.0575632964	-0.7045451069	 0.087312
H	 0.2864235591	-0.0240064444	 2.2877867826	 0.082832
H	 0.338945971	-2.3300705226	 2.3756893452	 0.088328
H	-0.3196102901	-2.5181900682	-0.5970822244	 0.083769
H	-0.0321400487	-3.8905787158	 0.4860388816	 0.087566
H	-2.296855264	-3.2376920464	 0.347478336	 0.287735
H	 2.7719873016	-2.4081115311	 1.5113141157	 0.092076
H	 3.2372778029	-0.9782550213	-0.5484497386	 0.119114
H	 1.4830788229	-1.0903099554	-1.0278106171	 0.108986
81.1639	96.6755	134.7829	170.5818	213.3614	238.4133	277.4986	313.8594	353.4419	453.1999	522.3875	554.5016	708.0631	733.3515	765.9224	807.4689	830.781	911.7625	955.3372	978.6017	1002.163	1038.6665	1050.9634	1064.855	1077.8044	1108.8398	1120.0222	1127.3438	1141.3506	1179.2386	1210.949	1237.8455	1254.2218	1276.8686	1279.6013	1307.5142	1335.1803	1368.4923	1374.3607	1405.6428	1411.8094	1460.7849	1484.6202	1496.7969	1503.8188	1512.0628	1522.5634	2964.4454	3004.3632	3034.7023	3036.1588	3051.1889	3069.0709	3078.2827	3102.0999	3112.2162	3117.6254	3154.8155	3198.4979	3829.7528
CCC1C(CO)C2CN12	CC[C@H]1[C@@H](CO)[C@H]2CN12	
InChI=1S/C7H13NO/c1-2-6-5(4-9)7-3-8(6)7/h5-7,9H,2-4H2,1H3	InChI=1S/C7H13NO/c1-2-6-5(4-9)7-3-8(6)7/h5-7,9H,2-4H2,1H3/t5-,6+,7-,8?/m1/s1
