20
gdb 99302	5.4391	0.67062	0.62429	2.4515	77.85	-0.2471	0.0684	0.3155	1829.1109	0.169976	-440.31539	-440.305099	-440.304155	-440.352904	35.276	
C	-0.2956061049	 1.2969217094	-0.0279242538	-0.32841
N	-0.1689361637	-0.1229639802	-0.2698419822	-0.357164
C	 0.7499671087	-0.6368964356	-1.1312672706	 0.521513
O	 1.5595240837	 0.0006344652	-1.7700699579	-0.415777
O	 0.6287068097	-1.9887538628	-1.1739130767	-0.281459
C	 1.5578681127	-2.6546032359	-2.0484323335	-0.070834
C	 1.3170256734	-4.1318729812	-1.9433116345	 0.003288
C	 0.213427679	-4.7739124308	-2.7443605526	-0.250161
C	 1.6532595679	-5.0129060965	-3.1209040827	-0.27178
H	 0.475314652	 1.798365427	-0.6142796636	 0.169519
H	-1.2770340767	 1.6746819714	-0.3382539076	 0.123399
H	-0.148178399	 1.5383679339	 1.0310212416	 0.123755
H	-0.7880150919	-0.7732906509	 0.1834227901	 0.25131
H	 1.4062455582	-2.3008519282	-3.0744225051	 0.111658
H	 2.5780112393	-2.3846780154	-1.756672045	 0.120228
H	 1.5049407649	-4.5472697862	-0.9574905649	 0.089607
H	-0.343151127	-5.585949798	-2.2904777696	 0.113363
H	-0.3801269025	-4.1328993533	-3.3877030006	 0.115838
H	 2.0292446411	-4.5370200717	-4.0206696626	 0.11678
H	 2.087346925	-5.9859116601	-2.9213138481	 0.115326
29.2866	47.8924	64.3079	112.1206	121.6298	165.9069	246.5996	294.3876	355.9243	402.2907	460.6176	542.5094	710.8648	776.4904	780.1982	817.8286	843.5399	911.6762	940.1393	968.5424	1023.3107	1041.6197	1061.1677	1081.5094	1136.266	1159.4139	1170.5919	1177.2128	1196.7067	1201.4866	1227.1542	1251.3886	1278.8434	1368.4406	1435.6714	1446.5337	1471.2329	1497.5994	1498.6881	1504.786	1514.9654	1569.6681	1813.5323	3022.1354	3040.0671	3070.7755	3083.0914	3133.4182	3137.8378	3151.5997	3152.1769	3211.8104	3226.653	3660.851
CNC(=O)OCC1CC1	CNC(=O)OCC1CC1	
InChI=1S/C6H11NO2/c1-7-6(8)9-4-5-2-3-5/h5H,2-4H2,1H3,(H,7,8)	InChI=1S/C6H11NO2/c1-7-6(8)9-4-5-2-3-5/h5H,2-4H2,1H3,(H,7,8)
