15
gdb 125821	3.11369	1.27612	0.9103	4.583	69.9	-0.2352	-0.0159	0.2192	1202.2725	0.11274	-453.968477	-453.960302	-453.959358	-454.001755	29.368	
C	-0.0208757353	 1.5000152425	 0.0465051801	-0.517987
C	-0.0099437391	 0.0062878993	 0.0126372786	 0.316897
N	-0.0304465943	-0.6429002392	-1.1277920769	-0.190225
O	-0.0126174997	-1.9901262982	-0.8074859595	-0.167262
C	 0.0183840384	-2.1340372439	 0.5292956194	 0.021219
C	 0.0219290915	-0.9037768034	 1.1135179804	 0.147642
N	 0.0495411482	-0.5533389256	 2.4650631271	-0.416498
C	 0.0793552056	-1.4518479852	 3.4948621937	 0.140468
O	 0.0852528179	-2.6548204082	 3.3562320626	-0.305507
H	 0.8736663484	 1.8946342688	 0.5420450454	 0.136603
H	-0.0483936875	 1.890579139	-0.9721377738	 0.164131
H	-0.896703228	 1.8806843218	 0.5845523953	 0.136518
H	 0.0349991874	-3.1336604954	 0.923656578	 0.183311
H	 0.0474262982	 0.4283494039	 2.6937548535	 0.260071
H	 0.0974962884	-0.9468923162	 4.4783103361	 0.090619
65.8004	148.6883	162.8143	206.9855	233.1527	278.652	400.3266	429.9792	530.4494	598.2025	613.4015	693.2256	697.584	834.7932	882.6486	924.9621	956.6969	1012.5783	1025.0837	1067.2016	1135.3968	1149.9313	1205.4725	1288.1447	1400.275	1425.5857	1429.8384	1480.498	1482.858	1511.4166	1575.1643	1664.2965	1800.0586	2966.5355	3031.1356	3083.6144	3141.3538	3319.0067	3633.3081
CC1=NOC=C1NC=O	Cc1nocc1NC=O	
InChI=1S/C5H6N2O2/c1-4-5(6-3-8)2-9-7-4/h2-3H,1H3,(H,6,8)	InChI=1S/C5H6N2O2/c1-4-5(6-3-8)2-9-7-4/h2-3H,1H3,(H,6,8)
