20
gdb 112092	3.1704	1.25278	0.99613	1.8949	80.33	-0.2222	0.0227	0.2449	1217.1361	0.17242	-403.120518	-403.11216	-403.111215	-403.153502	32.295	
O	 0.125727457	 1.3418227005	-0.1309662963	-0.420962
C	 0.0546551822	-0.0753500682	-0.1987957148	-0.081591
C	-1.4001355781	-0.4850978136	 0.0608319557	-0.05202
C	-2.3275606551	 0.0359620689	-1.0043413475	-0.06283
C	-3.3773003726	-0.6524158357	-1.4449945472	-0.079842
C	-3.7368319168	-2.0189956119	-0.924825017	-0.203519
N	-2.6740586683	-2.7470613371	-0.2233137665	-0.111843
C	-1.4057536904	-2.9071483743	-0.9307313246	-0.250089
C	-1.5080794562	-1.9930428617	 0.2438505011	-0.029351
H	 1.0113440322	 1.6130224035	-0.3883438844	 0.288664
H	 0.3700618305	-0.4463916402	-1.1858097577	 0.090409
H	 0.7073349181	-0.5420186352	 0.5562094603	 0.086291
H	-1.6760906283	-0.009084924	 1.0143896676	 0.098428
H	-2.1038899445	 1.0269249457	-1.3867275406	 0.104124
H	-4.0358279861	-0.2283551843	-2.1995969037	 0.087287
H	-4.5853054164	-1.9333966061	-0.2301690678	 0.117812
H	-4.08906869	-2.65704426	-1.7456906685	 0.110154
H	-0.9366931346	-3.8830179832	-0.8351715441	 0.109549
H	-1.304948768	-2.4434288258	-1.9101554287	 0.111853
H	-1.1225258346	-2.3515253474	 1.1974014846	 0.087476
86.0568	120.5407	184.5752	243.7966	277.0449	320.2645	375.1098	389.0317	506.9593	525.2858	609.2506	715.603	725.014	802.2505	859.0775	887.1901	922.0603	959.2133	986.2636	1007.8829	1039.9257	1065.8171	1072.7726	1083.2273	1103.5705	1118.242	1165.2965	1172.1249	1193.0109	1234.7577	1249.5423	1273.626	1319.9736	1328.5304	1355.2608	1357.8804	1392.8791	1423.3817	1452.6319	1479.8274	1505.0002	1518.8658	1725.6694	2969.3355	2983.9561	2999.1243	3009.8316	3036.0357	3096.1162	3106.1607	3148.6259	3180.3454	3185.5784	3834.3205
OCC1C=CCN2CC12	OC[C@H]1C=CCN2C[C@@H]12	
InChI=1S/C7H11NO/c9-5-6-2-1-3-8-4-7(6)8/h1-2,6-7,9H,3-5H2	InChI=1S/C7H11NO/c9-5-6-2-1-3-8-4-7(6)8/h1-2,6-7,9H,3-5H2/t6-,7+,8?/m1/s1
