20
gdb 81821	2.10815	1.64195	1.14925	4.2164	83.15	-0.2686	0.0297	0.2982	1154.4316	0.170486	-366.012742	-366.003649	-366.002705	-366.046226	34.378	
C	-0.170218516	 1.5880486422	-0.1045266887	-0.413402
C	 0.0420240831	 0.0813749637	-0.0821350104	 0.011397
C	 0.7521402227	-0.6009967	-1.2583526918	-0.108226
C	 2.2019855173	-0.1983880712	-1.3284507308	-0.341228
C	 1.7880046363	-1.240217165	-0.3286241507	 0.364198
C	 2.3496029933	-2.6309404224	-0.2777817215	-0.502394
C	 1.1294678415	-0.5469505756	 0.8877207428	-0.247266
C	 1.9635256541	 0.3584436823	 1.6654708617	 0.286168
N	 2.6276563069	 1.094328863	 2.2619407811	-0.345423
H	 0.7595902687	 2.1319242444	-0.2920212426	 0.133269
H	-0.8821782328	 1.8557164097	-0.892432473	 0.118694
H	-0.5736636164	 1.9435457021	 0.8490833362	 0.127395
H	-0.9094056671	-0.4173360974	 0.1234578059	 0.086745
H	 0.2460486441	-1.0479026905	-2.1062720775	 0.090175
H	 2.7431562998	-0.5883623018	-2.1847587652	 0.116864
H	 2.5352406624	 0.7856557101	-1.0102178445	 0.127759
H	 2.5789837756	-2.9948789127	-1.2843119824	 0.124592
H	 3.2779957252	-2.6621911	 0.3046729111	 0.134332
H	 1.644413332	-3.3340732235	 0.1803942569	 0.118267
H	 0.6708199093	-1.2701996274	 1.5670607334	 0.118086
103.8518	125.1178	173.9525	197.3255	208.7746	227.5996	331.8576	352.52	390.9105	494.4616	523.4696	555.2729	661.6641	711.5843	778.5219	828.7975	860.9627	926.2094	966.2095	980.2505	997.5134	1016.109	1039.7637	1075.4138	1097.8809	1114.9983	1119.6034	1136.2325	1173.8008	1240.8351	1263.8666	1299.515	1329.7725	1367.6936	1399.2297	1415.1588	1427.7741	1484.4886	1489.5791	1492.9209	1498.0943	1506.1499	2346.2642	3022.7836	3038.0834	3058.7345	3078.9134	3081.9948	3100.2166	3103.237	3116.7024	3120.7181	3177.4813	3203.7072
CC1C2CC2(C)C1C#N	C[C@H]1[C@H]2C[C@@]2(C)[C@H]1C#N	
InChI=1S/C8H11N/c1-5-6-3-8(6,2)7(5)4-9/h5-7H,3H2,1-2H3	InChI=1S/C8H11N/c1-5-6-3-8(6,2)7(5)4-9/h5-7H,3H2,1-2H3/t5-,6+,7-,8+/m0/s1
