20
gdb 52264	4.45022	0.79728	0.72543	3.5903	81.62	-0.2437	0.0215	0.2652	1560.6333	0.17215	-403.188439	-403.179436	-403.178492	-403.224294	32.613	
O	 0.1898887171	 0.737928024	-1.2746820582	-0.323597
C	 0.0976621667	 1.4095678018	-0.2689268611	 0.154775
N	 1.0698075703	 1.5591861443	 0.6701315059	-0.274407
C	 2.3864123018	 0.9486809844	 0.5557722178	-0.191192
C	 3.4878762318	 1.9411972656	 0.1734788971	 0.040945
C	 3.7207802475	 3.0864021835	 1.1999306547	-0.274098
C	 5.2154814137	 3.2982883628	 1.154126665	-0.058519
C	 5.8396716112	 2.3186208872	 0.5035652822	-0.059348
C	 4.8786792016	 1.2720874966	-0.0065064894	-0.274678
H	-0.8173493233	 1.976670001	-0.003599539	 0.07123
H	 0.884434964	 2.1730676626	 1.4471431275	 0.24745
H	 2.6386776479	 0.4612734511	 1.5066859035	 0.103926
H	 2.2947859749	 0.1709013179	-0.2060192654	 0.146645
H	 3.205255496	 2.3983228662	-0.781079821	 0.093991
H	 3.1518642318	 3.9901699905	 0.9534410491	 0.104724
H	 3.4079801629	 2.793894729	 2.2157149019	 0.09261
H	 5.7003853501	 4.140107279	 1.6361091533	 0.091776
H	 6.9130934873	 2.2382990157	 0.371493611	 0.093474
H	 4.96327108	 0.3476880783	 0.5857633144	 0.102925
H	 5.064793027	 0.9835417086	-1.0468987794	 0.111371
17.5023	69.7871	80.8866	159.6908	253.8598	284.7147	393.1063	412.2114	420.299	531.3587	622.9157	715.2855	749.8855	781.0333	839.2348	918.268	922.0572	944.668	976.4598	979.8027	1001.7008	1031.4383	1048.212	1102.8435	1109.5396	1133.6649	1158.7751	1202.5258	1217.2395	1284.6581	1293.6391	1309.7371	1333.5939	1355.6679	1381.0281	1399.3403	1431.4499	1475.9191	1485.2237	1494.2978	1533.3834	1689.959	1806.6779	2929.3191	2974.6477	2990.4582	3019.2694	3040.8903	3052.9023	3065.1124	3113.9276	3181.2734	3206.8035	3636.981
O=CNCC1CC=CC1	O=CNC[C@H]1CC=CC1	
InChI=1S/C7H11NO/c9-6-8-5-7-3-1-2-4-7/h1-2,6-7H,3-5H2,(H,8,9)	InChI=1S/C7H11NO/c9-6-8-5-7-3-1-2-4-7/h1-2,6-7H,3-5H2,(H,8,9)
