17
gdb 127914	6.33947	0.85145	0.76065	2.5076	73.95	-0.2168	0.009	0.2258	1480.5152	0.135905	-451.30846	-451.298888	-451.297944	-451.346914	32.833	
C	 0.0409586015	 1.3903706887	-0.0222830165	-0.321186
N	 0.0227071297	-0.0637087095	 0.0553626917	-0.392473
C	-1.0952172046	-0.6401356257	 0.0234804912	 0.538567
N	-1.3295049188	-2.0087833147	 0.0837273235	-0.419771
C	-2.6784705939	-2.2147392093	 0.0132514565	 0.400902
C	-3.3337174043	-3.5708159349	 0.0448277618	-0.280583
N	-4.784070948	-3.5713273417	-0.042737476	-0.482135
N	-3.3388073009	-1.1088566706	-0.0840417098	-0.198802
O	-2.3458751446	-0.0798264475	-0.07751056	-0.254257
H	 1.0793765949	 1.7290166366	-0.0504069531	 0.118513
H	-0.4671340853	 1.76896102	-0.9195723468	 0.120356
H	-0.4439748182	 1.8562122662	 0.8464266702	 0.120272
H	-0.5979450826	-2.6931545066	 0.1583083772	 0.283019
H	-2.9235499796	-4.1713748458	-0.7776723147	 0.137707
H	-3.0289833215	-4.0796355579	 0.9687560861	 0.137854
H	-5.1662393337	-3.0117946705	 0.7145073232	 0.246025
H	-5.0690689901	-3.0959885567	-0.8944265544	 0.245992
1.5147	60.7987	107.3609	143.8637	224.9025	231.2104	266.5208	330.4261	366.1727	393.8636	572.3512	630.3548	660.6867	726.482	738.7653	898.5625	910.9435	926.8579	941.648	1018.3195	1079.3812	1123.1491	1138.658	1162.0125	1193.9583	1220.7223	1283.7592	1368.293	1393.2427	1447.9151	1470.3703	1489.9343	1491.5557	1502.3148	1656.0272	1676.9017	1815.8944	2998.9406	3022.3586	3047.3352	3054.5391	3104.6915	3499.1167	3568.249	3694.5357
CN=C1NC(CN)=NO1	CN=c1[nH]c(CN)no1	
InChI=1S/C4H8N4O/c1-6-4-7-3(2-5)8-9-4/h2,5H2,1H3,(H,6,7,8)	InChI=1S/C4H8N4O/c1-6-4-7-3(2-5)8-9-4/h2,5H2,1H3,(H,6,7,8)
