20
gdb 11954	3.50279	1.53628	1.32738	1.7906	75.4	-0.2237	0.0792	0.3029	1036.3312	0.175686	-348.975313	-348.966701	-348.965757	-349.008265	32.289	
C	 0.0391664042	 1.5462045464	-0.2199559758	-0.369925
C	 0.0179836182	 0.0482330343	 0.1185024154	-0.295898
C	-1.3672347469	-0.5347708537	 0.1263512245	 0.235684
C	-2.1104573913	-0.9961172728	-1.1204822033	-0.38131
C	-1.8987015689	-1.952260705	 0.0177437328	 0.413514
C	-1.2839956646	-3.3119469058	-0.044895355	-0.486454
O	-2.9038358277	-1.7259223487	 1.0200708636	-0.325817
C	-2.3992925712	-0.3825651214	 1.2413556776	-0.129042
H	 1.0615359077	 1.9365586554	-0.2214199935	 0.111394
H	-0.3962997192	 1.730304451	-1.2073427035	 0.120766
H	-0.5373257075	 2.1252642209	 0.5094548714	 0.117396
H	 0.6337154902	-0.4974575949	-0.6075304619	 0.097779
H	 0.4881818651	-0.111932605	 1.0980379441	 0.09803
H	-3.1128797194	-0.6379224051	-1.3423567084	 0.107295
H	-1.4747385781	-1.1492744388	-1.9883050158	 0.10718
H	-0.4807734618	-3.3379938222	-0.7869900714	 0.121499
H	-0.8741844394	-3.6042285711	 0.9270277387	 0.125917
H	-2.0334864617	-4.0574214919	-0.3348011188	 0.132573
H	-1.9523109499	-0.2989224621	 2.2403213508	 0.100192
H	-3.1790967378	 0.3800360504	 1.1233153084	 0.099227
71.7043	125.9131	191.5217	211.7148	234.6666	267.1922	344.3795	374.7231	438.7505	495.025	598.3896	724.9075	755.7006	785.3538	852.5864	909.1601	936.3323	972.9014	978.1048	990.3576	1030.9029	1046.2242	1063.259	1096.6948	1112.6182	1154.9126	1195.8972	1223.7638	1277.8533	1315.2009	1351.0947	1360.2954	1402.3451	1409.6845	1429.262	1473.3389	1480.065	1490.1515	1498.0342	1503.5202	1510.3955	1522.5827	3008.43	3013.9976	3031.614	3033.6661	3047.2551	3056.3026	3094.4849	3101.8059	3104.0721	3107.4989	3114.7584	3195.7028
CCC12CC1(C)OC2	CC[C@@]12C[C@]1(C)OC2	
InChI=1S/C7H12O/c1-3-7-4-6(7,2)8-5-7/h3-5H2,1-2H3	InChI=1S/C7H12O/c1-3-7-4-6(7,2)8-5-7/h3-5H2,1-2H3/t6-,7-/m0/s1
