20
gdb 46909	3.06369	1.36169	1.04794	2.4641	79.25	-0.2338	-0.012	0.2219	1160.912	0.172985	-403.149618	-403.141716	-403.140772	-403.182114	31.178	
O	 0.0078316311	-0.0123549873	-0.0402889626	-0.30291
C	-0.0144488739	 1.1985154699	-0.0330608181	 0.377059
C	-1.3435035168	 1.9489899279	-0.0029468877	-0.282809
C	-1.4911855257	 2.9147982666	 1.1953762914	-0.247558
C	-0.7030053016	 4.1954977887	 1.0142400909	 0.022332
C	 0.0976922577	 4.8014867877	 2.1139902867	-0.267045
N	 0.7636098398	 4.1994146439	 0.9623729069	-0.078682
C	 1.4655973081	 2.9347447514	 1.1594540372	-0.167459
C	 1.283944015	 1.9997536629	-0.0515504444	-0.281422
H	-1.4453249021	 2.5212366742	-0.9354042195	 0.115486
H	-2.129844074	 1.190606166	 0.0115486049	 0.118628
H	-2.5496136766	 3.1775642261	 1.3007138414	 0.113334
H	-1.2138945998	 2.4016196697	 2.1219610744	 0.110712
H	-1.1418904068	 4.8701945599	 0.2788254163	 0.091187
H	 0.191504182	 5.8799829604	 2.2095406448	 0.117216
H	 0.1285899119	 4.259479201	 3.0590157609	 0.109586
H	 2.5299915546	 3.1709854131	 1.2634229432	 0.115359
H	 1.1718669804	 2.4109290143	 2.0841252587	 0.09309
H	 2.097807813	 1.2722811151	-0.0931981808	 0.119954
H	 1.3241708539	 2.6154022885	-0.9591446247	 0.123943
68.4733	165.4647	250.0746	264.1178	314.1964	373.3791	388.6079	476.0894	496.1115	553.3395	680.5339	728.4044	741.3372	785.7856	865.8766	895.7666	932.1507	973.3644	983.131	1009.3911	1048.557	1059.5705	1108.957	1111.3076	1124.2279	1154.6033	1176.1089	1222.0108	1232.5708	1257.	1282.164	1330.2693	1338.5289	1344.8331	1356.8767	1381.9891	1427.6498	1460.1003	1473.8871	1486.1539	1502.5336	1521.4332	1800.8922	2963.1842	3021.0397	3037.202	3042.8804	3059.1607	3077.0891	3087.2324	3102.3106	3105.811	3112.6249	3175.0699
O=C1CCC2CN2CC1	O=C1CC[C@H]2CN2CC1	
InChI=1S/C7H11NO/c9-7-2-1-6-5-8(6)4-3-7/h6H,1-5H2	InChI=1S/C7H11NO/c9-7-2-1-6-5-8(6)4-3-7/h6H,1-5H2/t6-,8?/m0/s1
