20
gdb 6091	4.41031	0.98995	0.866	2.0118	72.54	-0.2655	0.0193	0.2849	1387.8725	0.174073	-386.193253	-386.18313	-386.182186	-386.229453	34.81	
C	-0.117780922	 1.5116088015	 0.0690404855	-0.382707
C	 0.0108036796	-0.0168750294	 0.0451330227	 0.013239
C	 0.6877844054	-0.5051980308	-1.2421998933	-0.393809
C	 0.7800480154	-0.5349912038	 1.2559001001	-0.046343
O	 0.0471739194	-0.1813829663	 2.4447223695	-0.244598
C	 0.6136133324	-0.5380484565	 3.6164294899	 0.426682
C	-0.2490300678	-0.1063012286	 4.7787838983	-0.47876
O	 1.6654780701	-1.1198420813	 3.7005373866	-0.350071
H	 0.8689508123	 1.9861200275	 0.0036197168	 0.111458
H	-0.7138140851	 1.8670431925	-0.7774183617	 0.111744
H	-0.5956090508	 1.8529320827	 0.990679671	 0.124952
H	-0.9975425519	-0.4496028408	 0.0926000048	 0.083461
H	 1.7082601505	-0.1128357342	-1.3243145807	 0.11769
H	 0.7455361088	-1.5980473443	-1.2789342925	 0.115448
H	 0.1329552914	-0.168458985	-2.1230615751	 0.116956
H	 0.8970990235	-1.6232627062	 1.2234800107	 0.114685
H	 1.7837828884	-0.0978840038	 1.3112965016	 0.116099
H	-1.2501562425	-0.5362842356	 4.6856645626	 0.147983
H	 0.2113206145	-0.4293302652	 5.7115911199	 0.147423
H	-0.3617358017	 0.9817574974	 4.7770700433	 0.148468
39.6629	55.2292	76.5604	129.6047	190.9771	224.1684	244.9459	268.873	309.063	397.9334	423.8076	488.4019	607.8094	640.114	826.4282	910.6829	923.3002	935.2897	956.1941	974.8228	997.5135	1064.6505	1066.8991	1153.9692	1189.0697	1201.58	1267.1296	1275.0714	1329.3447	1372.4754	1390.0057	1399.1443	1408.7465	1428.0743	1469.8514	1476.5075	1488.7992	1491.0923	1504.0037	1507.6212	1514.5977	1824.5196	3017.1011	3027.6118	3030.8469	3039.9377	3056.9098	3083.1127	3092.4617	3098.6865	3106.6809	3120.9537	3121.488	3169.1073
CC(C)COC(C)=O	CC(C)COC(=O)C	
InChI=1S/C6H12O2/c1-5(2)4-8-6(3)7/h5H,4H2,1-3H3	InChI=1S/C6H12O2/c1-5(2)4-8-6(3)7/h5H,4H2,1-3H3
