15
gdb 29838	4.07827	1.06708	0.8503	6.3157	76.66	-0.2102	-0.0009	0.2092	1272.7616	0.113118	-416.86089	-416.852161	-416.851217	-416.89571	30.931	
C	-0.0441687783	 1.463373444	 0.0300290628	-0.335497
N	-0.0023665253	 0.0132744891	-0.0047837932	-0.04593
C	-0.092229873	-0.7799716119	-1.1203405502	-0.198857
C	 0.003469625	-2.0965057459	-0.7172046257	 0.181458
C	 0.1605827291	-2.1056854959	 0.7106181904	-0.445101
C	 0.1511360984	-0.7909661106	 1.0962661807	 0.408664
O	 0.2592282695	-0.1698125344	 2.2947737824	-0.438083
C	-0.047079215	-3.226172194	-1.5672639108	 0.197699
N	-0.0871290093	-4.1582663631	-2.2552875446	-0.356442
H	 0.9087701658	 1.8731937741	 0.3770134374	 0.152671
H	-0.2445255114	 1.8302152458	-0.9771060024	 0.146631
H	-0.8356269432	 1.8083751217	 0.7002928845	 0.154957
H	-0.2164279275	-0.3542712203	-2.10160074	 0.14527
H	 0.2625582382	-2.9726779291	 1.3424607325	 0.117497
H	 0.351360727	-0.8374285795	 2.9813939761	 0.315063
16.5273	124.5238	146.4541	187.6492	253.977	278.1834	309.2457	442.2828	507.9006	513.2235	601.0588	633.3663	654.0763	668.2802	703.0783	764.7372	821.1034	996.5501	1079.8185	1137.5862	1154.1778	1174.4393	1214.2883	1287.4141	1361.12	1400.7696	1456.6286	1479.6945	1510.7185	1521.3739	1579.5032	1622.1932	2340.1555	3050.9057	3114.7761	3152.0704	3265.0692	3280.2192	3847.7847
CN1C=C(C=C1O)C#N	Cn1cc(cc1O)C#N	
InChI=1S/C6H6N2O/c1-8-4-5(3-7)2-6(8)9/h2,4,9H,1H3	InChI=1S/C6H6N2O/c1-8-4-5(3-7)2-6(8)9/h2,4,9H,1H3
