17
gdb 51494	4.14793	1.03077	0.91256	4.2526	75.47	-0.2477	-0.0076	0.2402	1264.2791	0.136316	-421.840028	-421.832233	-421.831289	-421.873497	29.068	
O	-0.0242398613	-0.0162546426	-0.2652334294	-0.278865
C	 0.0202983852	 1.1775384493	-0.2604528619	 0.169914
O	 0.9972272839	 1.8694189239	 0.3488691389	-0.188773
C	 0.9756733774	 3.3129403101	 0.2623945589	 0.067412
C	 1.2075272721	 3.9127755583	 1.634058742	-0.106389
C	 2.2438415043	 4.7512192212	 1.6352202142	-0.073251
C	 2.9093588786	 4.8127894855	 0.2983530951	-0.080148
C	 3.5274350773	 3.5072719452	-0.1580880275	-0.270778
C	 2.1228307259	 3.8614566565	-0.5804060355	-0.064054
H	-0.7321934784	 1.8307770317	-0.7465675874	 0.072681
H	 0.0017393111	 3.6080847853	-0.1529971787	 0.091383
H	 0.6024309267	 3.6299184592	 2.486517322	 0.109905
H	 2.6073115925	 5.2979552486	 2.4978447933	 0.109112
H	 3.3022198085	 5.7495300504	-0.0788422211	 0.096191
H	 4.2883456234	 3.5530531666	-0.929771457	 0.117524
H	 3.6642206396	 2.7222745527	 0.5768157524	 0.134957
H	 1.9366707831	 4.0807444282	-1.6242823082	 0.093179
35.3752	107.1609	149.7703	274.8777	303.3809	388.6121	453.6217	476.9927	696.6904	707.1111	756.0035	788.425	807.3213	834.8975	926.8635	946.3238	964.5392	988.9829	1007.8045	1039.662	1046.2699	1059.5385	1070.1101	1096.1367	1103.8773	1140.9615	1194.6117	1201.2317	1297.5727	1313.6162	1355.0008	1375.0445	1387.7436	1436.7522	1480.6743	1675.3403	1863.723	2932.8514	2999.3639	3136.0952	3179.3871	3188.8493	3195.8041	3221.6751	3229.0466
O=COC1C=CC2CC12	O=CO[C@H]1C=C[C@H]2C[C@@H]12	
InChI=1S/C7H8O2/c8-4-9-7-2-1-5-3-6(5)7/h1-2,4-7H,3H2	InChI=1S/C7H8O2/c8-4-9-7-2-1-5-3-6(5)7/h1-2,4-7H,3H2/t5-,6+,7-/m0/s1
