23
gdb 104173	2.70986	1.18875	1.04135	1.0273	81.57	-0.2442	0.0804	0.3247	1311.1476	0.204004	-425.448778	-425.438601	-425.437657	-425.484222	37.75	
C	 0.0813130275	 1.698233427	 0.1390964909	-0.391084
C	 0.0435660545	 0.1668434877	 0.148628017	-0.222467
C	 0.5511897191	-0.4942228313	-1.1362136221	 0.374043
C	 2.0023851385	-0.1269375515	-1.4755139673	-0.438013
C	 0.343961271	-2.0192038646	-1.1497909023	-0.125964
O	 0.0981540939	-2.3252877016	-2.5141026347	-0.279403
C	-0.3219850555	-1.1309520654	-3.1717949582	 0.22382
C	-1.7057296415	-1.2809565674	-3.7750673581	-0.398106
O	-0.3275236117	-0.1036908077	-2.2058506021	-0.302555
H	 1.1042836604	 2.0844953362	 0.1003494047	 0.115986
H	-0.462271692	 2.0888491585	-0.7252948683	 0.136177
H	-0.3855816448	 2.0975582975	 1.0444199938	 0.111729
H	 0.6324004323	-0.2191324403	 0.990475689	 0.095853
H	-0.9883730103	-0.1673987274	 0.3040745799	 0.101844
H	 2.6645064028	-0.3417093817	-0.6302965858	 0.113168
H	 2.3549225189	-0.7055931341	-2.33419935	 0.127124
H	 2.0859684982	 0.9343138216	-1.7204800089	 0.12642
H	 1.2243596447	-2.5778769282	-0.8170767419	 0.105419
H	-0.5138198849	-2.3042344254	-0.5233655056	 0.088659
H	 0.4197668308	-0.9130753909	-3.959255445	 0.068451
H	-2.4310857158	-1.5136629652	-2.9910727746	 0.121861
H	-2.0020026329	-0.3518129988	-4.2703163357	 0.12284
H	-1.7039428029	-2.0874793771	-4.5129994847	 0.124198
39.5067	82.3299	125.8666	192.1375	221.8309	233.1067	268.2243	300.2235	323.0242	364.202	435.4435	444.702	494.1727	623.2977	717.169	776.9796	805.1877	841.8752	898.4885	926.2181	943.4898	964.1182	1007.1289	1043.4774	1058.373	1077.5491	1105.159	1137.841	1165.0183	1189.9502	1212.1059	1230.5874	1259.541	1326.8137	1354.1234	1379.6799	1389.3136	1396.4048	1408.3896	1410.248	1427.8774	1472.6377	1482.9097	1485.693	1489.3981	1498.283	1505.1179	1511.4847	1523.4081	2951.463	2993.9568	3026.8551	3041.703	3044.4338	3047.4137	3066.5777	3075.7924	3108.2411	3110.0097	3123.8109	3126.2093	3128.407	3132.3839
CCC1(C)COC(C)O1	CC[C@@]1(C)CO[C@@H](C)O1	
InChI=1S/C7H14O2/c1-4-7(3)5-8-6(2)9-7/h6H,4-5H2,1-3H3	InChI=1S/C7H14O2/c1-4-7(3)5-8-6(2)9-7/h6H,4-5H2,1-3H3/t6-,7+/m1/s1
