14
gdb 132446	3.24914	1.38431	0.97159	2.1776	72.32	-0.189	-0.0302	0.1588	1102.4589	0.101506	-478.005386	-477.997939	-477.996994	-478.037171	29.095	
N	 0.0260391793	 1.3965492868	 0.1478822513	-0.582315
C	-0.0612676477	 0.0216862647	 0.0435530551	 0.231608
C	-1.2078099478	-0.7092055383	 0.0141137913	-0.169069
C	-1.1646248342	-2.146096063	-0.025901458	-0.357342
C	 0.0394409661	-2.7276002847	-0.0329416336	 0.37124
F	 0.2674899684	-4.0241405395	-0.0607427318	-0.047124
O	 1.1991129287	-2.0524616379	-0.0154525653	-0.243866
C	 1.230937599	-0.6656549407	 0.0061047028	 0.378831
N	 2.3340552837	-0.0342804947	-0.0136267628	-0.55401
H	 0.9373791466	 1.7548257635	-0.1046219269	 0.270635
H	-0.7515868499	 1.9241819617	-0.2166249314	 0.248531
H	-2.1715338207	-0.212463026	 0.0302875471	 0.10136
H	-2.0593147624	-2.7507494692	-0.0448864243	 0.12185
H	 3.1321752409	-0.6657618728	-0.0482945733	 0.229672
123.3015	166.5327	326.7488	350.7632	351.0236	396.6637	411.0902	469.9045	523.0775	577.552	595.1595	628.1506	743.8117	760.4473	784.6395	807.9616	824.1964	879.7766	981.049	1033.6108	1099.4538	1148.0633	1244.7257	1285.5334	1308.2286	1401.6137	1442.2317	1610.5883	1658.0535	1693.2512	1748.3274	3190.5945	3242.498	3515.8014	3555.4226	3676.1773
NC1=CC=C(F)OC1=N	NC1=C(OC(=CC1)F)[NH]	
InChI=1S/C5H5FN2O/c6-4-2-1-3(7)5(8)9-4/h1-2,8H,7H2	InChI=1S/C5H6FN2O/c6-4-2-1-3(7)5(8)9-4/h2,8H,1,7H2
