18
gdb 12421	2.99196	2.01082	1.478	1.6806	62.99	-0.2547	0.0712	0.3259	885.4422	0.155675	-422.080994	-422.073614	-422.07267	-422.112256	29.2	
O	 0.0536069887	 1.4325218133	-0.0200583595	-0.443487
C	 0.0498936482	 0.0196592433	-0.0184473733	 0.127919
C	 0.8036868065	-0.5544089646	 1.195065689	-0.23485
C	 0.6052564364	-2.068416125	 1.303128718	-0.088292
O	-0.7781535837	-2.411153308	 1.3115715619	-0.255736
C	-1.4107895536	-2.0321436471	 0.0976706391	-0.123135
C	-1.3956587905	-0.5118849042	-0.041889645	 0.097721
O	-2.1383559944	 0.096578775	 1.0162715007	-0.454574
H	-0.6580521474	 1.6867301391	 0.5837047092	 0.284402
H	 0.5533224939	-0.2961648336	-0.9417070286	 0.081056
H	 1.8678179987	-0.3075514051	 1.1258462964	 0.108095
H	 0.4225939449	-0.0741460821	 2.1045537415	 0.09884
H	 1.1045052378	-2.58336507	 0.4652613685	 0.093563
H	 1.0228013353	-2.4609002271	 2.2341640361	 0.114167
H	-0.9117063515	-2.5023837995	-0.7652928875	 0.095252
H	-2.4387178001	-2.4016524753	 0.1513320441	 0.118639
H	-1.8821531684	-0.2039918562	-0.9736007338	 0.08942
H	-1.9676011809	-0.4343983528	 1.8050129531	 0.290998
141.6636	174.6298	268.1215	312.6253	368.4485	419.0754	423.2334	440.8312	535.1906	537.276	636.9432	705.291	797.1835	861.4097	886.5501	921.9043	985.4605	1016.9823	1035.0398	1103.5837	1109.569	1118.3171	1166.3311	1208.4034	1227.3543	1263.4165	1282.5367	1315.2725	1335.0122	1347.8934	1375.1974	1395.0771	1411.6578	1424.9095	1442.7025	1481.5978	1484.6465	1502.5195	2969.8685	2978.4104	3024.9295	3037.809	3062.5829	3088.7271	3091.5113	3093.8569	3751.4504	3770.4045
OC1CCOCC1O	O[C@H]1CCOC[C@H]1O	
InChI=1S/C5H10O3/c6-4-1-2-8-3-5(4)7/h4-7H,1-3H2	InChI=1S/C5H10O3/c6-4-1-2-8-3-5(4)7/h4-7H,1-3H2/t4-,5+/m0/s1
