21
gdb 119575	3.01453	1.05788	0.91175	2.1448	79.33	-0.2285	0.0783	0.3068	1385.742	0.180025	-424.177869	-424.168278	-424.167334	-424.21275	35.477	
C	-0.1343334336	 1.5635512885	-0.0763519957	-0.386837
C	-0.0716489418	 0.0579862066	-0.2601015538	-0.058619
O	-1.2653605016	-0.5049637997	 0.2843544121	-0.288036
C	-1.3722052714	-1.8644604247	 0.1278549189	 0.344178
C	-1.6977967167	-2.5342903538	-1.1957201595	-0.363961
C	-2.60222046	-2.7133624755	-0.0049767475	 0.014805
O	-2.0890234043	-3.7238323194	 0.8662564296	-0.308191
C	-0.9128275788	-2.9054607851	 1.1620921699	 0.092296
C	 0.395019831	-3.6553404035	 1.0259954335	-0.41323
H	 0.7666042006	 2.0337956845	-0.4814950119	 0.11675
H	-1.0052680301	 1.9768508257	-0.5929223729	 0.127947
H	-0.2126083367	 1.8189814712	 0.9841393584	 0.129002
H	 0.0099197721	-0.20778175	-1.3240968296	 0.0969
H	 0.8091987904	-0.3589789205	 0.2509385827	 0.094282
H	-2.0721741226	-1.8376442332	-1.9402753459	 0.117969
H	-1.1344281282	-3.378021713	-1.5837428823	 0.11348
H	-3.6618158034	-2.4912549666	 0.0262739876	 0.112938
H	-1.0201062877	-2.4846533637	 2.1707037624	 0.087555
H	 0.5484720086	-4.0147504786	 0.0049159854	 0.121722
H	 1.2336999625	-3.0057167996	 1.2990865918	 0.118407
H	 0.4058340817	-4.5199403496	 1.6974151067	 0.130644
57.9406	75.3278	125.7552	207.5939	216.8279	243.0623	259.1504	348.8474	372.3037	402.5833	473.9768	531.7325	696.4314	705.2704	817.7112	845.4234	868.6629	874.1652	934.4495	949.6209	991.2778	1012.7495	1042.0759	1071.0591	1076.7205	1082.0305	1121.4903	1142.0436	1155.5159	1185.657	1220.8408	1266.5109	1280.8619	1294.8387	1371.707	1388.893	1402.2751	1410.0832	1430.5125	1482.4892	1483.1434	1487.1013	1495.1028	1499.1155	1527.0044	2985.7394	3019.2847	3020.6286	3038.1628	3045.4715	3105.1546	3114.6863	3120.3632	3121.4452	3122.7167	3190.8635	3209.4069
CCOC12CC1OC2C	CCO[C@]12C[C@H]1O[C@H]2C	
InChI=1S/C7H12O2/c1-3-8-7-4-6(7)9-5(7)2/h5-6H,3-4H2,1-2H3	InChI=1S/C7H12O2/c1-3-8-7-4-6(7)9-5(7)2/h5-6H,3-4H2,1-2H3/t5-,6+,7-/m0/s1
