15
gdb 50604	1.92284	1.73103	0.95592	5.9694	74.91	-0.2417	-0.0631	0.1787	1163.8628	0.112732	-416.825448	-416.817126	-416.816182	-416.859509	29.317	
O	-0.0565073399	-0.0529468715	-0.0596904498	-0.234226
C	 0.0683991984	 1.136001639	-0.1638809716	 0.179443
C	 1.3933832606	 1.8868479424	 0.0284110111	-0.185376
N	 1.5659029628	 2.8453903353	-1.0671921472	-0.323007
C	 1.8987523729	 4.1799517016	-0.5468154149	-0.19813
C	 1.6455789012	 4.0512094602	 0.923698875	-0.171709
C	 1.3713286875	 2.7849886647	 1.256681888	 0.203086
C	 1.1116967143	 2.2963933421	 2.5643543331	 0.232503
N	 0.9004309446	 1.8794497698	 3.6238863605	-0.324883
H	-0.7704696669	 1.8110507127	-0.4433205542	 0.086692
H	 2.1871760775	 1.1297984961	 0.1058231381	 0.107086
H	 2.216044894	 2.5168072524	-1.7658397881	 0.240492
H	 2.944306637	 4.4759166969	-0.7344582418	 0.119768
H	 1.269443177	 4.9585558635	-1.0015745811	 0.13018
H	 1.700159329	 4.882178965	 1.6148983728	 0.138082
48.0897	77.6328	147.7385	171.5471	261.5324	328.1382	418.5304	424.3491	525.8172	574.3474	602.0391	617.9806	806.9338	857.9858	920.3948	936.3127	981.091	1023.7201	1046.2235	1067.5329	1125.3524	1177.0696	1201.4131	1263.0527	1285.3575	1294.2952	1372.9024	1399.6759	1444.7019	1511.2894	1679.5045	1841.0312	2344.1361	2896.4974	2967.698	3004.1971	3006.4601	3229.596	3601.4092
O=CC1NCC=C1C#N	O=C[C@H]1NCC=C1C#N	
InChI=1S/C6H6N2O/c7-3-5-1-2-8-6(5)4-9/h1,4,6,8H,2H2	InChI=1S/C6H6N2O/c7-3-5-1-2-8-6(5)4-9/h1,4,6,8H,2H2/t6-/m1/s1
