22
gdb 89253	2.40407	1.75131	1.29976	1.6306	85.47	-0.2195	0.0765	0.296	1090.4129	0.19458	-367.151878	-367.143438	-367.142494	-367.184137	34.248	
C	-0.2843046084	 1.5663893978	-0.0433853193	-0.413402
C	 0.0537799243	 0.0821766061	-0.0009941571	 0.044072
C	 1.198774438	-0.4743871692	-0.9150506092	-0.310403
C	 1.8212082122	-1.2183723047	 0.310530755	 0.375027
C	 1.9752019406	-2.7211344208	 0.2523294571	-0.496137
C	 2.9360982649	-0.4607986802	 1.0821051106	-0.115323
N	 2.6892644313	 0.9900182775	 0.9413048357	-0.33337
C	 1.9232219013	 0.2099283792	 1.9485501151	-0.06009
C	 0.7662351177	-0.532876766	 1.2448431942	-0.090959
H	 0.6109100025	 2.1746939666	 0.0982046112	 0.139643
H	-0.7337519673	 1.8336565862	-1.0068753148	 0.104487
H	-1.0072082812	 1.8263938053	 0.7389813795	 0.100771
H	-0.8609229697	-0.4952710961	-0.1786272291	 0.064738
H	 0.8598715465	-1.1400261809	-1.7139813659	 0.083431
H	 1.843199332	 0.2977755144	-1.337596088	 0.110953
H	 2.7657519689	-3.0117038518	-0.4511467733	 0.114672
H	 2.2367725924	-3.1335446773	 1.2341345845	 0.111661
H	 1.0470161742	-3.2018330511	-0.0752061566	 0.114696
H	 3.9306538324	-0.828602017	 1.3116611242	 0.082836
H	 3.4318906819	 1.4713108583	 1.4476437991	 0.227524
H	 1.9737183542	 0.4908886186	 2.9941084968	 0.08676
H	 0.1645750412	-1.1332715949	 1.9309053104	 0.058414
144.2723	212.4838	215.2026	232.2562	240.7347	276.159	331.4444	389.6635	480.1021	526.8716	634.241	661.4196	766.0905	785.9727	825.4905	830.0501	875.9048	880.4742	908.5796	928.6564	938.4037	962.1343	1005.204	1013.8726	1074.2368	1079.4878	1106.005	1126.6076	1141.7237	1163.5604	1188.8913	1201.6637	1237.2675	1256.5714	1277.9313	1285.4669	1328.2488	1339.626	1364.2577	1381.7659	1400.1024	1410.7837	1469.5208	1489.0765	1492.3253	1493.5264	1510.6464	3014.7492	3022.8851	3030.0297	3057.2595	3075.3489	3080.561	3083.2927	3089.3176	3126.4626	3135.1006	3161.2068	3178.824	3470.6615
CC1CC2(C)C3NC3C12	C[C@H]1C[C@@]2(C)[C@H]3N[C@H]3[C@@H]12	
InChI=1S/C8H13N/c1-4-3-8(2)5(4)6-7(8)9-6/h4-7,9H,3H2,1-2H3	InChI=1S/C8H13N/c1-4-3-8(2)5(4)6-7(8)9-6/h4-7,9H,3H2,1-2H3/t4-,5+,6-,7-,8+/m0/s1
