21
gdb 57637	3.13813	0.9249	0.88089	1.0923	84.85	-0.2594	0.038	0.2974	1438.1254	0.179145	-387.042538	-387.032222	-387.031278	-387.077651	38.852	
C	-0.0467990822	 1.5894345708	-0.10273778	-0.393873
C	-0.0146807561	 0.0578597981	-0.0192380037	 0.147091
O	 0.7097055428	-0.2418578687	 1.1823725045	-0.449313
C	-1.4342607579	-0.5685278174	 0.045892971	-0.226084
C	-2.2484283196	-0.1288506873	 1.2435106121	 0.029611
C	-3.2448875893	 1.0006664288	 1.1419520102	-0.253817
C	-3.7268042997	-0.4204479401	 1.2917393128	-0.291405
C	 0.6953400261	-0.5009425119	-1.1814106884	 0.311292
C	 1.266119106	-0.9952735158	-2.1173444966	-0.468333
H	 0.9728654455	 1.9756010015	-0.1615679329	 0.130023
H	-0.599676802	 1.915624392	-0.9869934907	 0.118904
H	-0.5279202839	 1.9959106215	 0.7889082959	 0.133808
H	 0.9129246596	-1.1837575716	 1.1719943494	 0.282049
H	-1.9669126934	-0.3381920829	-0.8845636208	 0.102211
H	-1.3071810746	-1.6594699616	 0.0632813909	 0.095126
H	-1.7136315705	-0.2090920705	 2.1845548206	 0.095424
H	-3.3515572913	 1.6745234111	 1.9850704583	 0.111879
H	-3.3755540005	 1.4782249963	 0.1761733888	 0.109316
H	-4.1777227508	-0.8949360764	 0.4258284954	 0.109135
H	-4.162547898	-0.7222204425	 2.2378372824	 0.11068
H	 1.7792062396	-1.4184892031	-2.9455170793	 0.196276
68.357	92.7251	115.7658	179.4735	201.4713	235.3402	298.2069	307.3769	314.9	391.3048	402.9745	458.1176	562.9151	575.197	629.126	661.8581	743.4622	778.1284	811.7679	837.683	874.7266	923.4224	937.225	962.1086	985.3081	1054.0056	1075.6672	1083.097	1121.7285	1145.4174	1180.7869	1200.4933	1201.3286	1228.1303	1261.3462	1322.8961	1377.8702	1406.4379	1413.7709	1467.6949	1474.928	1483.2766	1491.5075	1506.9977	2227.8978	3014.2568	3057.1824	3060.8513	3126.3508	3131.328	3136.3567	3143.5973	3161.6174	3203.8941	3219.6315	3499.8336	3806.4352
CC(O)(CC1CC1)C#C	C[C@@](O)(CC1CC1)C#C	
InChI=1S/C8H12O/c1-3-8(2,9)6-7-4-5-7/h1,7,9H,4-6H2,2H3	InChI=1S/C8H12O/c1-3-8(2,9)6-7-4-5-7/h1,7,9H,4-6H2,2H3/t8-/m0/s1
