15
gdb 48324	2.34151	1.81174	1.16431	2.4699	65.98	-0.251	-0.0487	0.2023	1013.1597	0.110048	-457.692353	-457.684415	-457.683471	-457.725522	28.807	
O	-0.2256917459	 0.0200263754	-0.2658200508	-0.255521
C	-0.0443887713	 1.1228886891	 0.1873791333	 0.080128
C	 1.2506672269	 1.8974373033	 0.0610972976	 0.118861
C	 1.6251030133	 2.5532441815	 1.3727696225	 0.101699
O	 0.9660512534	 2.4295588302	 2.3774666183	-0.256654
C	 2.4372260395	 1.3366826203	-0.794240785	 0.016621
C	 1.6351340883	 1.5408336932	-2.1000019297	-0.231428
C	 1.5108036432	 2.8025610573	-1.2212747836	 0.001432
O	 2.9539202148	 2.723598267	-0.9408050821	-0.305631
H	-0.8379367146	 1.6554242798	 0.7467851193	 0.11124
H	 2.5508809932	 3.1551234989	 1.3460004609	 0.118464
H	 3.1460823663	 0.5579167591	-0.5170748758	 0.120908
H	 2.2556606387	 1.6838713674	-2.984397329	 0.120586
H	 0.7609386687	 0.9170303037	-2.2710716847	 0.14185
H	 1.0864311155	 3.7836820439	-1.4348463813	 0.117445
67.0816	81.2419	180.6862	248.6523	262.9601	320.663	420.6198	459.7994	619.6393	636.2299	697.6649	731.3924	798.6227	857.3559	889.4424	921.0395	997.8318	1030.3388	1034.493	1071.2195	1092.3858	1139.1849	1169.1837	1188.3862	1207.0469	1218.4209	1256.2948	1283.4328	1404.1754	1427.1732	1492.1328	1800.683	1817.7022	2946.3792	2980.8904	3102.2721	3124.0192	3139.1114	3189.4217
O=CC1(C=O)C2CC1O2	O=CC1(C=O)[C@H]2C[C@@H]1O2	
InChI=1S/C6H6O3/c7-2-6(3-8)4-1-5(6)9-4/h2-5H,1H2	InChI=1S/C6H6O3/c7-2-6(3-8)4-1-5(6)9-4/h2-5H,1H2/t4-,5+
