22
gdb 57429	2.51879	1.21487	1.048	1.5564	88.69	-0.2448	0.0351	0.2799	1280.9683	0.191369	-367.158614	-367.148279	-367.147335	-367.193385	39.547	
C	-0.0929501836	 1.515785452	 0.2605431766	-0.420603
C	-0.0634481066	-0.0121634131	 0.090188536	 0.235527
C	 0.454720617	-0.683590872	 1.3761089125	-0.402581
C	-1.494454145	-0.5048734796	-0.2116870868	-0.405044
C	 0.8201193327	-0.4680430181	-1.0737290034	 0.003835
N	 1.0609213093	 0.4236175536	-2.2068476982	-0.335157
C	 2.2181154199	-0.0221608194	-1.393866499	-0.262917
C	 2.9852132214	 0.9550205909	-0.6695855545	 0.378024
C	 3.7032648668	 1.718185788	-0.0787182293	-0.43397
H	 0.8887306064	 1.9152577306	 0.5205237993	 0.129709
H	-0.4198772138	 2.0041878709	-0.6602818682	 0.127425
H	-0.7911814776	 1.7806153036	 1.06196136	 0.098197
H	-0.1982900877	-0.4509720004	 2.2240704567	 0.109258
H	 0.4867745274	-1.7744419947	 1.272012494	 0.102421
H	 1.4638022837	-0.3371544109	 1.6189165791	 0.12494
H	-1.8721190783	-0.0642412523	-1.1404321121	 0.117668
H	-1.5304895946	-1.5956052695	-0.3138235886	 0.102738
H	-2.1780130885	-0.2233364673	 0.5960461088	 0.110231
H	 0.6585958529	-1.5212974878	-1.3123650517	 0.078975
H	 1.0458076434	-0.0803859192	-3.0891904062	 0.235953
H	 2.8432904315	-0.8005899805	-1.8300592049	 0.108203
H	 4.3165009033	 2.4081202252	 0.4461878898	 0.197168
46.3475	126.6302	186.7294	211.4005	237.8086	255.6312	266.0546	285.4173	318.7605	353.8452	386.5538	421.1898	500.5143	559.1763	602.1827	632.1629	656.4392	709.9433	808.665	837.5803	904.774	935.523	941.5153	962.7445	976.0272	991.8816	1040.8287	1050.6906	1106.6306	1178.9869	1213.9609	1237.3766	1243.6617	1251.5121	1315.4602	1396.2202	1398.8127	1405.0948	1427.9956	1457.8815	1478.8506	1487.6326	1488.8998	1503.2409	1508.2715	1523.1583	2234.5954	3022.5499	3026.7383	3043.2078	3078.1885	3088.1582	3093.7554	3100.8367	3107.2323	3107.8646	3115.8044	3142.2719	3503.2794	3506.181
CC(C)(C)C1NC1C#C	CC(C)(C)[C@H]1N[C@H]1C#C	
InChI=1S/C8H13N/c1-5-6-7(9-6)8(2,3)4/h1,6-7,9H,2-4H3	InChI=1S/C8H13N/c1-5-6-7(9-6)8(2,3)4/h1,6-7,9H,2-4H3/t6-,7-/m0/s1
