23
gdb 84683	2.16005	1.75607	1.35212	0.1478	89.91	-0.2323	0.0257	0.2579	1108.0345	0.206631	-351.166874	-351.158156	-351.157212	-351.199548	35.061	
C	-0.9089728927	 1.1828864147	 0.0764210869	-0.4049
C	-0.0619608947	-0.0847316465	-0.0986016147	-0.078721
C	 0.8493727999	-0.0735213528	-1.3100025593	-0.071325
C	 2.0701553715	-0.5427109701	-1.0511456646	-0.098976
C	 2.2422404325	-0.9421737829	 0.3893441434	-0.091744
C	 3.0737867914	 0.0372776738	 1.2644606545	-0.225565
C	 1.7616443236	 0.7805494448	 1.6334525459	-0.266332
C	 0.9215573453	-0.412298828	 1.058638358	 0.353201
C	 0.3161813774	-1.2947768974	 2.1416287495	-0.479085
H	-0.2917601563	 2.0848131874	 0.1271489244	 0.117977
H	-1.5994233698	 1.3039921868	-0.7650254539	 0.110964
H	-1.5102730606	 1.1331932402	 0.9906809401	 0.112671
H	-0.7688970315	-0.9247626285	-0.1990615483	 0.070584
H	 0.5055399004	 0.2646593528	-2.2831348618	 0.085715
H	 2.8680727824	-0.6389292484	-1.7812389101	 0.087801
H	 2.4865355573	-2.0051230535	 0.5029869609	 0.062825
H	 3.5329818732	-0.4626129212	 2.1218971007	 0.096141
H	 3.843844382	 0.6212610769	 0.7532801989	 0.092539
H	 1.6063676222	 1.0031794663	 2.6925017935	 0.091868
H	 1.6374607517	 1.7060733232	 1.0686972503	 0.101079
H	-0.5272426564	-0.794715383	 2.6333688348	 0.111984
H	-0.0533283539	-2.2381802201	 1.7232996589	 0.111545
H	 1.0488255249	-1.5393000247	 2.9189383419	 0.109751
99.1514	188.3114	212.5806	239.4611	260.5697	289.75	297.1651	350.2588	454.2349	517.7919	571.4948	643.1535	708.7765	761.2645	776.4266	840.6001	850.6959	878.6119	911.7526	936.371	957.0187	974.3708	991.5883	1028.7284	1039.2633	1067.5733	1096.5122	1115.6079	1132.2329	1167.3773	1184.5612	1209.8952	1229.7857	1256.066	1269.2854	1281.6172	1297.3514	1336.934	1351.3656	1375.9353	1407.0584	1413.235	1476.5335	1490.8123	1493.7251	1494.6354	1498.8033	1503.3083	1677.4262	2957.9313	3016.4751	3027.4129	3032.2024	3052.1994	3064.8414	3080.3635	3086.1643	3094.3562	3097.3755	3107.109	3123.9808	3163.6734	3189.5494
CC1C=CC2CCC12C	C[C@H]1C=C[C@H]2CC[C@@]12C	
InChI=1S/C9H14/c1-7-3-4-8-5-6-9(7,8)2/h3-4,7-8H,5-6H2,1-2H3	InChI=1S/C9H14/c1-7-3-4-8-5-6-9(7,8)2/h3-4,7-8H,5-6H2,1-2H3/t7-,8-,9-/m0/s1
