22
gdb 109605	2.32288	1.06511	0.95558	4.5598	88.07	-0.2707	0.0407	0.3114	1403.6715	0.192408	-367.231292	-367.220572	-367.219628	-367.267091	38.623	
C	-0.512345848	 0.5366966214	-2.6532849147	-0.37784
C	-0.2326649085	-0.4587555714	-1.5195790652	-0.210385
C	-1.5023065889	-0.8611431714	-0.7950907994	-0.039851
C	-2.3722873415	-2.0253301761	-1.1965526746	-0.0458
C	-2.0762141028	-2.9426217261	-2.3634372483	-0.421615
C	-1.5751008635	-2.0949593607	 0.1131303477	 0.106257
C	-0.3926686376	-3.0381864368	 0.2912371831	-0.459424
C	-2.351089417	-1.9305565125	 1.3187179542	 0.241699
N	-2.9699355097	-1.8013462636	 2.2885951778	-0.354748
H	 0.415451216	 0.8362823642	-3.1497186053	 0.116829
H	-1.1741440448	 0.1013388864	-3.4088999097	 0.121624
H	-0.9954055437	 1.442839204	-2.2725277998	 0.121873
H	 0.2827642918	-1.333485565	-1.9267114471	 0.098997
H	 0.4598826247	-0.0062737983	-0.7987942233	 0.109425
H	-2.0505913041	-0.0057295554	-0.4076876758	 0.104536
H	-3.4359433334	-1.8633915507	-1.0461958635	 0.108104
H	-1.0080562273	-3.083687342	-2.5404210598	 0.121679
H	-2.5192407914	-3.9309416097	-2.2026555975	 0.130193
H	-2.5085800108	-2.5322215221	-3.2822203675	 0.128835
H	 0.1809568104	-3.150687702	-0.6290001971	 0.123844
H	 0.2838367317	-2.6634955783	 1.0651169438	 0.138374
H	-0.7360106716	-4.0305609441	 0.5982490418	 0.137391
58.6668	119.9003	125.7202	147.6969	157.749	190.4373	211.3102	248.8472	287.7411	303.4547	405.1389	421.9665	520.4724	569.624	597.4864	671.8477	766.3412	783.9961	837.9153	928.8413	959.5695	977.8659	1033.6368	1044.1548	1065.2052	1100.1833	1115.4591	1137.551	1157.5982	1193.1934	1255.949	1291.864	1306.2984	1337.8659	1392.5771	1412.137	1414.9585	1424.2315	1448.0358	1477.4581	1490.2522	1493.1931	1499.92	1500.1767	1504.3809	1514.8679	2342.3258	3031.3181	3035.8918	3040.1906	3049.9894	3075.5885	3096.9266	3106.4497	3109.842	3110.2202	3121.8275	3135.199	3145.4595	3152.4506
CCC1C(C)C1(C)C#N	CC[C@H]1[C@@H](C)[C@]1(C)C#N	
InChI=1S/C8H13N/c1-4-7-6(2)8(7,3)5-9/h6-7H,4H2,1-3H3	InChI=1S/C8H13N/c1-4-7-6(2)8(7,3)5-9/h6-7H,4H2,1-3H3/t6-,7+,8+/m1/s1
