19
gdb 106602	3.89453	0.98312	0.96269	1.2292	72.16	-0.2502	0.0656	0.3158	1292.7903	0.157894	-460.088988	-460.080034	-460.07909	-460.122804	33.86	
O	-0.1890436846	 1.3271035733	 0.2463972823	-0.414618
C	-0.1108879587	-0.0790489971	 0.1163534916	-0.186671
C	-1.4682213684	-0.6721792573	-0.1177089696	 0.383705
C	-2.5387978702	-0.3013372114	-1.1780221883	-0.303028
C	-3.1909251464	-1.1857537987	-0.0901370147	 0.383701
C	-4.6254302534	-1.4906276388	 0.2232162363	-0.186666
O	-4.7388782625	-2.1810085778	 1.4523579245	-0.41462
C	-1.9651252428	-2.1363761773	-0.1308264132	-0.30303
O	-2.4779117731	-0.3748971031	 0.9482348981	-0.405622
H	-0.8968122041	 1.5024507127	 0.8782055954	 0.294845
H	 0.5417901813	-0.290996236	-0.7373408338	 0.117785
H	 0.3353697393	-0.5500614842	 1.0070762381	 0.099618
H	-2.8464804855	 0.7442658895	-1.1797867075	 0.112571
H	-2.4287430012	-0.7202886814	-2.1809823938	 0.098606
H	-5.1977265122	-0.5488989715	 0.2263621776	 0.099617
H	-5.048271386	-2.1371624398	-0.5532522248	 0.117784
H	-4.2101611995	-1.6874018321	 2.0908530886	 0.294845
H	-1.8058389548	-2.72345334	-1.0383125541	 0.098608
H	-1.7861725472	-2.7011514091	 0.7840298372	 0.11257
74.1003	118.2717	129.1935	166.8288	273.1042	306.1729	389.4872	414.1817	432.3103	445.5663	524.3072	602.895	653.9052	669.3615	717.5028	800.4765	906.4021	948.6826	955.3623	976.0811	1040.8765	1047.542	1073.813	1099.5904	1110.0739	1125.2207	1135.4718	1155.0832	1164.1919	1227.0196	1241.813	1281.4898	1350.6041	1376.5131	1376.546	1434.1417	1442.8016	1469.2606	1491.1161	1491.6358	1525.3502	2979.5851	2979.726	3065.4794	3073.674	3074.916	3076.1681	3153.5645	3157.4568	3790.9981	3791.5791
OCC12CC(CO)(C1)O2	OC[C@@]12C[C@@](CO)(C1)O2	
InChI=1S/C6H10O3/c7-3-5-1-6(2-5,4-8)9-5/h7-8H,1-4H2	InChI=1S/C6H10O3/c7-3-5-1-6(2-5,4-8)9-5/h7-8H,1-4H2/t5-,6+
