19
gdb 112508	2.20307	1.2702	1.08853	2.635	76.68	-0.2509	0.0149	0.2658	1222.7074	0.157289	-422.967634	-422.958055	-422.957111	-423.002376	35.217	
C	-0.6465786234	 1.4120021755	 0.1831312798	-0.422169
C	-0.2453154903	-0.0419715588	-0.0081454074	-0.067773
C	 0.5455187895	-0.4966522189	-1.2607959914	 0.104415
C	 1.25498287	 0.5391969693	-2.1208625069	-0.069273
O	 2.2265377286	-0.099487736	-2.9270583507	-0.423318
O	 1.5270543723	-1.1851312598	-0.4338092165	-0.308359
C	 0.965125137	-0.6333559839	 0.7868547074	-0.071958
C	 1.8539850081	 0.305434092	 1.4544418531	 0.361503
C	 2.5826261632	 1.0821110696	 2.0130380656	-0.473371
H	 0.2068993806	 2.0897661314	 0.1128717657	 0.136384
H	-1.386516351	 1.7091705099	-0.5673083889	 0.121005
H	-1.1001301276	 1.5562218999	 1.1689242185	 0.124629
H	-1.1165750442	-0.6851057458	 0.1389366882	 0.093159
H	 0.0307553679	-1.2138374178	-1.9106823464	 0.08641
H	 0.5451436886	 1.0301156852	-2.7960602296	 0.106054
H	 1.7112834342	 1.3115144085	-1.4841917807	 0.094441
H	 2.7727964231	-0.6124031557	-2.318009936	 0.292849
H	 0.6983840684	-1.4388969576	 1.4811612373	 0.109564
H	 3.2327454949	 1.7614554228	 2.5073700886	 0.205808
48.0801	116.0848	140.676	167.1035	198.0756	218.7821	282.4868	340.9762	460.9905	473.1184	494.6777	529.6257	561.2727	629.0933	674.0639	735.9412	838.1101	844.1649	919.5159	956.2663	998.0263	1006.2384	1044.194	1081.7365	1107.0556	1153.171	1171.1514	1214.5414	1221.43	1278.5811	1301.6146	1345.1601	1355.9629	1381.1352	1407.091	1418.2075	1437.8367	1491.2458	1497.1904	1502.8935	2229.5601	2996.6156	3031.5678	3039.0941	3041.5018	3071.5216	3076.9025	3102.2172	3129.495	3500.9067	3778.9758
CC1C(CO)OC1C#C	C[C@H]1[C@@H](CO)O[C@H]1C#C	
InChI=1S/C7H10O2/c1-3-6-5(2)7(4-8)9-6/h1,5-8H,4H2,2H3	InChI=1S/C7H10O2/c1-3-6-5(2)7(4-8)9-6/h1,5-8H,4H2,2H3/t5-,6+,7-/m1/s1
