18
gdb 37995	3.58541	1.62469	1.28301	1.1778	84.84	-0.2053	-0.0137	0.1917	991.3691	0.151418	-364.800827	-364.794302	-364.793357	-364.831484	27.428	
C	-0.0170713432	 1.593780247	-0.0988310657	-0.297038
C	 1.4763204413	 1.8341431577	 0.0577231453	-0.069972
C	 2.1160821198	 0.7665959659	 0.5711190034	-0.179782
C	 1.1509284404	-0.2971290725	 0.7948729249	 0.322536
C	 0.9449404158	-1.2962180474	 1.6653801478	-0.237616
C	-0.512449222	-1.6239420455	 1.6872630807	-0.066646
N	-1.328851573	-0.4448782026	 2.139129518	-0.333977
C	-1.19011588	-0.725694847	 0.6982901468	-0.093895
C	-0.0968690629	 0.0511256684	-0.0090138863	-0.0385
H	-0.5600863608	 2.0514200686	 0.739887714	 0.129942
H	-0.4295265014	 2.0075352942	-1.0244128482	 0.09842
H	 1.9396769322	 2.7911257836	-0.1564161662	 0.097353
H	 3.1614478583	 0.7314561475	 0.8521716945	 0.100248
H	 1.6589129586	-1.6931249871	 2.3762937234	 0.093176
H	-0.8837314969	-2.6152680222	 1.9249834876	 0.085608
H	-2.2442783518	-0.7834909412	 2.4335192161	 0.224211
H	-2.0632435658	-1.0576945925	 0.146404019	 0.081301
H	 0.0166960314	-0.353379355	-1.0253494051	 0.08463
172.5528	174.4179	326.6801	438.6638	455.29	518.0866	634.615	650.4594	705.5448	755.621	778.103	797.2485	826.1766	845.9511	863.9159	890.8849	936.7326	962.8081	970.5979	980.8421	1027.5433	1058.5943	1089.4468	1118.3808	1124.724	1155.7411	1172.0287	1183.3224	1241.7207	1257.3652	1277.8012	1299.6987	1353.6666	1365.2101	1371.5636	1406.2464	1477.8737	1614.6051	1690.0646	2997.3026	3016.8872	3073.752	3158.4867	3168.8225	3188.4498	3206.7808	3215.5207	3467.8221
C1C=CC2=CC3NC3C12	C1C=C[C]2[CH][C@H]3N[C@H]3[C@@H]12	
InChI=1S/C8H9N/c1-2-5-4-7-8(9-7)6(5)3-1/h1-2,4,6-9H,3H2	InChI=1S/C8H9N/c1-2-5-4-7-8(9-7)6(5)3-1/h1-2,4,6-9H,3H2/t6-,7+,8-/m0/s1
