21
gdb 94891	2.72168	1.45419	1.00702	1.9137	84.85	-0.2188	0.0295	0.2482	1219.7396	0.184373	-387.109639	-387.10122	-387.100276	-387.142793	31.971	
C	-0.0381821659	 1.5928704019	-0.0091924902	-0.398272
C	 0.0119278079	 0.0615216598	 0.0602110444	-0.107289
C	 0.769985878	-0.5926017181	-1.1425776737	-0.209726
C	 1.5753765396	-1.803383212	-0.5777500581	-0.35115
C	 1.6008789309	-1.4920250369	 0.8906649611	 0.219398
C	 0.7723089176	-0.5088424553	 1.2278835826	 0.25269
C	 0.7830604861	-0.3135303716	 2.7111586778	-0.19022
O	 1.7503904031	-1.2587026781	 3.188291575	-0.27492
C	 2.2561209206	-2.0575553636	 2.1101479282	-0.183593
H	 0.9723075889	 2.0160455393	-0.0175298778	 0.116122
H	-0.5503205866	 1.9254392266	-0.9182476098	 0.114504
H	-0.5739280785	 2.0159004034	 0.8471064146	 0.114702
H	-1.0259029204	-0.3054678623	 0.0902947341	 0.077556
H	 0.0947663544	-0.8774759985	-1.9540232709	 0.098034
H	 1.4700911396	 0.1431386454	-1.5535222166	 0.104144
H	 1.0686747112	-2.7594836303	-0.7708086146	 0.107176
H	 2.5697877387	-1.8878204883	-1.0313182553	 0.105099
H	 1.0841773143	 0.6987903226	 3.0215623642	 0.10421
H	-0.1972883535	-0.5137179538	 3.1752944031	 0.09903
H	 2.0043870509	-3.1179456348	 2.2783844146	 0.099777
H	 3.3548415431	-1.9874679054	 2.0906344274	 0.102728
92.5299	125.3403	159.0631	201.1484	234.3083	270.2528	393.9512	417.5602	525.9464	548.6277	639.0966	689.6717	819.6074	836.8201	896.2044	912.2918	949.8371	966.8986	980.2489	1000.8418	1051.4057	1060.9955	1071.6177	1105.3318	1114.1359	1166.4079	1185.5353	1208.0894	1219.4497	1236.1475	1257.5583	1310.1445	1313.5874	1335.3819	1358.2073	1397.8818	1399.253	1410.4294	1485.0238	1497.336	1499.0838	1503.0808	1517.5957	1527.9194	1739.0833	2958.3449	2965.0372	2975.7491	2985.9276	2990.4263	3007.888	3027.6298	3040.9598	3054.3343	3094.2701	3098.6284	3100.143
CC1CCC2=C1COC2	C[C@H]1CCC2=C1COC2	
InChI=1S/C8H12O/c1-6-2-3-7-4-9-5-8(6)7/h6H,2-5H2,1H3	InChI=1S/C8H12O/c1-6-2-3-7-4-9-5-8(6)7/h6H,2-5H2,1H3/t6-/m0/s1
