20
gdb 67564	2.82488	1.98702	1.47038	1.5072	81.82	-0.2256	0.0879	0.3135	952.6023	0.173499	-365.939567	-365.932696	-365.931752	-365.970243	29.549	
C	 0.0332928052	 1.5182898684	-0.0605744177	-0.515208
C	 0.0318961147	 0.0060586612	-0.0037616071	 0.398436
C	 0.4291260405	-0.738336623	-1.2796235023	-0.127698
N	 1.6713137803	-1.5448184244	-1.1305949118	-0.343482
C	 0.3357000031	-2.148697373	-0.8668896082	-0.075841
C	-0.1054188877	-2.0021273071	 0.5793517781	-0.009741
C	 0.651181872	-0.7867262533	 1.2060444902	-0.078352
C	-0.6042329857	-0.4789872496	 2.0584599884	-0.268877
C	-1.1489415905	-0.8251530475	 0.6566223959	-0.099872
H	 1.0372032331	 1.8913774261	-0.2924089179	 0.124786
H	-0.6402644532	 1.879723885	-0.8467051869	 0.112473
H	-0.2825714412	 1.9772066739	 0.8803414888	 0.117678
H	 0.1385975077	-0.3718994822	-2.2585469269	 0.079679
H	 1.9746979271	-1.8369162366	-2.0591600398	 0.223188
H	-0.0363250977	-2.9405036435	-1.5068745335	 0.084887
H	-0.2661707823	-2.8911290171	 1.1906430392	 0.06267
H	 1.695019649	-0.7710809186	 1.5155059505	 0.078602
H	-0.8313497906	-1.1914461714	 2.8566402531	 0.086785
H	-0.7345015589	 0.5452459373	 2.4144642526	 0.089644
H	-2.1916545651	-0.8529903145	 0.3295915551	 0.060245
204.7894	228.943	289.6402	322.6958	384.6873	456.466	550.6384	612.3084	692.242	711.5666	758.4787	818.0823	825.4366	860.9197	879.0711	904.4254	911.9924	919.7113	924.5112	979.5188	1011.3717	1047.5946	1050.6742	1065.458	1085.8751	1113.9974	1118.7338	1133.4175	1164.5707	1182.0092	1199.0945	1208.9836	1233.1647	1235.2986	1263.8361	1278.1504	1332.9174	1352.852	1408.2707	1415.3244	1491.4524	1494.0424	1527.0373	3027.204	3053.7885	3076.8225	3084.1151	3104.3465	3107.2513	3113.2401	3127.2785	3163.8431	3179.579	3469.7201
CC12C3NC3C3C1CC23	C[C@@]12[C@H]3N[C@H]3[C@H]3[C@@H]1C[C@@H]23	
InChI=1S/C8H11N/c1-8-3-2-4(8)5(3)6-7(8)9-6/h3-7,9H,2H2,1H3	InChI=1S/C8H11N/c1-8-3-2-4(8)5(3)6-7(8)9-6/h3-7,9H,2H2,1H3/t3-,4+,5-,6-,7-,8+/m0/s1
