23
gdb 111892	2.70044	1.20194	0.92832	0.2694	92.22	-0.2165	0.0282	0.2447	1378.0763	0.206142	-351.166893	-351.157659	-351.156715	-351.200704	35.797	
C	 0.0656477341	 1.6132453135	 0.1519255592	-0.384068
C	 0.0483000954	 0.0818208003	 0.1245639281	-0.170007
C	-1.3604863374	-0.5230792592	-0.0354097645	-0.026713
C	-2.0483268329	-0.2360636819	-1.3585677386	-0.19449
C	-2.5440122318	-1.3321013024	-1.9446530868	 0.325955
C	-3.3006263209	-1.4139553681	-3.2332494494	-0.49536
C	-2.2098491609	-2.5545528239	-1.1454341757	-0.135206
C	-0.7273644934	-2.8592883848	-1.0465131388	-0.283617
C	-1.402892685	-2.0545649229	 0.0364532031	-0.056821
H	 1.0791537774	 1.9924828963	 0.3166689489	 0.109864
H	-0.295497487	 2.0392609663	-0.7897549276	 0.116741
H	-0.5691096872	 2.0026710689	 0.9560935384	 0.111775
H	 0.6920730864	-0.2806779202	-0.6855088761	 0.094001
H	 0.4833734049	-0.3000177552	 1.0569464472	 0.09229
H	-1.9755405766	-0.1173141127	 0.7844381398	 0.071637
H	-2.1137206041	 0.7627637858	-1.7770423365	 0.082133
H	-3.4398508528	-0.4272862421	-3.683391627	 0.120534
H	-2.7815185446	-2.0533080947	-3.9585946789	 0.125957
H	-4.2921697328	-1.8597066609	-3.0814261639	 0.123253
H	-2.9241672117	-3.3682768104	-1.0700528176	 0.078015
H	-0.4380720277	-3.8730155583	-0.7879701092	 0.104846
H	-0.0638510328	-2.3651630648	-1.7485956235	 0.109807
H	-1.5016336085	-2.5194457384	 1.0107481995	 0.079473
84.7632	128.5039	157.3239	193.2624	206.0454	251.8776	313.8597	333.4094	433.0041	463.9109	575.9085	592.858	693.6301	775.6542	790.5886	814.3838	840.668	849.3702	907.574	940.255	960.726	1005.9651	1023.5811	1029.9175	1059.6015	1060.5201	1070.2764	1087.6587	1101.4662	1125.1524	1133.8601	1187.7339	1203.0878	1269.899	1276.9723	1301.2899	1335.8991	1370.2492	1376.4667	1382.4777	1411.8491	1413.4588	1476.6506	1478.8964	1485.2056	1489.7067	1500.8798	1507.7073	1705.3636	2963.7443	3016.1239	3022.083	3030.5864	3058.5841	3061.4931	3097.0854	3102.393	3109.4173	3122.476	3155.6669	3170.7288	3185.6885	3210.3396
CCC1C=C(C)C2CC12	CC[C@H]1C=C(C)[C@H]2C[C@@H]12	
InChI=1S/C9H14/c1-3-7-4-6(2)8-5-9(7)8/h4,7-9H,3,5H2,1-2H3	InChI=1S/C9H14/c1-3-7-4-6(2)8-5-9(7)8/h4,7-9H,3,5H2,1-2H3/t7-,8+,9-/m0/s1
