15
gdb 29017	2.61247	1.5661	0.97914	4.5999	78.61	-0.2383	-0.0573	0.181	1123.8135	0.114062	-420.709251	-420.701805	-420.700861	-420.741177	28.46	
O	 0.0965327458	 1.3648297919	 0.0979243137	-0.433074
C	 0.0684942659	 0.0073570089	 0.0297666352	 0.308624
C	 0.0727865402	-0.6699363708	-1.191773997	-0.231207
C	 0.0434513621	-2.0586431289	-1.2180785083	-0.096046
C	 0.0094553106	-2.7927579887	-0.0301515516	-0.126865
C	 0.0052913363	-2.1178012439	 1.1800182611	-0.162373
C	 0.034419533	-0.7183553253	 1.2340117568	 0.10379
C	 0.0286960333	-0.0395059851	 2.5477149632	 0.087522
O	 0.000407522	-0.6266829508	 3.6080566675	-0.278957
H	 0.1179536689	 1.7278608411	-0.7936566166	 0.302737
H	 0.0992007698	-0.1032354613	-2.1191805339	 0.090635
H	 0.0472273925	-2.569972248	-2.1751627214	 0.108316
H	-0.0133364913	-3.8759834483	-0.0568031503	 0.104601
H	-0.0205987322	-2.6467782978	 2.126496472	 0.129533
H	 0.0534107631	 1.066283747	 2.5095841496	 0.092765
122.8274	173.6775	216.5022	266.8494	356.8367	383.5214	460.9421	507.5019	544.3797	557.224	639.9531	741.8163	779.666	820.0374	856.0865	864.1284	959.4749	984.3084	1049.7736	1060.2172	1105.7449	1180.3797	1192.428	1229.3689	1286.418	1329.7311	1365.3135	1440.3294	1490.2478	1524.912	1632.1141	1644.1362	1783.0729	2952.9278	3154.9938	3183.3427	3196.0537	3208.2151	3821.8262
OC1=CC=CC=C1C=O	Oc1ccccc1C=O	
InChI=1S/C7H6O2/c8-5-6-3-1-2-4-7(6)9/h1-5,9H	InChI=1S/C7H6O2/c8-5-6-3-1-2-4-7(6)9/h1-5,9H
