19
gdb 41583	3.4221	1.5248	1.34276	1.3337	81.19	-0.2268	0.0093	0.2361	1014.011	0.161615	-385.843542	-385.836601	-385.835656	-385.874825	28.209	
C	 0.1301242146	 1.4820689128	-0.2644375655	-0.066595
O	 1.4754864222	 1.4358091113	 0.2669675974	-0.288658
C	 1.3055859281	 0.0864352846	 0.7441414633	 0.087886
C	-0.0662371554	-0.026852212	-0.0161673799	-0.21604
C	 0.6916989376	-0.8588381188	-1.0440328708	 0.290847
C	 0.9419038604	-1.0127766767	-2.340141015	-0.222196
C	 2.4118328527	-1.4008552404	-2.5124442637	-0.23744
C	 3.0710872218	-0.9180301887	-1.1750172432	-0.250645
C	 1.9104410384	-1.0269879619	-0.1758658322	-0.046538
H	-0.5142248289	 2.1189126153	 0.3568256967	 0.097505
H	 0.1012624	 1.8265388613	-1.3030874046	 0.108419
H	 1.4395205951	 0.0066967638	 1.8268299965	 0.072563
H	-0.9980044929	-0.384553463	 0.4196894104	 0.088453
H	 0.2768014005	-0.8261789304	-3.1757179214	 0.092798
H	 2.5381812425	-2.48417823	-2.6529732844	 0.103591
H	 2.8590440451	-0.9219564908	-3.3902640131	 0.103466
H	 3.9617835068	-1.4922684166	-0.905912899	 0.091052
H	 3.3557383426	 0.1346501936	-1.2756039582	 0.119029
H	 1.9127954289	-1.9699048434	 0.3901427166	 0.072504
125.2553	163.72	234.9726	292.3764	451.1094	484.2633	580.4225	635.6947	685.4552	777.3618	814.7548	832.7668	854.2884	873.0434	900.2996	917.6682	957.303	962.0923	978.1019	1007.8661	1050.333	1057.788	1079.4476	1103.57	1126.7378	1162.8273	1171.675	1181.0458	1215.2082	1217.9304	1259.5039	1265.1791	1302.4131	1304.7118	1331.7876	1336.371	1359.0865	1478.7012	1491.9834	1514.1953	1720.6101	2998.3573	3002.7753	3006.4623	3048.7379	3064.5734	3065.7785	3076.4283	3103.136	3120.5825	3194.0296
C1OC2C1C1=CCCC21	C1O[C@H]2[C@@H]1[C]1[CH]CC[C@@H]21	
InChI=1S/C8H10O/c1-2-5-6(3-1)8-7(5)4-9-8/h2,6-8H,1,3-4H2	InChI=1S/C8H10O/c1-2-5-6(3-1)8-7(5)4-9-8/h2,6-8H,1,3-4H2/t6-,7+,8-/m1/s1
