18
gdb 47240	2.32524	1.63555	1.16215	3.3012	81.04	-0.2263	-0.0358	0.1905	1091.6772	0.150384	-401.981192	-401.973323	-401.972379	-402.013796	30.425	
O	 0.277892673	-0.0215490407	 0.001458696	-0.354679
C	 0.0393023765	 1.1690957963	-0.0521268956	 0.377334
C	-1.3956555415	 1.6954206086	 0.0676191553	-0.373351
C	-1.8437794897	 2.4458850786	 1.300927813	-0.056046
C	-1.2035562424	 3.1414794921	 2.2551320522	-0.082882
C	 0.2025317142	 3.493379206	 2.4534863837	-0.054117
C	 1.1538742811	 3.6908649131	 1.5327096533	-0.080771
C	 0.94375833	 3.4951150405	 0.0529678526	-0.241368
N	 1.0202995873	 2.0867114377	-0.3379243483	-0.283261
H	-1.6283917769	 2.3001121533	-0.8206764721	 0.132977
H	-2.014101143	 0.7970193361	-0.0128699072	 0.140287
H	-2.9218572419	 2.3707898966	 1.4348719507	 0.100768
H	-1.8453000641	 3.5068605187	 3.0558776732	 0.092305
H	 0.4729465522	 3.6615841315	 3.4943855799	 0.096623
H	 2.1533844225	 3.963561718	 1.8613162636	 0.095075
H	-0.0357930273	 3.8823362237	-0.2410855986	 0.134346
H	 1.6920220943	 4.0441097219	-0.5250955502	 0.116198
H	 1.9424055056	 1.669613728	-0.3190903115	 0.240564
86.9656	93.6311	225.8283	289.0923	326.5266	373.1218	446.9881	500.8856	535.6196	572.136	664.9253	688.8586	743.6296	777.6098	804.822	861.8429	877.8214	933.259	960.2362	1004.3034	1018.2863	1043.8092	1056.8694	1111.1056	1192.4976	1244.5156	1276.8161	1302.1519	1336.8754	1364.7483	1393.7799	1422.485	1455.8855	1462.3384	1470.259	1490.8479	1690.6841	1708.0563	1791.3555	3009.252	3061.6087	3086.9615	3104.4355	3118.6991	3136.3895	3146.6339	3167.7423	3577.8918
O=C1CC=CC=CCN1	O=C1CC=CC=CCN1	
InChI=1S/C7H9NO/c9-7-5-3-1-2-4-6-8-7/h1-4H,5-6H2,(H,8,9)/b3-1-,4-2-	InChI=1S/C7H9NO/c9-7-5-3-1-2-4-6-8-7/h1-4H,5-6H2,(H,8,9)/b3-1-,4-2-
