19
gdb 90296	2.88438	1.4676	1.31849	2.4804	78.79	-0.2228	0.0093	0.2321	1060.7303	0.158768	-422.992125	-422.983804	-422.98286	-423.024877	32.243	
C	 0.2360193239	 1.4778311406	-0.0834046747	-0.387541
C	-0.0395145458	-0.0146183247	 0.0822513697	 0.10288
O	 0.4159501092	-0.7140572605	-1.105240023	-0.283706
C	 1.2499149696	-1.7683454051	-0.7110902427	 0.096075
C	 2.836465043	-1.7310387228	-0.7843306164	 0.069741
O	 3.2765515155	-0.4096349586	-0.9591017528	-0.414678
C	 2.844125529	-2.2156138621	 0.7274748541	-0.352072
C	 1.4356531495	-1.6643443394	 0.7645744653	 0.202437
C	 0.7545514764	-0.6256272464	 1.2307753758	-0.228156
H	 1.3116552305	 1.6426629295	-0.1873565755	 0.135608
H	-0.2637339892	 1.8511294272	-0.9818683284	 0.122941
H	-0.1367447334	 2.0407185686	 0.7789914858	 0.104559
H	-1.1252009432	-0.1788030705	 0.1705848448	 0.080209
H	 0.8868078324	-2.7253906256	-1.1101172874	 0.076172
H	 3.3000734437	-2.4198513464	-1.5034070473	 0.068012
H	 4.2225017989	-0.383444961	-0.7842204835	 0.287316
H	 2.9116826328	-3.3056040488	 0.7966592913	 0.112333
H	 3.5829898343	-1.7578085324	 1.3890593828	 0.108374
H	 0.8575368428	-0.1279270314	 2.1871864321	 0.099497
74.645	149.6321	211.8368	245.5203	269.1696	325.8131	338.1521	409.7663	478.9688	526.8265	669.5825	716.3644	773.9217	791.0666	824.2736	832.6598	854.0463	904.8135	959.1	960.5397	1018.6639	1053.0603	1090.4535	1095.8594	1117.086	1137.9744	1142.4357	1178.5356	1213.4182	1238.1502	1290.4986	1301.1531	1316.1356	1362.1795	1376.2281	1397.3271	1406.3338	1470.4322	1483.3502	1498.2532	1727.3378	2971.2655	2999.4134	3013.0954	3037.4515	3055.7993	3111.3258	3115.1544	3128.7201	3208.9841	3818.2936
CC1OC2C(O)CC2=C1	C[C@H]1O[C@H]2[C@@H](O)C[C]2[CH]1	
InChI=1S/C7H10O2/c1-4-2-5-3-6(8)7(5)9-4/h2,4,6-8H,3H2,1H3	InChI=1S/C7H10O2/c1-4-2-5-3-6(8)7(5)9-4/h2,4,6-8H,3H2,1H3/t4-,6+,7-/m1/s1
