18
gdb 85010	2.41093	1.56376	0.99766	2.2953	73.7	-0.2444	-0.0347	0.2097	1177.9139	0.146726	-439.155047	-439.145836	-439.144892	-439.189484	32.757	
C	-0.2352099879	 1.5621141263	 0.0115530913	-0.391647
C	 0.0714481891	 0.063425123	 0.0010916798	-0.254978
C	 0.9300927159	-0.4077653271	-1.163606452	 0.396337
O	 0.8302669772	-0.0851234342	-2.3171147111	-0.301876
C	 1.993450035	-1.3652763328	-0.6104585036	-0.284498
N	 1.8463402441	-1.2490569937	 0.8241868351	-0.092913
C	 2.7348626232	-1.9160194225	 1.7490411555	-0.345536
C	 0.8214994148	-0.4336357611	 1.2386806106	 0.422164
O	 0.559360655	-0.1645993128	 2.3923288498	-0.392897
H	 0.6866186302	 2.1505345525	 0.0402426235	 0.126082
H	-0.7895538016	 1.8401343635	-0.8873890264	 0.137219
H	-0.8245953176	 1.8101819486	 0.8966149908	 0.144795
H	-0.874151736	-0.4968266137	-0.0462843598	 0.138393
H	 1.8131445862	-2.3877226016	-0.9748956793	 0.135571
H	 2.9911239084	-1.0657345191	-0.9588466419	 0.138433
H	 3.7751274286	-1.6080567128	 1.5866155403	 0.127537
H	 2.429709707	-1.6391257969	 2.7589654773	 0.17069
H	 2.6768621185	-3.0057116957	 1.6370510001	 0.127123
50.3923	120.3197	148.9735	187.9495	190.5448	222.1204	279.2517	301.6125	388.8267	514.5258	548.3887	593.2659	614.1391	717.4912	771.2722	817.358	935.9587	966.6845	1023.9737	1067.8763	1095.5513	1118.1411	1153.2279	1201.4836	1207.4209	1241.2989	1266.6216	1307.5437	1317.3508	1400.9912	1420.6136	1444.3256	1491.9955	1493.2511	1493.7391	1498.0629	1529.0492	1802.4774	1865.0793	2996.0914	3011.6515	3017.1538	3034.0781	3052.3	3066.3357	3124.6389	3143.4102	3150.2856
CC1C(=O)CN(C)C1=O	C[C@H]1C(=O)CN(C)C1=O	
InChI=1S/C6H9NO2/c1-4-5(8)3-7(2)6(4)9/h4H,3H2,1-2H3	InChI=1S/C6H9NO2/c1-4-5(8)3-7(2)6(4)9/h4H,3H2,1-2H3/t4-/m0/s1
