20
gdb 71251	2.22545	2.08815	1.63743	1.8648	77.78	-0.2208	0.0707	0.2915	946.2751	0.17191	-403.103312	-403.095497	-403.094553	-403.134927	32.009	
C	-0.0015751007	 1.5323729197	-0.0068601727	-0.501295
C	 0.0212795548	 0.0288179966	-0.0322278684	 0.324172
C	 0.1432353964	-0.8018854558	-1.3129102675	-0.287958
C	-0.4380262101	-1.8978837831	-0.3981329115	 0.006398
C	 0.7429352968	-2.1732284897	 0.5546213035	-0.296824
C	 0.6746386262	-0.7619398304	 1.1795094368	 0.353209
O	 1.7854791605	-0.2216324111	 1.8234557368	-0.495447
C	-0.7548610529	-0.8052108608	 1.7660326543	-0.238179
N	-1.2312067983	-0.786840478	 0.3428754856	-0.180986
H	 0.9901521815	 1.9234461834	-0.2583075107	 0.12819
H	-0.7220537725	 1.9192971059	-0.7338083939	 0.12185
H	-0.2651034868	 1.9222919667	 0.9806315445	 0.12423
H	-0.5723141062	-0.4539366533	-2.061536337	 0.107983
H	 1.1241483139	-0.9706234242	-1.7640623533	 0.094441
H	-1.0210349043	-2.7360012509	-0.7778174617	 0.07275
H	 0.5699152884	-2.9678501719	 1.2871283005	 0.088536
H	 1.6762993135	-2.3759016048	 0.0226482786	 0.099403
H	 2.1389308579	-0.8741803531	 2.4372476272	 0.281193
H	-1.0570868781	-1.6697534778	 2.3667679026	 0.088752
H	-1.0676266699	 0.1176418428	 2.2596247963	 0.109582
174.1401	176.9969	216.6635	238.7687	325.8453	381.4083	451.85	479.4624	501.5177	589.1311	637.4846	675.8914	725.8146	794.6081	840.9156	867.6374	891.5476	910.9821	947.2336	970.0889	984.8242	1013.6739	1027.4546	1088.1941	1103.1486	1136.043	1142.3116	1158.5172	1193.8265	1212.691	1242.4253	1247.8815	1254.9413	1286.1604	1296.0714	1339.0283	1368.8178	1412.9903	1481.2098	1483.526	1487.6328	1501.4228	1523.4324	3036.6038	3043.1634	3050.7416	3062.6564	3099.5117	3104.0893	3110.3917	3116.1861	3120.4761	3124.8214	3807.0439
CC12CC3CC1(O)CN23	C[C@@]12C[C@H]3C[C@]1(O)CN23	
InChI=1S/C7H11NO/c1-6-2-5-3-7(6,9)4-8(5)6/h5,9H,2-4H2,1H3	InChI=1S/C7H11NO/c1-6-2-5-3-7(6,9)4-8(5)6/h5,9H,2-4H2,1H3/t5-,6+,7-/m0/s1
