12
gdb 133336	2.38093	1.88647	1.05363	2.0404	63.08	-0.2284	-0.0715	0.1569	999.6045	0.076852	-513.894877	-513.887557	-513.886613	-513.926659	27.404	
N	 0.0213552008	 1.4118748569	 0.1564558813	-0.595329
C	-0.0188576384	 0.0375035556	 0.055558367	-0.03779
C	-1.142508142	-0.7178364155	 0.0259151069	 0.368271
F	-2.3531694848	-0.1969595536	 0.0259888424	-0.038216
O	-1.2072504854	-2.0496357661	-0.0156023608	-0.234134
N	-0.0448881627	-2.806100394	-0.0308915864	-0.05735
C	 1.0634237402	-2.1446947354	-0.0136656714	-0.050944
C	 1.2385626068	-0.6882033627	 0.0174595174	 0.336019
O	 2.329813946	-0.1304932576	 0.0017715299	-0.386048
H	 0.9358119855	 1.7713083565	-0.0879526187	 0.27305
H	-0.7503771519	 1.921861579	-0.244856708	 0.261396
H	 1.9528993159	-2.7674315432	-0.0340273797	 0.161075
124.8312	191.4402	255.2859	296.7683	344.4891	360.511	485.0229	519.2039	524.2179	573.9729	585.6064	623.2913	684.766	757.7177	882.9445	945.1718	946.7216	1002.2394	1223.0107	1257.627	1290.4082	1323.3829	1446.6676	1609.85	1614.0612	1708.9868	1744.8439	3192.911	3547.521	3670.7639
NC1=C(F)ON=CC1=O	Nc1c(F)oncc1=O	
InChI=1S/C4H3FN2O2/c5-4-3(6)2(8)1-7-9-4/h1H,6H2	InChI=1S/C4H3FN2O2/c5-4-3(6)2(8)1-7-9-4/h1H,6H2
