16
gdb 64915	2.2878	1.46054	1.07729	3.1156	72.25	-0.2688	-0.0542	0.2146	1128.1311	0.121556	-437.899571	-437.890416	-437.889472	-437.933309	33.348	
C	-0.0849699873	 1.504687155	 0.2103304272	-0.456323
C	-0.0103692752	 0.005854032	-0.0300305506	 0.07128
C	 1.2994831698	-0.6250101255	-0.4609128839	-0.367784
C	 0.8625350944	-0.8289421288	 0.9625314046	 0.320327
O	 1.5287493656	-0.1427659112	 1.9526391805	-0.456102
C	 0.3488111742	-2.1515192581	 1.4090600755	 0.096527
O	 0.4934926245	-2.5046067593	 2.5570988396	-0.280413
C	-1.2192051562	-0.5951314176	-0.5353458237	 0.245298
N	-2.1910285252	-1.0708139013	-0.9467193362	-0.344174
H	 0.8290588311	 1.851529371	 0.693471235	 0.153319
H	-0.2156812995	 2.0348992636	-0.7372891968	 0.141492
H	-0.9291399671	 1.7489534941	 0.8603356102	 0.145517
H	 1.2646142022	-1.4674313575	-1.1428206076	 0.147131
H	 2.1394000747	 0.047785698	-0.593182639	 0.152154
H	 1.3733371282	-0.6595339273	 2.7616198484	 0.304096
H	-0.169505494	-2.772157797	 0.6562848668	 0.127656
97.4456	119.2932	162.377	169.8161	237.8073	269.4464	307.7948	362.0482	387.1864	435.9303	485.7207	537.9063	577.2737	621.3908	688.6705	803.6763	851.3403	908.9432	935.1612	988.5636	1036.0297	1076.2261	1099.2133	1115.9118	1256.4346	1272.5848	1346.7485	1389.7247	1415.7511	1449.2004	1478.4452	1487.3631	1498.0197	1791.972	2342.6107	2983.0648	3053.8887	3121.8337	3138.3369	3153.2341	3235.082	3667.483
CC1(CC1(O)C=O)C#N	C[C@]1(C[C@]1(O)C=O)C#N	
InChI=1S/C6H7NO2/c1-5(3-7)2-6(5,9)4-8/h4,9H,2H2,1H3	InChI=1S/C6H7NO2/c1-5(3-7)2-6(5,9)4-8/h4,9H,2H2,1H3/t5-,6-/m0/s1
