20
gdb 53189	3.34643	0.96908	0.89318	1.939	89.61	-0.2175	0.0401	0.2577	1429.1889	0.169495	-365.952422	-365.942763	-365.941819	-365.987897	35.01	
C	 0.0352316172	 1.5309065002	 0.0068939596	-0.500717
C	-0.0315892499	 0.0769844214	-0.0174977491	 0.074815
C	-0.0813834995	-1.1275711992	-0.0433249221	 0.112346
C	-0.116345119	-2.5617185549	-0.088585933	-0.268346
N	-0.3936314575	-3.4201772785	 1.1094894456	-0.189411
C	-1.4142471274	-2.67538717	 1.9314001875	-0.148423
C	-2.4446499559	-2.6788947013	 0.7747311684	-0.31048
C	-1.3645053741	-3.3762488182	-0.0560213254	 0.348553
C	-1.5998149424	-4.5370754096	-0.9765105823	-0.490565
H	 0.9686179064	 1.8812393847	 0.4614811382	 0.150586
H	-0.0171786732	 1.9468586985	-1.0054965781	 0.150232
H	-0.7942645489	 1.9569482585	 0.5819067039	 0.149355
H	 0.6872021481	-3.0066768914	-0.6717688065	 0.108855
H	-1.7029577577	-3.2909265199	 2.7851654524	 0.107729
H	-1.0670625639	-1.7013891489	 2.2850285203	 0.115148
H	-3.3050164204	-3.3224007144	 0.9706355029	 0.105128
H	-2.7955443318	-1.7135376638	 0.401125238	 0.109428
H	-2.1018250345	-4.2086493486	-1.8942074012	 0.124299
H	-0.6551526134	-5.0123699404	-1.2562069281	 0.129221
H	-2.2319547723	-5.2937128942	-0.4989495011	 0.122248
29.6542	90.3569	91.9842	183.5812	225.531	253.3091	274.1772	320.2055	382.5811	405.1505	503.0568	536.5945	618.3924	759.6272	772.5951	781.4082	825.4313	899.6944	947.5943	970.3388	989.1044	1036.8727	1051.801	1053.4596	1096.2476	1112.1193	1171.8629	1196.647	1223.9157	1235.3789	1278.3772	1304.9383	1326.1317	1406.8204	1414.4468	1434.9823	1476.1288	1476.6773	1478.7483	1484.0795	1491.6391	1503.4817	2360.2531	3026.2087	3027.2453	3061.1463	3068.6664	3086.2608	3088.4543	3089.3568	3109.3486	3110.6734	3127.8795	3129.144
CC#CC1N2CCC12C	CC#C[C@H]1N2CC[C@@]12C	
InChI=1S/C8H11N/c1-3-4-7-8(2)5-6-9(7)8/h7H,5-6H2,1-2H3	InChI=1S/C8H11N/c1-3-4-7-8(2)5-6-9(7)8/h7H,5-6H2,1-2H3/t7-,8+,9?/m1/s1
