20
gdb 87177	2.90149	1.0527	0.969	4.1783	75.47	-0.2384	0.0279	0.2663	1311.4009	0.168625	-440.30776	-440.297339	-440.296395	-440.343753	37.803	
C	-0.0237541224	 1.6646202966	-0.7148194719	-0.476668
C	-0.0061879627	 0.2272482209	-0.2320239924	 0.345202
C	-1.2948905836	-0.5399601304	-0.4387899286	-0.411304
C	-2.4328108692	-0.0079381163	 0.4431700697	 0.422391
N	-3.6836363828	-0.371764988	 0.0386216684	-0.522585
O	-2.2456990175	 0.6665821921	 1.4392894627	-0.365712
C	 1.3160810512	-0.5240998676	-0.3065041661	-0.381195
C	 0.7686757169	-0.1003798732	 1.0228882557	 0.113606
O	 1.4476381455	 0.9042621885	 1.713001283	-0.427705
H	 0.9000866658	 2.1764469412	-0.4374947818	 0.129705
H	-0.1274331544	 1.7119966594	-1.8053747491	 0.104717
H	-0.8584283012	 2.2144165446	-0.2682259204	 0.128666
H	-1.603180125	-0.5244166214	-1.4929729259	 0.103651
H	-1.1557499605	-1.5977845087	-0.1797310211	 0.123006
H	-3.8443678504	-0.9306896873	-0.7803591949	 0.258705
H	-4.470444434	-0.0963277343	 0.6029768915	 0.260542
H	 1.322155888	-1.5807148596	-0.5543468993	 0.102043
H	 2.1687083906	 0.032149606	-0.680499671	 0.11888
H	 0.3505817902	-0.8809975567	 1.6585394593	 0.079972
H	 0.7780839756	 1.4104256843	 2.1886494621	 0.294083
40.3775	76.8053	102.145	130.4433	191.825	233.5344	260.9599	309.4478	343.3816	407.902	426.7879	464.4659	511.0162	539.8769	612.7142	659.0997	753.9434	808.8065	845.5941	899.9863	935.3985	954.3485	973.8973	1044.3435	1047.455	1082.9892	1116.01	1122.1752	1179.2254	1214.5116	1267.9224	1297.7557	1318.1065	1358.4673	1387.197	1410.1638	1439.1805	1459.0368	1487.9849	1498.0324	1514.4569	1615.3915	1786.9868	3013.1703	3029.7512	3050.6644	3092.344	3095.7028	3126.9121	3129.8292	3216.9538	3603.9346	3741.449	3787.0356
CC1(CC(N)=O)CC1O	C[C@@]1(CC(=O)N)C[C@H]1O	
InChI=1S/C6H11NO2/c1-6(2-4(6)8)3-5(7)9/h4,8H,2-3H2,1H3,(H2,7,9)	InChI=1S/C6H11NO2/c1-6(2-4(6)8)3-5(7)9/h4,8H,2-3H2,1H3,(H2,7,9)/t4-,6+/m1/s1
