13
gdb 130111	3.64425	1.73399	1.17848	5.9923	64.75	-0.2178	-0.0097	0.2081	943.2115	0.092396	-448.928413	-448.92185	-448.920906	-448.959264	25.335	
N	 0.0155505649	 1.408968374	 0.1473023068	-0.599787
C	 0.0251241309	 0.0234158921	 0.0223063733	 0.365184
N	-1.0133571744	-0.7795353536	-0.0019970552	-0.28258
N	-0.5749003716	-2.1116522187	-0.0233172914	-0.355106
C	 0.715590141	-2.014624627	-0.0301303209	 0.502742
O	 1.760197361	-2.8760816341	-0.0561368971	-0.221155
C	 2.8898663935	-2.0792802644	-0.0167365006	-0.035142
C	 2.5767581906	-0.7702282659	 0.0247142192	-0.141815
N	 1.179477885	-0.7247044827	 0.0085572799	-0.090289
H	 0.4392836533	 1.8826607326	-0.6445434989	 0.25354
H	-0.9440413664	 1.7226281335	 0.2427518466	 0.268526
H	 3.8327786004	-2.5975729298	-0.0225770168	 0.166408
H	 3.2057761817	 0.100672074	 0.072197405	 0.169474
184.7871	217.9689	237.6037	283.4266	408.8815	565.4152	576.3035	654.6799	657.7962	716.6387	720.3579	744.5148	797.2763	806.8309	846.8019	931.8126	1035.5337	1048.097	1106.0391	1157.639	1182.8669	1250.7604	1326.58	1435.2652	1465.0514	1568.8403	1610.106	1649.5751	1658.8356	3292.6704	3313.7751	3504.1862	3600.1586
NC1=NN=C2OC=CN12	Nc1nnc2occn12	
InChI=1S/C4H4N4O/c5-3-6-7-4-8(3)1-2-9-4/h1-2H,(H2,5,6)	InChI=1S/C4H4N4O/c5-3-6-7-4-8(3)1-2-9-4/h1-2H,(H2,5,6)
