21
gdb 37126	3.53367	1.53469	1.43852	0.4553	84.24	-0.1893	0.085	0.2743	1012.0983	0.185216	-349.891048	-349.884021	-349.883077	-349.92181	30.538	
C	-0.00521921	 1.5021181864	-0.1174872759	-0.299932
C	 1.3089865028	 0.7898668363	 0.0347499306	-0.119145
C	-0.0045137714	 0.0081537376	 0.0427874177	-0.11915
C	 0.4481164651	-0.7644245434	-1.2314371385	 0.272545
C	 0.8146477427	 0.1009207624	-2.4090470084	-0.413566
C	 1.7606761556	 0.0167553994	-1.2394820863	 0.27254
C	 2.9026875597	-0.9789573351	-1.2634288284	-0.285616
C	 2.2504083466	-2.3047125295	-1.7523098161	-0.218751
C	 0.7785375794	-2.243164088	-1.2504011049	-0.285617
H	-0.31816001	 2.0371469894	 0.7750014181	 0.110573
H	-0.3062039675	 1.9984358248	-1.0336775658	 0.109104
H	 1.9862771084	 1.011925199	 0.8506521347	 0.082526
H	-0.5152907695	-0.4768513401	 0.8659554471	 0.082526
H	 1.1230930764	-0.4265934346	-3.3060387111	 0.111521
H	 0.2714972164	 1.0112594377	-2.6306282604	 0.112673
H	 3.756678144	-0.6851639626	-1.8843049848	 0.095511
H	 3.2809438283	-1.1059194834	-0.241352721	 0.098259
H	 2.2748646052	-2.3570709345	-2.8458340943	 0.104255
H	 2.7798360256	-3.1905291952	-1.3895859806	 0.095974
H	 0.7190186321	-2.6306707255	-0.2256410557	 0.09826
H	 0.1074791903	-2.8570174911	-1.8619285157	 0.095512
209.9565	214.6988	292.8296	293.3561	456.8628	463.4758	514.6121	587.6331	594.2672	715.3336	715.8621	755.8608	818.0631	835.3235	860.4389	894.6743	903.4359	920.428	950.251	950.2928	956.8104	996.8056	1021.3679	1039.3527	1046.0655	1057.0857	1067.7688	1091.5962	1173.9531	1182.8272	1201.7186	1220.6083	1229.0583	1254.2662	1292.9939	1302.7492	1329.5836	1346.1854	1346.7172	1375.5488	1470.5462	1489.1742	1492.335	1504.1809	1518.4566	3025.0726	3027.0503	3045.2679	3061.5927	3064.6129	3093.7846	3121.7505	3139.3025	3172.4775	3181.1931	3198.4086	3214.6787
C1C2C1C13CC21CCC3	C1[C@H]2[C@@H]1[C@@]13C[C@@]21CCC3	
InChI=1S/C9H12/c1-2-8-5-9(8,3-1)7-4-6(7)8/h6-7H,1-5H2	InChI=1S/C9H12/c1-2-8-5-9(8,3-1)7-4-6(7)8/h6-7H,1-5H2/t6-,7+,8-,9+
