17
gdb 125946	2.8892	1.61532	1.09209	4.2366	74.81	-0.2466	-0.0358	0.2108	1083.3121	0.136739	-417.999179	-417.991368	-417.990424	-418.031566	29.294	
C	-0.0219168678	 1.6014507654	-0.0174444262	-0.395176
C	 0.0133512322	 0.0724240509	 0.0579756715	-0.11597
C	 0.7327443773	-0.5983453464	-1.1730423412	-0.215985
C	 1.5689198235	-1.825087953	-0.665637827	-0.357063
C	 1.6579361262	-1.5128697292	 0.7918338073	 0.371257
C	 0.8289092952	-0.5062061138	 1.1736927999	 0.237902
N	 0.976304017	-0.3638270551	 2.5243681802	-0.190045
N	 1.8044842488	-1.1635270848	 2.9927531259	-0.043724
O	 2.3160464204	-2.0087844151	 1.8032678342	-0.258773
H	 0.9913477301	 2.0123705356	-0.0758889363	 0.120857
H	-0.5777531918	 1.9337616998	-0.9001426764	 0.116875
H	-0.5069263918	 2.0255662603	 0.8666381817	 0.132701
H	-1.0207677156	-0.2934398324	 0.120432946	 0.094361
H	 0.0235116773	-0.8840486788	-1.9529971934	 0.11243
H	 1.4167184643	 0.1351984981	-1.6113977611	 0.118412
H	 1.0483305693	-2.7772738915	-0.8239666247	 0.136594
H	 2.5421537653	-1.9066491199	-1.1575176903	 0.135346
93.6791	161.6061	222.9171	230.8828	248.9079	291.1603	433.4125	492.0312	558.9006	643.0602	658.9368	712.5026	734.8005	817.1526	894.895	944.7489	967.5974	978.3127	1037.0608	1103.1535	1103.8653	1154.0548	1186.4446	1225.7962	1283.6422	1295.5239	1322.8601	1343.7425	1385.5606	1411.1991	1465.0317	1475.9945	1484.8518	1495.1699	1498.612	1503.6252	1602.6312	3004.1949	3034.7819	3039.8994	3057.7238	3089.2273	3105.709	3111.0276	3114.6071
CC1CCC2=C1N=NO2	C[C@H]1CCc2c1nno2	
InChI=1S/C6H8N2O/c1-4-2-3-5-6(4)7-8-9-5/h4H,2-3H2,1H3	InChI=1S/C6H8N2O/c1-4-2-3-5-6(4)7-8-9-5/h4H,2-3H2,1H3/t4-/m0/s1
