22
gdb 100646	2.41799	1.08459	0.95688	3.4368	82.35	-0.2942	0.0202	0.3143	1377.811	0.191086	-404.372373	-404.361277	-404.360333	-404.408183	40.585	
C	-0.0032732656	 1.5892664566	 0.2124397903	-0.397172
C	-0.0068396022	 0.0775568955	-0.0410604893	-0.191909
C	-1.4213824299	-0.5270754115	-0.137793791	 0.01686
C	-2.1484493842	-0.120467114	-1.4271926281	-0.425462
C	-1.3883160695	-2.0756130991	 0.0742936351	 0.192398
C	-0.5715422292	-2.8366287464	-0.9768644793	-0.406395
O	-0.7966234922	-2.4045059679	 1.3284199298	-0.442313
C	-2.7840463234	-2.5866136674	 0.0719955591	 0.258905
N	-3.8743042276	-2.9695543046	 0.1052846851	-0.347409
H	 1.021109367	 1.9620518388	 0.3067536536	 0.118573
H	-0.4801914733	 2.1448575167	-0.6006922168	 0.121089
H	-0.5323863774	 1.8370855434	 1.1395164563	 0.115204
H	 0.5433657933	-0.1337684208	-0.9663630997	 0.099675
H	 0.5334539034	-0.4253253634	 0.766812796	 0.114206
H	-2.0076382411	-0.1386958071	 0.7094619687	 0.074195
H	-1.5830214456	-0.4202841039	-2.3159349541	 0.121318
H	-3.1439067788	-0.5685554114	-1.488841128	 0.144242
H	-2.2733256688	 0.964463929	-1.4692301979	 0.125437
H	 0.4654192799	-2.4970685115	-0.9469265304	 0.137534
H	-0.5929270863	-3.9047484629	-0.7521823641	 0.14534
H	-0.9737823951	-2.6803530458	-1.979348029	 0.136215
H	-1.3099839835	-1.9812663323	 2.0266062736	 0.289468
71.3781	75.5924	138.2524	181.9971	208.8465	229.0967	234.5058	248.4353	287.1112	315.9586	338.0106	361.977	421.0206	444.6455	475.0233	587.3947	618.0229	716.8405	784.6898	848.9979	905.9566	943.4718	975.7279	990.348	1022.9836	1044.7475	1123.2109	1143.2267	1151.5034	1192.2916	1207.9842	1297.3085	1306.655	1351.2446	1370.9194	1391.7455	1411.784	1419.4079	1423.2919	1481.2836	1488.13	1496.4618	1497.3077	1505.1059	1510.2251	1511.9501	2347.0419	2984.3247	3031.0457	3035.2718	3043.6198	3065.561	3079.1865	3102.1568	3108.8446	3112.6717	3122.7303	3145.1556	3149.8086	3797.4033
CCC(C)C(C)(O)C#N	CC[C@@H](C)[C@@](C)(O)C#N	
InChI=1S/C7H13NO/c1-4-6(2)7(3,9)5-8/h6,9H,4H2,1-3H3	InChI=1S/C7H13NO/c1-4-6(2)7(3,9)5-8/h6,9H,4H2,1-3H3/t6-,7+/m1/s1
