18
gdb 86014	2.87162	1.14812	1.08776	4.166	77.56	-0.2697	-0.015	0.2547	1197.3901	0.147439	-401.973498	-401.964666	-401.963722	-402.007102	33.289	
C	 0.0141265638	 1.5047905506	-0.0342857624	-0.428965
C	 0.0101457512	-0.0374180502	-0.0062305099	 0.080406
C	 0.7763451867	-0.6800862793	-1.2067001581	-0.286434
C	 1.5607321968	-1.8878276653	-0.6308064638	 0.104348
O	 2.8400603048	-2.0747167262	-1.213059505	-0.427341
C	 1.5823177419	-1.5994908463	 0.8529775731	-0.12473
C	 0.7578485401	-0.6144165191	 1.1941259421	-0.088748
C	-1.3862727931	-0.507446768	 0.02505265	 0.26104
N	-2.4841705092	-0.8692936564	 0.0558263408	-0.343877
H	 1.0460359736	 1.8668099571	-0.0167433313	 0.123226
H	-0.473603952	 1.8788896483	-0.9387269837	 0.138759
H	-0.5136156703	 1.9151945439	 0.8311385066	 0.136749
H	 0.1182976899	-0.9472665027	-2.0348014206	 0.128771
H	 1.5020466726	 0.0494657424	-1.5819644267	 0.104
H	 1.0359312957	-2.8301498527	-0.8289454056	 0.114683
H	 3.3797308632	-1.3082010171	-0.9881038828	 0.276592
H	 2.1998711345	-2.1745668619	 1.5338310153	 0.11468
H	 0.5685733998	-0.248741417	 2.1969665621	 0.11684
53.6022	142.8381	178.7402	231.9371	249.7096	298.9764	337.7839	388.2123	401.4317	485.669	529.8065	588.4946	632.0747	679.9316	792.1712	809.5953	868.2806	897.5494	940.1235	970.3925	990.7673	1034.1577	1073.4705	1114.9591	1124.8085	1160.7446	1197.2162	1243.7434	1269.8718	1292.8214	1327.731	1364.3853	1410.0997	1430.6327	1481.4974	1490.2486	1495.9623	1685.1656	2346.7501	3040.6906	3042.4117	3054.879	3120.8502	3122.2582	3126.0425	3190.3189	3214.6437	3793.6624
CC1(CC(O)C=C1)C#N	C[C@]1(C[C@@H](O)C=C1)C#N	
InChI=1S/C7H9NO/c1-7(5-8)3-2-6(9)4-7/h2-3,6,9H,4H2,1H3	InChI=1S/C7H9NO/c1-7(5-8)3-2-6(9)4-7/h2-3,6,9H,4H2,1H3/t6-,7-/m0/s1
