18
gdb 51728	3.13812	1.05988	0.87942	3.024	75.51	-0.2384	0.0177	0.2561	1333.8801	0.146195	-439.038251	-439.029461	-439.028516	-439.07331	31.708	
N	 0.0304498154	 1.2133732709	-0.1670146956	-0.439333
C	 0.0256801307	-0.0415253579	-0.0510438653	 0.123635
O	-1.1464552335	-0.7113136094	-0.0278275141	-0.183492
C	-1.1159593411	-2.1098088097	 0.1631668545	-0.02526
C	-1.8862323316	-2.6483095967	 1.3874991878	-0.103691
O	-2.6862323884	-3.5061079443	 0.5417506432	-0.30533
C	-2.147935111	-2.8966791522	-0.6338981439	 0.439596
C	-2.9962489515	-2.4141079894	-1.7606352827	-0.321328
C	-2.0555108428	-3.5985640204	-1.9440859596	-0.343718
H	 0.9877520193	 1.558489873	-0.1787599047	 0.232065
H	 0.9037412687	-0.6973418386	 0.0331927207	 0.088686
H	-0.0919084455	-2.4882201063	 0.0726367678	 0.095687
H	-1.315020754	-3.2177073175	 2.1273134561	 0.110513
H	-2.4847315928	-1.8750449793	 1.8824129058	 0.122544
H	-4.057936246	-2.6260558531	-1.697748714	 0.129537
H	-2.7405825562	-1.4636790184	-2.2161665668	 0.134055
H	-1.1591596755	-3.4689895822	-2.5427871275	 0.116329
H	-2.5010798442	-4.5858830385	-2.0011854818	 0.129504
27.6017	77.3717	113.0393	163.3946	228.5506	288.1088	385.926	397.8182	470.6349	563.8326	631.4143	757.1609	818.736	834.6938	868.0373	880.1233	917.2631	978.7266	1000.4665	1006.4512	1042.1806	1047.9123	1050.9041	1068.5831	1107.9683	1154.4585	1175.1237	1187.4782	1219.761	1243.6929	1289.332	1337.0034	1369.5214	1406.7651	1435.489	1448.6331	1493.1811	1519.307	1747.7617	3017.1105	3032.9026	3046.1641	3091.4145	3127.1263	3136.9407	3213.3649	3231.1289	3521.8338
N=COC1COC11CC1	[NH][CH]O[C@H]1COC21CC2	
InChI=1S/C6H9NO2/c7-4-8-5-3-9-6(5)1-2-6/h4-5,7H,1-3H2	InChI=1S/C6H9NO2/c7-4-8-5-3-9-6(5)1-2-6/h4-5,7H,1-3H2/t5-/m0/s1
