15
gdb 54067	2.24002	1.15306	0.89602	1.9718	69.26	-0.2803	-0.0579	0.2225	1303.4086	0.108896	-453.956817	-453.946863	-453.945919	-453.993911	32.679	
C	 0.8408210143	 0.160282657	-0.5270380099	-0.482054
C	-0.4345271071	 0.4505431205	 0.2173941913	 0.371435
O	-0.7096387694	 1.494667782	 0.7440660403	-0.272646
C	-1.4623749547	-0.7227557658	 0.3190531768	-0.121747
O	-1.3990982668	-1.4800199611	-0.8780995424	-0.190814
C	-2.3740057075	-2.413966466	-1.0710911521	 0.136724
N	-2.3759105672	-3.0732685769	-2.1400606686	-0.422233
C	-1.1431811379	-1.5411214499	 1.5010191267	 0.274886
N	-0.8764191263	-2.1862899392	 2.4219512698	-0.301472
H	 1.5002564879	 1.0257682792	-0.4653366615	 0.153142
H	 1.3308746431	-0.7235117839	-0.1039252973	 0.163874
H	 0.6160583328	-0.077843663	-1.5707583818	 0.176534
H	-2.4475174018	-0.2636056585	 0.4591326866	 0.155624
H	-3.0799767527	-2.4916354632	-0.2356600803	 0.114291
H	-3.1532539169	-3.730156231	-2.1522794575	 0.244456
30.5565	49.0679	76.2795	125.3106	136.3207	148.177	235.6411	316.9217	391.1007	422.0029	522.2437	533.5605	603.9796	699.2051	812.8702	821.106	933.0609	972.1941	1029.0579	1037.9898	1056.5355	1128.1062	1207.1281	1254.6687	1276.5307	1334.9345	1385.6272	1422.5323	1456.3923	1464.5396	1755.1834	1842.1718	2352.9693	3049.0175	3050.119	3059.0981	3115.0695	3166.2417	3526.3179
CC(=O)C(OC=N)C#N	CC(=O)[C@@H](O[CH][NH])C#N	
InChI=1S/C5H6N2O2/c1-4(8)5(2-6)9-3-7/h3,5,7H,1H3	InChI=1S/C5H6N2O2/c1-4(8)5(2-6)9-3-7/h3,5,7H,1H3/t5-/m0/s1
