22
gdb 79343	2.98966	1.53892	1.41504	1.4577	84.71	-0.2307	0.0913	0.3221	1063.6849	0.196754	-367.227189	-367.219325	-367.218381	-367.258877	32.449	
C	-0.1694066578	 1.5022945727	 0.0550292596	-0.416017
C	 0.0449804686	-0.003288588	-0.0231384366	 0.084034
C	 0.9973707979	-0.548530146	-1.1163425457	-0.063097
C	 2.3696771758	-0.0763737292	-0.5887070278	-0.243648
C	 2.1760655091	-0.5854951579	 0.834310591	-0.08144
N	 0.7278511343	-0.5341180333	 1.1884826872	-0.165627
C	 1.3411949959	-1.8217991721	 0.7659707736	 0.354638
C	 1.3914590516	-2.9537240895	 1.7520679628	-0.495487
C	 1.0160806779	-2.0380696601	-0.7144501561	-0.284397
H	 0.7701016276	 2.047693828	 0.1777035764	 0.118782
H	-0.6627876492	 1.8694771406	-0.8511025124	 0.109374
H	-0.8039007105	 1.7446940306	 0.9124416912	 0.125821
H	-0.9334033186	-0.4939690314	-0.0981981975	 0.069205
H	 0.7557919287	-0.3155761367	-2.1527405858	 0.06262
H	 3.2049827009	-0.5705978555	-1.0957696108	 0.097449
H	 2.5225817813	 1.0038375666	-0.6531430174	 0.100497
H	 2.8819928138	-0.3907019991	 1.6332096076	 0.082324
H	 1.611563168	-2.5831198214	 2.7566489486	 0.127106
H	 0.4328300309	-3.4835128518	 1.7922168239	 0.117031
H	 2.1641700778	-3.680143119	 1.4755686799	 0.113195
H	 0.0519640257	-2.5354239929	-0.8670235008	 0.094301
H	 1.7898796802	-2.6169639646	-1.230103201	 0.093334
172.7819	192.2527	222.9494	235.8993	290.0878	338.9608	440.5136	468.6359	528.5657	593.1681	680.9216	706.5234	775.2898	819.4483	860.9499	883.8099	905.8271	927.785	931.3697	961.6035	985.9597	998.1284	1019.0844	1052.4338	1070.6804	1083.3908	1119.4728	1137.3079	1154.8935	1171.3409	1212.4425	1244.7353	1257.5441	1259.7605	1297.4895	1314.197	1322.396	1386.9082	1407.4992	1410.9929	1431.7265	1484.3608	1487.4981	1491.5422	1493.8438	1501.0146	1517.4843	3025.7599	3027.5553	3040.4597	3041.8257	3054.5555	3082.9006	3086.9429	3099.5633	3109.0891	3115.0336	3122.9518	3126.1502	3180.746
CC1C2CC3N1C3(C)C2	C[C@H]1[C@H]2C[C@H]3N1[C@@]3(C)C2	
InChI=1S/C8H13N/c1-5-6-3-7-8(2,4-6)9(5)7/h5-7H,3-4H2,1-2H3	InChI=1S/C8H13N/c1-5-6-3-7-8(2,4-6)9(5)7/h5-7H,3-4H2,1-2H3/t5-,6-,7+,8-,9?/m0/s1
