14
gdb 43756	4.69355	1.00605	0.95164	1.44	65.71	-0.2925	-0.0146	0.2779	1188.4509	0.100459	-436.695122	-436.687449	-436.686505	-436.728024	27.991	
O	 1.0878292946	 0.3710073059	-0.4945960247	-0.309874
C	 0.5294779416	 1.3701026232	-0.1904028709	 0.464533
O	-0.8468695536	 1.6228433978	-0.257755489	-0.302399
C	-0.61190163	 3.0120744234	 0.1045641861	 0.463063
C	-1.3902883125	 4.0252883273	-0.688245048	-0.451053
C	-0.9788112985	 5.3925209273	-0.3798359884	 0.267687
N	-0.6353282506	 6.4635865007	-0.1180140103	-0.297902
C	-0.075471214	 3.06732728	 1.4834618195	-0.331938
C	 0.861848691	 2.7539097664	 0.2979269801	-0.310725
H	-1.2557426459	 3.8352855888	-1.7589406746	 0.176715
H	-2.4607672459	 3.9162428316	-0.4748416691	 0.177835
H	 0.0816955023	 4.0560760352	 1.9037492522	 0.160154
H	-0.3375537204	 2.2892318387	 2.1924968646	 0.146482
H	 1.739420142	 3.3407070238	 0.0706666226	 0.147421
56.1591	115.6821	153.5014	295.6251	338.5585	388.969	431.5369	473.6114	522.8881	678.4446	695.8229	761.0092	818.6812	894.0329	916.5857	947.5274	969.3404	988.7306	1010.6192	1044.3813	1079.5077	1105.1006	1173.9307	1221.9173	1252.9874	1350.3323	1406.8945	1465.6308	1494.6876	1956.7493	2371.0731	3041.0155	3081.5483	3130.7	3225.7153	3237.0124
O=C1OC2(CC#N)CC12	O=C1O[C@@]2(CC#N)C[C@@H]12	
InChI=1S/C6H5NO2/c7-2-1-6-3-4(6)5(8)9-6/h4H,1,3H2	InChI=1S/C6H5NO2/c7-2-1-6-3-4(6)5(8)9-6/h4H,1,3H2/t4-,6-/m0/s1
