22
gdb 58813	3.38493	1.14521	1.00332	1.6088	81.76	-0.2329	0.0776	0.3105	1291.6169	0.193461	-404.31064	-404.301194	-404.30025	-404.344603	36.528	
C	 0.5666199893	 0.7890438618	-0.8891680099	-0.419714
C	 0.0170230085	 0.0389685967	 0.3241185313	 0.032437
O	-0.130076437	 0.9152019355	 1.4420984805	-0.434961
C	-1.2978753939	-0.6635056328	 0.0764774156	 0.33538
C	-1.958152667	-0.8737339455	-1.2243331728	-0.298662
N	-2.5296119072	 0.1496478978	-0.3229420648	-0.195635
C	-3.3033824883	-0.5810889562	 0.7574411378	 0.087526
C	-4.5870031899	-1.2730247689	 0.335359469	-0.404197
C	-2.057380708	-1.4102091075	 1.1774046366	-0.337604
H	 1.4551675783	 1.3516839019	-0.5927420062	 0.123882
H	 0.8422939446	 0.1040158739	-1.6969133568	 0.11414
H	-0.177234842	 1.4959668896	-1.2735861717	 0.129084
H	 0.7518171416	-0.7076924237	 0.6522962372	 0.08892
H	-0.8492336318	 1.5169594754	 1.2111167097	 0.285773
H	-1.5113296458	-0.4354739688	-2.110011409	 0.120249
H	-2.4999098765	-1.797620969	-1.4117725951	 0.107766
H	-3.5376288829	 0.1664152305	 1.52085885	 0.083842
H	-4.4166818971	-2.0582362947	-0.4072759857	 0.116039
H	-5.0644862103	-1.7400031372	 1.2036003069	 0.120218
H	-5.2900218957	-0.5496007052	-0.0905241482	 0.126799
H	-2.1149220159	-2.4970265682	 1.0619072034	 0.095713
H	-1.7004312933	-1.1707559755	 2.1792588923	 0.123008
62.9281	116.7722	175.4609	209.376	239.3165	277.9617	304.0895	373.6258	396.6319	426.9539	479.6738	511.9588	557.2165	631.1528	695.8561	798.1816	815.9842	849.8651	877.4022	917.2375	951.9245	967.0832	1026.9204	1060.8979	1090.1037	1101.4926	1108.3302	1120.07	1131.493	1142.2893	1204.0799	1222.0776	1270.747	1286.165	1306.4751	1361.9638	1372.4866	1393.3457	1400.9334	1410.1253	1423.2898	1481.3511	1489.469	1493.3531	1495.4256	1500.7325	1513.5627	3029.2316	3034.4948	3034.9804	3053.2891	3056.4	3101.6898	3105.7382	3107.7838	3116.246	3123.9379	3133.1594	3204.33	3774.6168
CC(O)C12CN1C(C)C2	C[C@@H](O)[C@]12CN1[C@@H](C)C2	
InChI=1S/C7H13NO/c1-5-3-7(6(2)9)4-8(5)7/h5-6,9H,3-4H2,1-2H3	InChI=1S/C7H13NO/c1-5-3-7(6(2)9)4-8(5)7/h5-6,9H,3-4H2,1-2H3/t5-,6+,7-,8?/m0/s1
