16
gdb 25959	4.94587	0.94416	0.80152	4.1816	70.67	-0.2374	-0.0244	0.213	1371.8066	0.123404	-437.938078	-437.9295	-437.928556	-437.973352	29.728	
C	-0.1799440657	 1.566925556	 0.0181269029	-0.474541
C	 0.0423281621	 0.088630184	 0.281459685	 0.390679
O	 0.8513943048	-0.3031035712	 1.0878788047	-0.277183
C	-0.8264406794	-0.8541167166	-0.548675195	-0.453531
C	-0.7361266427	-2.2970543371	-0.196629546	 0.34602
C	 0.0035995996	-3.0777192446	 0.62960921	-0.177098
N	-0.3994877124	-4.4044330448	 0.4962244681	-0.259627
C	-1.3404978284	-4.3608565239	-0.3847936519	 0.066822
O	-1.6130776846	-3.123418998	-0.8612980453	-0.18689
H	 0.5755476236	 2.1504692445	 0.5447246598	 0.14923
H	-0.1449374648	 1.7873801297	-1.0539798526	 0.13905
H	-1.1749499731	 1.8610355176	 0.372254878	 0.147268
H	-1.8690178236	-0.5127787089	-0.4838382118	 0.143324
H	-0.5532447084	-0.6985573268	-1.6038701041	 0.148906
H	 0.786746457	-2.7773697132	 1.3020767955	 0.150034
H	-1.929113944	-5.1723753668	-0.7830616173	 0.147539
31.6398	41.5308	100.473	158.2255	239.1958	315.224	328.0949	462.3884	569.6316	641.7021	669.8423	750.3549	828.4107	836.0251	847.0241	892.1322	942.1435	957.0539	1000.6585	1056.2135	1118.9693	1134.516	1155.195	1203.9907	1223.2509	1249.677	1329.9145	1379.7595	1391.5946	1448.0624	1465.1288	1476.11	1552.9176	1637.2063	1820.0428	3000.512	3031.7182	3038.7327	3099.4137	3156.6126	3275.8331	3310.7578
CC(=O)CC1=CN=CO1	CC(=O)Cc1cnco1	
InChI=1S/C6H7NO2/c1-5(8)2-6-3-7-4-9-6/h3-4H,2H2,1H3	InChI=1S/C6H7NO2/c1-5(8)2-6-3-7-4-9-6/h3-4H,2H2,1H3
