22
gdb 86044	2.96212	1.03895	0.95807	3.5274	83.35	-0.2449	0.0306	0.2754	1366.4339	0.192891	-404.376368	-404.366451	-404.365507	-404.411058	37.193	
C	-0.0556513041	 1.5577922356	 0.0871843253	-0.407754
C	 0.0477230835	 0.0412660858	 0.0631852602	 0.057286
C	 1.0689625679	-0.6208168783	-0.9035941055	-0.292114
C	 1.4405239961	-1.6447303386	 0.2079070742	 0.32587
C	 2.914582118	-1.979396668	 0.4104282889	-0.449237
C	 0.7658015576	-0.6823179543	 1.2361638182	-0.249779
N	 0.6443661758	-2.8633061794	 0.0218432333	-0.309228
C	 0.4239859999	-3.7871584947	 0.9914315578	 0.154204
O	 0.8007670928	-3.7033538383	 2.1431479296	-0.333747
H	 0.9279681468	 2.0166019504	 0.2417595778	 0.110266
H	-0.4603903942	 1.9467599185	-0.8541312691	 0.112743
H	-0.7112969901	 1.8978946818	 0.8964160242	 0.117935
H	-0.9443503073	-0.39604024	-0.0894301932	 0.07273
H	 0.7017971445	-1.0210675636	-1.8551045044	 0.086183
H	 1.914079912	 0.0416691445	-1.1141584558	 0.102994
H	 3.5016070673	-1.0650730744	 0.5401169524	 0.108514
H	 3.038451412	-2.6021961053	 1.2998971476	 0.152071
H	 3.3131966183	-2.5222641954	-0.4540706703	 0.10578
H	 1.5156397366	-0.0378336059	 1.7056504442	 0.095481
H	 0.1637860291	-1.1472533422	 2.0159285337	 0.125096
H	 0.3424583049	-3.0913315492	-0.9128893688	 0.242264
H	-0.1655987175	-4.6474239888	 0.6117211496	 0.072444
65.7863	88.6917	166.2532	208.9716	219.7149	241.5467	272.474	302.2861	345.0816	381.1399	433.751	444.0008	515.2726	589.0943	719.828	807.6851	821.1203	866.2189	898.122	918.2331	942.9595	946.2451	998.8837	1030.0678	1067.2792	1090.1509	1127.5928	1173.8586	1199.9565	1206.4275	1225.4767	1237.2247	1285.5265	1290.9088	1301.542	1371.2055	1403.0704	1411.4546	1430.8527	1467.8364	1480.8242	1489.2709	1495.9368	1496.3404	1503.9968	1513.9681	1796.3742	2915.6607	3021.7474	3032.0845	3036.1483	3046.2925	3061.7259	3087.7666	3091.0294	3095.7323	3101.5365	3127.2873	3143.0543	3618.6526
CC1CC(C)(C1)NC=O	C[C@H]1C[C@@](C)(C1)NC=O	
InChI=1S/C7H13NO/c1-6-3-7(2,4-6)8-5-9/h5-6H,3-4H2,1-2H3,(H,8,9)	InChI=1S/C7H13NO/c1-6-3-7(2,4-6)8-5-9/h5-6H,3-4H2,1-2H3,(H,8,9)/t6-,7-
