18
gdb 67029	2.16689	2.10402	1.63937	1.4042	75.72	-0.2115	0.0138	0.2253	928.4036	0.14785	-401.894545	-401.886887	-401.885942	-401.925926	31.435	
C	 0.0290219152	 1.5410644339	-0.0795234118	-0.50729
C	-0.0244444042	 0.0429528836	 0.0746058567	 0.180885
N	 0.3552443539	-0.7628052121	-1.1906476815	-0.338843
C	-0.8480263462	-1.5725502125	-0.9782679673	-0.089752
C	-0.9132437802	-2.0577210407	 0.5276229928	-0.179083
C	 0.2932795883	-1.8545198935	 1.3690018951	-0.078041
C	 0.7756395377	-0.6211854695	 1.1701261859	-0.108473
C	-1.4244058303	-0.713335976	 0.0849825563	 0.321462
O	-2.6844945465	-0.1860294783	 0.2492276289	-0.460136
H	 1.0410106115	 1.8651234839	-0.3466608032	 0.127149
H	-0.6614162818	 1.8852416386	-0.8563765139	 0.1242
H	-0.2472888268	 2.0376599267	 0.8563652254	 0.12309
H	 0.1554259177	-0.1532948898	-1.9841392022	 0.21511
H	-1.2863745838	-2.1840653455	-1.7577844127	 0.101312
H	-1.6201754676	-2.8624569078	 0.6951906651	 0.086777
H	 0.7313881563	-2.6246845659	 1.9922489985	 0.098007
H	 1.6823682478	-0.2019637466	 1.588377367	 0.095406
H	-2.8825018609	-0.1556025384	 1.1930904309	 0.28822
189.5516	199.7545	214.6561	304.3978	328.0396	389.9836	414.4984	464.3201	544.3247	602.1331	622.7671	717.7662	727.2134	754.8828	786.2096	813.1919	856.7522	914.5982	922.6884	954.773	1010.5886	1014.2972	1037.1827	1038.7079	1104.0197	1110.073	1145.0322	1170.7905	1229.853	1240.7737	1295.2465	1309.192	1330.9751	1388.1269	1412.3264	1477.8508	1489.4618	1493.1783	1636.0266	3030.1252	3099.0482	3102.876	3181.1128	3191.1127	3196.0822	3219.1726	3450.5294	3772.4951
CC12NC3C(C=C1)C23O	C[C@@]12N[C@H]3[C@@H](C=C1)[C@@]23O	
InChI=1S/C7H9NO/c1-6-3-2-4-5(8-6)7(4,6)9/h2-5,8-9H,1H3	InChI=1S/C7H9NO/c1-6-3-2-4-5(8-6)7(4,6)9/h2-5,8-9H,1H3/t4-,5+,6-,7+/m1/s1
