18
gdb 51904	5.92952	0.6627	0.62101	4.1136	77.58	-0.262	-0.0267	0.2353	1755.5573	0.146568	-439.093677	-439.084673	-439.083729	-439.128771	31.615	
O	-0.6317964192	 0.6094147472	 0.0026222024	-0.25257
C	 0.0072547221	 1.609464762	-0.0904938014	 0.180017
O	 1.1856936512	 1.7554031957	 0.6018635201	-0.197205
C	 1.8300733311	 2.9673070243	 0.5818301438	 0.135708
N	 1.2828838403	 4.0408819845	 0.2338318378	-0.252817
C	 2.0383419544	 5.2703457362	 0.2457635633	 0.084245
C	 3.594564511	 5.3406102622	 0.323165753	-0.246454
C	 3.5223903619	 6.5454271398	-0.6538364657	-0.218503
C	 2.1069156884	 6.0714582749	-1.0808328156	-0.21854
H	-0.2274599966	 2.4841426211	-0.709897896	 0.130838
H	 2.8553783609	 2.830694094	 0.931912874	 0.12422
H	 1.6018317438	 5.9078774505	 1.0238499738	 0.09863
H	 4.0574960309	 5.4884089951	 1.3014486598	 0.102776
H	 4.0588373964	 4.4756058741	-0.1614017643	 0.103737
H	 3.4882561773	 7.4985845379	-0.1193704576	 0.109257
H	 4.2871924817	 6.6082517176	-1.4296436838	 0.105611
H	 2.1541980205	 5.389044187	-1.934473659	 0.106443
H	 1.3337066539	 6.8198246658	-1.2654311246	 0.104606
48.9116	86.0373	95.0266	140.873	191.4287	223.2879	305.476	403.4518	475.4453	526.0859	623.4796	739.3678	791.3422	816.3353	901.6465	928.4577	955.7988	979.1969	983.7395	1032.5046	1050.012	1052.3805	1130.5099	1143.5638	1189.1574	1204.3032	1240.9366	1252.2897	1257.1564	1274.2007	1287.9352	1370.1367	1391.1613	1400.3737	1476.3142	1488.1895	1509.9597	1747.8899	1872.6126	3033.9301	3051.1203	3062.0865	3066.5742	3075.9726	3106.1222	3108.9675	3115.2589	3128.9848
O=COC=NC1CCC1	O=COC=NC1CCC1	
InChI=1S/C6H9NO2/c8-5-9-4-7-6-2-1-3-6/h4-6H,1-3H2	InChI=1S/C6H9NO2/c8-5-9-4-7-6-2-1-3-6/h4-6H,1-3H2
