20
gdb 63089	2.64716	1.41312	1.23736	3.8621	79.4	-0.2353	0.0318	0.2671	1120.0374	0.171809	-403.192054	-403.183357	-403.182412	-403.224913	33.656	
C	-0.0740947545	 1.5475692281	 0.009280327	-0.46444
C	 0.0288212031	 0.0342022994	-0.0327734592	 0.323145
C	-1.1862616778	-0.6645721677	 0.5559205192	-0.450803
C	 0.7009378418	-0.6903292703	-1.1721106325	-0.098574
C	 1.6313634653	 0.0859723708	-2.1047999313	-0.200773
N	 2.6837175136	 0.5559880302	-1.2207639844	-0.306776
C	 2.6291795722	 0.0949764928	 0.0740601482	 0.399481
O	 3.4689188924	 0.2855191093	 0.9272249018	-0.386339
C	 1.3502959574	-0.6914602006	 0.2004793873	-0.206644
H	 0.8084872992	 2.0453046594	-0.3961939564	 0.130579
H	-0.9467173689	 1.8845104251	-0.5626803376	 0.112998
H	-0.2041427345	 1.8917984809	 1.0410780504	 0.125131
H	-2.0972080977	-0.3800648769	 0.0166157165	 0.117157
H	-1.0913939798	-1.7534832111	 0.5036305209	 0.115363
H	-1.3226895656	-0.389958101	 1.6077752656	 0.123857
H	 0.224578668	-1.5774952373	-1.573048287	 0.090767
H	 2.0291354538	-0.5742277324	-2.8869460644	 0.111815
H	 1.1205641224	 0.9205558547	-2.603490801	 0.111274
H	 3.4615701508	 1.1170281184	-1.5281550368	 0.249765
H	 1.3704077989	-1.5481162819	 0.8623604238	 0.103016
108.4452	179.6262	197.3647	210.0567	225.4569	265.8485	351.0989	403.3636	449.9049	467.1231	500.8325	622.7729	657.2897	742.2563	777.6012	828.2675	870.4344	923.7037	974.0196	979.7145	988.4659	1013.8911	1051.8123	1054.1092	1086.8652	1118.5882	1151.0586	1207.7581	1222.6862	1258.1563	1299.1006	1310.3734	1349.1627	1409.5176	1413.7055	1429.5228	1451.0028	1485.0295	1490.8888	1505.0248	1511.052	1530.5099	1823.3095	3004.3903	3024.8112	3030.3714	3032.2003	3086.1195	3089.3841	3103.0518	3130.8141	3172.9819	3195.5429	3649.0682
CC1(C)C2CNC(=O)C12	CC1(C)[C@H]2CNC(=O)[C@@H]12	
InChI=1S/C7H11NO/c1-7(2)4-3-8-6(9)5(4)7/h4-5H,3H2,1-2H3,(H,8,9)	InChI=1S/C7H11NO/c1-7(2)4-3-8-6(9)5(4)7/h4-5H,3H2,1-2H3,(H,8,9)/t4-,5-/m0/s1
