16
gdb 125311	3.28639	1.64657	1.11215	5.2079	77.66	-0.2296	-0.0327	0.1969	1045.3473	0.126939	-396.944747	-396.937653	-396.936709	-396.976228	27.137	
C	-0.0224730133	 1.5340744058	-0.0025342866	-0.501329
C	-0.0086092361	 0.0399098774	-0.0063513681	 0.196194
C	-0.0269653688	-0.7944142324	-1.0651695592	-0.200416
C	-0.0023954927	-2.2467605588	-0.6328908656	-0.239543
N	 0.0319430724	-2.0861804292	 0.8119913159	 0.045639
N	 0.0657726029	-2.9330240157	 1.8478366423	-0.170031
N	 0.0850433418	-2.1852729081	 2.9250768755	-0.189496
C	 0.0641287973	-0.8633760593	 2.5766291214	-0.224192
C	 0.0292255208	-0.7864970157	 1.2005822825	 0.3214
H	 0.8683163371	 1.9325052682	 0.4963257949	 0.142763
H	-0.0542876675	 1.9316952173	-1.0194236144	 0.133181
H	-0.8915251406	 1.9161000972	 0.5450676031	 0.142705
H	-0.0556758873	-0.5024445659	-2.10652661	 0.114458
H	-0.8916257231	-2.8055308121	-0.9460389058	 0.153855
H	 0.8807100316	-2.7886129106	-0.9900153639	 0.153854
H	 0.0752989355	-0.0873149583	 3.323469988	 0.120958
156.581	186.2301	199.5838	241.7897	283.5092	487.2211	515.0133	590.382	660.0829	697.1118	725.4114	782.9243	806.0693	827.61	956.7569	985.4006	1001.422	1022.8831	1067.9504	1094.072	1123.2483	1180.2243	1198.0722	1238.2679	1260.9048	1306.2635	1321.9436	1366.4198	1418.5	1448.0059	1478.0269	1485.5347	1489.4343	1583.6247	1663.5476	3033.0025	3043.6935	3078.9427	3085.3248	3125.6428	3225.0739	3277.9264
CC1=CCN2N=NC=C12	CC1=CCn2nncc12	
InChI=1S/C6H7N3/c1-5-2-3-9-6(5)4-7-8-9/h2,4H,3H2,1H3	InChI=1S/C6H7N3/c1-5-2-3-9-6(5)4-7-8-9/h2,4H,3H2,1H3
