19
gdb 112052	2.43409	1.41997	1.02675	2.3533	76.13	-0.2467	0.0089	0.2556	1186.1911	0.158987	-423.006961	-422.998417	-422.997473	-423.040561	32.38	
O	 0.0521847466	 1.4989395139	 0.0204427271	-0.420376
C	 0.0605846866	 0.086240357	 0.1358509617	-0.074028
C	-1.3513850437	-0.5277105075	 0.0450954036	-0.128032
C	-2.0195506338	-0.2410312165	-1.281763756	-0.096106
C	-2.1696286457	-1.3343173888	-2.0299615485	-0.07365
C	-1.6606874331	-2.574104038	-1.3383053048	-0.334672
C	-1.347013323	-2.0654587946	 0.0734834458	 0.404081
C	-0.6553498102	-2.873095986	 1.0846702861	-0.247834
O	-2.0711825073	-2.6879076083	 1.1412620053	-0.26926
H	-0.1919150187	 1.7179078823	-0.8842201727	 0.284387
H	 0.7126018342	-0.3745905594	-0.6228989366	 0.08665
H	 0.4962549159	-0.1270245543	 1.1169471986	 0.110531
H	-1.9377656764	-0.1485805489	 0.8901702596	 0.101486
H	-2.3279247038	 0.7575503793	-1.5717699903	 0.096131
H	-2.6051735094	-1.3586015331	-3.022580884	 0.098714
H	-2.3999076319	-3.3815928853	-1.2899415356	 0.126103
H	-0.7728180149	-2.9837760171	-1.8389252552	 0.112903
H	-0.3227607993	-3.8801802501	 0.832410789	 0.109348
H	-0.0893553119	-2.3932083044	 1.8822075369	 0.113623
58.6417	96.9241	172.9349	231.775	300.4839	324.0478	335.2311	392.5803	467.5171	524.1688	554.226	734.3872	768.3323	808.2849	819.3084	857.1341	931.6064	960.8788	975.309	981.2441	1013.548	1040.0387	1077.6895	1081.7696	1128.0442	1128.3173	1161.6621	1178.995	1191.2532	1220.7882	1254.3691	1285.3248	1324.9656	1372.1964	1389.2057	1416.4655	1418.8863	1470.5006	1499.6635	1532.5264	1680.6188	2979.6012	3015.9653	3045.116	3064.866	3073.9081	3079.8894	3157.6148	3181.1441	3206.5832	3820.6218
OCC1C=CCC11CO1	OC[C@H]1C=CC[C@]21CO2	
InChI=1S/C7H10O2/c8-4-6-2-1-3-7(6)5-9-7/h1-2,6,8H,3-5H2	InChI=1S/C7H10O2/c8-4-6-2-1-3-7(6)5-9-7/h1-2,6,8H,3-5H2/t6-,7-/m1/s1
