23
gdb 63945	2.62754	1.59225	1.4393	1.3972	83.24	-0.2484	0.0759	0.3243	1068.1395	0.208247	-388.317694	-388.309521	-388.308577	-388.349751	33.841	
C	-0.1829720183	 1.5856766628	-0.0307947233	-0.457139
C	-0.0067443995	 0.063310452	-0.0172241254	 0.3535
C	-1.3836892239	-0.6127000473	 0.0908165681	-0.44001
C	 0.7792306675	-0.4843158197	-1.2604938167	-0.278422
C	 1.9162626109	-1.2856321838	-0.5887441598	 0.089452
C	 2.9908482693	-0.3172542229	-0.0435235833	-0.217166
C	 2.2634042942	 0.2472312523	 1.2138096171	-0.23443
C	 0.9061459778	-0.4830993123	 1.1244896805	 0.046954
O	 1.2924675243	-1.76857045	 0.6127015561	-0.268422
H	 0.7541636183	 2.1142049744	-0.2264481781	 0.112136
H	-0.8915316182	 1.8804684208	-0.8125149383	 0.113799
H	-0.582028765	 1.9487129993	 0.9237151933	 0.11092
H	-1.9945246342	-0.3967206449	-0.7928283293	 0.105975
H	-1.2727363152	-1.6970925829	 0.1731636336	 0.128969
H	-1.9324780173	-0.2550929813	 0.9700519959	 0.104066
H	 0.1472416858	-1.1361049507	-1.8696321835	 0.096909
H	 1.1573377779	 0.3142332303	-1.905539814	 0.091335
H	 2.2983900548	-2.1287308225	-1.1649651082	 0.072206
H	 3.8992203114	-0.8586099812	 0.2306149273	 0.102591
H	 3.2634284335	 0.4539164856	-0.7686736463	 0.095086
H	 2.7774254721	-0.0489084288	 2.1311531724	 0.103905
H	 2.1791452572	 1.3350600804	 1.2188028922	 0.100332
H	 0.3903762667	-0.6114684396	 2.0779471698	 0.067453
103.888	220.5853	254.4853	272.4178	292.2633	351.0554	376.923	408.6834	448.7189	559.2579	561.8169	686.2635	778.3348	809.19	824.7623	846.1859	883.4064	925.0815	940.2865	951.2815	958.5748	977.499	990.4341	1006.9679	1024.9337	1043.4789	1052.2398	1122.7955	1149.356	1208.306	1211.0844	1233.9617	1246.8584	1272.7714	1282.0349	1300.1664	1312.0209	1323.6192	1352.0899	1357.2977	1399.5776	1422.5238	1479.3477	1488.1335	1490.6206	1495.2322	1502.756	1511.4403	1516.4914	3022.8883	3027.8869	3053.2352	3061.6766	3074.6417	3083.9611	3089.5293	3097.0767	3101.8737	3103.1091	3104.9617	3116.5437	3117.7264	3127.2745
CC1(C)CC2CCC1O2	CC1(C)C[C@H]2CC[C@@H]1O2	
InChI=1S/C8H14O/c1-8(2)5-6-3-4-7(8)9-6/h6-7H,3-5H2,1-2H3	InChI=1S/C8H14O/c1-8(2)5-6-3-4-7(8)9-6/h6-7H,3-5H2,1-2H3/t6-,7+/m1/s1
