22
gdb 117182	3.35443	0.8676	0.74826	2.2532	81.16	-0.2326	0.0649	0.2975	1630.1089	0.192044	-441.535196	-441.523856	-441.522912	-441.573412	38.535	
C	 0.0809877107	 1.5219512194	-0.0772110998	-0.392777
C	 0.0675677176	 0.0072352271	 0.0059532423	-0.032669
O	 0.7038624589	-0.4951996187	-1.1803135006	-0.275462
C	 0.7398463054	-1.849185764	-1.2806261843	 0.527642
O	 0.2619281749	-2.5934887033	-0.4471760647	-0.434707
N	 1.3795123795	-2.2651135737	-2.4131466454	-0.144167
C	 1.859133019	-1.3686744459	-3.4503014088	-0.344394
C	 1.4235834164	-3.7009479799	-2.675568546	-0.146108
C	 0.2257043815	-4.2120552008	-3.4818332399	-0.378484
H	 1.105115612	 1.9025812846	-0.1313283585	 0.126054
H	-0.4621460185	 1.8697872815	-0.9606922026	 0.126195
H	-0.3973341684	 1.94663066	 0.8104078613	 0.121666
H	 0.6079419133	-0.3568278853	 0.8856186005	 0.118472
H	-0.950572601	-0.3898654347	 0.0627129467	 0.120291
H	 1.8767010486	-0.3480340993	-3.0768053946	 0.158333
H	 2.8751229527	-1.6547971249	-3.7473339864	 0.121931
H	 1.2233215176	-1.4016848738	-4.3453849569	 0.12145
H	 2.3590043964	-3.90989195	-3.2077308171	 0.097259
H	 1.4626656553	-4.2088020105	-1.7106628818	 0.140026
H	-0.7005274083	-4.0472847228	-2.9247245861	 0.139297
H	 0.1440828411	-3.7074299416	-4.4499871191	 0.11412
H	 0.3255128353	-5.2856738132	-3.6709395183	 0.116032
38.6438	46.5077	68.4006	104.0739	123.838	153.4761	176.9805	239.0575	257.5211	337.6622	352.8203	406.4895	415.692	545.3494	623.3881	774.7426	791.0344	807.5096	834.8521	888.6027	961.2283	1039.6684	1087.528	1102.8572	1109.0323	1133.6994	1158.6321	1185.061	1214.5	1266.2542	1288.6858	1333.8301	1387.3273	1394.5877	1411.7789	1415.08	1439.4069	1470.066	1482.8949	1485.3776	1491.8617	1498.0604	1501.9177	1503.8628	1522.8439	1533.9527	1784.3132	3010.5979	3038.8431	3039.7605	3044.3272	3050.946	3058.6654	3087.6332	3102.1219	3118.2088	3119.0517	3122.9788	3131.088	3182.5862
CCOC(=O)N(C)CC	CCOC(=O)N(C)CC	
InChI=1S/C6H13NO2/c1-4-7(3)6(8)9-5-2/h4-5H2,1-3H3	InChI=1S/C6H13NO2/c1-4-7(3)6(8)9-5-2/h4-5H2,1-3H3
