20
gdb 124564	4.03741	0.85798	0.81778	3.2504	80.52	-0.2534	-0.0089	0.2445	1482.7455	0.170641	-403.154599	-403.145494	-403.14455	-403.189416	33.392	
C	 0.2149350981	 1.5035053292	-0.0377510263	-0.383659
C	 0.031609854	-0.0162206975	 0.0479707	 0.049226
C	 0.7195917297	-0.5870082358	 1.2939820526	-0.390141
C	-1.4637240857	-0.4155963947	 0.0310890264	-0.333441
C	-2.1813837956	-0.0830987436	-1.2420573591	 0.156146
C	-3.1444534524	 0.8479797885	-1.478581522	-0.011683
O	-3.5327995307	 0.8311208709	-2.7633533735	-0.164029
N	-2.8102522278	-0.1482282434	-3.4356131657	-0.133103
C	-2.0228352706	-0.6750667491	-2.5323455359	-0.037852
H	 1.2762186311	 1.7688206894	-0.0750175413	 0.114552
H	-0.2671712779	 1.9177474697	-0.9277588796	 0.121298
H	-0.2193644342	 1.9974933634	 0.8403325148	 0.108919
H	 0.5033194058	-0.4660492946	-0.8371128316	 0.077412
H	 0.27413291	-0.1781701644	 2.2089875234	 0.113605
H	 0.6294421968	-1.6775820461	 1.3385754789	 0.110806
H	 1.7852204969	-0.3371049832	 1.3053218544	 0.11388
H	-1.5394087776	-1.4947861196	 0.2151000291	 0.108714
H	-1.9711981489	 0.0734058893	 0.872012374	 0.102548
H	-3.6415873553	 1.5688090638	-0.8474519067	 0.148066
H	-1.3569673858	-1.4758067622	-2.8247881119	 0.128738
41.3892	73.9613	111.7575	220.1692	244.3802	291.4397	315.6988	329.2203	416.4701	425.972	618.3464	658.7091	735.4344	817.0904	849.1943	886.13	903.9263	913.5207	929.999	938.2616	951.9318	968.0234	1025.9192	1106.004	1136.4396	1151.148	1191.1806	1205.911	1247.4771	1284.7773	1318.646	1363.4791	1373.8793	1399.4519	1402.6941	1422.2856	1474.5269	1482.8495	1488.089	1494.921	1503.1854	1510.2962	1651.0574	3003.1192	3018.6131	3023.9519	3029.34	3058.5873	3088.962	3094.7526	3101.6694	3111.8516	3235.7331	3261.0819
CC(C)CC1=CON=C1	CC(C)Cc1conc1	
InChI=1S/C7H11NO/c1-6(2)3-7-4-8-9-5-7/h4-6H,3H2,1-2H3	InChI=1S/C7H11NO/c1-6(2)3-7-4-8-9-5-7/h4-6H,3H2,1-2H3
