23
gdb 102593	2.25871	1.2094	0.94789	2.081	82.15	-0.2472	0.07	0.3173	1368.5719	0.205107	-425.40066	-425.390551	-425.389606	-425.436149	36.993	
C	 0.1753459845	 1.4231029931	 0.0045323324	-0.240208
O	 0.0697146604	 0.015635752	-0.0389728656	-0.25607
C	 0.695687268	-0.6010568331	-1.1688086236	 0.045963
C	 2.1843968353	-0.8113979142	-0.8594902658	-0.067755
O	 2.3686253168	-1.5366886443	 0.3405193964	-0.417868
C	-0.0495317718	-1.895548988	-1.4729464561	 0.060604
C	-0.3826559586	-2.9059864566	-0.3372027083	-0.21589
C	-1.7476627603	-3.1661041375	-1.0284704639	-0.217061
C	-1.5687276067	-1.8267511535	-1.7930201318	-0.24021
H	 1.2170417561	 1.7680552377	 0.0704014981	 0.112052
H	-0.2861073585	 1.8870987896	-0.8796846054	 0.111826
H	-0.3583639892	 1.7579210952	 0.8976602584	 0.129515
H	 0.6081231711	 0.0656248536	-2.0434685763	 0.062948
H	 2.655839486	-1.3848799367	-1.6650414336	 0.105137
H	 2.6959293691	 0.1647292723	-0.8152208256	 0.080106
H	 1.7498426742	-1.149715622	 0.9723538931	 0.28743
H	 0.4810622772	-2.406159185	-2.284745489	 0.06773
H	 0.298031795	-3.746256558	-0.1915047881	 0.10038
H	-0.5165493198	-2.388894755	 0.6154100911	 0.10674
H	-1.7040222882	-4.0261269621	-1.703625482	 0.097386
H	-2.6288946596	-3.2712393724	-0.3911723568	 0.093026
H	-2.034879686	-0.9967123351	-1.2552316091	 0.106828
H	-1.8684858752	-1.78613925	-2.8436443285	 0.087392
73.4258	81.6756	111.8976	128.3913	167.7072	211.4849	255.4438	289.3689	339.9208	369.0346	449.593	550.5979	604.8852	710.6657	763.0802	799.1203	867.0105	902.7665	933.6287	935.5804	956.8258	970.1417	1009.1757	1053.4993	1094.5833	1114.3247	1143.3544	1148.3316	1183.7058	1200.0875	1211.8005	1232.9512	1250.52	1257.8251	1261.071	1276.0002	1283.8431	1321.7198	1361.2227	1385.4904	1396.9132	1431.2317	1475.0724	1479.8196	1485.7936	1487.3867	1507.9902	1510.3741	1515.0501	2955.1541	2968.3458	2988.0442	3037.0678	3039.7718	3051.7701	3057.3566	3069.3519	3075.575	3097.8313	3112.3927	3114.8761	3132.743	3779.8187
COC(CO)C1CCC1	CO[C@@H](CO)C1CCC1	
InChI=1S/C7H14O2/c1-9-7(5-8)6-3-2-4-6/h6-8H,2-5H2,1H3	InChI=1S/C7H14O2/c1-9-7(5-8)6-3-2-4-6/h6-8H,2-5H2,1H3/t7-/m0/s1
