21
gdb 73842	2.31151	1.7485	1.32079	1.7646	83.55	-0.2212	0.0278	0.249	1085.1264	0.1838	-387.109497	-387.101094	-387.100149	-387.142114	32.766	
C	-0.0065271813	 1.5092229693	 0.1177434877	-0.512878
C	-0.0607927724	 0.0236354014	-0.0028167039	 0.230045
C	-0.0710948549	-0.7738318678	-1.079420722	 0.229991
C	-0.0319821138	-0.4566457387	-2.536236624	-0.512874
C	 0.0065137212	-2.1933992906	-0.5168708296	-0.0253
C	 1.4728973053	-2.4107401034	-0.0173604062	-0.21704
C	 1.4852940628	-1.4838159845	 1.2336655401	-0.217061
C	 0.0233417206	-0.9289372128	 1.1901378306	-0.025323
O	-0.697909077	-2.0747664143	 0.7241157421	-0.247115
H	 0.9095947334	 1.8352102081	 0.6285799013	 0.12617
H	-0.0332146021	 2.0014349769	-0.8584224102	 0.124422
H	-0.8460970518	 1.8928341457	 0.7115458429	 0.128821
H	-0.0498863988	 0.6208249524	-2.7223056324	 0.124419
H	 0.8741019699	-0.859735938	-3.0084930365	 0.126169
H	-0.8830032553	-0.9041305451	-3.0655386316	 0.12883
H	-0.4128895817	-2.9952588036	-1.125630936	 0.070841
H	 1.6288738344	-3.4560445284	 0.2596575746	 0.102182
H	 2.2174585386	-2.140590331	-0.7702124694	 0.096344
H	 1.6477571553	-2.0547322839	 2.1509349228	 0.102179
H	 2.2367643967	-0.6919498175	 1.1848334469	 0.096349
H	-0.3806404293	-0.5764272844	 2.1398744727	 0.070831
148.3903	156.2051	173.5004	176.2849	241.49	250.6359	356.6854	448.3695	556.3626	589.7283	607.4101	648.0685	783.8157	832.9514	858.0422	858.3109	884.0671	906.2223	951.3857	962.9519	1006.5769	1014.6822	1043.2191	1043.9405	1072.5843	1131.5575	1156.2959	1177.7384	1206.8661	1220.128	1239.7142	1246.6191	1293.1173	1322.9599	1346.304	1348.8924	1412.1875	1421.1722	1478.3587	1480.173	1482.6979	1487.3844	1491.2918	1502.5681	1736.886	3011.2911	3012.9556	3055.1432	3055.4192	3059.736	3069.635	3101.2831	3104.1168	3107.1511	3111.9189	3114.5076	3120.7061
CC1=C(C)C2CCC1O2	CC1=C(C)[C@H]2CC[C@@H]1O2	
InChI=1S/C8H12O/c1-5-6(2)8-4-3-7(5)9-8/h7-8H,3-4H2,1-2H3	InChI=1S/C8H12O/c1-5-6(2)8-4-3-7(5)9-8/h7-8H,3-4H2,1-2H3/t7-,8+
