21
gdb 64022	2.10427	1.84208	1.36771	1.7431	83.28	-0.2416	0.01	0.2516	1064.5592	0.18175	-387.090118	-387.081363	-387.080418	-387.122922	34.709	
C	 0.3695524275	 1.4624434288	-0.2442567497	-0.419276
C	 0.0109161436	-0.0164886115	-0.0052704584	 0.186857
C	-1.5002901536	-0.1793459622	 0.1795533433	-0.425451
C	 0.5689505272	-0.8751080426	-1.1846610846	-0.309544
C	 1.8435573603	-1.4746797484	-0.645486284	-0.07951
C	 1.9747863835	-1.2873179714	 0.6671163165	-0.134634
C	 0.8103223923	-0.5448594921	 1.2131689855	 0.409521
C	 0.7693515379	 0.0567918855	 2.5516490899	-0.256146
O	 0.1000063207	-1.1790219806	 2.3011528444	-0.282674
H	 1.4504377184	 1.5912374001	-0.3634898227	 0.117017
H	-0.1172782048	 1.834088259	-1.1523208312	 0.111298
H	 0.0449394488	 2.0927027192	 0.5895120838	 0.109961
H	-2.0319991088	 0.1628772916	-0.7149614439	 0.105783
H	-1.7668599168	-1.2230323756	 0.3637452038	 0.126427
H	-1.8631204315	 0.4076108116	 1.0294016733	 0.113785
H	-0.1327283983	-1.6670273754	-1.4800540123	 0.109327
H	 0.7385488975	-0.2671294545	-2.0811352792	 0.102544
H	 2.5443085966	-2.0147470046	-1.2729205024	 0.098644
H	 2.7782605047	-1.6522569824	 1.295781619	 0.09954
H	 1.6419000069	-0.0029100019	 3.2028271901	 0.108023
H	 0.1173154679	 0.9091867074	 2.7425841087	 0.108508
74.2575	217.5762	229.0693	255.9852	268.087	282.2003	333.8039	342.0831	408.9337	461.2556	522.551	573.3048	626.15	738.3823	772.8679	842.0082	852.6972	911.2302	934.9196	953.4211	962.5998	974.221	980.9177	996.6936	1039.982	1107.8988	1125.0524	1136.5518	1167.1605	1185.3175	1221.9427	1250.6043	1266.3411	1336.3571	1341.8615	1399.8203	1416.2953	1428.3657	1481.4377	1482.7051	1490.6869	1501.2766	1505.8548	1529.463	1681.37	3014.4837	3028.0221	3035.4023	3051.7431	3069.3435	3095.2492	3099.614	3103.8182	3119.2909	3151.1952	3186.0427	3213.3686
CC1(C)CC=CC11CO1	CC1(C)CC=C[C@]21CO2	
InChI=1S/C8H12O/c1-7(2)4-3-5-8(7)6-9-8/h3,5H,4,6H2,1-2H3	InChI=1S/C8H12O/c1-7(2)4-3-5-8(7)6-9-8/h3,5H,4,6H2,1-2H3/t8-/m1/s1
