17
gdb 68276	2.46347	1.49994	1.44484	1.5621	74.98	-0.2444	0.0338	0.2782	1013.1051	0.133862	-421.736666	-421.728167	-421.727223	-421.769089	33.627	
O	 0.1308980908	 1.3285263856	-0.0494718022	-0.467954
C	 0.1043795744	-0.0451255245	-0.008394081	 0.367758
C	 0.7381445681	-0.9631867958	-1.0756786897	-0.281427
C	 0.0862537599	-1.9210450125	-0.0319087097	-0.120441
C	 0.6888092259	-1.0138553878	 1.0781837556	-0.320255
C	-1.1651574604	-0.9695408844	-0.0465458463	 0.235491
O	-1.9478664133	-0.8745489966	 1.1292053398	-0.496116
C	-2.0195738192	-0.975921691	-1.2242298971	 0.248181
C	-2.7862475941	-1.0064317811	-2.15096098	-0.452125
H	-0.393640553	 1.658953812	 0.6891528631	 0.292567
H	 0.3051712904	-0.9378269153	-2.0762719451	 0.115381
H	 1.8290267795	-0.971547473	-1.0984749898	 0.101174
H	 0.0658744984	-3.007581103	-0.0613089068	 0.085727
H	 1.7778948141	-1.0220615048	 1.1549023414	 0.094588
H	 0.2011710821	-1.0308069756	 2.0507676121	 0.114581
H	-2.7353162803	-1.4135470542	 1.004871597	 0.287099
H	-3.4498569633	-1.019161048	-2.9802569413	 0.19577
119.3577	164.479	201.7229	252.8338	296.1031	335.84	360.5711	397.503	503.4604	529.7243	535.0906	610.8048	617.4791	669.2809	684.1836	699.6623	788.321	820.7357	939.0465	950.4209	956.956	998.8258	1040.3088	1065.2759	1098.3244	1120.7853	1153.4671	1174.4715	1194.3792	1208.2466	1225.3676	1294.5189	1349.0304	1393.8738	1491.9594	1539.5849	2224.8458	3078.043	3082.475	3148.5289	3151.8377	3165.2961	3499.717	3800.6212	3825.3188
OC12CC(C1)C2(O)C#C	O[C@@]12C[C@@H](C1)[C@]2(O)C#C	
InChI=1S/C7H8O2/c1-2-7(9)5-3-6(7,8)4-5/h1,5,8-9H,3-4H2	InChI=1S/C7H8O2/c1-2-7(9)5-3-6(7,8)4-5/h1,5,8-9H,3-4H2/t5-,6-,7-/m1/s1
