18
gdb 66790	3.01406	2.27873	1.84748	1.4508	76.34	-0.2256	0.0781	0.3037	824.4925	0.14992	-364.743557	-364.737444	-364.7365	-364.773512	26.752	
C	-0.0407654032	 1.4817062946	 0.0280939133	-0.501413
C	 0.1130555532	-0.0134790021	-0.0013039568	 0.359288
C	 0.4593690632	-0.7488430107	-1.3156947782	-0.156154
C	 0.5340085154	-2.1842670019	-0.8287672525	-0.082674
C	 0.6858927194	-2.1983744095	 0.6859323903	-0.082673
C	-0.5627897902	-1.5775040952	 1.2694231426	-0.040437
C	 0.7120674252	-0.7723138237	 1.2043727982	-0.156136
N	-1.1720682216	-0.8423647561	 0.1198392265	-0.188632
C	-0.8045099289	-1.5550483395	-1.141184941	-0.040436
H	 0.9352835956	 1.9723099615	-0.0646498151	 0.114903
H	-0.6765400869	 1.8194478428	-0.7959191783	 0.126124
H	-0.5006079398	 1.8028107858	 0.9676229598	 0.12614
H	 0.933808454	-0.353482148	-2.2056709607	 0.084773
H	 0.9477624569	-2.9581608404	-1.4617892724	 0.087563
H	 1.2156584123	-2.9830380369	 1.2098332682	 0.087564
H	-1.1457398603	-1.9559197183	 2.1004057037	 0.088714
H	 1.3544814195	-0.3925554717	 1.9895791139	 0.084771
H	-1.5415354034	-1.9191494206	-1.8467238517	 0.088715
224.4712	264.045	270.5181	567.7246	573.011	584.7918	706.2271	731.8791	776.1424	792.0722	801.1091	817.502	833.859	838.5244	874.0492	901.3819	929.2459	943.7347	993.3534	995.8452	1004.5159	1026.6433	1028.8455	1050.8025	1054.1001	1073.322	1073.945	1122.4394	1178.0234	1212.4583	1226.6732	1248.9073	1293.7933	1315.7493	1345.0765	1365.7361	1409.5074	1482.6195	1488.7303	3030.1267	3098.6896	3112.5995	3176.2281	3176.6867	3184.549	3188.388	3203.6675	3215.0282
CC12C3C4C5C(C15)N2C34	C[C@@]12[C@H]3[C@H]4[C@@H]5[C@@H]([C@H]15)N2[C@@H]34	
InChI=1S/C8H9N/c1-8-4-2-3-5(8)7(3)9(8)6(2)4/h2-7H,1H3	InChI=1S/C8H9N/c1-8-4-2-3-5(8)7(3)9(8)6(2)4/h2-7H,1H3/t2-,3+,4+,5-,6-,7+,8-
