16
gdb 20002	4.10368	1.38017	1.18048	4.379	66.3	-0.2418	-0.0152	0.2267	1015.6196	0.129494	-383.71104	-383.703387	-383.702443	-383.74352	27.672	
O	-0.3038785953	 0.2624604849	-0.479433375	-0.27221
C	-0.0901789213	 1.3358119072	 0.0321291779	 0.145198
C	 1.2526644957	 1.9642300494	 0.0844908502	-0.1131
C	 1.3581808797	 3.4852101689	 0.0267926348	-0.310116
C	 1.698591078	 2.7862015828	 1.2972050355	-0.039722
C	 0.838872869	 2.9352016763	 2.5153298034	 0.052019
C	 0.5261650634	 4.2576268003	 3.0774065883	-0.173884
O	-0.4537077392	 3.5171799053	 2.344106854	-0.225057
H	-0.906647604	 1.929959265	 0.4935743084	 0.101583
H	 2.0215530334	 1.3867611938	-0.417500643	 0.107443
H	 2.1503060206	 3.905794257	-0.5809557812	 0.127037
H	 0.4204663946	 4.0307802335	 0.0105878565	 0.143824
H	 2.7530273332	 2.6699917861	 1.5348755401	 0.107583
H	 0.8521608068	 2.0869876727	 3.2014335726	 0.10536
H	 0.3278406915	 4.3616261113	 4.1425423083	 0.123196
H	 0.902418764	 5.1486094455	 2.5778468791	 0.120845
85.5288	96.2819	179.137	209.0759	294.9553	326.2206	427.2545	543.6946	588.5604	735.1053	841.6166	847.1387	866.4812	890.7294	949.3491	970.713	1053.84	1057.2337	1083.8611	1093.2509	1119.6231	1137.0959	1159.5411	1172.838	1188.464	1216.1118	1287.8336	1342.1377	1395.3979	1431.3224	1447.563	1482.0884	1523.5126	1810.6163	2921.0452	3090.4382	3100.4974	3140.2367	3143.5764	3176.8707	3181.9116	3232.4182
O=CC1CC1C1CO1	O=C[C@H]1C[C@H]1[C@H]1CO1	
InChI=1S/C6H8O2/c7-2-4-1-5(4)6-3-8-6/h2,4-6H,1,3H2	InChI=1S/C6H8O2/c7-2-4-1-5(4)6-3-8-6/h2,4-6H,1,3H2/t4-,5-,6-/m1/s1
