19
gdb 109336	1.89818	1.49651	0.91616	1.6458	78.63	-0.2309	-0.0263	0.2046	1282.9693	0.158231	-423.043169	-423.033772	-423.032828	-423.078497	33.29	
O	 0.0698484045	 1.305465584	 0.0820397762	-0.415935
C	 0.0022734245	-0.0987203253	 0.2498851939	-0.178428
C	-1.407252027	-0.5586364102	 0.0592857411	 0.290106
C	-2.4826765868	 0.1906906113	-0.1845424973	-0.152175
C	-3.7441344436	-0.6227463228	-0.3242156079	-0.255144
C	-3.3032575388	-2.0442935244	 0.1202309644	-0.248713
C	-1.7515034484	-2.0438748579	 0.0907385821	-0.162263
C	-1.187429544	-2.6850083672	-1.1676037907	 0.158357
O	-0.1522261017	-3.297737879	-1.2238312171	-0.257899
H	 0.9844805865	 1.5758062013	 0.2013710152	 0.291812
H	 0.6587642925	-0.6266297953	-0.4623993759	 0.113647
H	 0.3433046595	-0.4013994362	 1.2563977718	 0.099084
H	-2.4555362221	 1.2691309708	-0.2773613259	 0.114109
H	-4.5643447756	-0.2337582033	 0.2903106493	 0.107871
H	-4.1113112765	-0.6095400504	-1.3592744929	 0.110465
H	-3.6376980916	-2.2410702591	 1.1420248475	 0.115387
H	-3.7274274494	-2.8322813468	-0.5099160345	 0.104084
H	-1.2983636859	-2.5592274159	 0.9450268914	 0.089612
H	-1.802384266	-2.5072177037	-2.081617511	 0.076024
46.453	75.5756	87.6038	195.2444	208.0223	235.8925	249.213	293.0898	423.8244	450.6892	525.2576	667.8748	703.6095	800.9488	856.721	886.5117	907.0463	956.3395	982.3378	1019.8235	1042.1494	1057.2379	1084.277	1091.792	1155.0711	1184.4005	1215.2967	1240.674	1253.0566	1271.8938	1278.4848	1299.984	1328.1466	1347.5783	1423.5808	1470.3424	1483.9832	1502.7496	1507.9368	1724.0421	1823.7757	2853.2124	2942.2327	2971.137	3016.1568	3045.9232	3049.0362	3059.0248	3100.5531	3219.7086	3840.0837
OCC1=CCCC1C=O	OCC1=CCC[C@H]1C=O	
InChI=1S/C7H10O2/c8-4-6-2-1-3-7(6)5-9/h2,5,7-8H,1,3-4H2	InChI=1S/C7H10O2/c8-4-6-2-1-3-7(6)5-9/h2,5,7-8H,1,3-4H2/t7-/m0/s1
