19
gdb 53264	3.43151	0.87574	0.76881	1.8085	86.22	-0.232	0.0451	0.2771	1535.445	0.157724	-385.828292	-385.818804	-385.81786	-385.864238	33.487	
C	 0.0201725194	 1.4766753073	 0.0077979846	-0.498501
C	 0.021889299	 0.0207748341	 0.0185858675	 0.067124
C	 0.0361242564	-1.1846786482	 0.0331206038	 0.081275
C	 0.0279554729	-2.6187047273	 0.0355126677	-0.259191
C	-0.4888224308	-3.3895735487	 1.2488465709	-0.35329
C	-1.2904965917	-3.3622185283	-0.0050491491	 0.296495
C	-2.6710211811	-2.7775309196	-0.2678644151	-0.136093
O	-2.9777059794	-3.865322851	-1.1719745949	-0.27677
C	-1.700735862	-4.4965621501	-0.9373724165	-0.137203
H	 1.0353391592	 1.8754808312	 0.1130847234	 0.148899
H	-0.395925069	 1.8722239398	-0.9255518414	 0.147842
H	-0.5781507469	 1.8786367149	 0.8330757868	 0.147812
H	 0.8457653968	-3.0913698226	-0.5040091078	 0.109091
H	 0.0295813673	-4.3064555918	 1.5114306633	 0.118413
H	-0.8395886758	-2.8057822463	 2.0931416195	 0.126335
H	-3.3538542853	-2.7551933668	 0.5916043725	 0.100211
H	-2.6838550049	-1.8017363527	-0.7685803419	 0.113211
H	-1.114791348	-4.6023293468	-1.8598947199	 0.103285
H	-1.8105149262	-5.4824916571	-0.4650873332	 0.101056
29.1138	68.1885	95.325	114.6819	221.1969	239.48	314.7948	333.4088	375.9022	481.0885	502.5137	605.0809	715.7908	841.911	868.4238	889.7408	918.5625	948.6977	1003.8968	1024.7548	1029.0587	1052.2348	1052.9426	1066.4111	1099.5412	1127.4564	1149.2522	1158.2857	1205.4355	1224.1813	1303.7166	1320.1105	1372.6078	1415.2652	1434.498	1477.2457	1479.8199	1490.7148	1510.2062	1534.6599	2365.5579	2996.1098	3010.8715	3025.2833	3039.925	3055.4619	3084.7169	3086.3943	3125.9905	3128.8217	3217.5435
CC#CC1CC11COC1	CC#C[C@H]1CC21COC2	
InChI=1S/C8H10O/c1-2-3-7-4-8(7)5-9-6-8/h7H,4-6H2,1H3	InChI=1S/C8H10O/c1-2-3-7-4-8(7)5-9-6-8/h7H,4-6H2,1H3/t7-/m0/s1
