12
gdb 48028	5.74331	0.48148	0.44545	2.4636	83.54	-0.2831	-0.0795	0.2035	2202.2805	0.0752	-398.304445	-398.295212	-398.294268	-398.340758	29.917	
O	-0.0356211354	-0.1321555956	 0.0016105704	-0.218539
C	-0.0110830351	 1.0755813339	 0.0072209977	 0.028922
C	 1.2021452125	 1.8598569189	 0.0001497471	 0.029042
C	 2.1988833276	 2.5380551642	-0.0054826937	 0.125999
C	 3.4234682434	 3.3341626965	-0.0125503876	-0.521019
C	 3.183887055	 4.7749776862	-0.0025891163	 0.125757
C	 2.9951032909	 5.9661361259	 0.0055580023	 0.035876
C	 2.7811338901	 7.3152664302	 0.014771943	 0.221767
N	 2.5996855743	 8.4621663897	 0.0226001102	-0.327446
H	-0.9400847277	 1.6791983351	 0.0182031125	 0.112103
H	 4.0401323333	 3.0620685957	 0.8558221992	 0.193768
H	 4.0238750311	 3.0714774694	-0.8950989247	 0.193769
31.4089	43.1875	127.9379	139.2847	175.914	188.2909	340.6914	342.9346	387.6949	465.4208	572.2547	576.158	608.7134	735.5539	829.209	914.7931	1020.6847	1131.0618	1176.4292	1224.9892	1335.635	1420.2495	1430.7053	1772.8031	2274.5238	2344.2509	2412.3099	2934.6275	3011.9218	3039.5481
O=CC#CCC#CC#N	O=CC#CCC#CC#N	
InChI=1S/C7H3NO/c8-6-4-2-1-3-5-7-9/h7H,1H2	InChI=1S/C7H3NO/c8-6-4-2-1-3-5-7-9/h7H,1H2
