20
gdb 61888	5.66642	0.65873	0.62149	3.1531	77.53	-0.2304	-0.0268	0.2036	1760.1134	0.16784	-440.246371	-440.236349	-440.235405	-440.282524	34.984	
C	-0.2333309764	 1.5851480104	 0.0676523323	-0.337681
N	-0.0824054222	 0.1312492615	 0.0939650858	-0.083541
C	 0.6741111294	-0.2996358013	 1.2555450675	-0.231084
C	 2.1489369747	 0.0503680631	 1.1152391792	 0.152831
O	 2.8904389896	 0.2606480906	 2.0379468859	-0.237736
C	-1.3534204215	-0.5687907863	-0.0602066598	-0.163921
C	-1.9228569353	-0.4179007949	-1.4508100618	 0.080677
C	-3.3609753895	-0.5539816783	-1.7091737152	-0.179504
O	-2.7394064519	 0.7305457384	-1.7085574687	-0.230263
H	 0.752622223	 2.0598966627	 0.0960119635	 0.124072
H	-0.7379958084	 1.8970036712	-0.8475128954	 0.154695
H	-0.8174433363	 1.9636606971	 0.9265591573	 0.102027
H	 0.305046219	 0.0960786772	 2.2186891585	 0.108072
H	 0.631453576	-1.3961512118	 1.321304942	 0.124994
H	 2.4972419524	 0.0651917619	 0.0570615595	 0.086017
H	-1.1738639757	-1.6362133302	 0.1178356409	 0.105944
H	-2.1151341645	-0.2369379815	 0.6705707293	 0.089445
H	-1.2255468352	-0.654898703	-2.2550799301	 0.100745
H	-3.7034077553	-0.9109333538	-2.6791025405	 0.118557
H	-4.0408163519	-0.7431373928	-0.8790875103	 0.115654
47.0945	63.5889	93.6722	122.9788	172.9886	221.4817	264.2046	290.8197	356.4828	379.2154	442.4322	462.5878	583.2248	752.1689	805.2418	858.7659	883.413	959.3596	985.9534	1045.205	1070.5009	1077.8764	1093.8582	1128.5701	1155.3498	1159.0526	1168.9907	1189.8204	1226.2923	1286.0245	1293.5818	1311.9257	1347.9428	1381.2327	1402.2362	1449.3698	1454.9526	1466.829	1485.5838	1492.1024	1504.0631	1531.0981	1841.2516	2878.1251	2927.8455	2942.6547	2953.1487	3030.6689	3048.2247	3072.7076	3084.1309	3112.0939	3143.4679	3170.7461
CN(CC=O)CC1CO1	CN(CC=O)C[C@H]1CO1	
InChI=1S/C6H11NO2/c1-7(2-3-8)4-6-5-9-6/h3,6H,2,4-5H2,1H3	InChI=1S/C6H11NO2/c1-7(2-3-8)4-6-5-9-6/h3,6H,2,4-5H2,1H3/t6-/m0/s1
