15
gdb 50901	7.24779	0.6188	0.57413	3.9753	68.98	-0.2679	-0.0464	0.2215	1774.3858	0.111049	-454.009792	-454.000312	-453.999368	-454.046294	31.412	
O	-0.4513168135	 0.1250998426	 0.0069169073	-0.242493
C	-0.124425483	 1.2769110652	 0.0096933068	 0.16724
N	 1.1834156337	 1.7686215464	-0.0004944163	-0.360787
C	 2.3756393852	 1.0340292341	-0.0158485583	 0.446462
O	 2.4257172737	-0.1684413606	-0.0223431597	-0.295838
C	 3.6189240424	 1.9226062845	-0.0225017438	-0.342322
C	 4.8960213964	 1.0689422896	-0.039472422	-0.333957
C	 6.0990765759	 1.8965851672	-0.0459748956	 0.253921
N	 7.0389245485	 2.5685809335	-0.0508134993	-0.299338
H	-0.8442498244	 2.120359327	 0.0208893284	 0.093465
H	 1.2679050289	 2.7753169861	 0.0039406504	 0.260892
H	 3.5888790113	 2.5845355371	-0.8960495285	 0.150899
H	 3.6054531936	 2.5744044498	 0.8590462064	 0.150959
H	 4.9141672082	 0.4061945749	 0.8305993765	 0.175466
H	 4.8977702332	 0.4163816626	-0.9173948124	 0.17543
33.7272	42.3793	89.1394	98.2828	183.6795	219.7148	276.3075	336.3426	391.3026	538.3953	553.2558	565.4216	634.7974	789.6318	804.5771	917.0941	971.6371	1025.4055	1035.9211	1043.3424	1102.5404	1164.8746	1178.7882	1292.6997	1306.3222	1383.245	1445.0393	1456.8022	1467.4826	1507.9549	1812.0398	1875.9113	2365.9102	2929.6518	3039.8664	3072.3213	3076.593	3112.3772	3604.2384
O=CNC(=O)CCC#N	O=CNC(=O)CCC#N	
InChI=1S/C5H6N2O2/c6-3-1-2-5(9)7-4-8/h4H,1-2H2,(H,7,8,9)	InChI=1S/C5H6N2O2/c6-3-1-2-5(9)7-4-8/h4H,1-2H2,(H,7,8,9)
