16
gdb 10995	4.1647	1.78061	1.51197	3.758	70.91	-0.236	-0.0493	0.1867	867.1448	0.131173	-346.629018	-346.622089	-346.621145	-346.659801	27.076	
C	-0.0216478676	 1.5483009066	 0.0243357278	-0.485821
C	 0.0566524051	 0.0401288178	 0.0172217387	 0.304495
C	-0.8205520791	-0.7979063901	 0.9260820715	-0.312442
C	 0.6932699766	-0.7818514674	 1.1102340335	-0.198834
C	 1.4578711782	-1.898883032	 0.4321406345	 0.393765
O	 2.1734479791	-2.7135778706	 0.967015418	-0.336752
C	 1.170118574	-1.7685784664	-1.0269807268	-0.207982
C	 0.4184567283	-0.6820481476	-1.2483466018	-0.11756
H	 0.9302436545	 1.9975031158	-0.2781352461	 0.128533
H	-0.7953794117	 1.9055258086	-0.6651093422	 0.123061
H	-0.2678648499	 1.9230452923	 1.022001839	 0.12394
H	-1.399138706	-0.2801949999	 1.685542141	 0.121227
H	-1.288710044	-1.6900590911	 0.5243593912	 0.125928
H	 1.0971519711	-0.3488073912	 2.016640064	 0.107848
H	 1.5247062876	-2.4839322888	-1.7572364613	 0.116531
H	 0.0560772537	-0.347561766	-2.2152921611	 0.114064
137.0333	211.3251	251.886	289.3259	373.8406	421.3079	475.9968	571.2993	657.5429	735.6449	762.3441	805.1574	842.5095	863.5592	910.2794	959.889	971.2298	990.2967	1030.2022	1062.432	1071.7441	1102.4463	1124.6378	1176.1046	1229.0292	1289.5017	1345.8626	1388.1014	1421.3563	1485.941	1489.5918	1501.3872	1635.225	1813.2551	3028.903	3090.1038	3108.7673	3124.6451	3183.0107	3198.5422	3216.8874	3230.0786
CC12CC1C(=O)C=C2	C[C@]12C[C@H]1C(=O)C=C2	
InChI=1S/C7H8O/c1-7-3-2-6(8)5(7)4-7/h2-3,5H,4H2,1H3	InChI=1S/C7H8O/c1-7-3-2-6(8)5(7)4-7/h2-3,5H,4H2,1H3/t5-,7-/m0/s1
