17
gdb 70962	3.88909	1.28568	1.14596	4.9441	77.63	-0.2643	-0.0012	0.2631	1092.0565	0.136732	-380.835915	-380.828258	-380.827314	-380.867801	29.758	
C	-0.0977881421	 1.4621274027	 0.0485722088	-0.499125
C	 0.1042082006	-0.0179036514	-0.0382148248	 0.334332
C	 0.1007842319	-0.8725462264	-1.2966506381	-0.329708
C	-0.2196595668	-2.0310656562	-0.325785656	 0.225369
C	 1.0438406146	-2.2155913788	 0.5473808164	-0.281971
C	 0.6849732686	-0.8388513228	 1.0705385526	-0.083644
N	-0.7765059906	-0.9897760545	 0.7133879751	-0.208271
C	-1.0202661021	-3.1557974975	-0.7359859322	 0.180189
N	-1.6495803197	-4.0644604204	-1.0754893855	-0.333993
H	 0.7908596531	 1.9973539945	-0.3039438498	 0.128889
H	-0.9510993713	 1.7769274915	-0.5603351768	 0.133211
H	-0.2896606611	 1.7659235411	 1.0819559299	 0.136383
H	-0.7604553381	-0.6353197475	-1.9255257187	 0.130799
H	 1.0046024409	-0.9555791102	-1.9078094631	 0.111135
H	 0.8866055881	-2.9819176557	 1.3089852595	 0.135582
H	 1.9967180311	-2.3776062322	 0.035198215	 0.11356
H	 0.9764114329	-0.3976631461	 2.0164251076	 0.107264
134.5737	153.0656	194.1147	271.6781	303.9732	395.9399	449.6306	495.5842	551.2827	561.0469	620.9526	737.6529	762.8678	820.6632	880.9033	897.7601	943.3791	998.2813	1008.2638	1024.1198	1034.6377	1070.2004	1105.3772	1142.0285	1176.0982	1195.7273	1245.351	1263.5702	1300.7912	1323.3088	1403.9018	1431.637	1483.2782	1488.727	1492.857	1508.5603	2354.7984	3034.3938	3052.58	3058.5366	3100.7459	3113.1452	3118.3082	3125.0592	3189.1595
CC12CC3(CC1N23)C#N	C[C@@]12C[C@]3(C[C@@H]1N23)C#N	
InChI=1S/C7H8N2/c1-6-3-7(4-8)2-5(6)9(6)7/h5H,2-3H2,1H3	InChI=1S/C7H8N2/c1-6-3-7(4-8)2-5(6)9(6)7/h5H,2-3H2,1H3/t5-,6+,7+,9?/m0/s1
