19
gdb 70790	2.84758	1.68161	1.42362	2.5967	74.32	-0.2364	0.0719	0.3083	987.6073	0.159327	-422.986127	-422.97845	-422.977506	-423.017612	31.431	
C	-0.0690071813	 1.4954909935	 0.0426084526	-0.502379
C	-0.0180175091	-0.0108239286	-0.0197263448	 0.285164
C	 0.3823642537	-0.7787627215	-1.3136361722	-0.359854
C	-0.4283513387	-1.9287219265	-0.6918627565	 0.396746
O	-0.9383597125	-3.0102356086	-1.3888336545	-0.478614
C	-0.0084272085	-2.0927774878	 0.8407394813	-0.008773
C	 0.7861044914	-0.7951165167	 1.0479240318	-0.249421
O	-1.3444105425	-1.6791022628	 1.2564219157	-0.293158
C	-1.3426534828	-0.9326626195	 0.0374829655	 0.019652
H	 0.9301836248	 1.9328030966	-0.0681210823	 0.117238
H	-0.6999873215	 1.9085950496	-0.7517805153	 0.114875
H	-0.4739302406	 1.8330553745	 1.0032282942	 0.122632
H	-0.1297435383	-0.4009301914	-2.2039387843	 0.103474
H	 1.4496173018	-0.9063010128	-1.5209711193	 0.088163
H	-0.213955446	-3.607040526	-1.6061584794	 0.282499
H	 0.3181824115	-3.0363820506	 1.2777120108	 0.077895
H	 1.85065823	-0.8609963749	 0.804932887	 0.092192
H	 0.6622140182	-0.4244409727	 2.0685494347	 0.105415
H	-2.3043841195	-0.5483171038	-0.2995909951	 0.086254
202.8714	209.5744	229.4574	244.3059	301.0889	365.2287	436.693	472.8691	539.9696	584.0841	616.6987	690.9364	733.2722	797.3869	858.8077	898.4043	912.4895	939.1978	946.8826	985.5895	1004.7845	1016.0935	1063.4329	1072.2152	1123.1705	1126.7406	1154.7222	1176.8834	1203.3654	1219.231	1236.4839	1252.5778	1300.4112	1310.9291	1348.7157	1403.48	1414.92	1478.2951	1492.4375	1493.8561	1506.0308	3022.5414	3042.1277	3056.2774	3085.5448	3092.8148	3100.9158	3112.0622	3123.4462	3135.2916	3800.7321
CC12CC3(O)C(C1)OC23	C[C@@]12C[C@@]3(O)[C@@H](C1)O[C@@H]23	
InChI=1S/C7H10O2/c1-6-2-4-7(8,3-6)5(6)9-4/h4-5,8H,2-3H2,1H3	InChI=1S/C7H10O2/c1-6-2-4-7(8,3-6)5(6)9-4/h4-5,8H,2-3H2,1H3/t4-,5+,6+,7-/m1/s1
