23
gdb 120039	2.34033	1.1629	0.86946	2.2272	82.45	-0.2426	0.0782	0.3208	1429.7622	0.20469	-425.406376	-425.396204	-425.39526	-425.441491	37.731	
C	-0.2545543102	 1.3449433122	-0.0130542849	-0.234094
O	-0.1819519663	-0.0628019867	 0.049381629	-0.245013
C	 0.7019534986	-0.5289889036	 1.064528319	-0.081961
C	 0.6901378338	-2.0470024655	 1.0095858217	-0.085943
C	 1.40065692	-2.782572671	 2.1953046795	 0.022828
C	 2.5086259906	-2.0929121861	 2.9814488957	-0.410631
C	 0.0121078698	-2.9803132746	 2.8665753681	-0.258247
C	-0.6557834859	-2.6648486552	 1.5087525941	 0.160941
O	-1.7880271758	-1.831774134	 1.5750705814	-0.449702
H	 0.7288168982	 1.7870843111	-0.2334532453	 0.110229
H	-0.9470066076	 1.6022591786	-0.8179932328	 0.13015
H	-0.6241897401	 1.7765293699	 0.9295141872	 0.112602
H	 1.7150462845	-0.1342845636	 0.8873036568	 0.092997
H	 0.3667048951	-0.1561064692	 2.0442817753	 0.099849
H	 1.0027712548	-2.3533384608	 0.0070788909	 0.06974
H	 1.7725182265	-3.7452703915	 1.8292310392	 0.075421
H	 2.1832472901	-1.1269809714	 3.3817960576	 0.114256
H	 2.8165781926	-2.7110775365	 3.831997888	 0.116209
H	 3.3958943003	-1.9191067872	 2.3621411339	 0.113465
H	-0.1997211897	-3.9461435522	 3.330779636	 0.094781
H	-0.2105719131	-2.1856641038	 3.5850963849	 0.103706
H	-0.8803198418	-3.5877181929	 0.953734183	 0.062083
H	-1.7214961445	-1.2165812259	 0.8324973416	 0.286333
79.3249	96.03	133.8959	140.0506	223.5583	232.2617	248.7082	293.8643	345.496	368.7185	404.3648	461.3031	488.4939	565.2019	643.7331	782.2807	858.7123	896.8154	903.9107	944.4885	974.9086	1003.7039	1023.1619	1064.8865	1127.4411	1138.5292	1154.3198	1165.9856	1182.7649	1189.2187	1225.9547	1232.3872	1251.204	1261.7989	1270.3701	1303.9382	1350.6244	1361.5368	1385.213	1409.8549	1418.6676	1427.8123	1479.1976	1485.5242	1489.8724	1495.4916	1499.374	1503.1514	1523.2498	2970.9778	2981.9729	2983.5758	3007.6902	3026.2979	3028.6366	3041.8043	3059.1699	3065.6258	3089.8895	3097.9001	3115.3389	3117.6855	3750.5145
COCC1C(C)CC1O	COC[C@H]1[C@@H](C)C[C@H]1O	
InChI=1S/C7H14O2/c1-5-3-7(8)6(5)4-9-2/h5-8H,3-4H2,1-2H3	InChI=1S/C7H14O2/c1-5-3-7(8)6(5)4-9-2/h5-8H,3-4H2,1-2H3/t5-,6-,7+/m0/s1
