19
gdb 105943	4.29686	1.33754	1.27993	1.0722	78.6	-0.2252	0.0941	0.3193	1056.2658	0.15998	-385.80155	-385.794267	-385.793322	-385.833283	29.294	
C	-0.2947477707	 1.3167368991	 0.0324199703	-0.257904
O	 0.1594559159	-0.0236415567	-0.0798606526	-0.279832
C	 0.7874723781	-0.4806123191	 1.041153051	 0.43943
C	 0.2858905081	-0.8397018935	 2.4259619681	-0.170958
C	 0.9687799809	-1.8913107878	 1.5046688971	-0.16101
C	 2.4428551421	-1.6999895239	 1.9256408204	-0.045398
C	 2.4589800526	-1.4834062388	 3.4586812073	-0.240875
C	 1.528529404	-0.2822488636	 3.1525371045	-0.044862
C	 2.1706560001	-0.1583454608	 1.7151137743	-0.152701
H	 0.5406166856	 2.0124894568	 0.1919712652	 0.113384
H	-0.7899607905	 1.5651707869	-0.9085910548	 0.127591
H	-1.0064292528	 1.4265187987	 0.8615683845	 0.114127
H	-0.7229365714	-0.9831576438	 2.7896360339	 0.085682
H	 0.4495573264	-2.7850136215	 1.1856716503	 0.089681
H	 3.2161126467	-2.2574004314	 1.3988933696	 0.06561
H	 2.0893554754	-2.2827122285	 4.1084952703	 0.090956
H	 3.4430248447	-1.149608437	 3.8038157438	 0.095386
H	 1.4046385669	 0.5565214442	 3.8366240683	 0.061439
H	 2.9249051478	 0.5704610406	 1.4300672886	 0.070254
92.7658	162.2835	171.299	317.2207	373.9017	452.6453	557.6145	607.7083	716.4612	732.6302	771.4769	813.0853	837.0372	859.1903	869.8693	917.5157	933.4106	953.4407	985.9658	999.5888	1022.7546	1031.6733	1059.8111	1062.5321	1091.1602	1104.5909	1163.5183	1165.9013	1178.823	1197.0059	1213.3045	1220.288	1229.4591	1258.8045	1275.3759	1292.8625	1430.4404	1485.7337	1489.3632	1502.7848	1506.4164	2997.353	3041.5104	3053.523	3096.734	3118.2511	3122.8117	3125.4601	3151.1537	3199.2463	3209.4442
COC12C3C1C1CC3C21	CO[C@@]12[C@H]3[C@@H]1[C@@H]1C[C@H]3[C@H]21	
InChI=1S/C8H10O/c1-9-8-5-3-2-4(5)7(8)6(3)8/h3-7H,2H2,1H3	InChI=1S/C8H10O/c1-9-8-5-3-2-4(5)7(8)6(3)8/h3-7H,2H2,1H3/t3-,4+,5-,6+,7-,8-
