21
gdb 96593	2.38717	1.51535	1.06198	2.7267	75.7	-0.2486	0.0756	0.3242	1193.1046	0.183475	-461.344812	-461.336168	-461.335224	-461.37794	33.19	
C	 0.1801966875	 1.6330877429	 0.056522147	-0.403967
C	-0.0161435027	 0.1205783684	 0.0240264928	 0.103983
C	 0.596150926	-0.4756573713	-1.2684173059	-0.074926
O	 0.9976766064	-1.8196167565	-1.1808770136	-0.217172
C	 0.003055968	-2.8134964264	-1.1813636075	-0.072487
C	-0.8519015708	-2.8846470195	 0.0966881517	-0.100759
O	-0.0722611629	-2.7202805385	 1.2663058082	-0.2233
C	-0.103073	-1.4429416853	 1.8441931939	 0.012756
O	 0.6053587039	-0.4375131985	 1.176175	-0.235067
H	 1.245963437	 1.86855148	 0.1348697225	 0.132671
H	-0.2114160053	 2.097641368	-0.8547838597	 0.114685
H	-0.3330098503	 2.0711660522	 0.9163702217	 0.121437
H	-1.0940105989	-0.0937064539	 0.0582340325	 0.066027
H	-0.1085062166	-0.319517129	-2.1037618081	 0.081814
H	 1.5149177875	 0.0735355314	-1.5013728038	 0.109019
H	-0.6686331634	-2.7152062257	-2.0527905036	 0.080273
H	 0.5544670806	-3.7527871201	-1.2881430245	 0.11722
H	-1.6705179	-2.1520673861	 0.0748346865	 0.091237
H	-1.3143114977	-3.8790588675	 0.1396691486	 0.10531
H	-1.1546194379	-1.1265527741	 1.9755001849	 0.075172
H	 0.3823490498	-1.5526868003	 2.8165526464	 0.116073
86.551	157.3603	212.1663	226.1953	256.8542	298.2629	317.2672	365.4014	429.9295	467.7392	525.9448	616.7142	620.8596	807.4547	837.787	854.5842	904.6782	932.8658	982.8056	1021.2758	1065.1943	1078.9534	1115.4754	1141.8209	1144.9157	1188.2489	1195.251	1217.8995	1284.8397	1297.8421	1334.1779	1340.0483	1344.095	1395.0233	1400.6919	1407.5449	1414.3953	1426.9702	1455.612	1479.0223	1483.8745	1488.2829	1490.8541	1499.3431	1511.7304	2927.292	2951.7439	2957.316	2988.7448	3009.3742	3038.7673	3045.7275	3067.6702	3083.1276	3107.8062	3110.8159	3122.8372
CC1COCCOCO1	C[C@H]1COCCOCO1	
InChI=1S/C6H12O3/c1-6-4-7-2-3-8-5-9-6/h6H,2-5H2,1H3	InChI=1S/C6H12O3/c1-6-4-7-2-3-8-5-9-6/h6H,2-5H2,1H3/t6-/m0/s1
