21
gdb 74925	2.5083	1.86884	1.31897	0.3663	87.37	-0.2088	0.0272	0.236	1053.8416	0.183247	-349.939753	-349.931702	-349.930758	-349.971639	32.831	
C	 0.0655672719	 1.4739222036	 0.0051390715	-0.504203
C	-0.0560073182	-0.016964036	-0.0347540379	 0.262544
C	-0.1509885949	-0.8060404151	-1.112802401	-0.194786
C	-0.0489355432	-2.2524586883	-0.6915844176	-0.106356
C	 1.4296223017	-2.4801147803	-0.1770879737	-0.233618
C	 0.958592724	-2.0784208367	 1.2143175422	-0.105964
C	-0.4891580038	-2.2571636332	 0.8092958595	-0.102779
C	-0.0337733211	-0.8781823466	 1.1995577497	 0.275372
C	-0.4028402648	-0.3085708924	 2.5495293044	-0.502284
H	 1.014822456	 1.785358705	 0.4603405227	 0.125174
H	 0.019143065	 1.9015905975	-1.0000688036	 0.121844
H	-0.7304967474	 1.9326112797	 0.6047174883	 0.12308
H	-0.1096280097	-0.4768649479	-2.144982425	 0.084456
H	-0.447117665	-3.0004007432	-1.37563192	 0.064253
H	 1.6859660123	-3.5431160042	-0.1930351322	 0.098983
H	 2.221586411	-1.9016871149	-0.6653738772	 0.086396
H	 1.443655976	-2.3405797416	 2.1481140321	 0.078444
H	-1.2982987531	-2.8079428854	 1.2756850119	 0.078131
H	-0.4051238402	-1.089996018	 3.3162839805	 0.115574
H	 0.304093871	 0.4647125509	 2.8708266525	 0.117614
H	-1.4025847676	 0.1404699169	 2.5330264328	 0.118128
152.0104	183.2416	209.8868	246.5596	269.9442	344.8828	397.4716	436.5631	560.7269	582.3338	627.6069	703.6115	752.7842	806.3548	829.7232	848.7401	871.881	877.2072	919.895	953.214	985.7476	1002.0792	1020.3418	1052.1256	1060.4238	1062.7427	1096.5861	1103.8877	1146.43	1183.4068	1202.9326	1241.5069	1242.2875	1276.5932	1310.6249	1353.257	1378.0805	1411.0672	1419.4379	1477.9542	1485.0429	1489.4294	1493.6767	1503.701	1690.0271	3015.5446	3024.0499	3035.4544	3060.5154	3082.6018	3094.6253	3096.7385	3108.853	3119.7275	3163.9328	3176.2675	3193.5959
CC1=CC2CC3C2C13C	CC1=C[C@H]2C[C@@H]3[C@H]2[C@]13C	
InChI=1S/C9H12/c1-5-3-6-4-7-8(6)9(5,7)2/h3,6-8H,4H2,1-2H3	InChI=1S/C9H12/c1-5-3-6-4-7-8(6)9(5,7)2/h3,6-8H,4H2,1-2H3/t6-,7+,8-,9+/m0/s1
