21
gdb 92549	3.05071	1.42583	1.12052	0.9731	84.82	-0.2381	0.0192	0.2573	1162.5318	0.183925	-387.091781	-387.083717	-387.082772	-387.124245	32.162	
C	-0.1372653498	 1.5160425692	-0.022867147	-0.397383
C	 0.0103068132	-0.0031221336	-0.0028652599	 0.094175
O	 0.7535100208	-0.3527391089	-1.1658768141	-0.282642
C	 1.0881861832	-1.7247876211	-1.2547139604	 0.116892
C	 2.3572170063	-1.8750562481	-2.1210468777	-0.236617
C	 3.214175544	-1.894957931	-0.8238766039	-0.235987
C	 1.9029355636	-2.1966207215	-0.0207043239	-0.042087
C	 1.5872614501	-1.4702676221	 1.2443644614	-0.100983
C	 0.6847068381	-0.4913443045	 1.2589053076	-0.068467
H	 0.8447106208	 1.9920528378	 0.0530339818	 0.125439
H	-0.6078628431	 1.8358811274	-0.9560545255	 0.122983
H	-0.7553468968	 1.8524247349	 0.8150032118	 0.111994
H	-0.9984977667	-0.452845472	-0.0696801275	 0.07102
H	 0.2024948536	-2.3182690775	-1.5252446197	 0.054034
H	 2.3764613088	-2.8335167617	-2.646619667	 0.09919
H	 2.5306577863	-1.0680231982	-2.8351628859	 0.108886
H	 4.015983473	-2.6336853562	-0.7615655975	 0.094953
H	 3.616376403	-0.9097650218	-0.5797740688	 0.110999
H	 1.7946875834	-3.2783651241	 0.1199671367	 0.076768
H	 2.0929253339	-1.7747382264	 2.1580140032	 0.088378
H	 0.4105338944	 0.0104031196	 2.1833344962	 0.088452
83.222	159.7218	213.2315	245.199	281.3695	376.8265	397.3592	473.3485	515.6666	578.6193	667.9951	727.65	753.1096	801.2366	837.4783	873.1142	900.7114	945.3092	954.2855	963.2142	992.9704	1022.4131	1064.4993	1077.2241	1098.649	1117.8562	1129.4	1179.4055	1201.2614	1215.1912	1252.8637	1256.8073	1281.3437	1289.3436	1324.9355	1339.6672	1344.3057	1385.423	1404.7202	1420.1157	1468.9759	1484.5067	1489.6682	1498.8364	1713.2025	2917.7534	2986.4059	3037.9062	3043.3838	3065.7064	3071.7629	3118.5081	3118.6788	3125.5398	3134.0884	3142.4984	3169.0921
CC1OC2CCC2C=C1	C[C@H]1O[C@H]2CC[C@H]2C=C1	
InChI=1S/C8H12O/c1-6-2-3-7-4-5-8(7)9-6/h2-3,6-8H,4-5H2,1H3	InChI=1S/C8H12O/c1-6-2-3-7-4-5-8(7)9-6/h2-3,6-8H,4-5H2,1H3/t6-,7-,8+/m1/s1
