21
gdb 101529	3.84538	0.72234	0.66826	2.6179	86.82	-0.2629	-0.0557	0.2071	1747.4677	0.178542	-387.081422	-387.070528	-387.069583	-387.118278	38.808	
C	 0.0668540257	 1.5307494934	-0.0179570675	-0.391718
C	-0.0850173747	 0.0079597716	 0.0518021171	-0.182336
C	-1.5180106122	-0.5059798814	-0.1835914674	 0.050083
C	-2.0411722844	-0.1725495002	-1.588643449	-0.400031
C	-1.5800555211	-2.0179630215	 0.0770207738	-0.313734
C	-2.9816855839	-2.5774345524	 0.256255493	 0.223207
O	-3.9813743189	-1.894247498	 0.3166182256	-0.291525
C	-3.0525479932	-4.0271552072	 0.3801427327	 0.251653
C	-3.0893464163	-5.2263171608	 0.4794958022	-0.392685
H	 1.0892917461	 1.8307555135	 0.2319725877	 0.112387
H	-0.1532083358	 1.9205041346	-1.0160881747	 0.120541
H	-0.6073890249	 2.0270287367	 0.6890814716	 0.11636
H	 0.5907828306	-0.4614731255	-0.6771048942	 0.091608
H	 0.2516357441	-0.3346732015	 1.0391952006	 0.090375
H	-2.1805176585	-0.0236156831	 0.5465417789	 0.091626
H	-3.0560711609	-0.5527197459	-1.7257469093	 0.134566
H	-2.0686177511	 0.9066363319	-1.761187845	 0.116699
H	-1.3989474418	-0.6171748216	-2.3593813639	 0.105059
H	-1.0870476746	-2.5842161739	-0.7255792318	 0.125692
H	-1.0262832022	-2.2830292104	 0.9899009232	 0.128613
H	-3.142323882	-6.2842769483	 0.5687955265	 0.213559
37.0147	67.8016	98.3619	112.4603	189.7485	215.8829	239.3801	262.236	273.3851	339.4544	372.8864	419.165	525.3818	574.681	610.673	643.807	704.6881	774.9005	809.0192	860.0873	891.6886	930.5783	975.7005	1014.1882	1046.5717	1083.0835	1117.8965	1160.7568	1186.3119	1236.0777	1284.9377	1309.989	1366.8096	1373.8768	1389.2298	1411.6382	1414.4721	1440.1249	1484.0665	1497.0624	1498.9129	1507.738	1516.9702	1766.9781	2210.0425	3003.8857	3009.3739	3023.0559	3030.8792	3034.4918	3038.319	3049.2185	3099.8743	3101.6156	3110.5798	3128.0674	3494.959
CCC(C)CC(=O)C#C	CC[C@@H](C)CC(=O)C#C	
InChI=1S/C8H12O/c1-4-7(3)6-8(9)5-2/h2,7H,4,6H2,1,3H3	InChI=1S/C8H12O/c1-4-7(3)6-8(9)5-2/h2,7H,4,6H2,1,3H3/t7-/m1/s1
