18
gdb 74262	2.611	1.40182	1.12439	3.3332	74.84	-0.222	-0.0095	0.2125	1151.14	0.145991	-439.139517	-439.130246	-439.129302	-439.173043	34.891	
C	 0.0402801508	 1.5075785639	 0.0120515022	-0.497859
C	-0.0605598714	 0.0211656813	-0.0040778061	 0.349762
C	-1.1339367454	-0.7768512044	 0.0101736321	-0.251543
C	-0.6953188216	-2.2187793616	 0.0319024472	 0.251909
C	-1.0630397347	-2.9565966308	 1.3267314551	-0.428231
O	-1.1757646961	-2.9280448737	-1.1045208094	-0.468682
C	 0.8462247702	-2.0889139135	-0.090679774	 0.381123
O	 1.6211938504	-3.0042008785	-0.2588539573	-0.388387
N	 1.1313719901	-0.7476213487	-0.0166041224	-0.391293
H	 0.5863227348	 1.8600433809	 0.895326026	 0.13888
H	 0.5771162268	 1.8772469882	-0.8703812258	 0.137398
H	-0.9546309094	 1.956250355	 0.0192476172	 0.145205
H	-2.162720315	-0.4513998758	 0.0517286809	 0.106174
H	-2.1470900644	-3.0908792833	 1.3734826015	 0.12442
H	-0.5823682831	-3.9404241724	 1.3373432153	 0.126948
H	-0.7361151638	-2.4025365125	 2.2120914437	 0.119786
H	-0.5765829044	-3.6782070861	-1.2213460542	 0.286698
H	 2.0505564559	-0.3767163483	-0.199936032	 0.257693
90.0634	150.6581	180.8895	205.908	242.7914	276.9419	284.0266	349.8305	373.975	406.4854	479.4689	557.0944	587.8253	615.1758	634.7479	746.3432	751.4613	783.6595	923.5863	965.0938	988.1282	1013.0253	1065.5107	1100.7495	1129.528	1140.8126	1207.819	1244.2782	1341.2565	1390.6085	1392.6309	1405.9583	1422.4161	1476.0286	1484.7176	1489.8397	1490.8572	1719.9065	1834.313	3025.6925	3034.3904	3075.0018	3109.4101	3121.9884	3136.0761	3243.8177	3637.8304	3753.861
CC1=CC(C)(O)C(=O)N1	CC1=C[C@@](C)(O)C(=O)N1	
InChI=1S/C6H9NO2/c1-4-3-6(2,9)5(8)7-4/h3,9H,1-2H3,(H,7,8)	InChI=1S/C6H9NO2/c1-4-3-6(2,9)5(8)7-4/h3,9H,1-2H3,(H,7,8)/t6-/m1/s1
