20
gdb 6117	2.7696	1.75721	1.43803	2.8652	75.05	-0.2345	-0.0128	0.2217	989.9132	0.174554	-349.02834	-349.019312	-349.018368	-349.061426	33.955	
C	-0.637358832	 1.2497499267	-0.0725187055	-0.417958
C	 0.1024144458	-0.079996797	-0.0759195947	-0.115705
C	 1.4718379451	-0.1771132582	-0.758236952	 0.390509
O	 1.9654339197	 0.3797512951	-1.697439037	-0.303846
C	 2.0073394211	-1.1221073653	 0.3251444668	-0.381141
C	 0.7858599668	-0.6931895224	 1.2122851683	 0.305645
C	 1.1928196969	 0.3696591541	 2.2355493402	-0.438249
C	 0.0143147846	-1.8312537761	 1.8739000083	-0.453836
H	-0.0269370295	 2.0527084175	 0.3497131777	 0.124433
H	-0.8937540529	 1.5366560536	-1.0966796458	 0.134697
H	-1.5666158012	 1.1893002932	 0.5033877582	 0.11725
H	-0.535965556	-0.8568677143	-0.5208023832	 0.096374
H	 1.9539653455	-2.1684118287	 0.0048711504	 0.121464
H	 3.0138054283	-0.9189524221	 0.6999982515	 0.121782
H	 1.7733605465	 1.1774702506	 1.7770328193	 0.120932
H	 0.3168825178	 0.8191481703	 2.7151596197	 0.117494
H	 1.8126283065	-0.0752951216	 3.0216112843	 0.11613
H	 0.6104574127	-2.3105087417	 2.6588136336	 0.116711
H	-0.908745165	-1.4655432976	 2.3385145226	 0.116667
H	-0.2606075605	-2.601858716	 1.1455721173	 0.110648
68.8331	164.6783	180.1555	233.8753	242.3574	270.6556	310.0546	336.8349	371.8052	401.9753	499.6401	565.5533	614.3765	727.2808	746.0121	836.4895	851.9572	950.0306	963.6245	986.7793	1015.5665	1041.4015	1068.1106	1119.3446	1140.8545	1174.0863	1194.466	1226.1695	1278.4094	1294.47	1348.7501	1404.6621	1406.7421	1423.4966	1444.21	1482.5408	1487.9278	1494.8328	1497.2855	1507.4919	1508.9265	1884.3105	3009.4338	3021.2554	3027.8018	3039.8376	3049.1177	3086.9423	3092.1118	3094.7785	3098.1002	3106.5966	3110.4064	3116.7972
CC1C(=O)CC1(C)C	C[C@H]1C(=O)CC1(C)C	
InChI=1S/C7H12O/c1-5-6(8)4-7(5,2)3/h5H,4H2,1-3H3	InChI=1S/C7H12O/c1-5-6(8)4-7(5,2)3/h5H,4H2,1-3H3/t5-/m0/s1
