18
gdb 31189	1.92393	1.66817	0.94913	2.7917	88.85	-0.1973	0.0186	0.2159	1247.2905	0.147622	-364.831695	-364.822676	-364.821732	-364.865914	33.823	
C	-0.3692506369	 1.5558583965	-0.1147133412	-0.367814
C	 0.0884611882	 0.0923452232	 0.0275713391	-0.317735
C	 0.8105434638	-0.432504929	-1.1708144568	 0.202804
C	 2.1602759202	-0.7094036744	-1.3598881513	 0.096411
C	 2.3190526193	-1.168358423	-2.7094396443	-0.267008
C	 1.0812507216	-1.1572632818	-3.2933853899	-0.081665
N	 0.1794023185	-0.7095804953	-2.3543280204	-0.289018
C	 3.175113603	-0.5604442012	-0.3865398526	 0.237173
C	 4.0444538095	-0.4367840122	 0.439891447	-0.464112
H	 0.487882192	 2.2144866958	-0.2809503914	 0.133173
H	-1.0540217149	 1.6819965628	-0.9602454044	 0.106378
H	-0.8893902934	 1.8891053071	 0.7887559274	 0.11528
H	 0.7635197221	 0.0019974311	 0.883583407	 0.131995
H	-0.7815529648	-0.5410264322	 0.2489305129	 0.102479
H	 3.2464890004	-1.4684061333	-3.1702324551	 0.101501
H	 0.7610956423	-1.429658878	-4.2858198084	 0.12127
H	-0.80916794	-0.609224829	-2.5077806704	 0.261016
H	 4.8108601991	-0.327797307	 1.1657068829	 0.177872
38.1263	133.4036	146.1729	170.8826	213.3435	326.2673	363.9555	473.2359	496.7416	513.2533	534.3708	584.3194	640.4143	649.3848	676.8077	699.1479	742.4444	786.2846	831.3798	915.3485	964.6228	1034.8665	1076.9271	1089.5236	1116.8448	1166.3315	1256.9932	1273.2734	1331.7675	1352.0903	1405.3681	1417.2517	1475.505	1487.6346	1496.1356	1504.2271	1516.4665	1602.9818	2224.2208	3013.2979	3034.7483	3083.8914	3105.1699	3117.7513	3257.2417	3277.1311	3505.977	3675.1118
CCC1=C(C=CN1)C#C	CCc1c(cc[nH]1)C#C	
InChI=1S/C8H9N/c1-3-7-5-6-9-8(7)4-2/h1,5-6,9H,4H2,2H3	InChI=1S/C8H9N/c1-3-7-5-6-9-8(7)4-2/h1,5-6,9H,4H2,2H3
