23
gdb 104457	2.44022	1.38293	1.26468	0.1871	81.41	-0.2525	0.0882	0.3406	1179.8433	0.205923	-425.445256	-425.435856	-425.434912	-425.478789	36.435	
C	-0.1524399044	 1.4075911733	-0.0023854552	-0.250002
O	 0.0079166129	 0.0003185636	 0.0018907247	-0.277767
C	 0.6874441282	-0.556224913	 1.1194678463	 0.452379
C	 0.0180251262	-0.2038568715	 2.4467830904	-0.439388
C	 0.6953579651	-2.0725240845	 0.8644539621	-0.220808
C	 1.5771580653	-2.4418959297	-0.3342735052	-0.210639
C	 2.9730475741	-1.8333506486	-0.1541728804	-0.198785
C	 2.8499881317	-0.3325756119	 0.0996142677	-0.07165
O	 2.0086540581	-0.0455585528	 1.2169755418	-0.286699
H	 0.7783284273	 1.922452437	 0.261873438	 0.123473
H	-0.440155194	 1.6860440713	-1.0194764165	 0.120347
H	-0.944970716	 1.7343651641	 0.684311418	 0.108805
H	-1.0338328935	-0.5010112095	 2.4270735028	 0.119626
H	 0.5204165996	-0.724697194	 3.264977244	 0.123496
H	 0.0839615309	 0.8683024684	 2.6443307891	 0.123024
H	 1.075787123	-2.5604720151	 1.7691211203	 0.095608
H	-0.3353389901	-2.4072015427	 0.7148612248	 0.101715
H	 1.6355872332	-3.5304358698	-0.4385319037	 0.089324
H	 1.1214562621	-2.0522465279	-1.2511379617	 0.111906
H	 3.4782370259	-2.3024148334	 0.6998392184	 0.098132
H	 3.5985637114	-2.0042439067	-1.0378711149	 0.091784
H	 3.8174073519	 0.1148283245	 0.3454826048	 0.099571
H	 2.4627766913	 0.1662726592	-0.8000890255	 0.096547
114.4543	141.5644	163.7758	187.6706	235.2368	284.7457	313.1837	326.2429	363.1211	417.1826	461.2093	513.723	575.2332	603.9837	725.5652	811.4886	854.9435	871.0408	885.1563	921.6872	978.4966	984.4111	1051.3004	1058.2867	1083.7023	1115.8452	1138.8315	1180.9775	1189.9398	1200.8724	1219.0611	1242.0457	1254.4424	1291.8154	1315.6066	1369.3164	1381.769	1385.7694	1405.6463	1415.9691	1468.35	1469.524	1479.8228	1482.6144	1488.4464	1490.3785	1502.6707	1506.3894	1515.6246	3005.5893	3006.564	3024.136	3038.9398	3041.2401	3054.5974	3068.6934	3070.0109	3081.2393	3086.047	3094.8702	3112.4743	3132.5438	3133.6101
COC1(C)CCCCO1	CO[C@@]1(C)CCCCO1	
InChI=1S/C7H14O2/c1-7(8-2)5-3-4-6-9-7/h3-6H2,1-2H3	InChI=1S/C7H14O2/c1-7(8-2)5-3-4-6-9-7/h3-6H2,1-2H3/t7-/m1/s1
