17
gdb 46582	2.87255	1.79513	1.40956	2.9633	73.58	-0.238	0.0083	0.2463	947.5363	0.138736	-417.964622	-417.957658	-417.956713	-417.995805	27.982	
N	 0.0437036429	 1.1942551019	 0.4886572124	-0.540009
C	-0.0210899745	 0.0618734893	-0.064102824	 0.326045
O	 0.9559858136	-0.4567297435	-0.9083548897	-0.259818
C	 0.8600494042	-1.9023810657	-0.9866545473	-0.174272
C	-0.5398998738	-2.2153358672	-0.5242158735	 0.199414
C	-1.1145426653	-3.0334364527	 0.6511898175	-0.269853
C	-1.7069168944	-1.703453216	 1.2508969688	-0.276354
C	-1.0867856146	-0.9513711839	 0.0637922679	 0.179163
N	-1.6433415779	-1.5209598655	-1.1825659106	-0.384105
H	 0.9374628741	 1.6433160181	 0.2814855028	 0.226929
H	 1.0892519725	-2.1840785303	-2.019005147	 0.124376
H	 1.6083592171	-2.3533239884	-0.3237826974	 0.121009
H	-1.8266617512	-3.8110071721	 0.3692970344	 0.118908
H	-0.3336616431	-3.4629887981	 1.2820728446	 0.112447
H	-2.7935239093	-1.6362731221	 1.3189545682	 0.12195
H	-1.2592330855	-1.4297183897	 2.2067723319	 0.126008
H	-1.2840388648	-0.9892871043	-1.9737536391	 0.248161
133.667	200.1079	242.206	308.336	381.6784	463.5066	562.2615	605.1299	659.0492	706.4948	739.9813	762.8413	781.7215	842.226	897.7629	925.7004	948.4912	955.8695	984.6746	1009.9501	1051.569	1089.9846	1115.8421	1130.3596	1201.2307	1220.7636	1231.0661	1238.2167	1262.7838	1329.8672	1367.2136	1376.5487	1403.8844	1466.2083	1483.8102	1514.8287	1776.1045	3032.6701	3073.5402	3082.5769	3087.3915	3128.7618	3150.5386	3475.0511	3495.5016
N=C1OCC23CCC12N3	[NH][C]1OC[C@@]23CC[C@@]12N3	
InChI=1S/C6H8N2O/c7-4-6-2-1-5(6,8-6)3-9-4/h7-8H,1-3H2	InChI=1S/C6H8N2O/c7-4-6-2-1-5(6,8-6)3-9-4/h7-8H,1-3H2/t5-,6+/m0/s1
