23
gdb 103301	2.20332	1.50418	1.36337	1.1957	85.55	-0.2554	0.0778	0.3332	1141.0366	0.205058	-388.242452	-388.232941	-388.231996	-388.276198	37.368	
C	-1.4668750812	-0.8558115773	 0.104707852	-0.376729
C	-0.143378054	-0.0922002215	-0.0537393098	-0.267045
C	 0.6993969134	-0.5280556277	-1.2723755319	 0.3514
C	 0.1242100523	 0.1591611746	-2.5171737784	-0.481589
C	 2.2686398347	-0.5757467545	-1.09316039	-0.10143
C	 2.091470069	-1.8186084988	-0.1683324857	-0.304812
C	 1.1438747152	-2.0289976989	-1.3911912819	 0.367203
O	 0.2491135813	-3.0623003794	-1.6205849012	-0.479373
C	 2.3497431296	-1.5791440865	-2.2787400159	-0.303636
H	-2.1003473394	-0.7629555363	-0.7830942689	 0.11668
H	-1.2906337271	-1.9229248637	 0.2641101737	 0.130914
H	-2.0359020606	-0.4692552456	 0.9564308319	 0.102962
H	-0.3580379218	 0.9784895477	-0.1640312509	 0.088091
H	 0.4246069752	-0.1759760195	 0.8759432834	 0.093779
H	 0.2849402669	 1.2416499432	-2.4554943871	 0.112672
H	 0.5441244844	-0.1843855777	-3.4623203249	 0.115066
H	-0.9567424106	-0.0027709766	-2.5731248377	 0.123358
H	 2.9286572232	 0.2717061575	-0.9172115555	 0.074998
H	 2.9550784078	-2.4874324447	-0.1145597345	 0.081169
H	 1.6443548403	-1.6833074968	 0.8144082475	 0.097855
H	 0.7410199539	-3.8897749468	-1.6613434731	 0.281274
H	 2.1530617246	-1.2136957464	-3.2840842692	 0.095405
H	 3.2171041529	-2.2454938145	-2.2699864018	 0.081787
78.0824	139.7395	147.2639	212.9689	226.9461	247.8551	314.2495	370.5177	404.5238	435.0618	482.4873	544.057	585.2073	656.9746	697.8691	753.7622	789.9344	807.6555	899.4545	913.6643	939.9721	954.9279	997.0447	1012.764	1023.735	1034.929	1064.7657	1081.2739	1111.4459	1124.2393	1134.5784	1180.7947	1194.7772	1209.2765	1228.3198	1242.3789	1290.0197	1312.8712	1362.6082	1378.6773	1411.7729	1420.2566	1481.1382	1492.6228	1500.0884	1504.4478	1508.4691	1525.9155	1559.0329	3027.1748	3039.0644	3041.6537	3060.8192	3067.5509	3079.272	3096.7559	3104.59	3120.2145	3131.9104	3133.8327	3151.3773	3160.3576	3803.9489
CCC1(C)C2CC1(O)C2	CC[C@@]1(C)[C@H]2C[C@]1(O)C2	
InChI=1S/C8H14O/c1-3-7(2)6-4-8(7,9)5-6/h6,9H,3-5H2,1-2H3	InChI=1S/C8H14O/c1-3-7(2)6-4-8(7,9)5-6/h6,9H,3-5H2,1-2H3/t6-,7-,8-/m0/s1
