22
gdb 6502	3.49097	1.27495	1.07623	1.4856	78.64	-0.2555	0.0698	0.3253	1202.8406	0.198402	-350.199523	-350.189905	-350.188961	-350.233648	36.27	
C	-0.039484226	 1.2025269541	 3.339679459	-0.400408
C	-0.1521584781	-0.2812524394	 2.9828193467	 0.135842
O	-1.5182605458	-0.6422976488	 2.7710618067	-0.428114
C	 0.6205837362	-0.6223535938	 1.7037350497	-0.257334
C	 0.8128541105	-2.1074531703	 1.4204493462	 0.387929
C	-0.4266537855	-2.8887479234	 1.0199922451	-0.453589
C	 2.1153701029	-2.5116976508	 0.7685647759	-0.315025
C	 1.8707192216	-2.8277888216	 2.2259647045	-0.293632
H	-0.4163388406	 1.8231991883	 2.5202890733	 0.123669
H	-0.6266898534	 1.432137247	 4.236739402	 0.10072
H	 0.9987356137	 1.4845337194	 3.5432417325	 0.113283
H	 0.2665608749	-0.8794125616	 3.8091536807	 0.065577
H	-2.0040512233	-0.4474907275	 3.5786436259	 0.278787
H	 0.1054845152	-0.143250182	 0.8602516135	 0.100126
H	 1.6069498818	-0.1497517056	 1.7803377619	 0.087188
H	-0.8717067483	-2.4701517485	 0.1093505693	 0.10842
H	-0.1763313176	-3.9354243026	 0.8176600583	 0.097708
H	-1.1887443964	-2.8540113276	 1.8009904121	 0.132934
H	 2.0955944816	-3.3315858256	 0.05799822	 0.105753
H	 2.8378716526	-1.7380990389	 0.5286646769	 0.102965
H	 2.4286801611	-2.2637339792	 2.966990194	 0.10093
H	 1.6904743927	-3.8609072915	 2.5040024461	 0.10627
48.9084	106.1874	177.4689	224.0767	240.9031	286.178	299.6243	306.4506	337.7421	392.3743	404.7264	471.4404	506.7523	725.1573	785.1561	843.2457	868.0481	888.6719	925.5888	940.6041	953.7371	984.4134	1030.8844	1051.2813	1074.6442	1078.0563	1102.2679	1124.3626	1143.4358	1187.9277	1206.6621	1289.8991	1310.6729	1341.7642	1366.1477	1391.4005	1404.7136	1421.4927	1426.0417	1462.4618	1469.7417	1487.7511	1493.0538	1498.436	1502.8458	1512.551	2962.7325	3017.2289	3025.5121	3028.2215	3062.888	3086.7268	3091.0328	3110.1433	3122.0515	3126.8413	3129.8494	3198.924	3213.5995	3816.6078
CC(O)CC1(C)CC1	C[C@@H](O)CC1(C)CC1	
InChI=1S/C7H14O/c1-6(8)5-7(2)3-4-7/h6,8H,3-5H2,1-2H3	InChI=1S/C7H14O/c1-6(8)5-7(2)3-4-7/h6,8H,3-5H2,1-2H3/t6-/m1/s1
