17
gdb 106016	3.35333	1.67915	1.45136	2.9875	69.9	-0.2388	0.0465	0.2853	922.96	0.137869	-417.899397	-417.892377	-417.891432	-417.931106	27.685	
O	 0.1145044377	 1.336893394	 0.0700291098	-0.429932
C	 0.0593827742	-0.0755542892	-0.0652887429	-0.178164
C	-1.353253744	-0.5614694893	-0.0195906333	 0.360064
C	-2.4374653242	-0.1220998633	 1.0116079576	-0.099077
N	-3.0164038621	 0.7841844298	-0.0101983028	-0.325989
C	-2.4976901156	-0.1770341307	-1.0123170323	-0.110078
C	-3.0023999367	-1.6098702357	-0.6905378353	-0.053949
C	-2.9591407173	-1.5701066192	 0.7952700672	-0.054808
N	-1.7547126009	-2.041813277	 0.0279331462	-0.213595
H	-0.7571421528	 1.6922084815	-0.1448310349	 0.29691
H	 0.5329165198	-0.4032866298	-1.0047416684	 0.098543
H	 0.6323609922	-0.5227660036	 0.7576594343	 0.112709
H	-2.2624710756	 0.2646036455	 2.0133434519	 0.091932
H	-4.0314941318	 0.8883806476	 0.0167473386	 0.215139
H	-2.3855695384	 0.152459464	-2.0440292359	 0.087101
H	-3.5867285144	-2.3015709075	-1.2844107547	 0.101562
H	-3.50678723	-2.2293418872	 1.4570980048	 0.101631
69.5771	145.3624	265.2066	292.4576	393.3135	494.1078	564.0533	661.4342	753.0057	764.0499	820.2284	827.7702	840.5709	854.3232	886.173	928.9406	945.5448	976.4335	1003.391	1033.8702	1040.7506	1068.646	1090.5091	1090.9192	1131.8246	1132.9714	1192.8672	1216.3533	1238.1233	1265.1058	1284.7839	1327.8628	1336.9211	1342.4942	1371.8569	1457.3881	1517.8153	2977.951	3035.3072	3132.782	3144.5483	3188.4561	3200.0971	3444.6251	3766.6394
OCC12C3NC1C1C3N21	OC[C@@]12[C@H]3N[C@@H]1[C@@H]1[C@H]3N21	
InChI=1S/C6H8N2O/c9-1-6-4-2-3(8(2)6)5(6)7-4/h2-5,7,9H,1H2	InChI=1S/C6H8N2O/c9-1-6-4-2-3(8(2)6)5(6)7-4/h2-5,7,9H,1H2/t2-,3+,4+,5-,6-,8?
