18
gdb 124834	4.33822	0.97659	0.84774	5.0689	74.2	-0.2489	0.0086	0.2575	1357.9889	0.14812	-435.266198	-435.257436	-435.256492	-435.300447	31.802	
C	-0.1354240128	 1.492725227	-0.1075863523	-0.399874
C	 0.1632803846	-0.0056369931	-0.1418521843	 0.110674
O	 1.297072074	-0.2931588503	-0.9571872785	-0.430647
C	 0.5001301278	-0.5360840898	 1.2521958292	-0.141891
N	 0.584112535	-1.9838821696	 1.3074648887	 0.067785
C	 1.4819771773	-2.8222526764	 0.7368050716	-0.093705
C	 1.0610216845	-4.0735078053	 1.1171641298	-0.071322
N	-0.0540117652	-3.9446341645	 1.887928057	-0.193849
N	-0.342927364	-2.6806282534	 2.0034780087	-0.153349
H	 0.7193951675	 2.0465262322	 0.2931864825	 0.129872
H	-0.3352927789	 1.8643846417	-1.1178789454	 0.115259
H	-1.0153274065	 1.7073783468	 0.5071627134	 0.126933
H	-0.7186717128	-0.5520157998	-0.5086737579	 0.09314
H	 1.0666644189	-0.111090751	-1.8733152337	 0.28972
H	 1.4525961164	-0.1033005858	 1.5763062805	 0.131682
H	-0.2768735097	-0.2551675666	 1.9647292104	 0.143946
H	 2.287653161	-2.4592992777	 0.1239781632	 0.154666
H	 1.485038553	-5.0378344244	 0.8887133272	 0.120961
47.8376	87.9014	122.6289	228.4859	260.7246	288.6266	317.6936	337.9441	462.8837	466.2401	654.968	717.4862	764.4815	801.988	857.29	862.3064	914.8592	947.2735	963.2551	1041.0588	1067.5781	1085.0039	1120.7804	1123.8834	1140.8971	1180.0367	1265.7296	1294.2505	1324.4043	1347.5429	1356.757	1393.4663	1408.0561	1429.1536	1462.4712	1491.0346	1498.3549	1501.9674	1524.2478	2996.0066	3034.9663	3057.9696	3105.3805	3115.2478	3137.9923	3270.5598	3309.6944	3827.9687
CC(O)CN1C=CN=N1	C[C@@H](O)Cn1ccnn1	
InChI=1S/C5H9N3O/c1-5(9)4-8-3-2-6-7-8/h2-3,5,9H,4H2,1H3	InChI=1S/C5H9N3O/c1-5(9)4-8-3-2-6-7-8/h2-3,5,9H,4H2,1H3/t5-/m1/s1
