17
gdb 17117	6.61295	1.15697	1.05299	3.0677	70.84	-0.2578	0.0321	0.2899	1120.5977	0.142821	-363.851576	-363.844164	-363.84322	-363.883791	27.813	
N	 0.0156768309	 1.0945373763	 0.5922234633	-0.540672
C	-0.023062932	-0.0228649859	 0.0246279979	 0.435059
C	-1.1205759251	-1.0011088697	-0.3330865625	-0.383862
C	 0.0316283203	-1.8284911296	-0.9496656372	 0.122968
O	 0.9879934511	-0.7918787075	-0.5121887065	-0.265776
C	 0.3377545974	-3.1722476831	-0.3742263136	 0.014753
C	-0.1589482564	-4.4091940511	-1.0877014575	-0.271973
C	 1.3112293368	-4.0878033573	-1.0737925518	-0.266197
H	 0.9722476806	 1.4500733311	 0.6399131405	 0.226044
H	-1.6157917214	-1.4622364627	 0.5237356824	 0.135638
H	-1.8720316019	-0.6208078314	-1.0263162315	 0.136236
H	 0.0222447988	-1.8645696059	-2.0443412696	 0.086896
H	 0.3357940188	-3.2011402797	 0.712026799	 0.091667
H	-0.5182048413	-5.2330580337	-0.4821162244	 0.120355
H	-0.6998446447	-4.2754854887	-2.0188835522	 0.116689
H	 1.7644455745	-3.7346978913	-1.9940341474	 0.121029
H	 1.9677884435	-4.6924256698	-0.459004299	 0.121146
76.2856	83.362	186.0006	285.9049	363.5624	397.1757	494.8643	516.2872	726.9562	770.4472	807.2661	832.0506	867.3917	909.1433	919.8318	946.2035	961.0595	980.7851	1031.1286	1050.3926	1063.2921	1082.2133	1106.7096	1133.242	1196.616	1220.4888	1221.2205	1232.1666	1250.037	1316.1391	1333.4798	1442.5782	1465.6068	1471.0552	1506.6648	1825.0681	3051.7626	3086.5661	3134.8974	3139.046	3141.4731	3147.4716	3214.3426	3229.0347	3473.8357
N=C1CC(O1)C1CC1	[NH][C]1C[C@@H](O1)C1CC1	
InChI=1S/C6H9NO/c7-6-3-5(8-6)4-1-2-4/h4-5,7H,1-3H2	InChI=1S/C6H9NO/c7-6-3-5(8-6)4-1-2-4/h4-5,7H,1-3H2/t5-/m1/s1
