21
gdb 110245	2.25167	1.32587	0.95816	3.3016	83.93	-0.2339	0.0155	0.2495	1310.1305	0.181696	-387.051552	-387.04221	-387.041266	-387.08638	34.712	
C	 0.270204539	 1.5511601298	-0.219952467	-0.385748
C	-0.555982555	 0.5299464761	 0.5736631179	-0.235848
C	 0.3000792743	-0.1516143874	 1.6487141807	 0.06008
C	-0.2586449998	-1.0353239308	 2.8359944595	-0.23256
C	-0.3880409151	-2.2620713082	 1.8572218654	 0.04841
C	-1.609535405	-2.4513072718	 0.9590829732	-0.447462
C	 0.9624692613	-1.5637045915	 1.4175500363	-0.217622
C	 1.2049043611	-1.4961660432	 2.9337144453	 0.449441
O	 2.0595547098	-1.6907168413	 3.7414996465	-0.329397
H	 1.1223616966	 1.0715584803	-0.7137409027	 0.120731
H	-0.3370268884	 2.0311319053	-0.9933137791	 0.114728
H	 0.6650229499	 2.3373301058	 0.4324938459	 0.120321
H	-1.4018311087	 1.0410804533	 1.0507101248	 0.102765
H	-0.976937708	-0.1907711254	-0.1270514115	 0.110721
H	 1.0161323699	 0.5949115597	 2.0136501894	 0.085503
H	-0.9413349355	-0.7355863491	 3.6296012347	 0.085273
H	-0.1949848999	-3.2198895459	 2.3533844202	 0.090475
H	-1.3415786488	-2.9859885574	 0.0412455693	 0.122997
H	-2.3421730006	-3.0689204485	 1.4892466037	 0.121934
H	-2.113796018	-1.5276014014	 0.6824241291	 0.129613
H	 1.645296701	-1.8638301186	 0.6242354783	 0.085644
38.3559	95.7233	133.6959	175.9208	241.8654	248.8379	282.9766	353.941	367.0981	507.8215	539.5282	683.0219	711.7005	719.4213	743.0599	793.318	831.4327	876.9466	967.4803	985.8164	1027.6486	1038.5111	1054.7413	1074.7918	1083.4287	1102.3014	1113.2274	1121.3224	1147.0867	1191.0205	1206.1193	1241.2601	1263.0133	1307.1398	1340.495	1410.1189	1412.9058	1428.1067	1462.2429	1486.3867	1494.9837	1499.7393	1505.312	1514.5729	1915.8332	3022.9133	3030.0226	3032.1479	3032.7915	3043.9966	3093.6378	3094.1868	3106.0806	3126.7518	3131.2236	3135.1123	3166.3677
CCC1C2C(C)C1C2=O	CC[C@H]1[C@H]2[C@@H](C)[C@@H]1C2=O	
InChI=1S/C8H12O/c1-3-5-6-4(2)7(5)8(6)9/h4-7H,3H2,1-2H3	InChI=1S/C8H12O/c1-3-5-6-4(2)7(5)8(6)9/h4-7H,3H2,1-2H3/t4-,5+,6-,7+
