25
gdb 95076	2.18009	1.80586	1.22749	0.0797	91.47	-0.2692	0.0789	0.3481	1157.4355	0.231359	-352.369971	-352.36134	-352.360396	-352.402277	35.999	
C	 0.0457279747	 1.5812134068	-0.0728671499	-0.414006
C	 0.0139346629	 0.052018306	 0.050883969	 0.002911
C	 0.5775546347	-0.5802562462	-1.2498746475	-0.203987
C	 1.1340885429	-2.0101813142	-1.071916136	-0.216148
C	 1.6811324308	-2.1969506135	 0.3501983169	-0.004073
C	 2.2431872592	-0.8588928452	 0.9133913082	-0.26769
C	 0.7680740287	-0.5012701014	 1.2939787958	 0.352515
C	 0.5254410733	 0.2898373813	 2.5706714917	-0.485645
C	 0.5165878489	-2.0379260388	 1.3593018807	-0.249791
H	 1.0765518381	 1.9554228637	-0.0890061847	 0.112171
H	-0.4314440069	 1.8974808217	-1.0069234149	 0.108292
H	-0.4785213677	 2.07587965	 0.749355132	 0.112217
H	-1.0374742965	-0.2489624519	 0.1669771671	 0.06492
H	-0.1811488594	-0.5506219991	-2.0391882843	 0.089665
H	 1.3922666756	 0.0629976284	-1.6028184917	 0.097709
H	 0.355264901	-2.761976292	-1.2521472563	 0.0921
H	 1.9169022058	-2.1898642697	-1.8182060194	 0.088496
H	 2.3062630902	-3.0896698746	 0.4314352253	 0.053784
H	 2.84538687	-1.0265865627	 1.8113198265	 0.088211
H	 2.7938210974	-0.1925863598	 0.2425107553	 0.086128
H	 0.9321467818	 1.3046994592	 2.5124404326	 0.114728
H	-0.5461389325	 0.3739910854	 2.7903436255	 0.109325
H	 0.9998601906	-0.2073430938	 3.4236647719	 0.104443
H	-0.4705406991	-2.4090809912	 1.0617746744	 0.079914
H	 0.7680451153	-2.4394919985	 2.3460067717	 0.083813
127.6306	208.5326	239.15	253.2133	311.5464	325.5482	345.4394	391.2832	419.2082	442.9648	503.3743	553.4132	653.1949	752.4402	807.6554	833.9251	846.744	884.1237	902.1223	924.7975	930.7271	978.112	997.5459	1008.8705	1040.5847	1056.5263	1060.898	1096.0878	1111.1567	1131.7515	1156.56	1208.0485	1209.4699	1236.7689	1242.781	1276.5776	1289.9772	1296.4407	1326.2758	1349.7415	1361.7249	1371.0779	1383.7549	1406.3475	1413.7029	1476.8085	1488.153	1492.1823	1492.7702	1496.5658	1500.2124	1511.1918	1518.1774	2990.9009	3018.245	3019.8625	3024.5444	3028.8241	3030.6806	3045.7586	3052.8298	3070.5979	3071.8171	3082.3911	3085.9996	3088.717	3093.4272	3096.6461	3109.7308
CC1CCC2CC1(C)C2	C[C@H]1CC[C@H]2C[C@]1(C)C2	
InChI=1S/C9H16/c1-7-3-4-8-5-9(7,2)6-8/h7-8H,3-6H2,1-2H3	InChI=1S/C9H16/c1-7-3-4-8-5-9(7,2)6-8/h7-8H,3-6H2,1-2H3/t7-,8-,9+/m0/s1
