17
gdb 13129	4.40536	1.0564	0.90076	2.7037	65.7	-0.2447	-0.0278	0.2169	1247.0645	0.141242	-400.982189	-400.973682	-400.972738	-401.015985	30.101	
O	 0.3050240615	 1.3411032315	-0.2579253181	-0.416994
C	 0.1149487137	-0.0331173427	 0.034051425	-0.063616
C	-1.3179649538	-0.5022993096	-0.2264709386	-0.193964
C	-1.5079603306	-1.9872441317	 0.0590722959	-0.102605
N	-1.4767212574	-2.3837312724	 1.50043799	-0.327465
C	-2.7557477383	-3.1387340961	 1.4058736997	-0.284037
C	-2.9406101206	-2.5504087275	-0.0022614193	 0.385976
O	-3.8296972579	-2.5046221693	-0.7969165115	-0.2844
H	-0.2323464323	 1.8494850287	 0.3579028981	 0.282666
H	 0.8090583607	-0.5726073892	-0.621237919	 0.107174
H	 0.3955252688	-0.2675171399	 1.0723836626	 0.098391
H	-2.0091108577	 0.0681349141	 0.4073090621	 0.094365
H	-1.5855918098	-0.3006782284	-1.269827885	 0.121491
H	-0.8376795771	-2.5855081902	-0.5792688981	 0.09526
H	-0.6831615254	-2.9621220265	 1.7486870297	 0.226558
H	-2.6667010907	-4.2338708944	 1.386936536	 0.12525
H	-3.5081311331	-2.8624164263	 2.1524938903	 0.135951
74.812	96.9471	110.3246	134.5544	253.5567	297.7033	352.6589	392.5894	515.034	550.0623	655.6867	745.4118	800.0892	820.8098	920.226	967.5827	1005.0948	1035.1407	1066.7278	1080.7163	1087.8264	1104.0956	1127.3034	1186.1739	1214.7261	1262.3999	1306.9313	1317.4568	1361.0262	1370.0245	1402.2591	1420.3256	1473.7543	1475.1523	1513.4633	1914.4671	2977.0868	2988.7598	3012.9016	3026.3254	3056.8062	3071.2013	3086.335	3549.3851	3816.3189
OCCC1NCC1=O	OCC[C@H]1NCC1=O	
InChI=1S/C5H9NO2/c7-2-1-4-5(8)3-6-4/h4,6-7H,1-3H2	InChI=1S/C5H9NO2/c7-2-1-4-5(8)3-6-4/h4,6-7H,1-3H2/t4-/m1/s1
