17
gdb 7853	3.84319	1.31374	1.25899	2.2648	64.93	-0.2592	0.056	0.3151	1046.6674	0.141251	-401.031981	-401.023314	-401.022369	-401.066077	31.247	
C	-0.1683603447	 1.3986094385	 0.4336389753	-0.409011
C	 0.079841115	-0.0721553461	 0.1871317029	-0.011515
C	 1.4270254426	-0.5509733934	-0.3270371528	-0.338129
C	 1.0011963644	-0.8642777594	 1.0717410361	 0.146363
O	 1.7243184329	-0.1917701037	 2.0847905201	-0.264211
C	 1.1737140244	-0.262058058	 3.3292335978	 0.49449
N	 1.9282779098	 0.4713850532	 4.2023999032	-0.56517
O	 0.16511977	-0.8638997649	 3.6066632992	-0.393762
H	 0.727045862	 1.8906908015	 0.8229285218	 0.122089
H	-0.4577715381	 1.9073351373	-0.4918596774	 0.115967
H	-0.971943822	 1.5426684906	 1.1636622442	 0.12857
H	-0.7864987446	-0.6249489485	-0.1666017947	 0.091468
H	 1.473419103	-1.3588762342	-1.0486640897	 0.115362
H	 2.2022454573	 0.200108167	-0.4382859436	 0.120136
H	 0.7260525042	-1.8745306602	 1.3497571883	 0.115118
H	 2.860325192	 0.7344018555	 3.9303904817	 0.263921
H	 1.7513368017	 0.3110488648	 5.1791177477	 0.268314
29.5549	81.8674	163.3075	199.6914	237.3242	325.6206	362.7306	393.4159	453.6792	509.4333	566.1917	669.8905	782.2281	783.9325	812.073	834.559	903.9989	959.2845	1025.7618	1053.7201	1096.2358	1105.4985	1117.171	1139.2745	1177.3473	1191.6168	1244.2975	1338.1588	1388.0529	1416.5693	1420.1251	1486.3669	1494.6955	1504.404	1611.5309	1841.3394	3035.2105	3096.0348	3112.6056	3133.6059	3144.0114	3182.8026	3221.4923	3613.1364	3742.0391
CC1CC1OC(N)=O	C[C@H]1C[C@H]1OC(=O)N	
InChI=1S/C5H9NO2/c1-3-2-4(3)8-5(6)7/h3-4H,2H2,1H3,(H2,6,7)	InChI=1S/C5H9NO2/c1-3-2-4(3)8-5(6)7/h3-4H,2H2,1H3,(H2,6,7)/t3-,4+/m0/s1
