23
gdb 95778	2.13221	1.57421	0.98121	2.7222	85.55	-0.233	-0.0085	0.2245	1285.0802	0.206271	-388.346141	-388.336668	-388.335724	-388.380098	36.257	
C	-0.1380868863	 1.5453833846	 0.0022917552	-0.397865
C	 0.0547368043	 0.0302838999	 0.0214897587	-0.072172
C	 0.7253294474	-0.5058918602	-1.266043607	-0.192018
C	 0.9330865604	-2.0231484587	-1.2201312183	-0.217343
C	 1.7461819726	-2.4351771993	 0.0113100486	-0.192017
C	 1.0993554869	-1.9438524724	 1.3285545236	-0.072173
C	 1.9103351541	-2.3257123183	 2.5653140477	-0.397863
C	 0.8564186336	-0.4352905491	 1.2393880529	 0.379057
O	 1.2833881134	 0.3384893058	 2.0668361213	-0.315479
H	 0.8249599771	 2.0589561795	-0.0723105424	 0.125079
H	-0.7550458688	 1.8433422399	-0.8512573643	 0.10419
H	-0.6196657228	 1.8934618086	 0.9191107291	 0.125506
H	-0.9283707117	-0.4604631905	 0.0986318963	 0.08692
H	 0.1167665619	-0.2243082577	-2.1327951119	 0.098352
H	 1.6957325214	-0.0059392807	-1.3924565246	 0.102991
H	-0.0435747916	-2.5258221133	-1.198821121	 0.094881
H	 1.4364564079	-2.3610931743	-2.1328400727	 0.096913
H	 1.8627596014	-3.5240552836	 0.0519300366	 0.098352
H	 2.7598089213	-2.0169180134	-0.0610384854	 0.102992
H	 0.1029358665	-2.4094392762	 1.3890698682	 0.08692
H	 2.906227031	-1.874203045	 2.5318469242	 0.12508
H	 1.4262084964	-1.9728977925	 3.4789754818	 0.125505
H	 2.0260472438	-3.4122635132	 2.6284114932	 0.10419
76.3464	124.9996	184.1138	193.7295	234.8793	272.2735	307.2902	315.1398	361.4702	400.157	414.5773	534.9545	591.5886	673.2456	760.0162	837.0485	852.4162	863.0081	911.4697	955.618	987.5949	988.069	1004.9797	1057.6951	1081.0524	1123.151	1137.7227	1143.7078	1147.4191	1175.7694	1245.096	1265.4317	1314.4545	1322.3289	1342.9911	1345.3584	1377.7484	1383.6631	1388.1325	1413.6096	1414.1038	1484.8543	1485.9401	1490.411	1490.6627	1493.9894	1494.7245	1503.6309	1801.5053	2980.4512	2991.0282	3011.9746	3014.654	3019.2329	3043.3192	3043.7783	3061.7227	3063.2934	3069.219	3111.8295	3112.2915	3124.5664	3124.8512
CC1CCCC(C)C1=O	C[C@H]1CCC[C@@H](C)C1=O	
InChI=1S/C8H14O/c1-6-4-3-5-7(2)8(6)9/h6-7H,3-5H2,1-2H3	InChI=1S/C8H14O/c1-6-4-3-5-7(2)8(6)9/h6-7H,3-5H2,1-2H3/t6-,7+
