20
gdb 16981	3.66229	2.11965	2.03589	0.0704	79.18	-0.2297	0.0858	0.3155	801.3322	0.180577	-311.788041	-311.781918	-311.780973	-311.817689	26.875	
C	-0.0178674568	 1.6058027676	-0.3038736675	-0.297559
C	 1.5260326295	 1.457266184	 0.0768041863	-0.325982
C	 1.0733429494	 0.2505056894	 0.9565948736	 0.316641
C	 1.0414626248	-1.3088456312	 1.1367338557	-0.323245
C	-0.539109543	-1.0316709261	 1.068810379	-0.078419
C	-0.7782607575	-0.2722660082	 2.3775572582	-0.202304
C	 0.4479414561	 0.6852733154	 2.3134957611	-0.232201
C	-0.1098179455	 0.0753731227	 0.0339538165	 0.048879
H	-0.5465821596	 2.2748163044	 0.3763013668	 0.111729
H	-0.2499441305	 1.8935282847	-1.3320582845	 0.095626
H	 2.1111847817	 1.1649212374	-0.7990196279	 0.104924
H	 2.0156291354	 2.3013356679	 0.571442835	 0.094456
H	 1.4051504085	-1.8630523448	 0.2698625912	 0.099759
H	 1.42717887	-1.7489631544	 2.0634477765	 0.085486
H	-1.2352588671	-1.8323146981	 0.8100040918	 0.058386
H	-1.7323641544	 0.2629832104	 2.3783096081	 0.094788
H	-0.7648829191	-0.9332303173	 3.249195616	 0.092613
H	 1.1572372686	 0.5198825296	 3.1306171594	 0.091504
H	 0.1641021434	 1.7394304318	 2.3439862952	 0.091875
H	 0.2209138161	-0.4464606051	-0.8711473607	 0.073045
222.8884	314.166	358.2685	417.7903	476.7148	566.9337	626.4155	665.0878	746.7079	791.9179	822.1595	828.3335	848.2891	869.609	918.1258	926.366	953.4285	981.2068	982.5849	1025.3929	1046.8033	1074.4253	1077.2381	1127.7964	1141.772	1157.6552	1184.3352	1193.5866	1211.345	1230.9922	1233.0081	1249.5364	1258.3156	1265.8094	1314.9939	1326.7973	1411.1562	1476.3465	1486.4061	1492.0111	1498.154	1524.226	3027.965	3035.8166	3046.6964	3050.9723	3056.0684	3071.1788	3085.2404	3092.9636	3104.7067	3108.0498	3124.662	3134.9365
C1CC23CC(CC2)C13	C1C[C@@]23C[C@@H](CC2)[C@@H]13	
InChI=1S/C8H12/c1-3-8-4-2-7(8)6(1)5-8/h6-7H,1-5H2	InChI=1S/C8H12/c1-3-8-4-2-7(8)6(1)5-8/h6-7H,1-5H2/t6-,7-,8-/m1/s1
