21
gdb 79804	3.97661	1.36805	1.17174	0.2866	87.84	-0.227	0.0211	0.2481	1120.758	0.185341	-349.923215	-349.915909	-349.914965	-349.954443	30.607	
C	-0.2316325841	 1.5977209362	-0.0334062761	-0.446314
C	-0.0073404039	 0.0934528763	 0.0244474543	 0.046061
C	 1.1638265474	-0.6055090441	-0.7308045831	-0.072997
C	 2.1458978983	-0.0745405961	 0.3676899872	 0.016489
C	 3.474455779	-0.7977717173	 0.588687552	-0.310864
C	 3.3015750925	-2.2908462939	 0.5836626427	-0.066057
C	 2.0794370657	-2.7840850583	 0.3976407423	-0.094781
C	 0.9294262384	-1.8444651597	 0.2016077532	-0.016533
C	 0.8702515034	-0.5778052974	 1.1243312398	-0.072934
H	 0.6805157761	 2.1847967082	 0.0992241778	 0.118378
H	-0.6674265024	 1.880361678	-0.9983082596	 0.11553
H	-0.9382342792	 1.9071609026	 0.7449417539	 0.115552
H	-0.9652464417	-0.4219102548	-0.1194127365	 0.057869
H	 1.337890951	-0.6376348337	-1.80906784	 0.06078
H	 2.2970456598	 1.0064444505	 0.3755074892	 0.057559
H	 4.1934451145	-0.4936424501	-0.1864809783	 0.105369
H	 3.9205315611	-0.4678473551	 1.5386824471	 0.105369
H	 4.1702772432	-2.9258709197	 0.7306417521	 0.084573
H	 1.8873261164	-3.8528966978	 0.3832341196	 0.082208
H	-0.0274801197	-2.3534394075	 0.0577776209	 0.053976
H	 0.7027799842	-0.5776681363	 2.2041191013	 0.060766
182.5592	191.1229	249.6098	267.6155	329.7643	477.9866	479.3788	540.6719	588.5418	698.0484	755.0559	765.5096	788.3539	803.0772	861.7338	895.0936	937.7358	971.1277	987.9363	991.1198	1016.4831	1020.8689	1052.1087	1062.2063	1068.556	1116.5784	1137.5937	1145.5937	1158.7753	1170.9589	1176.2604	1228.68	1233.4895	1264.4203	1269.7655	1324.9417	1364.052	1395.3443	1409.4176	1429.5909	1441.0746	1468.2964	1496.968	1503.6578	1716.3652	2994.7999	3014.2707	3022.4036	3032.8793	3066.8575	3078.1125	3079.6193	3087.3594	3090.557	3114.7934	3157.6978	3181.6615
CC1C2C3CC=CC2C13	C[C@H]1[C@H]2[C@@H]3CC=C[C@H]2[C@H]13	
InChI=1S/C9H12/c1-5-8-6-3-2-4-7(8)9(5)6/h2-3,5-9H,4H2,1H3	InChI=1S/C9H12/c1-5-8-6-3-2-4-7(8)9(5)6/h2-3,5-9H,4H2,1H3/t5-,6+,7-,8+,9-
