17
gdb 126882	4.0996	1.06472	0.90692	1.2716	81.98	-0.2281	-0.0706	0.1575	1288.1376	0.137215	-414.16427	-414.156095	-414.155151	-414.19753	30.23	
C	-0.2076472367	 1.4317139792	 0.113809371	-0.37096
C	 0.2548955957	-0.0233365331	-0.0548263888	-0.15955
N	 0.8866747731	-0.5437422746	 1.1461672698	-0.318224
C	 0.1771375742	-1.0659556436	 2.0710773009	 0.44213
N	-1.2267358376	-1.2136150117	 2.071073889	-0.311567
N	-2.0038678144	-1.7958721236	 3.0094940816	-0.035417
N	-1.4666228566	-2.2666649763	 4.055387905	-0.214213
C	-0.0836545978	-2.1670403441	 4.2041036869	 0.040746
C	 0.7344379629	-1.6066486007	 3.2925545367	-0.17232
H	 0.6330113576	 2.0586757252	 0.4231920654	 0.135215
H	-0.606392621	 1.8237237031	-0.8271904328	 0.116283
H	-0.9871039555	 1.52265715	 0.8781191281	 0.110978
H	-0.5896429454	-0.6456322217	-0.4027660359	 0.076376
H	 0.9984091168	-0.0649470901	-0.8580404625	 0.112216
H	-1.7703748411	-0.877088095	 1.2915918834	 0.27928
H	 0.285330587	-2.589184951	 5.1314965623	 0.134417
H	 1.8074661688	-1.5442290121	 3.42389006	 0.134612
70.4751	97.4581	165.4588	208.7439	280.4989	333.9524	404.0162	482.7806	536.8411	580.5319	658.2928	673.675	757.969	790.593	817.4718	868.8379	907.1525	988.6011	1013.7904	1027.3369	1057.2575	1103.4739	1117.419	1178.7854	1201.078	1261.9128	1297.0603	1362.2397	1390.4889	1404.6368	1435.3909	1489.7179	1499.9733	1527.3187	1556.8977	1640.5188	1730.2246	2930.8881	3035.6705	3053.4859	3103.9472	3120.2226	3202.2124	3224.1957	3640.95
CCN=C1NN=NC=C1	CC[N]c1[nH]nncc1	
InChI=1S/C5H8N4/c1-2-6-5-3-4-7-9-8-5/h3-4H,2H2,1H3,(H,6,7,8)	InChI=1S/C5H13N4/c1-2-6-5-3-4-7-9-8-5/h5,7-9H,2-4H2,1H3
