23
gdb 118984	2.57357	1.12669	1.01748	0.8717	88.11	-0.2411	0.0171	0.2582	1359.101	0.204604	-388.303855	-388.293952	-388.293008	-388.338978	37.103	
C	-0.353286363	 1.456419579	-0.2630185763	-0.37777
C	-0.073731155	-0.0371602632	-0.1927922171	-0.046298
O	-1.2943436554	-0.6897563778	 0.0972231383	-0.298832
C	-1.266859729	-2.124608927	 0.2427309857	 0.378452
C	-0.6152819089	-2.5061357935	 1.575902614	-0.444506
C	-2.7469015678	-2.5708436797	 0.1385537349	-0.243798
C	-2.9660973992	-2.9940811996	-1.3329779373	-0.261695
C	-1.5608473749	-3.2543768429	-1.8174164513	-0.072676
C	-0.6414133077	-2.805263664	-0.9658756984	-0.107543
H	 0.5635498403	 2.0075610981	-0.4940706952	 0.10937
H	-1.0932903716	 1.6700551823	-1.0396430936	 0.12344
H	-0.7466830956	 1.8190126142	 0.6910901221	 0.122258
H	 0.3385777912	-0.3894079698	-1.1506810269	 0.085817
H	 0.683423158	-0.2401386187	 0.5810630697	 0.081127
H	-1.1482327309	-2.0316618289	 2.4058231009	 0.119583
H	-0.6408300549	-3.5906991346	 1.7182672696	 0.115027
H	 0.4322788738	-2.192698867	 1.6207798277	 0.112824
H	-2.9140599006	-3.4287739054	 0.7966381674	 0.096398
H	-3.4039968568	-1.7621138716	 0.4640731155	 0.108942
H	-3.6122368081	-3.8744696397	-1.4234323621	 0.101233
H	-3.4400403035	-2.2014925726	-1.9268683308	 0.11476
H	-1.3495102289	-3.7390073759	-2.7653113243	 0.09369
H	 0.4315968083	-2.8757412516	-1.1062822824	 0.090197
56.7754	70.5454	121.6245	178.7715	227.8172	248.6417	255.5396	325.3317	353.2634	394.3855	430.6665	541.3705	623.122	711.909	771.6733	800.2372	825.3649	842.2447	864.8056	921.4457	949.4604	962.6316	978.1996	995.6866	1016.6974	1090.5554	1110.8317	1111.4934	1142.6086	1175.3345	1188.5153	1201.1282	1232.6549	1257.1156	1298.7416	1313.8014	1323.4362	1385.2433	1397.4774	1402.8673	1423.9779	1469.9157	1483.4356	1487.9331	1489.3844	1496.2093	1501.3654	1530.8953	1684.1745	2971.7595	3001.3088	3023.2216	3036.833	3042.3019	3052.4944	3066.2665	3106.3202	3111.5397	3116.0139	3119.4145	3120.0155	3174.6124	3201.3247
CCOC1(C)CCC=C1	CCO[C@@]1(C)CCC=C1	
InChI=1S/C8H14O/c1-3-9-8(2)6-4-5-7-8/h4,6H,3,5,7H2,1-2H3	InChI=1S/C8H14O/c1-3-9-8(2)6-4-5-7-8/h4,6H,3,5,7H2,1-2H3/t8-/m1/s1
