18
gdb 36310	3.36324	1.11983	1.06956	4.4911	75.27	-0.2631	0.0405	0.3036	1182.0213	0.149613	-401.954062	-401.94616	-401.945216	-401.987137	29.674	
N	 0.0126554972	-1.0373290334	-0.5162085259	-0.311518
C	 0.0046149917	 0.0503258418	-0.1254545101	 0.261587
C	 0.016054511	 1.4296964802	 0.3630094337	-0.381328
C	 1.3780333844	 2.0881916015	 0.1649254508	-0.015164
C	 1.8175817277	 2.7269491228	-1.1305261717	-0.068302
C	 0.7443150413	 3.1319620268	-2.1254440616	-0.105285
O	-0.2442521349	 3.8420403233	-1.3771939564	-0.253855
C	 0.3825317766	 4.4557842754	-0.2522453976	-0.09864
C	 1.5762265563	 3.5847133894	 0.0945975878	-0.104551
H	-0.7639826777	 1.9926844602	-0.1567685903	 0.178131
H	-0.2452631423	 1.4187993102	 1.4278146083	 0.148283
H	 2.1751242974	 1.5640911206	 0.6846465078	 0.10847
H	 2.8138426544	 2.5265267991	-1.5060135536	 0.100448
H	 1.1844282639	 3.7706390677	-2.9067807498	 0.10334
H	 0.2375087726	 2.2933345163	-2.6143198802	 0.125277
H	 0.7273488069	 5.4734741449	-0.4935769301	 0.102573
H	-0.3744865806	 4.5322508368	 0.5360765483	 0.111748
H	 2.3906650141	 4.0322108864	 0.6522499706	 0.098785
53.5946	116.4227	213.3682	227.5871	243.9394	395.5923	415.9799	473.2094	540.8302	686.2886	735.3119	777.0582	818.0895	885.4461	918.0742	928.7614	945.4314	988.8991	1000.1587	1026.0291	1057.3962	1094.767	1105.3363	1126.7534	1127.7094	1199.8306	1223.3946	1243.0087	1256.2917	1311.0227	1328.903	1358.1239	1361.9151	1395.3567	1450.1145	1476.001	1514.4775	1525.4741	2360.1187	2982.7255	2989.4094	3043.589	3061.3525	3071.7071	3099.6501	3150.0543	3178.4348	3189.5517
N#CCC1C2COCC12	N#CC[C@H]1[C@H]2COC[C@@H]12	
InChI=1S/C7H9NO/c8-2-1-5-6-3-9-4-7(5)6/h5-7H,1,3-4H2	InChI=1S/C7H9NO/c8-2-1-5-6-3-9-4-7(5)6/h5-7H,1,3-4H2/t5-,6+,7-
