21
gdb 119232	1.89163	1.35508	0.94182	2.8196	81.68	-0.2389	-0.0186	0.2203	1359.83	0.179195	-424.223801	-424.213478	-424.212534	-424.259431	37.098	
C	-0.0031131287	 1.5542802294	-0.1918899645	-0.386344
C	-0.1436417463	 0.0429971674	-0.2054856024	-0.0602
O	 0.912464936	-0.4849643686	-1.0136620467	-0.293148
C	 0.9044871296	-1.8574734629	-1.1714587164	 0.331232
C	-0.0790372825	-2.4812422462	-2.169956509	-0.355935
C	 1.3706063095	-2.3822453435	-2.5273991636	-0.058065
C	 1.8614505327	-1.4060963853	-3.5719617289	-0.402203
C	 1.2665394572	-2.6838216806	 0.0086557868	 0.12361
O	 1.5193311864	-2.2552464262	 1.107183337	-0.278325
H	 0.9634302677	 1.8439175295	 0.2293957625	 0.133685
H	-0.0729720613	 1.9618729683	-1.2047827169	 0.119954
H	-0.7945910983	 2.0009420729	 0.4173190599	 0.11658
H	-0.0718364012	-0.3658447207	 0.8079195363	 0.125449
H	-1.114849444	-0.2564433015	-0.6281793244	 0.084533
H	-0.5126627327	-3.4496321637	-1.9440572581	 0.121732
H	-0.7579998554	-1.7722150396	-2.6314377595	 0.131139
H	 1.928108586	-3.3146540371	-2.4779057955	 0.096708
H	 1.3223078899	-0.4596993016	-3.5023848531	 0.134568
H	 2.9270143421	-1.1941841381	-3.4400546783	 0.127591
H	 1.7194484041	-1.8190458739	-4.5760537215	 0.119696
H	 1.2870079192	-3.778767378	-0.2080924939	 0.067742
53.2189	108.4191	123.2549	140.9738	179.4947	215.1365	244.5267	261.2059	289.6806	358.7614	421.665	426.5057	543.7015	575.4646	751.3888	821.883	831.094	866.6154	906.1459	921.5787	951.9241	1019.0324	1045.2216	1054.8033	1066.8215	1096.093	1138.7757	1147.1492	1185.5774	1197.9708	1240.1004	1296.9669	1331.1138	1395.749	1400.5644	1418.4658	1424.9077	1442.3512	1476.8894	1483.1839	1491.963	1500.7435	1501.9947	1525.627	1817.195	2845.1335	2989.6681	3041.9025	3044.4346	3070.4461	3102.7022	3118.2153	3123.79	3128.1126	3132.7693	3144.8804	3223.3575
CCOC1(CC1C)C=O	CCO[C@]1(C[C@H]1C)C=O	
InChI=1S/C7H12O2/c1-3-9-7(5-8)4-6(7)2/h5-6H,3-4H2,1-2H3	InChI=1S/C7H12O2/c1-3-9-7(5-8)4-6(7)2/h5-6H,3-4H2,1-2H3/t6-,7-/m1/s1
