16
gdb 16354	2.60566	2.2985	1.42665	5.1054	66.11	-0.2383	0.0241	0.2623	890.0045	0.130539	-379.912841	-379.905023	-379.904079	-379.945135	28.687	
C	-0.05121771	 1.5740100612	-0.0215660392	-0.399956
C	 0.0467395003	 0.0568403918	 0.0303035496	-0.008172
N	 1.1234571573	-0.5414554114	-0.7761925222	-0.36726
C	 1.7722375406	-1.1804821465	 0.2614812024	 0.420675
O	 2.7409559795	-1.886427323	 0.315491694	-0.361829
C	 0.7573111324	-0.5917354144	 1.2446482359	 0.15864
C	 0.9575768493	-0.0645049325	 2.6110523802	-0.297653
N	 0.1863821216	-1.2995816785	 2.3810004647	-0.352588
H	 0.9157833126	 2.0335223657	 0.2016368954	 0.129265
H	-0.3750242967	 1.9128292113	-1.0114407515	 0.122267
H	-0.7867807697	 1.9365641164	 0.7047570914	 0.121104
H	-0.9306113112	-0.4012763514	-0.1735577441	 0.089098
H	 1.2845354335	-0.5515396706	-1.7716223587	 0.250806
H	 1.9146186749	-0.2114597937	 3.1029416101	 0.141742
H	 0.429328792	 0.8451632848	 2.8865749427	 0.117426
H	-0.8118433364	-1.1100337291	 2.4430419091	 0.236435
62.1735	181.4073	206.6388	227.2181	252.4028	308.3501	364.502	503.0111	526.4709	633.5047	727.7057	739.6233	816.729	891.6419	899.7649	950.6987	979.8212	1013.7312	1055.5564	1076.3057	1124.764	1139.9313	1168.8304	1224.2827	1258.7175	1298.6353	1365.7651	1386.3133	1409.5705	1425.8898	1489.0674	1495.5559	1510.2672	1902.5519	3011.2177	3033.5488	3097.8152	3107.5201	3118.7031	3198.0314	3489.2383	3626.5687
CC1NC(=O)C11CN1	C[C@H]1NC(=O)[C@]21CN2	
InChI=1S/C5H8N2O/c1-3-5(2-6-5)4(8)7-3/h3,6H,2H2,1H3,(H,7,8)	InChI=1S/C5H8N2O/c1-3-5(2-6-5)4(8)7-3/h3,6H,2H2,1H3,(H,7,8)/t3-,5-/m1/s1
