19
gdb 37058	3.11469	1.74052	1.48029	1.503	78.56	-0.2155	0.016	0.2314	955.0956	0.161929	-385.883432	-385.876553	-385.875608	-385.914254	28.864	
C	 0.020304137	 1.4434128313	-0.0185035484	-0.395611
C	 1.3590997291	 0.7179955226	-0.0148626037	 0.258788
C	 1.9994434451	 0.4710927369	 1.3398811235	-0.324738
C	 0.8353233848	-0.1366052922	 2.1746729711	-0.097409
O	-0.0942838797	-0.7212690916	 1.2540689514	-0.30626
C	 0.0752688027	-0.0687383843	 0.027002372	 0.41111
C	-0.0145773946	-0.8112415217	-1.256881473	-0.177546
C	 1.0331696228	-0.5167824065	-2.03482987	-0.06284
C	 2.0205096618	 0.4283949996	-1.3617215057	-0.369482
H	-0.2685555867	 1.976971292	 0.8814502396	 0.112159
H	-0.3054877808	 1.9090742045	-0.9426518883	 0.112946
H	 2.8133081015	-0.2532371437	 1.2260565464	 0.107787
H	 2.4112231298	 1.3604232989	 1.8275907001	 0.103599
H	 1.160719038	-0.9179291145	 2.8673400948	 0.111217
H	 0.3347752628	 0.645145174	 2.7626334691	 0.100636
H	-0.8407671743	-1.4613282328	-1.5184624017	 0.102149
H	 1.1710760543	-0.869214117	-3.0520175251	 0.094924
H	 2.1847880357	 1.3351664753	-1.957665861	 0.111208
H	 3.0063435207	-0.0413233907	-1.242392001	 0.107364
183.1809	194.6027	283.2523	335.5867	421.7501	465.5296	548.6318	592.0227	617.2374	715.5038	760.2866	781.5249	820.8508	870.8156	900.7827	909.8656	928.0177	936.4144	940.7056	962.6601	985.2323	1036.7145	1042.3838	1061.1414	1110.3749	1137.1508	1177.8466	1221.8263	1230.8195	1245.0717	1254.0729	1291.1852	1334.5813	1365.4902	1379.8841	1402.7364	1468.3385	1478.893	1497.2554	1526.4124	1655.2633	3004.7546	3014.3388	3041.545	3044.644	3077.6952	3090.6803	3125.0538	3180.8784	3212.9008	3214.4452
C1C23CCOC12C=CC3	C1[C@@]23CCO[C@@]12C=CC3	
InChI=1S/C8H10O/c1-2-7-4-5-9-8(7,3-1)6-7/h1,3H,2,4-6H2	InChI=1S/C8H10O/c1-2-7-4-5-9-8(7,3-1)6-7/h1,3H,2,4-6H2/t7-,8+/m1/s1
