19
gdb 17544	4.30189	1.75754	1.6504	1.5123	74.12	-0.2257	0.0947	0.3204	869.3639	0.167868	-327.896005	-327.889254	-327.88831	-327.926571	27.658	
C	 0.0597327285	 1.4802385107	 0.7351246344	-0.249676
C	 1.212499691	 0.8534208076	 0.0389871353	-0.007466
C	 2.1716473781	 0.0146404351	 0.8706364954	-0.300184
C	 1.2362721736	-0.8641280852	 1.7000805461	 0.354012
C	 1.7324251598	-1.9944913159	 2.5545071172	-0.342424
C	 1.1833733316	-0.7475854772	 3.2052516245	-0.300738
C	-0.043802857	-0.976618198	 0.8662087232	-0.227613
N	-0.1243162257	 0.2171384741	 0.0029601159	-0.099682
H	 0.0429367805	 1.4621311052	 1.8218380792	 0.117455
H	-0.4416223912	 2.3338008153	 0.2880092342	 0.111339
H	 1.5702884563	 1.2730519799	-0.8970070911	 0.086519
H	 2.7940290644	-0.5951989885	 0.2035222922	 0.10457
H	 2.8461194787	 0.6165829587	 1.4883969368	 0.103236
H	 1.1352868264	-2.9001047626	 2.6001128339	 0.111851
H	 2.8025758598	-2.1688691369	 2.6034855809	 0.111591
H	 1.883029412	-0.0755425728	 3.6926360388	 0.109748
H	 0.2146789342	-0.8106795328	 3.691794463	 0.110173
H	 0.0009404912	-1.8506764492	 0.2045618185	 0.104694
H	-0.9470675022	-1.0691052674	 1.4790419017	 0.102595
119.3372	247.3327	284.6975	366.3164	388.2601	398.6439	527.3676	652.2858	751.1858	783.2462	784.9029	827.0585	881.5717	884.4388	917.9745	937.6477	968.469	986.43	1003.6245	1049.1689	1056.5203	1080.3769	1089.3071	1108.6935	1115.6211	1167.3432	1188.7048	1196.5927	1229.4517	1263.4091	1274.8847	1306.1726	1324.8657	1372.5912	1398.6827	1467.9821	1489.1753	1492.9594	1504.4155	1508.3246	3022.5444	3026.9561	3070.3975	3073.9711	3108.8653	3117.5451	3123.0332	3146.0632	3193.7064	3195.5306	3210.7789
C1C2CC3(CC3)CN12	C1[C@H]2CC3(CC3)CN12	
InChI=1S/C7H11N/c1-2-7(1)3-6-4-8(6)5-7/h6H,1-5H2	InChI=1S/C7H11N/c1-2-7(1)3-6-4-8(6)5-7/h6H,1-5H2/t6-,8?/m1/s1
