15
gdb 132778	2.29775	1.84307	1.02373	2.0859	72.7	-0.2044	0.015	0.2194	1076.3209	0.113479	-461.977327	-461.969623	-461.968679	-462.009047	30.548	
N	-0.0566123501	 1.400167591	-0.1455627784	-0.598196
C	 0.0222726257	 0.0118416721	-0.0600292402	 0.215826
C	-1.1419763174	-0.7522782735	-0.0783587085	 0.088456
F	-2.3468479476	-0.1213025012	-0.1086856789	-0.116573
C	-1.141729997	-2.1425168145	-0.0564681709	 0.299718
O	-2.310408786	-2.8362473271	-0.0729321408	-0.43982
C	 0.0774777191	-2.8158854248	-0.0117959617	-0.243319
C	 1.253887229	-2.0720986932	 0.0122080201	-0.077641
C	 1.2398319467	-0.681256108	-0.0111561414	-0.221039
H	 0.7210131579	 1.8893956732	 0.2723195981	 0.250761
H	-0.9446506383	 1.782270066	 0.1454945776	 0.253214
H	-3.0328866663	-2.1978743636	-0.1099886577	 0.301181
H	 0.080536065	-3.8985141124	 0.00493974	 0.105262
H	 2.2064458743	-2.5896876588	 0.0497745403	 0.095693
H	 2.1674716549	-0.1189240351	 0.0018234123	 0.086477
158.3329	244.4415	285.2635	290.8873	300.027	324.4599	432.2033	499.5427	508.6072	535.4957	571.5091	582.7794	639.0373	703.3509	710.9128	776.5658	828.1597	844.3126	935.9177	1021.6707	1072.5173	1150.1803	1178.1807	1210.6354	1267.1788	1321.9802	1368.2752	1403.6405	1523.1827	1548.5836	1640.0825	1645.5988	1673.5461	3175.0805	3191.2546	3212.9484	3567.5085	3669.2651	3798.35
NC1=C(F)C(O)=CC=C1	Nc1c(F)c(O)ccc1	
InChI=1S/C6H6FNO/c7-6-4(8)2-1-3-5(6)9/h1-3,9H,8H2	InChI=1S/C6H6FNO/c7-6-4(8)2-1-3-5(6)9/h1-3,9H,8H2
