17
gdb 48041	7.99592	0.42981	0.41097	3.4028	87.6	-0.2656	-0.0606	0.205	2473.5462	0.132176	-384.637814	-384.627371	-384.626427	-384.67591	34.925	
O	-0.0771016557	-0.1128250739	 0.0022039343	-0.228717
C	-0.0149295955	 1.0955124823	 0.0072867833	 0.016532
C	 1.2103117967	 1.8512844214	 0.00001485	 0.081714
C	 2.2236496994	 2.5092198263	-0.0058913328	 0.052239
C	 3.4406854776	 3.3053742609	-0.0129035105	-0.367451
C	 3.1805663798	 4.8241660903	-0.0025518723	-0.170816
C	 4.4961718676	 5.6266395333	-0.0103562767	-0.355236
C	 4.2743953185	 7.0667894189	-0.0008225677	 0.28058
C	 4.063004036	 8.2497231528	 0.0072841703	-0.421588
H	-0.9317796926	 1.7198089491	 0.0183244504	 0.098118
H	 4.0518441513	 3.0241263448	 0.8557607087	 0.145997
H	 4.0356962753	 3.0333291552	-0.8955974281	 0.145999
H	 2.5787878845	 5.0993114008	-0.8738520312	 0.128336
H	 2.5948290978	 5.0900926161	 0.8824340311	 0.128338
H	 5.1035331777	 5.343553707	 0.8598300891	 0.133869
H	 5.0875413597	 5.3527065454	-0.8943780871	 0.133866
H	 3.888397612	 9.2970717491	 0.0143876892	 0.19822
17.6559	52.7196	75.0594	89.7014	131.9952	190.4009	205.5604	287.1608	344.5268	408.34	439.6352	548.7667	599.8951	622.9661	643.9355	735.1962	828.9558	835.4484	960.5778	1022.1133	1031.4005	1036.3731	1076.3719	1160.3771	1171.642	1259.1014	1292.5256	1319.6147	1348.5758	1385.8141	1423.3565	1458.7193	1473.5118	1499.6138	1766.9645	2241.5924	2330.9487	2916.2227	3011.9811	3013.8925	3041.0068	3042.757	3061.1314	3107.5051	3506.8149
O=CC#CCCCC#C	O=CC#CCCCC#C	
InChI=1S/C8H8O/c1-2-3-4-5-6-7-8-9/h1,8H,3-5H2	InChI=1S/C8H8O/c1-2-3-4-5-6-7-8-9/h1,8H,3-5H2
