15
gdb 81261	2.86699	1.50607	1.22883	4.3335	66.12	-0.2321	-0.0796	0.1524	1004.5303	0.112829	-457.763088	-457.755712	-457.754768	-457.794857	28.419	
O	-0.0212731223	 1.390949244	-0.0741285497	-0.431966
C	 0.0381431226	-0.0112310643	-0.0199198618	 0.120535
C	 0.1177450892	-0.6150612681	 1.4353552207	-0.190094
C	-1.4119552125	-0.2824906976	 1.5239381588	-0.257943
C	-1.4006920471	-0.6105376875	-0.0113865217	-0.154305
C	-1.0949425683	-2.0987617059	 0.0477339261	 0.33142
O	-1.5659051517	-3.0257922904	-0.5454207079	-0.298885
C	 0.0522167621	-2.0983255736	 1.1247505408	 0.331994
O	 0.6928232728	-3.0231216049	 1.5363602854	-0.301768
H	 0.865260753	 1.7363163316	 0.0760278449	 0.293755
H	 0.7446713365	-0.4074753027	-0.7605506008	 0.091759
H	 0.850375401	-0.283938111	 2.1685833698	 0.093122
H	-2.0359760876	-0.8942245587	 2.179052338	 0.122092
H	-1.5802009441	 0.7778556213	 1.6992963153	 0.145717
H	-2.1666534836	-0.2736165421	-0.705106178	 0.104569
119.63	170.4286	283.833	289.2686	305.2538	336.2824	482.3594	497.1852	527.2448	629.985	711.7444	761.7417	798.8168	866.8735	879.3179	895.6832	978.7198	988.9191	994.8548	1087.012	1097.1237	1101.6969	1177.6551	1199.7505	1222.2202	1231.714	1242.7716	1258.7666	1324.533	1434.1193	1495.8114	1862.8972	1890.9537	3018.5035	3081.404	3143.8769	3159.6839	3166.858	3810.5748
OC1C2CC1C(=O)C2=O	O[C@H]1[C@H]2C[C@@H]1C(=O)C2=O	
InChI=1S/C6H6O3/c7-4-2-1-3(4)6(9)5(2)8/h2-4,7H,1H2	InChI=1S/C6H6O3/c7-4-2-1-3(4)6(9)5(2)8/h2-4,7H,1H2/t2-,3+,4+
