20
gdb 32985	4.49714	0.85683	0.76886	2.3483	88.87	-0.2471	-0.0191	0.228	1537.4378	0.173141	-366.08301	-366.074442	-366.073498	-366.117265	31.79	
C	-0.0387158427	 1.579762539	 0.0364120907	-0.379443
C	-0.0237182061	 0.0502634347	-0.0103167494	-0.153685
C	 0.7305674128	-0.5035715584	-1.2349247129	-0.30386
C	 0.7462006651	-2.011489957	-1.2840655423	 0.265783
C	 1.8062762559	-2.7442874636	-0.7404328956	-0.058356
N	 1.8772599645	-4.0763367552	-0.7156687842	-0.262484
C	 0.8584207519	-4.7521010092	-1.252835471	 0.000264
C	-0.248277242	-4.1348021135	-1.8289008143	-0.111889
C	-0.3010977992	-2.7459970143	-1.842696515	-0.156127
H	 0.9779567371	 1.9852508643	 0.0852669062	 0.116455
H	-0.5184827441	 1.9993213066	-0.854942549	 0.114645
H	-0.584955564	 1.9446547604	 0.9116023769	 0.115103
H	 0.4381285267	-0.3478429709	 0.9014678056	 0.104956
H	-1.0518366771	-0.3329349653	-0.0207519807	 0.10052
H	 0.2675150911	-0.1091901975	-2.1481173579	 0.102084
H	 1.7606461607	-0.1267923012	-1.2207698504	 0.104974
H	 2.6519071646	-2.2149967419	-0.3027154684	 0.098434
H	 0.9328125755	-5.836707309	-1.2252055809	 0.105757
H	-1.0457403062	-4.7305907644	-2.2596173586	 0.099048
H	-1.1479064247	-2.2316608338	-2.2890408089	 0.097819
41.9811	88.2472	103.9958	242.4008	274.9517	309.5803	336.5184	414.8995	510.6337	609.4947	647.1691	741.9914	744.7993	811.9453	847.7224	875.7321	900.9146	958.0893	979.3887	999.513	1039.3599	1044.0182	1067.4583	1084.4143	1110.4194	1147.2007	1220.6037	1245.5265	1252.2775	1301.4591	1313.9294	1325.3691	1370.7771	1380.8611	1412.0821	1458.3015	1482.6635	1493.617	1498.7522	1510.2474	1511.4901	1612.2059	1633.2802	3018.9448	3027.7983	3031.4298	3048.3506	3070.2858	3097.9905	3104.1067	3132.7702	3153.4942	3164.2756	3194.6032
CCCC1=CN=CC=C1	CCCc1cnccc1	
InChI=1S/C8H11N/c1-2-4-8-5-3-6-9-7-8/h3,5-7H,2,4H2,1H3	InChI=1S/C8H11N/c1-2-4-8-5-3-6-9-7-8/h3,5-7H,2,4H2,1H3
