17
gdb 91177	2.6192	1.97795	1.90774	1.9468	69.32	-0.2444	-0.014	0.2304	839.2083	0.139462	-417.986896	-417.980371	-417.979427	-418.01751	26.975	
O	 0.162053152	 1.3760670522	-0.3094902438	-0.438411
C	 0.027532255	-0.0058013355	-0.0254553808	 0.115432
C	 0.6437259862	-0.4493200797	 1.3344912541	-0.242235
C	-0.5654611657	-0.5369080972	 2.2842569134	-0.03229
N	-0.9830636033	 0.8588525955	 2.597171614	-0.20676
C	-1.9234075413	 1.1346255738	 1.7867081022	 0.019374
N	-2.4409041018	 0.1037847266	 0.9430669035	-0.143686
C	-1.4237256832	-0.5296883762	 0.0346402141	-0.051837
C	-1.6899301238	-1.0916655747	 1.3804100448	-0.057469
H	-0.0004179898	 1.8621714488	 0.5055387931	 0.291497
H	 0.5255361694	-0.5095743379	-0.8596977726	 0.093023
H	 1.1005914829	-1.4395861959	 1.2324757737	 0.10707
H	 1.4131816037	 0.2479775739	 1.6764226958	 0.118744
H	-0.3763147217	-1.0965166522	 3.2009125947	 0.085536
H	-2.3923437974	 2.1130443794	 1.7283359164	 0.13318
H	-1.8699687007	-0.92651983	-0.8709568895	 0.10729
H	-2.2487915604	-1.9969085007	 1.5895189369	 0.101542
139.0528	227.6594	362.1539	378.1911	428.068	458.3326	581.3015	655.4107	698.2995	759.5144	798.0939	817.6101	845.6259	857.0041	893.4015	942.3942	960.9806	977.7646	995.1418	1015.1893	1030.5909	1056.3147	1090.0844	1103.9962	1186.5563	1218.3676	1248.747	1281.1274	1296.6195	1298.1948	1310.6117	1324.821	1341.4983	1382.0035	1440.1774	1477.3694	1670.6092	3045.4439	3063.2046	3107.1972	3109.3325	3165.6277	3176.9077	3184.9196	3815.3513
OC1CC2N=CN3C1C23	O[C@H]1C[C@H]2[N][CH]N3[C@@H]1[C@@H]23	
InChI=1S/C6H8N2O/c9-4-1-3-5-6(4)8(5)2-7-3/h2-6,9H,1H2	InChI=1S/C6H8N2O/c9-4-1-3-5-6(4)8(5)2-7-3/h2-6,9H,1H2/t3-,4+,5-,6+,8?/m1/s1
