17
gdb 50346	3.2642	1.40402	1.32371	2.7414	66.91	-0.2526	-0.0358	0.2167	1002.7385	0.137175	-458.973128	-458.965934	-458.964989	-459.005453	27.543	
O	-0.7730141441	 1.0172956163	 0.6388073934	-0.251703
C	 0.2491317122	 0.7122052863	 0.0817563759	 0.126247
C	 1.4590167005	 1.630081131	-0.0007218491	 0.045386
O	 2.6235701963	 0.8807894137	-0.3913632535	-0.284363
C	 3.1057984218	 1.519847895	-1.5709338804	 0.212037
C	 2.8675084582	 3.0042673454	-1.2876437835	-0.261837
C	 1.3610201154	 2.729850634	-1.0929053627	-0.104505
C	 1.0638453603	 2.0347065175	-2.4350145857	-0.087189
O	 2.2479280877	 1.2363407207	-2.6608984872	-0.267134
H	 0.3929227071	-0.2707092153	-0.4178004823	 0.103156
H	 1.6120774811	 2.0780279926	 0.9899019988	 0.10809
H	 4.1031184042	 1.1461451639	-1.7922062939	 0.099965
H	 3.3779521622	 3.3610553971	-0.3917158137	 0.116383
H	 3.0897351965	 3.6465423179	-2.1421718427	 0.115681
H	 0.7059736017	 3.5605608244	-0.8378287088	 0.100332
H	 0.1825091889	 1.385445695	-2.4135255455	 0.120932
H	 0.94181217	 2.7560886645	-3.2523567091	 0.108522
58.4352	107.8915	237.7771	298.6221	429.5462	472.9831	510.6239	515.7479	619.771	796.2826	810.4294	846.4005	902.7895	916.0529	926.1173	948.7862	958.7568	979.9329	987.1843	1065.6782	1079.9773	1094.1941	1102.8328	1140.5271	1179.5317	1214.6673	1262.8963	1278.5389	1303.5937	1315.0816	1321.3878	1345.8558	1385.8872	1395.257	1486.0484	1535.2893	1831.5751	2901.7195	3023.6251	3026.3628	3073.1918	3078.6364	3140.647	3145.2369	3160.5916
O=CC1OC2CC1CO2	O=C[C@H]1O[C@@H]2C[C@H]1CO2	
InChI=1S/C6H8O3/c7-2-5-4-1-6(9-5)8-3-4/h2,4-6H,1,3H2	InChI=1S/C6H8O3/c7-2-5-4-1-6(9-5)8-3-4/h2,4-6H,1,3H2/t4-,5+,6+/m0/s1
