19
gdb 95137	2.23735	1.85965	1.47235	1.9594	74.76	-0.2377	-0.0147	0.223	988.8965	0.16042	-423.035013	-423.027219	-423.026274	-423.067115	30.628	
C	-0.2044922388	 1.5521488832	 0.0522118958	-0.402863
C	 0.0496033813	 0.0462919393	 0.0020755815	 0.119051
O	 0.785428529	-0.3373824874	-1.1612743534	-0.264907
C	 2.1981633451	-0.3585446317	-1.0436913028	-0.092867
C	 2.6397545085	-0.8803280311	 0.3480851183	-0.160981
C	 1.5087997345	-1.8093698309	 0.8931616973	-0.250529
C	 0.7474714916	-0.501086823	 1.2799202163	-0.163689
C	 2.1363412286	 0.1401537337	 1.3705716563	 0.436681
O	 2.6370935642	 1.0073026182	 2.028305499	-0.333224
H	 0.7268843007	 2.1151139602	 0.1622983563	 0.135754
H	-0.7023646833	 1.8757717421	-0.8655064075	 0.125624
H	-0.8472804626	 1.8031051275	 0.9024974972	 0.12047
H	-0.9102950611	-0.4743260125	-0.1041249529	 0.091601
H	 2.552312216	-1.0326050763	-1.8306894115	 0.117465
H	 2.637542743	 0.6340183994	-1.2258919637	 0.109578
H	 3.6870188106	-1.1862432086	 0.3559931184	 0.090542
H	 1.0186152337	-2.4562764309	 0.164516422	 0.11944
H	 1.8259335668	-2.3813996103	 1.7664599649	 0.113141
H	 0.082929242	-0.4668829308	 2.1446691284	 0.089712
117.9012	133.7264	217.8203	238.2733	336.4244	393.7366	430.1736	466.2435	514.0077	543.745	717.2295	769.6085	792.4455	827.1354	850.4084	889.7262	910.6587	972.3427	992.1079	1010.6939	1037.6722	1086.3987	1098.2496	1103.8542	1130.1143	1146.8133	1167.9727	1225.7306	1244.8062	1264.5511	1269.732	1292.6502	1349.9616	1379.3709	1404.5862	1409.7519	1486.3643	1489.648	1495.883	1518.2788	1884.5195	2988.8247	3027.3832	3041.6569	3067.3293	3081.0712	3106.3583	3108.8717	3113.2386	3125.3347	3145.0213
CC1OCC2CC1C2=O	C[C@H]1OC[C@@H]2C[C@H]1C2=O	
InChI=1S/C7H10O2/c1-4-6-2-5(3-9-4)7(6)8/h4-6H,2-3H2,1H3	InChI=1S/C7H10O2/c1-4-6-2-5(3-9-4)7(6)8/h4-6H,2-3H2,1H3/t4-,5+,6-/m1/s1
