17
gdb 71829	2.58954	2.12969	1.42121	1.4445	71.08	-0.2203	-0.0074	0.2129	921.2255	0.136099	-417.951126	-417.94356	-417.942615	-417.982587	30.081	
C	 0.0782396413	 1.4465692553	-0.0166147335	-0.490634
C	-0.0102354393	-0.0543499862	-0.0010348407	 0.260969
N	-0.0571787297	-0.7351029914	-1.2943264262	-0.231622
C	-0.4999160789	-1.8965722478	-1.0317990753	 0.002404
N	-0.755137856	-2.2051367872	 0.3636652807	-0.182187
C	 0.6692526258	-2.3156360277	 0.9404243483	-0.245566
C	 0.6484471448	-0.8203535381	 1.1918071782	 0.320958
O	 1.3593047011	-0.1592115605	 2.171054219	-0.451254
C	-0.8419777563	-0.8224321349	 0.9794726013	-0.133249
H	 0.9908370939	 1.7763009075	-0.5247177749	 0.125067
H	-0.7723242946	 1.8716111328	-0.5579192705	 0.132008
H	 0.0838334129	 1.8503181686	 0.9983795636	 0.131645
H	-0.6216824418	-2.6828973434	-1.7700124297	 0.124648
H	 0.633362022	-2.884036981	 1.8718387992	 0.128411
H	 1.4088292982	-2.7524590208	 0.2593562356	 0.108375
H	 2.1725020071	 0.1851779971	 1.7849653501	 0.2951
H	-1.6902510007	-0.5055275522	 1.5745237347	 0.104926
160.2254	201.8348	227.7899	266.9772	333.3288	373.7928	391.6161	447.121	564.2492	618.6173	639.1067	721.0517	789.8745	832.9856	856.4817	866.8676	910.9649	948.727	979.6704	997.4414	1002.1678	1056.6579	1103.4899	1131.6176	1153.014	1173.8762	1213.2867	1237.8551	1286.2568	1312.2864	1352.8136	1416.6614	1424.7142	1485.7847	1499.1846	1505.9453	1663.8696	3035.1359	3039.9109	3100.5728	3113.4321	3130.0542	3182.2109	3196.1548	3795.0373
CC12N=CN3CC1(O)C23	C[C@@]12[N][CH]N3C[C@]1(O)[C@@H]23	
InChI=1S/C6H8N2O/c1-5-4-6(5,9)2-8(4)3-7-5/h3-4,9H,2H2,1H3	InChI=1S/C6H8N2O/c1-5-4-6(5,9)2-8(4)3-7-5/h3-4,9H,2H2,1H3/t4-,5+,6+/m1/s1
