17
gdb 46559	4.13575	1.17259	1.0837	5.2948	68.15	-0.2876	0.0426	0.3302	1136.2186	0.137172	-459.009477	-459.001961	-459.001017	-459.042089	28.323	
O	-0.1186026997	 0.0372764974	-0.2348187541	-0.371723
C	-0.1246701477	 1.2194667839	-0.1129598563	 0.479339
O	-1.2205299095	 2.0089163774	-0.2596766257	-0.24094
C	-0.8936311047	 3.3487759367	 0.1117810252	-0.157598
C	 0.6428972267	 3.3693062745	 0.0984287088	 0.399522
C	 1.3297400859	 4.1424119815	-1.0564827616	-0.284489
C	 1.6157925908	 5.2936674086	-0.0521488711	-0.217918
C	 1.346371878	 4.2959962848	 1.110383906	-0.29135
O	 0.9606444394	 1.9781083369	 0.1902620339	-0.277721
H	-1.3452114928	 4.0350176718	-0.607620001	 0.133538
H	-1.2992218909	 3.5510175756	 1.1101554652	 0.123178
H	 2.2443381617	 3.6262645671	-1.3574769066	 0.128837
H	 0.7311827807	 4.35844624	-1.9446384399	 0.109957
H	 2.6049986458	 5.7507199656	-0.0927227511	 0.116445
H	 0.864578526	 6.085953489	-0.1005152752	 0.111904
H	 0.7599768686	 4.6379508504	 1.9671127622	 0.10726
H	 2.2654151918	 3.8289516187	 1.4718520612	 0.131759
71.3786	108.3447	161.0415	282.577	347.0115	417.6748	438.5148	553.9931	689.8655	728.7969	775.7261	786.2872	816.1413	873.5518	919.8249	928.2221	933.8663	958.1855	986.4884	1043.8798	1098.5501	1134.2975	1148.0187	1163.4453	1202.506	1206.2826	1246.854	1250.3584	1276.775	1298.5119	1319.3219	1403.4719	1469.8207	1484.7331	1505.6373	1521.7706	1928.557	3036.1418	3064.4876	3067.8587	3074.4497	3108.8991	3117.2944	3124.4164	3137.6629
O=C1OCC2(CCC2)O1	O=C1OCC2(CCC2)O1	
InChI=1S/C6H8O3/c7-5-8-4-6(9-5)2-1-3-6/h1-4H2	InChI=1S/C6H8O3/c7-5-8-4-6(9-5)2-1-3-6/h1-4H2
