21
gdb 38250	3.09773	1.71445	1.40246	1.436	81.19	-0.2371	0.0851	0.3221	997.6806	0.186738	-387.082235	-387.075375	-387.074431	-387.11328	29.175	
C	 0.0126811351	 1.6884824201	 0.0180023865	-0.292542
C	 1.5280783127	 1.360857532	 0.0445158233	-0.022682
C	 1.1346202154	 0.1029195715	 0.9041326579	-0.303402
C	-0.0804066391	 0.1314255202	-0.0500134253	 0.468024
O	-1.2819981901	-0.5657689539	 0.0348610441	-0.333491
C	-1.737192371	-0.8104233609	-1.3160489496	-0.085584
C	-0.6771185474	-0.2231429266	-2.2942727234	-0.301839
C	 0.5615794089	-0.220661331	-1.3976740835	 0.014354
C	 1.728123447	 0.8035155191	-1.3946648543	-0.263131
H	-0.3625268941	 2.0741618242	 0.968233071	 0.098085
H	-0.3722401076	 2.2843075714	-0.8145056962	 0.084515
H	 2.2579055736	 2.0787142857	 0.4160244959	 0.064538
H	 1.7837423147	-0.7773175126	 0.8800707234	 0.088964
H	 0.8989130666	 0.3798695411	 1.9337789668	 0.101832
H	-1.8455419678	-1.8943382248	-1.4448585615	 0.103695
H	-2.723667815	-0.3533262424	-1.4502459104	 0.10463
H	-0.5832883543	-0.831617546	-3.1970122752	 0.100994
H	-0.9531490467	 0.7906832952	-2.6008521248	 0.106228
H	 0.9520915543	-1.2438413631	-1.3453936063	 0.073285
H	 1.6228346652	 1.5944452148	-2.1442585064	 0.098675
H	 2.7011824795	 0.3275649557	-1.543847772	 0.094853
106.4304	215.11	337.727	395.3495	407.1281	503.2522	539.5769	587.2895	618.8782	731.9386	812.3909	824.0225	826.5785	866.8576	884.7801	923.7105	937.6273	963.2274	974.5674	986.9892	1010.1088	1020.9462	1048.4496	1085.9293	1102.28	1118.595	1147.6316	1185.1739	1192.4725	1207.941	1220.0179	1228.0509	1255.6158	1266.3621	1275.3237	1294.2583	1321.5542	1324.7892	1384.6912	1400.2048	1484.8877	1495.925	1498.2557	1524.0106	1529.2033	3023.9747	3027.4629	3048.6313	3050.5747	3054.588	3059.3097	3066.805	3094.152	3107.0854	3119.4976	3122.4931	3127.8856
C1C2CC11OCCC1C2	C1[C@H]2C[C@]31OCC[C@H]3C2	
InChI=1S/C8H12O/c1-2-9-8-4-6(5-8)3-7(1)8/h6-7H,1-5H2	InChI=1S/C8H12O/c1-2-9-8-4-6(5-8)3-7(1)8/h6-7H,1-5H2/t6-,7-,8-/m0/s1
