18
gdb 80503	2.18137	1.48166	1.23408	5.7058	77.89	-0.2444	-0.0009	0.2435	1113.3826	0.14822	-398.088276	-398.079463	-398.078519	-398.121456	33.208	
C	-0.1708777157	 1.5333759772	-0.1302240615	-0.433627
C	 0.0237627533	 0.0480989126	 0.075716622	-0.015716
N	 1.2176745382	-0.7263930979	-0.288224496	-0.171299
C	 2.4273044585	 0.0941142295	 0.074984945	-0.202806
C	 2.0686954975	 0.0637962457	 1.5991697641	-0.043417
N	 1.9794827931	 1.202785657	 2.4782311343	-0.522751
C	 0.7600302113	-0.6236813483	 1.1859240577	 0.175282
C	 0.1899700113	-1.7224166015	 1.907781767	 0.215033
N	-0.2655788457	-2.5934038788	 2.5187127417	-0.340798
H	 0.6944830323	 2.1400675179	 0.1387724397	 0.116911
H	-0.396546079	 1.7301925323	-1.1836962759	 0.139611
H	-1.0229464019	 1.8775729584	 0.4638099283	 0.143102
H	-0.8594956124	-0.5200601539	-0.2125805259	 0.121905
H	 3.3324005117	-0.4605165082	-0.1768153149	 0.120823
H	 2.4660610189	 1.0742322074	-0.4077614409	 0.108848
H	 2.7050389391	-0.6767058894	 2.0897237708	 0.118114
H	 2.8970283419	 1.4986684752	 2.7915015334	 0.23756
H	 1.5268440975	 1.9979276149	 2.0445922209	 0.233224
117.8235	140.7523	149.1476	199.2917	236.4597	295.1371	325.4704	360.9099	448.5662	521.0262	529.1237	556.8141	664.3121	707.3647	725.6761	781.2001	846.8546	887.4236	937.3091	989.7231	1020.6581	1069.8772	1110.401	1135.5693	1152.8849	1180.2019	1206.4469	1251.8327	1262.206	1301.5465	1326.9538	1406.6065	1432.1553	1453.6204	1491.6692	1498.8948	1511.6968	1661.117	2344.4219	3045.9187	3065.6976	3084.4484	3107.0303	3120.1752	3124.982	3142.6982	3523.1136	3607.7651
CC1N2CC(N)C12C#N	C[C@H]1N2C[C@@H](N)[C@@]12C#N	
InChI=1S/C6H9N3/c1-4-6(3-7)5(8)2-9(4)6/h4-5H,2,8H2,1H3	InChI=1S/C6H9N3/c1-4-6(3-7)5(8)2-9(4)6/h4-5H,2,8H2,1H3/t4-,5-,6-,9?/m1/s1
