20
gdb 60598	3.79818	1.05132	1.01467	2.4061	74.1	-0.2407	0.061	0.3017	1250.8229	0.172078	-440.223055	-440.214453	-440.213509	-440.256801	32.35	
O	-0.2162976665	 1.2980140869	-0.0150701682	-0.458517
C	-0.0403569336	-0.1154003627	-0.0243410242	 0.09496
C	 0.6680020173	-0.5228468107	-1.3102248078	 0.005538
C	 0.3648816045	 0.1644646712	-2.5849721416	-0.249034
N	 1.668621894	 0.3667873588	-1.9186027798	-0.322734
C	 0.698340117	-0.6184233675	 1.2223763429	-0.058264
C	 1.9320443058	 0.2251657399	 1.6128851346	-0.102195
O	 1.1191900551	 0.9946487944	 2.5418112947	-0.287782
C	 0.1135469788	-0.0541292198	 2.5341665328	-0.118144
H	 0.1172273451	 1.6498173687	 0.8220577263	 0.304222
H	-1.0373095591	-0.587676857	-0.0222366335	 0.08101
H	 0.9339193365	-1.5782985232	-1.3459615037	 0.083864
H	 0.4057373711	-0.3855709748	-3.5206539216	 0.11293
H	-0.3483095721	 0.9825611967	-2.5548374707	 0.126813
H	 1.6084463816	 1.2595857628	-1.4305676349	 0.233586
H	 0.8343560966	-1.7004015354	 1.1657800703	 0.086318
H	 2.7077005409	-0.3422682474	 2.1422778425	 0.110852
H	 2.3976784275	 0.85332207	 0.8499712496	 0.127245
H	-0.9035850264	 0.3503981531	 2.5088383617	 0.120412
H	 0.2247460561	-0.7185307441	 3.4006086108	 0.108918
63.8395	91.1167	154.8685	192.9165	267.3901	313.5769	323.0878	373.0425	485.0576	554.7543	680.1998	781.2786	832.8157	850.9494	857.9951	865.8496	932.7771	959.2373	982.6549	996.201	998.6066	1028.1364	1071.3713	1092.3234	1109.7472	1141.5943	1146.4912	1163.4438	1186.0877	1204.6557	1223.964	1283.8597	1295.6313	1302.5649	1315.9569	1339.6466	1363.1753	1380.9571	1402.0221	1452.5996	1503.1312	1506.734	1533.1421	2958.8679	3017.1529	3027.7184	3080.3779	3092.1569	3105.2982	3114.6261	3119.9521	3206.5847	3478.084	3727.4321
OC(C1CN1)C1COC1	O[C@@H]([C@H]1CN1)C1COC1	
InChI=1S/C6H11NO2/c8-6(5-1-7-5)4-2-9-3-4/h4-8H,1-3H2	InChI=1S/C6H11NO2/c8-6(5-1-7-5)4-2-9-3-4/h4-8H,1-3H2/t5-,6-/m1/s1
