15
gdb 8126	4.19039	1.8802	1.53673	4.7706	60.91	-0.2512	0.0477	0.2989	833.4568	0.119484	-399.838777	-399.831861	-399.830917	-399.869612	26.66	
C	-0.0156058138	 1.5013101557	-0.0475704905	-0.466174
C	 0.0716507892	 0.0076095148	 0.0509525659	 0.421706
C	-0.8016223711	-0.8313298965	 0.9527109362	-0.361784
C	 0.7074530261	-0.7864786689	 1.1590437504	-0.067387
N	 1.4904406371	-1.7529083858	 0.4566546687	-0.360655
C	 1.2568407024	-1.707251092	-0.9054261036	 0.45296
O	 1.6430174429	-2.4630327477	-1.7503711558	-0.382326
O	 0.4708263146	-0.6085448091	-1.1663088817	-0.271318
H	 0.9369492544	 1.9234366648	-0.3812295681	 0.137256
H	-0.7908953784	 1.794547665	-0.7622316071	 0.14067
H	-0.2676595496	 1.9320688991	 0.925205699	 0.124008
H	-1.4118305906	-0.2936679377	 1.670530318	 0.123701
H	-1.2394289637	-1.7415254234	 0.5571101646	 0.130346
H	 1.1474719946	-0.331551861	 2.0391414985	 0.114769
H	 1.773132396	-2.6340245473	 0.8539726156	 0.264229
143.9356	194.4871	229.0749	297.0784	410.5895	449.7339	483.7422	509.8755	609.6748	718.2856	769.2916	772.1606	841.4107	880.3968	927.8751	959.6994	992.4671	1018.125	1040.4514	1083.7524	1130.0559	1142.1897	1198.3732	1271.3443	1338.2835	1386.315	1405.3181	1429.5544	1476.4748	1478.7208	1501.7936	1896.2491	3042.3333	3112.1864	3122.1405	3132.4724	3172.2128	3227.6891	3651.8122
CC12CC1NC(=O)O2	C[C@]12C[C@H]1NC(=O)O2	
InChI=1S/C5H7NO2/c1-5-2-3(5)6-4(7)8-5/h3H,2H2,1H3,(H,6,7)	InChI=1S/C5H7NO2/c1-5-2-3(5)6-4(7)8-5/h3H,2H2,1H3,(H,6,7)/t3-,5+/m1/s1
