19
gdb 83005	2.63829	1.77855	1.56218	1.3202	73.8	-0.24	0.066	0.3061	953.4618	0.160542	-422.987182	-422.97966	-422.978716	-423.019136	29.537	
C	-0.0542049985	 1.5970009155	-0.1779279966	-0.408605
C	 0.0464204484	 0.1000616461	 0.0214473355	-0.03736
C	 1.3107650247	-0.6876272624	-0.1772289968	 0.062091
O	 2.5294247822	 0.0226595468	-0.1736738138	-0.271855
C	 2.9656742974	 0.2560154039	 1.1600542647	 0.062351
C	 2.8843140307	 1.7143270371	 1.6367232584	-0.105589
O	 1.6397338601	 1.4599498794	 2.3271100195	-0.291531
C	 1.7406018868	 0.0327774205	 2.0737873442	 0.087769
C	 0.6915785346	-0.6227174068	 1.2035926694	-0.119136
H	 0.9278546688	 2.0675724312	-0.205725355	 0.131319
H	-0.5435339668	 1.8004024896	-1.1365284629	 0.108817
H	-0.6385697527	 2.0738962809	 0.6125584783	 0.128606
H	-0.8374188746	-0.4380229079	-0.3165527422	 0.089109
H	 1.3385476023	-1.5863284672	-0.7857513874	 0.095438
H	 3.8992744284	-0.2818382386	 1.3516588082	 0.084096
H	 3.6805660289	 1.9988839371	 2.3363673558	 0.101015
H	 2.7932796066	 2.473523479	 0.8536513552	 0.11511
H	 1.897685876	-0.5172953137	 3.0074829566	 0.079933
H	 0.1599265169	-1.4701783405	 1.6198683389	 0.08842
106.8932	156.4242	172.2855	241.1755	317.0982	383.6973	516.2396	593.1325	654.7504	715.2335	753.4175	762.2931	837.2075	857.8784	887.671	903.3419	941.4696	1001.0386	1005.1982	1015.1368	1039.7507	1059.9392	1076.9691	1099.3493	1125.3636	1136.2131	1152.0633	1180.1274	1226.6906	1243.9475	1256.3023	1318.5485	1333.4188	1347.5766	1361.3218	1371.0076	1417.1829	1429.5466	1487.9143	1494.2902	1513.3676	3019.6257	3046.5505	3048.2907	3063.428	3082.8563	3108.8937	3120.1524	3152.3428	3158.0514	3177.1565
CC1C2OC3COC3C12	C[C@H]1[C@H]2O[C@H]3CO[C@H]3[C@@H]12	
InChI=1S/C7H10O2/c1-3-5-6(3)9-4-2-8-7(4)5/h3-7H,2H2,1H3	InChI=1S/C7H10O2/c1-3-5-6(3)9-4-2-8-7(4)5/h3-7H,2H2,1H3/t3-,4+,5+,6-,7-/m1/s1
