19
gdb 53376	2.58369	1.06993	0.93256	1.3089	79.33	-0.2405	0.0481	0.2886	1365.5197	0.158137	-422.999197	-422.9894	-422.988456	-423.03602	34.229	
C	-0.3815557826	 1.0275667932	 0.7364779714	-0.497862
C	-0.1165650012	-0.3502239402	 0.3500208229	-0.000799
C	 0.1037216974	-1.4924842187	 0.0392751437	 0.162755
C	 0.3660820098	-2.8773797561	-0.3636519072	-0.10074
C	 1.0544196323	-3.7218188151	 0.730981873	-0.220701
C	-0.1226528251	-4.242488886	 1.5694129271	 0.096447
O	-0.2447082427	-3.424967883	 2.7250703928	-0.429182
C	-1.3305282633	-4.1060838938	 0.6006793426	-0.096967
O	-0.8360767574	-3.6055257073	-0.6349916121	-0.245343
H	 0.404775948	 1.6989903139	 0.3740198137	 0.147906
H	-1.3324753357	 1.3795618894	 0.3213270347	 0.148928
H	-0.4335098715	 1.1337061468	 1.8256525572	 0.149448
H	 0.9378325132	-2.8806815315	-1.2973892564	 0.104357
H	 1.5782660156	-4.5547269443	 0.255268935	 0.104854
H	 1.7563364329	-3.1594042467	 1.3470555717	 0.126949
H	 0.0332394709	-5.2892948697	 1.8636051036	 0.070208
H	-1.042442513	-3.6869727041	 3.1954461999	 0.281229
H	-1.8297555627	-5.0569749498	 0.3900637411	 0.103366
H	-2.0582446949	-3.4107426869	 1.0449359654	 0.095149
23.6457	43.3309	76.833	111.327	191.1737	257.9566	301.2581	338.7127	406.9855	421.3177	450.4543	542.6291	673.636	714.0977	811.6609	845.751	909.6058	930.9789	978.5313	1006.357	1036.6501	1053.0087	1053.7034	1088.6299	1098.5766	1166.5485	1207.7447	1220.8819	1255.5445	1284.4536	1324.2455	1345.0944	1360.3308	1372.2762	1413.9992	1428.6616	1472.3308	1477.1341	1479.1426	1503.2336	2368.0271	2994.3604	3001.5095	3026.8413	3053.761	3074.8293	3079.8857	3087.6635	3088.2338	3143.4346	3817.0892
CC#CC1CC(O)CO1	CC#C[C@H]1C[C@@H](O)CO1	
InChI=1S/C7H10O2/c1-2-3-7-4-6(8)5-9-7/h6-8H,4-5H2,1H3	InChI=1S/C7H10O2/c1-2-3-7-4-6(8)5-9-7/h6-8H,4-5H2,1H3/t6-,7+/m1/s1
