18
gdb 9738	2.90267	1.8869	1.58324	2.0813	67.72	-0.2373	-0.0242	0.2131	902.1824	0.152729	-384.963366	-384.955099	-384.954155	-384.996584	29.948	
C	-0.1693525502	 1.6651759698	 0.3731166552	-0.443341
C	 0.0829575369	 0.1862623765	 0.0750811592	 0.302627
C	 0.869681306	-0.0885506768	-1.213333515	-0.266689
C	 1.6604047936	-1.3550167982	-0.8543522248	-0.236737
C	 1.9537839789	-1.1299627019	 0.6320413164	-0.066167
O	 0.8456613232	-0.3894329053	 1.1511400798	-0.307548
C	-1.2624119565	-0.5507039772	 0.0867333643	 0.136705
O	-1.8845006632	-0.8823772999	-0.8885860044	-0.255269
H	 0.7865381232	 2.1863746978	 0.4775232363	 0.126814
H	-0.7422140628	 2.1291091312	-0.4357448755	 0.130902
H	-0.7260198154	 1.7857563211	 1.307691581	 0.127851
H	 0.1940675856	-0.2221677851	-2.0597626156	 0.131051
H	 1.5434504697	 0.7472370741	-1.4278528887	 0.099605
H	 1.0353744396	-2.2432884002	-0.9920357001	 0.119644
H	 2.5675715528	-1.4845911936	-1.4488206917	 0.105995
H	 2.0496724127	-2.0578330013	 1.2048824743	 0.108907
H	 2.8776818216	-0.5485415588	 0.7684402343	 0.095941
H	-1.6216895557	-0.7659062023	 1.1180486351	 0.089707
48.8128	84.9004	180.37	214.6258	293.9248	301.2037	317.6732	397.9209	553.0535	572.931	664.7165	772.3166	849.2052	887.556	899.0017	932.2065	940.2875	977.2593	1016.7249	1054.2682	1072.5087	1124.8124	1187.7856	1198.9831	1221.8347	1254.5691	1284.8717	1325.7762	1340.2688	1385.0001	1396.2755	1404.1857	1480.3588	1482.2428	1492.4883	1497.2	1528.0779	1831.0023	2889.1408	2993.3154	3036.7809	3052.064	3056.7258	3073.507	3111.7666	3112.5126	3118.6269	3128.7548
CC1(CCCO1)C=O	C[C@]1(CCCO1)C=O	
InChI=1S/C6H10O2/c1-6(5-7)3-2-4-8-6/h5H,2-4H2,1H3	InChI=1S/C6H10O2/c1-6(5-7)3-2-4-8-6/h5H,2-4H2,1H3/t6-/m0/s1
