13
gdb 10017	3.23321	1.38422	1.04724	5.6314	62.83	-0.2478	-0.0386	0.2093	1067.6984	0.093611	-394.795302	-394.786676	-394.785732	-394.829218	29.031	
N	-0.2896706723	 1.3776026034	-0.1974278876	-0.501592
C	-0.526964512	 0.0521134416	-0.378578823	 0.124797
N	-0.4079851269	-0.7911840634	 0.5729504098	-0.269026
C	-0.7532072549	-2.1816528004	 0.3555381426	-0.181793
C	-1.7992791358	-2.588550986	 1.4175902832	 0.166197
O	-2.7011093046	-3.3544654946	 1.2355811217	-0.218405
C	-1.1915989313	-2.5497144024	-0.9999649848	 0.280649
N	-1.5060977984	-2.7592766255	-2.0918900953	-0.329444
H	-0.1562587923	 1.9669826631	-1.000066497	 0.269171
H	 0.1411626902	 1.6672763776	 0.6664271619	 0.266257
H	-0.8495493949	-0.2059805261	-1.3930949172	 0.13077
H	 0.1334313747	-2.7959937636	 0.589039282	 0.152244
H	-1.6103407215	-2.0834522139	 2.3868405237	 0.110174
47.3039	123.8561	137.2086	161.5138	192.9791	299.5998	318.1864	366.0381	417.0734	491.0544	582.4198	638.814	733.3762	753.5108	967.0597	1002.705	1037.5848	1072.4554	1160.8024	1254.982	1297.9511	1317.4261	1394.1569	1424.7769	1630.6432	1753.0642	1849.9614	2354.0104	2933.9717	2966.4482	3073.5285	3602.256	3733.5644
NC=NC(C=O)C#N	NC=N[C@@H](C=O)C#N	
InChI=1S/C4H5N3O/c5-1-4(2-8)7-3-6/h2-4H,(H2,6,7)	InChI=1S/C4H5N3O/c5-1-4(2-8)7-3-6/h2-4H,(H2,6,7)/t4-/m1/s1
