20
gdb 106987	3.03061	1.27105	1.0155	3.3602	80.69	-0.2303	0.0162	0.2465	1247.7261	0.170035	-403.150254	-403.140837	-403.139892	-403.184642	34.305	
C	-0.0024826064	 1.555549377	 0.2636687849	-0.377321
C	 0.0399723293	 0.0408531917	 0.0148294242	-0.300043
C	-1.3362854949	-0.5427586215	-0.1372517604	 0.193702
C	-2.2174393773	-1.0249681573	 1.0222695436	-0.336128
C	-1.8609079843	-1.9654685935	-0.0925171793	-0.083086
N	-2.6787198595	-1.6990957329	-1.2792091828	-0.093779
C	-3.9962346181	-2.2167493601	-1.5837026233	-0.346124
C	-2.2772888161	-0.3606668622	-1.3310709004	 0.368996
O	-2.6072771496	 0.5429392518	-2.0524156395	-0.369439
H	 1.0079342433	 1.9696814268	 0.3309553126	 0.110108
H	-0.5299344682	 2.0620804798	-0.5494706615	 0.148066
H	-0.5265369538	 1.7849357018	 1.197230798	 0.115802
H	 0.6211912068	-0.1654839292	-0.8924116899	 0.110813
H	 0.5611093086	-0.4623524267	 0.8387331683	 0.097894
H	-1.6871905885	-1.158205979	 1.9623841089	 0.12082
H	-3.2402113176	-0.6744506121	 1.1294532501	 0.123635
H	-1.3037997173	-2.8879457357	 0.0105083817	 0.113158
H	-4.654954567	-2.2207316468	-0.703854202	 0.118211
H	-4.4372201634	-1.5734842947	-2.3492280917	 0.15666
H	-3.9347837161	-3.236175627	-1.9773071615	 0.128058
69.628	102.3318	151.8182	157.6707	212.8854	221.5527	248.7089	300.2928	367.8099	476.2667	511.5688	633.9428	715.6868	766.1873	782.738	817.4104	891.7092	920.3788	933.9473	971.402	998.331	1001.5444	1037.5882	1079.2148	1103.3626	1127.4717	1150.5337	1208.1214	1240.7053	1257.0894	1315.1659	1330.9328	1369.4681	1400.5583	1413.1656	1444.6116	1482.4651	1484.7192	1489.5652	1497.5161	1511.104	1512.8626	1871.8633	3003.4497	3022.1544	3038.9979	3055.8706	3076.1671	3107.5921	3108.7371	3121.4728	3127.3946	3192.3838	3200.4076
CCC12CC1N(C)C2=O	CC[C@]12C[C@H]1N(C)C2=O	
InChI=1S/C7H11NO/c1-3-7-4-5(7)8(2)6(7)9/h5H,3-4H2,1-2H3	InChI=1S/C7H11NO/c1-3-7-4-5(7)8(2)6(7)9/h5H,3-4H2,1-2H3/t5-,7+/m1/s1
