15
gdb 37820	3.10339	2.06056	1.74133	1.1165	69.15	-0.2338	-0.0159	0.2179	813.8102	0.112667	-420.492217	-420.486164	-420.48522	-420.522291	25.402	
C	-0.0302945079	 1.4872694574	-0.2415024357	-0.411269
C	 1.4236153073	 1.8843084629	 0.0523943661	-0.040086
C	 2.1688989945	 0.9295056708	 0.6368767858	-0.217368
C	 1.3234299434	-0.2687415498	 0.8315809113	 0.352248
O	 0.6112361682	-0.5858163564	 2.0895018535	-0.34802
C	-0.266962397	-1.1277230011	 1.0750402797	-0.037287
C	 0.8971842907	-1.6042335172	 0.1263474125	-0.027148
O	 0.3882339744	-0.9324610576	-1.0503315352	-0.342919
C	 0.0419395886	-0.0007333838	 0.0277099161	 0.366559
H	-0.7270855504	 2.0128368911	 0.4211987813	 0.136672
H	-0.3295244307	 1.7042116529	-1.2717714722	 0.137099
H	 1.7939605701	 2.8756677661	-0.1925241775	 0.110678
H	 3.2035016551	 1.0405283061	 0.9360361926	 0.114869
H	-1.1897919329	-1.6188213234	 1.3855942836	 0.102215
H	 1.3827971465	-2.5742713079	 0.016037228	 0.103757
202.6022	238.4752	413.43	449.6246	498.5117	531.7396	639.5525	725.4355	742.3597	766.2211	780.138	822.5409	833.8655	870.1404	895.0754	943.9199	955.1358	963.0246	975.4918	1013.7388	1055.7304	1106.0204	1118.4739	1140.1047	1172.4572	1202.1138	1247.3483	1263.5889	1301.9137	1362.0116	1379.3533	1454.364	1619.5821	3046.8101	3089.3785	3112.4298	3127.2054	3178.8965	3216.24
C1C=CC23OC4C2OC134	C1C=C[C@]23O[C@@H]4[C@H]2O[C@]134	
InChI=1S/C7H6O2/c1-2-6-4-5(8-6)7(6,3-1)9-4/h1-2,4-5H,3H2	InChI=1S/C7H6O2/c1-2-6-4-5(8-6)7(6,3-1)9-4/h1-2,4-5H,3H2/t4-,5-,6+,7+/m1/s1
