19
gdb 33201	5.12573	0.73542	0.70255	0.9916	80.51	-0.2213	0.0128	0.2341	1668.2665	0.158796	-423.047044	-423.037989	-423.037045	-423.082338	32.191	
C	-0.0544533808	 1.521731367	 0.1205143561	-0.384579
C	-0.0390573384	 0.0040246154	 0.0580705072	-0.020162
O	-1.3724444731	-0.4538403517	-0.0459795483	-0.24389
C	-1.4643069468	-1.8662119662	-0.0978485291	-0.185199
C	-2.8880257643	-2.2833806918	-0.1385337653	 0.366758
C	-3.6848038448	-2.7820370715	-1.1230072954	-0.265873
C	-4.9752072179	-2.9913043734	-0.5381802424	-0.170224
C	-4.8612818339	-2.6026870524	 0.7585077784	-0.014805
O	-3.6007991448	-2.1740818466	 1.020524638	-0.169949
H	 0.9647860486	 1.9108642736	 0.2036527414	 0.113254
H	-0.5135363489	 1.9376881068	-0.780722153	 0.127528
H	-0.6295486239	 1.8627819786	 0.9858729148	 0.129039
H	 0.552352042	-0.3422223874	-0.8074637459	 0.082837
H	 0.4386586773	-0.4168200119	 0.9597031458	 0.085164
H	-0.9574441721	-2.2584901962	-0.9940060078	 0.098608
H	-0.9659558701	-2.3081792807	 0.781398389	 0.099676
H	-3.3886652893	-2.9729759544	-2.1428099717	 0.109331
H	-5.8605239733	-3.3769429877	-1.0185836771	 0.110472
H	-5.5479508454	-2.5708804396	 1.5884469053	 0.132014
41.3787	74.7863	87.8467	124.4284	240.9459	243.5317	322.7639	348.7096	458.6312	615.9365	665.0138	752.7388	766.744	813.9465	821.3263	853.5841	902.7123	909.9356	943.2914	996.7077	1032.3514	1040.2592	1114.1318	1129.0174	1154.8859	1185.8449	1191.5252	1233.6711	1249.9625	1286.2274	1294.6107	1379.255	1404.4379	1420.6171	1446.9199	1482.7667	1496.5777	1501.2287	1531.4824	1536.955	1643.0912	2946.202	2963.0574	2971.336	2996.1853	3045.3228	3119.2459	3122.9422	3251.3816	3262.5826	3284.4634
CCOCC1=CC=CO1	CCOCc1ccco1	
InChI=1S/C7H10O2/c1-2-8-6-7-4-3-5-9-7/h3-5H,2,6H2,1H3	InChI=1S/C7H10O2/c1-2-8-6-7-4-3-5-9-7/h3-5H,2,6H2,1H3
