19
gdb 114711	2.55444	1.4556	1.17657	2.8409	74.76	-0.2389	-0.0317	0.2071	1126.3869	0.159221	-423.040394	-423.031946	-423.031002	-423.073764	31.737	
C	-0.5143936791	 1.2532951338	 0.0837481644	-0.387223
C	-0.1611398895	-0.2133608215	-0.1762963059	-0.19027
C	 0.899895897	-0.4149490913	-1.2824465907	-0.102492
C	 1.3447766185	-1.8918414837	-1.463905628	-0.279083
C	 0.6307681805	-2.3771537748	-2.7144960278	 0.052151
O	-0.7733029547	-2.1349788816	-2.6791692545	-0.241489
C	 0.0532820839	-1.238314605	-3.4514331164	-0.078473
C	 0.3744933924	 0.0097288634	-2.6672626676	 0.416636
O	 0.2822632066	 1.137913896	-3.08210983	-0.327134
H	 0.3647696348	 1.8179381996	 0.4134830541	 0.113295
H	-0.8969608127	 1.7411310687	-0.8163389275	 0.141678
H	-1.2756891573	 1.3329293466	 0.8657989625	 0.111258
H	 0.2313130065	-0.6641308361	 0.7440133225	 0.096867
H	-1.057352137	-0.7833499212	-0.4425222196	 0.123102
H	 1.75800758	 0.2261248526	-1.0556975265	 0.100919
H	 2.4272860458	-1.9620334514	-1.6161323945	 0.111952
H	 1.0938796245	-2.5141784083	-0.5989593725	 0.116932
H	 0.9353477392	-3.2881076291	-3.2232851073	 0.107294
H	-0.1284824694	-1.2045315268	-4.5206109647	 0.114081
67.3806	108.44	180.9324	195.8605	243.7537	329.2078	369.6327	398.4668	456.0187	582.6733	689.6026	716.3866	763.7953	812.9054	850.9087	861.9393	881.5748	929.2946	971.5487	1006.8628	1031.1364	1052.1327	1091.3565	1108.7963	1135.3994	1182.2099	1219.7049	1236.8514	1252.1842	1275.0621	1312.4595	1323.2446	1347.5792	1366.6017	1412.1101	1417.4743	1482.9498	1494.2891	1497.7424	1508.0943	1834.2909	3024.9492	3037.3461	3043.8995	3056.8611	3078.8081	3088.7086	3103.6027	3124.5159	3151.6487	3180.8037
CCC1CC2OC2C1=O	CC[C@H]1C[C@H]2O[C@H]2C1=O	
InChI=1S/C7H10O2/c1-2-4-3-5-7(9-5)6(4)8/h4-5,7H,2-3H2,1H3	InChI=1S/C7H10O2/c1-2-4-3-5-7(9-5)6(4)8/h4-5,7H,2-3H2,1H3/t4-,5+,7+/m0/s1
