13
gdb 21204	6.98609	1.3527	1.14337	3.9847	56.6	-0.2154	0.0371	0.2525	978.691	0.096407	-431.956172	-431.948595	-431.947651	-431.988321	26.323	
C	 0.017301695	 1.4066052299	-0.0661628883	-0.323385
N	-0.0528630047	-0.0303861545	 0.1507163745	-0.382031
C	-1.254629105	-0.6524316582	 0.0501236353	 0.533299
N	-2.4224820273	-0.1006611147	-0.0109458419	-0.327617
N	-3.267577347	-1.2143757549	-0.0071131004	-0.319407
C	-2.6096376066	-2.399869705	 0.00743819	 0.474936
O	-2.9800189998	-3.5377912254	-0.0130143111	-0.388612
O	-1.2514122156	-2.0089133505	 0.0619087381	-0.247008
H	 1.0299635634	 1.7445968197	 0.159844332	 0.134694
H	-0.2420065211	 1.6956519671	-1.093017752	 0.133157
H	-0.6792900503	 1.9045276804	 0.6119999678	 0.16187
H	 0.7274978502	-0.5858377781	-0.1644802627	 0.263062
H	-4.2603298914	-1.0974228858	-0.0966837013	 0.28704
91.7658	136.24	150.4349	191.8534	287.3643	378.9936	415.3763	464.5453	572.2175	709.8493	718.3259	762.1231	795.5576	900.1755	977.0327	1086.4388	1109.126	1156.0448	1189.7924	1225.0179	1345.7693	1392.2924	1456.9418	1483.0705	1510.2387	1559.7175	1716.1773	1926.0419	3020.4284	3103.5107	3144.7681	3628.9837	3711.6195
CNC1=NNC(=O)O1	CNc1n[nH]c(=O)o1	
InChI=1S/C3H5N3O2/c1-4-2-5-6-3(7)8-2/h1H3,(H,4,5)(H,6,7)	InChI=1S/C3H5N3O2/c1-4-2-5-6-3(7)8-2/h1H3,(H,4,5)(H,6,7)
