20
gdb 99183	5.09376	0.76159	0.71244	1.8441	76.34	-0.2444	0.0162	0.2606	1635.7696	0.170786	-440.304501	-440.294792	-440.293847	-440.340687	34.312	
N	-0.0625960742	 1.542645307	-0.0517333396	-0.486162
C	 0.2580782254	 0.1268370085	-0.0770706574	-0.274775
C	 0.8550509946	-0.4287734192	 1.2139429564	 0.40906
O	 1.0697037823	 0.2205609755	 2.2074177451	-0.364196
O	 1.1136253728	-1.7459030233	 1.0958912739	-0.251968
C	 1.6912271779	-2.3880525568	 2.2390162712	 0.176889
C	 0.7441556227	-2.8794184257	 3.3560214688	-0.238581
C	 1.5866358528	-4.186214743	 3.4050336537	-0.220378
C	 2.1293455394	-3.8405802155	 1.9879459469	-0.255745
H	-0.6992643523	 1.7221962496	 0.720158361	 0.235154
H	 0.7767159159	 2.0657601575	 0.1832893688	 0.23535
H	-0.6403906797	-0.4566575843	-0.3102585861	 0.136966
H	 0.9628112942	-0.082686064	-0.8904443925	 0.137858
H	 2.4895926291	-1.7559669083	 2.6334945838	 0.103038
H	 0.6642624738	-2.2672640693	 4.2552597661	 0.114032
H	-0.2558904729	-3.0637646394	 2.9529868788	 0.108395
H	 2.3698817701	-4.1399719982	 4.1658872133	 0.110272
H	 1.0469890963	-5.1277444182	 3.5176120527	 0.106347
H	 1.5148267025	-4.290424278	 1.2033300929	 0.115021
H	 3.1826208492	-4.0265165449	 1.7683641522	 0.103424
40.4045	54.9453	78.5115	115.0519	181.7726	217.7326	278.4999	331.0075	376.8034	474.3083	583.3468	647.7482	695.3149	770.2287	787.2209	896.4078	911.6991	920.9675	921.5309	949.8545	956.0075	963.4979	1071.6957	1092.3899	1151.6657	1161.0629	1178.7761	1194.0914	1215.9	1244.1012	1248.3319	1255.1195	1275.1138	1298.8568	1370.1259	1389.1042	1399.7893	1455.7099	1475.9239	1488.5676	1510.9208	1678.6584	1814.8034	3042.0944	3064.4083	3067.6103	3071.2021	3077.4335	3089.0966	3116.4401	3125.6978	3137.2022	3492.3712	3559.1112
NCC(=O)OC1CCC1	NCC(=O)OC1CCC1	
InChI=1S/C6H11NO2/c7-4-6(8)9-5-2-1-3-5/h5H,1-4,7H2	InChI=1S/C6H11NO2/c7-4-6(8)9-5-2-1-3-5/h5H,1-4,7H2
