16
gdb 102366	2.02646	1.37235	1.14994	3.1967	65.48	-0.2811	-0.0671	0.2139	1138.9366	0.121857	-475.025464	-475.015733	-475.014789	-475.060282	34.014	
O	 0.1370635114	 1.3813886378	-0.1281721343	-0.412854
C	 0.0717604083	-0.0179764975	-0.0757072371	-0.093889
C	-1.3798984104	-0.5523408909	 0.0192943803	-0.076251
C	-1.4033984713	-2.1163234493	 0.0447960127	-0.106057
O	-2.705985955	-2.6442329386	 0.0655704939	-0.409707
C	-2.0624544016	-0.047441804	 1.3056141231	 0.161983
O	-1.5477920143	 0.7364949401	 2.0611248501	-0.252906
C	-2.1912897074	-0.1163086114	-1.1190032797	 0.272309
N	-2.8724502258	 0.1596065962	-2.0120754505	-0.329606
H	-0.1636178304	 1.700178396	 0.7324326758	 0.303303
H	 0.5305755191	-0.3965587702	-0.9940068153	 0.128393
H	 0.6303954032	-0.4309113875	 0.7776555042	 0.109305
H	-0.8149563943	-2.4817193688	-0.8085709321	 0.124313
H	-0.913412946	-2.4564343833	 0.9624544174	 0.136638
H	-3.1242700325	-2.4573245659	-0.7836306874	 0.306261
H	-3.057901783	-0.4867648927	 1.5008509289	 0.138764
78.013	110.3915	121.8471	155.6302	177.356	215.2238	245.087	312.5369	387.0601	416.8132	425.2481	503.6478	551.0693	570.4519	664.5868	765.4215	865.5264	947.9667	989.873	1054.8976	1075.7922	1115.6962	1134.54	1165.3276	1220.6713	1290.8956	1377.2096	1394.1079	1411.2399	1421.6884	1440.0665	1492.5664	1503.6124	1816.998	2344.7849	2977.4499	2995.8771	3007.0434	3085.2229	3089.5683	3778.8117	3791.37
OCC(CO)(C=O)C#N	OCC(CO)(C=O)C#N	
InChI=1S/C5H7NO3/c6-1-5(2-7,3-8)4-9/h2,8-9H,3-4H2	InChI=1S/C5H7NO3/c6-1-5(2-7,3-8)4-9/h2,8-9H,3-4H2
