20
gdb 121884	2.20491	1.05255	0.97325	4.4659	71.22	-0.2495	0.0162	0.2657	1367.4617	0.170791	-477.453261	-477.443427	-477.442483	-477.489004	35.375	
C	 0.594723843	 0.9921436983	 0.3825574127	-0.394001
C	 0.3266934758	-0.4044879068	-0.1677114875	-0.125747
N	 0.1821872944	-0.3689231243	-1.6292254762	-0.311546
H	-0.4844830018	 0.3493974408	-1.8858691684	 0.229428
H	 1.8425790652	-0.6949535327	-2.6330746473	 0.288113
C	-0.1828829758	-1.6370465442	-2.2628846922	-0.204827
C	 1.1022124862	-2.4402608647	-2.5761627462	-0.004606
O	 2.1392258177	-1.562549358	-2.9815518513	-0.443802
C	 1.5480262967	-3.2940354585	-1.37380936	 0.395251
O	 0.8225244004	-4.0762331182	-0.8199732317	-0.338946
O	 2.8219120881	-3.0831119268	-1.0113748713	-0.371248
H	 1.4978466824	 1.4212758084	-0.0615575734	 0.126324
H	-0.2415673734	 1.6685219404	 0.1699592599	 0.115595
H	 0.7253667885	 0.9582503515	 1.4674866544	 0.129416
H	 1.1664818122	-1.0627183379	 0.0791526125	 0.132228
H	-0.5644114709	-0.8386669907	 0.3144313347	 0.102331
H	-0.8522136222	-2.261622917	-1.6567363615	 0.132608
H	-0.684862634	-1.4068557048	-3.2065781135	 0.111451
H	 0.8911542409	-3.1447431806	-3.3888500526	 0.121916
H	 3.1543473065	-2.4109801542	-1.640108851	 0.310063
59.0761	74.7774	84.8217	106.3305	216.6725	247.2929	287.8772	308.6634	362.1496	425.9615	511.6505	579.4692	619.073	689.0669	749.2297	784.7869	808.403	846.9433	865.7638	890.4818	942.9439	1010.8653	1049.9293	1107.2702	1137.5681	1147.3086	1167.3329	1219.7748	1239.3456	1283.0746	1307.2616	1350.7661	1377.6475	1388.8588	1413.6456	1419.567	1445.6614	1481.0426	1490.6173	1496.2947	1501.2696	1523.424	1869.5324	2975.2856	3022.8656	3033.8945	3051.2615	3067.9441	3093.0243	3103.3535	3122.4761	3492.8816	3542.7235	3573.4285
CC[NH2+]CC(O)C([O-])=O	CCNC[C@@H](O)C(=O)O	
InChI=1S/C5H11NO3/c1-2-6-3-4(7)5(8)9/h4,6-7H,2-3H2,1H3,(H,8,9)	InChI=1S/C5H11NO3/c1-2-6-3-4(7)5(8)9/h4,6-7H,2-3H2,1H3,(H,8,9)/t4-/m1/s1
