20
gdb 114435	3.78076	1.31368	1.17852	1.0146	77.76	-0.2271	0.084	0.3112	1113.0361	0.172753	-403.097284	-403.089624	-403.08868	-403.129514	30.159	
C	 0.0989599787	 1.3568078833	 0.0987479796	-0.237664
O	-0.2075337126	 0.0031555733	-0.1460502945	-0.246514
C	 0.5360124689	-0.5671196612	-1.2013093304	 0.14735
C	 2.0363773596	-0.8415552407	-0.8736922764	-0.19878
N	 2.3658033118	-2.1555082506	-1.4601566859	-0.099585
C	 1.6119378306	-3.3122516912	-0.9459532951	-0.037937
C	 0.2830457646	-2.9136397819	-0.2898905104	-0.246198
C	 0.0245138603	-1.9734053721	-1.5112100054	-0.095674
C	 1.2249569111	-2.6480869495	-2.2284711363	-0.069332
H	 1.1377031883	 1.4961869196	 0.4337635639	 0.108937
H	-0.0585514065	 1.9766902507	-0.798223958	 0.104428
H	-0.5714541131	 1.7038035228	 0.88885276	 0.127476
H	 0.4558935361	 0.0755640574	-2.0948426636	 0.061118
H	 2.7059872661	-0.0957991475	-1.3112204197	 0.104503
H	 2.1958320955	-0.8468055135	 0.2096182474	 0.111783
H	 2.1733585691	-4.2242870003	-0.7743775547	 0.089317
H	-0.4118105459	-3.7565825819	-0.2807499778	 0.104424
H	 0.3019815075	-2.4510618157	 0.7002582258	 0.108225
H	-0.9653192437	-2.0104391506	-1.9630619212	 0.074442
H	 1.3329060436	-2.9407687504	-3.2659159675	 0.08968
96.9094	123.9982	193.6002	246.132	344.0123	414.0414	430.8235	495.4308	626.4848	704.9035	737.0802	804.1979	841.4474	848.2291	892.8462	926.0236	957.37	962.3263	996.959	1018.7452	1024.6406	1066.3674	1080.3079	1113.1108	1131.2581	1157.2229	1182.4673	1188.3581	1204.3519	1224.0197	1238.5114	1251.9228	1269.4931	1290.071	1324.0505	1333.2615	1355.7923	1397.735	1481.0189	1486.1641	1490.2422	1507.0037	1509.4644	2952.0499	2974.3641	3021.2606	3047.7339	3064.0354	3092.7823	3112.9889	3114.5315	3129.7228	3166.1441	3185.7692
COC1CN2C3CC1C23	CO[C@H]1CN2[C@H]3C[C@@H]1[C@@H]23	
InChI=1S/C7H11NO/c1-9-6-3-8-5-2-4(6)7(5)8/h4-7H,2-3H2,1H3	InChI=1S/C7H11NO/c1-9-6-3-8-5-2-4(6)7(5)8/h4-7H,2-3H2,1H3/t4-,5-,6-,7+,8?/m0/s1
