21
gdb 51877	3.93451	0.86983	0.75582	3.6769	79.92	-0.2392	-0.0164	0.2228	1516.4388	0.182928	-424.25228	-424.24336	-424.242416	-424.286751	33.16	
O	-0.5213345381	 0.6309382364	 0.8240384225	-0.245337
C	 0.0819700543	 0.9506310654	-0.1691346412	 0.150891
C	 1.3576943359	 1.7662284236	-0.1657367547	-0.295664
C	 1.3593078827	 2.8699640311	-1.2263365215	 0.122646
C	 2.5683436342	 3.8063035892	-1.1138907798	-0.197827
C	 2.5804124061	 4.8085213144	-2.2771055986	-0.215031
C	 2.4551658696	 4.0697289879	-3.6170539554	-0.193986
C	 1.2557572793	 3.1219729259	-3.5826874028	-0.067307
O	 1.3373130134	 2.2163576068	-2.4911602018	-0.263826
H	-0.2705929717	 0.6558758167	-1.1805163342	 0.093548
H	 1.5097463958	 2.1766889862	 0.8362152375	 0.118456
H	 2.1919263568	 1.0872373718	-0.3913259688	 0.12984
H	 0.4399743963	 3.4766428682	-1.1235139857	 0.069064
H	 2.5426859612	 4.3271924637	-0.1501679649	 0.098677
H	 3.4820190394	 3.1981484906	-1.1327497463	 0.101631
H	 1.7361874411	 5.502665048	-2.1653436824	 0.098254
H	 3.4908120187	 5.4160874068	-2.2509285343	 0.099568
H	 2.3445926115	 4.7759680339	-4.447642007	 0.096565
H	 3.3627311702	 3.4831469237	-3.8053778429	 0.104714
H	 0.3190580586	 3.7024027493	-3.5182799318	 0.087054
H	 1.2053930847	 2.5042164405	-4.4838511861	 0.108069
54.4769	76.3937	122.9129	195.8441	242.8776	329.1265	336.4012	407.8083	454.6856	478.9254	514.8697	584.7839	793.9176	811.1373	844.4563	867.251	899.777	930.7589	963.3418	1008.4991	1033.1391	1065.3048	1095.2236	1113.2813	1114.8519	1158.4536	1198.432	1223.7963	1237.345	1285.8262	1291.4202	1308.2748	1348.8992	1367.8905	1378.2491	1384.8151	1399.5054	1415.1166	1423.9352	1443.4084	1473.8077	1481.1555	1491.3315	1503.3369	1829.8123	2911.4896	2927.7921	2959.6932	3016.4181	3022.5968	3026.7409	3030.3666	3070.1129	3073.3978	3079.2859	3086.5217	3106.7999
O=CCC1CCCCO1	O=CC[C@H]1CCCCO1	
InChI=1S/C7H12O2/c8-5-4-7-3-1-2-6-9-7/h5,7H,1-4,6H2	InChI=1S/C7H12O2/c8-5-4-7-3-1-2-6-9-7/h5,7H,1-4,6H2/t7-/m1/s1
