15
gdb 131451	3.33913	1.36535	1.04169	0.9963	67.74	-0.2356	-0.01	0.2256	1093.3046	0.114311	-453.907897	-453.900485	-453.899541	-453.940191	27.97	
O	-1.0949921152	 0.853564698	 0.3998016112	-0.425146
C	-0.3665309374	-0.2563856561	 0.1759242123	 0.368906
N	 0.020910148	-0.6010740409	-1.0246410598	-0.243053
O	 0.7260446677	-1.7912439502	-0.8453405712	-0.175556
C	 0.7197624608	-2.1008507498	 0.4611987901	-0.00193
C	 0.0491606057	-1.1722322573	 1.1939655019	 0.103996
C	-0.1965397783	-1.135706762	 2.6471189209	-0.118021
C	-0.2465881699	 0.1514551056	 3.3976125675	-0.247529
N	-1.4734335545	-0.6304894362	 3.1953085033	-0.325568
H	-1.2538553739	 1.2824634277	-0.4521316733	 0.317119
H	 1.2332256062	-3.0111399933	 0.7311185595	 0.156935
H	 0.1747275732	-2.0111338842	 3.1740856335	 0.094204
H	 0.117130557	 0.1831836947	 4.4208711462	 0.122183
H	-0.118495696	 1.0699789884	 2.8333069923	 0.128585
H	-2.0175118332	-0.2072028545	 2.4467633554	 0.244876
71.6757	164.74	176.7237	307.8999	357.4236	423.4331	451.3714	491.5848	593.6989	658.6929	725.7414	746.4495	821.7401	846.3308	886.3191	916.2986	962.0999	969.3403	1001.0245	1102.5247	1142.8605	1156.7169	1176.5819	1220.7154	1248.4601	1279.1224	1310.1937	1312.2822	1408.8944	1497.3139	1508.8638	1558.6802	1679.4289	3115.7127	3135.9379	3206.8303	3260.992	3504.9736	3777.1158
OC1=NOC=C1C1CN1	Oc1nocc1[C@H]1CN1	
InChI=1S/C5H6N2O2/c8-5-3(2-9-7-5)4-1-6-4/h2,4,6H,1H2,(H,7,8)	InChI=1S/C5H6N2O2/c8-5-3(2-9-7-5)4-1-6-4/h2,4,6H,1H2,(H,7,8)/t4-/m1/s1
