15
gdb 8646	2.5418	1.77797	1.40052	4.9304	67.11	-0.2572	0.0052	0.2624	944.4306	0.117844	-358.796051	-358.787093	-358.786149	-358.829059	32.542	
N	-0.0815516876	 1.4368829712	 0.1032162916	-0.519972
C	 0.0394982924	-0.0121169278	 0.0149585202	-0.177829
C	 0.8603333689	-0.5370855076	 1.244679091	-0.099652
N	 0.3177905498	-0.0829836745	 2.5316668938	-0.51988
C	 0.9133980158	-2.0005617085	 1.1984119245	 0.343742
C	 0.9041199231	-3.1990961775	 1.1365110585	-0.427466
C	 2.2367307778	 0.0090759045	 1.1084432787	 0.322639
N	 3.2792281352	 0.4797142746	 0.9469836493	-0.347529
H	 0.7659558718	 1.8889369256	-0.2256814491	 0.252413
H	-0.8456860275	 1.7698094789	-0.4723951791	 0.242446
H	-0.9564002257	-0.4580913448	 0.0935830393	 0.117174
H	 0.5052471168	-0.3869922583	-0.9077972264	 0.115391
H	-0.0156644656	 0.8694183251	 2.3849130015	 0.250842
H	-0.4852744709	-0.6602336243	 2.7626989879	 0.237182
H	 0.9160076258	-4.2606672767	 1.0926185084	 0.210499
117.1921	129.0314	149.7218	191.4914	252.1049	257.2855	304.095	331.4363	433.8485	495.1834	506.7366	570.5912	605.9148	654.7465	676.455	701.106	829.6326	890.4758	936.6074	1003.8156	1024.2165	1095.1241	1136.727	1229.2959	1329.6368	1348.5504	1401.9843	1490.1197	1645.7449	1657.0377	2248.4757	2358.4402	2999.1241	3088.7394	3461.4012	3499.6898	3512.9295	3565.234	3597.6407
NCC(N)(C#C)C#N	NC[C@@](N)(C#C)C#N	
InChI=1S/C5H7N3/c1-2-5(8,3-6)4-7/h1H,3,6,8H2	InChI=1S/C5H7N3/c1-2-5(8,3-6)4-7/h1H,3,6,8H2/t5-/m0/s1
