19
gdb 88251	4.15164	0.61278	0.57209	3.0508	87.91	-0.2359	-0.0259	0.2101	1938.7011	0.156342	-385.864632	-385.854459	-385.853515	-385.903075	35.19	
C	-0.2476664688	 1.4975622232	 0.1490810121	-0.406471
C	-0.0043176775	 0.0111971778	 0.0380232503	 0.016399
C	 1.335604508	-0.5255093089	-0.3688414146	-0.286198
C	 0.8535709266	-0.7286354423	 1.063586217	-0.18882
C	 1.4822975857	-0.0325966792	 2.1472484857	 0.113236
C	 2.0180138386	 0.5390253757	 3.0644235957	 0.021512
C	 2.6049013996	 1.2278224035	 4.2042604798	-0.415021
C	 1.5555261928	 1.6364235359	 5.2409085613	 0.17337
O	 1.7360449733	 1.5927370594	 6.4271224662	-0.232262
H	 0.6349834111	 2.0128062623	 0.5377828121	 0.125534
H	-0.4878821699	 1.9256717349	-0.8300338531	 0.118503
H	-1.0822034824	 1.7132305756	 0.8247859292	 0.120935
H	-0.8618376055	-0.5623019325	-0.3038463357	 0.092216
H	 1.386703893	-1.4011173626	-1.0062831572	 0.117683
H	 2.1405134395	 0.1868563635	-0.5124375994	 0.123278
H	 0.523017733	-1.7343185097	 1.3074773709	 0.110346
H	 3.3693548397	 0.6289047563	 4.7106625316	 0.152783
H	 3.0974173265	 2.156043716	 3.8742786251	 0.152072
H	 0.5987271769	 1.9940249611	 4.8014769631	 0.090905
6.8095	48.152	79.6986	110.3399	162.6552	207.3362	249.0856	347.539	363.2498	440.0638	445.959	515.7568	585.4111	702.1644	757.1574	769.5574	853.4626	888.8381	932.1121	988.1	1032.9485	1041.9924	1066.8146	1067.8385	1102.8965	1143.8031	1178.5151	1198.8572	1211.487	1239.7239	1292.7103	1379.6897	1403.7528	1414.4505	1422.6172	1439.3992	1483.0108	1492.6032	1501.131	1840.2739	2357.3688	2898.0092	2997.0416	3034.0683	3074.6817	3095.0739	3112.1883	3136.1637	3139.0378	3148.6933	3225.8863
CC1CC1C#CCC=O	C[C@H]1C[C@H]1C#CCC=O	
InChI=1S/C8H10O/c1-7-6-8(7)4-2-3-5-9/h5,7-8H,3,6H2,1H3	InChI=1S/C8H10O/c1-7-6-8(7)4-2-3-5-9/h5,7-8H,3,6H2,1H3/t7-,8+/m0/s1
