19
gdb 65087	3.10589	1.41111	1.26347	1.1229	75.5	-0.2335	0.0682	0.3017	1069.5259	0.157531	-422.93521	-422.926713	-422.925769	-422.96887	32.617	
O	-0.101615942	 1.3331527166	 0.3743917758	-0.475655
C	-0.0174166351	-0.0329757012	 0.0638567702	 0.217577
C	 0.9747286989	-0.5556985342	-0.9377685877	-0.329061
C	 1.1274831915	-0.8825763026	 0.5415624666	-0.329141
C	-1.3904891139	-0.6105387076	 0.0780580924	 0.460556
C	-2.375610582	-0.803109254	 1.2634225987	-0.256155
C	-2.9073884446	-1.5579937306	 0.0247595579	 0.040603
C	-2.5962321384	-0.3303413773	-0.860151761	-0.256129
O	-1.5281673794	-2.0560540426	-0.2294160024	-0.351101
H	 0.7857251966	 1.7046389153	 0.3661043398	 0.284817
H	 0.6569882259	-1.3510821562	-1.6019805899	 0.136741
H	 1.6659971769	 0.1586008097	-1.3746633668	 0.105031
H	 1.9208193982	-0.3866748624	 1.0926182961	 0.105013
H	 0.9113676443	-1.8954100212	 0.8613282034	 0.136679
H	-2.0066657001	-1.4363359459	 2.0709286553	 0.104524
H	-2.9297464526	 0.0693188263	 1.6152131827	 0.102269
H	-3.7161691922	-2.2834874118	-0.0527121944	 0.096609
H	-3.169945951	 0.5840781234	-0.6969577069	 0.102281
H	-2.4206618708	-0.5492090239	-1.9139213198	 0.104543
47.6824	82.42	170.6079	175.5295	304.5463	336.3374	413.7098	507.4327	525.8906	537.7376	608.9731	739.3304	768.0304	795.5894	836.596	884.3349	907.8035	929.6524	945.4743	959.8412	975.4083	986.3283	997.3226	1056.5525	1069.0488	1089.6923	1094.4253	1116.7267	1140.1419	1153.8705	1192.6815	1209.4965	1236.2279	1241.7507	1279.6795	1309.2825	1451.4827	1466.1659	1467.5516	1494.2551	1526.9789	3069.085	3076.1349	3127.5645	3128.2891	3131.3164	3150.869	3156.1914	3216.0633	3229.5349	3830.5741
OC1(CC1)C12CC(C1)O2	OC1(CC1)[C@@]12C[C@@H](C1)O2	
InChI=1S/C7H10O2/c8-6(1-2-6)7-3-5(4-7)9-7/h5,8H,1-4H2	InChI=1S/C7H10O2/c8-6(1-2-6)7-3-5(4-7)9-7/h5,8H,1-4H2/t5-,7+
