20
gdb 54979	3.06351	1.08165	1.03893	3.8195	81.13	-0.2358	-0.0151	0.2207	1287.923	0.1698	-403.13242	-403.123271	-403.122327	-403.166929	33.875	
C	 0.2808155463	 1.388597994	-0.725435333	-0.48785
C	-0.0103983388	 0.3279756894	 0.3216098809	 0.418443
O	 0.7510127111	 0.0909511836	 1.2320589128	-0.310339
C	-1.3248970734	-0.3825411897	 0.1802277423	-0.236595
N	-1.3894476637	-1.7742591703	 0.6960789788	-0.360847
C	-2.1287377243	-0.7533141879	 1.3935844538	 0.38085
C	-1.8985566402	-0.3144498222	 2.8421525922	-0.274147
C	-3.3745562875	 0.1863138036	 2.8668989952	-0.210768
C	-3.6472589653	-0.5822986263	 1.5385567586	-0.308546
H	 1.221899145	 1.8889860498	-0.4954094315	 0.142365
H	 0.3406411232	 0.930556831	-1.7199820979	 0.139879
H	-0.5311654071	 2.1242930326	-0.7644208143	 0.135742
H	-1.8932658062	-0.1515370104	-0.7187885835	 0.082647
H	-2.0085707987	-2.3200268232	 0.0992248295	 0.232712
H	-1.7294438398	-1.1771931165	 3.4924004052	 0.113311
H	-1.1075651068	 0.4139831944	 3.0209981463	 0.123557
H	-3.9777768057	-0.1063951549	 3.7278239815	 0.103691
H	-3.4501351359	 1.2688694198	 2.7406746182	 0.105979
H	-4.1743808216	-0.0501687105	 0.7420751732	 0.101492
H	-4.1477551107	-1.5417202466	 1.7084507719	 0.108425
53.0887	95.0631	136.9434	150.0606	164.3799	308.4291	330.9646	397.8876	402.8339	537.7372	607.1655	619.0283	711.5989	777.286	800.5065	848.7538	884.3855	924.196	928.8487	954.5857	958.5093	993.7571	1021.711	1053.1672	1067.8529	1134.046	1180.6578	1189.0487	1193.8663	1218.297	1247.5823	1250.2402	1268.0544	1292.4849	1361.6831	1378.6509	1457.0486	1466.915	1472.7356	1475.2957	1482.3178	1508.0828	1804.8122	3030.5764	3043.8818	3070.8685	3072.6283	3089.2849	3095.0975	3122.8235	3124.9157	3139.0204	3153.088	3480.8738
CC(=O)C1NC11CCC1	CC(=O)[C@H]1NC21CCC2	
InChI=1S/C7H11NO/c1-5(9)6-7(8-6)3-2-4-7/h6,8H,2-4H2,1H3	InChI=1S/C7H11NO/c1-5(9)6-7(8-6)3-2-4-7/h6,8H,2-4H2,1H3/t6-/m1/s1
