20
gdb 90131	2.73833	1.68865	1.45317	1.5628	82.83	-0.2199	0.0148	0.2347	1008.8534	0.172721	-365.96934	-365.961784	-365.96084	-366.000866	31.089	
C	-0.2485003715	 1.5182685076	-0.1345113504	-0.4043
C	-0.059560681	 0.0132839392	-0.0011693387	-0.036932
C	 1.0422818852	-0.595249803	-0.945698261	-0.313275
C	 1.8364757701	-1.0416438553	 0.2971668873	 0.230171
C	 3.2132116333	-0.6473172672	 0.8076354453	-0.333658
C	 2.8639305643	 0.1598563188	 2.0591608496	-0.056119
C	 1.5446098541	 0.2977442109	 2.2574733226	-0.15234
C	 0.7981570118	-0.4458349644	 1.2064362945	 0.198139
N	 1.0519897951	-1.894615646	 1.1852354847	-0.383056
H	 0.7088336584	 2.043749582	-0.0509081517	 0.120551
H	-0.6910059409	 1.7715039899	-1.1037293383	 0.115208
H	-0.9091686388	 1.9051135333	 0.6489093128	 0.116722
H	-1.034359896	-0.4868953538	-0.0544858269	 0.064226
H	 0.7419433808	-1.3881723911	-1.6399381317	 0.09271
H	 1.5544005176	 0.1864754775	-1.5141214415	 0.105215
H	 3.8453408805	-1.5100712387	 1.0479562189	 0.119451
H	 3.7641544735	-0.0412904141	 0.076613362	 0.105371
H	 3.6303775265	 0.528645646	 2.734440647	 0.092964
H	 1.0923192996	 0.8316217701	 3.0852498135	 0.09489
H	 0.3250735376	-2.3935144518	 0.6747039017	 0.224062
125.1065	189.1427	240.4774	310.4682	332.8198	410.2784	462.3456	492.0138	557.1555	644.7065	665.1422	741.5076	772.032	799.698	855.8409	865.6426	900.2611	916.5337	930.5784	962.7276	985.6471	1020.4852	1059.9016	1076.2519	1101.3309	1111.9264	1130.0851	1184.7073	1193.2758	1233.9989	1240.8606	1263.0581	1272.1323	1330.4051	1353.6401	1383.2104	1406.8784	1413.276	1464.1722	1486.06	1493.9693	1500.5482	1635.8505	3019.1675	3022.9223	3028.3521	3034.6329	3061.365	3092.4456	3097.6537	3101.4886	3173.4705	3202.981	3465.343
CC1CC23CC=CC12N3	C[C@H]1C[C@@]23CC=C[C@@]12N3	
InChI=1S/C8H11N/c1-6-5-7-3-2-4-8(6,7)9-7/h2,4,6,9H,3,5H2,1H3	InChI=1S/C8H11N/c1-6-5-7-3-2-4-8(6,7)9-7/h2,4,6,9H,3,5H2,1H3/t6-,7-,8+/m0/s1
