14
gdb 17761	3.04267	2.73642	1.89346	2.2749	60.64	-0.2163	0.0657	0.282	719.2579	0.105588	-382.409572	-382.403056	-382.402112	-382.439663	26.409	
O	-0.1347069098	 1.3531666582	 0.055446947	-0.446603
C	-0.0118643987	-0.0059923913	 0.0413200747	 0.333433
C	 0.9273677625	-0.9968473107	 0.8187472317	-0.169936
C	 0.8102286278	-1.9922183197	-0.3264899918	-0.077514
C	-0.1874539528	-2.0374838548	 0.8218264887	-0.169936
C	-1.1136793723	-1.0344366062	 0.0444280405	 0.333434
O	-2.4611148403	-0.818319092	 0.0620319448	-0.446601
C	-0.1026127298	-1.016718828	-1.1206852398	-0.287435
H	 0.5863886427	 1.7331360748	-0.4602454692	 0.289722
H	 1.7190413208	-0.8511324926	 1.5429001761	 0.088911
H	 1.5135310227	-2.7466326725	-0.6564194627	 0.085009
H	-0.3851125606	-2.8152720225	 1.5487061876	 0.088911
H	-2.8913485883	-1.5129920771	-0.4504336221	 0.28972
H	-0.2701747739	-0.8403827556	-2.1749981057	 0.088885
195.3818	273.5376	293.8304	344.0834	403.1735	407.063	576.2953	655.3007	724.5295	736.9912	753.1991	784.3261	798.1629	853.8697	865.2721	911.2747	923.9129	964.0052	1007.5168	1015.0804	1038.5261	1102.0858	1175.2616	1183.5289	1235.5104	1274.9279	1301.5931	1308.7008	1383.8046	1530.3217	3180.1853	3185.8589	3200.4241	3207.3153	3776.5595	3776.571
OC12C3C4C3C1(O)C24	O[C@@]12[C@@H]3[C@H]4[C@@H]3[C@]1(O)[C@@H]24	
InChI=1S/C6H6O2/c7-5-2-1-3(2)6(5,8)4(1)5/h1-4,7-8H	InChI=1S/C6H6O2/c7-5-2-1-3(2)6(5,8)4(1)5/h1-4,7-8H/t1-,2+,3-,4+,5+,6-
