20
gdb 36887	3.81949	1.07023	1.00349	1.3097	78.79	-0.2271	0.0758	0.3029	1259.0284	0.171668	-403.060129	-403.052052	-403.051108	-403.093435	30.979	
C	-0.011639602	 1.4833287472	 0.5285996734	-0.18793
C	-0.0402164285	 0.0097965091	 0.1953094234	-0.020227
C	-1.297638202	-0.8246327973	 0.0124007772	-0.16708
C	-2.3392548445	-0.0537965058	-0.7930726679	-0.093347
O	-1.3639112514	 0.2800620557	-1.8185450823	-0.285277
C	-0.3826004972	-0.529449768	-1.158591454	 0.092428
N	 1.2693308485	 2.0644134378	 0.1281403896	-0.068349
C	 1.3401523	 2.5120195075	-1.2626677673	-0.220639
C	 1.2539614568	 3.4971182528	-0.1501316501	-0.224064
H	-0.8584666436	 1.9975771594	 0.0465921204	 0.092582
H	-0.1206870131	 1.6202952188	 1.6114100609	 0.100747
H	 0.7542516089	-0.5612211807	 0.6715913397	 0.099731
H	-1.4782271524	-1.7442723973	 0.5522655	 0.099275
H	-3.1194645031	-0.6999711834	-1.2106834216	 0.111149
H	-2.7993211489	 0.8343739425	-0.3447307879	 0.106426
H	 0.2529492828	-1.1523625306	-1.7775378365	 0.103372
H	 2.2867744601	 2.335445825	-1.7657418304	 0.110439
H	 0.4561374291	 2.3697590698	-1.8807661004	 0.131449
H	 0.3120477881	 4.0303047389	-0.0285818578	 0.106285
H	 2.1326180023	 4.0503526187	 0.1694197317	 0.11303
59.2303	93.9324	151.0485	235.4779	283.1608	369.3809	411.2982	462.6756	617.7065	746.8936	758.9701	800.2572	808.2717	846.2422	884.3386	913.7059	959.1772	975.3175	996.4633	1015.9716	1022.7139	1047.779	1055.9351	1068.0556	1083.2861	1112.1631	1122.6193	1128.2419	1163.6652	1167.5317	1176.5798	1214.6275	1261.0995	1292.3869	1311.1043	1315.3577	1346.2832	1390.8136	1451.9304	1485.5997	1496.5401	1518.0614	1524.4951	2973.9219	3026.1097	3046.131	3072.4768	3093.7761	3102.838	3139.2351	3176.8346	3178.4966	3193.4838	3203.7451
C(C1C2COC12)N1CC1	C([C@H]1[C@H]2CO[C@@H]12)N1CC1	
InChI=1S/C7H11NO/c1-2-8(1)3-5-6-4-9-7(5)6/h5-7H,1-4H2	InChI=1S/C7H11NO/c1-2-8(1)3-5-6-4-9-7(5)6/h5-7H,1-4H2/t5-,6+,7-/m0/s1
