17
gdb 5526	3.19732	1.79168	1.24205	2.9623	71.46	-0.1817	0.0366	0.2183	990.4252	0.144067	-360.087533	-360.079285	-360.078341	-360.120541	30.022	
C	-0.3293671517	 1.5626779037	-0.027215557	-0.363622
C	 0.0311266085	 0.0658967148	 0.0308754958	-0.31344
C	 0.7798217428	-0.4395950868	-1.1570870763	 0.261256
C	 2.1028435487	-0.772374908	-1.3461979852	 0.193317
N	 3.1416508454	-0.7568083826	-0.3992325508	-0.600892
N	 2.3256482154	-1.2193084336	-2.6263767728	-0.305145
C	 1.1550978625	-1.1595970346	-3.2247076369	-0.000251
N	 0.1927280603	-0.6857544662	-2.3935681778	-0.300025
H	 0.570342487	 2.1794463305	-0.1156237298	 0.118672
H	-0.9646781915	 1.7855641777	-0.8912239106	 0.108601
H	-0.8697578133	 1.8719661179	 0.87338163	 0.112983
H	 0.6474776761	-0.128758915	 0.9155185055	 0.121459
H	-0.8886173812	-0.518689248	 0.1739945481	 0.101597
H	 3.2534915455	 0.1439080775	 0.0496813649	 0.238179
H	 4.0117115768	-1.0048451987	-0.8549545436	 0.244643
H	 0.9527195688	-1.4425445476	-4.2467018505	 0.123768
H	-0.7791040401	-0.556220691	-2.6187922531	 0.2589
52.3903	128.3623	165.6558	192.922	276.6498	290.0479	387.5093	456.4349	479.7704	625.1738	674.6007	717.3063	731.0112	781.0803	784.6928	823.5225	955.8217	965.8918	1036.8646	1075.4935	1081.9219	1130.5719	1215.0235	1258.3238	1293.5285	1338.5494	1358.0765	1395.8859	1411.0425	1477.9747	1489.1155	1496.3558	1504.3473	1518.741	1642.4638	1654.0258	3006.159	3031.4887	3065.3605	3100.5878	3108.2452	3251.6381	3526.9733	3615.3202	3665.1756
CCC1=C(N)N=CN1	CCc1c(N)nc[nH]1	
InChI=1S/C5H9N3/c1-2-4-5(6)8-3-7-4/h3H,2,6H2,1H3,(H,7,8)	InChI=1S/C5H9N3/c1-2-4-5(6)8-3-7-4/h3H,2,6H2,1H3,(H,7,8)
