19
gdb 112077	1.94799	1.53789	0.94286	1.5756	77.2	-0.2387	-0.0233	0.2154	1244.0746	0.158402	-423.036651	-423.027531	-423.026587	-423.071364	33.023	
O	-0.0462436796	 1.4246230473	 0.0483280164	-0.427715
C	 0.0674162073	 0.0094537374	 0.0333884959	-0.103569
C	-1.3554857872	-0.5465991518	-0.0302898096	-0.028436
C	-2.0992815704	-0.2369745459	-1.3094822668	-0.053856
C	-2.8114991512	-1.2733397247	-1.7445042144	-0.075111
C	-2.6753244667	-2.4755872027	-0.8408392318	-0.290356
C	-1.4718655414	-2.1080388505	 0.0741987267	-0.112618
C	-0.2188290935	-2.7923681489	-0.4379083967	 0.16055
O	 0.6353178429	-3.2728270359	 0.2630885415	-0.262026
H	 0.839482425	 1.7983068603	 0.0702447289	 0.289649
H	 0.6512019253	-0.3309457633	-0.8365260389	 0.090296
H	 0.5733742366	-0.3661673989	 0.9356890967	 0.106023
H	-1.8889997189	-0.0920279673	 0.8169840784	 0.100686
H	-2.0620936253	 0.7486014392	-1.757307123	 0.110644
H	-3.4532376534	-1.2735444638	-2.6185517184	 0.097058
H	-3.5858235136	-2.638152102	-0.2495692291	 0.117544
H	-2.50337395	-3.408487078	-1.3940840258	 0.107683
H	-1.6037887537	-2.4238906208	 1.1111567108	 0.093864
H	-0.1339956624	-2.8301670097	-1.5495036609	 0.079688
58.5706	67.6402	119.4428	177.9084	237.8763	278.8749	296.1473	353.5698	412.9624	451.2719	511.9764	708.8761	760.277	779.6305	843.4593	891.6782	934.1176	961.3584	982.056	993.0928	1019.6533	1075.7441	1081.4245	1093.4219	1111.6601	1137.0578	1193.5985	1226.0407	1240.0689	1249.5494	1287.9421	1316.3762	1322.5884	1343.6515	1380.1698	1426.1714	1457.1231	1486.7197	1519.3285	1687.7513	1825.365	2855.4778	2971.4603	2995.938	3013.7543	3015.2213	3040.2021	3093.6761	3190.4713	3220.8236	3831.3296
OCC1C=CCC1C=O	OC[C@H]1C=CC[C@H]1C=O	
InChI=1S/C7H10O2/c8-4-6-2-1-3-7(6)5-9/h1-2,5-8H,3-4H2	InChI=1S/C7H10O2/c8-4-6-2-1-3-7(6)5-9/h1-2,5-8H,3-4H2/t6-,7+/m1/s1
