17
gdb 27561	3.30588	1.1938	0.88187	0.9385	94.3	-0.2282	-0.0273	0.2009	1289.7632	0.136307	-347.601373	-347.593014	-347.59207	-347.634979	31.55	
C	-0.0180631077	 1.5259187266	 0.0120207346	-0.496069
C	-0.0022121637	 0.0165717883	 0.0065731874	 0.332901
C	-0.0147624082	-0.6957088051	-1.1904535055	-0.298404
C	 0.0193200383	-2.0996275077	-1.2071092434	 0.173059
C	 0.0648692706	-2.7954844933	 0.0096779249	-0.21965
C	 0.0745779184	-2.0913714878	 1.2077334855	-0.08405
C	 0.040595794	-0.7003687673	 1.2079004859	-0.195439
C	 0.0050679543	-2.8050881163	-2.4455336621	 0.227353
C	-0.0063863185	-3.4002336345	-3.4926450468	-0.420026
H	 0.9697729682	 1.9317482227	 0.261129102	 0.135726
H	-0.301769588	 1.9262619988	-0.9647015903	 0.126557
H	-0.7214924862	 1.9142449865	 0.7555262385	 0.129918
H	-0.0526555646	-0.1637115725	-2.1352639078	 0.099331
H	 0.0889710104	-3.8788860766	 0.0025664337	 0.105104
H	 0.1059678781	-2.6313591992	 2.1483584794	 0.098979
H	 0.0456546318	-0.16138652	 2.150833378	 0.093128
H	-0.0165855273	-3.9254013426	-4.4152774439	 0.19158
36.1275	138.1311	140.7865	212.466	333.1147	372.9256	455.0301	470.8253	528.2711	545.5738	571.9135	604.1608	640.7467	714.5077	723.2359	811.425	899.2655	919.0341	927.543	968.6098	1010.8474	1016.9973	1063.385	1117.8952	1175.9791	1194.9695	1269.5937	1310.6648	1342.5265	1412.6999	1442.4211	1486.4583	1495.424	1516.7383	1615.5812	1641.3842	2225.5701	3030.8617	3086.9208	3117.3698	3166.3757	3183.7507	3185.4082	3204.7237	3503.6579
CC1=CC(=CC=C1)C#C	Cc1cc(ccc1)C#C	
InChI=1S/C9H8/c1-3-9-6-4-5-8(2)7-9/h1,4-7H,2H3	InChI=1S/C9H8/c1-3-9-6-4-5-8(2)7-9/h1,4-7H,2H3
