20
gdb 61813	2.71671	1.0943	0.9	3.546	76.51	-0.2491	-0.0005	0.2487	1348.6499	0.168731	-440.287408	-440.277441	-440.276497	-440.323166	35.774	
C	-0.3144009045	 1.6790238828	-0.2666782998	-0.395032
C	-0.0622244402	 0.1856935969	-0.0641271172	 0.018858
O	-1.3452123325	-0.4605752218	 0.0714855204	-0.194807
C	-1.7120203757	-0.93060041	 1.2793964249	 0.170187
O	-2.7647527739	-1.4578905675	 1.474297867	-0.272989
C	 0.6984440652	-0.4722768821	-1.2148763774	 0.336638
C	 2.0744077476	 0.1091125902	-1.4742504035	-0.456989
C	 0.4522100087	-1.9058759279	-1.5151171009	-0.285303
N	-0.048652139	-0.8526695985	-2.4238750545	-0.352224
H	 0.6268834949	 2.2321164495	-0.30691204	 0.131736
H	-0.8604400984	 1.8538624496	-1.1979630857	 0.140901
H	-0.907720724	 2.0757544443	 0.5615253601	 0.126554
H	 0.506291568	 0.0322698689	 0.8645283101	 0.092256
H	-0.9354499812	-0.7743172315	 2.0533086095	 0.081824
H	 2.7011231119	 0.0618751549	-0.5759481933	 0.113406
H	 2.5692102108	-0.4553987136	-2.2673438181	 0.135145
H	 2.0181795777	 1.1525669699	-1.7983627446	 0.126371
H	 1.2621293885	-2.5096064353	-1.9154959175	 0.115233
H	-0.2730665547	-2.4508777769	-0.920462317	 0.125262
H	-1.0459661991	-0.7367907518	-2.2534830225	 0.242973
37.7093	57.7934	142.5134	183.5647	206.9988	208.8571	273.1395	325.83	352.0923	369.5412	403.3067	470.4201	530.7221	667.2288	719.3568	843.2784	880.4929	927.1969	939.2661	982.9143	1018.605	1041.1443	1045.6082	1071.7456	1098.0922	1118.8482	1134.1527	1172.849	1197.6778	1275.105	1298.1181	1355.4941	1374.1186	1383.4232	1408.4406	1421.0492	1436.704	1485.0737	1489.31	1493.2692	1504.6282	1512.262	1865.1037	2949.4849	3001.5844	3034.9866	3050.5142	3100.2905	3117.8165	3124.6707	3127.5935	3133.802	3208.1586	3492.4271
CC(OC=O)C1(C)CN1	C[C@@H](OC=O)[C@@]1(C)CN1	
InChI=1S/C6H11NO2/c1-5(9-4-8)6(2)3-7-6/h4-5,7H,3H2,1-2H3	InChI=1S/C6H11NO2/c1-5(9-4-8)6(2)3-7-6/h4-5,7H,3H2,1-2H3/t5-,6-/m1/s1
