19
gdb 19357	4.13499	1.60933	1.43717	1.6478	74.52	-0.2166	0.0704	0.287	956.3616	0.165618	-327.841248	-327.833749	-327.832805	-327.8729	29.467	
C	 0.1060534789	 1.5312606691	-0.1510481278	-0.372689
C	-0.0751434572	 0.0253337576	 0.0861488666	-0.296595
C	 0.7025078314	-0.4776236937	 1.2698388679	 0.370722
C	 2.1440080589	-0.9161306657	 1.2280000379	-0.358719
C	 1.0821302259	-1.873268251	 1.7056185097	-0.073232
N	 0.5247328327	-1.6843075769	 3.1062475254	-0.140019
C	 1.2057430498	-0.5650057473	 3.7864628619	-0.250373
C	 0.2231587915	-0.2595756289	 2.7257568288	-0.088053
H	 1.1553361513	 1.7733458733	-0.3483912913	 0.118745
H	-0.4876829748	 1.8711660592	-1.0051432988	 0.111848
H	-0.2076923253	 2.1099394872	 0.7245113923	 0.119005
H	-1.1410932627	-0.1973978825	 0.2302869573	 0.101409
H	 0.235400675	-0.5296260682	-0.8075657068	 0.097969
H	 2.4905683745	-1.1542506246	 0.2257237602	 0.113768
H	 2.9236663267	-0.5010707378	 1.8570258035	 0.111183
H	 0.9070356487	-2.8359015576	 1.2410879093	 0.10068
H	 0.8628398659	-0.4538453802	 4.8117682428	 0.12114
H	 2.2688943482	-0.3962046044	 3.6610617717	 0.118924
H	-0.7523658898	 0.1673961326	 2.9421391894	 0.094287
86.0826	146.1543	204.6046	292.6665	333.8223	406.5184	469.3998	522.7933	634.4977	685.6848	753.8671	779.1379	802.7263	836.2361	897.6153	931.7125	966.2672	991.7629	999.4524	1016.255	1042.6371	1052.8246	1069.5592	1085.2275	1109.0865	1129.18	1140.9755	1215.1788	1229.5998	1253.1402	1296.3716	1343.5559	1358.9706	1407.0389	1414.4147	1478.8686	1486.3727	1497.9544	1507.5451	1526.0179	3013.9667	3033.6835	3051.3718	3101.7978	3107.4528	3119.4409	3130.0679	3144.4444	3184.073	3197.6298	3212.3065
CCC12CC1N1CC21	CC[C@]12C[C@H]1N1C[C@@H]21	
InChI=1S/C7H11N/c1-2-7-3-5(7)8-4-6(7)8/h5-6H,2-4H2,1H3	InChI=1S/C7H11N/c1-2-7-3-5(7)8-4-6(7)8/h5-6H,2-4H2,1H3/t5-,6+,7+,8?/m1/s1
