17
gdb 14281	3.59505	1.76042	1.69522	3.6646	67.63	-0.2349	0.0308	0.2658	855.5252	0.143903	-363.898988	-363.891758	-363.890814	-363.93041	27.804	
C	-0.0788430668	 1.5596529653	 0.0648653219	-0.427314
C	 0.0357704746	 0.0558874245	-0.0342929678	-0.020094
C	 0.6900006004	-0.671130577	-1.198650017	-0.075413
C	 1.6481684432	 0.0705774684	-2.1153577135	-0.348464
C	 2.794129153	 0.5505239701	-1.2056326649	 0.385247
O	 3.7093179605	 1.2835394652	-1.5044004215	-0.373517
N	 2.5669796302	 0.012073592	 0.040606252	-0.291373
C	 1.3327609006	-0.7024576447	 0.1732580035	-0.031525
H	 0.8367820202	 2.0703499827	-0.2432722182	 0.137631
H	-0.8931277762	 1.9309124596	-0.5666147173	 0.123686
H	-0.2930847159	 1.8636341488	 1.0951170515	 0.12056
H	-0.8307273463	-0.4757229427	 0.3532986972	 0.089383
H	 0.1949878301	-1.5549366997	-1.5819733629	 0.094155
H	 2.055832297	-0.5840145101	-2.8920582996	 0.132273
H	 1.215474138	 0.9379178695	-2.622542709	 0.134066
H	 3.1034060263	 0.3417185581	 0.8278512102	 0.250861
H	 1.3615907711	-1.5987542001	 0.7831977155	 0.099837
94.3409	158.4165	194.856	265.1767	424.1897	468.6141	490.1831	563.4746	597.5419	661.4706	715.0473	769.4913	780.2519	853.2331	904.5885	957.2163	976.0993	1014.7895	1052.3773	1090.243	1096.8263	1133.6399	1143.2655	1190.5352	1226.0005	1252.1018	1285.6705	1357.8436	1374.5102	1399.9754	1424.4754	1440.6619	1465.0387	1494.4206	1503.5403	1828.816	3035.8962	3060.2358	3092.8486	3097.9921	3114.7	3133.7375	3163.4571	3182.7651	3635.5308
CC1C2CC(=O)NC12	C[C@H]1[C@H]2CC(=O)N[C@@H]12	
InChI=1S/C6H9NO/c1-3-4-2-5(8)7-6(3)4/h3-4,6H,2H2,1H3,(H,7,8)	InChI=1S/C6H9NO/c1-3-4-2-5(8)7-6(3)4/h3-4,6H,2H2,1H3,(H,7,8)/t3-,4+,6-/m0/s1
