15
gdb 79489	2.35805	1.93045	1.25269	4.0786	70.28	-0.2497	-0.0088	0.241	980.6657	0.111461	-416.689347	-416.681954	-416.681009	-416.721159	28.25	
C	 0.078006828	 1.5252174887	-0.1543285971	-0.340041
N	 0.0414934513	 0.0675421231	-0.0367667477	-0.150326
C	-1.1154274374	-0.4941333778	 0.7172420108	-0.078277
C	-0.2866354705	-1.7191799272	 1.1973468762	 0.038842
O	-0.6535439062	-1.5845037056	 2.5916795157	-0.311025
C	-0.5416749693	-0.208977864	 2.1573650976	 0.031105
C	 0.6886069437	-0.4906957828	 1.1866894187	 0.245192
C	 2.0980579673	-0.4267302177	 1.4597786417	 0.15203
N	 3.229000315	-0.3601105201	 1.6914803153	-0.339754
H	 1.0825305707	 1.8331626877	-0.4577272788	 0.145576
H	-0.6207192352	 1.8316839765	-0.9380645099	 0.133858
H	-0.1838506235	 2.0598062092	 0.7735541565	 0.106629
H	-2.1455284363	-0.4588238837	 0.3668443412	 0.111228
H	-0.1500164465	-2.7052832279	 0.7596838237	 0.130006
H	-0.711748701	 0.5801512216	 2.887790246	 0.124957
122.8212	165.2145	220.262	229.7102	297.149	427.1895	496.0626	553.5891	564.7043	633.3169	737.0779	758.4597	801.0682	824.1349	894.2659	920.6137	938.0979	955.1572	1049.8262	1092.7184	1125.9587	1134.7327	1154.6342	1165.585	1177.6832	1202.6128	1260.0334	1274.4407	1340.5126	1449.6989	1493.2028	1495.3177	2351.0962	2973.0478	3080.4523	3118.842	3136.6578	3146.7073	3162.9688
CN1C2C3OC2C13C#N	CN1[C@H]2[C@@H]3O[C@H]2[C@]13C#N	
InChI=1S/C6H6N2O/c1-8-3-4-6(8,2-7)5(3)9-4/h3-5H,1H3	InChI=1S/C6H6N2O/c1-8-3-4-6(8,2-7)5(3)9-4/h3-5H,1H3/t3-,4-,5+,6+
