19
gdb 108121	3.04764	1.52022	1.38063	0.3413	73.76	-0.2405	0.0706	0.3111	1027.2265	0.159995	-422.981844	-422.974409	-422.973464	-423.013772	29.75	
C	-0.0691500057	 1.5752769448	-0.0661116516	-0.383218
C	-0.0489537775	 0.0411267768	-0.0490205357	-0.320936
C	 0.6760641039	-0.5363250694	-1.2268696772	 0.451414
O	 0.118690738	-0.2924509953	-2.5251269043	-0.330077
C	 1.0417474209	-1.3157891247	-3.0016640134	 0.026082
C	 2.3906562951	-0.5821858374	-2.8924900194	-0.21141
C	 2.2841605563	-0.4982360315	-1.3607743124	-0.0097
O	 2.3344390763	-1.9083953434	-0.9890159515	-0.294774
C	 1.028146689	-1.9937844517	-1.5554180751	-0.007824
H	 0.945020081	 1.9859329911	-0.0211433784	 0.116884
H	-0.540341421	 1.9452023554	-0.9808743135	 0.138714
H	-0.6268851931	 1.9671143668	 0.7890294386	 0.115488
H	 0.4376097997	-0.3284599233	 0.8613603986	 0.116406
H	-1.0746176108	-0.3461750167	-0.0441369978	 0.110153
H	 0.7308956342	-1.7988018568	-3.9253212248	 0.085254
H	 3.2652456553	-1.1624636354	-3.1928018071	 0.110684
H	 2.3536743239	 0.3750881466	-3.4154662903	 0.110862
H	 2.9494058479	 0.1366719592	-0.7787007991	 0.083682
H	 0.4616130267	-2.8988691651	-1.3429346357	 0.092316
91.4435	148.9033	204.0129	297.2213	336.6162	452.9915	526.3981	554.6611	612.1623	706.0216	752.2346	778.3197	820.5558	849.6154	887.2011	922.8136	936.3255	944.8116	961.8752	980.5974	988.1606	999.3011	1035.8033	1096.3018	1115.1126	1129.5644	1156.67	1173.1869	1222.0799	1243.6898	1257.2044	1273.229	1312.587	1318.1167	1339.6094	1407.471	1414.5385	1461.5041	1476.0853	1499.6921	1508.7684	3033.9031	3041.0686	3071.5048	3079.7588	3108.982	3122.1225	3137.7426	3142.3339	3145.3457	3153.4817
CCC12OC3CC1OC23	CC[C@@]12O[C@H]3C[C@@H]1O[C@@H]23	
InChI=1S/C7H10O2/c1-2-7-5-3-4(9-7)6(7)8-5/h4-6H,2-3H2,1H3	InChI=1S/C7H10O2/c1-2-7-5-3-4(9-7)6(7)8-5/h4-6H,2-3H2,1H3/t4-,5-,6+,7+/m0/s1
