16
gdb 100855	2.0582	1.20893	0.89452	3.5776	66.17	-0.2756	-0.049	0.2266	1292.7804	0.121268	-475.028016	-475.018025	-475.017081	-475.063963	34.084	
O	-0.1570507521	 1.4210128803	-0.0815767083	-0.429209
C	 0.0445322117	 0.0156182712	 0.0174899295	-0.123777
C	-1.3573626047	-0.5908036917	 0.037019162	 0.143602
O	-2.0908995426	-0.1767863571	-1.0934467126	-0.440888
C	-1.352249644	-2.1369788802	 0.0338653613	-0.258762
C	-2.818533785	-2.6185819796	 0.0925535974	 0.174035
O	-3.4301849459	-2.6312852721	 1.1233812402	-0.242287
C	-0.6573091035	-2.6904604087	-1.1266736644	 0.285296
N	-0.1157611784	-3.1523784514	-2.0368361268	-0.322307
H	 0.6514965358	 1.8287276768	-0.403699954	 0.303009
H	 0.5993621389	-0.3698016946	-0.8478496753	 0.125327
H	 0.5896763936	-0.2503691309	 0.9351803571	 0.102235
H	-1.8606906855	-0.2858611409	 0.9676212419	 0.106956
H	-1.892552122	 0.7626332924	-1.2043150283	 0.300251
H	-0.8647992956	-2.4840854847	 0.9513281659	 0.15063
H	-3.2606286905	-2.9260221786	-0.8741782256	 0.125889
49.0024	76.0173	101.7396	142.2467	176.0741	196.8309	249.0509	279.1932	355.3154	401.4106	462.9492	505.0305	517.6012	543.992	701.3328	842.0975	932.4707	975.0871	993.6217	1051.3366	1078.2285	1084.7466	1136.5831	1218.6578	1228.9255	1265.1968	1275.0118	1328.5803	1389.4695	1412.3986	1416.2347	1456.1236	1511.0061	1839.6504	2360.8738	2956.9726	2991.3103	2995.0243	3050.8337	3068.6646	3768.2525	3845.5443
OCC(O)C(C=O)C#N	OC[C@@H](O)[C@@H](C=O)C#N	
InChI=1S/C5H7NO3/c6-1-4(2-7)5(9)3-8/h2,4-5,8-9H,3H2	InChI=1S/C5H7NO3/c6-1-4(2-7)5(9)3-8/h2,4-5,8-9H,3H2/t4-,5-/m1/s1
