17
gdb 62002	3.94458	0.68376	0.64145	5.6835	69.97	-0.2594	0.011	0.2704	1696.8171	0.134268	-455.188225	-455.177976	-455.177032	-455.224989	35.35	
N	-0.0024661885	 1.31522991	 0.224645659	-0.522194
C	 0.0209507811	 0.0203522921	-0.2017030704	 0.410973
O	 1.0004954313	-0.4789955939	-0.7207758273	-0.356508
C	-1.285119388	-0.7480992096	 0.0035357877	-0.328855
C	-1.0373820679	-2.2499178735	 0.1547106503	-0.199071
C	-2.3214806017	-3.0668214572	-0.0648030222	-0.029995
O	-2.8942952155	-2.8641253464	-1.3451551961	-0.406043
C	-2.0706978877	-4.5027734686	 0.1815821398	 0.261728
N	-1.8581208629	-5.6256561108	 0.3519826586	-0.313015
H	 0.7989813475	 1.8938648555	 0.0323592848	 0.264246
H	-0.8317455312	 1.7457003351	 0.5937094883	 0.260144
H	-1.8400945039	-0.3492853189	 0.8605612026	 0.104672
H	-1.9083896313	-0.5782309427	-0.8829984398	 0.148939
H	-0.2776154243	-2.5556429497	-0.5718309652	 0.142471
H	-0.6313464521	-2.4803498484	 1.1454078635	 0.126447
H	-3.0927850736	-2.7422622666	 0.6437413849	 0.137437
H	-2.2673918114	-3.1798182965	-2.0072760384	 0.298624
34.7772	57.2621	85.6696	129.4977	179.7399	205.8676	248.2042	282.6215	352.7861	403.3545	448.896	522.1231	564.5094	591.3572	621.2655	677.2136	778.4689	835.645	921.5982	964.8328	1044.8244	1073.9212	1092.8129	1108.3064	1166.0697	1244.1482	1278.7518	1308.1178	1333.711	1367.8438	1407.5324	1421.6153	1468.6376	1489.7381	1619.1463	1797.5287	2356.2151	3034.2366	3049.2809	3055.623	3073.5489	3103.8403	3602.7924	3739.4262	3793.3585
NC(=O)CCC(O)C#N	NC(=O)CC[C@@H](O)C#N	
InChI=1S/C5H8N2O2/c6-3-4(8)1-2-5(7)9/h4,8H,1-2H2,(H2,7,9)	InChI=1S/C5H8N2O2/c6-3-4(8)1-2-5(7)9/h4,8H,1-2H2,(H2,7,9)/t4-/m1/s1
