16
gdb 27844	1.92237	1.82804	0.9407	7.1588	77.52	-0.2021	0.004	0.206	1180.1325	0.127134	-434.127506	-434.119415	-434.118471	-434.159682	31.893	
N	 0.121726837	 1.3907002653	 0.1453680686	-0.590692
C	-0.0125062101	 0.0044342971	 0.0315897491	 0.420817
C	-1.1788863399	-0.6819377298	-0.0080772634	-0.343878
C	-1.2116451201	-2.1456003143	-0.0150023648	 0.410392
O	-2.257925849	-2.788873395	-0.0476720551	-0.41717
C	 0.1094415149	-2.7765130612	-0.0255241559	-0.343878
C	 1.2484114873	-2.0455783043	 0.0145144744	 0.420815
N	 2.5469923641	-2.552315666	 0.1125255581	-0.590693
H	 2.5697672543	-3.5608840948	 0.0484649617	 0.26049
H	 3.1926194462	-2.1454265367	-0.5545872518	 0.248967
N	 1.2003317403	-0.6623242514	 0.0183668138	-0.422244
H	 0.7711382909	 1.7914641677	-0.5217786997	 0.248967
H	-0.7685790281	 1.8666347218	 0.0936576246	 0.260491
H	-2.1242736544	-0.1546976839	-0.0541458019	 0.090134
H	 0.1532038565	-3.8574434132	-0.0849883727	 0.090134
H	 1.99203385	-0.1786820312	 0.4163669951	 0.257347
167.3366	188.2563	211.6664	294.4187	305.2035	326.6506	354.7156	497.1387	505.4642	520.5832	554.8326	603.5134	624.7566	638.0351	721.8955	731.2874	772.8981	838.9316	861.0722	941.5669	1010.811	1032.9184	1135.6118	1154.3049	1214.8222	1255.6788	1270.3939	1361.9057	1443.2686	1534.7617	1630.4963	1639.1778	1670.3664	1714.3871	1729.1811	3202.3672	3203.5226	3528.6533	3528.7698	3612.443	3635.6561	3635.8299
NC1=CC([O-])=CC(=[NH2+])N1	Nc1cc(=O)cc(N)[nH]1	
InChI=1S/C5H7N3O/c6-4-1-3(9)2-5(7)8-4/h1-2H,(H5,6,7,8,9)	InChI=1S/C5H7N3O/c6-4-1-3(9)2-5(7)8-4/h1-2H,(H5,6,7,8,9)
