14
gdb 61709	2.41476	1.15743	0.94291	3.5191	64.32	-0.2722	-0.0814	0.1908	1223.4191	0.096456	-473.836016	-473.826539	-473.825594	-473.871438	32.128	
O	-0.1145129241	 1.4621496607	 0.1303998366	-0.433535
C	-0.0030504469	 0.0761375394	-0.0064213114	 0.097359
C	 0.7799644812	-0.2751542259	-1.2939577919	-0.309191
C	 0.1153966714	 0.2685922776	-2.5553649313	 0.160134
O	 0.1681533311	-0.297954777	-3.6129299448	-0.226495
C	 0.7547408737	-0.5041046895	 1.2078268118	 0.135565
O	 1.1663023565	 0.2279485152	 2.066791884	-0.242703
C	-1.3391778888	-0.5659312588	-0.0232782442	 0.263507
N	-2.3665795562	-1.0947987299	-0.0218279857	-0.30989
H	 0.2483560741	 1.6737198519	 1.0081288789	 0.308822
H	 1.7650632823	 0.2015017087	-1.2063321579	 0.153218
H	 0.9213352986	-1.3534270686	-1.4074120781	 0.143799
H	-0.3998078179	 1.2422730874	-2.431562537	 0.121001
H	 0.897297285	-1.599491241	 1.223196341	 0.138409
49.5221	83.2512	92.0864	133.8189	186.0639	238.3638	306.2305	349.4884	376.9967	456.8101	462.1586	516.1237	574.6346	678.095	771.4952	835.497	930.1594	953.9821	1025.0217	1053.9683	1130.816	1177.0918	1262.8187	1292.6198	1378.9494	1417.8769	1422.8298	1436.2403	1826.845	1838.329	2351.6865	2940.0404	2985.4528	3036.0907	3111.9313	3656.0393
OC(CC=O)(C=O)C#N	O[C@@](CC=O)(C=O)C#N	
InChI=1S/C5H5NO3/c6-3-5(9,4-8)1-2-7/h2,4,9H,1H2	InChI=1S/C5H5NO3/c6-3-5(9,4-8)1-2-7/h2,4,9H,1H2/t5-/m1/s1
