17
gdb 86655	2.86947	1.33774	1.06348	4.9568	70.84	-0.2485	-0.0221	0.2264	1134.9917	0.137094	-455.185823	-455.177522	-455.176578	-455.218971	30.784	
O	-0.7492533141	 1.1564055073	-0.7005764302	-0.434105
C	 0.0012425534	 0.1292538299	-0.0735362354	 0.109349
C	-1.0081802216	-0.9395176688	 0.3634150116	-0.183561
N	-1.1449576299	-1.7876528745	-0.8249523685	-0.104996
C	-2.2369932232	-2.5853956636	-1.0429269679	 0.156399
O	-2.4003646776	-3.3096676767	-2.0011749348	-0.315279
C	-0.0494071338	-1.6312245952	-1.7203573675	 0.403343
N	 0.147550438	-2.1885722352	-2.8363839089	-0.536859
C	 0.8890461361	-0.6345339938	-1.0665538557	-0.32506
H	-0.1407182306	 1.7324108443	-1.1741601384	 0.290385
H	 0.5635745172	 0.5176536449	 0.7853469646	 0.079881
H	-0.6240324447	-1.5128447006	 1.2157382008	 0.119558
H	-1.9623320253	-0.4854064787	 0.6391262506	 0.140237
H	-2.9812806167	-2.4967341946	-0.2280138749	 0.088703
H	-0.6139152808	-2.8325193895	-3.0545284939	 0.2526
H	 1.3702127713	 0.0034402607	-1.810567821	 0.129554
H	 1.6807858923	-1.176111066	-0.5343741506	 0.129848
75.9857	106.6303	221.8901	252.3674	254.4106	290.6297	380.9681	388.5283	469.2901	501.014	559.6851	703.3122	764.5881	799.9159	870.3982	909.0618	958.9189	981.8234	1018.7689	1028.8485	1044.0219	1102.0168	1168.3416	1181.7537	1221.8599	1254.0157	1293.101	1306.7185	1336.6381	1364.3429	1412.2808	1422.4207	1445.3553	1462.6954	1505.5816	1733.125	1809.2221	2945.1258	3016.1688	3034.1423	3046.6779	3111.2627	3116.1445	3485.4508	3822.0224
OC1CN(C=O)C(=N)C1	O[C@H]1CN(C=O)[C]([NH])C1	
InChI=1S/C5H8N2O2/c6-5-1-4(9)2-7(5)3-8/h3-4,6,9H,1-2H2	InChI=1S/C5H8N2O2/c6-5-1-4(9)2-7(5)3-8/h3-4,6,9H,1-2H2/t4-/m1/s1
