18
gdb 119545	3.12648	1.14694	0.93147	2.1391	74.38	-0.2556	0.0162	0.2719	1290.8	0.14597	-439.042387	-439.033588	-439.032644	-439.076632	32.311	
C	-0.0379669198	 1.5546323083	 0.1192204646	-0.390661
C	-0.1280195165	 0.0407734103	 0.1197297341	-0.068685
O	 0.8488282049	-0.4591820363	 1.0461882764	-0.282634
C	 0.8716481207	-1.8174110585	 1.1312233857	 0.309121
C	-0.108532842	-2.6375504395	 1.991386645	-0.352449
C	 1.3627496725	-2.7233438441	 2.2282189945	-0.00338
O	 1.9387118424	-3.638193084	 1.252587875	-0.276008
C	 1.5913488451	-2.7687207852	 0.2159232066	 0.388305
N	 1.8663995437	-2.7963190413	-1.0045306869	-0.56266
H	 0.9585669654	 1.8801440012	-0.1913891627	 0.13447
H	-0.7721085571	 1.9744036807	-0.5747370984	 0.120157
H	-0.2356195466	 1.9545723982	 1.1179395899	 0.125416
H	-1.1275434986	-0.2979203304	 0.4296861399	 0.095581
H	 0.0754254788	-0.3706890714	-0.8766223737	 0.131343
H	-0.6542915865	-2.0170365347	 2.6965723281	 0.131654
H	-0.6435641986	-3.4952936792	 1.5960103936	 0.131376
H	 1.9187879725	-2.5430073321	 3.1369049969	 0.135951
H	 2.4294186097	-3.6140322217	-1.2448195185	 0.233102
57.6951	74.4482	135.9316	191.1064	236.4645	293.1279	350.4521	391.35	460.9505	493.8373	633.9176	718.5395	766.721	820.2819	854.1809	863.9801	889.5744	907.7831	947.5513	960.9605	1005.1707	1022.8503	1051.3294	1071.2691	1074.0036	1139.1343	1176.1449	1186.0182	1270.732	1278.9336	1296.4027	1385.9029	1408.3864	1436.7039	1482.9504	1487.7859	1500.3193	1526.2252	1835.2175	2998.2517	3046.3347	3052.8685	3120.9141	3120.9754	3125.08	3217.4486	3229.4422	3477.6435
CCOC12CC1OC2=N	CCO[C@]12C[C@H]1O[C]2[NH]	
InChI=1S/C6H9NO2/c1-2-8-6-3-4(6)9-5(6)7/h4,7H,2-3H2,1H3	InChI=1S/C6H9NO2/c1-2-8-6-3-4(6)9-5(6)7/h4,7H,2-3H2,1H3/t4-,6-/m1/s1
