19
gdb 38709	2.58347	2.13927	1.59221	2.0226	78.17	-0.2472	0.012	0.2592	902.5202	0.162462	-385.868533	-385.86208	-385.861136	-385.898775	28.184	
C	-0.0640418733	 1.5976219068	-0.1005604887	-0.268939
C	 1.4225415962	 1.9265190725	 0.0833563655	 0.019351
O	 2.4147054059	 1.9153559749	-0.9751731813	-0.318907
C	 2.1723643193	 0.7131879237	-0.2504154686	 0.382656
C	 1.1842537524	-0.2405111183	-0.9315301497	-0.267468
C	 0.0005117099	 0.0344843216	 0.0121895737	-0.049181
C	 0.4858069142	-0.4333057214	 1.3906150553	-0.06358
C	 1.7784362376	-0.477915425	 1.7513305971	-0.050759
C	 2.922512373	 0.0574691592	 0.8813776914	-0.355489
H	-0.6621587702	 2.0713140021	 0.6822980465	 0.102978
H	-0.4710289422	 1.9002778306	-1.0711022523	 0.111748
H	 1.7169139771	 2.5455166352	 0.926660154	 0.094511
H	 0.9907078395	 0.0765393361	-1.9590270862	 0.104647
H	 1.5104479713	-1.2828143287	-0.9223753301	 0.09637
H	-0.9399347985	-0.4592673645	-0.2537420943	 0.059832
H	-0.2681446338	-0.7785059897	 2.0935711079	 0.087419
H	 2.049549295	-0.8682820569	 2.7292758622	 0.090353
H	 3.6030472088	-0.7464997989	 0.5706250586	 0.107966
H	 3.5159914579	 0.7829112309	 1.4507373789	 0.116493
249.8126	292.0494	360.2975	384.4649	462.8433	478.7368	489.34	611.7355	640.3603	707.0944	757.4415	795.6893	834.7137	871.887	887.4668	915.2949	925.0213	950.195	982.5004	987.849	1007.4368	1025.2404	1042.1216	1084.6224	1114.3081	1158.0427	1169.2066	1187.0588	1221.2487	1239.5908	1288.3324	1306.0616	1311.309	1334.2493	1347.3816	1391.7447	1454.2252	1472.1522	1481.5293	1497.3689	1665.3404	3015.5507	3046.6968	3055.3417	3058.1142	3068.572	3103.0788	3121.95	3144.8595	3145.8354	3169.0783
C1C2OC22CC1C=CC2	C1[C@@H]2O[C@@]32C[C@H]1C=CC3	
InChI=1S/C8H10O/c1-2-6-4-7-8(3-1,5-6)9-7/h1-2,6-7H,3-5H2	InChI=1S/C8H10O/c1-2-6-4-7-8(3-1,5-6)9-7/h1-2,6-7H,3-5H2/t6-,7-,8+/m0/s1
