17
gdb 32138	2.86417	1.41072	0.95644	1.5786	78.67	-0.2475	-0.0225	0.225	1208.676	0.136799	-418.07723	-418.068747	-418.067803	-418.110958	30.395	
C	-0.0164716927	 1.4054922047	 0.0742835378	-0.233931
O	-0.0282580004	-0.0237057425	 0.0333288366	-0.260669
C	-1.2233247399	-0.6278914898	 0.0144473779	 0.453289
C	-1.2427739237	-2.0304471113	-0.0255914692	-0.236039
C	-2.4943146155	-2.6059338964	-0.0437428682	 0.016564
N	-3.6357593301	-1.8959131191	-0.0250429393	-0.299029
C	-3.4980508647	-0.5722109664	 0.0128957142	 0.348283
C	-4.7477788075	 0.2632920188	 0.0349882382	-0.456947
N	-2.3310409735	 0.0969678888	 0.0335869094	-0.380122
H	 1.0375829417	 1.6849945071	 0.08415407	 0.13129
H	-0.5150135619	 1.8271418025	-0.8024394035	 0.138452
H	-0.5181917174	 1.7763329989	 0.9718981467	 0.138473
H	-0.3262319044	-2.6048808676	-0.0406968311	 0.113622
H	-2.6043217218	-3.6875428262	-0.0747154095	 0.115233
H	-4.7688919026	 0.8900764986	 0.9323364754	 0.136912
H	-4.7665793392	 0.9399859049	-0.8254081936	 0.136915
H	-5.6297423964	-0.376668435	 0.0156316682	 0.137704
57.5465	115.3395	157.2229	200.1839	208.4432	239.3989	369.007	453.7187	474.7632	583.771	611.2035	654.5368	755.4059	800.1299	856.6691	948.6937	999.6934	1002.88	1027.7869	1068.1557	1070.7903	1115.8483	1176.9878	1210.603	1265.3532	1298.4529	1360.1547	1392.9484	1431.686	1450.6297	1476.8152	1479.1429	1480.0997	1497.2033	1515.9622	1610.6312	1620.7454	3046.482	3047.7169	3102.6248	3121.2512	3152.4945	3157.6451	3158.2286	3222.6224
COC1=CC=NC(C)=N1	COc1ccnc(C)n1	
InChI=1S/C6H8N2O/c1-5-7-4-3-6(8-5)9-2/h3-4H,1-2H3	InChI=1S/C6H8N2O/c1-5-7-4-3-6(8-5)9-2/h3-4H,1-2H3
