19
gdb 69121	2.73764	1.58791	1.23059	3.0576	76.48	-0.2362	-0.0286	0.2077	1055.4648	0.159652	-423.04679	-423.03879	-423.037846	-423.078768	32.031	
O	-0.1704607084	 1.2955077234	-0.2776159255	-0.470722
C	-0.0782880008	-0.0493089357	-0.0079471807	 0.426412
C	-0.3410939238	-1.066600835	-1.0511400649	-0.389556
C	-1.3635360692	-0.9664276133	 0.0912614989	 0.173646
C	-1.1776756006	-1.9042057982	 1.2705721838	-0.30124
C	 0.330922761	-1.8150309831	 1.6218582588	-0.231558
C	 0.7912409896	-0.4096682772	 1.1794598925	-0.257421
C	-2.6197933731	-0.2776248504	-0.1803497587	 0.066068
O	-2.754456206	 0.5728378515	-1.0471716608	-0.3183
H	-0.9462825745	 1.4242543866	-0.8501980084	 0.303023
H	-0.694035891	-0.6927526269	-2.0067137712	 0.13506
H	 0.2478660041	-1.9769356197	-1.1010784342	 0.119979
H	-1.7913875066	-1.5561101759	 2.1104003952	 0.107408
H	-1.4797827401	-2.93546568	 1.0565076804	 0.1045
H	 0.5197362966	-1.9947961479	 2.6827745232	 0.108453
H	 0.8864476469	-2.5816907542	 1.0727723994	 0.110996
H	 1.8589211275	-0.3749934046	 0.9395811879	 0.112072
H	 0.6056209243	 0.3372094452	 1.9587889589	 0.118215
H	-3.4649037358	-0.5217296446	 0.4979293154	 0.082965
145.327	209.6688	213.1351	228.8954	292.9575	361.3169	414.3382	456.7151	512.7992	548.21	572.9547	636.5363	666.9978	723.2832	789.6746	879.2802	898.0938	921.9814	938.93	953.8354	1020.3343	1034.7683	1061.1374	1077.348	1117.777	1187.7596	1194.8396	1231.3879	1243.0104	1281.2835	1307.6202	1343.4366	1353.2544	1374.1245	1427.3171	1454.9618	1470.8639	1492.1645	1494.6453	1513.6509	1743.4166	2903.7458	3028.5625	3047.3391	3052.7991	3069.2206	3087.3146	3106.9751	3125.2684	3218.9221	3648.7638
OC12CC1(CCC2)C=O	O[C@]12C[C@]1(CCC2)C=O	
InChI=1S/C7H10O2/c8-5-6-2-1-3-7(6,9)4-6/h5,9H,1-4H2	InChI=1S/C7H10O2/c8-5-6-2-1-3-7(6,9)4-6/h5,9H,1-4H2/t6-,7-/m1/s1
