15
gdb 49605	2.99647	1.59457	1.12271	5.831	68.36	-0.2487	-0.0129	0.2358	1031.4923	0.113197	-453.957584	-453.950174	-453.94923	-453.989908	27.746	
N	 0.0702924252	 1.2606574617	-0.5047542959	-0.531179
C	 0.080456814	 0.0793488561	-0.0784641204	 0.470389
O	 1.1771835169	-0.5847026662	 0.4262326686	-0.251777
C	 0.8179736882	-1.8805828324	 0.8536835964	 0.069682
C	-0.1321847757	-1.988466486	 2.0170547289	-0.339572
C	-0.6411038042	-2.0491498642	 0.5872070939	-0.032271
N	-1.0256333444	-0.7952816391	-0.0075673472	-0.135181
C	-2.3306513677	-0.5327147544	-0.4043574548	 0.157373
O	-2.73523523	 0.4741303805	-0.9159634737	-0.264807
H	 1.0025302978	 1.6648493095	-0.4326993397	 0.235324
H	 1.5791545958	-2.621424981	 0.6476710348	 0.129159
H	-0.1176359556	-2.9196737273	 2.5727290892	 0.13428
H	-0.3402199404	-1.0967647604	 2.5980355163	 0.144943
H	-1.086968376	-2.9431899183	 0.1702544136	 0.13102
H	-2.9719426339	-1.4103351585	-0.1860958399	 0.082615
70.3349	144.6375	217.4162	225.7801	336.0417	456.5301	467.8331	485.694	707.078	715.1796	729.8009	778.403	817.8605	821.1589	835.1301	978.9194	998.5851	1010.7818	1020.3867	1036.1786	1065.7489	1100.1193	1154.1248	1205.2851	1215.726	1239.0642	1293.1525	1386.3442	1415.2451	1453.8304	1466.3299	1769.9938	1852.2782	2929.0365	3137.846	3191.8922	3204.6738	3235.0453	3518.4426
N=C1OC2CC2N1C=O	[NH][C]1O[C@H]2C[C@H]2N1C=O	
InChI=1S/C5H6N2O2/c6-5-7(2-8)3-1-4(3)9-5/h2-4,6H,1H2	InChI=1S/C5H6N2O2/c6-5-7(2-8)3-1-4(3)9-5/h2-4,6H,1H2/t3-,4+/m1/s1
