19
gdb 115837	3.35293	1.1989	1.11594	2.0936	71.81	-0.245	0.0787	0.3236	1170.6361	0.158999	-460.141157	-460.132644	-460.1317	-460.174946	32.109	
O	-0.1558102386	 1.3811330744	 0.4420448717	-0.41964
C	-0.0544601283	 0.0131972405	 0.1144722868	-0.089145
C	-1.4240602985	-0.6021097046	-0.163116975	 0.202912
O	-2.2482312619	-0.6294408436	 0.9890835754	-0.26822
C	-3.2967006141	 0.3157947488	 0.8091139163	-0.164978
C	-3.4023721272	 0.400497574	-0.6956076517	 0.426293
C	-4.5280013949	-0.1793655553	-1.5036967367	-0.322431
C	-4.2713570178	 1.3225222555	-1.4736878623	-0.34233
O	-2.0742581834	 0.2116244438	-1.1359333296	-0.315238
H	-0.6547619107	 1.7839944552	-0.2788101025	 0.287377
H	 0.5901031385	-0.1578796639	-0.7634821045	 0.089782
H	 0.393797933	-0.4992106483	 0.9706293278	 0.121002
H	-1.3207849796	-1.6356312456	-0.5295868294	 0.078815
H	-4.2009923771	-0.0631065108	 1.2924906104	 0.113265
H	-3.0236504777	 1.2846575337	 1.2497974131	 0.107955
H	-4.2610590524	-0.7061082671	-2.4128028051	 0.125839
H	-5.3981443484	-0.5677412544	-0.9846608338	 0.117692
H	-4.962495146	 1.9600506169	-0.9320206134	 0.121981
H	-3.842954575	 1.7723853908	-2.3623318974	 0.129069
40.7004	107.7142	162.0451	232.6241	259.4717	310.1626	367.6181	425.8085	474.0665	529.3228	651.4096	761.6529	780.7064	797.579	846.1448	880.7671	901.079	934.9071	951.4034	995.5922	1025.6757	1045.3425	1056.8528	1078.642	1095.9293	1099.4797	1158.567	1187.7838	1211.5619	1220.5624	1270.5507	1338.3575	1353.9192	1363.59	1408.5133	1410.1836	1433.1839	1451.8938	1489.7031	1506.0629	1517.3808	2969.8473	2988.8482	3008.2207	3093.5533	3095.1709	3131.716	3134.506	3216.2387	3230.3753	3789.4509
OCC1OCC2(CC2)O1	OC[C@H]1OCC2(CC2)O1	
InChI=1S/C6H10O3/c7-3-5-8-4-6(9-5)1-2-6/h5,7H,1-4H2	InChI=1S/C6H10O3/c7-3-5-8-4-6(9-5)1-2-6/h5,7H,1-4H2/t5-/m0/s1
