27
gdb 115277	3.22581	0.8825	0.84851	0.0761	95.77	-0.2937	0.0792	0.3729	1597.0372	0.252122	-353.591049	-353.580552	-353.579608	-353.626898	40.575	
C	-0.1007416052	 1.6546510787	 0.1834065704	-0.384949
C	-0.0223576913	 0.1262359158	 0.1073901515	-0.188579
C	-1.3765951854	-0.5628284688	-0.0810920434	 0.062017
C	-2.095967493	-0.2790417898	-1.4118270272	-0.209753
C	-3.1984169208	-1.3481508483	-1.4538443777	-0.253041
C	-2.5886971837	-2.6258990027	-0.7885440977	 0.354219
C	-3.5737639617	-3.2363688872	 0.2205756235	-0.433318
C	-2.2299512936	-3.677258786	-1.8509054567	-0.430441
C	-1.3012353916	-2.1025606726	-0.073323717	-0.267068
H	 0.88796718	 2.094058493	 0.3494119977	 0.109301
H	-0.502096209	 2.0838601838	-0.7403045969	 0.117183
H	-0.7491073964	 1.9766144693	 1.0063163554	 0.111483
H	 0.6424022657	-0.167436828	-0.7171040986	 0.089368
H	 0.4467803779	-0.2556886214	 1.0237523499	 0.090603
H	-2.0421528204	-0.241441531	 0.734983216	 0.062301
H	-2.4897580059	 0.7384139647	-1.4918214651	 0.090735
H	-1.3900277028	-0.419196873	-2.2424947308	 0.089629
H	-4.0608728036	-1.0032967529	-0.8712013371	 0.089313
H	-3.5627103849	-1.5465847252	-2.4667937483	 0.087333
H	-4.5214434433	-3.5009542214	-0.26275894	 0.107253
H	-3.1656649494	-4.1469997383	 0.6739697177	 0.106685
H	-3.7995038099	-2.5323131187	 1.0293306915	 0.106806
H	-1.5810939101	-3.2528398614	-2.6252192174	 0.106912
H	-1.7003414074	-4.5265673819	-1.4039882303	 0.107517
H	-3.1285076069	-4.0661764799	-2.3436015872	 0.106339
H	-0.4103937494	-2.4168628088	-0.6324666451	 0.085344
H	-1.1961539579	-2.5111079678	 0.9371761025	 0.086808
22.8689	102.0089	141.2171	187.9523	241.813	259.271	284.4716	298.9424	329.4564	360.8634	411.7583	416.6551	450.1108	544.3472	565.2697	734.8152	774.3422	833.6087	865.8859	888.9299	914.4229	948.271	950.269	961.8864	976.0772	1006.2504	1024.6969	1042.7201	1057.3668	1090.6529	1125.5585	1145.8994	1195.2997	1221.5135	1243.6353	1252.8678	1280.6902	1295.1778	1301.8888	1320.7801	1345.6944	1354.4792	1374.1501	1393.5674	1399.5871	1411.9555	1421.9876	1484.0193	1484.7256	1486.9651	1487.9861	1496.2082	1500.4806	1504.205	1505.7812	1508.0337	1509.3132	2980.4373	3005.915	3011.7381	3015.2825	3017.6245	3023.3765	3030.1113	3031.0815	3039.8486	3068.7202	3073.5802	3082.6542	3084.1964	3088.0951	3088.6061	3089.3178	3095.4991	3102.8689
CCC1CCC(C)(C)C1	CC[C@H]1CCC(C)(C)C1	
InChI=1S/C9H18/c1-4-8-5-6-9(2,3)7-8/h8H,4-7H2,1-3H3	InChI=1S/C9H18/c1-4-8-5-6-9(2,3)7-8/h8H,4-7H2,1-3H3/t8-/m0/s1
