20
gdb 58958	2.71277	1.34699	1.10365	1.9592	74.92	-0.211	0.0568	0.2678	1177.4587	0.169331	-440.212013	-440.202769	-440.201825	-440.245746	34.788	
C	 0.093854099	 1.3785565883	-0.2371437066	-0.337336
N	 0.0070220502	-0.029902829	 0.1274025629	-0.14386
C	 0.7795908163	-0.3628695487	 1.3146714757	-0.333257
C	-1.3045453526	-0.5522502523	 0.0996794166	 0.260924
C	-2.4129618296	-0.4888476881	 1.1672798351	-0.158272
O	-2.8755275044	-1.8257184081	 0.8045671182	-0.306281
C	-1.7944069168	-1.9830606241	-0.1267823176	-0.051432
C	-1.968540834	-0.9677344743	-1.2080608189	 0.076268
O	-3.2328787803	-0.543695247	-1.6021373464	-0.440532
H	 1.1419090108	 1.6502664901	-0.401615795	 0.117344
H	-0.4575186307	 1.5504999245	-1.1651784884	 0.133889
H	-0.3117767101	 2.0573117855	 0.5347073066	 0.098239
H	 0.4500072864	 0.1720230982	 2.2235481458	 0.097913
H	 0.7111406857	-1.4373390437	 1.5070437374	 0.124231
H	 1.8320602251	-0.1107423261	 1.1470078955	 0.119964
H	-2.0499868191	-0.4866318978	 2.1999368397	 0.114427
H	-3.1943696623	 0.2677472455	 1.0386259944	 0.111801
H	-1.3111306751	-2.9517674832	-0.1856850309	 0.106897
H	-1.264706053	-1.0322831609	-2.0327616481	 0.113033
H	-3.8571065757	-0.9942197989	-1.0163441461	 0.29604
74.5514	145.4058	175.1949	235.898	241.5743	245.9974	256.6036	338.7209	380.3234	411.6526	453.4599	546.9457	600.6953	673.601	789.3021	847.4133	882.0146	931.3224	979.49	990.9091	1012.3791	1052.6071	1066.8391	1084.3436	1113.7218	1123.6766	1159.0965	1182.0561	1199.4551	1211.8346	1249.6672	1279.2521	1311.3728	1339.6725	1398.4378	1441.3459	1455.4295	1480.2804	1481.4602	1497.0101	1501.949	1510.2927	1524.6024	2942.0687	2947.7095	3036.7	3058.4489	3061.08	3090.8547	3108.497	3115.628	3163.7318	3179.1767	3746.0407
CN(C)C12COC1C2O	CN(C)[C@]12CO[C@H]1[C@H]2O	
InChI=1S/C6H11NO2/c1-7(2)6-3-9-5(6)4(6)8/h4-5,8H,3H2,1-2H3	InChI=1S/C6H11NO2/c1-7(2)6-3-9-5(6)4(6)8/h4-5,8H,3H2,1-2H3/t4-,5+,6+/m1/s1
