16
gdb 34876	2.28928	1.75618	1.20986	1.6094	74.62	-0.2435	0.0329	0.2764	1035.3808	0.123042	-400.633612	-400.625795	-400.62485	-400.665956	30.221	
C	-0.1098656418	-1.2554814348	-0.0482895497	-0.455073
C	-0.0553807802	-0.0553086626	 0.0022329091	 0.348455
C	 0.0275552952	 1.3890928787	 0.0409983359	-0.335792
C	-0.2211294593	 2.1209298538	 1.388492405	 0.024211
O	 0.8222034523	 1.7654509775	 2.2871513532	-0.231194
C	 1.083987144	 2.7978906512	 1.3216468255	-0.068968
C	 1.4330435215	 2.0814482964	 0.0307456596	 0.35732
C	 2.7173560425	 1.5622425805	-0.4644011071	-0.299069
N	 2.0554950262	 2.7186999018	-1.1158308217	-0.379608
H	-0.1615125881	-2.315780833	-0.0748675192	 0.199342
H	-0.5982094243	 1.8390223388	-0.7400580622	 0.11176
H	-1.1723607093	 2.4310198354	 1.8035616764	 0.116205
H	 1.4095344889	 3.7663821537	 1.6798603227	 0.120698
H	 3.6420322151	 1.7963237778	 0.054912974	 0.126675
H	 2.7007006852	 0.5987872327	-0.9669589055	 0.128408
H	 1.6013042122	 2.4262167421	-1.9780901158	 0.236629
96.5341	129.7423	183.0166	282.3434	310.2553	357.3058	476.348	505.3922	567.8174	624.604	633.6881	662.9902	778.5324	845.1883	860.1345	881.7338	891.819	921.7183	949.4512	982.2422	1004.9593	1039.9432	1057.2096	1077.4925	1124.4814	1162.1836	1202.8826	1232.56	1256.4144	1286.7751	1322.1001	1378.0646	1430.02	1515.0911	2235.4391	3033.6381	3111.8766	3191.2411	3200.6525	3209.1354	3493.7299	3502.4529
C#CC1C2OC2C11CN1	C#C[C@H]1[C@H]2O[C@H]2[C@]21CN2	
InChI=1S/C7H7NO/c1-2-4-5-6(9-5)7(4)3-8-7/h1,4-6,8H,3H2	InChI=1S/C7H7NO/c1-2-4-5-6(9-5)7(4)3-8-7/h1,4-6,8H,3H2/t4-,5+,6+,7+/m0/s1
