23
gdb 95166	2.5129	1.36685	1.03335	1.5831	84.85	-0.2388	0.076	0.3148	1256.4301	0.206727	-388.29951	-388.290583	-388.289639	-388.332524	35.976	
C	 0.0090728995	 1.5649618588	 0.0355968163	-0.40336
C	 0.008536976	 0.0348196435	-0.0196039881	 0.051164
C	 0.6836698983	-0.4996403665	-1.291123108	-0.20151
C	 0.4819715747	-2.0159909939	-1.4327987489	-0.231838
C	 0.8350426367	-2.7830774683	-0.1704228958	-0.07781
C	 2.1702452668	-2.5945303279	 0.5260968356	-0.318555
C	 0.9185190212	-2.0740109101	 1.1663625136	 0.400109
O	 0.5362236813	-2.7976392088	 2.3114737871	-0.470179
C	 0.669708765	-0.5651351601	 1.2368694212	-0.282535
H	 1.0333485193	 1.9563008788	 0.024520607	 0.112731
H	-0.5199249186	 1.9942824118	-0.8218784089	 0.108781
H	-0.4748482353	 1.9325217651	 0.9470875804	 0.109439
H	-1.0382174315	-0.3053308609	-0.0427102173	 0.06249
H	 0.2752430347	 0.0044470512	-2.1745693997	 0.090303
H	 1.7542026734	-0.2519256403	-1.2672154422	 0.0938
H	-0.5740137562	-2.2027589604	-1.6711433053	 0.092789
H	 1.0610542507	-2.3985445089	-2.2829765958	 0.094267
H	 0.4461168725	-3.796425521	-0.1206366834	 0.081795
H	 2.6197397404	-3.4704569041	 0.9794480573	 0.115783
H	 2.8766562563	-1.8742853379	 0.125081861	 0.105369
H	-0.4265415587	-2.7959071788	 2.3517489053	 0.274039
H	 1.616440165	-0.0422419097	 1.4295261117	 0.098972
H	 0.0392363686	-0.3718124215	 2.112017077	 0.093956
88.6534	167.933	233.2095	251.126	285.7299	315.0207	357.0129	369.1482	402.7299	420.5456	451.3033	514.2611	591.4691	717.0267	778.0609	813.7427	876.3568	902.5289	911.1931	929.008	944.8385	960.847	985.5798	1013.181	1043.7902	1067.4373	1104.3075	1121.4894	1131.3706	1164.1882	1175.9804	1230.0271	1258.8756	1265.8046	1288.8436	1321.2183	1331.4641	1347.2132	1375.3677	1378.3696	1394.3446	1412.8802	1418.3891	1477.771	1488.1955	1489.2775	1497.7303	1500.6094	1504.3529	2981.2368	3008.0471	3011.039	3015.0342	3024.3712	3042.8959	3059.2606	3063.569	3089.3651	3095.8469	3127.3956	3143.6404	3219.7161	3791.6266
CC1CCC2CC2(O)C1	C[C@H]1CC[C@H]2C[C@@]2(O)C1	
InChI=1S/C8H14O/c1-6-2-3-7-5-8(7,9)4-6/h6-7,9H,2-5H2,1H3	InChI=1S/C8H14O/c1-6-2-3-7-5-8(7,9)4-6/h6-7,9H,2-5H2,1H3/t6-,7-,8-/m0/s1
