19
gdb 111339	2.25679	1.7298	1.27795	1.4319	75.31	-0.227	0.0712	0.2982	1057.4575	0.159628	-419.108168	-419.099774	-419.09883	-419.141089	31.909	
C	 0.4007192486	 0.6388030227	-0.2348934924	-0.23068
O	-0.8027653431	 0.5782786288	 0.5167377826	-0.257403
C	-1.6435365986	-0.5095975746	 0.2779405275	 0.063428
C	-1.9761163254	-1.0525277764	-1.1268173121	-0.114883
N	-0.8030582338	-1.8070560889	-1.6426783808	-0.338515
C	-1.7156720576	-2.4531802872	-0.67065758	-0.142761
C	-1.2558202645	-1.9615387504	 0.685309094	 0.35356
C	-0.1681717845	-2.4240854711	 1.5645473021	-0.300811
N	-1.587364495	-2.5996025302	 1.9501796589	-0.391251
H	 0.9733437196	 1.4734128378	 0.1776882627	 0.115362
H	 0.9829248136	-0.2852615072	-0.15835934	 0.126727
H	 0.2051368603	 0.8283117394	-1.2971967306	 0.114454
H	-2.5864172371	-0.257310449	 0.7787079813	 0.094353
H	-2.7360633747	-0.6808938928	-1.8028914423	 0.096988
H	-1.0612138028	-2.1421212757	-2.5709193715	 0.231535
H	-2.2552784273	-3.3627396364	-0.8988119731	 0.105817
H	 0.3649936732	-3.3438251413	 1.3411287668	 0.121056
H	 0.4158641945	-1.6649706008	 2.0789059152	 0.120517
H	-1.8506579354	-1.8955658868	 2.6373817916	 0.232504
106.0858	138.1123	164.0211	202.4703	228.0597	280.588	334.5864	423.5808	499.7836	603.1047	654.1114	751.3388	826.0667	837.3132	875.6646	889.8778	925.8962	945.9306	961.0836	984.3044	1003.8089	1026.3953	1054.865	1100.5196	1116.144	1125.9224	1170.9208	1186.0655	1199.4176	1231.8609	1253.5302	1260.0436	1290.5964	1322.7485	1363.5167	1396.6212	1441.5709	1479.4678	1488.582	1500.0042	1514.8839	3019.0734	3040.2402	3083.4344	3106.86	3118.0258	3189.3433	3194.5452	3210.68	3468.3666	3478.4203
COC1C2NC2C11CN1	CO[C@H]1[C@H]2N[C@H]2[C@]21CN2	
InChI=1S/C6H10N2O/c1-9-5-3-4(8-3)6(5)2-7-6/h3-5,7-8H,2H2,1H3	InChI=1S/C6H10N2O/c1-9-5-3-4(8-3)6(5)2-7-6/h3-5,7-8H,2H2,1H3/t3-,4+,5-,6-/m0/s1
