21
gdb 94204	2.87801	1.20854	1.1006	0.7357	78.3	-0.2486	0.0564	0.3049	1225.6133	0.180919	-424.194891	-424.185406	-424.184462	-424.229498	35.619	
C	-0.2616425264	 1.4579050721	-0.0446876972	-0.413021
C	 0.0736403928	-0.021950501	-0.0579492454	 0.09989
O	 1.2570804545	-0.318771777	-0.8408609664	-0.294642
C	 2.0004053612	-0.7356702951	 0.3194221388	-0.128484
C	 0.7414503955	-0.632992184	 1.2199004733	 0.295381
O	 0.8337037378	 0.1806445644	 2.364964697	-0.472938
C	 0.1586820123	-1.9622102837	 1.6334953754	 0.003153
C	 0.4891222325	-2.578549064	 2.9682038527	-0.280382
C	-0.8997586027	-2.0488306815	 2.7032714859	-0.277824
H	 0.5880790938	 2.0662862792	 0.2850761329	 0.102496
H	-0.5258015677	 1.7888048655	-1.0534626404	 0.131179
H	-1.1099064129	 1.6552316489	 0.6183375084	 0.127645
H	-0.7866502441	-0.597889363	-0.4227686152	 0.076399
H	 2.4404223887	-1.7324740454	 0.200921077	 0.105271
H	 2.797048584	-0.0245526791	 0.584170967	 0.084908
H	 1.2300107792	 1.0211963003	 2.1174746078	 0.284137
H	 0.0575717203	-2.6472296613	 0.7965539651	 0.090101
H	 0.6363236024	-3.6519494022	 3.0120304771	 0.106889
H	 1.1147212873	-2.0027656224	 3.6394297342	 0.126459
H	-1.1776140236	-1.128409883	 3.2024508951	 0.126557
H	-1.709190625	-2.7570153077	 2.565065947	 0.106826
49.4071	75.2798	170.1519	201.2164	231.9716	259.3563	287.1261	315.5019	367.2394	444.6026	473.2394	537.444	678.4731	785.9201	796.3122	831.2384	853.6471	875.5841	928.9765	958.1312	1002.0128	1022.3499	1047.9124	1061.5903	1072.3591	1084.2564	1095.9529	1108.819	1142.845	1144.4345	1151.6546	1203.6029	1226.6556	1245.4698	1266.6127	1335.2351	1352.432	1380.9885	1402.5716	1446.767	1458.4549	1479.9202	1498.9924	1502.4146	1521.2619	2989.2924	3019.5934	3031.3858	3057.1778	3099.689	3116.0762	3138.8883	3141.1826	3150.5486	3223.8977	3237.6153	3832.4359
CC1OCC1(O)C1CC1	C[C@H]1OC[C@]1(O)C1CC1	
InChI=1S/C7H12O2/c1-5-7(8,4-9-5)6-2-3-6/h5-6,8H,2-4H2,1H3	InChI=1S/C7H12O2/c1-5-7(8,4-9-5)6-2-3-6/h5-6,8H,2-4H2,1H3/t5-,7-/m1/s1
