19
gdb 81572	2.70964	1.38076	1.24469	3.3383	76.75	-0.2134	0.0278	0.2412	1099.555	0.158734	-419.151622	-419.142685	-419.141741	-419.185431	33.426	
C	-0.2711142243	 1.4914068477	 0.091736485	-0.346423
N	-0.1044625849	 0.0452025807	 0.0005257463	-0.09601
C	-1.1054218638	-0.8849090399	 0.6535577476	-0.062872
C	-0.0190024572	-1.9817635746	 0.4828406634	-0.2113
C	 0.6710331416	-0.7152388701	 1.0634061843	-0.028974
C	-0.5038604188	-0.6269556751	 2.0820811959	-0.061068
C	-0.7264705064	 0.6018579731	 2.944675647	 0.328399
N	-2.0398252743	 0.9073526734	 3.1755694272	-0.51622
O	 0.1893551477	 1.2039909039	 3.4718985322	-0.365308
H	 0.6827900348	 1.9607035559	-0.1697963343	 0.126934
H	-1.0049507874	 1.7947380626	-0.663433623	 0.113777
H	-0.5879276653	 1.9007554254	 1.0576406976	 0.123364
H	-2.1525728158	-0.9201959101	 0.3422044923	 0.074158
H	-0.0838526643	-2.8594156569	 1.1274963136	 0.094246
H	 0.2379970485	-2.2120996875	-0.5498021579	 0.109343
H	 1.7298759667	-0.5360277916	 1.2482361949	 0.095315
H	-0.5781146915	-1.4920654789	 2.753481235	 0.1041
H	-2.7846324662	 0.4743352054	 2.6586104495	 0.258206
H	-2.2497266592	 1.7096837065	 3.7471367736	 0.260334
63.7867	119.8391	162.5135	170.0657	178.3779	306.1628	310.917	395.9794	484.7429	534.6676	580.5025	649.1851	684.5505	747.626	758.49	808.453	888.5596	899.0664	914.4212	995.0573	1044.9584	1056.3638	1070.2729	1081.6349	1106.2912	1120.5734	1151.7493	1183.509	1195.2816	1208.2252	1213.1642	1234.2173	1283.686	1322.1319	1392.7274	1450.6284	1491.3092	1493.0509	1499.5238	1613.3324	1786.8221	3022.6838	3026.4884	3075.8502	3082.7324	3088.0341	3097.3143	3126.1162	3168.9509	3598.6323	3737.098
CN1C2CC1C2C(N)=O	CN1[C@H]2C[C@@H]1[C@H]2C(=O)N	
InChI=1S/C6H10N2O/c1-8-3-2-4(8)5(3)6(7)9/h3-5H,2H2,1H3,(H2,7,9)	InChI=1S/C6H10N2O/c1-8-3-2-4(8)5(3)6(7)9/h3-5H,2H2,1H3,(H2,7,9)/t3-,4+,5-
