16
gdb 17573	3.56816	2.43896	1.96866	3.0281	63.	-0.2439	0.0757	0.3195	737.416	0.130696	-383.680515	-383.674248	-383.673304	-383.710472	25.582	
C	-0.0028451449	 1.5083926395	 0.0939169619	-0.506554
C	 0.0242082109	 0.0119918399	-0.015944798	 0.37525
C	 0.9165814474	-0.808671309	-1.0040308879	-0.270807
C	 0.7243901273	-1.8114164044	 0.165839082	 0.015962
O	 0.6992810334	-0.6834489035	 1.0739843611	-0.291021
C	-0.7886537545	-2.1523265237	 0.021670412	 0.026257
O	-1.5992141403	-1.5738258353	 1.0463771628	-0.22701
C	-1.3123298761	-0.7962066584	-0.1178783471	-0.014998
H	 1.0103849607	 1.9162457623	 0.1411819681	 0.12964
H	-0.51447477	 1.9454750001	-0.7699928167	 0.122142
H	-0.5408365554	 1.8098135293	 0.9982097493	 0.142395
H	 0.5182347923	-1.0626669939	-1.991310661	 0.095129
H	 1.9350972226	-0.4206132329	-1.0667085819	 0.110425
H	 1.4363297692	-2.5917561706	 0.4299006721	 0.087705
H	-1.1605157893	-3.0407845861	-0.4762502684	 0.103791
H	-2.1483312232	-0.4863521932	-0.7357429683	 0.101693
198.4816	241.479	294.6577	387.4857	434.9331	510.7394	604.9337	685.9512	731.3186	788.6345	821.4896	842.5528	879.2374	887.9246	897.2162	928.8217	990.7966	995.1224	1027.7697	1057.2179	1080.8687	1126.6293	1191.1552	1209.1324	1218.4991	1247.0284	1267.9468	1284.1587	1322.2256	1395.9263	1416.5143	1478.4971	1485.9771	1493.8758	3039.1872	3052.68	3109.4917	3119.2933	3129.4616	3137.0998	3170.8133	3185.6754
CC12CC(O1)C1OC21	C[C@@]12C[C@@H](O1)[C@H]1O[C@@H]21	
InChI=1S/C6H8O2/c1-6-2-3(8-6)4-5(6)7-4/h3-5H,2H2,1H3	InChI=1S/C6H8O2/c1-6-2-3(8-6)4-5(6)7-4/h3-5H,2H2,1H3/t3-,4-,5-,6+/m1/s1
