20
gdb 100739	2.09828	1.25429	1.13454	4.0652	71.03	-0.2481	0.0169	0.265	1228.5111	0.16955	-477.449707	-477.439469	-477.438524	-477.485202	36.769	
C	-0.5595467669	 0.897979329	 0.0903534662	-0.252916
O	 0.6407429946	 0.1406499731	 0.0702686026	-0.261693
C	 0.9237570998	-0.5344330734	-1.1496149636	 0.114481
C	 2.4252652501	-0.7960361081	-1.1627692112	-0.404023
C	 0.1010847984	-1.8470807591	-1.2517359692	-0.146523
N	 0.0302541313	-2.5846594374	 0.0176993606	-0.541045
H	 0.7005381788	-3.3424716727	 0.0556753567	 0.248152
H	 0.2401303555	-1.939077607	 0.7761636173	 0.255138
H	-1.7884123568	-2.665595596	-0.3697238076	 0.306316
C	-1.3243930782	-1.5771631082	-1.7831840791	 0.433298
O	-1.540820042	-0.8874163707	-2.7457089479	-0.350434
O	-2.2809637364	-2.1963171927	-1.0851117758	-0.37409
H	-0.6337439013	 1.5532110379	-0.7869996004	 0.128987
H	-1.456079426	 0.2649529099	 0.1265202498	 0.127774
H	-0.5288467517	 1.5092326411	 0.9956938876	 0.127265
H	 0.6407620511	 0.0943314563	-2.003742019	 0.108875
H	 2.7137666945	-1.4591199967	-0.340492997	 0.112698
H	 2.7278140658	-1.2596609643	-2.1063890911	 0.120354
H	 2.9687248245	 0.1441493529	-1.0441751096	 0.130681
H	 0.5690304949	-2.4754171341	-2.0172209292	 0.116703
62.4427	87.2204	94.8204	175.5816	202.8317	218.1237	273.9641	295.9939	319.8162	343.2479	357.9565	490.7123	524.4868	561.873	652.1026	745.2225	822.6398	858.1136	887.9899	913.9876	987.4856	1015.7575	1052.4398	1110.0017	1133.6968	1148.7935	1180.1365	1195.8491	1226.0397	1236.3086	1270.5533	1343.43	1375.5728	1393.8786	1407.88	1438.3842	1477.7922	1484.0612	1495.7326	1501.3842	1508.6335	1647.0493	1860.3719	3005.2653	3032.0164	3041.4877	3060.7035	3064.4988	3111.9858	3116.5396	3128.6951	3400.0125	3487.8646	3594.44
COC(C)C([NH3+])C([O-])=O	CO[C@@H](C)[C@@H](N)C(=O)O	
InChI=1S/C5H11NO3/c1-3(9-2)4(6)5(7)8/h3-4H,6H2,1-2H3,(H,7,8)	InChI=1S/C5H11NO3/c1-3(9-2)4(6)5(7)8/h3-4H,6H2,1-2H3,(H,7,8)/t3-,4+/m0/s1
