21
gdb 103983	2.54641	1.3626	1.25111	2.4916	77.91	-0.2352	0.0738	0.309	1144.2702	0.180652	-424.190456	-424.181079	-424.180135	-424.223873	36.269	
C	-0.172752016	 1.5616120687	 0.1228867395	-0.500835
C	 0.0198293103	 0.0760339429	 0.0043870987	 0.217697
C	-0.7024791912	-0.9251187341	 0.8920040641	-0.359375
C	 0.7911977656	-0.9342210421	 0.8225140639	 0.059662
O	 1.223297951	-1.6700803302	-0.3260849691	-0.35178
C	 0.6070783589	-0.6623033735	-1.214767078	 0.338709
C	-0.3175060619	-1.2822075395	-2.2461531965	-0.447967
C	 1.7781386692	 0.0824435733	-1.8658598916	-0.089478
O	 2.6155968187	-0.8228459467	-2.5561676873	-0.4247
H	 0.691276673	 2.1214940243	-0.2493604542	 0.125769
H	-1.0536304259	 1.8928497535	-0.4400316422	 0.125158
H	-0.3279427959	 1.8505005579	 1.1671918354	 0.122607
H	-1.1284554263	-0.4844123681	 1.7890623787	 0.112219
H	-1.2607357532	-1.7636668662	 0.4868930334	 0.115312
H	 1.4745086148	-0.847061375	 1.6597373721	 0.102349
H	-1.0695912702	-1.9218167053	-1.7804177675	 0.118619
H	-0.8306704342	-0.4936566804	-2.807617461	 0.116826
H	 0.2642997531	-1.8782313994	-2.9541906092	 0.139118
H	 1.4178515649	 0.8113933679	-2.5999471672	 0.104552
H	 2.3354909711	 0.6276661056	-1.088875715	 0.084304
H	 2.8298927242	-1.5101662835	-1.911676227	 0.291235
119.497	167.5265	180.3824	185.2068	204.0821	253.6609	301.5893	349.935	359.6115	450.2902	488.089	501.0812	537.2373	629.8247	715.2539	801.0728	848.0025	877.6151	896.557	922.7144	966.7422	985.205	999.3621	1033.9769	1064.6027	1076.9077	1099.4058	1112.4979	1125.6596	1178.1745	1222.2698	1253.0281	1264.7882	1310.5191	1381.062	1386.8127	1409.8426	1424.0737	1435.324	1479.5939	1481.8796	1490.4179	1496.8553	1499.5106	1503.5418	2985.6393	3026.7564	3042.6033	3071.6271	3086.0282	3101.9718	3112.7754	3116.3306	3134.4358	3174.825	3203.7268	3768.983
CC12CC1OC2(C)CO	C[C@]12C[C@H]1O[C@]2(C)CO	
InChI=1S/C7H12O2/c1-6-3-5(6)9-7(6,2)4-8/h5,8H,3-4H2,1-2H3	InChI=1S/C7H12O2/c1-6-3-5(6)9-7(6,2)4-8/h5,8H,3-4H2,1-2H3/t5-,6+,7-/m1/s1
