14
gdb 125102	3.31047	1.1781	0.90506	1.1095	65.53	-0.2613	-0.0317	0.2296	1201.2604	0.100303	-470.018163	-470.009823	-470.008879	-470.052394	28.516	
C	-0.2824770414	 1.3628287708	-0.351000093	-0.503256
C	-0.0511787808	-0.1004637321	-0.1707096451	 0.220948
C	 0.3205352038	-1.0601537185	-1.082674667	 0.308579
N	 0.4059929359	-2.2119527511	-0.3744175825	-0.227192
N	 0.1124271726	-1.9933746065	 0.9203991005	-0.110258
N	-0.1698520972	-0.7279798486	 1.0393907752	-0.238721
O	 0.6311984908	-1.0302441145	-2.4078069293	-0.21718
C	-0.3677168439	-0.6687721179	-3.2853839576	 0.158736
O	-0.1608385261	-0.5634064372	-4.4483480597	-0.236283
H	 0.2049142425	 1.9213395904	 0.4524187749	 0.157093
H	 0.12274532	 1.7110891233	-1.3050952913	 0.133651
H	-1.3486580105	 1.6112513971	-0.3223110089	 0.14533
H	 0.6840877246	-3.1273926729	-0.6925692754	 0.293389
H	-1.3280960704	-0.5051406123	-2.7680332208	 0.115163
50.4889	80.0888	126.5594	156.1554	257.6037	264.5768	409.2831	428.3747	511.7886	560.8828	689.7658	711.7304	729.701	852.5423	981.8564	1023.9725	1037.9963	1066.1857	1074.6356	1086.8488	1227.6676	1247.256	1316.8921	1373.7536	1401.9039	1419.2687	1478.995	1493.5481	1507.0025	1641.8984	1890.7329	3006.265	3042.356	3103.6186	3125.2578	3650.4797
CC1=C(NN=N1)OC=O	Cc1c([nH]nn1)OC=O	
InChI=1S/C4H5N3O2/c1-3-4(9-2-8)6-7-5-3/h2H,1H3,(H,5,6,7)	InChI=1S/C4H5N3O2/c1-3-4(9-2-8)6-7-5-3/h2H,1H3,(H,5,6,7)
