16
gdb 10555	2.87408	1.64814	1.28329	4.3321	65.4	-0.2657	0.0257	0.2913	978.2415	0.130357	-379.900085	-379.891723	-379.890778	-379.933258	29.886	
O	-0.3357284908	 0.5977794397	-1.0988198554	-0.418209
C	-0.0705472884	 0.2511289605	 0.257129036	-0.073013
C	-1.2583924321	-0.5662276497	 0.7583651765	-0.28438
C	-1.3308850308	-1.9597254978	 0.1434574326	 0.155587
C	-2.6377833635	-2.4747254651	-0.3747375277	-0.272363
N	-1.5742764156	-2.1118198726	-1.3052039916	-0.320655
C	-0.372952879	-2.9017271222	 0.691680708	 0.282072
N	 0.3932866679	-3.6255047828	 1.1671925177	-0.343903
H	 0.4855865733	 0.8737883703	-1.5150855178	 0.296821
H	 0.8547492672	-0.3352523031	 0.3474940682	 0.117977
H	 0.0428055766	 1.1533590384	 0.8762438228	 0.098562
H	-1.209551805	-0.6506651803	 1.8490278228	 0.12534
H	-2.1758597674	-0.0199901002	 0.512874676	 0.117512
H	-2.8559404395	-3.5366985548	-0.3193287107	 0.139922
H	-3.4973704619	-1.820051306	-0.2528396366	 0.124026
H	-1.701801371	-1.1823959344	-1.6981806509	 0.254704
53.2994	146.3019	161.8571	212.9041	231.8687	269.2575	338.2259	371.2525	495.0177	577.0078	597.5742	662.3225	834.7851	871.582	910.8103	929.2247	982.9717	995.1272	1040.7036	1080.9998	1114.3568	1149.0524	1187.7903	1247.4761	1268.0784	1290.1484	1304.024	1378.5109	1387.4072	1450.0542	1464.4065	1510.7608	1521.5487	2354.0699	2989.3756	3026.42	3048.4336	3093.7291	3110.4776	3202.9106	3517.5877	3840.3748
OCCC1(CN1)C#N	OCC[C@]1(CN1)C#N	
InChI=1S/C5H8N2O/c6-3-5(1-2-8)4-7-5/h7-8H,1-2,4H2	InChI=1S/C5H8N2O/c6-3-5(1-2-8)4-7-5/h7-8H,1-2,4H2/t5-/m1/s1
