17
gdb 69753	3.13573	1.53418	1.30406	4.1956	73.33	-0.2362	0.0291	0.2653	1013.3865	0.136497	-417.946393	-417.938975	-417.938031	-417.978033	29.41	
C	-0.0177893552	 1.5633651836	 0.0766384354	-0.51328
C	 0.0993217473	 0.0740896049	 0.0031084444	 0.348364
N	-0.841156757	-0.8390660302	 0.6756238567	-0.35664
C	 0.6088271538	-0.950828941	 0.9701563403	-0.144477
C	 1.2401452008	-1.7613433994	-0.185083917	 0.119978
O	 0.408209614	-2.8004566326	-0.779481726	-0.266013
C	-0.1046427303	-1.9062516354	-1.7137950527	 0.458773
N	-0.9029919654	-2.0898664228	-2.6603471484	-0.560415
C	 0.7033904092	-0.7289988482	-1.194195131	-0.237523
H	 0.9092640959	 2.0499469487	-0.2440102739	 0.129656
H	-0.8266851293	 1.924294202	-0.5687038147	 0.143698
H	-0.2323298005	 1.8875095343	 1.1008882722	 0.121501
H	-1.2607722675	-0.3287331064	 1.4524871181	 0.231498
H	 0.9799932817	-0.8514065764	 1.982994816	 0.097113
H	 2.2835849615	-2.0581205746	-0.0938098591	 0.096815
H	-1.2275446904	-3.0580705219	-2.6892701978	 0.227585
H	 1.3370102213	-0.1799117447	-1.8868575125	 0.103366
144.2387	159.1593	215.6617	264.315	348.0893	398.6477	443.4271	553.6375	608.5054	656.9831	734.0319	783.4057	818.9581	865.0453	875.5684	895.6148	912.9325	938.0617	968.4675	973.8316	1000.3836	1020.4357	1062.0717	1099.3102	1121.7188	1174.7409	1192.1033	1205.8084	1234.9923	1294.5852	1315.1606	1343.0803	1408.5551	1442.0035	1480.6012	1497.6412	1825.5715	3026.7203	3092.8079	3098.9981	3132.501	3150.3259	3188.229	3473.3379	3475.0472
CC12NC1C1OC(=N)C21	C[C@]12N[C@H]1[C@H]1O[C]([NH])[C@@H]21	
InChI=1S/C6H8N2O/c1-6-2-3(4(6)8-6)9-5(2)7/h2-4,7-8H,1H3	InChI=1S/C6H8N2O/c1-6-2-3(4(6)8-6)9-5(2)7/h2-4,7-8H,1H3/t2-,3-,4-,6+/m0/s1
