17
gdb 10830	4.70417	1.51411	1.20071	3.7952	65.3	-0.235	0.029	0.264	989.9224	0.143465	-401.040432	-401.032766	-401.031822	-401.072391	28.575	
C	-0.0166451087	 1.5383326439	 0.0513029142	-0.405397
C	 0.0250589346	 0.0201843112	-0.0098549401	 0.130493
C	 0.7680983263	-0.500315115	-1.2407428091	-0.151307
N	 0.9509686324	-1.9399523824	-1.1311751584	-0.323279
C	 0.9630720371	-2.6468853161	 0.0342590212	 0.377148
O	 1.1863084314	-3.8415052231	 0.0870988448	-0.373452
C	 0.6178135121	-1.8487210162	 1.2912532518	-0.190759
O	 0.6918274539	-0.4431382215	 1.1556136191	-0.256944
H	 0.9976439003	 1.9458726438	 0.0967847723	 0.131014
H	-0.5211526102	 1.949436005	-0.8281783785	 0.118938
H	-0.5556398259	 1.862130436	 0.9447557575	 0.132546
H	-1.002838663	-0.3822608451	-0.0256776686	 0.074984
H	 0.1927197952	-0.2765606401	-2.146468154	 0.112269
H	 1.7353272721	 0.0167997979	-1.3209262072	 0.11238
H	 1.2228000638	-2.4679755852	-1.9480240884	 0.248779
H	-0.3898027723	-2.1650849761	 1.6090330067	 0.11957
H	 1.319107661	-2.1405789167	 2.0757382866	 0.143017
85.8425	168.5557	203.6418	229.5617	293.2665	412.1904	437.1997	473.2112	499.9876	541.5979	642.0886	726.2982	793.886	874.7329	913.8135	949.2497	1022.2141	1085.5466	1103.3686	1139.5535	1155.58	1167.7751	1262.0951	1274.0936	1308.6239	1361.2671	1375.7081	1399.762	1401.1694	1415.9281	1470.0442	1479.5596	1484.4398	1500.3849	1519.6116	1798.5694	2953.4836	2976.2975	2999.7128	3046.3372	3057.9555	3114.8813	3119.5624	3129.3453	3605.9223
CC1CNC(=O)CO1	C[C@H]1CNC(=O)CO1	
InChI=1S/C5H9NO2/c1-4-2-6-5(7)3-8-4/h4H,2-3H2,1H3,(H,6,7)	InChI=1S/C5H9NO2/c1-4-2-6-5(7)3-8-4/h4H,2-3H2,1H3,(H,6,7)/t4-/m0/s1
