22
gdb 119638	4.38978	0.94127	0.90559	1.9852	85.15	-0.2307	0.0734	0.3041	1405.6744	0.194867	-367.152584	-367.144035	-367.143091	-367.186137	33.199	
C	 0.0050917217	 1.5961641821	 0.0066947406	-0.380274
C	-0.013753178	 0.0654531715	 0.0002452118	-0.16472
C	-1.4360042375	-0.5149541804	-0.0076094121	-0.327083
C	-1.4653017566	-2.0224881501	 0.0015750583	 0.3257
C	-0.9320671288	-2.8703181371	-1.1948667665	-0.281514
C	-1.8922904664	-3.9541651941	-0.7154181308	-0.033836
C	-2.7312556738	-2.9798749406	 0.0174658289	-0.120107
N	-1.9321206338	-3.9692741165	 0.7922961091	-0.149047
C	-0.9951955361	-2.872931074	 1.200865189	-0.182182
H	 1.028811424	 1.9829441132	 0.0155894194	 0.112255
H	-0.4970125119	 2.0017247875	-0.8787773601	 0.114495
H	-0.5094819163	 1.9943367691	 0.8883112723	 0.114913
H	 0.5337534643	-0.3049012093	-0.875623652	 0.102213
H	 0.5267106463	-0.3112830855	 0.8782774676	 0.101868
H	-1.9858249219	-0.1376388068	 0.8661300398	 0.095071
H	-1.9754228323	-0.1433284866	-0.8900075907	 0.094602
H	-1.259307469	-2.4620694455	-2.1556457836	 0.101871
H	 0.1418014402	-3.0857861038	-1.2298680598	 0.092693
H	-2.1796784153	-4.8759009054	-1.2037954165	 0.096391
H	-3.7992911885	-2.8374718606	 0.1202964643	 0.092172
H	 0.0627898549	-3.1564133403	 1.2617510152	 0.092052
H	-1.3290978254	-2.4792350465	 2.1655938159	 0.102466
75.8459	84.7623	124.9475	244.84	305.6552	311.4461	328.01	445.5499	457.1989	679.657	722.6851	746.6215	755.8609	797.9518	844.2225	870.4355	886.405	922.3693	931.9847	962.7681	975.5125	993.6293	1016.9544	1031.0097	1049.1248	1076.9475	1119.1165	1135.8305	1151.8431	1166.6489	1201.591	1210.2863	1246.7768	1269.3243	1280.6495	1301.8253	1328.8527	1339.1854	1358.0791	1397.1519	1412.8311	1483.0475	1491.3601	1493.4699	1499.5032	1509.5593	1513.9543	3001.7975	3020.7813	3023.0772	3029.6774	3029.8525	3036.1396	3057.2709	3088.7295	3095.1609	3096.7129	3102.7962	3192.5598	3208.7691
CCCC12CC3C1N3C2	CCC[C@]12C[C@@H]3[C@H]1N3C2	
InChI=1S/C8H13N/c1-2-3-8-4-6-7(8)9(6)5-8/h6-7H,2-5H2,1H3	InChI=1S/C8H13N/c1-2-3-8-4-6-7(8)9(6)5-8/h6-7H,2-5H2,1H3/t6-,7-,8-,9?/m1/s1
