17
gdb 35825	2.788	1.58025	1.20907	5.3493	71.55	-0.2457	0.0205	0.2662	1033.4416	0.138645	-417.990206	-417.982692	-417.981747	-418.022739	28.327	
N	-0.0664109622	-1.0540847756	 0.2979795132	-0.330352
C	-0.0271582125	 0.0868086151	 0.1211487435	 0.293517
C	-0.0105812095	 1.5352644705	-0.1579363508	-0.043944
O	-0.8258429602	 2.2591222314	 0.7540999814	-0.248912
C	 0.0062716742	 2.8539437018	 1.7541857191	-0.100402
C	 1.3034937166	 3.2500940189	 1.0358486997	-0.042348
C	 2.6101689457	 2.6601835797	 1.6195707542	-0.184266
N	 2.3674331198	 1.4368143696	 0.8226530128	-0.294895
C	 1.4132721184	 2.1456007919	-0.0478285997	-0.020369
H	-0.4371371541	 1.6851712576	-1.1562769487	 0.125117
H	-0.5507234913	 3.6994162029	 2.1640589109	 0.118561
H	 0.2092227914	 2.1375283349	 2.5621229543	 0.11823
H	 1.3137388477	 4.2899084399	 0.7124246979	 0.088873
H	 3.4929132286	 3.2362717654	 1.3131129217	 0.099993
H	 2.651810753	 2.4972820631	 2.7023508133	 0.110887
H	 3.1672413227	 1.009109278	 0.3731835178	 0.230116
H	 1.7974466417	 2.4539956951	-1.0259812907	 0.080194
61.3753	132.053	185.5549	251.7715	356.76	358.5298	488.7199	570.6057	630.2709	658.3347	771.0011	791.9627	873.4643	878.222	902.493	953.3982	981.1883	1000.1065	1021.7177	1046.8796	1081.98	1095.4727	1139.2726	1155.7196	1193.1798	1239.1259	1255.9267	1276.9987	1309.2154	1331.3194	1353.8532	1367.8662	1387.9366	1395.4472	1510.7192	1522.7395	2358.6969	3011.8857	3013.482	3039.4806	3054.9382	3061.3049	3101.8414	3126.8196	3558.5065
N#CC1OCC2CNC12	N#C[C@H]1OC[C@H]2CN[C@@H]12	
InChI=1S/C6H8N2O/c7-1-5-6-4(2-8-6)3-9-5/h4-6,8H,2-3H2	InChI=1S/C6H8N2O/c7-1-5-6-4(2-8-6)3-9-5/h4-6,8H,2-3H2/t4-,5-,6-/m1/s1
