12
gdb 21338	6.1414	1.29789	1.13784	2.9641	59.43	-0.2822	-0.0298	0.2524	966.9001	0.0849	-377.5285	-377.521876	-377.520932	-377.560396	23.284	
N	-0.2845412035	-0.8799423868	-0.8777835002	-0.30079
C	-0.1044646417	 0.0794043784	-0.2605330206	 0.26474
C	 0.1203130832	 1.3079076346	 0.5021363288	-0.443238
C	 1.4558164069	 1.938996627	 0.2103081721	 0.392159
N	 2.1893045968	 2.3623953436	 1.2120791451	-0.189709
O	 3.3222432692	 2.9179470524	 0.6367854939	-0.156926
C	 3.2341754778	 2.8040017262	-0.6961839346	 0.092285
C	 2.0752128737	 2.1927429427	-1.0460696084	-0.324836
H	-0.6884195648	 2.0102384565	 0.2651184573	 0.175389
H	 0.0557818243	 1.0939663116	 1.5730246539	 0.185401
H	 4.0670678826	 3.1977483936	-1.2576242157	 0.162117
H	 1.7168052555	 1.9460674101	-2.0311105215	 0.143408
40.9622	113.7155	283.8368	326.8595	380.3579	481.6319	616.7229	660.1654	758.2647	803.1037	879.723	916.4271	931.9462	943.5262	966.8499	1012.8847	1083.7368	1157.8269	1218.5437	1291.7438	1330.5223	1448.6649	1455.6605	1482.8411	1608.9121	2369.8816	3042.3016	3100.0758	3267.0841	3291.8133
N#CCC1=NOC=C1	N#CCc1nocc1	
InChI=1S/C5H4N2O/c6-3-1-5-2-4-8-7-5/h2,4H,1H2	InChI=1S/C5H4N2O/c6-3-1-5-2-4-8-7-5/h2,4H,1H2
