21
gdb 106685	2.69332	1.25403	1.07209	1.4364	79.69	-0.2292	0.0682	0.2973	1246.3817	0.180298	-424.185166	-424.17547	-424.174526	-424.219435	36.446	
C	 0.3231214617	 1.3331002168	 0.2618812837	-0.255311
O	-0.0964533382	 0.0123991846	-0.0412477077	-0.283149
C	 0.5022655025	-0.5200419976	-1.1593621533	 0.360772
C	 1.9435705513	-0.995195041	-1.1656426377	-0.38915
C	 0.8475964802	-1.9771122474	-1.4666535428	 0.316886
O	 0.7616111813	-3.1352483913	-0.7198906709	-0.452334
C	 0.3578736516	-1.81328681	-2.9152880527	-0.025273
C	-0.8563913839	-2.6656663093	-3.2652815275	-0.426473
C	 0.020909899	-0.3103645576	-2.5997610846	-0.317438
H	 1.4080297227	 1.3791646303	 0.4286362017	 0.113401
H	 0.0619235301	 2.0370551562	-0.5407742616	 0.111343
H	-0.1955205209	 1.6306733553	 1.1760504724	 0.126639
H	 2.656392331	-0.68055593	-1.9265965433	 0.098069
H	 2.3555147917	-1.1257681137	-0.1695172751	 0.12082
H	-0.1690827673	-3.3678511871	-0.6288799562	 0.288665
H	 1.1431827122	-1.9526825419	-3.6682780853	 0.066499
H	-1.6642671053	-2.5260331659	-2.5356917003	 0.10952
H	-1.2543114618	-2.396141563	-4.2487625649	 0.119505
H	-0.5993731776	-3.7299968413	-3.2862006595	 0.122808
H	-1.0540427392	-0.1169507703	-2.6548002984	 0.102486
H	 0.553100999	 0.4418800542	-3.1914656959	 0.091716
79.3445	111.3145	147.4466	184.9262	224.4183	248.1434	277.8762	323.6874	378.4056	404.6327	438.0447	486.0474	556.5645	610.4573	723.931	758.2467	824.4221	856.5242	921.5772	935.3156	979.8621	1008.3022	1053.1577	1064.8198	1089.713	1106.5229	1151.1871	1179.666	1191.7188	1207.5722	1209.5479	1240.1815	1248.184	1312.2737	1338.1662	1368.0037	1401.9859	1413.6979	1473.0281	1481.7021	1487.9418	1497.3511	1502.6617	1505.6945	1519.609	2993.0964	3018.9459	3025.0997	3040.3861	3048.2445	3085.2531	3089.8763	3098.2762	3102.0694	3119.8507	3198.8247	3797.8359
COC12CC1(O)C(C)C2	CO[C@@]12C[C@]1(O)[C@@H](C)C2	
InChI=1S/C7H12O2/c1-5-3-6(9-2)4-7(5,6)8/h5,8H,3-4H2,1-2H3	InChI=1S/C7H12O2/c1-5-3-6(9-2)4-7(5,6)8/h5,8H,3-4H2,1-2H3/t5-,6-,7-/m0/s1
