15
gdb 11180	3.64127	1.57917	1.43533	2.5975	66.15	-0.2428	-0.0217	0.2212	906.4205	0.118777	-362.643539	-362.636137	-362.635193	-362.67547	27.761	
O	-0.0085440743	 0.0459306644	-0.3053760625	-0.303112
C	-0.0170511653	 1.2237556127	-0.0706660817	 0.418143
C	-1.2581088448	 2.0912728305	 0.1562593493	-0.274734
N	-0.711417095	 3.3530079363	 0.6548356953	-0.299088
C	 0.6004068604	 3.5569354337	-0.002356198	-0.174573
C	 1.2047384302	 2.1391517182	 0.047294467	-0.314973
C	 0.4939508454	 4.0639344158	-1.3775151344	 0.338322
C	 0.359384354	 4.4826711272	-2.4971977574	-0.484715
H	-1.7885514287	 2.1666228095	-0.8080521661	 0.126048
H	-1.9351091146	 1.6236363528	 0.8771726486	 0.134554
H	-1.3297855573	 4.1368021168	 0.4827202701	 0.23218
H	 1.1876335212	 4.2642502865	 0.5921206583	 0.113266
H	 1.666743301	 1.962720683	 1.0249910787	 0.141452
H	 1.9410838461	 1.9308451982	-0.7286496612	 0.142812
H	 0.2526996517	 4.8552936446	-3.4862114359	 0.204418
68.9361	131.3628	190.6033	272.7545	430.9327	452.0386	484.8077	524.1771	608.0038	638.9839	654.7779	702.7936	750.8885	814.5632	832.9286	901.7942	958.3354	1016.9628	1057.8091	1104.6733	1161.2605	1177.0941	1208.777	1215.4868	1280.8899	1338.4405	1351.2691	1438.0771	1442.7416	1480.7152	1862.8827	2223.8501	2968.2032	3049.6909	3062.0966	3081.3619	3143.3459	3500.8251	3551.8407
O=C1CNC(C1)C#C	O=C1CN[C@@H](C1)C#C	
InChI=1S/C6H7NO/c1-2-5-3-6(8)4-7-5/h1,5,7H,3-4H2	InChI=1S/C6H7NO/c1-2-5-3-6(8)4-7-5/h1,5,7H,3-4H2/t5-/m1/s1
