19
gdb 80645	2.73143	1.47062	1.17753	3.138	75.01	-0.2426	-0.0232	0.2193	1092.702	0.159552	-423.014128	-423.006095	-423.005151	-423.046976	30.823	
C	-0.0885483152	 1.5227324307	-0.0144260069	-0.42161
C	 0.0498289915	 0.0009238103	 0.0063951767	 0.002051
C	 0.9691943361	-0.5485209178	-1.1095174043	 0.076921
C	 1.1839575257	-2.0289232101	-0.7377463988	-0.243781
C	 1.9615583125	-1.309646578	 0.3825673462	 0.051993
O	 2.3036812436	-0.2617448334	-0.5761985589	-0.29719
C	 0.8511048402	-0.6241316803	 1.2256176195	-0.094765
C	 1.4199192655	 0.3821200987	 2.1951656389	 0.141532
O	 1.0084592568	 0.5521232694	 3.3162152954	-0.259995
H	 0.8893366207	 2.0057424855	-0.0942982625	 0.135299
H	-0.6904001778	 1.837743625	-0.8733272546	 0.114216
H	-0.5807164441	 1.8939100973	 0.8896523202	 0.132852
H	-0.943509183	-0.4556096512	-0.0471448161	 0.08447
H	 0.8136676959	-0.1955384173	-2.1292327495	 0.084503
H	 0.320490268	-2.6473655199	-0.4806297821	 0.101024
H	 1.8536876822	-2.5356196376	-1.4328995619	 0.117385
H	 2.8203008101	-1.7409159173	 0.8973889764	 0.090949
H	 0.2413330681	-1.3313123372	 1.7928704817	 0.091674
H	 2.278329843	 0.9689096831	 1.8020870107	 0.092474
66.3048	120.8414	233.6104	242.6628	264.6085	330.6596	410.1115	464.1627	480.327	609.4113	713.1539	793.8148	806.4435	865.7417	877.3443	890.9927	940.3216	952.2487	1007.6102	1014.134	1026.2375	1048.4687	1079.0958	1106.6011	1141.2077	1150.6133	1193.7695	1210.8154	1230.4049	1259.3232	1280.2741	1293.0342	1317.6659	1323.7469	1370.4839	1410.164	1425.4153	1488.5261	1497.5719	1509.1487	1821.1825	2897.8141	3038.0293	3054.7664	3070.7642	3089.1433	3103.0016	3119.5671	3121.1694	3124.4881	3148.127
CC1C2CC(O2)C1C=O	C[C@H]1[C@@H]2C[C@@H](O2)[C@H]1C=O	
InChI=1S/C7H10O2/c1-4-5(3-8)7-2-6(4)9-7/h3-7H,2H2,1H3	InChI=1S/C7H10O2/c1-4-5(3-8)7-2-6(4)9-7/h3-7H,2H2,1H3/t4-,5+,6+,7-/m1/s1
