18
gdb 59934	2.3028	0.99983	0.82091	4.8236	78.57	-0.2762	0.0154	0.2915	1453.8777	0.144573	-401.926513	-401.91629	-401.915346	-401.962071	36.731	
C	 0.0175361823	 1.5777683273	 0.0890684268	-0.416703
C	 0.001537562	 0.052363228	 0.0273224444	 0.118252
O	 0.6839466667	-0.5280578948	 1.1380326553	-0.426071
C	-1.4251917375	-0.5030014466	-0.0798755277	-0.203249
C	-1.4423558232	-2.0550457489	-0.1645120606	-0.319669
C	-2.7872824571	-2.6024419596	 0.0084159732	 0.30689
C	-3.8999199619	-3.0225832022	 0.1702263416	-0.408194
C	-0.8480585722	-2.511483647	-1.4322442844	 0.293257
N	-0.3662169741	-2.8412384164	-2.4289813411	-0.330279
H	 1.0447109665	 1.9392310359	 0.183198279	 0.133969
H	-0.4239096717	 2.0156000174	-0.8114258591	 0.127821
H	-0.5559259026	 1.9403132928	 0.9518963457	 0.11023
H	 0.5748322837	-0.2781564101	-0.8468060516	 0.120129
H	 0.3271356932	-0.1342729966	 1.9425929692	 0.280838
H	-2.0000002647	-0.216935371	 0.8087053203	 0.109285
H	-1.9399138605	-0.0835994895	-0.9495893629	 0.127625
H	-0.7915641585	-2.4182009457	 0.6419737293	 0.169218
H	-4.8801513504	-3.408151943	 0.3075347728	 0.206651
57.4688	88.5649	117.5411	128.8361	221.0549	239.0556	257.8358	323.8298	337.3769	364.9236	441.2559	465.913	508.6666	576.9388	591.818	641.4132	667.2082	806.8265	850.724	927.7387	946.1609	1009.9323	1043.5811	1079.3516	1097.8717	1160.9805	1185.7805	1257.3466	1313.1903	1337.5145	1347.5816	1390.7937	1406.3691	1423.9549	1474.7394	1492.6773	1495.5878	2248.4966	2362.7208	3024.6465	3033.2482	3039.9196	3054.5714	3094.1141	3103.2278	3124.6629	3503.1929	3792.9303
CC(O)CC(C#C)C#N	C[C@@H](O)C[C@@H](C#C)C#N	
InChI=1S/C7H9NO/c1-3-7(5-8)4-6(2)9/h1,6-7,9H,4H2,2H3	InChI=1S/C7H9NO/c1-3-7(5-8)4-6(2)9/h1,6-7,9H,4H2,2H3/t6-,7-/m1/s1
