14
gdb 132186	2.0205	1.85811	0.97381	3.6828	69.29	-0.2437	-0.0313	0.2124	1121.5687	0.100951	-478.014815	-478.00725	-478.006306	-478.047138	27.955	
C	 0.0848805913	 1.4700833493	-6.1124*^-6	-0.476242
C	-0.0671637505	-0.0090815854	 0.0457333083	 0.366992
C	-1.1513707296	-0.7462892279	-0.2085839375	-0.21516
C	-1.1115594066	-2.2040887981	-0.111319159	 0.341252
N	-2.1430299992	-2.9140030176	-0.3526055671	-0.524492
N	 0.1383079036	-2.7610589938	 0.2651154638	-0.413984
C	 1.0901366834	-1.9659975393	 0.479556433	 0.391673
F	 2.2760424057	-2.3960401808	 0.8309306021	-0.039803
O	 1.1252552093	-0.6279787723	 0.4099838244	-0.240872
H	 0.8580766792	 1.7566880047	-0.7211227864	 0.153545
H	-0.8580895607	 1.9374744243	-0.2864362053	 0.148936
H	 0.3916983313	 1.8571450242	 0.9777761761	 0.153542
H	-2.0820324851	-0.2743335884	-0.4925031979	 0.130127
H	-1.9067815724	-3.9005836088	-0.2289737221	 0.224484
124.6599	161.7229	179.0711	221.9843	285.6402	369.846	497.025	540.3281	547.0652	577.3543	627.0083	701.0381	756.434	886.8375	917.2337	926.1657	957.3816	989.3845	1069.3244	1074.5862	1145.2695	1192.4587	1269.5759	1359.3808	1393.2012	1419.8962	1467.4625	1482.6241	1687.1141	1731.8534	1767.0836	3040.5693	3095.8995	3148.8702	3234.6971	3466.5311
CC1=CC(=N)N=C(F)O1	C[C@H]1C=C([NH])N=C(F)O1	
InChI=1S/C5H5FN2O/c1-3-2-4(7)8-5(6)9-3/h2,7H,1H3	InChI=1S/C5H6FN2O/c1-3-2-4(7)8-5(6)9-3/h2-3,7H,1H3/t3-/m0/s1
