16
gdb 26002	4.93923	0.94395	0.80132	1.6307	69.94	-0.2396	-0.0195	0.2201	1370.9369	0.123481	-437.93932	-437.930815	-437.929871	-437.974255	29.748	
C	-0.2189734178	 1.561254995	 0.106742901	-0.474361
C	-0.0582921766	 0.076952706	 0.3827866677	 0.3874
O	 0.5612462023	-0.3277139796	 1.3400364523	-0.290729
C	-0.723331925	-0.850425974	-0.6254436452	-0.435162
C	-0.7229734671	-2.3085423192	-0.3004954816	 0.2465
C	-0.1190839132	-3.0155597953	 0.6865382675	-0.090519
O	-0.4451159463	-4.3360035707	 0.5212084146	-0.143879
C	-1.2367855614	-4.3521074833	-0.5705064106	 0.071501
N	-1.4428790722	-3.1950564752	-1.1055267556	-0.313014
H	 0.3998250504	 2.1335623531	 0.7983994489	 0.14554
H	 0.0520937202	 1.801595127	-0.9267137446	 0.138758
H	-1.2684700835	 1.8506393398	 0.2358489452	 0.146209
H	-1.7544259101	-0.5104222741	-0.7908265779	 0.142868
H	-0.2297000952	-0.6829996625	-1.5947748823	 0.147261
H	 0.5154262642	-2.7643431988	 1.5142009126	 0.172327
H	-1.6155042887	-5.3121151782	-0.8844526719	 0.149299
32.863	51.9928	107.6629	162.6889	261.411	319.7684	332.9067	461.7911	570.5347	639.7892	675.8967	750.1047	797.5348	835.2213	847.4311	857.4583	938.5459	958.8887	1008.7303	1055.4618	1093.8272	1133.545	1164.8605	1222.5986	1234.2718	1237.9209	1336.3545	1377.1451	1390.2905	1441.8181	1464.8553	1476.6095	1560.7172	1629.2915	1811.5417	3008.4699	3037.7178	3042.9965	3099.5341	3155.1845	3275.7641	3339.8511
CC(=O)CC1=COC=N1	CC(=O)Cc1cocn1	
InChI=1S/C6H7NO2/c1-5(8)2-6-3-9-4-7-6/h3-4H,2H2,1H3	InChI=1S/C6H7NO2/c1-5(8)2-6-3-9-4-7-6/h3-4H,2H2,1H3
