17
gdb 75826	2.55225	1.72842	1.20732	3.4145	67.76	-0.2609	-0.032	0.2289	1031.8439	0.134353	-458.976797	-458.968483	-458.967538	-459.009423	31.619	
C	-0.4866549769	 1.3766757655	 0.1037511066	-0.494839
C	 0.1058080439	 0.0006588045	 0.0146353007	 0.393248
O	-0.5500412122	-1.03507908	 0.7701786845	-0.294105
C	 0.8044436687	-0.7052291232	 1.1095753321	-0.024946
C	 1.7793377485	-1.7348635315	 0.5688340511	-0.353631
C	 1.3431463143	-1.8305471194	-0.8913432213	 0.352956
O	 1.414261249	-2.7799972851	-1.6276659656	-0.315372
C	 0.6633504526	-0.5161273029	-1.301916471	 0.002179
O	-0.2748327879	-0.7014450461	-2.3228351617	-0.438639
H	 0.2340756869	 2.1329117006	-0.2242964755	 0.124247
H	-1.3660097166	 1.4460359999	-0.5440218007	 0.151161
H	-0.7917820899	 1.599014458	 1.1292335656	 0.130438
H	 0.9520833995	-0.2512396539	 2.0860183616	 0.102534
H	 2.8183392837	-1.3868401463	 0.6346340726	 0.133676
H	 1.713464019	-2.708023959	 1.0614921244	 0.146946
H	 1.4614673872	 0.181495009	-1.6253326136	 0.08805
H	-0.0937174297	-1.57930769	-2.6909675496	 0.296098
95.4523	174.641	205.7077	224.8206	270.9514	295.9776	359.2805	413.141	474.8732	525.6641	551.2077	630.9358	664.2848	751.6436	794.5112	862.2798	896.1283	953.0445	982.3698	1016.2104	1039.1881	1103.3428	1130.5519	1157.0624	1189.4967	1235.7346	1257.9532	1283.2322	1306.0386	1362.3813	1405.9741	1411.9391	1445.9942	1460.0587	1482.3786	1497.8238	1854.0601	2912.2305	3039.8298	3041.0971	3108.6948	3110.1418	3126.605	3151.1319	3718.2884
CC12OC1CC(=O)C2O	C[C@]12O[C@H]1CC(=O)[C@H]2O	
InChI=1S/C6H8O3/c1-6-4(9-6)2-3(7)5(6)8/h4-5,8H,2H2,1H3	InChI=1S/C6H8O3/c1-6-4(9-6)2-3(7)5(6)8/h4-5,8H,2H2,1H3/t4-,5+,6-/m0/s1
