21
gdb 75002	2.92954	1.58764	1.43455	0.2518	86.44	-0.2124	0.0265	0.2389	1037.2636	0.185731	-349.971212	-349.963891	-349.962947	-350.002545	30.587	
C	-0.005703261	 1.5047260195	 0.0594588579	-0.503275
C	-0.0422841683	 0.0105791439	-0.0099309769	 0.340317
C	-0.0809019639	-0.7596195138	-1.1029888107	-0.18827
C	 0.0204321629	-2.2378124832	-0.7621481295	-0.089655
C	 1.5008051709	-2.6864480197	-0.8981099812	-0.186021
C	 2.2062041104	-1.9910661983	 0.295790773	-0.232652
C	 1.1172841382	-1.8791317064	 1.3668457033	-0.041065
C	-0.2082050962	-2.2713644554	 0.7693995342	-0.073512
C	-0.0135391074	-0.8455317038	 1.2192890412	-0.142643
H	 0.9117009353	 1.8576989777	 0.54765897	 0.12672
H	-0.0573925111	 1.9561585064	-0.9350233763	 0.121226
H	-0.841884532	 1.8950808646	 0.6539392264	 0.122703
H	-0.0404161093	-0.3943706343	-2.1242262112	 0.080841
H	-0.6620437938	-2.8712995354	-1.3359831615	 0.063073
H	 1.5620393015	-3.7757583612	-0.7871170553	 0.091795
H	 1.941604094	-2.4251344874	-1.8660134505	 0.088645
H	 3.0571978613	-2.5719290625	 0.6622788774	 0.092629
H	 2.5905260869	-1.0094817842	-0.0000172838	 0.100713
H	 1.3597309607	-2.1679422853	 2.3840237291	 0.078575
H	-0.9034415731	-2.958349047	 1.235834374	 0.0775
H	-0.4583412359	-0.4767749439	 2.1389106706	 0.072354
146.5624	181.8197	221.258	303.4321	370.9243	402.3595	561.3854	595.1187	627.9467	676.976	750.4091	768.5502	810.2385	829.8403	852.9665	872.3849	908.4276	929.9936	941.3102	969.8136	997.7776	1012.5145	1021.7632	1050.8574	1063.9684	1074.9157	1094.453	1137.2722	1162.1761	1193.5061	1197.9661	1261.0491	1268.6254	1293.6254	1298.6954	1328.4708	1352.008	1365.5686	1393.0203	1413.7682	1478.1826	1484.0555	1489.4854	1497.215	1704.0951	3015.374	3028.5703	3048.8786	3060.0382	3064.8052	3075.9324	3092.4992	3109.3948	3147.793	3162.226	3180.6307	3183.6933
CC1=CC2CCC3C2C13	CC1=C[C@H]2CC[C@@H]3[C@H]2[C@H]13	
InChI=1S/C9H12/c1-5-4-6-2-3-7-8(5)9(6)7/h4,6-9H,2-3H2,1H3	InChI=1S/C9H12/c1-5-4-6-2-3-7-8(5)9(6)7/h4,6-9H,2-3H2,1H3/t6-,7+,8-,9+/m1/s1
