17
gdb 124254	4.3156	1.02121	0.83438	2.0408	79.26	-0.2537	-0.0521	0.2016	1358.9944	0.135706	-418.062312	-418.053292	-418.052348	-418.096738	31.982	
C	-0.0043380313	 1.513716292	-0.051362759	-0.513142
C	-0.047456511	-0.0031733317	 0.0550655099	 0.32217
O	-0.1081459051	-0.5689674964	 1.1274509057	-0.305908
C	-0.0125314503	-0.7738804177	-1.1997407453	 0.300037
C	-0.0385983915	-2.1446085318	-1.400760808	-0.360232
C	 0.017550852	-2.3227643136	-2.7970831418	 0.355489
C	 0.0193744404	-3.5968058756	-3.5815059524	-0.491407
N	 0.0747715481	-1.1401610708	-3.4249157674	-0.272724
N	 0.0554440685	-0.2254899584	-2.4478758883	-0.277905
H	 0.9126646019	 1.8430936157	-0.5537271212	 0.13968
H	-0.8553693632	 1.8880340052	-0.6321896334	 0.139591
H	-0.0379042981	 1.9409179029	 0.9509084258	 0.152828
H	-0.0911985469	-2.8918353679	-0.6261245785	 0.127632
H	-0.886231764	-4.1827068762	-3.3920582858	 0.13371
H	 0.070562849	-3.375968174	-4.649530392	 0.141896
H	 0.8752976792	-4.2265689532	-3.3167413795	 0.133722
H	 0.0909483023	 0.7490408715	-2.6950893388	 0.274564
70.1363	82.1858	127.2358	146.7778	155.9456	307.4922	314.4386	386.2816	494.3783	504.7577	571.7581	605.5966	688.4809	706.4405	710.1216	859.5865	937.1151	990.5807	1009.0309	1022.2346	1041.2767	1067.3687	1102.0648	1209.1249	1222.2586	1291.4614	1373.9623	1408.0077	1411.5837	1458.4322	1472.9493	1478.348	1484.3808	1491.7394	1497.8199	1594.9062	1776.5835	3030.9879	3039.4589	3092.5398	3092.5971	3134.9229	3156.7547	3276.3183	3671.4124
CC(=O)C1=CC(C)=NN1	CC(=O)c1cc(C)n[nH]1	
InChI=1S/C6H8N2O/c1-4-3-6(5(2)9)8-7-4/h3H,1-2H3,(H,7,8)	InChI=1S/C6H8N2O/c1-4-3-6(5(2)9)8-7-4/h3H,1-2H3,(H,7,8)
