21
gdb 40115	2.14711	1.99827	1.26584	0.0777	88.05	-0.2163	0.0282	0.2446	1072.5775	0.183586	-349.93955	-349.931638	-349.930693	-349.971671	32.6	
C	 0.4723789078	 1.4254119089	-0.1199172239	-0.327678
C	 1.4348819237	 0.32062159	 0.2465591719	-0.300974
C	-0.0217358683	 0.012304191	-0.0071308934	 0.28292
C	-0.8935655727	-0.4524485101	 1.1709295537	-0.346504
C	-1.3986467533	-1.7980676855	 0.7025822559	-0.096831
C	-1.1521895803	-1.9934935436	-0.5927305564	-0.126249
C	-0.4488202159	-0.8327140337	-1.2042300816	 0.287822
C	-0.9897806068	-0.2384705488	-2.4949572955	-0.308984
C	 0.3394579735	-0.9456999298	-2.4845096314	-0.327661
H	 0.1780050318	 2.1328367487	 0.6489056872	 0.108916
H	 0.5613359884	 1.8663906813	-1.1083884085	 0.107094
H	 2.1644255147	 0.0141957462	-0.4952631273	 0.110391
H	 1.792506226	 0.2690839352	 1.2700605783	 0.106169
H	-0.3266918782	-0.5075457165	 2.1079921734	 0.101315
H	-1.734414233	 0.2329378188	 1.3570685792	 0.104973
H	-1.9313099374	-2.4835879098	 1.3514372344	 0.090177
H	-1.4477376963	-2.8612364612	-1.1729264539	 0.090288
H	-1.8363286217	-0.7288127749	-2.9641489164	 0.108843
H	-0.9909916014	 0.8422613885	-2.5897132692	 0.113832
H	 1.2341163224	-0.3400691102	-2.5904418972	 0.11096
H	 0.414451957	-1.9218007743	-2.9529452394	 0.11118
74.4108	221.3689	237.3014	254.4482	315.191	360.7724	427.1462	507.1455	549.8498	566.5679	735.12	762.8141	776.9412	779.5291	844.2064	875.9147	886.7533	933.32	937.0127	952.2749	959.9509	969.3369	983.8911	997.9384	1031.862	1049.1141	1062.8593	1076.977	1080.3152	1113.759	1179.2011	1188.1114	1192.2904	1213.2378	1272.0051	1279.6222	1316.525	1381.764	1398.6037	1462.0782	1469.9802	1486.9213	1497.2425	1507.3227	1678.6538	2989.7611	3042.7565	3118.1854	3122.0937	3126.2215	3127.4365	3179.2761	3195.189	3199.2427	3206.6726	3213.4848	3216.807
C1CC11CC=CC11CC1	C1CC21CC=CC12CC1	
InChI=1S/C9H12/c1-2-8(4-5-8)9(3-1)6-7-9/h1-2H,3-7H2	InChI=1S/C9H12/c1-2-8(4-5-8)9(3-1)6-7-9/h1-2H,3-7H2
