18
gdb 5077	3.25692	1.91449	1.23141	1.2159	76.04	-0.1844	0.0552	0.2396	996.9258	0.154062	-344.027033	-344.017998	-344.017054	-344.060503	32.586	
C	 0.0207417353	 1.4982952781	 0.0590496694	-0.510942
C	 0.0252926631	 0.0009723993	 0.0308437029	 0.240942
C	 0.0272054468	-0.8094298397	-1.0791825762	-0.188671
N	 0.0355396363	-2.1181219694	-0.6554114083	-0.314203
C	 0.0256630133	-2.1736707083	 0.7181131741	 0.316752
C	 0.0191624199	-3.4515047249	 1.4847908922	-0.509795
C	 0.0253633732	-0.8699707512	 1.1712646854	 0.020772
N	 0.0175377209	-0.5136898363	 2.5549027667	-0.609622
H	 0.8614778822	 1.8979697893	 0.6399548056	 0.114108
H	 0.0918393729	 1.9128229402	-0.9507691145	 0.118543
H	-0.8942640375	 1.9025858669	 0.5117641051	 0.115702
H	 0.0239319963	-0.5632157743	-2.1295398857	 0.107025
H	 0.0355016364	-2.9200646647	-1.260215107	 0.252437
H	 0.959881482	-4.0095894205	 1.3882506137	 0.117852
H	-0.1259277123	-3.2186758704	 2.5421846087	 0.152478
H	-0.7903644385	-4.1206051308	 1.1669351352	 0.115869
H	 0.9409732219	-0.228099221	 2.8696335827	 0.231149
H	-0.5943933422	 0.2798411778	 2.71809066	 0.229604
68.4186	116.0921	147.2334	178.0963	242.5348	258.2893	289.7863	295.5453	434.7531	485.209	564.7292	640.513	681.3736	703.5903	720.4264	747.2352	851.8109	972.1286	997.5097	1047.1629	1062.0737	1065.3439	1116.0419	1216.8004	1231.7357	1261.5838	1340.1156	1398.4253	1417.4993	1420.5709	1474.5608	1482.7845	1488.0212	1495.9794	1509.491	1573.5436	1629.8452	1677.0339	3010.0748	3011.3192	3052.8335	3053.4267	3101.1507	3126.5969	3252.1352	3479.8401	3548.9443	3685.022
CC1=CNC(C)=C1N	Cc1c[nH]c(C)c1N	
InChI=1S/C6H10N2/c1-4-3-8-5(2)6(4)7/h3,8H,7H2,1-2H3	InChI=1S/C6H10N2/c1-4-3-8-5(2)6(4)7/h3,8H,7H2,1-2H3
