16
gdb 83628	3.1549	1.54475	1.16682	3.8794	73.79	-0.2273	-0.0264	0.2009	1021.1956	0.126287	-437.876762	-437.869379	-437.868435	-437.908718	28.608	
O	 0.1125957332	 1.4210979406	 0.0393005378	-0.437607
C	 0.0568253839	 0.0044760427	 0.0841286285	-0.008017
C	-1.3855942559	-0.4941948296	 0.0306380689	-0.082153
C	-2.7156831733	 0.3093621375	-0.1581106862	-0.203612
N	-2.9043532546	-0.4793254548	-1.4307881107	-0.370878
C	-1.57339057	-0.818186863	-1.4198909105	 0.383816
C	-0.4462580169	-0.9636201497	-2.1490143843	-0.383322
C	 0.6551073861	-0.5397973421	-1.2724164762	 0.357479
O	 1.829029563	-0.3910804967	-1.5450194952	-0.365266
H	 0.9957638617	 1.6427937505	-0.2839702752	 0.295049
H	 0.6198633409	-0.3838087345	 0.9430384396	 0.075915
H	-1.5419196862	-1.3535128307	 0.6859466029	 0.110652
H	-3.5065575091	 0.1614997799	 0.579394361	 0.121613
H	-2.5427308232	 1.3716385209	-0.3458144367	 0.144802
H	-3.3643393047	-0.1105830397	-2.2539113338	 0.251486
H	-0.3321263948	-1.0994731713	-3.21468465	 0.110042
82.0306	172.9148	229.3569	272.2554	385.5573	425.4004	454.8589	521.2025	590.5233	657.6603	714.3385	732.4182	766.4004	832.8718	851.2398	853.0672	933.7249	956.4031	1000.7631	1068.0866	1127.8421	1145.1155	1157.4425	1186.1499	1205.5005	1229.2109	1243.9579	1312.075	1333.7137	1352.6913	1360.7586	1418.0843	1502.6594	1684.062	1792.0346	3014.9775	3068.5918	3090.4561	3136.5662	3237.3857	3564.9971	3768.3503
OC1C2CNC2=CC1=O	O[C@H]1[C@H]2CN[C]2[CH]C1=O	
InChI=1S/C6H7NO2/c8-5-1-4-3(2-7-4)6(5)9/h1,3,6-7,9H,2H2	InChI=1S/C6H7NO2/c8-5-1-4-3(2-7-4)6(5)9/h1,3,6-7,9H,2H2/t3-,6-/m0/s1
