22
gdb 79743	2.31156	1.71195	1.32238	1.6398	84.92	-0.2142	0.0789	0.2931	1094.4187	0.195545	-367.17472	-367.166293	-367.165349	-367.207057	33.907	
C	-0.0763711916	 1.5584520055	 0.0117244332	-0.431229
C	 0.1088404158	 0.0504003957	-0.0027697152	-0.056441
C	 1.3366868719	-0.7717831036	-0.3734261341	-0.112021
C	 2.7638093787	-0.2865570489	-0.3169457924	-0.022112
C	 3.131041846	 1.0966972835	 0.0843738072	-0.262603
N	 3.1384279357	 0.0169877761	 1.0818458148	-0.093141
C	 1.9077731226	-0.1329595831	 1.8995918532	-0.25179
C	 0.8003284661	-0.7894126785	 1.0509356634	 0.320491
C	 0.0860222561	-1.9776867347	 1.6562670085	-0.483421
H	 0.1874510791	 2.0153819648	-0.9479589235	 0.124783
H	-1.1290737694	 1.7899433294	 0.204643967	 0.11478
H	 0.5005049148	 2.059895729	 0.7919647163	 0.125684
H	-0.7882988778	-0.4432637057	-0.374822042	 0.081843
H	 1.1603954088	-1.6170009257	-1.0314164049	 0.080205
H	 3.4782211343	-0.8758950323	-0.8870778253	 0.085906
H	 4.1193943493	 1.4805266137	-0.158928049	 0.109159
H	 2.3635593176	 1.8577447421	 0.1251529667	 0.1108
H	 2.147792764	-0.7938503747	 2.7389036717	 0.107706
H	 1.6122545608	 0.8313523497	 2.3308490629	 0.10243
H	-0.5111158874	-1.6852252248	 2.5286959125	 0.117141
H	-0.5955382408	-2.437116271	 0.9332854377	 0.113326
H	 0.7962401056	-2.7457063664	 1.9845426813	 0.118505
146.8793	184.6401	197.0118	216.5647	263.689	294.8268	345.4511	399.6629	467.5442	555.3764	624.9946	669.693	693.1151	749.8445	795.6375	811.2147	865.4426	926.585	943.1394	962.2339	983.469	1024.5019	1037.7416	1047.0546	1090.5108	1101.3311	1116.2222	1124.3926	1136.5762	1156.9214	1169.8125	1226.1904	1247.8936	1277.7366	1306.0517	1334.9334	1375.0739	1386.3394	1417.1722	1420.6097	1457.2681	1487.3664	1493.1501	1498.4115	1503.2009	1510.728	1523.1419	3018.3226	3029.897	3036.4537	3066.9667	3076.915	3089.15	3096.1902	3102.0467	3114.1127	3119.3526	3128.0909	3156.9295	3232.4615
CC1C2C3CN3CC12C	C[C@H]1[C@H]2[C@H]3CN3C[C@@]12C	
InChI=1S/C8H13N/c1-5-7-6-3-9(6)4-8(5,7)2/h5-7H,3-4H2,1-2H3	InChI=1S/C8H13N/c1-5-7-6-3-9(6)4-8(5,7)2/h5-7H,3-4H2,1-2H3/t5-,6+,7-,8-,9?/m0/s1
