20
gdb 106165	2.77146	1.51755	1.50129	2.2904	77.61	-0.2152	0.0715	0.2867	1012.9829	0.17321	-403.083866	-403.076332	-403.075388	-403.115755	30.382	
O	-0.0531784834	 1.4099441164	 0.1557929336	-0.41948
C	 0.0357638141	 0.0042505521	 0.0039593831	-0.206797
C	-1.3381458704	-0.5893099203	-0.105179199	 0.387618
C	-2.4059279669	-0.3964518724	-1.2352472487	-0.094115
C	-2.6109058028	-1.9350580295	-1.249333677	-0.232546
C	-1.8071871825	-2.0722224674	 0.0722247756	-0.122839
C	-2.5935005793	-1.5686196029	 1.2993305608	-0.174092
N	-2.3514136849	-0.1242353598	 0.9497898253	-0.204233
C	-3.2692044724	 0.2987011601	-0.1668079131	-0.173778
H	-0.6877944666	 1.5432574529	 0.8737053873	 0.29152
H	 0.6230322517	-0.1893422079	-0.9008266019	 0.108982
H	 0.5705456201	-0.4598504054	 0.8506365196	 0.086715
H	-2.2317419886	 0.1126603212	-2.1835066818	 0.07427
H	-3.6394754964	-2.3109210852	-1.2596833699	 0.092319
H	-2.0641863818	-2.3903255014	-2.0802952943	 0.105221
H	-1.1477751359	-2.9336969235	 0.1878660286	 0.068881
H	-3.6503561681	-1.8472257503	 1.3791561762	 0.098737
H	-2.0995053636	-1.8032165811	 2.2475343042	 0.107606
H	-3.2553005524	 1.3890555734	-0.2548726731	 0.110004
H	-4.3078933099	-0.0319990989	-0.0518876853	 0.096005
94.8581	151.0003	236.7227	297.1798	358.4129	407.1768	441.9617	521.0534	595.2366	646.7024	688.56	815.4067	829.702	835.3176	864.1393	928.6262	946.9365	959.2664	967.8847	1021.4479	1034.5026	1048.0328	1054.7862	1113.668	1118.9572	1123.892	1158.2405	1161.6979	1214.5666	1217.2598	1233.5404	1257.5437	1291.7588	1298.6816	1317.6815	1329.9574	1335.5855	1372.7575	1440.2445	1480.7516	1490.0874	1498.5121	1507.4347	2955.3829	3028.0256	3033.7398	3040.8073	3062.9539	3079.5301	3085.0579	3089.8676	3096.7045	3105.6742	3744.7644
OCC12C3CC1CN2C3	OC[C@@]12[C@H]3C[C@@H]1CN2C3	
InChI=1S/C7H11NO/c9-4-7-5-1-6(7)3-8(7)2-5/h5-6,9H,1-4H2	InChI=1S/C7H11NO/c9-4-7-5-1-6(7)3-8(7)2-5/h5-6,9H,1-4H2/t5-,6+,7+
