16
gdb 49705	3.18375	1.36006	1.24874	2.8189	70.11	-0.2573	-0.0293	0.228	1029.4415	0.125196	-437.892754	-437.885338	-437.884393	-437.925005	27.903	
O	 0.0767898306	 0.0549088118	-0.5410993097	-0.310438
C	 0.054262801	 1.2202310352	-0.2166748279	 0.140874
N	 1.110319256	 1.8930140476	 0.3401554073	-0.069565
C	 2.551766699	 1.538428362	 0.206451291	-0.133701
C	 2.8768549398	 1.9835463139	-1.2452089584	-0.233644
C	 2.084022649	 3.3430846548	-1.2776756888	-0.231943
C	 1.499239851	 3.3223130756	 0.1613675991	-0.154007
C	 2.7613139579	 2.8806424281	 0.9551350359	 0.464392
O	 3.4947369406	 3.3387752422	 1.7689743368	-0.302208
H	-0.8523271666	 1.8547759146	-0.2767660151	 0.084763
H	 2.8860554927	 0.5711999238	 0.5689374298	 0.122521
H	 3.9498975743	 2.1111853779	-1.406055079	 0.123744
H	 2.497914085	 1.2582589446	-1.9668509622	 0.140657
H	 2.7265696918	 4.2107206722	-1.447666696	 0.125317
H	 1.2922023469	 3.349575414	-2.0301134983	 0.122555
H	 0.8151017412	 4.1014251615	 0.4887604754	 0.110681
79.2558	160.5939	177.6994	257.8593	272.0978	449.5503	493.3277	570.8062	653.9339	670.3687	763.0373	776.9536	852.6639	884.7452	890.4101	917.8608	950.756	1026.7762	1032.6081	1038.9314	1076.8596	1098.6778	1177.53	1188.7761	1210.7941	1240.2083	1247.7454	1301.7484	1308.1341	1363.0506	1421.3086	1487.2502	1503.5637	1791.0645	1943.4832	2937.855	3067.6453	3079.2935	3113.5733	3134.5542	3159.9818	3181.2021
O=CN1C2CCC1C2=O	O=CN1[C@H]2CC[C@@H]1C2=O	
InChI=1S/C6H7NO2/c8-3-7-4-1-2-5(7)6(4)9/h3-5H,1-2H2	InChI=1S/C6H7NO2/c8-3-7-4-1-2-5(7)6(4)9/h3-5H,1-2H2/t4-,5+
