18
gdb 65556	3.40906	1.37781	1.26244	1.8371	72.76	-0.2339	-0.0406	0.1933	1033.6619	0.148913	-439.054199	-439.046799	-439.045854	-439.085872	29.757	
O	-0.0262915959	 1.3952293954	 0.0618095373	-0.492612
C	-0.0128731215	-0.0068777792	 0.0216790669	 0.335414
C	 0.4138117044	-0.6453506511	 1.4166271708	-0.239312
N	-0.8284057066	-1.3146387782	 1.8757447729	-0.115307
C	-1.2191131179	-2.0233786365	 0.5929700085	-0.19681
C	-1.4439737881	-0.6063364547	 0.008659081	-0.090922
C	-1.8614729545	-0.2829468705	 1.4679080335	-0.183727
C	 0.8406730993	-0.4613046822	-1.1332094859	 0.091276
O	 1.4363754586	 0.3231202138	-1.8362678056	-0.27911
H	 0.5436549958	 1.6825653728	-0.6698118096	 0.291624
H	 1.2253923325	-1.3747063251	 1.346081817	 0.109422
H	 0.7073947772	 0.1603059452	 2.0913710927	 0.131523
H	-0.4518549073	-2.6819698857	 0.1766298045	 0.102678
H	-2.1464990689	-2.5823839869	 0.7358063576	 0.117968
H	-2.060656836	-0.3908482789	-0.8653026943	 0.078475
H	-2.8627052981	-0.6370317865	 1.7215371901	 0.111757
H	-1.6945659173	 0.7257893153	 1.8479056638	 0.131505
H	 0.9036920243	-1.5527562971	-1.3105700412	 0.096156
108.5771	177.7205	253.8292	329.1465	383.1895	422.3583	461.8918	488.216	510.1265	561.1447	726.6338	811.833	829.3003	841.1349	850.0434	878.9399	920.3816	955.7027	976.672	1022.712	1035.9866	1042.6374	1069.6009	1089.6167	1135.8393	1190.2325	1210.4408	1223.0983	1237.128	1256.7426	1277.3485	1284.8171	1324.8979	1389.7866	1440.9518	1489.8141	1501.289	1535.3995	1794.8797	2940.5841	3058.182	3066.0244	3076.8016	3107.6	3119.4699	3132.4939	3145.6296	3678.5608
OC1(CN2CC1C2)C=O	O[C@]1(CN2C[C@H]1C2)C=O	
InChI=1S/C6H9NO2/c8-4-6(9)3-7-1-5(6)2-7/h4-5,9H,1-3H2	InChI=1S/C6H9NO2/c8-4-6(9)3-7-1-5(6)2-7/h4-5,9H,1-3H2/t6-/m1/s1
