17
gdb 81160	2.70957	1.49978	1.31075	3.4095	73.1	-0.2561	0.0091	0.2652	1018.3163	0.138266	-417.994708	-417.987084	-417.98614	-418.026586	29.877	
O	 0.1423171939	 1.4830159124	 0.0706193094	-0.423273
C	 0.0335042863	 0.0934944218	 0.0377466759	 0.099905
C	 0.0860579725	-0.6510072457	 1.3880068238	-0.053413
C	-0.9847890544	 0.0621570885	 2.2289044163	-0.200907
C	-2.1246476352	 0.1105781152	 1.1628029123	-0.232096
C	-1.3763759281	-0.6084376097	 0.0186726996	 0.17077
N	-0.7433107049	-1.7591737027	 0.7706728714	-0.345497
C	-2.0762212846	-0.8810249224	-1.2149931384	 0.146921
N	-2.6064678318	-1.0738646431	-2.2246485908	-0.337802
H	 0.1443008191	 1.8221152684	-0.8305219385	 0.298358
H	 0.6943349706	-0.3692919781	-0.7058618503	 0.087145
H	 1.0253057212	-0.928178259	 1.8637096632	 0.083386
H	-1.2556985501	-0.5298904126	 3.1039585831	 0.114553
H	-0.6635486199	 1.055905838	 2.543766619	 0.121248
H	-3.015552144	-0.44497393	 1.4562311714	 0.124078
H	-2.4005676468	 1.1270240606	 0.8797701685	 0.119615
H	-0.1515032539	-2.2714324415	 0.1134814042	 0.22701
133.4714	159.0681	247.374	258.6394	282.2058	365.448	489.6775	517.5678	525.848	563.29	626.2565	740.5471	814.9841	835.9183	843.5407	889.2216	910.9702	949.7003	977.604	1027.2498	1059.1646	1113.5907	1133.2575	1155.1142	1174.1002	1194.1174	1236.187	1258.8546	1270.9568	1284.4145	1301.6209	1331.1108	1368.0897	1434.8575	1470.0392	1494.925	2350.4066	3034.9075	3085.9392	3093.4342	3136.4992	3138.8067	3152.8194	3441.2731	3818.7024
OC1C2CCC1(N2)C#N	O[C@H]1[C@H]2CC[C@@]1(N2)C#N	
InChI=1S/C6H8N2O/c7-3-6-2-1-4(8-6)5(6)9/h4-5,8-9H,1-2H2	InChI=1S/C6H8N2O/c7-3-6-2-1-4(8-6)5(6)9/h4-5,8-9H,1-2H2/t4-,5+,6-/m1/s1
