17
gdb 40486	3.82809	1.34963	1.21965	1.6578	72.47	-0.2298	0.0591	0.2889	1041.1353	0.13724	-417.85743	-417.850427	-417.849482	-417.889198	27.472	
C	-0.4168351078	 1.0602813765	-0.475934177	-0.179218
O	 0.5417062466	 1.5447724193	 0.4698763708	-0.242397
C	 0.4183352378	 0.1272561421	 0.2901603584	-0.108688
C	-0.1341952794	-0.609948956	 1.4513313743	 0.413262
N	-1.3464829061	-0.1689675589	 2.214191449	-0.388784
C	-0.9129210296	-1.4230560928	 2.9141487316	-0.045732
C	-0.5253235214	-2.1162546466	 1.5689998125	-0.061648
N	 0.8610586983	-2.509369075	 1.9815512382	-0.35366
C	 0.6241753383	-1.2098022499	 2.6905482173	-0.091601
H	-1.4579365954	 1.1880989869	-0.1883370222	 0.132333
H	-0.1807624414	 1.2547827036	-1.5209382047	 0.116306
H	 1.269228229	-0.3501310387	-0.1948672777	 0.110809
H	-1.114933941	 0.6529271677	 2.7777671951	 0.218952
H	-1.4363032537	-1.8426864776	 3.7750519701	 0.085161
H	-1.1528403724	-2.7002992211	 0.895890451	 0.093483
H	 0.82272063	-3.2864890103	 2.6463551451	 0.211456
H	 1.3604053381	-0.7269929592	 3.3359962784	 0.089967
85.4581	152.2585	184.392	312.626	425.2949	517.7382	549.3502	644.7918	752.8282	789.4194	828.1202	850.6704	859.7409	894.4846	900.1432	908.0825	950.363	969.5481	1027.1091	1043.826	1094.2583	1098.1728	1107.9363	1120.9854	1152.775	1156.7176	1172.9425	1195.7994	1209.6355	1250.5523	1263.2794	1279.8834	1294.8964	1314.3759	1349.6962	1459.0233	1522.7893	3092.1651	3097.3298	3107.9469	3122.2242	3125.9292	3187.8959	3404.1854	3413.7406
C1OC1C12NC3C1NC23	C1O[C@H]1[C@@]12N[C@H]3[C@@H]1N[C@@H]23	
InChI=1S/C6H8N2O/c1-2(9-1)6-4-3(8-6)5(6)7-4/h2-5,7-8H,1H2	InChI=1S/C6H8N2O/c1-2(9-1)6-4-3(8-6)5(6)7-4/h2-5,7-8H,1H2/t2-,3-,4-,5+,6+/m1/s1
