14
gdb 27372	2.03017	1.879	0.98178	6.4258	67.49	-0.2447	-0.0348	0.2098	1119.7625	0.100287	-473.888486	-473.880514	-473.87957	-473.921232	29.178	
C	-0.0244815658	 1.4618019131	 0.1317087505	-0.469285
C	-0.0146349248	-0.0207451055	-0.0500100677	 0.398517
N	-0.0771636544	-0.608405628	-1.1679764158	-0.329493
C	-0.0609216507	-2.0407204359	-1.2370871523	 0.388505
O	-0.1211678688	-2.5958570077	-2.3105949618	-0.346321
C	 0.0303887211	-2.7306733398	 0.0422547739	-0.384018
C	 0.0919127736	-2.011572765	 1.174626228	 0.482159
O	 0.177280608	-2.523478423	 2.4036611662	-0.398564
O	 0.0727994963	-0.657385196	 1.1821172576	-0.260232
H	 0.8873536012	 1.7890426259	 0.6415120047	 0.151486
H	-0.0934027869	 1.9400592865	-0.8437337777	 0.168666
H	-0.8734977181	 1.7635773577	 0.7534327599	 0.151488
H	 0.0481086638	-3.8102954354	 0.0753866686	 0.133421
H	 0.2077277354	-1.7976407271	 3.0404139659	 0.313671
112.0772	125.3301	176.2832	207.0584	292.4454	357.0525	372.3317	494.8141	529.6304	587.5348	593.4699	623.6121	687.4406	776.6234	855.6348	895.7346	907.7626	986.4174	1063.3043	1075.7022	1143.3319	1192.1927	1266.8048	1297.9973	1404.1007	1421.5447	1470.3534	1475.9385	1682.8983	1766.7809	1804.6283	3049.9406	3108.3504	3176.6577	3244.3655	3794.9403
CC1=NC(=O)C=C(O)O1	Cc1nc(=O)cc(O)o1	
InChI=1S/C5H5NO3/c1-3-6-4(7)2-5(8)9-3/h2,8H,1H3	InChI=1S/C5H5NO3/c1-3-6-4(7)2-5(8)9-3/h2,8H,1H3
