23
gdb 83363	2.05407	1.87722	1.50636	1.6655	83.61	-0.2333	0.0722	0.3055	1055.4044	0.207928	-388.314852	-388.306482	-388.305538	-388.346942	34.192	
C	-0.1505367164	 1.5403493246	-0.0247093693	-0.438993
C	 0.0517735757	 0.02807826	 0.0013563843	 0.001797
C	 1.0740676265	-0.5709330067	-0.9813227452	 0.097034
C	 2.4250185735	-0.0154321735	-0.4923478701	-0.226005
C	 2.228170798	-0.0263971579	 1.0556681875	-0.248196
C	 0.7874437418	-0.5842861863	 1.2307093288	 0.287346
C	 0.1757410613	-0.3886558316	 2.6065695627	-0.492724
C	 0.8348384731	-2.0507865281	 0.7564409943	-0.100112
O	 1.0369757351	-1.9713349496	-0.6651779829	-0.285325
H	 0.7804022445	 2.0958556862	 0.1165353081	 0.119497
H	-0.5801148753	 1.8552744691	-0.9817343711	 0.117543
H	-0.844510256	 1.8546583937	 0.7619538964	 0.118627
H	-0.9171632994	-0.4646437387	-0.1424077353	 0.070555
H	 0.8740820389	-0.4598145719	-2.048507763	 0.066154
H	 3.2392228259	-0.6624593575	-0.8255405524	 0.105481
H	 2.6179764843	 0.9905603094	-0.8775483546	 0.09438
H	 2.9612100581	-0.6548815125	 1.5703988451	 0.096067
H	 2.312252103	 0.9772839847	 1.483048709	 0.093397
H	 0.1343779673	 0.6719487724	 2.8762865306	 0.116639
H	-0.8440849877	-0.78720086	 2.6509963956	 0.113507
H	 0.7644978215	-0.8982200866	 3.378028914	 0.115706
H	 1.6540269086	-2.6168300348	 1.2194163838	 0.090318
H	-0.1066246322	-2.5795972942	 0.9640026038	 0.087306
179.0101	209.014	227.9885	231.2215	241.2844	314.0768	330.0458	406.9656	422.6828	537.498	589.6694	603.0781	738.9614	758.8814	813.3584	852.8011	885.8788	915.0437	935.5892	963.215	968.6588	1002.4823	1028.8982	1038.4431	1053.4673	1085.6921	1127.3306	1139.4043	1173.2797	1185.0516	1219.2293	1238.7247	1265.5819	1269.0518	1286.6384	1303.0897	1328.1339	1346.5614	1378.0353	1401.8192	1412.7096	1419.214	1479.0099	1493.3451	1495.0376	1502.5011	1507.5571	1510.6074	1532.2808	2991.2148	3024.6177	3030.0185	3035.974	3038.9787	3048.0441	3058.7905	3084.2082	3087.031	3093.4039	3096.442	3104.2683	3111.7026	3117.1685
CC1C2CCC1(C)CO2	C[C@H]1[C@H]2CC[C@]1(C)CO2	
InChI=1S/C8H14O/c1-6-7-3-4-8(6,2)5-9-7/h6-7H,3-5H2,1-2H3	InChI=1S/C8H14O/c1-6-7-3-4-8(6,2)5-9-7/h6-7H,3-5H2,1-2H3/t6-,7+,8+/m0/s1
