20
gdb 98761	4.03116	1.02466	0.89014	3.6291	81.08	-0.2274	0.0321	0.2595	1364.1081	0.170454	-403.144203	-403.135118	-403.134174	-403.179036	33.199	
C	 0.0247953	 1.4545207224	 0.3085807857	-0.370621
C	-0.0738443436	-0.0693555344	 0.2621123455	-0.295732
C	-1.5216085325	-0.5544464388	 0.2382975199	 0.381486
O	-2.472711518	 0.1587549702	 0.5055208329	-0.37174
N	-1.6903297654	-1.8542415878	-0.1484402632	-0.078757
C	-0.7864846664	-3.0227383685	-0.1814532664	-0.194954
C	-2.0161082568	-3.9249155134	 0.0047369292	-0.089736
C	-2.7867829093	-3.5177207325	 1.238456691	-0.279012
C	-2.8825829407	-2.670154063	 0.0030138854	 0.003092
H	 1.0675070102	 1.7723697743	 0.3979846057	 0.10388
H	-0.3954588333	 1.9011911415	-0.5966712961	 0.12658
H	-0.5396649284	 1.8480092674	 1.1563637533	 0.139059
H	 0.4612782085	-0.4758278418	-0.6044548335	 0.112937
H	 0.4118975405	-0.5092729224	 1.1445704749	 0.118557
H	-0.2947937842	-3.1427367374	-1.1529583808	 0.119239
H	-0.0316778853	-3.0526387177	 0.6130456675	 0.113859
H	-2.176299829	-4.8618051103	-0.5089952094	 0.104811
H	-3.659557761	-4.1274891104	 1.4503057118	 0.122123
H	-2.2717608824	-3.1397547748	 2.1176069025	 0.116634
H	-3.8008662031	-2.4304700427	-0.5159662861	 0.118295
42.6019	76.1911	106.9262	154.9584	203.4949	283.5538	338.8803	371.958	464.5807	541.4235	583.6977	704.3545	773.0093	794.345	812.8775	826.9062	925.1634	951.4905	970.5355	987.4087	1013.9671	1046.669	1068.8742	1077.6159	1096.0083	1103.442	1107.6422	1153.5281	1189.9442	1207.5928	1264.1587	1283.2174	1308.8702	1331.8833	1364.1874	1411.658	1440.4358	1463.807	1477.6384	1491.5185	1501.3992	1510.7592	1764.992	3015.9526	3025.4046	3050.661	3057.0674	3071.9782	3115.9474	3118.539	3136.4344	3203.3339	3208.0972	3223.0414
CCC(=O)N1CC2CC12	CCC(=O)N1C[C@H]2C[C@@H]12	
InChI=1S/C7H11NO/c1-2-7(9)8-4-5-3-6(5)8/h5-6H,2-4H2,1H3	InChI=1S/C7H11NO/c1-2-7(9)8-4-5-3-6(5)8/h5-6H,2-4H2,1H3/t5-,6-/m1/s1
