18
gdb 104907	1.92163	1.64465	1.05565	4.6471	73.51	-0.2734	0.0268	0.3001	1164.4233	0.145131	-439.077629	-439.067773	-439.066829	-439.111861	36.313	
C	 0.2928953042	 1.4684171287	 0.0381452685	-0.468843
C	 0.1308924181	-0.034105432	 0.0765404542	 0.37642
O	-1.046594741	-0.5031237752	-0.516746158	-0.448013
C	 1.3267626663	-0.9435755797	 0.0249720787	-0.385538
C	 0.5210022039	-0.8174142571	 1.3236968801	 0.076392
C	 1.1345677079	-0.1238135141	 2.5588614343	-0.164062
O	 2.3290071077	 0.585198578	 2.2932700435	-0.40139
C	-0.3181207939	-1.931434435	 1.6841317306	 0.263142
N	-0.9636701589	-2.8201951707	 2.0469899405	-0.352156
H	 1.1941043929	 1.7885805973	 0.5628857477	 0.15464
H	 0.3618598853	 1.8059593101	-1.0028666129	 0.113352
H	-0.5782428126	 1.9524865823	 0.4899475778	 0.133622
H	-0.9710886595	-0.3803141259	-1.4697653432	 0.288219
H	 1.2294389137	-1.8741032012	-0.5211640199	 0.137156
H	 2.3118290787	-0.4910726988	 0.0290867579	 0.121463
H	 0.4242927715	 0.6099761532	 2.9518549815	 0.137271
H	 1.28791508	-0.8812257468	 3.337406858	 0.123866
H	 3.0462432957	-0.0522202831	 2.2205690907	 0.294458
93.816	130.3435	152.4744	191.3155	213.1451	245.0323	266.7059	319.8559	347.6043	386.7719	395.3663	452.4576	496.7913	565.4302	603.4155	678.4478	727.3839	858.9477	920.5099	932.7945	995.2378	1005.3383	1062.8525	1085.2239	1087.0424	1145.8946	1196.4692	1229.5418	1278.7519	1307.8234	1372.5146	1404.8009	1413.3515	1418.5756	1468.5019	1496.8916	1498.9916	1509.1059	2350.692	3027.6226	3033.799	3087.8612	3097.8403	3140.3455	3148.4238	3240.3411	3797.5886	3824.907
CC1(O)CC1(CO)C#N	C[C@@]1(O)C[C@]1(CO)C#N	
InChI=1S/C6H9NO2/c1-5(9)2-6(5,3-7)4-8/h8-9H,2,4H2,1H3	InChI=1S/C6H9NO2/c1-5(9)2-6(5,3-7)4-8/h8-9H,2,4H2,1H3/t5-,6-/m1/s1
