19
gdb 76622	2.4576	1.52548	1.22742	3.0327	70.74	-0.2368	0.0702	0.307	1086.1693	0.157754	-460.118897	-460.1101	-460.109156	-460.152186	34.107	
C	 0.0755724312	 1.3367001809	-0.7973163105	-0.460704
C	-0.0199873066	 0.0096728128	-0.0816422469	 0.396531
C	 1.1166256826	-0.9281668474	-0.1136193839	-0.221151
O	 0.8838513063	-0.1225540956	 1.0505685595	-0.286582
C	-1.4053875759	-0.5497794944	 0.1035751277	-0.217702
C	-1.9111783482	-1.0816664353	 1.4362512853	 0.036064
O	-1.1535330887	-0.9302112073	 2.6004640793	-0.436478
C	-2.4797614888	 0.2007343994	 0.8807911182	 0.072238
O	-2.1280575628	 1.3603742241	 1.5649421891	-0.426313
H	 1.1176510584	 1.6527734165	-0.8920135224	 0.120998
H	-0.3595863326	 1.2575557589	-1.7993835486	 0.121397
H	-0.4820325298	 2.0913968695	-0.2381458962	 0.161002
H	 0.9413735137	-1.9942314105	 0.0182126822	 0.121907
H	 2.0150044458	-0.6678998028	-0.6703123657	 0.122005
H	-1.7612998948	-1.0936286572	-0.7689502474	 0.099359
H	-2.5107152453	-1.9881764958	 1.4309310238	 0.100073
H	-0.2335753283	-0.7756807488	 2.32297537	 0.310315
H	-3.487744215	 0.2251859557	 0.4757718746	 0.09644
H	-1.7487490212	 1.0545459272	 2.4056342417	 0.290602
61.5062	148.4488	220.623	231.0917	269.6481	291.1722	344.0481	388.4625	407.583	460.714	576.5374	598.6395	669.7938	713.6485	735.4569	779.0126	787.1056	855.8782	900.5041	926.5925	1016.1119	1033.5436	1043.4227	1070.9551	1111.5803	1122.7698	1137.9386	1165.8594	1172.5595	1225.9061	1254.3717	1332.3069	1356.9416	1385.9293	1400.0579	1410.1323	1421.3114	1454.7112	1479.8297	1504.5809	1523.5748	3042.5802	3090.6148	3113.539	3125.3054	3134.6703	3138.9282	3148.032	3181.0667	3610.0084	3670.4401
CC1(CO1)C1C(O)C1O	C[C@]1(CO1)[C@H]1[C@@H](O)[C@H]1O	
InChI=1S/C6H10O3/c1-6(2-9-6)3-4(7)5(3)8/h3-5,7-8H,2H2,1H3	InChI=1S/C6H10O3/c1-6(2-9-6)3-4(7)5(3)8/h3-5,7-8H,2H2,1H3/t3-,4+,5-,6-/m0/s1
