20
gdb 51548	4.57831	0.77572	0.74117	3.4299	81.47	-0.2368	-0.0179	0.2188	1568.1097	0.170008	-403.12163	-403.11253	-403.111585	-403.156678	33.188	
O	-0.6210049185	 0.2994696376	 0.1668518208	-0.241916
C	-0.052679647	 1.3614809604	 0.1542278064	 0.15899
C	 1.3724493071	 1.5748223213	-0.313590312	-0.280547
C	 1.4481050359	 2.6605343937	-1.3689653458	-0.114568
N	 1.3280006208	 4.0516941581	-0.875730501	-0.386447
C	 2.5823041448	 3.6107492888	-1.4737970777	 0.368279
C	 3.941204843	 3.5659671651	-0.7661206466	-0.287123
C	 4.6121872136	 3.6956204248	-2.166661986	-0.206093
C	 3.2339139553	 4.0947496281	-2.7753682759	-0.308804
H	-0.5590727827	 2.2931019425	 0.4915689899	 0.088953
H	 1.9622148004	 1.8914791953	 0.5561971613	 0.126311
H	 1.7706794885	 0.6244291708	-0.6817675641	 0.116975
H	 0.9409608586	 2.4203739417	-2.3031589384	 0.093827
H	 0.8006954049	 4.6220481729	-1.5330391241	 0.230828
H	 4.0976658297	 4.4459861356	-0.1358036341	 0.112169
H	 4.1756453186	 2.6723182239	-0.1819122469	 0.104069
H	 5.4160120536	 4.42774841	-2.2587220317	 0.105014
H	 4.968780517	 2.7355949887	-2.5464225751	 0.109411
H	 2.9284849109	 3.6037095559	-3.7033362874	 0.104103
H	 3.1369971755	 5.178206005	-2.9040752817	 0.10657
52.4159	64.514	97.7899	145.8187	196.6296	265.6807	365.3956	414.0573	475.6316	511.1439	566.2444	712.6877	785.3576	808.1804	833.2848	850.8205	894.7875	929.555	951.1905	963.5845	1008.6236	1031.6253	1051.2288	1081.1134	1097.0454	1138.0761	1178.3578	1200.3578	1217.571	1248.5735	1253.3161	1257.5369	1274.3489	1289.4528	1298.4993	1356.7193	1419.3247	1449.2086	1470.2283	1472.6699	1480.8904	1507.4122	1831.3391	2890.0447	3032.9937	3043.1094	3057.1202	3073.6892	3094.4663	3095.9734	3104.622	3112.8762	3130.5891	3491.3074
O=CCC1NC11CCC1	O=CC[C@H]1NC21CCC2	
InChI=1S/C7H11NO/c9-5-2-6-7(8-6)3-1-4-7/h5-6,8H,1-4H2	InChI=1S/C7H11NO/c9-5-2-6-7(8-6)3-1-4-7/h5-6,8H,1-4H2/t6-/m1/s1
