15
gdb 79444	2.93614	1.76653	1.36018	2.7398	63.92	-0.2331	-0.0238	0.2093	918.5962	0.113335	-457.714097	-457.707429	-457.706485	-457.745059	26.684	
O	-0.0130682517	 1.391164027	 0.0855351968	-0.440337
C	 0.0899478902	-0.0125295317	 0.0198595186	 0.10866
C	-1.3363499465	-0.5844970995	-0.0442096113	-0.089333
C	-1.348636068	-0.4025328499	-1.579443591	 0.127087
O	-1.9380769468	-1.6992165427	-1.8106543412	-0.299688
C	-1.2722846439	-2.0715568087	-0.5622185311	-0.064074
C	 0.1800376783	-2.0684921773	-1.0781032466	 0.47483
O	 1.0029813156	-2.9348116013	-1.1401077881	-0.331163
C	 0.2257648534	-0.5829787117	-1.4394485004	-0.268488
H	 0.859142957	 1.7658063455	-0.0757000998	 0.291189
H	 0.7905617892	-0.4060321359	 0.7678711103	 0.086581
H	-2.1330346008	-0.282298399	 0.6317490847	 0.100237
H	-1.7691086932	 0.4177870982	-2.1536774177	 0.108795
H	-1.6862508329	-2.9419643459	-0.059446772	 0.103816
H	 0.96953185	-0.2258674072	-2.1461406811	 0.091889
147.1425	206.4972	293.8411	326.9588	424.5954	464.9546	509.1779	593.7755	737.5996	771.7992	817.1581	838.2347	843.2294	853.9095	891.0636	925.8734	963.5506	971.5926	1016.5968	1069.3245	1088.1387	1123.5423	1141.8207	1168.667	1180.5574	1198.1987	1221.9649	1245.8827	1280.0641	1308.9785	1322.7555	1427.2063	1894.3675	3017.0243	3147.8834	3162.8956	3164.7274	3171.2817	3815.3356
OC1C2C3OC2C(=O)C13	O[C@H]1[C@H]2[C@@H]3O[C@H]2C(=O)[C@H]13	
InChI=1S/C6H6O3/c7-3-1-4(8)6-2(3)5(1)9-6/h1-3,5-7H	InChI=1S/C6H6O3/c7-3-1-4(8)6-2(3)5(1)9-6/h1-3,5-7H/t1-,2-,3+,5+,6+/m0/s1
