18
gdb 133712	3.22407	0.88878	0.84419	2.2632	64.97	-0.2816	0.0849	0.3665	1402.0526	0.143359	-533.457412	-533.448278	-533.447333	-533.492413	33.312	
C	 0.1894076242	 1.5651586043	-0.254675569	-0.406432
C	 0.026825273	 0.0806543875	-0.0082708662	-0.016456
C	 1.2201075915	-0.8408380856	 0.0297372513	-0.284085
C	 0.4218383587	-0.5935502163	 1.2887746198	 0.001178
C	 1.0190275051	 0.1645864745	 2.4536335877	-0.363958
C	 1.9213374326	-0.704437549	 3.3090375322	 0.290525
F	 2.9992051444	-1.1311902201	 2.6315297409	-0.079681
F	 2.3675237719	-0.0285348107	 4.3817570808	-0.08234
F	 1.2792452807	-1.7944100676	 3.7632979729	-0.087404
H	 1.1300140593	 1.950186758	 0.1499728857	 0.116618
H	 0.1927642407	 1.775857394	-1.3295282877	 0.122229
H	-0.6283231193	 2.140705824	 0.1935674536	 0.118558
H	-0.8677823044	-0.3361675989	-0.4640833439	 0.088196
H	 1.1571703212	-1.8153731879	-0.4412276748	 0.114947
H	 2.2034338749	-0.3850664563	-0.0302743719	 0.115604
H	-0.2245788761	-1.4079792772	 1.6019039789	 0.098049
H	 1.6222087437	 1.0141779836	 2.1234304524	 0.126112
H	 0.237579548	 0.5569929637	 3.1134407073	 0.128339
38.4107	87.9134	121.7818	185.0957	222.9298	284.2078	349.6696	367.5215	441.433	465.9853	535.8369	551.5598	659.5727	763.6614	832.3452	843.869	874.7913	882.9182	934.8912	975.3841	1037.8632	1065.5002	1107.93	1111.591	1152.098	1178.8053	1199.3459	1200.9583	1250.8379	1275.0507	1308.1895	1364.2106	1397.6113	1420.0899	1436.7053	1470.3674	1495.204	1497.4344	1508.1992	3030.7614	3056.2805	3090.1804	3100.4378	3111.9988	3132.6569	3136.6863	3153.9433	3216.5218
CC1CC1CC(F)(F)F	C[C@H]1C[C@H]1CC(F)(F)F	
InChI=1S/C6H9F3/c1-4-2-5(4)3-6(7,8)9/h4-5H,2-3H2,1H3	InChI=1S/C6H9F3/c1-4-2-5(4)3-6(7,8)9/h4-5H,2-3H2,1H3/t4-,5-/m0/s1
