19
gdb 60092	2.3667	1.26011	0.9877	3.0216	72.83	-0.2614	-0.0395	0.2219	1265.2666	0.155951	-460.152128	-460.14237	-460.141426	-460.186979	35.438	
C	-0.101719195	 1.5606218085	 0.2169280083	-0.397694
C	-0.1122784221	 0.083122167	-0.1768689638	 0.150868
O	 1.0508060096	-0.5902147286	 0.2873620401	-0.434837
C	-1.4029952274	-0.6171316966	 0.2868152086	-0.34411
C	-1.3927583586	-2.1023274795	 0.0088314802	 0.340629
C	-2.5285422192	-2.7837791712	-0.6600625023	-0.224543
O	-1.3285024049	-2.5216909959	-1.3641817433	-0.261487
C	-0.5897851492	-2.9801007169	 0.9222179815	 0.129949
O	-0.1954208157	-2.6524282508	 2.014047293	-0.277761
H	 0.8271442954	 2.0288611599	-0.1184730995	 0.127176
H	-0.9442944661	 2.0993878941	-0.2299304611	 0.111354
H	-0.1673119016	 1.6730871562	 1.3057314444	 0.111339
H	-0.0572416451	 0.0008083434	-1.2686796337	 0.10274
H	 0.9531725951	-0.7463642106	 1.2346258103	 0.288642
H	-1.5287537796	-0.4790335116	 1.3678934639	 0.119562
H	-2.2623825162	-0.1505172706	-0.2048990995	 0.107009
H	-2.7377058328	-3.8344733337	-0.4604112907	 0.124579
H	-3.3911869487	-2.179324458	-0.9364207852	 0.129353
H	-0.407472818	-3.9938645852	 0.5041065586	 0.097235
69.4328	89.1463	124.4488	156.692	229.1456	239.7381	301.9961	343.1121	363.7158	393.0184	425.6147	466.1641	511.7289	575.3263	784.5253	838.002	860.6244	882.7675	910.9095	948.9398	973.884	1038.3075	1064.2615	1107.6099	1133.5574	1158.0457	1160.8134	1182.9314	1298.7288	1312.6073	1345.8052	1355.5624	1384.8532	1405.0582	1425.1149	1434.3997	1466.0429	1491.8963	1495.3196	1523.7521	1815.916	2906.7945	3027.4571	3037.0487	3049.273	3081.0232	3087.1855	3098.9847	3120.8316	3170.9265	3785.6459
CC(O)CC1(CO1)C=O	C[C@@H](O)C[C@]1(CO1)C=O	
InChI=1S/C6H10O3/c1-5(8)2-6(3-7)4-9-6/h3,5,8H,2,4H2,1H3	InChI=1S/C6H10O3/c1-5(8)2-6(3-7)4-9-6/h3,5,8H,2,4H2,1H3/t5-,6-/m1/s1
