22
gdb 80912	2.05333	1.66335	1.45816	1.906	83.89	-0.2006	0.0739	0.2744	1091.0531	0.191245	-404.269772	-404.259854	-404.25891	-404.303787	38.16	
C	 0.3401444066	 1.5113414419	 0.1239414424	-0.332674
N	 0.2478934022	 0.0516180461	 0.0426810804	-0.124371
C	-0.9489234952	-0.7323256321	 0.5311009706	-0.119579
C	-0.0325503892	-1.9773937324	 0.3960203859	-0.245665
C	 0.7956168269	-0.8691840668	 1.1225178652	 0.272418
C	 2.2408598769	-0.8923543428	 1.5259591456	-0.529218
C	-0.4682701045	-0.6226759617	 2.0281192724	 0.423235
C	-0.6771230442	 0.6372568041	 2.8595246619	-0.496901
O	-0.7276002564	-1.7370416327	 2.8746584226	-0.47777
H	 0.976887274	 1.8681267928	 0.9429094094	 0.114002
H	 0.7803431428	 1.8846352974	-0.8086851551	 0.113484
H	-0.642891206	 1.9855831763	 0.2278721227	 0.115993
H	-1.9441393207	-0.5732420032	 0.1091540149	 0.067052
H	-0.2969276093	-2.8612533311	 0.968858751	 0.114191
H	 0.29772252	-2.1790311876	-0.6222213438	 0.092497
H	 2.8777913239	-1.1338299635	 0.6693557084	 0.128679
H	 2.5600006888	 0.0760253681	 1.9278580489	 0.117693
H	 2.3999994344	-1.6470547046	 2.3024147995	 0.135148
H	-1.7034952867	 0.6417068627	 3.2518956394	 0.105142
H	-0.0000586055	 0.6237771243	 3.720211225	 0.126583
H	-0.5397330894	 1.571886679	 2.3252759783	 0.125907
H	-1.5095313296	-1.539778944	 3.4002310645	 0.274157
68.0952	172.4855	185.0009	198.8352	216.9707	229.4692	254.0442	293.7404	339.4613	404.4393	438.4566	466.6773	537.7303	631.1873	660.5285	678.2464	733.6173	752.1649	796.5732	896.2303	943.9935	945.9226	1002.8545	1030.4843	1070.281	1096.3766	1112.9178	1133.6039	1142.8933	1171.9772	1179.2717	1192.9157	1211.1314	1227.8399	1248.8441	1313.3105	1379.8259	1406.4449	1414.9236	1438.3459	1477.4393	1483.384	1486.9626	1490.7971	1497.9176	1501.93	1526.8457	3001.1497	3018.2469	3030.9768	3051.7297	3073.9217	3082.9038	3084.4469	3096.8894	3106.7753	3112.9511	3196.8557	3197.8997	3808.8452
CN1C2CC1(C)C2(C)O	CN1[C@H]2C[C@]1(C)[C@]2(C)O	
InChI=1S/C7H13NO/c1-6-4-5(8(6)3)7(6,2)9/h5,9H,4H2,1-3H3	InChI=1S/C7H13NO/c1-6-4-5(8(6)3)7(6,2)9/h5,9H,4H2,1-3H3/t5-,6+,7+/m0/s1
