16
gdb 17634	3.31758	1.63875	1.32343	3.0999	61.11	-0.264	-0.0289	0.2351	954.1431	0.127853	-420.868579	-420.860135	-420.859191	-420.902184	29.866	
C	 0.0451009077	 1.3175271652	 0.2985597528	-0.490554
C	-0.0046779103	-0.1577969356	-0.0101338012	 0.386591
O	 0.9896727064	-0.8361600596	-0.1445493885	-0.315373
C	-1.3791671318	-0.8382608339	-0.1485499452	 0.003971
O	-1.2018789794	-2.2016715739	-0.3888679023	-0.431937
C	-2.22839691	-0.5716970046	 1.0901973047	 0.047948
C	-2.8920334964	-1.6630891137	 1.8080457049	-0.162383
O	-1.7012141131	-1.0565439563	 2.3241994256	-0.24045
H	 1.0450808333	 1.7042324591	 0.0987227048	 0.152338
H	-0.6995150154	 1.8741838195	-0.2785618533	 0.138697
H	-0.1853582019	 1.4648044323	 1.3602177858	 0.172206
H	-1.8916897418	-0.3589296485	-1.0026717453	 0.092259
H	-0.2386907985	-2.3360984763	-0.3695521956	 0.297629
H	-2.6602336645	 0.4292544475	 1.1427988359	 0.093816
H	-3.800404058	-1.4576904728	 2.3723244574	 0.113606
H	-2.7669555662	-2.6753394884	 1.4359082594	 0.141636
53.5565	81.8272	137.3631	176.5922	245.0774	310.1464	385.8264	430.9375	490.6849	528.2381	597.515	696.5772	770.1626	836.3965	886.9445	962.8457	976.6327	1002.0041	1039.7854	1103.8028	1153.3139	1168.4786	1172.5484	1208.8031	1260.2259	1291.8645	1358.9709	1385.8091	1408.2464	1442.4442	1466.0045	1475.5607	1515.9057	1805.1489	2943.9297	3041.4256	3092.0206	3101.4695	3106.5783	3153.7649	3205.5806	3650.138
CC(=O)C(O)C1CO1	CC(=O)[C@@H](O)[C@H]1CO1	
InChI=1S/C5H8O3/c1-3(6)5(7)4-2-8-4/h4-5,7H,2H2,1H3	InChI=1S/C5H8O3/c1-3(6)5(7)4-2-8-4/h4-5,7H,2H2,1H3/t4-,5-/m1/s1
