22
gdb 79702	2.57633	1.67243	1.28683	1.5091	85.67	-0.2222	0.0927	0.315	1094.7427	0.19613	-367.148628	-367.14055	-367.139606	-367.180655	33.023	
C	-0.0352193004	 1.6738663367	 0.1160874772	-0.464053
C	 0.0642046308	 0.1413486953	 0.0520329738	 0.049013
C	 0.5901969469	-0.670604913	-1.1676423282	-0.09411
C	 2.1055475926	-0.423893174	-1.1814317167	-0.034779
C	 2.745989557	 0.6710031155	-0.4034885914	-0.257108
N	 2.4578575281	-0.610209673	 0.2620263459	-0.109996
C	 1.0751318986	-0.7929491431	 0.8026305052	-0.044468
C	 0.6000753732	-1.9188174722	-0.1901431774	 0.080021
C	-0.6807435966	-2.7026307569	 0.0597163153	-0.450501
H	 0.4039482633	 2.1622098599	-0.7579519327	 0.128259
H	-1.0851732263	 1.9805208668	 0.1577785609	 0.107995
H	 0.4510305111	 2.0853501241	 1.0072978099	 0.126312
H	-0.925889664	-0.2421277923	 0.2951148765	 0.079212
H	 0.0694949712	-0.6811283748	-2.1264163118	 0.05838
H	 2.6972867712	-0.9777118363	-1.90645024	 0.091345
H	 3.8122234721	 0.8202835817	-0.5587754324	 0.11188
H	 2.2204282807	 1.570228124	-0.1275480681	 0.119508
H	 1.0629865898	-0.9116285685	 1.8869375339	 0.064187
H	 1.4088272298	-2.6237486845	-0.4025042457	 0.080186
H	-1.5559607738	-2.0812618539	 0.2668257216	 0.119011
H	-0.9187844914	-3.3201154108	-0.8136472981	 0.118579
H	-0.5504823839	-3.3810607506	 0.9102028924	 0.121127
150.9493	162.8608	235.0321	241.9459	254.6357	323.2045	426.7859	439.9123	511.6196	630.2707	660.4715	714.8463	730.6654	790.2859	804.0826	818.8015	880.049	897.0233	980.1593	1001.8773	1022.3382	1038.9234	1048.46	1070.7957	1079.725	1095.8545	1110.3007	1122.4528	1127.2643	1155.3764	1171.7931	1181.7743	1226.0167	1232.3753	1255.9195	1272.2989	1292.523	1360.98	1397.6913	1411.1658	1413.3397	1448.8064	1494.9646	1496.9538	1502.4803	1508.849	1520.8749	3031.9149	3032.3858	3063.2663	3084.2611	3089.1172	3099.2389	3103.0717	3106.6764	3109.5759	3120.4401	3124.4424	3136.5415	3274.3916
CC1C2C3CN3C1C2C	C[C@H]1[C@H]2[C@H]3CN3[C@@H]1[C@H]2C	
InChI=1S/C8H13N/c1-4-7-5(2)8(4)9-3-6(7)9/h4-8H,3H2,1-2H3	InChI=1S/C8H13N/c1-4-7-5(2)8(4)9-3-6(7)9/h4-8H,3H2,1-2H3/t4-,5-,6+,7-,8+,9?/m0/s1
