14
gdb 28544	3.19817	1.4077	0.97746	1.7041	68.61	-0.2009	-0.0127	0.1883	1104.6895	0.102357	-473.903409	-473.895968	-473.895024	-473.934966	29.351	
O	 0.062186147	 1.3244643997	 0.0027822741	-0.425101
C	 0.0662433806	-0.0288542767	-0.0362448645	 0.419896
C	-0.0374792221	-0.6806745715	-1.2609753225	-0.219181
C	-0.0295340075	-2.0734568322	-1.259273864	-0.147945
C	 0.0792808682	-2.7644652825	-0.0610614071	 0.269687
O	 0.0895935556	-4.1274388494	-0.0278783015	-0.450788
C	 0.1771740577	-1.9970426896	 1.1043367588	 0.315457
O	 0.284123466	-2.6726205588	 2.2794168952	-0.443764
N	 0.1718102367	-0.6745212658	 1.12644994	-0.451433
H	 0.1423656468	 1.5704353707	 0.9332117635	 0.295521
H	-0.1208313956	-0.1097388515	-2.1760467498	 0.109097
H	-0.107359437	-2.6349551431	-2.1835569474	 0.118093
H	 0.1735277111	-4.3969372536	 0.8945810856	 0.307981
H	 0.3423007725	-2.0110408759	 2.9804400295	 0.30248
143.3751	249.2299	298.4846	346.607	351.4269	377.9887	436.1675	464.0498	488.4099	500.9619	539.136	605.314	684.1989	753.0622	771.8593	804.4677	839.4431	956.7872	996.567	1101.0142	1186.684	1203.4182	1208.8062	1291.9761	1339.0735	1370.4869	1436.5822	1503.4366	1530.8735	1656.6794	1682.0094	3198.8875	3223.9206	3790.6728	3793.8411	3803.451
OC1=CC=C(O)C(O)=N1	Oc1ccc(O)c(O)n1	
InChI=1S/C5H5NO3/c7-3-1-2-4(8)6-5(3)9/h1-2,7H,(H2,6,8,9)	InChI=1S/C5H5NO3/c7-3-1-2-4(8)6-5(3)9/h1-2,7H,(H2,6,8,9)
