20
gdb 102965	3.3097	0.75158	0.64054	5.3098	79.56	-0.2529	-0.0263	0.2267	1753.1301	0.1675	-440.291203	-440.280285	-440.279341	-440.330031	36.338	
C	 0.017618405	 1.5413873917	 0.007380551	-0.39067
C	-0.0215294943	 0.015196145	-0.1065287733	-0.202416
C	 0.80816658	-0.5347210653	-1.2925893222	-0.075666
C	 0.9774238681	-2.0438945517	-1.1793987349	-0.102191
O	 1.747814096	-2.4804999874	-2.2999920811	-0.188684
C	 1.8887687303	-3.8140534998	-2.4475675744	 0.131783
N	 2.5929375508	-4.273046617	-3.3872424277	-0.431088
C	 0.1043600826	-0.1810163851	-2.5933791301	 0.181681
O	 0.3363747893	 0.7943442289	-3.2563438243	-0.246742
H	 1.0371517516	 1.8931049476	 0.1951988757	 0.124287
H	-0.331129833	 2.0213067518	-0.9110288296	 0.143487
H	-0.6139290245	 1.88288543	 0.8326222698	 0.11718
H	 0.358573855	-0.43512354	 0.8188125323	 0.105944
H	-1.0606953009	-0.3275814916	-0.2048324976	 0.10532
H	 1.7927793519	-0.0560231471	-1.3061313679	 0.113204
H	 1.4877089498	-2.3023329967	-0.2427296794	 0.116277
H	-0.0041630845	-2.5411167236	-1.1799300098	 0.108987
H	 1.3420295226	-4.3987024224	-1.694004128	 0.08508
H	 2.5876991105	-5.2905412453	-3.3621108585	 0.231706
H	-0.7128483265	-0.888321172	-2.87513791	 0.07252
16.7606	52.9109	71.6657	87.3249	107.5707	145.8899	216.3622	252.0155	290.9577	326.1014	351.0571	439.067	581.9148	638.9105	777.2696	823.2869	859.5851	906.6324	975.3223	996.3212	1027.2205	1040.1149	1044.4259	1107.7045	1139.3342	1151.9086	1168.4412	1250.5379	1261.0738	1290.5349	1303.8232	1354.5355	1369.5708	1400.4488	1419.4	1426.8053	1430.8694	1488.0974	1498.1229	1505.8817	1512.4723	1751.6893	1839.4609	2840.4914	2990.4036	3014.4906	3018.8504	3041.6531	3043.2516	3048.5903	3073.4637	3110.5441	3122.8053	3520.1959
CCC(COC=N)C=O	CC[C@@H](CO[CH][NH])C=O	
InChI=1S/C6H11NO2/c1-2-6(3-8)4-9-5-7/h3,5-7H,2,4H2,1H3	InChI=1S/C6H11NO2/c1-2-6(3-8)4-9-5-7/h3,5-7H,2,4H2,1H3/t6-/m1/s1
