15
gdb 67696	2.35472	1.90083	1.46689	4.3045	64.75	-0.2281	-0.013	0.2151	918.7257	0.112677	-457.736813	-457.729629	-457.728684	-457.768371	27.825	
O	-0.1479026997	 1.3687579736	 0.0805433832	-0.455022
C	 0.0530602054	 0.0147696063	 0.0135941442	 0.391758
C	 0.0582633372	-0.8838190483	-1.1661386601	-0.167696
C	 1.271853143	-1.8033252726	-1.0896244428	-0.104641
O	 1.8516989547	-1.5584275372	 0.1994117045	-0.259511
C	 0.8606621443	-0.9052418754	 0.9774156086	-0.133873
C	-0.4570749684	-1.7413196017	 1.1043242638	 0.441714
O	-0.8906419219	-2.481541475	 1.9406233802	-0.325781
C	-1.0468878198	-1.0670664076	-0.0955294879	-0.261431
H	 0.6403148815	 1.8143227543	-0.2514802218	 0.298954
H	-0.3032490793	-0.5216337595	-2.1212220433	 0.115151
H	 0.996863683	-2.8618428073	-1.188118852	 0.116262
H	 2.0179978549	-1.5634364973	-1.8553677447	 0.114194
H	 1.300068382	-0.5036773925	 1.8891153432	 0.10905
H	-2.0919690168	-0.9635751397	-0.3602323451	 0.120872
111.3382	205.3816	244.8346	260.56	333.6937	416.864	474.1707	558.6194	600.1687	709.9405	714.3087	769.8996	802.3561	854.4196	883.8542	941.1369	985.6738	997.6115	1041.5412	1071.5872	1087.2383	1106.2847	1142.2947	1170.5519	1201.0089	1222.2271	1289.0476	1296.8067	1307.3515	1374.9066	1470.9658	1519.3168	1881.6543	3014.2184	3064.4101	3145.1195	3194.1851	3204.0813	3789.8493
OC12C3COC1C(=O)C23	O[C@@]12[C@H]3CO[C@@H]1C(=O)[C@@H]23	
InChI=1S/C6H6O3/c7-4-3-2-1-9-5(4)6(2,3)8/h2-3,5,8H,1H2	InChI=1S/C6H6O3/c7-4-3-2-1-9-5(4)6(2,3)8/h2-3,5,8H,1H2/t2-,3-,5+,6+/m0/s1
