19
gdb 86828	2.93273	1.21258	1.00091	6.5709	72.6	-0.208	0.0378	0.2458	1212.4696	0.160124	-456.341324	-456.332637	-456.331693	-456.375132	32.501	
N	 0.5651007707	 0.9563412759	 1.3703804637	-0.508172
H	 0.3812439573	 0.0055369834	 2.9297261674	 0.329136
H	 1.2341160361	 1.7195421128	 1.4250139942	 0.245986
H	 0.8158658515	 0.3899518321	 0.5645488272	 0.24599
C	-0.8051946903	 1.4612102297	 1.2563622471	 0.002436
C	-1.804901675	 0.3011533121	 1.4994972711	-0.184561
N	-2.0932309152	 0.8408576255	 2.8412491296	-0.055557
C	-2.0061172647	 0.0417019472	 4.0339844998	-0.318592
C	-0.6911317296	-0.6584550987	 4.4772202415	 0.358045
O	 0.4263978051	-0.5415299176	 3.7530551369	-0.390012
O	-0.7040900038	-1.3098695479	 5.4903797245	-0.325254
C	-1.2588807677	 2.0370171691	 2.6227028093	-0.184588
H	-0.9830171295	 2.0876929444	 0.37460651	 0.074398
H	-2.6854314879	 0.2920335144	 0.8452331942	 0.106114
H	-1.3394876373	-0.6925857762	 1.473806438	 0.107319
H	-2.3048188192	 0.6522276357	 4.8936557669	 0.141936
H	-2.7493015919	-0.7617989199	 3.978639385	 0.141945
H	-0.4353226008	 2.1818564884	 3.333729649	 0.107312
H	-1.8453347279	 2.9628279295	 2.5734133247	 0.10612
60.7399	100.556	154.5436	191.4054	284.9191	316.8564	337.2548	415.2645	457.4514	486.1601	551.5368	646.3679	749.1692	836.5387	839.0588	867.511	884.5328	915.6034	944.4185	951.6618	991.4892	1067.8828	1112.9109	1114.2187	1150.642	1178.5701	1182.7956	1243.3832	1287.7233	1298.0068	1319.7796	1320.6052	1349.3143	1351.1057	1364.4718	1385.4373	1439.7283	1505.1923	1523.5784	1647.6042	1834.3397	3005.7524	3011.5118	3028.8915	3044.0289	3049.5679	3053.3422	3083.025	3298.2359	3485.345	3566.27
[NH3+]C1CN(CC([O-])=O)C1	NC1CN(CC(=O)O)C1	
InChI=1S/C5H10N2O2/c6-4-1-7(2-4)3-5(8)9/h4H,1-3,6H2,(H,8,9)	InChI=1S/C5H10N2O2/c6-4-1-7(2-4)3-5(8)9/h4H,1-3,6H2,(H,8,9)
