19
gdb 58436	2.94057	1.30458	1.24534	1.4014	70.71	-0.2525	0.0685	0.321	1102.7979	0.157872	-460.088662	-460.080181	-460.079237	-460.121474	33.591	
C	 0.1359707335	 1.5295811354	 0.0265963458	-0.404095
C	 0.1194266144	 0.0070745403	 0.196429946	 0.06131
O	 0.6534632299	-0.3911047526	 1.4519437889	-0.441348
C	-1.2914851935	-0.5631733178	 0.0615717091	 0.480554
O	-2.0185581141	-0.0893635079	 1.1603763262	-0.511874
C	-2.0861840886	-0.6308021729	-1.2865142018	-0.032576
C	-1.187059807	-1.7803676192	-1.7831914811	-0.23913
C	-1.5572461616	-2.0601515182	-0.3133178948	-0.029979
O	-2.9601617033	-1.6541350117	-0.6375125392	-0.344818
H	 1.1443431828	 1.9068021987	 0.214280733	 0.122716
H	-0.1597162092	 1.818633414	-0.9881714789	 0.108175
H	-0.5540559751	 2.0010256936	 0.7314670621	 0.131506
H	 0.7774603337	-0.4430642493	-0.5513666436	 0.085137
H	-0.0323076444	-0.1969047767	 2.1033257326	 0.289774
H	-2.8900986994	-0.5049311866	 1.0768326187	 0.290787
H	-2.5858764834	 0.1609317356	-1.8453326549	 0.09977
H	-1.6766801439	-2.4447397607	-2.4943180096	 0.118764
H	-0.1487048	-1.5747018509	-2.0440297581	 0.111239
H	-1.426961321	-2.9620481131	 0.2841065095	 0.104088
76.5554	156.2154	220.1074	247.9361	299.7122	326.551	380.2561	435.4982	470.8415	495.921	527.3118	611.3541	653.7153	738.7245	749.6479	821.159	871.3245	896.0153	906.3107	934.2565	1004.3919	1018.1967	1030.216	1051.5654	1109.0373	1119.3066	1133.2536	1133.2606	1164.459	1200.8634	1208.1609	1268.1112	1273.8744	1308.6624	1349.6551	1400.1157	1413.8535	1448.9681	1486.9212	1493.1896	1501.0988	3038.1525	3071.1277	3092.1971	3110.3533	3119.1541	3130.7456	3131.847	3165.2304	3720.6479	3781.9582
CC(O)C1(O)C2CC1O2	C[C@@H](O)[C@@]1(O)[C@H]2C[C@@H]1O2	
InChI=1S/C6H10O3/c1-3(7)6(8)4-2-5(6)9-4/h3-5,7-8H,2H2,1H3	InChI=1S/C6H10O3/c1-3(7)6(8)4-2-5(6)9-4/h3-5,7-8H,2H2,1H3/t3-,4-,5+,6-/m1/s1
