15
gdb 49143	4.77855	0.94041	0.83616	2.282	75.46	-0.2422	-0.0748	0.1674	1318.126	0.112308	-416.788111	-416.779841	-416.778897	-416.821414	30.108	
O	-0.9348461753	 1.3117577815	-0.2198184216	-0.25989
C	 0.1959645763	 0.8906897856	-0.2570598752	 0.115538
C	 1.3825867217	 1.7773375342	-0.1236912155	 0.273397
N	 2.5764864553	 1.3074532288	-0.0757672894	-0.285365
C	 3.4568390568	 2.4989034596	 0.0695083805	-0.14571
C	 2.4946393869	 3.6811779535	 0.4301287294	-0.195806
N	 1.2200924119	 3.1418132221	-0.0505893447	-0.343371
C	 4.5286179479	 2.3037712581	 1.0350742208	 0.329303
C	 5.4094072485	 2.1780455656	 1.8419836051	-0.443615
H	 0.4450630446	-0.1805959264	-0.3709210572	 0.115844
H	 3.9024684867	 2.6828353192	-0.9192233696	 0.126951
H	 2.4838277499	 3.8600523971	 1.5128100859	 0.122523
H	 2.7657134756	 4.6083035425	-0.0788484085	 0.127387
H	 0.3397751447	 3.4914760578	 0.2993037925	 0.260536
H	 6.1907419586	 2.0521748507	 2.5501884275	 0.202276
65.0466	135.1478	147.1235	211.6272	230.3134	304.3652	433.2613	498.4105	538.767	566.4868	627.1096	635.1092	660.4752	710.0648	748.4664	863.8912	957.5771	1015.3555	1030.2492	1048.3807	1059.4672	1071.7358	1198.1665	1267.5262	1278.3477	1310.0138	1354.8647	1383.837	1480.1439	1526.0419	1674.0079	1805.088	2244.9382	2974.5001	2994.365	3025.155	3104.4113	3504.2267	3613.36
O=CC1=NC(CN1)C#C	O=C[C]1[N][C@@H](CN1)C#C	
InChI=1S/C6H6N2O/c1-2-5-3-7-6(4-9)8-5/h1,4-5H,3H2,(H,7,8)	InChI=1S/C6H6N2O/c1-2-5-3-7-6(4-9)8-5/h1,4-5H,3H2,(H,7,8)/t5-/m1/s1
