17
gdb 82259	3.16414	1.38514	1.06512	1.6511	82.84	-0.2326	-0.0358	0.1969	1120.8415	0.135043	-384.65167	-384.643555	-384.642611	-384.68411	31.464	
C	-0.0893385143	 1.5434608568	 0.016857972	-0.397697
C	 0.0195412642	 0.0133429311	-0.0005829064	-0.136746
C	 0.8064228272	-0.5316752626	-1.191033438	 0.026611
O	 2.1591205822	-0.0781623731	-1.2569663217	-0.255548
C	 1.8939352808	-1.3861284673	-0.6872396815	 0.002653
C	 1.80085195	-1.3667725789	 0.797432561	-0.210716
C	 0.7916457633	-0.5685921459	 1.1931486234	 0.171483
C	 0.4457424089	-0.245287323	 2.5251103273	 0.243705
C	 0.1043355237	 0.0504134328	 3.6430160068	-0.422323
H	 0.9051560511	 1.9892256498	-0.0660868772	 0.138885
H	-0.6987586153	 1.8974195851	-0.8203090098	 0.115223
H	-0.5506477902	 1.8881728294	 0.9461189042	 0.128398
H	-0.9910993784	-0.417092251	-0.0105282907	 0.093222
H	 0.3174651979	-0.687395297	-2.1493385422	 0.096416
H	 2.321592261	-2.2203599155	-1.2337652008	 0.100267
H	 2.4756888656	-1.8957460304	 1.4575403801	 0.110692
H	-0.1799096276	 0.3029319297	 4.6344721237	 0.195474
107.7329	141.4919	193.6855	233.9375	264.6419	358.5587	467.3883	476.7351	525.1415	592.4715	611.4374	640.7392	652.4222	704.8168	799.1511	822.1141	857.3228	872.4367	907.1995	987.5742	1009.0463	1034.1873	1098.6455	1108.4271	1121.2974	1178.2123	1246.8977	1278.2029	1298.6189	1326.7706	1338.3399	1397.5792	1414.0782	1494.3336	1505.0283	1645.7614	2217.1165	3017.8071	3044.2824	3114.6815	3130.0049	3144.5381	3171.9786	3221.915	3502.3863
CC1C2OC2C=C1C#C	C[C@H]1[C@H]2O[C@H]2C=C1C#C	
InChI=1S/C8H8O/c1-3-6-4-7-8(9-7)5(6)2/h1,4-5,7-8H,2H3	InChI=1S/C8H8O/c1-3-6-4-7-8(9-7)5(6)2/h1,4-5,7-8H,2H3/t5-,7+,8-/m1/s1
