19
gdb 37241	3.42129	1.51723	1.35934	1.7642	78.14	-0.2369	0.0665	0.3035	1005.6522	0.160142	-385.810004	-385.802919	-385.801975	-385.841282	29.354	
C	-0.0422489166	 1.4495216473	-0.1330622363	-0.296261
C	 1.2955288041	 0.7782629226	 0.0169514337	-0.059474
C	-0.0036980765	-0.0422831487	 0.027152547	-0.043813
C	 0.4330352433	-0.7667855329	-1.2670253588	-0.13222
C	 1.755010643	 0.0646500382	-1.2766581381	-0.019173
C	 1.3804251683	 0.6849454614	-2.6577676842	-0.349946
C	 0.0752172688	-0.1387264073	-2.6249101478	 0.447381
C	-0.6806938104	-0.7062658632	-3.7432487037	-0.273017
O	-1.2023091439	 0.376168585	-2.9619252339	-0.265856
H	-0.370604323	 1.9840848193	 0.7532324143	 0.109272
H	-0.3644643522	 1.912347041	-1.0597508771	 0.132659
H	 1.9548341823	 1.0218919485	 0.8416609635	 0.083014
H	-0.4969602507	-0.5354258394	 0.8558406497	 0.085207
H	 0.4439904342	-1.8553777613	-1.2054829033	 0.067626
H	 2.7200336765	-0.4345499368	-1.2041481524	 0.070181
H	 1.245931235	 1.7691524739	-2.6836362731	 0.11477
H	 2.056074967	 0.3961436076	-3.4677646855	 0.104625
H	-0.4047446664	-0.4532517957	-4.7668673934	 0.112291
H	-1.1964996527	-1.6588794494	-3.6233733303	 0.112736
105.6837	212.6324	269.9592	321.3659	371.0795	453.2989	512.4976	595.4387	704.5438	738.6336	746.8277	820.628	850.8789	865.6764	874.0426	895.1084	928.8218	942.2329	975.7467	987.0355	1012.3411	1044.2966	1060.6344	1088.8794	1093.72	1107.6476	1121.5193	1134.5736	1166.4451	1181.3568	1186.0197	1217.254	1239.2652	1269.8007	1291.591	1302.4509	1358.7445	1423.9211	1470.2717	1505.7283	1531.0289	3057.0691	3072.8095	3102.7574	3109.4234	3122.8348	3128.5361	3158.5344	3172.1668	3182.742	3207.633
C1C2C1C1C2CC11CO1	C1[C@H]2[C@@H]1[C@@H]1[C@H]2C[C@]21CO2	
InChI=1S/C8H10O/c1-4-5(1)7-6(4)2-8(7)3-9-8/h4-7H,1-3H2	InChI=1S/C8H10O/c1-4-5(1)7-6(4)2-8(7)3-9-8/h4-7H,1-3H2/t4-,5+,6-,7+,8+/m0/s1
