23
gdb 104091	2.35958	1.37278	1.14075	1.3334	86.06	-0.2374	0.0291	0.2665	1230.9722	0.204843	-388.308861	-388.299101	-388.298157	-388.342803	37.979	
C	 0.0072511949	 1.6398611078	-0.0159364801	-0.412442
C	-0.0008386603	 0.1067590353	 0.0085364167	-0.217564
C	 0.6775522418	-0.5040646701	 1.2439787371	 0.38293
O	 2.0527838249	-0.0982500735	 1.2950422933	-0.484397
C	-0.0200400515	-0.1480870893	 2.5907373005	-0.29899
C	 0.2020188507	-1.3739172867	 3.4394501917	-0.073805
C	 0.6406519926	-2.4007659024	 2.7165770544	-0.060048
C	 0.7598391802	-2.0675513039	 1.2468458814	-0.043481
C	-0.3017533208	-2.8142932491	 0.4210921668	-0.40778
H	 1.0290944664	 2.0342020289	-0.0200874025	 0.112172
H	-0.4841614418	 2.0152360076	-0.9183178168	 0.117223
H	-0.5188322508	 2.0651593957	 0.8455587794	 0.117855
H	-1.0354487791	-0.2493957732	-0.0486805063	 0.095221
H	 0.5144032024	-0.2669527482	-0.8840926636	 0.100658
H	 2.0783786128	 0.8396117929	 1.5093701714	 0.273639
H	 0.410891967	 0.7610954346	 3.0295070021	 0.090633
H	-1.091912612	 0.0553915209	 2.4566447241	 0.101477
H	 0.0065078305	-1.3911158042	 4.5060392789	 0.088164
H	 0.8509556763	-3.3941418613	 3.0992995219	 0.086463
H	 1.7485712647	-2.3327461559	 0.8541980487	 0.090382
H	-1.3167224675	-2.5668589363	 0.7494409527	 0.115078
H	-0.2208983824	-2.5912938471	-0.646781709	 0.11546
H	-0.174976689	-3.8949795824	 0.5435914471	 0.111153
87.1438	114.6544	185.6009	215.7038	253.8882	264.6038	283.9084	307.6723	350.9105	384.5813	415.9387	480.9433	523.73	630.3505	727.118	741.3352	775.2178	792.9628	887.7726	916.97	963.9604	968.0318	972.9274	978.1528	1001.3419	1049.3752	1073.8329	1091.143	1121.385	1131.9817	1134.7582	1181.9211	1219.2978	1289.1984	1306.557	1316.7223	1329.9301	1352.6198	1364.2856	1391.3763	1408.4374	1410.7235	1472.1208	1478.6155	1499.4656	1500.2547	1503.8968	1513.014	1692.5443	3005.1278	3030.3046	3032.8777	3034.9435	3036.9939	3038.3719	3071.1715	3098.2261	3102.1918	3104.8404	3108.6506	3175.6312	3202.0651	3815.3818
CCC1(O)CC=CC1C	CC[C@@]1(O)CC=C[C@H]1C	
InChI=1S/C8H14O/c1-3-8(9)6-4-5-7(8)2/h4-5,7,9H,3,6H2,1-2H3	InChI=1S/C8H14O/c1-3-8(9)6-4-5-7(8)2/h4-5,7,9H,3,6H2,1-2H3/t7-,8-/m1/s1
