18
gdb 14194	3.71599	2.21986	2.09122	1.5093	70.42	-0.2362	0.0952	0.3313	763.1399	0.155573	-347.772533	-347.76626	-347.765316	-347.802419	26.314	
C	 0.061851149	 1.4836884762	-0.0721466909	-0.5041
C	 0.0092213963	-0.0109438636	 0.0486730484	 0.421966
C	-1.3113545569	-0.7891339627	-0.1522935879	-0.236535
C	-0.7337999644	-2.1180962981	 0.3729521155	-0.088155
C	-0.4334132258	-1.7611606016	 1.8534911394	-0.252934
C	 0.6385722229	-0.8382625022	 1.2524886157	-0.112093
C	 0.8066512353	-1.7896682468	 0.0536482327	 0.11871
O	 0.875372247	-0.7292118706	-0.898293459	-0.327836
H	 1.0837972302	 1.8509627421	 0.0572096591	 0.127099
H	-0.2945587974	 1.8013166624	-1.0578866464	 0.129381
H	-0.5742973664	 1.9488469783	 0.6877262141	 0.120943
H	-2.1510768627	-0.4277365651	 0.4485253196	 0.091382
H	-1.5877047378	-0.7962627337	-1.2089040645	 0.102683
H	-1.21391176	-3.0524083428	 0.0878399778	 0.066012
H	-1.2465078888	-1.3330258758	 2.4475964194	 0.092923
H	 0.0289931371	-2.5850685763	 2.4052176259	 0.099726
H	 1.4669618423	-0.3897766471	 1.799277587	 0.070063
H	 1.5379537702	-2.5878484028	-0.0635290061	 0.080767
197.2911	250.1763	287.2497	432.0748	455.7644	539.8375	601.1437	684.7176	719.3574	782.9158	826.3324	833.658	859.5988	888.0478	934.3422	952.1533	966.9048	999.475	1013.13	1028.65	1056.0401	1064.6334	1138.0021	1159.4676	1169.7843	1179.3007	1204.5711	1229.2713	1258.0954	1269.4841	1291.5486	1309.2923	1359.7181	1415.2023	1478.9079	1481.0037	1492.7064	1505.7046	3036.1904	3046.7714	3059.13	3099.9741	3105.3077	3114.7924	3117.0888	3123.6827	3130.1719	3139.9427
CC12CC3CC1C3O2	C[C@]12C[C@@H]3C[C@H]1[C@@H]3O2	
InChI=1S/C7H10O/c1-7-3-4-2-5(7)6(4)8-7/h4-6H,2-3H2,1H3	InChI=1S/C7H10O/c1-7-3-4-2-5(7)6(4)8-7/h4-6H,2-3H2,1H3/t4-,5-,6+,7-/m0/s1
