23
gdb 119163	2.10565	1.29663	0.93647	1.0164	86.66	-0.224	0.0867	0.3107	1383.9532	0.204114	-388.253417	-388.243492	-388.242548	-388.288849	37.268	
C	-0.2334528222	 1.5416225074	 0.09080974	-0.386045
C	-0.06832126	 0.0579956421	-0.1984510064	-0.051567
O	-1.266047359	-0.5881467903	 0.1831603374	-0.302501
C	-1.3511304559	-1.9880190662	 0.0973562097	 0.438696
C	-0.3339752782	-2.8233518942	-0.6401916359	-0.335754
C	-0.4076834025	-2.8678213796	 0.8781339473	-0.322061
C	-2.7931263569	-2.3995777945	 0.0126977363	-0.02654
C	-3.8703082846	-1.6077818992	 0.7090856451	-0.270974
C	-3.7820526436	-1.602099341	-0.7984422413	-0.271349
H	 0.6673820602	 2.0885172672	-0.203407516	 0.11396
H	-1.0836639386	 1.9472256876	-0.4648911719	 0.127114
H	-0.4106072647	 1.7081559025	 1.1569746775	 0.126918
H	 0.1324340919	-0.1022992218	-1.2681231034	 0.095104
H	 0.7926085703	-0.3395110962	 0.3616356058	 0.090787
H	-0.6984920985	-3.672488848	-1.2087913054	 0.112601
H	 0.5337585836	-2.3444185	-1.0774546549	 0.114067
H	 0.4006540003	-2.3917160762	 1.4229211195	 0.112846
H	-0.8103656024	-3.7504254645	 1.3634022065	 0.112298
H	-2.9204179169	-3.4782577294	 0.0030702028	 0.076301
H	-4.6807882142	-2.1526188702	 1.1807464546	 0.102448
H	-3.5656425108	-0.7051243312	 1.2242394996	 0.124682
H	-3.4180436814	-0.6945748716	-1.2649282764	 0.116569
H	-4.5323502559	-2.1401532728	-1.3673504103	 0.102399
54.273	73.4956	93.0824	147.9345	225.0638	247.4986	263.0714	321.7195	369.0469	410.3822	494.2893	541.9919	686.7089	761.369	786.7858	813.839	831.5112	837.2334	880.0769	911.6057	933.0104	963.7515	971.0792	993.6632	1045.9695	1063.2396	1069.8462	1082.0934	1082.2303	1110.4386	1134.2179	1158.6679	1185.3063	1187.1605	1201.2321	1224.2381	1271.7501	1302.0351	1312.4393	1400.741	1423.6289	1434.1827	1455.6239	1459.5932	1483.2393	1493.2778	1500.9688	1507.2168	1531.3688	2975.3906	3009.143	3044.9189	3119.3981	3122.8302	3129.9925	3137.0844	3137.3661	3139.955	3148.9535	3210.7895	3223.0206	3226.508	3236.9572
CCOC1(CC1)C1CC1	CCOC1(CC1)C1CC1	
InChI=1S/C8H14O/c1-2-9-8(5-6-8)7-3-4-7/h7H,2-6H2,1H3	InChI=1S/C8H14O/c1-2-9-8(5-6-8)7-3-4-7/h7H,2-6H2,1H3
