17
gdb 85084	2.37825	1.32612	0.89521	4.1698	77.79	-0.2428	-0.0809	0.1618	1275.7014	0.134956	-421.880134	-421.871468	-421.870523	-421.91416	31.208	
C	 0.1131931782	 1.6238384834	 0.0136467178	-0.400139
C	 0.1226612248	 0.0867541606	 0.0723962534	-0.037612
C	 0.5849616353	-0.6040355425	-1.2321233163	-0.35479
C	 1.7440476607	-1.5277074168	-0.8275706113	 0.320287
O	 2.3569590351	-2.2749764101	-1.552910426	-0.321811
C	 1.9695378379	-1.3247940806	 0.6298427829	 0.09443
C	 3.0261058558	-2.0156876148	 1.3992357638	 0.074548
O	 3.2137270785	-1.8512163722	 2.5837222729	-0.265311
C	 1.0769744638	-0.4430847045	 1.1114544661	-0.124108
H	 1.103330602	 2.0102121732	-0.2492097049	 0.128954
H	-0.5993997779	 1.9737525072	-0.738892222	 0.12963
H	-0.1734589642	 2.0549715343	 0.9779736153	 0.125945
H	-0.8911387844	-0.2416716388	 0.3415188077	 0.106347
H	-0.2004199179	-1.1884746086	-1.7191260173	 0.139041
H	 0.9480324063	 0.1159668745	-1.9730686976	 0.138477
H	 3.6475367312	-2.7103178318	 0.8005554422	 0.104298
H	 1.0385299049	-0.1298285125	 2.1504329935	 0.141816
55.7223	106.9853	151.6317	173.1389	252.083	299.0073	321.7401	381.0123	428.1705	561.7683	592.0215	633.3315	694.8916	831.9432	868.8949	905.0092	926.8935	958.8469	1017.7945	1040.4331	1056.9333	1079.7157	1131.0506	1206.7975	1210.653	1267.4208	1309.1875	1314.7774	1334.7698	1408.7975	1429.2637	1451.3992	1497.3366	1499.4385	1659.1821	1793.1482	1816.167	2947.0302	3007.1705	3036.2232	3060.6877	3104.484	3109.3675	3113.8137	3192.5869
CC1CC(=O)C(C=O)=C1	C[C@H]1CC(=O)C(=C1)C=O	
InChI=1S/C7H8O2/c1-5-2-6(4-8)7(9)3-5/h2,4-5H,3H2,1H3	InChI=1S/C7H8O2/c1-5-2-6(4-8)7(9)3-5/h2,4-5H,3H2,1H3/t5-/m1/s1
