18
gdb 62125	3.22547	0.80983	0.68066	4.8194	70.42	-0.25	0.0306	0.2806	1600.9063	0.146075	-476.213685	-476.204017	-476.203072	-476.249915	33.689	
O	-0.0386411384	 1.6487313028	-0.0552977634	-0.435023
C	 0.1615420272	 0.2347105042	-0.0077586697	 0.072724
C	 0.9858264038	-0.2394347277	-1.207238322	-0.165831
N	 0.3781390711	 0.2159747067	-2.4408298599	-0.28057
C	 0.2796571627	-0.5559933086	-3.5541966271	 0.154497
O	 0.716591711	-1.6817727273	-3.6657148757	-0.322474
C	 0.7892762997	-0.1845880377	 1.3040377009	 0.062212
C	-0.0239672129	-0.5750018951	 2.4588613115	-0.176373
O	 0.6429058638	-1.5573779742	 1.6603323703	-0.227881
H	 0.8153175504	 2.0766847071	 0.0802161902	 0.285298
H	-0.8415888012	-0.1989022734	-0.0734309332	 0.10886
H	 2.016906749	 0.1384730304	-1.1137534735	 0.097412
H	 1.0399662424	-1.3301071411	-1.235309418	 0.164691
H	-0.0361166729	 1.135456401	-2.4312191738	 0.252724
H	-0.2565679806	-0.0303845685	-4.3694190359	 0.073844
H	 1.7876600958	 0.2229712986	 1.4891545732	 0.089825
H	 0.3700568196	-0.4472643241	 3.4654937791	 0.121987
H	-1.1094781704	-0.5630907231	 2.375590387	 0.124079
32.1899	67.4766	83.3823	141.1363	213.2032	241.3473	292.7273	321.6082	338.0664	421.7843	490.9657	539.393	592.6916	767.2377	855.4839	880.7293	909.8505	948.6234	1011.0661	1033.5677	1064.5989	1081.6557	1118.1443	1137.8843	1160.0313	1173.4672	1212.2225	1224.4965	1269.5338	1287.4015	1313.7171	1395.9963	1406.7859	1428.5667	1456.792	1499.9105	1520.4307	1530.3116	1806.3426	2934.8744	2974.5001	3061.8736	3076.4694	3090.226	3117.5218	3179.1158	3627.0761	3787.1674
OC(CNC=O)C1CO1	O[C@@H](CNC=O)[C@H]1CO1	
InChI=1S/C5H9NO3/c7-3-6-1-4(8)5-2-9-5/h3-5,8H,1-2H2,(H,6,7)	InChI=1S/C5H9NO3/c7-3-6-1-4(8)5-2-9-5/h3-5,8H,1-2H2,(H,6,7)/t4-,5+/m0/s1
