16
gdb 13342	5.69561	1.14551	1.05135	4.3064	68.59	-0.2608	-0.0023	0.2585	1111.4411	0.13074	-383.775062	-383.767503	-383.766559	-383.808283	26.757	
O	 0.3931362753	-0.0894516572	-0.1035658018	-0.280349
C	 0.2295853606	 1.0836626601	 0.0560754173	 0.166401
O	 1.1172868519	 2.007245529	-0.3451509072	-0.193044
C	 0.8209391722	 3.4073808396	-0.0992037275	 0.080245
C	 1.9699520987	 4.0703615917	 0.6936721939	-0.234505
C	 2.7772293037	 4.9007433884	-0.3359629676	-0.253369
C	 1.867984854	 4.9429782547	-1.5377381638	-0.04957
C	 0.8058660603	 4.1506108889	-1.4087507114	-0.076274
H	-0.6611202702	 1.5258586072	 0.546506556	 0.072148
H	-0.1351326673	 3.4523793698	 0.4369317218	 0.085572
H	 1.5471239933	 4.7278532504	 1.4583123896	 0.112858
H	 2.5685184888	 3.313040166	 1.2033453597	 0.12382
H	 3.0157418437	 5.90155648	 0.0405889787	 0.11229
H	 3.7363938133	 4.4335657383	-0.59332344	 0.123761
H	 2.0889674836	 5.5470112325	-2.4111326066	 0.105652
H	 0.0320219683	 3.9914194507	-2.150245561	 0.104365
43.1252	63.2995	154.9421	230.639	325.6908	376.5813	454.6173	610.4696	735.4362	757.8414	803.8983	819.0581	914.4955	933.4709	970.0761	984.4399	1004.8585	1045.392	1057.7915	1072.0209	1135.1026	1173.5181	1205.4548	1231.7878	1283.79	1314.5905	1331.0813	1365.5333	1389.1552	1440.4546	1471.431	1493.1692	1688.1051	1861.2998	2931.9967	3024.0945	3030.3106	3059.5885	3072.8741	3122.4085	3188.5708	3215.6388
O=COC1CCC=C1	O=CO[C@H]1CCC=C1	
InChI=1S/C6H8O2/c7-5-8-6-3-1-2-4-6/h1,3,5-6H,2,4H2	InChI=1S/C6H8O2/c7-5-8-6-3-1-2-4-6/h1,3,5-6H,2,4H2/t6-/m1/s1
