19
gdb 66174	3.51037	0.78513	0.73049	3.1833	72.7	-0.2503	-0.0208	0.2296	1559.8697	0.156415	-460.144757	-460.135125	-460.134181	-460.180519	34.076	
O	-0.1391585886	 1.4397139335	 0.2489891561	-0.47244
C	 0.0337858963	 0.0587125122	 0.0499607182	 0.335139
C	-1.355750898	-0.5678067736	-0.003517518	-0.229223
C	-2.2332325296	 0.0078645957	-1.1279722558	-0.28253
C	-3.6549901879	-0.4939318458	-1.0436905193	 0.157691
O	-4.2529665552	-1.0376178936	-1.935801119	-0.237676
C	 1.0044658379	-0.4053391068	-1.0706979071	-0.128228
O	 1.6862044183	-1.2830474685	-0.1552277813	-0.26756
C	 1.0239367333	-0.6921976188	 0.9793748209	-0.131474
H	 0.7250258953	 1.8645580565	 0.2447504114	 0.284657
H	-1.2449782353	-1.6509458819	-0.1241108832	 0.123893
H	-1.8408851956	-0.3978809225	 0.9661311714	 0.112135
H	-2.255188782	 1.0999264351	-1.0188780078	 0.14228
H	-1.8386683364	-0.2312492478	-2.1197618716	 0.119087
H	-4.1402908554	-0.3200192085	-0.0534131511	 0.070513
H	 0.5853104242	-0.94274079	-1.9282815439	 0.113443
H	 1.6568890277	 0.4020072879	-1.4376784589	 0.090052
H	 1.6838604092	-0.0142145106	 1.5413567237	 0.090487
H	 0.6135547815	-1.4441645424	 1.6627715952	 0.109754
50.6768	67.782	98.3505	117.5728	176.2437	281.9683	295.3133	331.4995	365.8397	429.6322	465.6156	533.0044	695.9802	770.2003	828.5277	857.4178	921.5365	944.7119	997.7553	1013.6447	1018.9321	1030.5537	1064.421	1122.9218	1139.677	1146.2456	1162.5438	1180.1468	1251.504	1268.1515	1295.1402	1329.4016	1359.1756	1378.736	1415.0416	1429.5079	1464.0596	1483.4747	1502.3342	1528.2882	1836.7108	2846.4754	2980.2439	2992.7717	3028.359	3037.44	3062.2978	3065.3749	3077.8042	3105.0011	3812.4085
OC1(CCC=O)COC1	OC1(CCC=O)COC1	
InChI=1S/C6H10O3/c7-3-1-2-6(8)4-9-5-6/h3,8H,1-2,4-5H2	InChI=1S/C6H10O3/c7-3-1-2-6(8)4-9-5-6/h3,8H,1-2,4-5H2
