21
gdb 57971	3.70646	0.91413	0.77677	3.5356	81.8	-0.2263	0.0634	0.2898	1530.8304	0.18166	-420.423165	-420.412733	-420.411789	-420.459567	36.741	
C	-0.4071590617	 1.3297710723	 0.0158229558	-0.34111
N	-0.0405719147	-0.0737967729	 0.0021607002	-0.125371
C	 0.4851034657	-0.6378852843	 1.2276833127	-0.349385
C	-0.1333764785	-0.7701142698	-1.1870793889	 0.496171
O	-0.6646816602	-0.3148206519	-2.1867792691	-0.41588
N	 0.3981404995	-2.057113605	-1.1602719891	-0.390109
C	 0.4372684676	-2.7946568722	-2.3913510186	 0.078844
C	 0.5403051482	-4.2924078315	-2.2892198674	-0.302965
C	-0.7439419423	-3.6491026192	-2.7545740532	-0.236638
H	 0.4585087873	 1.9669945567	 0.2435353997	 0.112376
H	-0.7948603251	 1.5865728364	-0.9686541631	 0.170513
H	-1.1803244532	 1.5225055314	 0.770361321	 0.115652
H	 0.0210142648	-0.1345681306	 2.0816251798	 0.131544
H	 0.2392980328	-1.7001436434	 1.2998615678	 0.139094
H	 1.5757682919	-0.5180413263	 1.3285316567	 0.115337
H	 1.1816272821	-2.2134167435	-0.5448478188	 0.239584
H	 0.9551217909	-2.3072931292	-3.2139209294	 0.099822
H	 1.1602893744	-4.8102157955	-3.0120921896	 0.115286
H	 0.5497305915	-4.7261136705	-1.2950246631	 0.110166
H	-1.5801550094	-3.6453072348	-2.065992966	 0.119273
H	-1.0142721315	-3.7184262163	-3.8016303275	 0.117797
44.1078	72.5578	108.5784	129.1911	135.6497	173.179	195.3303	303.7784	343.48	401.07	417.6467	494.0688	533.1299	627.4351	763.7316	768.565	827.3008	847.1633	872.0135	969.5204	1015.063	1050.704	1064.4534	1075.4537	1089.0282	1122.464	1134.7978	1167.449	1184.5629	1193.1064	1216.8217	1266.9157	1299.8834	1380.2723	1408.9286	1432.913	1459.997	1467.3182	1489.8007	1498.665	1500.8435	1505.6374	1515.2836	1542.9474	1767.8191	2975.5373	3003.5149	3048.8932	3069.1412	3115.6486	3128.9665	3135.9767	3148.6233	3167.8787	3218.9145	3239.4625	3608.3198
CN(C)C(=O)NC1CC1	CN(C)C(=O)NC1CC1	
InChI=1S/C6H12N2O/c1-8(2)6(9)7-5-3-4-5/h5H,3-4H2,1-2H3,(H,7,9)	InChI=1S/C6H12N2O/c1-8(2)6(9)7-5-3-4-5/h5H,3-4H2,1-2H3,(H,7,9)
