19
gdb 126975	3.76602	0.88432	0.81623	3.3784	77.53	-0.2133	0.0068	0.2201	1472.5097	0.161771	-415.405156	-415.396214	-415.39527	-415.44059	31.852	
C	 0.1080183334	 0.7478734322	 1.0250478993	-0.383536
C	-0.477426953	-0.5338246477	 0.4388114305	-0.10367
N	-1.3232719342	-0.2261027825	-0.7150093854	-0.281644
C	-1.9233825756	-1.3849643652	-1.3785525221	-0.258428
C	-2.9439251938	-2.1406391942	-0.5717163217	 0.329719
N	-4.2433632385	-1.8851146867	-0.6647971019	-0.264991
N	-4.7726873142	-2.7341004433	 0.2482424292	-0.177654
C	-3.7980665073	-3.4530554309	 0.8379306089	 0.013673
N	-2.6252760801	-3.1067110445	 0.3473457176	-0.29112
H	 0.7779780971	 0.5217969042	 1.860114632	 0.112067
H	 0.667511038	 1.3013398639	 0.2653242918	 0.123184
H	-0.6833175432	 1.4050092938	 1.4051934047	 0.107762
H	 0.333131415	-1.1846533767	 0.0858552817	 0.100788
H	-1.0011669259	-1.0999654918	 1.2263306428	 0.095314
H	-2.0626163067	 0.4117465284	-0.4334966456	 0.213044
H	-2.4047452596	-1.0405822466	-2.2988977908	 0.118127
H	-1.1172687398	-2.072463712	-1.6554469285	 0.119653
H	-5.7694774187	-2.7686835094	 0.3850469386	 0.281718
H	-3.9871525528	-4.198894891	 1.5955927888	 0.145994
27.9347	63.0349	92.2969	175.0635	246.3312	256.5187	333.2795	360.0701	514.704	546.3845	672.315	683.9345	757.608	809.649	834.3832	856.3803	878.2881	968.8066	995.3585	1003.6257	1034.367	1101.6812	1122.0937	1134.7999	1162.202	1181.3433	1264.7535	1292.6948	1315.7687	1365.1246	1366.6486	1394.2214	1413.532	1462.3641	1469.9931	1470.8734	1484.1685	1497.5071	1505.0203	1523.9359	1550.2001	2970.6372	3029.2955	3036.0252	3048.7448	3096.1525	3098.6306	3117.0563	3256.8583	3501.9718	3664.5492
CCNCC1=NNC=N1	CCNCc1n[nH]cn1	
InChI=1S/C5H10N4/c1-2-6-3-5-7-4-8-9-5/h4,6H,2-3H2,1H3,(H,7,8,9)	InChI=1S/C5H10N4/c1-2-6-3-5-7-4-8-9-5/h4,6H,2-3H2,1H3,(H,7,8,9)
