21
gdb 92714	2.00289	1.64079	1.05213	0.5395	90.21	-0.2343	0.0229	0.2573	1231.8396	0.181186	-349.946697	-349.937107	-349.936163	-349.980766	36.48	
C	-0.9097542408	 1.0646208939	-0.0100724979	-0.412161
C	 0.1193174441	-0.0610636712	-0.0282373354	 0.026602
C	 1.2614054791	 0.1073418317	-1.0605000268	-0.259985
C	 2.4005030717	-0.6563951918	-0.4356016419	-0.166965
C	 2.2035529323	-0.9175239425	 0.8570453091	 0.33335
C	 3.1226455564	-1.6045562751	 1.8141200671	-0.496134
C	 0.8626919905	-0.3417795768	 1.3240956322	-0.278488
C	 1.0725949203	 0.8353217898	 2.1677326848	 0.366379
C	 1.2669012265	 1.7960609308	 2.8655899716	-0.509146
H	-0.4454248295	 2.0210394906	 0.2471998171	 0.128839
H	-1.3816999918	 1.1674937244	-0.9930205922	 0.108884
H	-1.7016183301	 0.8725975485	 0.721479243	 0.113399
H	-0.3924213876	-0.9998942422	-0.2718596058	 0.080076
H	 0.9758092426	-0.2689216785	-2.0496469088	 0.099494
H	 1.5262429735	 1.166530686	-1.196532296	 0.107854
H	 3.2971259625	-0.9294782268	-0.9829963365	 0.086077
H	 4.0525098973	-1.9111865932	 1.3276899675	 0.122188
H	 3.373474094	-0.9448114208	 2.6535884038	 0.137861
H	 2.6527907116	-2.4975886109	 2.246533459	 0.121785
H	 0.2997887665	-1.0771683192	 1.9153253411	 0.096198
H	 1.433348501	 2.6443199033	 3.4821454947	 0.193894
65.7392	132.3773	171.6066	187.1939	224.4201	248.9782	263.5205	350.2632	384.1302	415.899	483.4523	588.4145	610.4568	618.7978	634.1612	658.1557	818.6659	822.5546	890.7689	901.5315	938.5993	975.9752	987.9565	1035.4308	1057.7468	1079.4194	1122.5163	1144.5132	1171.0424	1209.4074	1251.8605	1296.0107	1301.8952	1322.7158	1358.5688	1367.3083	1412.1399	1413.6684	1477.5401	1488.3725	1490.642	1495.7222	1497.5674	1727.624	2223.6676	2998.158	3003.3183	3018.0175	3028.8998	3034.2949	3055.2306	3067.3912	3097.1614	3111.9606	3113.3579	3181.0774	3503.6395
CC1CC=C(C)C1C#C	C[C@H]1CC=C(C)[C@H]1C#C	
InChI=1S/C9H12/c1-4-9-7(2)5-6-8(9)3/h1,5,8-9H,6H2,2-3H3	InChI=1S/C9H12/c1-4-9-7(2)5-6-8(9)3/h1,5,8-9H,6H2,2-3H3/t8-,9+/m0/s1
