16
gdb 46866	2.4592	1.76714	1.22876	4.4975	69.57	-0.2248	-0.0764	0.1484	1005.8415	0.125511	-437.889822	-437.882323	-437.881379	-437.922102	28.935	
O	 0.0559939719	 0.0794349231	-0.4569107082	-0.272332
C	 0.0073957405	 1.1983974575	-0.0164239985	 0.272744
C	-1.3002329234	 1.7993562151	 0.5304665069	-0.300495
N	-1.306750468	 3.2382305007	 0.7698747829	-0.293215
C	-0.1181102949	 3.7613618311	 1.3807619285	 0.014723
C	 0.6408014316	 2.9749323438	 2.3805263848	-0.315922
C	 1.2762020328	 3.2003302156	 1.0011827772	-0.165965
C	 1.2807413764	 2.0978580339	 0.0202985967	 0.327424
O	 2.1677019274	 1.9009849139	-0.7778031106	-0.304103
H	-2.1055860514	 1.5415059471	-0.1625401264	 0.147223
H	-1.5271527053	 1.262938293	 1.4620941633	 0.149592
H	-1.4798782708	 3.7313779066	-0.0990961964	 0.234493
H	-0.1613053667	 4.8358091152	 1.5250532771	 0.116971
H	 1.1034558202	 3.5066154252	 3.2034220954	 0.139134
H	 0.3226305427	 1.971340291	 2.6373953318	 0.136462
H	 2.1269935669	 3.8694890271	 0.9397594754	 0.113266
58.0621	152.7963	267.8137	320.7791	360.3041	409.4434	463.2359	486.6551	538.9596	601.0737	626.3252	741.3586	764.9762	803.1112	840.7831	910.1324	942.2902	954.0793	1041.1541	1066.2707	1073.2184	1102.2685	1121.3033	1167.5948	1228.1193	1246.442	1267.1714	1332.8251	1351.3184	1408.1349	1455.2819	1484.8358	1510.4202	1787.436	1824.4546	3021.2242	3100.7	3151.3453	3166.8973	3180.3093	3233.4227	3528.7016
O=C1CNC2CC2C1=O	O=C1CN[C@H]2C[C@H]2C1=O	
InChI=1S/C6H7NO2/c8-5-2-7-4-1-3(4)6(5)9/h3-4,7H,1-2H2	InChI=1S/C6H7NO2/c8-5-2-7-4-1-3(4)6(5)9/h3-4,7H,1-2H2/t3-,4+/m1/s1
