20
gdb 116221	2.33873	1.57111	1.09668	1.0638	75.14	-0.2459	0.0764	0.3223	1163.3065	0.171634	-440.256142	-440.247388	-440.246444	-440.290404	32.473	
C	 0.2599863466	 1.3705809309	 0.0189420615	-0.241882
O	 0.1915413219	-0.0447638679	-0.0126662888	-0.243073
C	 0.524232891	-0.5899287638	-1.2645421608	 0.140387
O	 1.8683194604	-0.3571585378	-1.6153424911	-0.256638
C	 2.6470590708	-1.4535533965	-1.1202430503	-0.098082
C	 1.7712402362	-2.6861839531	-1.3672378074	-0.29478
C	 0.3653320781	-2.1155608473	-1.2048946716	 0.297657
C	-0.7124067569	-2.7305109494	-0.3983581836	-0.276262
N	-0.7520675114	-2.7944461501	-1.8719508722	-0.367841
H	 1.2734922136	 1.7279700829	-0.1949155786	 0.128118
H	-0.4312373707	 1.8195875662	-0.7110145278	 0.104062
H	-0.0329780573	 1.6821725371	 1.0237458494	 0.12585
H	-0.086522868	-0.1127680124	-2.048060341	 0.067071
H	 3.5922394579	-1.4585411889	-1.6669449523	 0.111439
H	 2.8584455584	-1.318508206	-0.0507364655	 0.104756
H	 1.899862072	-3.057189516	-2.3883979939	 0.120612
H	 1.982383281	-3.5044431406	-0.6748981095	 0.108679
H	-0.5363607487	-3.683563662	 0.0937377728	 0.115336
H	-1.393390184	-2.0639547372	 0.1211278662	 0.125057
H	-1.4176295006	-2.1118786681	-2.2289570157	 0.229534
31.9769	116.4819	165.3155	197.2664	218.9304	303.844	312.5063	387.7711	478.8002	496.6596	595.3314	660.5309	803.0111	866.9347	883.4326	933.9589	945.6346	967.0628	977.7368	984.5987	1008.0885	1066.6863	1075.5434	1119.1631	1123.235	1141.9453	1180.4225	1201.1515	1213.9547	1241.4676	1267.1044	1299.6735	1309.2296	1337.3512	1376.9991	1389.8485	1418.6682	1474.1096	1482.7617	1487.1361	1513.5979	1514.9604	1518.7924	2972.7364	2988.8842	3013.5708	3060.474	3067.5757	3105.1996	3112.2794	3115.4778	3125.9768	3203.837	3482.9232
COC1OCCC11CN1	CO[C@H]1OCC[C@]21CN2	
InChI=1S/C6H11NO2/c1-8-5-6(4-7-6)2-3-9-5/h5,7H,2-4H2,1H3	InChI=1S/C6H11NO2/c1-8-5-6(4-7-6)2-3-9-5/h5,7H,2-4H2,1H3/t5-,6+/m0/s1
