18
gdb 28869	2.31673	1.7818	1.01998	2.8139	82.12	-0.2405	-0.0028	0.2377	1147.5913	0.148146	-402.025763	-402.017136	-402.016192	-402.058876	32.561	
C	-0.1136241695	 1.5042782263	 0.0646221226	-0.486573
C	-0.0389064416	-0.0039243055	 0.000645097	 0.267609
C	 0.0609434109	-0.6848050479	-1.2244010403	 0.103542
C	 0.1018805701	 0.0152080684	-2.5618530744	-0.550193
C	 0.1243317263	-2.0843101488	-1.1776559491	 0.346253
O	 0.222110935	-2.8474682376	-2.2957701838	-0.428993
C	 0.0874283407	-2.740847851	 0.0500387419	-0.216493
C	-0.0122962514	-1.9635715347	 1.1913330758	-0.004211
N	-0.0749073066	-0.6295753987	 1.1852514856	-0.341506
H	 0.7727437388	 1.9769984177	-0.3736293396	 0.126041
H	-0.9869730601	 1.8939129942	-0.4707567045	 0.126045
H	-0.1855325462	 1.8050380213	 1.1100878377	 0.141639
H	 1.0301336573	-0.2018190681	-3.1085921521	 0.132764
H	-0.7359922797	-0.2851792924	-3.2063581877	 0.132761
H	 0.0449039269	 1.0980351227	-2.4551851953	 0.141731
H	 0.2383619837	-2.2800832724	-3.0733948848	 0.300337
H	 0.1361530313	-3.8221509643	 0.0905427716	 0.104322
H	-0.044034366	-2.4383422891	 2.1694258295	 0.104924
82.2665	136.7907	170.6406	232.7303	280.4717	320.3863	326.3232	387.554	482.7601	514.6907	518.3657	552.8129	614.4128	683.8007	774.708	844.9916	856.9816	915.2012	979.3286	993.0459	1044.5953	1067.1524	1078.4893	1130.2755	1171.9448	1238.0819	1295.5881	1324.6131	1358.3373	1402.2832	1413.2247	1453.5912	1473.7957	1483.9593	1496.7554	1503.6816	1516.3482	1618.613	1644.9407	3003.1016	3031.0871	3044.9046	3082.772	3147.0218	3149.6522	3151.7868	3208.9542	3824.9095
CC1=C(C)C(O)=CC=N1	Cc1c(C)c(O)ccn1	
InChI=1S/C7H9NO/c1-5-6(2)8-4-3-7(5)9/h3-4H,1-2H3,(H,8,9)	InChI=1S/C7H9NO/c1-5-6(2)8-4-3-7(5)9/h3-4H,1-2H3,(H,8,9)
