19
gdb 73013	2.85542	1.4407	1.1923	2.22	75.55	-0.2321	0.0714	0.3035	1097.8331	0.158517	-422.956528	-422.948207	-422.947263	-422.98948	31.301	
C	-0.045724513	 1.5195041469	-0.0513925488	-0.496114
C	 0.001827923	 0.0346849725	 0.091480168	 0.389289
O	-0.6395332774	-0.7529560986	-0.9279697468	-0.320328
C	-1.1306193008	-1.6852915389	 0.0739902192	-0.094657
C	-0.3782217107	-0.961281139	 1.1813142567	-0.273842
C	 1.056571476	-0.7902797642	 0.7481563517	 0.241803
C	 2.0577034156	-1.7680740384	 0.1441385511	-0.1422
O	 3.1110676614	-1.2206432773	 0.9740940511	-0.27723
C	 2.2093299658	-0.2984154666	 1.6197848333	-0.15524
H	 0.4940706107	 1.8336767689	-0.9520463257	 0.136856
H	-1.0782096347	 1.8719526962	-0.1340509959	 0.131833
H	 0.4209550492	 2.006858135	 0.8093365215	 0.126967
H	-2.2204662163	-1.6143158477	 0.1609417025	 0.111136
H	-0.845309069	-2.7212539915	-0.1452519526	 0.106667
H	-0.7099561607	-0.812928711	 2.2015248379	 0.099559
H	 1.8825520511	-2.8309949609	 0.3570626315	 0.099691
H	 2.2624132157	-1.6414683213	-0.9253216976	 0.11329
H	 2.5186164265	 0.7461428987	 1.4804323874	 0.101968
H	 2.1144903378	-0.5013809327	 2.6954166055	 0.10055
88.7228	161.897	173.8111	191.9536	223.6038	271.2108	336.1903	449.466	486.2537	572.4584	666.2362	761.9707	847.0132	878.7369	920.3486	929.803	964.2837	977.7151	982.9415	994.0364	1029.3248	1061.5862	1113.3098	1124.3979	1136.8839	1148.8038	1151.7926	1160.7195	1199.7652	1215.4337	1282.5932	1306.4025	1334.5425	1369.3222	1408.7369	1473.3312	1481.5034	1507.687	1510.5116	1521.2307	1534.4437	2994.004	3009.4856	3023.4831	3033.3124	3035.6489	3058.2365	3071.3379	3099.1544	3117.5649	3187.8319
CC12OCC1C21COC1	C[C@]12OC[C@H]1C12COC1	
InChI=1S/C7H10O2/c1-6-5(2-9-6)7(6)3-8-4-7/h5H,2-4H2,1H3	InChI=1S/C7H10O2/c1-6-5(2-9-6)7(6)3-8-4-7/h5H,2-4H2,1H3/t5-,6+/m1/s1
