21
gdb 71957	2.78869	1.84085	1.61492	1.5408	80.61	-0.2365	0.0877	0.3241	952.7827	0.185636	-387.103878	-387.096924	-387.09598	-387.134597	30.041	
C	-0.0630899938	 1.5382816545	-0.0104986346	-0.493473
C	-0.0116044771	 0.0233041884	 0.0094708625	 0.335582
C	-1.2831297456	-0.7717894153	 0.4180433056	-0.275464
C	-0.3334741064	-1.844401952	 0.9875809567	 0.106084
O	 0.1761933046	-2.6848031947	-0.0594045482	-0.285207
C	 1.2179512946	-1.9186521239	-0.6851345276	 0.093191
C	 2.0106029296	-1.3762615523	 0.5167557897	-0.237105
C	 0.7740068603	-0.7525978002	 1.1523245395	-0.087966
C	 0.5911234577	-0.6358037558	-1.2658850443	-0.268022
H	 0.9343251257	 1.9712399742	-0.1504538534	 0.110901
H	-0.6963747554	 1.8993984168	-0.8297674757	 0.116113
H	-0.4743441058	 1.9340449612	 0.9247181816	 0.109706
H	-1.8349718944	-0.2639278389	 1.21670873	 0.088738
H	-1.9762203547	-1.0867469285	-0.3673616193	 0.094463
H	-0.6541458841	-2.4766830102	 1.8177697912	 0.069076
H	 1.7388662434	-2.564521131	-1.3926003688	 0.071222
H	 2.4573447487	-2.1742993371	 1.1157383435	 0.10225
H	 2.7791966988	-0.6494985324	 0.2388777875	 0.095904
H	 0.8508881422	-0.261225532	 2.1209310696	 0.064569
H	-0.1661300271	-0.843965981	-2.027100098	 0.099247
H	 1.3639838786	-0.00200827	-1.7163822577	 0.090191
211.8261	237.4009	269.747	371.1732	394.0114	442.9521	477.9555	557.6352	616.3505	670.2889	776.5876	818.1841	844.7316	863.9338	875.9661	895.2279	921.9744	934.9566	952.6678	965.8466	994.0979	996.3505	1011.2438	1028.968	1091.202	1117.8493	1129.7105	1163.5197	1198.4155	1211.9821	1226.1531	1250.4947	1253.9374	1272.0621	1294.9584	1301.6737	1318.549	1347.963	1371.6382	1410.6451	1469.9046	1480.0109	1491.2855	1493.175	1497.0457	3017.7485	3035.5249	3038.5888	3059.7133	3081.6628	3088.0291	3088.24	3092.2975	3098.8982	3113.2118	3117.0664	3131.6391
CC12CC3OC(CC13)C2	C[C@]12C[C@H]3O[C@H](C[C@@H]13)C2	
InChI=1S/C8H12O/c1-8-3-5-2-6(8)7(4-8)9-5/h5-7H,2-4H2,1H3	InChI=1S/C8H12O/c1-8-3-5-2-6(8)7(4-8)9-5/h5-7H,2-4H2,1H3/t5-,6-,7-,8+/m1/s1
