14
gdb 130362	5.76599	0.96989	0.83024	7.1525	80.35	-0.2229	-0.0624	0.1604	1290.2075	0.102976	-429.071566	-429.063738	-429.062793	-429.105158	27.648	
N	-0.0445919253	 1.3653589774	 0.009709416	-0.483133
C	-0.0457865547	 0.0233753113	 0.0026976177	 0.144805
N	-1.1490296331	-0.6472881038	 0.0071371694	-0.369321
C	-1.0582929665	-2.0269225407	-0.0004870634	 0.399444
C	-2.2543123319	-2.7773338638	 0.0032033866	-0.030991
N	-2.2643427187	-4.097458113	-0.0033182258	-0.175774
N	-1.0940448517	-4.7505506437	-0.013752547	-0.207694
C	 0.0119398834	-4.0120510076	-0.0166838598	 0.100819
N	 0.1056558655	-2.6809041598	-0.0107794196	-0.324886
H	 0.8121096676	 1.8882011848	 0.0060163245	 0.277696
H	-0.9219379227	 1.8610789039	 0.0186085302	 0.277049
H	 0.9402072557	-0.4475548899	-0.0068800804	 0.142623
H	-3.2150807571	-2.2726503917	 0.0116798783	 0.124479
H	 0.9449395595	-4.5708178434	-0.0255774067	 0.124883
28.5142	120.3032	169.4454	239.9932	262.7546	381.3493	406.0953	454.6055	581.9977	654.0411	657.0949	720.8025	827.2851	895.4587	953.214	999.6305	1020.9375	1058.3821	1060.3407	1095.4329	1184.6421	1284.3176	1306.9789	1324.3735	1347.5106	1415.4152	1486.3626	1529.8406	1592.864	1621.2332	1702.375	3111.146	3164.5707	3187.5865	3606.1809	3748.2792
NC=NC1=CN=NC=N1	NC=Nc1cnncn1	
InChI=1S/C4H5N5/c5-2-6-4-1-8-9-3-7-4/h1-3H,(H2,5,6,7,9)	InChI=1S/C4H5N5/c5-2-6-4-1-8-9-3-7-4/h1-3H,(H2,5,6,7,9)
