18
gdb 128087	3.78678	0.99062	0.95676	2.3408	73.71	-0.2339	-0.0211	0.2127	1314.6968	0.147896	-435.257772	-435.24878	-435.247835	-435.292585	31.772	
C	 0.0275860947	 1.4303630099	 0.1128538786	-0.318377
N	-0.1268672754	 0.0050466924	-0.1463231481	-0.291788
C	 0.6824128571	-0.5138585251	-1.2492088762	-0.076149
C	 2.2085436038	-0.533249821	-1.0136940664	-0.41141
C	 0.1910371578	-1.8912133349	-1.5843659789	 0.470989
N	-0.2362858054	-2.3525939559	-2.7221376877	-0.326125
C	-0.5230348214	-3.6583422017	-2.4048552808	 0.034346
N	-0.294651	-3.9986364269	-1.1675333681	-0.113587
O	 0.1940133956	-2.8086237911	-0.6072845045	-0.211756
H	 1.0473094676	 1.7534296806	 0.3804643428	 0.10162
H	-0.2783993751	 1.9938894299	-0.7756969474	 0.127698
H	-0.63985291	 1.7159276349	 0.9307424633	 0.127668
H	 0.0542390005	-0.5330142472	 0.6946353086	 0.22847
H	 0.4646584267	 0.0977321085	-2.130810152	 0.119769
H	 2.4584566414	-1.1748920676	-0.1629057896	 0.130772
H	 2.735806382	-0.912098689	-1.8946708604	 0.133394
H	 2.5755987525	 0.4755258497	-0.8087639745	 0.127239
H	-0.9138837925	-4.3710179856	-3.1165543386	 0.147225
37.7231	84.993	118.894	183.7828	218.7032	237.961	313.2087	356.2601	385.2336	499.7181	657.574	694.62	759.7111	787.8364	881.3612	911.6463	931.507	979.1976	996.0916	1017.7609	1061.1891	1072.6557	1133.066	1163.1096	1178.7126	1222.7278	1257.4949	1320.6764	1339.3203	1351.1507	1399.1603	1456.9688	1481.3039	1487.1478	1496.8627	1504.1826	1520.8482	1523.4688	1627.2564	2963.8486	3041.1887	3059.9323	3068.1381	3107.6696	3114.4998	3124.5043	3260.8934	3527.0523
CNC(C)C1=NC=NO1	CN[C@@H](C)c1ncno1	
InChI=1S/C5H9N3O/c1-4(6-2)5-7-3-8-9-5/h3-4,6H,1-2H3	InChI=1S/C5H9N3O/c1-4(6-2)5-7-3-8-9-5/h3-4,6H,1-2H3/t4-/m0/s1
