22
gdb 113888	2.70448	0.94355	0.82366	3.2715	83.76	-0.2377	0.0326	0.2704	1535.7739	0.192536	-404.377468	-404.366815	-404.365871	-404.41444	37.87	
C	-0.002588345	 1.3355062074	 0.2493563058	-0.378869
C	-0.1642703743	-0.1707649238	 0.4822999602	-0.191695
C	-1.5052149166	-0.6927352929	 0.0133644264	 0.037814
C	-1.717012846	-1.1135383134	-1.4231605931	-0.339748
C	-1.7245552065	-2.1471664466	-0.3261510665	 0.025707
N	-0.6359113953	-3.0780376149	-0.267776469	-0.316653
C	-0.2345158739	-3.6461896221	 0.9138236935	 0.404123
C	 0.7992123363	-4.7549617739	 0.7737587891	-0.487568
O	-0.6781322322	-3.2958601455	 1.9906737024	-0.368528
H	 0.9713478038	 1.6878986398	 0.6032667125	 0.110167
H	-0.0852851089	 1.5839888087	-0.8142531752	 0.112447
H	-0.7741050235	 1.9030903664	 0.7813067077	 0.113996
H	 0.6351738442	-0.713351336	-0.0344554622	 0.0887
H	-0.0501991497	-0.4007678306	 1.5478429961	 0.120749
H	-2.3584230021	-0.2208546277	 0.4947182602	 0.086636
H	-2.6518282663	-0.8856141586	-1.9226611612	 0.115107
H	-0.8463060907	-1.0933565004	-2.0724942126	 0.108679
H	-2.6860757199	-2.565504577	-0.0378461537	 0.101649
H	-0.3280996086	-3.4978886905	-1.1302845071	 0.242634
H	 1.3524402508	-4.7146040003	-0.1686667761	 0.114151
H	 1.4981004019	-4.6881139476	 1.6090300242	 0.152148
H	 0.2965143225	-5.7256226504	 0.8387324984	 0.148353
49.6551	58.0034	75.2409	90.0536	153.1163	191.6511	223.3047	287.7923	331.0687	413.0701	433.1378	453.6858	547.8263	632.4056	669.0108	767.37	797.7578	830.7167	847.9689	932.0868	957.9607	981.889	1006.1101	1049.5604	1055.9359	1058.1139	1080.9512	1114.9145	1142.3627	1185.5147	1198.4891	1247.2117	1281.4833	1290.8316	1340.6163	1390.7625	1400.0214	1409.6351	1424.9127	1467.853	1483.9307	1486.432	1493.6317	1497.9009	1509.2674	1512.4516	1786.5034	3029.5855	3039.1593	3045.9164	3069.7148	3099.1392	3102.4311	3113.189	3123.3112	3125.5727	3139.5782	3145.8155	3213.0935	3626.6434
CCC1CC1NC(C)=O	CC[C@H]1C[C@H]1NC(=O)C	
InChI=1S/C7H13NO/c1-3-6-4-7(6)8-5(2)9/h6-7H,3-4H2,1-2H3,(H,8,9)	InChI=1S/C7H13NO/c1-3-6-4-7(6)8-5(2)9/h6-7H,3-4H2,1-2H3,(H,8,9)/t6-,7+/m0/s1
