16
gdb 45488	2.82121	1.88122	1.68952	3.3327	66.83	-0.2482	-0.0137	0.2346	859.5781	0.126707	-437.891573	-437.885088	-437.884144	-437.92264	25.749	
O	-0.1001285826	-0.0067209188	 0.2117672384	-0.305608
C	-0.1093390049	 1.1807459029	 0.053093676	 0.371671
C	-1.3205969876	 2.1009004183	-0.1349125916	-0.320438
C	-0.8067249885	 3.412519979	 0.4771741491	 0.060397
O	-0.8346303295	 3.3294593153	 1.9031947294	-0.271838
C	 0.3838966324	 2.7565949709	 2.3880356131	-0.106682
C	 1.3729613568	 2.7969607702	 1.2351839714	-0.054622
C	 0.6792945289	 3.404309459	 0.0817640839	-0.072056
N	 1.0800910152	 1.9903901531	 0.0176243652	-0.140974
H	-1.5215057395	 2.2205976436	-1.2067751161	 0.131126
H	-2.2101890994	 1.7007393017	 0.3514159813	 0.140723
H	-1.3612898956	 4.3022339645	 0.1751334188	 0.095839
H	 0.749612982	 3.3638273408	 3.2241588063	 0.116646
H	 0.2105807072	 1.736228597	 2.755326799	 0.129104
H	 2.4290683988	 2.9305552581	 1.4438309099	 0.118165
H	 1.1131911762	 4.1008471343	-0.6258600641	 0.108548
99.3022	143.1576	365.7158	376.8296	482.4825	553.4277	618.4	671.6973	729.5488	758.9536	785.5307	843.9934	853.3692	892.4154	937.186	963.7713	975.3405	997.7268	1023.7355	1057.8884	1092.5118	1095.4845	1129.2563	1172.208	1222.3253	1237.894	1266.8117	1295.2761	1314.1916	1340.7592	1358.1795	1404.8062	1446.2951	1520.7946	1863.3761	3016.912	3045.6943	3059.5535	3105.6055	3142.316	3171.2339	3185.9415
O=C1CC2OCC3C2N13	O=C1C[C@H]2OC[C@@H]3[C@H]2N13	
InChI=1S/C6H7NO2/c8-5-1-4-6-3(2-9-4)7(5)6/h3-4,6H,1-2H2	InChI=1S/C6H7NO2/c8-5-1-4-6-3(2-9-4)7(5)6/h3-4,6H,1-2H2/t3-,4-,6-,7?/m1/s1
