13
gdb 42150	3.62241	0.74524	0.64648	4.3121	81.69	-0.277	-0.1105	0.1665	1627.5846	0.088419	-415.559337	-415.55069	-415.549746	-415.594531	29.132	
O	 0.0871967787	-0.0175861134	-0.4074631966	-0.252783
C	-0.0471856224	 1.1499456229	-0.1168535112	 0.194465
C	 1.1268597288	 1.9981054382	 0.172361185	 0.220804
N	 2.0472777598	 2.6603230118	 0.398887136	-0.317897
C	-1.2934830015	 1.8419701527	-0.0151483636	 0.072067
C	-2.3454598543	 2.4336762808	 0.0797916191	 0.078818
C	-3.5835380489	 3.1350849472	 0.1664502273	-0.17367
C	-3.7717383237	 4.1327844804	 1.2759007479	-0.218718
N	-3.6206656122	 4.5969312452	-0.0945679957	-0.289029
H	-4.455059413	 2.6024660636	-0.2024556266	 0.14207
H	-4.7682227455	 4.2379168256	 1.6941546618	 0.145822
H	-2.953580676	 4.2621195473	 1.9777140846	 0.142825
H	-2.6744891397	 4.9376535976	-0.2505876378	 0.255225
41.743	57.8093	101.4588	168.9985	235.363	246.9931	317.6055	443.1595	539.0439	554.9684	608.7693	686.734	767.4925	803.2069	839.8613	927.6745	969.9905	1011.2878	1112.3972	1123.7584	1162.9417	1242.2089	1263.6617	1297.0122	1389.6754	1503.6888	1740.3179	2312.9737	2339.9507	3121.9996	3156.761	3216.1611	3505.983
O=C(C#N)C#CC1CN1	O=C(C#N)C#C[C@H]1CN1	
InChI=1S/C6H4N2O/c7-3-6(9)2-1-5-4-8-5/h5,8H,4H2	InChI=1S/C6H4N2O/c7-3-6(9)2-1-5-4-8-5/h5,8H,4H2/t5-/m0/s1
