21
gdb 105180	2.38395	1.01126	0.81927	1.2018	90.14	-0.2258	0.0469	0.2727	1535.786	0.178864	-387.047497	-387.036473	-387.035529	-387.085037	38.52	
C	 0.1218043577	 1.2846882006	-0.2754772596	-0.249267
O	-0.0260043386	-0.0198810786	 0.255524061	-0.271675
C	-1.3125259899	-0.5518357125	 0.1013310264	 0.224762
C	-1.6457597006	-1.1707995614	-1.2517041543	-0.348787
C	-1.3620086983	-2.057889087	-0.0635563956	-0.056614
C	-0.0976578579	-2.8835289314	 0.0082666242	-0.403824
C	-2.3539052523	 0.1114977302	 0.8475857742	 0.079337
C	-3.2136092694	 0.677093892	 1.4755369803	 0.039353
C	-4.2528212413	 1.3508532411	 2.2403755046	-0.501413
H	 1.1592775015	 1.5789864902	-0.101725294	 0.123717
H	-0.0844427825	 1.3064556623	-1.355266156	 0.104913
H	-0.5460012268	 1.9992988773	 0.2229455511	 0.119077
H	-2.6596805423	-1.0858757468	-1.6247654666	 0.117235
H	-0.8669484163	-1.0917058768	-2.0036036823	 0.11698
H	-2.2347040895	-2.5182014334	 0.3902762047	 0.096069
H	 0.754315142	-2.3303399354	-0.3913273516	 0.130484
H	 0.136621362	-3.1547714315	 1.0429183763	 0.120945
H	-0.2116158436	-3.8097729797	-0.5654521968	 0.113049
H	-5.0146390285	 0.6410947648	 2.5818570229	 0.149099
H	-3.8356163978	 1.8367356424	 3.1293852561	 0.150583
H	-4.7588321276	 2.1208851635	 1.6471721049	 0.145977
18.194	81.1939	99.6294	121.2276	167.8842	188.0719	206.4087	239.8816	283.1588	335.8715	356.4464	398.1914	480.2169	553.4514	598.6434	604.5154	790.1582	888.0547	893.9645	925.347	992.0121	1005.6724	1051.3224	1052.6701	1056.41	1089.3774	1122.4463	1141.7324	1184.462	1192.0335	1221.1047	1270.2545	1285.3635	1398.6542	1414.2095	1419.6651	1470.0069	1476.313	1477.0516	1479.7402	1483.7539	1492.8479	1501.3133	1510.6681	2359.7301	2994.4695	3024.604	3035.9342	3053.3859	3083.478	3087.0134	3094.0408	3120.7728	3128.7982	3131.3645	3154.2917	3224.6339
COC1(CC1C)C#CC	CO[C@]1(C[C@H]1C)C#CC	
InChI=1S/C8H12O/c1-4-5-8(9-3)6-7(8)2/h7H,6H2,1-3H3	InChI=1S/C8H12O/c1-4-5-8(9-3)6-7(8)2/h7H,6H2,1-3H3/t7-,8+/m1/s1
