16
gdb 10819	4.63762	1.48457	1.18369	3.5598	67.76	-0.2402	-0.0529	0.1873	975.1101	0.131162	-383.773041	-383.765688	-383.764744	-383.80468	27.831	
O	-0.0149320068	 1.4434569301	 0.0591687206	-0.432184
C	 0.0198870814	 0.023192683	-0.0087419243	 0.089079
C	-1.4220408154	-0.4727678912	 0.0796262463	-0.221752
C	-1.5034844427	-1.9783113821	-0.199810388	-0.330796
C	-0.8709078769	-2.3632029325	-1.5329347339	 0.388855
O	-1.2509239433	-3.3166411061	-2.1814597547	-0.331083
C	 0.2653032617	-1.5223919083	-1.9769065415	-0.153592
C	 0.6762414604	-0.4550253231	-1.2827549538	-0.074319
H	 0.8876020903	 1.7693206884	 0.1355806326	 0.284993
H	 0.5902839621	-0.381852745	 0.8473387866	 0.083722
H	-1.8350187942	-0.2316222446	 1.0631589332	 0.110991
H	-2.006902269	 0.0826367487	-0.6625018106	 0.12186
H	-0.9641138093	-2.5321582419	 0.582672417	 0.124696
H	-2.5329710755	-2.3441123495	-0.1909603614	 0.127833
H	 0.7505554445	-1.8334637786	-2.8969808191	 0.110244
H	 1.5306691127	 0.1258508224	-1.627945599	 0.101455
78.6843	194.7442	248.8151	266.0598	347.5781	400.6448	415.7414	483.9285	547.1437	632.5385	716.084	756.0033	774.5562	877.9772	949.1109	975.6454	1021.3609	1049.5914	1065.9878	1095.9467	1145.5807	1151.7391	1221.4718	1256.5228	1277.8917	1337.473	1346.268	1362.0136	1394.1636	1427.2419	1462.3015	1497.0673	1680.8959	1782.4126	2928.7418	3012.8343	3048.0674	3096.1721	3105.3669	3136.8925	3186.4095	3817.6899
OC1CCC(=O)C=C1	O[C@H]1CCC(=O)C=C1	
InChI=1S/C6H8O2/c7-5-1-2-6(8)4-3-5/h1-2,5,7H,3-4H2	InChI=1S/C6H8O2/c7-5-1-2-6(8)4-3-5/h1-2,5,7H,3-4H2/t5-/m1/s1
