16
gdb 81933	2.35518	1.97374	1.34058	2.0284	63.93	-0.2628	-0.0225	0.2403	947.7375	0.12535	-475.020091	-475.01264	-475.011696	-475.051878	29.182	
O	-0.2153464266	 1.4839288239	-0.4978137981	-0.43567
C	-0.029360528	 0.1595663601	-0.0537329196	 0.066509
C	-1.3560549394	-0.620091933	-0.0286482743	-0.049726
C	-2.4136166245	-0.2430289787	-1.0004197187	-0.234877
N	-1.4992743703	-1.3604932519	-1.3066255378	-0.122303
C	-0.3655137754	-1.0474375647	-2.0755872232	 0.351256
O	-0.2655703724	-1.0413045672	-3.2762065647	-0.339355
C	 0.7632788493	-0.6364518521	-1.1220857592	 0.014651
O	 1.733761297	 0.1291855482	-1.7833703869	-0.442901
H	 0.5731755615	 1.688384893	-1.0235361248	 0.294739
H	 0.4553602959	 0.1349023274	 0.9300484184	 0.083171
H	-1.6112785057	-1.1740317079	 0.8685603352	 0.108592
H	-3.4413382466	-0.5436842174	-0.8239800212	 0.13519
H	-2.2749174792	 0.6818823685	-1.5492617401	 0.157412
H	 1.1996364433	-1.5363821879	-0.6627676918	 0.110435
H	 1.5606243012	 0.0015049199	-2.7307582433	 0.302875
100.7051	195.5817	252.7595	286.3632	300.5919	430.088	481.8308	529.9754	568.3036	582.9196	592.5628	701.8641	750.8589	816.7773	859.1764	875.4181	947.1061	960.0641	1012.6512	1087.0983	1117.2687	1124.4143	1139.0063	1162.1785	1168.6904	1195.4367	1274.8154	1295.5242	1340.041	1364.7842	1383.7053	1404.7206	1425.8451	1501.4252	1840.2709	2997.0541	3028.8776	3131.097	3169.4344	3230.3121	3681.6242	3712.964
OC1C2CN2C(=O)C1O	O[C@H]1[C@H]2CN2C(=O)[C@H]1O	
InChI=1S/C5H7NO3/c7-3-2-1-6(2)5(9)4(3)8/h2-4,7-8H,1H2	InChI=1S/C5H7NO3/c7-3-2-1-6(2)5(9)4(3)8/h2-4,7-8H,1H2/t2-,3+,4+,6?/m1/s1
