23
gdb 113939	4.82472	0.65455	0.62051	1.6985	87.32	-0.2579	0.0924	0.3504	1882.7841	0.204762	-388.259165	-388.249173	-388.248229	-388.295224	36.486	
C	-0.2079726332	 1.6051761722	-0.4908818898	-0.374013
C	 0.017449902	 0.2139602931	 0.1135046074	-0.192473
C	-1.2796431964	-0.5443511578	 0.3163712899	 0.000598
C	-1.8913445114	-1.3579768031	-0.8012217656	-0.295446
C	-1.3594012062	-2.0486474768	 0.4351487851	-0.001728
C	-0.1457626634	-2.956403052	 0.3663488497	-0.256498
C	-0.5301115731	-4.3719670938	 0.0019224995	 0.109749
C	 0.1505983789	-5.5435924971	 0.5647504285	-0.182344
O	-1.1393516135	-5.1513568765	 1.0376630692	-0.238832
H	 0.7379157226	 2.1398925507	-0.6229437437	 0.108737
H	-0.6962908195	 1.5338831703	-1.4683969433	 0.117842
H	-0.8489167876	 2.2161577422	 0.1543135412	 0.113789
H	 0.6891671158	-0.3560277497	-0.5386068727	 0.092826
H	 0.5388125281	 0.3146391536	 1.0748687707	 0.096027
H	-1.9926110076	-0.0075760702	 0.9394158382	 0.079394
H	-2.9626691269	-1.3187790694	-0.965056517	 0.109372
H	-1.3090145427	-1.4556501665	-1.7139107225	 0.103002
H	-2.1135308064	-2.4162475191	 1.126231502	 0.097115
H	 0.5721033658	-2.5873849343	-0.3755978729	 0.097834
H	 0.3709528542	-2.9740823476	 1.334022224	 0.102046
H	-1.0147262351	-4.4856121381	-0.9697471566	 0.091242
H	 0.1812134998	-6.4782184152	 0.0059815795	 0.111603
H	 0.9695752659	-5.399707215	 1.2690808394	 0.110158
48.0701	66.1213	94.5886	113.2038	178.7739	220.8894	267.1357	304.8821	397.3799	421.8435	454.5804	557.6928	752.0936	794.3296	797.5416	817.0875	861.0421	869.6532	895.2697	953.1515	957.5003	985.3569	1003.3581	1049.595	1067.3697	1091.3895	1115.2955	1119.2113	1150.6249	1157.6623	1163.1816	1182.266	1201.9293	1246.106	1266.4614	1293.0579	1299.5146	1313.2008	1345.1208	1402.6658	1411.1611	1435.359	1445.1038	1467.276	1484.7584	1497.1931	1498.4705	1508.3742	1529.9698	3016.6777	3026.6454	3031.1007	3054.8466	3068.9655	3078.5874	3095.8474	3098.9005	3104.0298	3118.7286	3120.4509	3143.1557	3163.7302	3204.4348
CCC1CC1CC1CO1	CC[C@H]1C[C@H]1C[C@H]1CO1	
InChI=1S/C8H14O/c1-2-6-3-7(6)4-8-5-9-8/h6-8H,2-5H2,1H3	InChI=1S/C8H14O/c1-2-6-3-7(6)4-8-5-9-8/h6-8H,2-5H2,1H3/t6-,7-,8-/m0/s1
