19
gdb 17637	2.96907	1.51055	1.1975	3.0895	71.91	-0.2374	-0.0158	0.2216	1073.3497	0.163698	-365.05757	-365.048353	-365.047409	-365.092177	32.704	
C	-0.8282843745	 2.0035731588	 0.6274962071	-0.394345
C	-0.281092093	 0.6276719488	 0.2241681966	-0.118171
C	 0.5598723611	 0.0196349574	 1.3411996831	 0.045231
C	 1.7125486313	-0.8690480389	 1.0480936854	-0.25116
N	 1.931560758	 0.4877526998	 1.5834703563	-0.325587
C	-1.426312197	-0.35185206	-0.0788311552	 0.399305
C	-1.2380784263	-1.2864402404	-1.2572208584	-0.486402
O	-2.414696361	-0.3835423168	 0.617558598	-0.310464
H	-0.0158442186	 2.6685766428	 0.9339285514	 0.117408
H	-1.3642025022	 2.4745737219	-0.2022069091	 0.115283
H	-1.5273251406	 1.8955915532	 1.4599894647	 0.145909
H	 0.3549855781	 0.7186237731	-0.6664685708	 0.065893
H	-0.0031521279	-0.1557121738	 2.2559094078	 0.110847
H	 1.9699389253	-1.677434396	 1.7263083404	 0.124917
H	 1.9601190916	-1.0598813196	 0.0062052375	 0.107988
H	 2.2224636674	 1.1088814867	 0.8310703535	 0.228876
H	-0.2861632797	-1.8215850712	-1.1712449176	 0.140863
H	-2.0634454075	-1.9972829388	-1.3105830982	 0.14285
H	-1.1923760646	-0.7058936571	-2.1865637927	 0.14076
33.2732	94.0535	149.5894	160.4267	214.5567	240.1998	248.7955	352.6178	360.8784	473.6528	585.6007	603.0592	772.7983	799.1036	853.5389	913.775	951.8179	961.3472	969.0665	1005.9278	1049.7788	1095.7866	1113.4872	1141.2555	1168.2783	1176.6804	1217.3994	1251.928	1282.8296	1318.7379	1351.2783	1379.1124	1403.2718	1414.4808	1461.2277	1474.9421	1490.7394	1501.2471	1508.7553	1810.6126	3017.1048	3034.099	3044.6437	3095.1681	3103.9109	3112.1592	3130.5564	3134.5967	3152.2359	3189.9019	3484.7145
CC(C1CN1)C(C)=O	C[C@@H]([C@H]1CN1)C(=O)C	
InChI=1S/C6H11NO/c1-4(5(2)8)6-3-7-6/h4,6-7H,3H2,1-2H3	InChI=1S/C6H11NO/c1-4(5(2)8)6-3-7-6/h4,6-7H,3H2,1-2H3/t4-,6-/m1/s1
