16
gdb 47783	2.18433	1.71757	1.1913	3.8078	70.46	-0.2355	-0.0035	0.232	1055.879	0.124847	-437.866285	-437.858116	-437.857172	-437.899387	30.393	
O	 0.0194931294	 0.071445199	 0.4754761896	-0.316375
C	-0.0207160627	 1.1896723834	 0.0467563961	 0.406522
O	-1.1998352748	 1.7266457011	-0.3332974668	-0.225928
C	-1.2924655098	 2.9580154953	-1.078584056	-0.065194
C	-0.1109928094	 3.8885452516	-0.853433372	-0.192584
N	 1.1628763771	 3.190058128	-1.0087830049	-0.283655
C	 1.245715765	 2.080431838	-0.0500199691	-0.315225
C	 1.5525839741	 2.5759301296	 1.2946415231	 0.382909
C	 1.7770332813	 2.9833139057	 2.4018749439	-0.462127
H	-1.3705800633	 2.6884705729	-2.1405082494	 0.113098
H	-2.2391886734	 3.4152391053	-0.7756296271	 0.12775
H	-0.1637673648	 4.7221853717	-1.5607074327	 0.118077
H	-0.1400424822	 4.3097006988	 0.1573212879	 0.137953
H	 1.2378463583	 2.8136481795	-1.9499909217	 0.226095
H	 2.0476346647	 1.4057297157	-0.3661862619	 0.141687
H	 1.9890430904	 3.3357791646	 3.3812433011	 0.206996
66.8505	125.378	147.9923	203.0583	331.406	367.8394	422.6539	454.2409	507.882	593.4352	632.3072	664.9784	671.6702	707.8644	797.8911	836.2778	904.0798	915.3133	972.8019	1032.6534	1099.0159	1138.8198	1146.3224	1206.5775	1244.1562	1268.4562	1286.5437	1354.2945	1381.253	1429.1379	1482.4922	1483.9361	1511.4088	1847.6077	2239.7872	3018.184	3050.3086	3066.7981	3085.6052	3099.8284	3502.0462	3502.2662
O=C1OCCNC1C#C	O=C1OCCN[C@H]1C#C	
InChI=1S/C6H7NO2/c1-2-5-6(8)9-4-3-7-5/h1,5,7H,3-4H2	InChI=1S/C6H7NO2/c1-2-5-6(8)9-4-3-7-5/h1,5,7H,3-4H2/t5-/m0/s1
