14
gdb 44903	4.36673	1.18653	1.12568	1.4842	66.13	-0.2872	-0.0251	0.2621	1049.5943	0.102732	-436.708644	-436.701897	-436.700953	-436.739998	25.868	
O	-0.014773949	 0.0649231658	 0.0387570078	-0.329827
C	 0.0537258653	 1.2522830545	 0.0166931008	 0.452955
O	-1.0370960897	 2.1017405441	 0.0469697212	-0.239531
C	-0.4084463175	 3.40577058	-0.0154361587	 0.098717
C	 0.6598215136	 3.2231242585	-1.1143078288	-0.264444
C	 1.2288564116	 2.2222027932	-0.0486034516	-0.187533
C	 0.7280830353	 3.2480570572	 1.0500357475	-0.175867
C	 1.5818077112	 4.4029010237	 1.2554456146	 0.275453
N	 2.2572280573	 5.3257542985	 1.4253964884	-0.317466
H	-1.1603602323	 4.1890945284	 0.0157970704	 0.125095
H	 0.3222248268	 2.8154255795	-2.0679086707	 0.136334
H	 1.2978502166	 4.0955738281	-1.2553373768	 0.153541
H	 2.2287826947	 1.8005677408	-0.0606565838	 0.125638
H	 0.4151670564	 2.8285800478	 2.0092288697	 0.146934
129.4404	152.376	212.271	399.4954	451.0372	466.7792	521.8092	555.3993	644.151	745.7404	803.3784	863.0939	868.1646	898.6398	930.1726	951.2717	1011.8626	1022.6418	1060.4937	1078.2354	1116.1838	1140.33	1192.8204	1217.3756	1242.7454	1259.7051	1313.1314	1358.0794	1497.5992	1927.1961	2356.3224	3092.1715	3093.6929	3162.0123	3173.6799	3184.5177
O=C1OC2CC1C2C#N	O=C1O[C@@H]2C[C@H]1[C@H]2C#N	
InChI=1S/C6H5NO2/c7-2-4-3-1-5(4)9-6(3)8/h3-5H,1H2	InChI=1S/C6H5NO2/c7-2-4-3-1-5(4)9-6(3)8/h3-5H,1H2/t3-,4+,5+/m0/s1
