20
gdb 98688	3.28523	0.93496	0.88785	2.0631	78.63	-0.2452	0.0288	0.274	1423.2629	0.168754	-440.309483	-440.299117	-440.298173	-440.34513	37.487	
C	-0.335438981	 1.4041653499	 0.1673034747	-0.333539
N	-0.2046025434	-0.0292601257	 0.3328800381	-0.326554
C	 0.9228673084	-0.6138327193	 0.8344804603	 0.434514
O	 1.9114785883	 0.0297043358	 1.1595361841	-0.396897
C	 0.8457120029	-2.1043763384	 0.9454985418	-0.176921
C	 2.1478368862	-2.8928900435	 0.9858283391	-0.34272
C	 1.2862454698	-2.822911459	 2.2098765989	 0.405746
C	 1.7347065558	-2.0815469826	 3.4459874232	-0.465023
O	 0.4674839854	-3.9391274444	 2.4665978958	-0.466159
H	 0.6295422655	 1.8478637694	 0.4143813206	 0.171461
H	-0.5964435345	 1.6610138202	-0.8651587849	 0.123857
H	-1.0991626358	 1.8205810913	 0.8347697435	 0.124558
H	-0.9926674982	-0.6159439994	 0.1159586191	 0.246669
H	 0.0091405788	-2.5867451735	 0.4506094134	 0.087426
H	 2.1751184568	-3.8271408734	 0.4371858979	 0.111111
H	 3.0484959135	-2.2892077798	 0.9641523761	 0.13747
H	 2.2777189058	-1.174137564	 3.1794183365	 0.162526
H	 0.8697133923	-1.812499333	 4.0607325946	 0.11945
H	 2.3925655641	-2.7197218207	 4.0492658213	 0.10165
H	 0.9981623495	-4.5812019698	 2.9518661458	 0.281376
52.5487	78.092	119.2115	150.0383	195.3929	248.5577	270.4593	291.211	334.305	371.8212	385.5626	436.0801	466.993	497.1705	674.2698	701.3376	778.2707	856.8827	878.6132	931.2873	970.1845	980.1644	1029.9693	1066.0574	1091.0579	1100.9937	1117.4792	1153.7472	1172.6103	1215.1455	1256.0948	1295.8934	1365.1139	1404.511	1416.994	1437.9138	1465.7087	1493.3351	1496.7829	1500.616	1505.6307	1563.1036	1755.3518	3024.7709	3026.0698	3076.5817	3089.206	3137.0315	3150.5795	3154.6155	3162.3601	3237.0801	3652.5342	3791.0202
CNC(=O)C1CC1(C)O	CNC(=O)[C@H]1C[C@]1(C)O	
InChI=1S/C6H11NO2/c1-6(9)3-4(6)5(8)7-2/h4,9H,3H2,1-2H3,(H,7,8)	InChI=1S/C6H11NO2/c1-6(9)3-4(6)5(8)7-2/h4,9H,3H2,1-2H3,(H,7,8)/t4-,6+/m1/s1
