16
gdb 5535	3.16041	1.93237	1.2743	1.0467	68.52	-0.1865	0.0294	0.2159	950.723	0.131874	-379.932687	-379.924818	-379.923874	-379.964915	29.179	
C	-0.4554096895	 1.1982986047	-0.1384659429	-0.323463
N	 0.3886097835	 0.0362460968	 0.1600329882	-0.392154
C	 0.814172649	-0.7156853074	-0.9289150346	 0.261505
C	 0.6416002534	-2.041082871	-1.2079554007	 0.193569
N	 0.0263085029	-2.990072958	-0.3815814886	-0.611941
C	 1.2943647441	-2.2820858844	-2.4642138304	-0.244487
C	 1.8138878233	-1.0874896327	-2.8516890515	-0.009071
O	 1.5531492102	-0.1212505173	-1.9440660912	-0.17872
H	 0.0407958878	 1.957736375	-0.7589961721	 0.118729
H	-1.3517505117	 0.8609095402	-0.6669818538	 0.127574
H	-0.7665192601	 1.6648363504	 0.8011495659	 0.115363
H	 1.1520705997	 0.2980776222	 0.7758507369	 0.231565
H	-0.4924994789	-2.5329762328	 0.3597817829	 0.243468
H	-0.5842703277	-3.6182483548	-0.8891703926	 0.239854
H	 1.3686996942	-3.2206015424	-2.9915514123	 0.101059
H	 2.3727144797	-0.7813564784	-3.7215273933	 0.12715
79.1763	153.7972	178.1341	261.209	288.0378	299.1034	375.1644	503.3722	619.8069	626.7059	662.8801	711.5858	737.4739	770.6895	807.5184	818.7585	900.5694	1028.197	1050.8516	1078.8792	1137.7519	1152.3116	1178.6785	1197.6868	1307.381	1323.2926	1447.6608	1459.5848	1479.56	1492.5663	1521.0357	1548.4194	1637.8752	1710.297	3002.679	3076.1218	3113.2284	3247.4274	3273.4414	3497.2916	3518.4295	3611.2903
CNC1=C(N)C=CO1	CNc1c(N)cco1	
InChI=1S/C5H8N2O/c1-7-5-4(6)2-3-8-5/h2-3,7H,6H2,1H3	InChI=1S/C5H8N2O/c1-7-5-4(6)2-3-8-5/h2-3,7H,6H2,1H3
