14
gdb 25541	3.9261	0.96982	0.82027	4.3415	65.08	-0.2267	-0.0492	0.1775	1307.8861	0.100231	-473.882725	-473.874573	-473.873629	-473.917287	28.561	
O	 0.2140392088	-0.1731277578	-0.4348068422	-0.224812
C	 0.0712475539	 0.9986863661	-0.2114074825	 0.155676
C	 1.2275894531	 1.9739393752	 0.0026534213	-0.386406
C	 1.2801014807	 2.9761031998	-1.0993355831	 0.277307
C	 1.0561723418	 4.2980676046	-1.1182488912	-0.115186
O	 1.1996917707	 4.7908839795	-2.3946346824	-0.204828
C	 1.5243350424	 3.7390719232	-3.2386934066	 0.491073
O	 1.7152909875	 3.843734731	-4.4165559959	-0.391506
N	 1.5663286984	 2.6269089873	-2.4244629194	-0.420042
H	-0.9350433425	 1.4711779883	-0.1725685093	 0.094949
H	 1.0691800338	 2.5035829487	 0.9488268675	 0.14119
H	 2.1549286874	 1.3955881417	 0.0720767142	 0.139941
H	 0.8075265119	 5.0032133654	-0.3445037198	 0.157603
H	 1.7819047421	 1.709569217	-2.7754264105	 0.285041
26.3443	69.4844	127.4132	215.316	276.7396	371.3242	433.381	471.0176	524.8245	619.2079	657.1853	725.1379	757.791	770.9018	847.0313	915.8731	1006.5868	1011.8285	1052.5137	1096.9685	1181.6018	1190.0345	1242.0908	1299.3025	1345.372	1414.1449	1427.5211	1455.7567	1703.5241	1837.7294	1907.0466	2894.6161	3042.1152	3098.8645	3295.4838	3684.2041
O=CCC1=COC(=O)N1	O=CCc1coc(=O)[nH]1	
InChI=1S/C5H5NO3/c7-2-1-4-3-9-5(8)6-4/h2-3H,1H2,(H,6,8)	InChI=1S/C5H5NO3/c7-2-1-4-3-9-5(8)6-4/h2-3H,1H2,(H,6,8)
