12
gdb 21670	3.53345	2.49573	1.46264	3.2007	63.56	-0.2201	-0.0475	0.1727	769.1761	0.086197	-406.98143	-406.974686	-406.973742	-407.012381	24.899	
N	 0.0023154499	 1.3165013952	 0.0090920999	-0.544511
C	-0.0289643011	-0.023260363	 0.00147484	 0.438926
N	-1.1589201895	-0.6807595801	 0.0043543487	-0.32082
N	-0.9933512467	-2.0275296711	-0.0035553842	-0.088967
N	 0.1190708813	-2.727020806	-0.0135319561	-0.062875
N	 1.2473181867	-2.1129243565	-0.0169650019	-0.293698
C	 1.2713276136	-0.7160655394	-0.0097038874	 0.332301
N	 2.3402916642	-0.0096510452	-0.0141389457	-0.54538
H	 0.9150413925	 1.7449579271	 0.0031538378	 0.290316
H	-0.8438350944	 1.8583944481	 0.013445432	 0.269654
H	-1.841446168	-2.571848131	-0.0013861198	 0.296257
H	 3.1576570515	-0.6227382779	-0.0229459632	 0.228797
92.8173	172.4271	301.4185	329.8483	421.6558	488.8767	504.0719	553.9732	604.4191	613.6493	664.041	762.5364	819.6374	894.8495	984.0679	1010.865	1085.4966	1160.3199	1256.9448	1327.9605	1374.4964	1497.8799	1521.0477	1595.2686	1662.4267	1690.8882	3467.1404	3588.4753	3651.1361	3737.3189
NC1=NNN=NC1=N	Nc1n[nH]nnc1[NH]	
InChI=1S/C2H4N6/c3-1-2(4)6-8-7-5-1/h(H2,3,5,8)(H2,4,6,7)	InChI=1S/C2H9N6/c3-1-2(4)6-8-7-5-1/h1-3,5-8H,4H2
