16
gdb 24286	4.01913	1.52693	1.20083	2.182	74.33	-0.2154	0.019	0.2344	991.9813	0.12818	-400.748426	-400.742173	-400.741229	-400.778918	25.848	
C	-0.0421933622	 1.5390985436	-0.0021372467	-0.36512
C	 1.4466415366	 1.923821569	-0.0389289647	-0.021114
N	 2.1952200991	 1.5170148801	 1.1642314782	-0.328504
C	 2.3028217318	 0.693829305	-0.075662412	-0.251974
C	 1.3641410793	-0.4486871066	-0.0495202758	 0.318874
C	 1.2994232322	-1.8007318262	-0.0569804307	-0.176178
O	-0.0072007169	-2.1941087382	 0.0194978383	-0.156896
C	-0.7785856079	-1.0645098996	 0.0819162224	-0.15566
C	 0.0134944149	 0.0320497999	 0.0349742933	 0.214777
H	-0.538139861	 1.9748919163	 0.871410768	 0.126286
H	-0.5576390858	 1.912099209	-0.8949967556	 0.112846
H	 1.7423063184	 2.8340092955	-0.5505595331	 0.088888
H	 3.0288422549	 2.0968402654	 1.2425713224	 0.229755
H	 3.2484245147	 0.6587870743	-0.6043170124	 0.092581
H	 2.0211982271	-2.5985018238	-0.1085616725	 0.13634
H	-1.8402698553	-1.2364683636	 0.1433756108	 0.135097
158.7057	235.0727	360.8701	433.1663	448.7172	603.1154	605.2621	686.1273	713.4166	739.7808	766.7793	777.3981	815.1547	847.5655	887.6648	927.2512	939.4094	991.7053	1051.0992	1058.0865	1108.9744	1130.3949	1144.0839	1176.429	1195.252	1223.3443	1251.0821	1290.2348	1305.9711	1348.016	1384.0376	1413.4881	1473.6286	1606.812	1674.6736	3036.9539	3077.1831	3161.85	3179.7645	3274.0139	3278.9296	3482.947
C1C2NC2C2=COC=C12	C1[C@H]2N[C@H]2c2cocc12	
InChI=1S/C7H7NO/c1-4-2-9-3-5(4)7-6(1)8-7/h2-3,6-8H,1H2	InChI=1S/C7H7NO/c1-4-2-9-3-5(4)7-6(1)8-7/h2-3,6-8H,1H2/t6-,7+/m1/s1
