21
gdb 102097	2.07819	1.15303	0.85859	4.0262	79.97	-0.2375	-0.0121	0.2254	1418.6589	0.17983	-424.215894	-424.205456	-424.204511	-424.252112	37.128	
C	-0.7320603493	 1.164689933	 0.2267892728	-0.409722
C	-0.0972550098	-0.2076373612	 0.1716351832	-0.002867
C	 1.3015209599	-0.4007098321	-0.3572320659	-0.302841
C	 1.0146170912	-0.651179771	 1.1047338689	-0.025793
C	 1.6046288231	 0.2528805338	 2.179607098	-0.089233
C	 0.8648058412	 0.095538172	 3.5057460383	-0.096208
O	 1.4904241595	 0.9551669228	 4.4448334469	-0.419462
C	 3.0738257121	-0.104159968	 2.3518662925	 0.18714
O	 3.9900343376	 0.5147650196	 1.879701637	-0.2561
H	 0.000374055	 1.9491554652	 0.4357953632	 0.125747
H	-1.1992878133	 1.4068883175	-0.7339417831	 0.121315
H	-1.5108737722	 1.2191182351	 0.9958879692	 0.116018
H	-0.7998563516	-0.998632108	-0.079778721	 0.086264
H	 1.5157464606	-1.2480156317	-0.9991189049	 0.112644
H	 1.8726267942	 0.4911314536	-0.5965282645	 0.126616
H	 0.973554278	-1.697439627	 1.4015307079	 0.083346
H	 1.5691914393	 1.2992787096	 1.865089356	 0.101814
H	-0.1982481237	 0.3422108922	 3.36750825	 0.098954
H	 0.9174876683	-0.9577877947	 3.8300893407	 0.087355
H	 1.0770557621	 0.8252543939	 5.3033253945	 0.290775
H	 3.2495481179	-1.0424311947	 2.9318697704	 0.064235
48.5962	75.6183	97.0544	146.9941	174.1574	210.5155	228.4587	274.6445	330.602	341.8708	389.4253	443.1419	525.8465	557.9792	771.2232	820.4989	859.5701	882.1654	913.665	970.3222	1001.2578	1022.704	1065.2241	1076.3089	1087.1547	1109.6882	1130.5987	1151.4475	1169.0406	1199.3815	1239.2314	1240.158	1249.9811	1278.683	1330.2221	1387.9385	1414.347	1427.1823	1429.1557	1452.4106	1494.956	1495.4932	1506.5727	1519.5798	1839.6658	2838.7611	2959.95	3007.3109	3032.061	3085.1906	3088.9452	3109.4546	3119.3012	3130.621	3136.9965	3214.8696	3831.852
CC1CC1C(CO)C=O	C[C@H]1C[C@H]1[C@@H](CO)C=O	
InChI=1S/C7H12O2/c1-5-2-7(5)6(3-8)4-9/h3,5-7,9H,2,4H2,1H3	InChI=1S/C7H12O2/c1-5-2-7(5)6(3-8)4-9/h3,5-7,9H,2,4H2,1H3/t5-,6+,7+/m0/s1
