16
gdb 131509	3.75507	1.36811	1.16007	0.7756	69.86	-0.2557	-0.0121	0.2436	1039.7862	0.127914	-434.07253	-434.065485	-434.064541	-434.104082	27.553	
O	 0.0800398262	 1.3974183905	-0.0125139249	-0.428411
C	 0.0157807878	-0.0182628793	 0.0292453743	 0.126198
C	 0.6477845446	-0.5747878131	 1.3551079177	-0.368565
C	-0.5703925036	-0.7344810037	 2.2090219397	 0.298189
N	-0.8703804758	-0.9145804713	 3.4906451283	-0.314987
N	-2.2061010215	-0.9864343135	 3.451275341	-0.098613
N	-2.7946020185	-0.8636678319	 2.255676192	-0.314987
C	-1.7480167185	-0.7033220215	 1.4532205862	 0.298189
C	-1.4726453411	-0.5186829219	-0.0057877905	-0.368565
H	-0.4007882573	 1.7389575526	 0.7507452678	 0.283884
H	 0.5714262424	-0.350609998	-0.8502147925	 0.092244
H	 1.1453452859	-1.5371546277	 1.1836722884	 0.122486
H	 1.3983293753	 0.1233735	 1.733484523	 0.129541
H	-2.7486617906	-1.1010006615	 4.2919233857	 0.29137
H	-2.1024040011	 0.2159996913	-0.5132926378	 0.129541
H	-1.5598127343	-1.4655784111	-0.5525030183	 0.122486
85.8709	224.5769	269.5046	347.1166	379.3882	399.0237	478.4584	498.1339	651.7621	690.7069	706.6875	729.3117	787.2948	859.9056	881.337	929.6192	998.296	1021.6887	1062.471	1117.6719	1158.2641	1165.5399	1175.7019	1192.8292	1232.9899	1270.7709	1317.1631	1319.4201	1423.4578	1432.2861	1444.7617	1470.6115	1484.8935	1515.2137	1589.9426	3036.5049	3036.7437	3094.8968	3102.8872	3103.8963	3671.8144	3788.2603
OC1CC2=NNN=C2C1	O[C@H]1Cc2n[nH]nc2C1	
InChI=1S/C5H7N3O/c9-3-1-4-5(2-3)7-8-6-4/h3,9H,1-2H2,(H,6,7,8)	InChI=1S/C5H7N3O/c9-3-1-4-5(2-3)7-8-6-4/h3,9H,1-2H2,(H,6,7,8)
