25
gdb 106595	4.15322	0.87198	0.86503	0.0131	94.02	-0.2788	0.0903	0.3691	1539.7729	0.228659	-352.327689	-352.317848	-352.316904	-352.362414	37.875	
C	 0.0319737357	 1.5304089404	-0.0072400394	-0.37968
C	-0.0571885517	 0.0000648715	-0.0079404534	-0.306233
C	-1.4730131779	-0.5218990966	 0.0146639678	 0.359503
C	-2.598359502	-0.2789845536	-1.0398563772	-0.307092
C	-3.2448715255	-1.1939559135	 0.0431123185	 0.359503
C	-4.6584081615	-1.7224644291	 0.0535972924	-0.306232
C	-4.9772672578	-2.5957212199	 1.2724707164	-0.37968
C	-1.9173496345	-2.0153772513	 0.0227032436	-0.307091
C	-2.5617205177	-0.2776880831	 1.1070694795	-0.292864
H	 1.0737002906	 1.864955056	-0.0256544959	 0.110228
H	-0.4712332481	 1.9567324508	-0.8814594666	 0.117824
H	-0.4391373958	 1.9540228057	 0.8859703416	 0.1176
H	 0.4533508476	-0.3985048565	-0.8949220347	 0.094929
H	 0.4825624668	-0.4011280435	 0.8603468575	 0.094765
H	-2.9933578245	 0.7389824106	-1.1176027796	 0.082119
H	-2.4468425299	-0.7233264227	-2.0292011967	 0.080303
H	-5.3545958561	-0.8738808045	 0.0156987831	 0.094763
H	-4.8285487304	-2.2975462299	-0.8665004179	 0.094931
H	-6.009164018	-2.9583763492	 1.2389282384	 0.110228
H	-4.3177239017	-3.4687661169	 1.3174781689	 0.117818
H	-4.850204538	-2.035646371	 2.2048803235	 0.117605
H	-1.7120398478	-2.5921154795	-0.8852735089	 0.080303
H	-1.676880517	-2.5911083759	 0.9221647536	 0.082118
H	-2.3708697246	-0.7177902013	 2.0910499316	 0.082166
H	-2.9544673302	 0.7401793031	 1.1966642339	 0.082163
66.2021	90.0943	133.9231	155.5151	209.0869	222.7105	292.4766	333.7505	412.7488	413.0079	541.2698	553.2477	593.7769	636.171	747.3896	766.9206	818.7803	820.6802	919.8967	952.3782	960.2235	969.133	989.9059	994.7222	996.3037	1063.117	1068.7442	1092.0626	1095.8432	1110.2289	1143.7053	1145.3643	1167.9638	1178.5751	1198.6064	1204.8306	1300.54	1305.8444	1307.5551	1322.2183	1371.4424	1384.8904	1408.8838	1409.71	1479.4554	1479.4717	1496.3535	1496.8279	1499.0207	1499.2346	1506.0969	1506.262	1560.4618	3011.1353	3011.1768	3028.6308	3030.438	3033.5222	3033.8383	3042.1395	3042.27	3042.4137	3090.7733	3097.2632	3098.3454	3102.0833	3102.1368	3104.75	3104.9798
CCC12CC(CC)(C1)C2	CC[C@@]12C[C@@](CC)(C1)C2	
InChI=1S/C9H16/c1-3-8-5-9(4-2,6-8)7-8/h3-7H2,1-2H3	InChI=1S/C9H16/c1-3-8-5-9(4-2,6-8)7-8/h3-7H2,1-2H3/t8-,9+
