14
gdb 123511	4.07686	1.74984	1.22434	2.8896	80.58	-0.2145	-0.0644	0.1501	929.6412	0.104545	-395.746301	-395.740358	-395.739414	-395.776443	24.207	
C	-0.0044823672	 1.3992567954	 0.0099285695	-0.134395
C	 1.3182142158	 1.8123108236	-0.0003948858	-0.07914
N	 2.0917919001	 0.6927802542	-0.0139460753	-0.027704
N	 3.4554670728	 0.6895117671	-0.0269810794	-0.097799
N	 4.039627469	-0.4448984945	-0.0386282701	-0.19386
C	 3.3296315207	-1.6190860453	-0.0381339645	 0.02335
C	 1.9630920235	-1.6728534973	-0.0253690975	-0.253224
C	 1.2664217203	-0.457098901	-0.0122146188	 0.43116
C	-0.0464003274	-0.010461958	 0.0026104859	-0.293246
H	-0.8565752972	 2.0623821668	 0.0216578877	 0.116736
H	 1.7738387196	 2.7881040467	 0.0006054078	 0.143235
H	 3.9448752231	-2.5096263699	-0.0488130872	 0.127173
H	 1.4282097828	-2.6155095458	-0.0253533211	 0.125398
H	-0.9235872758	-0.638161652	 0.007520169	 0.112317
209.3337	222.4705	409.9954	419.0342	582.2281	609.6489	620.3402	625.3758	735.0845	749.5257	762.8121	786.8124	843.7767	885.239	888.6777	922.0394	974.5601	1036.3147	1057.8652	1078.8925	1176.6407	1214.618	1244.4028	1282.1945	1323.3309	1395.8104	1459.1611	1473.4287	1489.8585	1551.7366	1645.3272	3199.5828	3219.7142	3245.2408	3261.0147	3287.7928
C1=CN2N=NC=CC2=C1	c1cn2nnccc2c1	
InChI=1S/C6H5N3/c1-2-6-3-4-7-8-9(6)5-1/h1-5H	InChI=1S/C6H5N3/c1-2-6-3-4-7-8-9(6)5-1/h1-5H
