17
gdb 28601	4.66205	0.98143	0.85022	2.5383	76.31	-0.1842	0.0486	0.2328	1322.9773	0.137608	-418.008187	-417.999871	-417.998927	-418.041976	31.17	
O	-0.0581160873	 1.3025388048	 0.3006888896	-0.436065
C	 0.0449318505	-0.0202437545	 0.0142440364	 0.368365
C	 0.2019600499	-0.7270634196	-1.1531639206	-0.294213
C	 0.230675092	-2.1084306316	-0.782639165	-0.21536
C	 0.0838708109	-2.1977019897	 0.5802221837	 0.282579
N	-0.0229219642	-0.8964591481	 1.0573561784	-0.348247
C	 0.0772195662	-3.3604701511	 1.4919210394	-0.133832
C	-1.2035565322	-3.8572696444	 2.0779677182	-0.234095
N	-0.507669432	-4.6345894954	 1.0411691617	-0.307613
H	 0.0110002212	 1.7951596778	-0.5224868951	 0.30797
H	 0.2871891217	-0.3129613593	-2.1457742418	 0.08735
H	 0.370621204	-2.9445570464	-1.4512203676	 0.097656
H	-0.1727822742	-0.6276732331	 2.0146448722	 0.264069
H	 0.9778394397	-3.5072737798	 2.088835968	 0.099633
H	-1.2061694486	-4.3110866498	 3.0651431025	 0.115633
H	-2.1159222644	-3.3324621766	 1.8085966275	 0.11301
H	-0.970326533	-4.4767038931	 0.1486336922	 0.23316
30.0548	126.4304	165.463	235.2233	276.6035	354.6021	397.1887	438.8294	497.6407	603.3427	653.2104	687.6629	699.8741	734.1421	813.9144	840.3391	879.2471	961.3577	983.8606	1016.3346	1023.3264	1056.4549	1099.9074	1142.528	1167.6022	1173.9353	1219.2805	1259.9014	1265.057	1302.8834	1309.4485	1396.7231	1426.0792	1503.4697	1528.3546	1573.583	1645.1422	3090.8975	3109.0369	3197.5591	3239.4263	3253.7139	3495.9782	3678.5596	3848.8856
OC1=CC=C(N1)C1CN1	Oc1ccc([nH]1)[C@H]1CN1	
InChI=1S/C6H8N2O/c9-6-2-1-4(8-6)5-3-7-5/h1-2,5,7-9H,3H2	InChI=1S/C6H8N2O/c9-6-2-1-4(8-6)5-3-7-5/h1-2,5,7-9H,3H2/t5-/m1/s1
