13
gdb 17012	6.92378	1.36943	1.32238	1.2888	65.81	-0.2522	-0.0081	0.244	898.182	0.095024	-361.362197	-361.355495	-361.354551	-361.393005	25.374	
C	-0.0421018586	-1.2364767811	-0.0625812283	-0.424654
C	 0.0024847131	-0.037402543	 0.0012647427	 0.330306
C	-0.0113846272	 1.4098432274	 0.0138570812	-0.197316
C	 0.0565145434	 2.1314539012	 1.402491347	-0.150543
N	 1.5097681112	 1.6707114013	 1.4673895817	-0.300751
C	 1.3658407441	 2.1559605697	 0.0278552734	-0.150543
C	 0.6178999054	 3.3621673452	 0.6480499735	 0.425184
O	 0.6448312063	 4.5509696867	 0.6948959035	-0.314555
H	-0.0651631635	-2.2974216404	-0.1034606776	 0.197011
H	-0.7492356661	 1.8171440951	-0.681676511	 0.119824
H	-0.6228063831	 2.0329844465	 2.245991173	 0.114295
H	 2.0790172827	 2.3172500203	 2.0211196177	 0.237446
H	 2.1768064984	 2.0853853413	-0.6932679933	 0.114295
128.2586	142.4525	221.0827	403.4254	408.8577	527.3645	537.5162	632.3242	645.7338	681.6721	762.1741	792.7084	805.4188	865.0464	935.766	981.2207	1049.1331	1058.9794	1103.3264	1127.6113	1168.6373	1172.3108	1182.4958	1254.1336	1280.0237	1373.5712	1912.7145	2241.0633	3085.7114	3155.3881	3158.3125	3412.7635	3503.4991
C#CC1C2NC1C2=O	C#C[C@H]1[C@H]2N[C@@H]1C2=O	
InChI=1S/C6H5NO/c1-2-3-4-6(8)5(3)7-4/h1,3-5,7H	InChI=1S/C6H5NO/c1-2-3-4-6(8)5(3)7-4/h1,3-5,7H/t3-,4+,5-
