16
gdb 133484	2.73122	0.96503	0.83456	2.2229	66.15	-0.2583	0.0463	0.3046	1400.6817	0.118183	-532.245956	-532.235921	-532.234977	-532.283609	34.173	
C	 0.0000941287	 1.4922047216	 0.0256897236	-0.498514
C	 0.0121595526	 0.0370738277	 0.0005115319	 0.069394
C	 0.0322487904	-1.1654951154	-0.0244035954	 0.07907
C	 0.0215830762	-2.6251608716	-0.0456175877	-0.302463
C	-1.4012667321	-3.2015079859	 0.0938429187	-0.400488
C	 0.6915728406	-3.1516983249	-1.3193603305	 0.290416
F	 1.9414264567	-2.6920089918	-1.4459861999	-0.072949
F	 0.7580907807	-4.494490763	-1.2930525423	-0.082521
F	 0.014157127	-2.80459008	-2.4211796558	-0.07644
H	 0.8808108168	 1.8879509033	 0.5428919471	 0.152067
H	-0.0025860971	 1.903671571	-0.9894039565	 0.154583
H	-0.8883882249	 1.8729890312	 0.5409664865	 0.150654
H	 0.6425916194	-3.0052924365	 0.7758145595	 0.129861
H	-1.3734382008	-4.2935247589	 0.0894524212	 0.13277
H	-1.8447492308	-2.8620383803	 1.031684652	 0.132316
H	-2.0311766135	-2.8599205865	-0.7304015425	 0.142243
9.3328	56.9177	82.0281	143.1232	221.406	231.1496	260.8495	296.0184	349.7899	396.7413	432.4874	518.5276	532.9047	583.7273	670.7154	757.4487	823.3837	983.5658	1049.7617	1053.2672	1053.6269	1096.1253	1161.5944	1182.6228	1219.7671	1277.6678	1325.6652	1367.8476	1407.1539	1414.8232	1476.9319	1477.8193	1493.5637	1501.8308	2379.7516	3029.6863	3031.6604	3059.004	3091.5477	3092.746	3139.7615	3141.9659
CC#CC(C)C(F)(F)F	CC#C[C@@H](C)C(F)(F)F	
InChI=1S/C6H7F3/c1-3-4-5(2)6(7,8)9/h5H,1-2H3	InChI=1S/C6H7F3/c1-3-4-5(2)6(7,8)9/h5H,1-2H3/t5-/m1/s1
