26
gdb 123156	7.38925	0.42965	0.42093	1.0392	95.13	-0.2292	0.0893	0.3185	2698.4441	0.239634	-369.592984	-369.581894	-369.58095	-369.630589	39.717	
C	-0.0458110641	 1.5910302602	-0.1633823176	-0.379138
C	-0.022752918	 0.0708625198	 0.0174816492	-0.16337
C	-1.4148378305	-0.5662312231	-0.0491066771	-0.157593
C	-1.4016812847	-2.0874766365	 0.1340695033	-0.178682
C	-2.7958802137	-2.7186098655	 0.0642222391	-0.18015
C	-2.7764088422	-4.2348594079	 0.2556182259	-0.142004
N	-4.1270345537	-4.7876691781	 0.2192717351	-0.05858
C	-4.6270824483	-5.178911069	-1.0946144651	-0.218511
C	-4.2362353652	-6.20750657	-0.0912677073	-0.220637
H	 0.9614116406	 2.016474222	-0.1122400638	 0.109687
H	-0.4750457576	 1.8678371829	-1.1329504013	 0.112474
H	-0.6505375427	 2.0728987369	 0.6130733895	 0.113082
H	 0.6185417754	-0.3801728716	-0.7516263727	 0.092418
H	 0.442299237	-0.1769009421	 0.9810124733	 0.09319
H	-2.0581416939	-0.1138416499	 0.7186076733	 0.092151
H	-1.880301285	-0.3200413606	-1.0139811209	 0.090292
H	-0.7556568648	-2.5389352877	-0.6321891993	 0.090181
H	-0.9382982151	-2.3318393191	 1.1003832503	 0.091981
H	-3.4476721779	-2.2787638942	 0.8287926453	 0.105452
H	-3.2575630169	-2.48530321	-0.9045411274	 0.093953
H	-2.1225187904	-4.6995176203	-0.5076069854	 0.073008
H	-2.3435150616	-4.4804774612	 1.2338695094	 0.099658
H	-5.6737495242	-4.9639190113	-1.2901114949	 0.114699
H	-3.9666273233	-5.0478393614	-1.9511814091	 0.105833
H	-3.3177602554	-6.7611636054	-0.2820716348	 0.106119
H	-4.9921330736	-6.7576785968	 0.4621293632	 0.114486
45.5675	59.6938	79.4577	107.5809	134.3301	158.9176	197.2832	247.8686	263.4202	334.7805	388.8707	459.2867	495.6482	732.8358	750.0238	770.9229	805.095	841.434	895.0591	898.2254	907.3148	1001.5804	1005.2904	1018.2449	1039.0308	1052.8143	1066.3557	1074.4369	1112.7048	1116.5862	1135.5796	1156.5115	1177.7936	1210.1045	1239.378	1256.0114	1288.249	1315.9083	1322.7765	1324.4	1329.4099	1334.4314	1377.6712	1400.7107	1409.1107	1414.3218	1483.0681	1484.1362	1487.7076	1493.3027	1498.6067	1500.1361	1507.8373	1515.1508	1524.7378	2915.0569	2999.4598	3003.4962	3014.8722	3019.3174	3022.2116	3028.4942	3034.1276	3036.9861	3054.1843	3071.726	3089.598	3094.4121	3094.6713	3100.1229	3173.0613	3187.4407
CCCCCCN1CC1	CCCCCCN1CC1	
InChI=1S/C8H17N/c1-2-3-4-5-6-9-7-8-9/h2-8H2,1H3	InChI=1S/C8H17N/c1-2-3-4-5-6-9-7-8-9/h2-8H2,1H3
