22
gdb 91903	2.30982	1.51737	1.00257	1.4933	88.97	-0.2265	0.0208	0.2473	1262.8973	0.195477	-367.211579	-367.202746	-367.201801	-367.244751	34.629	
C	 0.074946251	 1.5835874595	-0.0165712615	-0.396901
C	-0.0289689712	 0.052999531	 0.0042289174	-0.025807
C	 0.5609078315	-0.560172784	-1.2845408308	-0.2066
C	 0.702233036	-2.0739683664	-1.1985092955	-0.051058
N	 2.0615346028	-2.5881807961	-0.9153263721	-0.340629
C	 1.0017590218	-2.6711070409	 0.1238165546	-0.130912
C	 1.134956601	-1.7669971504	 1.3020276554	 0.334862
C	 1.8253532256	-2.3244504538	 2.5148750677	-0.486712
C	 0.6381538375	-0.5288619554	 1.2337423164	-0.139143
H	 1.1228474873	 1.9031005074	-0.0433231579	 0.118773
H	-0.4257359867	 2.0003732132	-0.8967968167	 0.108454
H	-0.3869882136	 2.0246646823	 0.8730622358	 0.109904
H	-1.1000863472	-0.2026476283	 0.0439956819	 0.07999
H	-0.0607391954	-0.2834964377	-2.1437008415	 0.088518
H	 1.5553008608	-0.1326577141	-1.4529128707	 0.111975
H	 0.0874762199	-2.6580661598	-1.8788695839	 0.080134
H	 2.1763169715	-3.5023692754	-1.348905566	 0.224396
H	 0.6091572355	-3.6641126556	 0.3402828116	 0.080059
H	 2.8540880829	-2.619339964	 2.2725475994	 0.133736
H	 1.8601338185	-1.5968864382	 3.3303732029	 0.117808
H	 1.3194025014	-3.226280772	 2.8841509892	 0.115997
H	 0.7143733592	 0.1236227284	 2.1025947842	 0.073157
89.8137	152.5018	195.2794	212.0058	246.6932	273.1204	356.6847	409.3052	429.8448	448.2315	518.1926	608.4964	632.7962	782.5833	823.095	844.1798	879.8531	909.9277	922.8552	933.247	957.6528	1001.5855	1021.3703	1058.2873	1070.2755	1097.5818	1119.4029	1162.1686	1164.4399	1191.839	1219.3228	1248.208	1267.0278	1312.8426	1319.3318	1347.1761	1380.2937	1406.5428	1408.9395	1412.0711	1459.5067	1476.3907	1478.7526	1493.0563	1496.9626	1499.8551	1729.3151	2968.0571	3014.1097	3026.0909	3033.0256	3062.487	3077.9253	3096.0749	3098.2819	3106.0807	3109.2164	3132.0979	3133.9631	3478.0139
CC1CC2NC2C(C)=C1	C[C@H]1C[C@H]2N[C@H]2C(=C1)C	
InChI=1S/C8H13N/c1-5-3-6(2)8-7(4-5)9-8/h3,5,7-9H,4H2,1-2H3	InChI=1S/C8H13N/c1-5-3-6(2)8-7(4-5)9-8/h3,5,7-9H,4H2,1-2H3/t5-,7-,8+/m1/s1
