16
gdb 69682	3.1736	1.42054	1.26676	6.0504	73.08	-0.2511	0.0193	0.2704	1033.2631	0.123204	-400.684519	-400.676779	-400.675835	-400.716602	29.803	
C	-0.0977687764	 1.522271747	 0.0464894223	-0.505983
C	 0.1337537682	 0.0499976973	 0.0338932252	 0.420485
O	-0.7684397835	-0.813430185	 0.736233912	-0.261762
C	 0.6339848617	-0.9203224968	 1.008424544	-0.055457
C	 1.3061706622	-1.7650204432	-0.1146502813	-0.118363
C	 0.3332556976	-2.2168970445	-1.1842121468	-0.164794
C	-1.0002791677	-2.737563602	-1.0041818343	 0.309751
N	-2.0375019307	-3.2479695859	-0.9681445113	-0.358387
C	 0.7795482114	-0.7696699142	-1.1376995237	-0.165108
H	 0.806782281	 2.0596244099	-0.2560321221	 0.130915
H	-0.9006015703	 1.7924402507	-0.6485035214	 0.143079
H	-0.3844779474	 1.8504971843	 1.0485806502	 0.143259
H	 0.9600347682	-0.8275915848	 2.0370455313	 0.118862
H	 2.2946884035	-2.1976349979	-0.0373340394	 0.111691
H	 0.8517686482	-2.7547724973	-1.9754970257	 0.14198
H	 1.3004857539	-0.3190810576	-1.9726041689	 0.109832
107.7888	160.9802	195.8951	259.8108	283.1584	361.8961	429.0143	489.7059	596.1834	633.5319	669.8548	740.2395	750.5733	792.2234	864.5073	872.1257	930.2995	944.3605	970.4888	989.2466	1007.3285	1059.0373	1069.2975	1104.1279	1169.6512	1179.0777	1253.7281	1270.9109	1300.7685	1397.6233	1409.4164	1470.6981	1485.3444	1501.4885	2354.1444	3036.9339	3100.3329	3127.4985	3137.2737	3194.4318	3198.7625	3210.5008
CC12OC1C1C(C#N)C21	C[C@]12O[C@H]1[C@H]1[C@@H](C#N)[C@@H]21	
InChI=1S/C7H7NO/c1-7-5-3(2-8)4(5)6(7)9-7/h3-6H,1H3	InChI=1S/C7H7NO/c1-7-5-3(2-8)4(5)6(7)9-7/h3-6H,1H3/t3-,4+,5-,6+,7-/m1/s1
