18
gdb 86115	2.96912	1.3174	0.94368	3.786	76.04	-0.2202	-0.0106	0.2096	1222.162	0.148443	-439.143089	-439.134609	-439.133665	-439.175976	32.572	
C	 0.0349976671	 1.5290614866	 0.0515285243	-0.482652
C	-0.0187811008	 0.0306705424	 0.0118276531	 0.253298
C	-0.0509898067	-0.654819038	-1.1350237678	-0.068694
N	-0.0863914661	-2.0625761441	-1.1728196546	-0.344339
C	-0.3136012651	-2.8333031013	-0.0711703984	 0.39335
O	-0.2038819026	-4.0476301477	-0.0549608158	-0.391535
C	-0.7698867457	-2.0583577752	 1.1681379446	 0.030982
O	-0.6367586228	-2.8694813927	 2.3017372705	-0.440503
C	-0.0028137989	-0.7410215807	 1.3136746319	-0.325745
H	 0.9181583891	 1.8759070948	 0.6038494423	 0.129534
H	 0.074307426	 1.9611472699	-0.9524845207	 0.121266
H	-0.8382816325	 1.94864743	 0.5671829793	 0.12852
H	-0.0425091861	-0.1788919007	-2.1086033505	 0.111571
H	 0.1602803821	-2.5503292322	-2.0210907335	 0.258323
H	-1.8328758265	-1.8101020289	 0.9836577814	 0.093438
H	-0.5167334825	-3.7683813176	 1.954324124	 0.292985
H	 1.0308539222	-0.9600598987	 1.6201059266	 0.121742
H	-0.4463713201	-0.1557255559	 2.1252982234	 0.118458
103.1627	122.6471	204.24	273.1229	300.4409	322.4882	368.3358	434.8394	451.0992	479.6069	499.6678	549.7406	598.5618	676.2556	744.5395	801.8506	856.9871	898.4817	977.8672	1012.608	1057.7766	1084.761	1129.8862	1141.867	1175.277	1221.2961	1276.0608	1292.1152	1321.6004	1382.2767	1395.3298	1419.357	1455.0489	1465.9587	1475.6051	1483.0305	1494.8916	1740.7377	1787.0209	2919.6765	3005.9917	3014.0604	3058.5904	3075.7067	3106.2881	3199.1668	3621.339	3681.7568
CC1=CNC(=O)C(O)C1	CC1=CNC(=O)[C@@H](O)C1	
InChI=1S/C6H9NO2/c1-4-2-5(8)6(9)7-3-4/h3,5,8H,2H2,1H3,(H,7,9)	InChI=1S/C6H9NO2/c1-4-2-5(8)6(9)7-3-4/h3,5,8H,2H2,1H3,(H,7,9)/t5-/m0/s1
