18
gdb 45085	2.41098	2.05008	1.422	3.7669	74.96	-0.2422	0.0076	0.2498	949.0135	0.150481	-401.949114	-401.94211	-401.941166	-401.980314	28.471	
O	-0.3037929725	 0.6960604498	 1.2557459007	-0.340897
C	-0.1563823941	 1.3654526795	 0.2599399605	 0.337525
C	-1.2845758845	 1.769251329	-0.684717268	-0.305286
C	-1.3596990543	 3.2907393469	-0.7918307142	-0.031823
C	-1.0451137674	 4.1065909567	 0.435555192	-0.315761
C	-0.0473819274	 4.0480572789	-0.699277254	-0.029727
C	 1.2054871177	 3.219967406	-0.644851011	-0.035078
C	 1.881409407	 2.7826304532	 0.6262853838	-0.254797
N	 1.0837278561	 1.8552951935	-0.1560035642	-0.076685
H	-1.0990178063	 1.3367023101	-1.6755576656	 0.123499
H	-2.2142523221	 1.3492064545	-0.2939561586	 0.128162
H	-2.1190695383	 3.6693834168	-1.4688424723	 0.092098
H	-1.5652663073	 5.045827638	 0.5848589401	 0.116795
H	-0.8363038244	 3.5718156884	 1.3566979411	 0.138422
H	 0.0461798142	 4.9477942047	-1.2983502803	 0.092798
H	 1.8345971245	 3.316926721	-1.5286193258	 0.099726
H	 2.9520199898	 2.5985209457	 0.6317412074	 0.126732
H	 1.4661517893	 3.1183541274	 1.5725096983	 0.134297
121.4659	200.9305	268.8666	339.7207	403.543	433.1264	522.2265	548.2555	635.9477	687.3334	741.2289	774.3356	812.0131	851.0001	894.7716	935.918	966.8568	988.3158	1011.3775	1055.2216	1075.8301	1086.8252	1107.2427	1120.3009	1127.8548	1132.6934	1173.238	1179.1357	1214.8105	1231.5111	1304.4703	1359.3441	1379.7155	1409.4015	1418.6234	1472.7119	1500.3848	1511.2856	1806.5236	3038.2451	3109.6426	3112.0615	3114.9885	3135.7437	3151.9901	3163.6597	3203.463	3219.316
O=C1CC2CC2C2CN12	O=C1C[C@H]2C[C@H]2[C@H]2CN12	
InChI=1S/C7H9NO/c9-7-2-4-1-5(4)6-3-8(6)7/h4-6H,1-3H2	InChI=1S/C7H9NO/c9-7-2-4-1-5(4)6-3-8(6)7/h4-6H,1-3H2/t4-,5-,6-,8?/m1/s1
