19
gdb 115943	3.39894	1.19854	0.97519	1.3888	71.1	-0.2349	0.0662	0.3011	1216.9503	0.159783	-460.126143	-460.117917	-460.116973	-460.15908	31.687	
O	-0.0071113694	 1.3930492114	 0.1773033575	-0.423194
C	 0.0321813802	-0.0034280351	-0.0253103776	-0.068196
C	-1.3708310601	-0.5977767495	-0.0451381762	 0.080625
C	-1.3957925909	-2.1132475594	-0.1814741082	-0.096452
O	-2.7267166667	-2.6148765593	-0.1945400033	-0.26066
C	-3.613075334	-2.0068080271	 0.6981839485	 0.102955
C	-3.4113334123	-1.9860961373	 2.1959758962	-0.347706
C	-3.2616102186	-0.7149183166	 1.380478253	 0.05421
O	-1.9576240134	-0.2288277322	 1.2094784378	-0.28783
H	-0.5886553483	 1.5306516782	 0.934827545	 0.292221
H	 0.5232754473	-0.1778238872	-0.9882914567	 0.11047
H	 0.6248310842	-0.5085779068	 0.7549261229	 0.090553
H	-1.9486747492	-0.1465651394	-0.8658728756	 0.086379
H	-0.9484633599	-2.4298079866	-1.1284669463	 0.116402
H	-0.8175566411	-2.5622422927	 0.640966164	 0.100176
H	-4.6281604465	-2.1304823459	 0.3358653336	 0.109624
H	-4.2821847063	-2.1108381922	 2.8302618348	 0.116159
H	-2.4891432228	-2.3898167509	 2.5983350381	 0.126467
H	-4.0048410622	 0.0747142787	 1.4655328025	 0.097796
99.8466	108.2942	177.9173	210.8605	321.8438	369.2088	424.1556	453.2096	466.6461	510.0213	540.6948	705.9091	755.9124	801.463	821.9452	899.892	935.3934	989.9578	1002.9963	1045.5207	1064.554	1090.651	1096.4341	1119.416	1122.0173	1125.0042	1168.1707	1188.024	1240.4846	1257.0914	1275.5671	1302.7793	1348.0909	1384.7339	1389.8308	1406.5698	1427.1407	1445.026	1472.6757	1495.4655	1503.4217	2971.5233	2986.5801	3004.7671	3075.5619	3087.5535	3123.1769	3136.5994	3165.7378	3228.8206	3791.5509
OCC1COC2CC2O1	OC[C@H]1CO[C@H]2C[C@H]2O1	
InChI=1S/C6H10O3/c7-2-4-3-8-5-1-6(5)9-4/h4-7H,1-3H2	InChI=1S/C6H10O3/c7-2-4-3-8-5-1-6(5)9-4/h4-7H,1-3H2/t4-,5-,6+/m0/s1
