16
gdb 42451	4.34955	0.83685	0.80957	4.2144	71.25	-0.2929	-0.0078	0.2852	1434.9617	0.123537	-437.915173	-437.906319	-437.905375	-437.950866	30.773	
O	 0.364235295	 0.320821558	-0.8031076538	-0.369899
C	 0.098001944	 1.2228034325	-0.0495262279	 0.478896
O	 1.0054264137	 1.7612452321	 0.8211294615	-0.246603
C	 2.3153964881	 1.1963873477	 0.7641421795	-0.200428
C	 3.1607553826	 1.8956700173	-0.2106413762	 0.267268
N	 3.8401376755	 2.4469982012	-0.9641247143	-0.293849
C	-1.2113873484	 1.8946636024	 0.0817041214	-0.138627
C	-2.0310731746	 2.0550856245	-1.1908919498	-0.24776
C	-2.450613366	 1.0503597473	-0.1741756324	-0.251569
H	 2.7426017902	 1.3092211023	 1.7629923265	 0.164474
H	 2.2611182584	 0.1378075254	 0.4974601025	 0.180656
H	-1.2622686194	 2.6764668559	 0.8276514566	 0.112038
H	-2.5968518074	 2.9739021197	-1.2890694353	 0.128269
H	-1.5721951727	 1.6892946897	-2.1016051079	 0.146841
H	-2.2752653609	 0.0050105329	-0.3987324937	 0.143576
H	-3.3148758181	 1.2574519712	 0.4457297432	 0.126718
21.7695	51.3351	91.2862	198.1811	230.1459	301.1907	332.5475	365.7464	390.4827	607.0235	661.9047	756.775	784.6557	833.0619	839.0611	914.9511	919.1523	936.6325	1035.1174	1053.0663	1066.5906	1097.3313	1119.7133	1128.6979	1168.4699	1208.8476	1223.6893	1299.9185	1384.2677	1422.556	1456.812	1457.6268	1490.0977	1819.7284	2368.7489	3075.916	3129.7261	3146.9566	3149.1669	3204.1727	3234.4203	3248.8165
O=C(OCC#N)C1CC1	O=C(OCC#N)C1CC1	
InChI=1S/C6H7NO2/c7-3-4-9-6(8)5-1-2-5/h5H,1-2,4H2	InChI=1S/C6H7NO2/c7-3-4-9-6(8)5-1-2-5/h5H,1-2,4H2
