18
gdb 16534	2.86954	2.24514	1.75616	1.8807	66.32	-0.247	0.0491	0.2962	825.3321	0.154934	-384.905694	-384.898302	-384.897358	-384.937516	28.871	
O	 0.3489496491	 1.1352484223	-0.5609691216	-0.435132
C	 0.0195075354	-0.1663928313	-0.1520182115	 0.102297
C	 0.2193152742	-0.4312086145	 1.3832691306	 0.057256
O	 0.6342247956	 0.711890363	 2.1167987362	-0.424042
C	-1.280621407	-0.7664742555	 1.5346326018	-0.041117
C	-2.2051722954	 0.4499568638	 1.8158644688	-0.231744
C	-2.4267758319	 0.6502194917	 0.2852932943	-0.230378
C	-1.4898638144	-0.5444592247	-0.0132816173	-0.050929
H	 0.4117219989	 1.6541849545	 0.254016616	 0.282376
H	 0.5677761114	-0.8693670271	-0.7884864575	 0.073139
H	 0.8732970435	-1.2844877394	 1.5960447233	 0.069242
H	 1.5963171357	 0.7270657255	 2.1341441517	 0.294358
H	-1.5140671031	-1.6948852852	 2.0569007905	 0.060126
H	-3.1139322868	 0.1737810102	 2.3551789867	 0.098076
H	-1.7289461092	 1.2743679351	 2.349500484	 0.115189
H	-3.4588265587	 0.482719011	-0.0304404326	 0.096108
H	-2.0872544331	 1.5998111326	-0.1344630483	 0.107557
H	-1.8529629542	-1.3184072022	-0.6903837352	 0.057619
48.8522	216.7896	251.0446	259.0483	273.3589	485.3628	534.9975	541.4453	559.8527	659.6246	724.127	783.2747	804.3713	851.737	873.9204	894.9444	960.2849	1002.8226	1030.6551	1044.7791	1078.8974	1122.9489	1136.2913	1155.8738	1203.8029	1212.6194	1217.0344	1247.5304	1263.2292	1271.3626	1290.4717	1308.9262	1323.0915	1348.4226	1417.8773	1437.366	1479.3814	1496.5539	3026.3491	3045.5427	3065.1608	3071.4603	3092.49	3104.5078	3111.4929	3129.6857	3723.5164	3824.8745
OC1C(O)C2CCC12	O[C@H]1[C@@H](O)[C@H]2CC[C@@H]12	
InChI=1S/C6H10O2/c7-5-3-1-2-4(3)6(5)8/h3-8H,1-2H2	InChI=1S/C6H10O2/c7-5-3-1-2-4(3)6(5)8/h3-8H,1-2H2/t3-,4+,5-,6+
