17
gdb 55129	2.55002	1.50361	1.15333	4.1555	68.56	-0.2154	0.0312	0.2466	1078.5322	0.135323	-455.113987	-455.105114	-455.10417	-455.148378	33.116	
N	-0.149391305	 1.2998351684	 0.0961153017	-0.52198
C	 0.1440110549	-0.0426366403	 0.0963827091	 0.377287
O	 1.2749875137	-0.4763800516	 0.0878961113	-0.350026
C	-1.1193005724	-0.8964156814	 0.1138557703	-0.142865
N	-0.9597996003	-2.3779945051	 0.239687515	-0.310944
C	-1.9103656484	-2.3824634761	 1.3735114509	-0.081009
C	-1.2619557079	-1.6191936383	 2.5049281996	-0.343468
C	-1.9529571601	-0.8633732377	 1.4043482683	 0.348913
O	-2.9435482602	 0.08815761	 1.5890725763	-0.465023
H	 0.6134381899	 1.9401782901	 0.249418253	 0.257104
H	-1.0820841362	 1.6133204822	 0.3144477793	 0.256885
H	-1.762089137	-0.6189633843	-0.7300310214	 0.102877
H	-1.3498135192	-2.8423884179	-0.5737173013	 0.225825
H	-2.6602497978	-3.1506840365	 1.5122246167	 0.105116
H	-1.8257388098	-1.6431291771	 3.4342570551	 0.109736
H	-0.1796123824	-1.6206233321	 2.6073801513	 0.139318
H	-2.8198539519	 0.4920515078	 2.4541093448	 0.292254
25.8978	122.1099	125.5887	201.0415	301.4597	348.8415	365.9827	405.7048	427.242	464.4221	550.1375	598.2707	649.818	685.9227	764.5819	823.5028	861.2825	898.142	926.9777	964.8654	1000.7759	1020.4022	1069.8189	1078.6178	1094.9894	1114.5857	1171.4654	1195.6566	1243.906	1291.6822	1327.823	1376.4655	1402.4855	1404.5667	1487.4393	1619.2699	1816.987	3040.	3105.5533	3195.6232	3202.3604	3526.9278	3576.781	3710.8889	3812.9679
NC(=O)C1NC2CC12O	NC(=O)[C@H]1N[C@H]2C[C@@]12O	
InChI=1S/C5H8N2O2/c6-4(8)3-5(9)1-2(5)7-3/h2-3,7,9H,1H2,(H2,6,8)	InChI=1S/C5H8N2O2/c6-4(8)3-5(9)1-2(5)7-3/h2-3,7,9H,1H2,(H2,6,8)/t2-,3+,5-/m0/s1
