21
gdb 58652	1.85596	1.49529	1.16892	4.7884	83.76	-0.2506	0.0252	0.2758	1219.7612	0.180437	-383.260043	-383.249799	-383.248855	-383.29475	37.621	
C	 0.7501198764	-2.1949857559	-1.4629319391	-0.404074
C	 0.2373307303	-1.3668260158	-0.2748151795	-0.046701
C	 0.9222356218	 0.0065527917	-0.2118666242	-0.407379
C	-1.2888391423	-1.2331550138	-0.3338764114	 0.16578
C	-2.1619348479	-2.3374697385	 0.1958283895	-0.282911
N	-2.1457399085	-1.0455386111	 0.8491823837	-0.113827
C	-1.5656221864	-0.9367554529	 2.1801552152	-0.324889
C	-1.7696393228	-0.4972053969	-1.4929387444	 0.290916
N	-2.1229586137	 0.0761358724	-2.4329420206	-0.356349
H	 1.8365266849	-2.3124589923	-1.4049860214	 0.117941
H	 0.3005061213	-3.1925398574	-1.4789855272	 0.117828
H	 0.516038322	-1.7042051627	-2.4131802894	 0.143473
H	 0.4724525717	-1.9156296332	 0.6431493968	 0.08186
H	 0.7037790864	 0.5928474047	-1.1102916224	 0.144658
H	 0.5902335897	 0.5857337837	 0.6546989067	 0.12049
H	 2.0077903082	-0.1117331666	-0.1433238917	 0.118074
H	-3.0810197403	-2.6105875285	-0.3147524102	 0.136061
H	-1.6327770619	-3.164853938	 0.6701696901	 0.115092
H	-0.7241473347	-1.6173834671	 2.375959009	 0.109269
H	-1.2330619787	 0.0911632671	 2.3489653601	 0.138106
H	-2.3534451954	-1.1599948789	 2.9058863904	 0.136582
79.3772	139.7873	149.6953	170.3408	205.7563	218.0791	235.6695	250.8254	328.4133	344.6755	374.6713	463.9241	487.0827	579.775	589.426	651.3386	809.281	867.8293	900.0563	934.3998	938.6885	969.7094	1043.9953	1068.5671	1122.6291	1129.6238	1134.074	1162.7808	1196.9867	1202.1156	1265.0255	1312.8571	1338.6173	1390.0711	1404.1141	1426.0535	1449.729	1486.2805	1488.1705	1493.274	1498.5492	1503.8731	1507.5628	1511.2651	2351.5647	2991.3728	3036.5867	3040.6883	3052.8744	3080.0448	3081.6121	3107.9692	3109.9592	3112.115	3114.7337	3116.4953	3181.4479
CC(C)C1(CN1C)C#N	CC(C)[C@]1(CN1C)C#N	
InChI=1S/C7H12N2/c1-6(2)7(4-8)5-9(7)3/h6H,5H2,1-3H3	InChI=1S/C7H12N2/c1-6(2)7(4-8)5-9(7)3/h6H,5H2,1-3H3/t7-,9?/m1/s1
