22
gdb 117330	4.07855	0.61936	0.61266	2.1627	80.96	-0.2421	0.0358	0.2778	1945.4176	0.191617	-441.524114	-441.512635	-441.51169	-441.563394	39.767	
C	 0.3807197546	 1.6462617805	-0.2942034464	-0.381014
C	 0.0237306751	 0.1930129446	 0.0423117917	 0.052468
C	 0.4566754023	-0.776869401	-1.062044778	-0.384877
N	 0.5991934587	-0.2037484698	 1.3244505946	-0.325041
C	-0.143603149	-0.4314994854	 2.4460753052	 0.41913
O	-1.3628115775	-0.370197155	 2.461067597	-0.384045
C	 0.6710847819	-0.7559406347	 3.6942376843	-0.311094
C	-0.1340436449	-1.566392513	 4.7012368865	-0.065852
O	 0.683776349	-1.7420344969	 5.8498242378	-0.426412
H	 1.4648174485	 1.771138833	-0.4043687219	 0.106283
H	-0.0860798317	 1.9508160805	-1.2362848385	 0.118705
H	 0.0375734737	 2.3222072452	 0.4936928588	 0.1276
H	-1.0564117139	 0.1159087954	 0.1906323628	 0.126509
H	 1.544588533	-0.7558956119	-1.20230413	 0.106988
H	 0.1647020034	-1.8017961006	-0.8175696061	 0.125244
H	-0.0039803046	-0.5049663658	-2.0167130789	 0.120218
H	 1.6034482053	-0.2584239177	 1.3953018973	 0.23765
H	 1.5932618252	-1.2891807591	 3.4374096539	 0.108457
H	 0.9752195854	 0.1866369054	 4.1670609137	 0.135104
H	-1.0622558872	-1.0289968978	 4.9312280806	 0.114713
H	-0.4185592008	-2.533247229	 4.2583858796	 0.092752
H	 0.1659152636	-2.2062022069	 6.513637526	 0.286515
13.8873	35.597	62.7611	98.1299	137.9165	227.0319	234.0679	261.2045	265.8317	283.9462	376.2975	413.1742	437.4042	464.7524	473.0971	619.6187	730.3426	811.0476	850.514	927.248	931.2863	948.3155	985.1741	1045.5534	1073.0002	1081.0689	1146.4879	1173.4959	1191.8889	1205.9098	1222.5277	1258.9637	1305.0208	1343.113	1364.6431	1382.9148	1399.2187	1418.7068	1456.6378	1472.466	1483.8174	1488.4875	1495.9776	1506.13	1526.5384	1538.6399	1765.6779	2986.9745	3025.4377	3029.4843	3034.1453	3043.9627	3078.761	3082.2075	3091.8544	3109.4665	3117.0699	3119.9284	3622.8354	3832.5561
CC(C)NC(=O)CCO	CC(C)NC(=O)CCO	
InChI=1S/C6H13NO2/c1-5(2)7-6(9)3-4-8/h5,8H,3-4H2,1-2H3,(H,7,9)	InChI=1S/C6H13NO2/c1-5(2)7-6(9)3-4-8/h5,8H,3-4H2,1-2H3,(H,7,9)
