20
gdb 96853	2.33486	1.30962	1.05069	1.2905	78.57	-0.2496	0.0254	0.275	1263.3811	0.167737	-440.288778	-440.278296	-440.277351	-440.324267	37.322	
C	 0.268157237	 1.4216767582	-0.188310797	-0.340181
N	 0.3590477536	-0.0323615385	-0.1595167651	-0.350696
C	 0.4836309195	-0.6182232847	 0.9389118114	 0.432251
O	 0.5505020531	-0.1434291228	 2.2316651505	-0.292353
C	 0.8226727858	-1.4943361863	 2.7594265666	 0.13518
C	-0.135411792	-1.8736068584	 3.86316462	-0.415952
C	 0.682470289	-2.0763034666	 1.3217955021	 0.196451
C	-0.4748798617	-3.0151923812	 1.0148451752	-0.446154
O	 1.9168533721	-2.6126335457	 0.8802202293	-0.471114
H	 0.9890215954	 1.8097433174	-0.9156019196	 0.126054
H	-0.7281853273	 1.7148424673	-0.5384695531	 0.128084
H	 0.4514654782	 1.8983727801	 0.7816554276	 0.127793
H	 1.8641022766	-1.5472300848	 3.0880615878	 0.104671
H	-1.1764442275	-1.7908357371	 3.5408303499	 0.127778
H	 0.0512855831	-2.9026536832	 4.1869694227	 0.130419
H	 0.00760563	-1.2157654519	 4.7255064074	 0.134856
H	-1.4282351754	-2.6305307864	 1.3868204372	 0.123507
H	-0.5661747183	-3.1333030035	-0.0693750576	 0.131042
H	-0.2889473276	-3.998480032	 1.4565233855	 0.126625
H	 1.9661384365	-2.46236463	-0.0712414807	 0.291738
77.695	80.942	118.3049	164.8885	199.9202	204.0119	221.5075	268.9401	303.5235	317.6244	361.7124	394.5735	488.1682	598.3336	660.4678	728.5698	757.1419	837.9473	870.1836	973.6102	1020.2404	1025.6218	1054.8228	1092.8033	1128.0699	1135.3544	1159.3972	1175.2152	1197.2197	1252.3493	1328.732	1361.6074	1380.9402	1409.1632	1413.2751	1440.0583	1475.6022	1485.4738	1492.9551	1493.5455	1498.1682	1502.9286	1845.6087	3017.4117	3041.2529	3044.8903	3078.5244	3081.6311	3090.0359	3113.3363	3114.7424	3121.8513	3129.4568	3797.6502
CN=C1OC(C)C1(C)O	CN=C1O[C@@H](C)[C@]1(C)O	
InChI=1S/C6H11NO2/c1-4-6(2,8)5(7-3)9-4/h4,8H,1-3H3	InChI=1S/C6H11NO2/c1-4-6(2,8)5(7-3)9-4/h4,8H,1-3H3/t4-,6-/m0/s1
