18
gdb 65123	3.49169	1.25448	1.02419	2.2565	73.85	-0.2356	0.0213	0.2569	1185.3876	0.147879	-439.085161	-439.076642	-439.075698	-439.119004	31.449	
O	 0.044564421	 1.3777227746	 0.0148676678	-0.459766
C	 0.006557299	-0.0175497357	-0.0143628243	 0.309508
C	-0.4201702452	-0.7609758168	 1.2461366223	-0.309782
C	-1.3544062731	-0.6345043984	 0.069333366	-0.294815
C	 1.0380348919	-0.6626744117	-0.8637428294	 0.371322
N	 1.0048925447	-1.8297324244	-1.3623880763	-0.32921
C	 2.294956561	-2.0358531945	-2.0351977775	-0.187008
C	 3.0372367383	-0.6815436243	-1.885727562	-0.114196
O	 2.1517678511	 0.1039302995	-1.0555317087	-0.276599
H	 0.9617209731	 1.6379530041	 0.1584137102	 0.291328
H	 0.0300434497	-1.7265141785	 1.444598847	 0.126889
H	-0.6114579844	-0.1356939628	 2.1107986338	 0.121682
H	-2.1757026761	 0.0676430196	 0.1524733269	 0.1278
H	-1.5340497285	-1.5105199166	-0.5413739346	 0.14425
H	 2.8364388956	-2.862680261	-1.5616233638	 0.116288
H	 2.1360727174	-2.3108559579	-3.0827080844	 0.119203
H	 4.00269381	-0.7576965748	-1.3793110395	 0.120928
H	 3.1735663144	-0.1533871305	-2.8339811834	 0.122177
49.9445	91.0507	149.9425	183.3536	283.5273	308.5364	341.0944	420.229	485.5358	546.8857	718.346	751.9681	779.8327	834.2397	852.3157	906.6202	918.9974	939.8221	969.3907	994.7775	1010.435	1024.6789	1056.0891	1088.2952	1121.2514	1156.4299	1200.1322	1215.9061	1245.4014	1259.9086	1302.218	1355.38	1380.5937	1423.5578	1441.9139	1491.7652	1504.7147	1526.857	1737.5791	3036.8431	3055.3704	3070.0377	3106.6418	3139.177	3149.0163	3233.5908	3249.6797	3801.6068
OC1(CC1)C1=NCCO1	OC1(CC1)C1=NCCO1	
InChI=1S/C6H9NO2/c8-6(1-2-6)5-7-3-4-9-5/h8H,1-4H2	InChI=1S/C6H9NO2/c8-6(1-2-6)5-7-3-4-9-5/h8H,1-4H2
