21
gdb 57457	2.90923	1.3341	1.21524	2.9162	77.37	-0.249	0.071	0.3201	1138.2468	0.180709	-424.193881	-424.184851	-424.183907	-424.227021	35.652	
C	 0.2080059553	 1.5544863072	 0.0415938019	-0.410511
C	-0.0166344029	 0.0327673497	 0.0273772423	 0.345779
C	 0.5884721066	-0.6124203602	 1.2778188611	-0.402032
O	-1.4152112081	-0.2469344869	 0.0868407901	-0.476522
C	 0.6072480006	-0.5821238803	-1.2407779306	-0.045491
C	 0.1438360752	-2.0216415492	-1.6849360713	-0.285087
C	-0.3083788063	-1.4115744977	-3.0169056622	 0.029258
O	-1.2769892863	-0.385944378	-2.7284798571	-0.254132
C	 0.1244901444	-0.0656771543	-2.6128332565	-0.002669
H	 1.2737817424	 1.8079803977	 0.012551992	 0.1019
H	-0.2797091177	 2.0259442181	-0.8177372434	 0.112657
H	-0.225130027	 1.9843300703	 0.9489525607	 0.121208
H	 0.0647083013	-0.2503420122	 2.1671004246	 0.122859
H	 0.4789824331	-1.7001682402	 1.2430934328	 0.117213
H	 1.6512026638	-0.3694849419	 1.3760905905	 0.103747
H	-1.7623268535	-0.1680521968	-0.8127515895	 0.287903
H	 1.6986237943	-0.5271789422	-1.1813559337	 0.079575
H	 0.9777430954	-2.7179997612	-1.7951005448	 0.108189
H	-0.6492282111	-2.4765364942	-1.0895525202	 0.127661
H	-0.3721658826	-1.865489248	-3.9983929623	 0.110554
H	 0.4776216533	 0.7735299702	-3.2005549045	 0.107942
83.3287	181.3307	192.3732	216.7891	252.7267	301.0123	342.3765	357.0076	387.6336	452.151	506.7725	525.006	605.5265	725.6264	756.0272	834.8367	844.9109	874.5083	914.3189	927.4667	941.4115	968.5053	977.202	1001.7381	1023.4802	1032.5076	1070.6389	1140.073	1161.6014	1203.6126	1211.3318	1238.8309	1242.6255	1250.2786	1279.7917	1323.8955	1383.9735	1393.9035	1411.7171	1434.7879	1471.5847	1475.3716	1486.0687	1501.0536	1506.9862	3029.487	3039.6653	3063.2188	3078.8647	3098.3012	3112.7987	3114.4577	3118.6488	3139.1733	3183.942	3200.4733	3728.3464
CC(C)(O)C1CC2OC12	CC(C)(O)[C@H]1C[C@H]2O[C@@H]12	
InChI=1S/C7H12O2/c1-7(2,8)4-3-5-6(4)9-5/h4-6,8H,3H2,1-2H3	InChI=1S/C7H12O2/c1-7(2,8)4-3-5-6(4)9-5/h4-6,8H,3H2,1-2H3/t4-,5+,6-/m0/s1
