19
gdb 73601	2.32291	1.60995	1.31161	1.4832	81.84	-0.2218	0.0454	0.2671	1075.0113	0.158533	-385.852799	-385.844141	-385.843197	-385.885727	33.381	
C	 0.0628581613	 1.5697876972	 0.0023307754	-0.463239
C	 0.0049083262	 0.0747183913	 0.1418487018	 0.434273
O	-1.2815793023	-0.4292137083	-0.0736992547	-0.295754
C	-1.4416885794	-1.6823740137	 0.604831975	-0.091896
C	-0.2867334154	-1.8032569249	 1.629475618	-0.255688
C	 0.7045490388	-0.7462254992	 1.1778183401	-0.132028
C	 1.1987681884	-0.7980635142	-0.2787353643	-0.326614
C	 1.0823313672	-1.9604795715	-1.1037300225	 0.350004
C	 1.0140029557	-2.9347783738	-1.8079061527	-0.447881
H	 1.0758571891	 1.9392537665	 0.1819703891	 0.118432
H	-0.2396558466	 1.8725763499	-1.0049714303	 0.135341
H	-0.6153940913	 2.0448016949	 0.7183193013	 0.125849
H	-2.4302250816	-1.6823161848	 1.0750215764	 0.104075
H	-1.4013035477	-2.4956100265	-0.1247110929	 0.121865
H	-0.6234029169	-1.5685438065	 2.64395389	 0.108906
H	 0.1319341011	-2.8136247494	 1.6387233315	 0.117651
H	 1.3700285866	-0.3030530595	 1.9100113574	 0.093277
H	 2.1114526603	-0.2302571621	-0.4438531428	 0.110743
H	 0.9422799667	-3.7857764953	-2.4384459357	 0.192685
113.0435	130.1206	181.8588	199.2181	213.8789	321.8642	352.3352	369.3081	541.9277	567.4815	589.591	645.8089	653.2758	699.4282	718.8837	800.3211	842.4599	851.8201	920.4596	943.5466	978.1758	1025.6286	1035.8623	1083.5414	1106.8074	1122.2259	1128.9148	1213.66	1230.1678	1245.3887	1258.4088	1317.9387	1340.9191	1399.2534	1410.2485	1443.5155	1477.782	1491.9275	1501.5905	1525.7751	2227.6961	3039.2653	3046.7776	3055.7792	3084.0419	3104.6478	3106.4625	3120.069	3132.4027	3172.7499	3503.8081
CC12OCCC1C2C#C	C[C@]12OCC[C@H]1[C@H]2C#C	
InChI=1S/C8H10O/c1-3-6-7-4-5-9-8(6,7)2/h1,6-7H,4-5H2,2H3	InChI=1S/C8H10O/c1-3-6-7-4-5-9-8(6,7)2/h1,6-7H,4-5H2,2H3/t6-,7+,8-/m1/s1
