18
gdb 103057	2.49873	1.48654	1.11637	4.5436	76.36	-0.252	0.0191	0.2711	1123.8	0.148925	-398.080103	-398.071582	-398.070637	-398.113288	32.1	
N	 0.3858621887	 1.3396767413	-0.5014041129	-0.500642
C	-0.0513208998	 0.0358064557	-0.0170724745	-0.254289
C	 0.8155568846	-0.5761770879	 1.0897332226	 0.135575
C	 0.8197696339	 0.2532222131	 2.2814522186	 0.272892
N	 0.7653578097	 0.9436701022	 3.207296275	-0.344006
C	 1.0201404213	-2.0305270423	 1.343931567	-0.054134
C	 0.9999520146	-2.8575030406	 0.060855087	-0.270394
C	 2.1268940612	-1.919116647	-0.4408327352	-0.165943
N	 2.172570221	-1.1677797145	 0.8695802144	-0.164579
H	 0.3634718142	 2.0168959672	 0.2559923964	 0.247778
H	 1.3521449937	 1.2933416927	-0.8121768203	 0.236841
H	-1.0694671143	 0.1364122316	 0.3741647786	 0.131574
H	-0.1155940756	-0.6497510884	-0.8646717315	 0.120259
H	 0.9857219874	-2.4283603859	 2.353093055	 0.117948
H	 1.347230688	-3.8788289228	 0.2231047943	 0.126204
H	 0.059776165	-2.8926603403	-0.4950855653	 0.11945
H	 3.0844076221	-2.4227062125	-0.5798205609	 0.129397
H	 1.9283100743	-1.2985131017	-1.3184171081	 0.116069
77.499	147.7245	156.0033	195.0491	262.0224	316.0395	335.6128	438.2936	444.5829	539.7234	565.8438	658.8714	775.4667	784.9497	827.7588	851.7297	884.7198	913.3957	957.6282	972.9328	998.984	1033.8524	1094.4607	1120.4386	1127.4691	1154.3287	1215.1921	1250.2482	1262.2219	1280.0121	1296.2714	1365.8378	1379.6296	1402.5872	1475.0216	1489.5537	1512.5406	1670.7513	2354.2333	3056.2457	3067.004	3072.1529	3106.9416	3117.7153	3134.6284	3167.3226	3490.8494	3568.206
NCC1(C#N)C2CCN12	NC[C@@]1(C#N)[C@H]2CCN12	
InChI=1S/C6H9N3/c7-3-6(4-8)5-1-2-9(5)6/h5H,1-3,7H2	InChI=1S/C6H9N3/c7-3-6(4-8)5-1-2-9(5)6/h5H,1-3,7H2/t5-,6-,9?/m1/s1
