17
gdb 125925	3.80116	1.34888	1.14073	4.2142	74.16	-0.2191	0.005	0.2241	1080.1052	0.138599	-418.003908	-417.996636	-417.995691	-418.035635	28.65	
C	 0.2240613353	 1.494927373	 0.0607702161	-0.393029
C	-0.0560417395	-0.0072155331	-0.0324368521	 0.033351
C	 0.618348251	-0.6597976421	-1.2951958799	-0.37912
C	 1.8553059196	-1.264309102	-0.7038043588	 0.158681
C	 3.0648104089	-1.8282590836	-0.9029936014	-0.081424
O	 3.6318573116	-2.1476356062	 0.2819154981	-0.189151
N	 2.7581182696	-1.7793646824	 1.3424168116	-0.286705
C	 1.7324979213	-1.2719315534	 0.7117195095	 0.434323
N	 0.5188238638	-0.7564740939	 1.1183170599	-0.395858
H	 1.3014364972	 1.691132905	 0.0415634346	 0.132793
H	-0.2386586846	 2.0269311647	-0.7769925029	 0.121799
H	-0.1838074457	 1.9142492944	 0.9868203274	 0.117014
H	-1.1378276079	-0.1717344753	-0.0535424414	 0.089369
H	-0.0367751768	-1.4244826044	-1.7273680023	 0.126421
H	 0.8022576468	 0.0888499113	-2.0706589623	 0.120231
H	 3.6576045581	-2.0654267237	-1.7732083309	 0.145063
H	 0.4712458414	-0.3084321884	 2.0224884148	 0.246242
81.6256	219.733	263.7477	298.7753	344.8728	401.47	480.6847	551.6978	564.5334	656.4133	721.3745	735.8044	807.0131	836.0202	847.4661	868.256	917.2079	943.8167	961.2123	1042.7923	1095.3419	1119.0577	1129.5886	1164.9079	1211.1076	1259.538	1305.4081	1318.6333	1368.7976	1395.2561	1407.8658	1466.9537	1487.0953	1494.6237	1497.3082	1593.3105	1699.9246	3029.416	3037.9956	3055.4737	3087.5573	3100.6787	3108.7143	3258.8353	3599.8454
CC1CC2=CON=C2N1	C[C@H]1Cc2conc2N1	
InChI=1S/C6H8N2O/c1-4-2-5-3-9-8-6(5)7-4/h3-4H,2H2,1H3,(H,7,8)	InChI=1S/C6H8N2O/c1-4-2-5-3-9-8-6(5)7-4/h3-4H,2H2,1H3,(H,7,8)/t4-/m0/s1
