12
gdb 132809	2.32442	1.76153	1.0021	2.4256	60.35	-0.2543	-0.0129	0.2414	1025.7053	0.076017	-529.891483	-529.884656	-529.883712	-529.922864	26.019	
F	 0.0245070676	 0.0203043921	 0.0040352039	-0.060308
C	-0.0227180297	 1.3508517935	 0.0110324667	 0.191567
C	-1.2393699392	 2.0165302643	 0.030384262	-0.255577
C	-1.2502855404	 3.4089720852	 0.0371902196	-0.089806
C	-0.0598054618	 4.1312338116	 0.0248392356	-0.255577
C	 1.1457759294	 3.4457069413	 0.0055453906	 0.191566
F	 2.3026705957	 4.1045564195	-0.0066772988	-0.060309
C	 1.1786494056	 2.0540290349	-0.0015609549	 0.01631
F	 2.3387998745	 1.4068577988	-0.0200717574	-0.042446
H	-2.1529623756	 1.4351515605	 0.0397367351	 0.123546
H	-2.1964274281	 3.9367610601	 0.0522826077	 0.117487
H	-0.0451180979	 5.2140537984	 0.02982782	 0.123546
155.1844	256.8114	270.184	303.3253	311.8221	483.2391	505.7395	551.227	579.4659	587.5639	684.3262	705.2836	781.7274	837.3779	885.6774	945.1299	1047.86	1080.32	1173.7037	1266.5757	1271.4694	1339.1343	1342.015	1514.0494	1557.0401	1650.499	1651.5809	3197.3078	3212.6703	3219.1616
FC1=CC=CC(F)=C1F	Fc1cccc(F)c1F	
InChI=1S/C6H3F3/c7-4-2-1-3-5(8)6(4)9/h1-3H	InChI=1S/C6H3F3/c7-4-2-1-3-5(8)6(4)9/h1-3H
