19
gdb 45161	2.83011	1.7484	1.51325	3.497	77.99	-0.2294	-0.0054	0.2239	949.215	0.16335	-385.937611	-385.931018	-385.930074	-385.968457	27.848	
O	 0.0369347056	 0.0500971878	 0.5340468502	-0.342803
C	-0.0025934992	 1.1854079324	 0.1135889517	 0.41414
C	-1.3190666847	 1.9139845156	-0.1684365049	-0.322296
C	-1.0646652572	 3.3357004617	-0.6918523553	-0.051212
C	-0.1574105754	 3.2499811904	-1.9426864933	-0.227724
C	 1.211175157	 2.9749792932	-1.3356285794	-0.056249
C	 1.1976023674	 3.4949508335	 0.0702318845	-0.056242
C	-0.1793322589	 4.0901808731	 0.3289202762	-0.227721
C	 1.2217439621	 1.9826792208	-0.1693609321	-0.144269
H	-1.8882661103	 1.3142031723	-0.8882748463	 0.124594
H	-1.9039865079	 1.9233985211	 0.7587522346	 0.124605
H	-2.0078236056	 3.8495446918	-0.8910025595	 0.072513
H	-0.4890899708	 2.4784826222	-2.6459114723	 0.102127
H	-0.1372416058	 4.2046000233	-2.4810224199	 0.101525
H	 2.0993817703	 3.014989123	-1.9550512968	 0.093231
H	 2.0753984255	 3.9339464224	 0.529528667	 0.093236
H	-0.1623049414	 5.165461258	 0.1168088098	 0.101522
H	-0.5277454138	 3.9598409832	 1.3591467489	 0.102128
H	 2.1523734332	 1.4646117441	 0.031248017	 0.098894
96.9784	318.4787	343.1982	407.7661	440.6955	489.0764	549.3556	583.6437	655.3939	721.6112	776.018	823.6638	843.7235	873.9232	905.7304	915.0981	927.7554	973.5682	988.367	1026.3927	1039.2398	1062.7459	1077.9864	1098.5125	1105.1989	1166.3639	1178.9848	1184.6461	1237.194	1270.6159	1286.6107	1309.8927	1329.9275	1348.3172	1357.9703	1365.3065	1404.3153	1446.6248	1492.0415	1508.6712	1800.3886	3034.3832	3036.5062	3038.425	3074.1252	3077.6439	3079.7308	3082.9366	3176.1994	3178.9872	3191.5962
O=C1CC2CC3C(C2)C13	O=C1C[C@@H]2C[C@H]3[C@@H](C2)[C@@H]13	
InChI=1S/C8H10O/c9-7-3-4-1-5-6(2-4)8(5)7/h4-6,8H,1-3H2	InChI=1S/C8H10O/c9-7-3-4-1-5-6(2-4)8(5)7/h4-6,8H,1-3H2/t4-,5+,6-,8+
