20
gdb 71876	2.92124	1.91147	1.44743	1.0974	84.1	-0.2056	-0.0019	0.2037	964.0617	0.172769	-365.943521	-365.936341	-365.935397	-365.974404	30.292	
C	 0.1008264493	 1.5226909066	 0.069599677	-0.494536
C	-0.0085904848	 0.0081158369	 0.0577163636	 0.331897
C	 0.1240734541	-0.6708186349	-1.3671053308	-0.221805
N	-1.3124894769	-1.1618214664	-1.3734453011	-0.141841
C	-1.4822277602	-2.5931439059	-0.8853047321	-0.220333
C	-1.0295138316	-2.07919931	 0.4751113393	 0.107584
C	 0.1673690053	-2.1395548844	 1.0722059713	-0.157971
C	 0.7574619395	-0.7326469228	 1.1910929788	-0.298723
C	-1.3943854588	-0.6685816242	 0.0632698207	-0.051174
H	 1.1348164796	 1.8443391828	-0.1030021713	 0.115204
H	-0.5213299539	 1.9770409142	-0.7085152725	 0.121583
H	-0.2145343943	 1.9333801402	 1.0355954604	 0.11534
H	 0.2731138514	 0.0441355294	-2.1802054028	 0.108331
H	 0.8751108693	-1.4630627895	-1.4493233899	 0.101035
H	-2.5378148333	-2.8599448961	-0.9879846181	 0.115852
H	-0.8581079639	-3.3481655196	-1.3724925212	 0.110129
H	 0.7743528038	-3.0337765876	 1.164638617	 0.090102
H	 1.8402266638	-0.7482725532	 1.016963955	 0.101822
H	 0.6045858126	-0.2419451	 2.1637676637	 0.099877
H	-2.315060721	-0.1820864855	 0.393478863	 0.067627
226.7326	238.3677	249.9364	312.4449	340.4625	408.0141	419.4281	558.2688	581.8048	668.9659	740.3782	786.9177	803.5334	843.5261	874.3917	889.0298	909.6243	922.718	935.0641	967.3588	983.193	999.7199	1025.5122	1073.6423	1128.6463	1149.2266	1170.7774	1171.0804	1190.3571	1228.5564	1239.9151	1253.3191	1263.9281	1286.8887	1305.5325	1350.6505	1413.3629	1477.6382	1485.1969	1493.7683	1496.6359	1497.5931	1663.0944	2993.7575	3022.4066	3043.2323	3048.9793	3051.7296	3080.7043	3084.4591	3095.4177	3100.9269	3105.0055	3185.0861
CC12CN3CC(=CC1)C23	C[C@@]12CN3C[C]([CH]C1)[C@@H]23	
InChI=1S/C8H11N/c1-8-3-2-6-4-9(5-8)7(6)8/h2,7H,3-5H2,1H3	InChI=1S/C8H11N/c1-8-3-2-6-4-9(5-8)7(6)8/h2,7H,3-5H2,1H3/t7-,8-/m0/s1
