15
gdb 49817	2.83542	1.18792	0.98611	3.037	66.64	-0.2459	-0.1031	0.1428	1175.237	0.110423	-457.803021	-457.794697	-457.793753	-457.837183	29.524	
O	-0.6774988383	 0.5607299832	-0.0612360407	-0.238265
C	-0.1185122811	 1.6239313442	-0.0377624334	 0.171952
C	 1.3846759671	 1.8079859036	 0.0489962315	-0.122382
C	 1.892625308	 2.6417310348	-1.1610493472	-0.361387
C	 1.8051033757	 4.0984632703	-0.7305243873	 0.320708
O	 1.8022168824	 5.0790357798	-1.4216155369	-0.271212
C	 1.7136058675	 4.1139483624	 0.8267999668	 0.320713
O	 1.6309985319	 5.1080114863	 1.4932398269	-0.27121
C	 1.7482922431	 2.6661225005	 1.2933923003	-0.361413
H	-0.6975443059	 2.579153126	-0.0803427581	 0.086031
H	 1.8351725101	 0.8152915781	 0.0852807144	 0.111368
H	 2.9491319185	 2.408676545	-1.3467744475	 0.15395
H	 1.3572392612	 2.4624673989	-2.0963767747	 0.153613
H	 1.1067186215	 2.5048938717	 2.1628823013	 0.153589
H	 2.7754429983	 2.4380022051	 1.6063356847	 0.153945
57.9882	69.2687	83.9373	295.9456	301.4577	316.3084	349.852	427.542	498.771	549.4297	641.7299	691.5824	703.3985	808.7543	911.0887	932.7327	962.9256	984.565	1037.78	1079.1901	1153.98	1164.8868	1196.399	1207.574	1287.9167	1321.9227	1323.683	1433.2679	1436.2225	1448.2185	1842.5488	1845.3185	1862.8208	2834.829	3038.257	3039.8035	3107.2528	3110.5538	3110.6094
O=CC1CC(=O)C(=O)C1	O=CC1CC(=O)C(=O)C1	
InChI=1S/C6H6O3/c7-3-4-1-5(8)6(9)2-4/h3-4H,1-2H2	InChI=1S/C6H6O3/c7-3-4-1-5(8)6(9)2-4/h3-4H,1-2H2
