16
gdb 18606	3.15113	2.08238	1.74773	3.6174	70.38	-0.2362	-0.0512	0.185	817.7499	0.131502	-346.625072	-346.618215	-346.61727	-346.655918	26.636	
C	-0.1034361072	 1.5624611445	-0.021156252	-0.418194
C	 0.0559043328	 0.0607567125	 0.0376464171	 0.001489
C	 1.3515601439	-0.7035878956	-0.2090632468	-0.114512
C	 2.6256903133	 0.0616245722	-0.0728337695	-0.059024
C	 2.8246559701	 0.5018279972	 1.1782857829	-0.202137
C	 1.7068847735	 0.0553702293	 2.0584917732	 0.394952
O	 1.5977641887	 0.2366937234	 3.2496826699	-0.337529
C	 0.7365119128	-0.7004092949	 1.1705460914	-0.18679
H	 0.795640924	 2.0911191561	 0.3009868021	 0.130413
H	-0.3367610061	 1.8821029776	-1.0425443442	 0.119511
H	-0.9284152615	 1.880861295	 0.6244470299	 0.130824
H	-0.8155462587	-0.4721396273	-0.3383895948	 0.100368
H	 1.3208770428	-1.5722717143	-0.8569970121	 0.099643
H	 3.274013634	 0.2594401365	-0.9196033758	 0.116733
H	 3.6393965555	 1.1164458738	 1.5383300583	 0.115644
H	 0.2246191423	-1.5540398061	 1.5967565202	 0.108606
121.6307	205.3155	218.7351	290.3731	408.2338	471.4141	492.5785	621.7582	716.0493	756.1017	771.1218	784.6889	846.246	869.5621	914.0118	947.5026	984.7892	1001.9266	1043.5556	1065.0921	1103.1939	1111.8686	1132.7865	1181.1777	1211.3815	1308.6507	1331.071	1367.2168	1404.921	1424.8682	1495.2633	1499.9867	1630.0272	1808.2301	3038.7989	3096.8425	3119.9993	3136.2936	3172.5314	3191.1738	3196.0877	3229.518
CC1C2C=CC(=O)C12	C[C@H]1[C@H]2C=CC(=O)[C@@H]12	
InChI=1S/C7H8O/c1-4-5-2-3-6(8)7(4)5/h2-5,7H,1H3	InChI=1S/C7H8O/c1-4-5-2-3-6(8)7(4)5/h2-5,7H,1H3/t4-,5+,7-/m0/s1
