13
gdb 18427	3.23737	2.31152	1.81682	4.9425	59.34	-0.2534	-0.0576	0.1958	739.6982	0.094438	-398.579162	-398.572438	-398.571494	-398.610099	24.635	
O	-0.2376912399	 0.3114232716	 0.6688552072	-0.245797
C	 0.1116417624	 1.1379307793	-0.1366308179	 0.149797
C	 1.302346506	 2.0263859552	 0.0158735447	-0.104147
C	 1.4972440741	 2.8926279903	 1.2116784406	-0.041866
C	 0.9757610516	 2.2808886519	 2.5100099874	-0.374145
C	 1.8929254272	 1.0959205127	 2.1619467113	 0.430778
O	 2.2783961588	 0.1167307479	 2.706019652	-0.282076
N	 2.4324293577	 1.7253393185	 0.9359813409	-0.183185
H	-0.4618539004	 1.3136468431	-1.0718443079	 0.101962
H	 1.6590797327	 2.4445601259	-0.9228009311	 0.123198
H	 1.853186149	 3.9100472994	 1.101113746	 0.125486
H	 1.3250669795	 2.8099118638	 3.4002944009	 0.146508
H	-0.0900968287	 2.0712380704	 2.5992773359	 0.153488
133.4201	139.4881	217.7291	279.5422	388.3345	467.5508	541.4526	644.8165	711.3879	766.5577	810.6794	851.5092	897.0011	966.1057	981.6311	1017.2577	1037.1465	1069.24	1100.0096	1155.2479	1222.3637	1235.1295	1328.4855	1391.2067	1419.0572	1453.8932	1815.6989	1941.235	2906.55	3083.5681	3142.7791	3145.5523	3191.7538
O=CC1C2CC(=O)N12	O=C[C@H]1[C@H]2CC(=O)N12	
InChI=1S/C5H5NO2/c7-2-4-3-1-5(8)6(3)4/h2-4H,1H2	InChI=1S/C5H5NO2/c7-2-4-3-1-5(8)6(3)4/h2-4H,1H2/t3-,4+,6?/m1/s1
