19
gdb 96437	2.74642	1.38457	1.09651	3.8613	71.8	-0.2512	-0.0228	0.2284	1140.7051	0.159275	-460.173849	-460.165348	-460.164404	-460.207026	32.155	
O	 0.1350062938	 1.4077987805	 0.1336582831	-0.445557
C	 0.0449780769	-0.0068080824	 0.0417933347	 0.12736
C	-1.4129913803	-0.4940535466	 0.0459779673	-0.223873
C	-2.1222212144	-0.0788338677	-1.2522084137	-0.214072
C	-1.2831260244	-0.4772498843	-2.4668451654	-0.069276
O	 0.0469883339	 0.0318776054	-2.3752279408	-0.247716
C	 0.7345500483	-0.4783417279	-1.2559804935	-0.025682
C	 2.1775883266	-0.0047235031	-1.2867201497	 0.15563
O	 2.6579483134	 0.7001104091	-2.1298750571	-0.234565
H	 0.02816785	 1.7552484918	-0.7611239841	 0.294633
H	 0.5773079692	-0.4077926345	 0.912098403	 0.086621
H	-1.420614336	-1.5877194956	 0.1451165245	 0.095091
H	-1.9244164951	-0.0818156386	 0.9206941354	 0.112774
H	-3.1142796583	-0.5377267627	-1.319797252	 0.103232
H	-2.2709030425	 1.0070375068	-1.2590285174	 0.112492
H	-1.247915953	-1.5754228403	-2.5640034154	 0.092401
H	-1.6945138445	-0.0699417429	-3.3940033968	 0.117264
H	 0.7536264204	-1.5852583784	-1.2705138391	 0.085543
H	 2.770683716	-0.3828986488	-0.4219762529	 0.077701
84.2248	123.9054	189.23	216.217	248.4832	315.3869	374.9419	388.2329	430.4616	514.8573	548.871	700.8106	725.8925	777.0313	846.8824	878.6583	906.6462	928.9575	964.2929	1016.5439	1044.9429	1072.4237	1089.8127	1117.9822	1152.0145	1213.339	1233.7649	1246.9245	1285.7418	1320.5056	1336.1079	1361.482	1376.3491	1386.6245	1405.8299	1419.8489	1434.3573	1476.5457	1486.8938	1501.3925	1851.6064	2865.1325	2928.3368	2969.1575	3023.3697	3040.9221	3048.2329	3082.4138	3089.649	3096.6846	3774.9459
OC1CCCOC1C=O	O[C@H]1CCCO[C@H]1C=O	
InChI=1S/C6H10O3/c7-4-6-5(8)2-1-3-9-6/h4-6,8H,1-3H2	InChI=1S/C6H10O3/c7-4-6-5(8)2-1-3-9-6/h4-6,8H,1-3H2/t5-,6-/m0/s1
