23
gdb 115332	3.14316	1.07377	0.89915	2.8212	81.17	-0.2452	0.0714	0.3166	1381.2528	0.20582	-425.434551	-425.424625	-425.423681	-425.469326	37.12	
C	-0.7089773106	 1.236919447	-0.0996985007	-0.425888
C	 0.1586672981	-0.0166063315	-0.011455875	 0.009374
C	 1.3150898383	-0.0540574699	-1.0289386995	-0.072331
O	 2.3408856984	-0.8624328505	-0.4555931208	-0.29755
C	 1.9292029529	-1.3173264174	 0.8434807636	 0.119632
C	 3.1995206301	-1.5302606748	 1.6538887947	-0.078643
O	 4.033268676	-2.4939723883	 1.0361277025	-0.427073
C	 0.8949376075	-0.2858181721	 1.3288137881	-0.039786
C	 1.5062700161	 0.9650493895	 1.9729333863	-0.405898
H	-0.1203383053	 2.1496549606	 0.0341056077	 0.121632
H	-1.1960962193	 1.3012425512	-1.0786384497	 0.117982
H	-1.4981863015	 1.2291972021	 0.6592029741	 0.118028
H	-0.4807547262	-0.8883757875	-0.2000561246	 0.080178
H	 1.0053822118	-0.4754684103	-1.9936264872	 0.098721
H	 1.7165145327	 0.9521476669	-1.2171558206	 0.093936
H	 1.4368679478	-2.2983432429	 0.7364516653	 0.069403
H	 3.7262281671	-0.5729915061	 1.7783161686	 0.087968
H	 2.9511989802	-1.9150551316	 2.6493470574	 0.102001
H	 4.1262333328	-2.2095855676	 0.1191949855	 0.29184
H	 0.2110035383	-0.7532931145	 2.0456439623	 0.072651
H	 2.2199799207	 1.462177523	 1.30809164	 0.126619
H	 0.7288027799	 1.6893858129	 2.2317978002	 0.115775
H	 2.0347712242	 0.7130466818	 2.8968804719	 0.12143
73.4971	101.6845	121.939	174.3295	221.0555	239.1633	289.402	306.8906	312.0992	403.6809	439.3991	484.3288	520.6617	629.9234	706.4613	783.3893	819.8634	887.1836	924.0832	962.5339	1003.629	1026.9995	1041.0542	1049.6217	1075.1356	1082.346	1130.8322	1143.5124	1176.0716	1183.9034	1220.7698	1238.2583	1272.7144	1320.2624	1334.7757	1346.4236	1365.5349	1384.0492	1400.2859	1408.1703	1413.7929	1419.9545	1445.0909	1492.0066	1495.5968	1499.1551	1502.1437	1512.7551	1531.9751	2959.9037	2996.6056	2998.5832	3015.0447	3033.3512	3040.6777	3041.5277	3049.6356	3070.7828	3095.9818	3105.9606	3110.1052	3111.5628	3796.3772
CC1COC(CO)C1C	C[C@H]1CO[C@@H](CO)[C@H]1C	
InChI=1S/C7H14O2/c1-5-4-9-7(3-8)6(5)2/h5-8H,3-4H2,1-2H3	InChI=1S/C7H14O2/c1-5-4-9-7(3-8)6(5)2/h5-8H,3-4H2,1-2H3/t5-,6-,7-/m0/s1
