18
gdb 120118	2.59159	1.4562	1.12765	3.6615	72.1	-0.2432	0.0072	0.2504	1123.4584	0.147032	-439.065523	-439.056976	-439.056032	-439.099498	31.604	
C	 1.165038088	 0.7789063367	-0.2433320081	-0.38632
C	-0.1468866248	 0.0053056254	-0.3283875322	-0.0575
O	-0.2276375292	-0.8851076396	-1.4433887772	-0.249252
C	 0.5373525784	-2.0297171823	-1.3431826818	 0.1268
C	 0.8398145206	-2.8111601647	-2.570972635	-0.071506
N	 1.0779888072	-1.9426437314	-3.7274769574	-0.336701
C	 2.1051788549	-1.2403275871	-3.0615241807	 0.438213
O	 2.7593024981	-0.2917525568	-3.3868172634	-0.344457
C	 1.9961596712	-2.1267053056	-1.832104246	-0.298242
H	 2.0093625624	 0.1253439597	-0.0107749467	 0.128902
H	 1.3782690046	 1.2827845628	-1.1894860721	 0.148038
H	 1.0936202418	 1.5324461796	 0.5479718414	 0.114968
H	-0.3280789633	-0.5558578854	 0.6014684256	 0.092532
H	-0.9861875753	 0.6931890086	-0.4662209942	 0.1144
H	 0.3574843898	-2.6197947894	-0.4401650726	 0.098715
H	 0.6483325209	-3.8677504203	-2.7066157679	 0.115855
H	 0.3215811448	-1.4434575681	-4.1832185786	 0.249031
H	 2.7939376	-2.5398865022	-1.230855603	 0.116522
48.9328	80.3901	155.1779	181.8482	237.0645	331.3943	372.1893	460.7006	508.3668	564.0236	640.2661	747.3623	773.1035	801.353	807.766	844.1382	884.5819	923.8675	933.2109	996.5666	1045.3948	1065.233	1074.2628	1097.7375	1121.3555	1141.7347	1179.6695	1223.2541	1272.6738	1318.1605	1330.4964	1336.3004	1395.1704	1413.7056	1439.4632	1485.7597	1488.6694	1510.5611	1898.6707	2989.3616	3046.9398	3071.8945	3082.6584	3118.2633	3135.276	3198.7306	3220.0624	3545.9403
CCOC1C2NC(=O)C12	CCO[C@H]1[C@H]2NC(=O)[C@@H]12	
InChI=1S/C6H9NO2/c1-2-9-5-3-4(5)7-6(3)8/h3-5H,2H2,1H3,(H,7,8)	InChI=1S/C6H9NO2/c1-2-9-5-3-4(5)7-6(3)8/h3-5H,2H2,1H3,(H,7,8)/t3-,4+,5-/m1/s1
