21
gdb 52993	3.00781	0.94798	0.83325	0.2626	94.78	-0.2162	0.0475	0.2638	1513.9168	0.18129	-349.914055	-349.904248	-349.903303	-349.95055	35.856	
C	 0.0253819388	 1.4675909115	-0.0239907237	-0.507296
C	 0.0000332912	 0.0123686282	-0.0165632143	 0.217886
C	-0.0253511404	-1.1940109004	-0.0147107406	-0.183309
C	-0.0263089209	-2.6176257781	 0.0209638938	 0.222662
C	-0.4262054856	-3.4641909371	-1.1714420019	-0.328242
C	-1.2105562361	-3.6140916821	 0.092837293	-0.106304
C	-0.4420275665	-4.4885956736	 1.0868133596	-0.251545
C	 0.7487979168	-3.4695148493	 1.0562120194	-0.032297
C	 2.1488823989	-3.9530811307	 0.7049603557	-0.41313
H	 0.87018316	 1.8508452448	 0.559649005	 0.146278
H	 0.123035974	 1.8632541448	-1.0414652536	 0.144908
H	-0.8896189714	 1.8889258273	 0.4084082016	 0.144479
H	-0.911713043	-2.9085838642	-1.9661939309	 0.120967
H	 0.219566356	-4.2680518917	-1.5176892741	 0.106262
H	-2.265707538	-3.3755385027	 0.1442924013	 0.095063
H	-0.9101832728	-4.5568615488	 2.0707381573	 0.102998
H	-0.218093353	-5.5025740702	 0.7367674891	 0.094217
H	 0.7792408036	-2.9231706559	 2.0031492247	 0.078509
H	 2.1642378553	-4.5069687842	-0.2391971086	 0.112892
H	 2.8398384225	-3.1086350104	 0.6088859303	 0.121968
H	 2.5382548505	-4.6176718673	 1.484263887	 0.113035
11.1825	81.7033	99.6265	181.8998	218.7594	242.171	287.6136	324.412	386.6517	440.7017	466.7057	526.5926	580.7803	668.8065	804.6968	826.9661	841.5174	873.7627	916.4341	964.2862	991.7364	1025.4858	1050.7409	1053.5282	1056.2776	1076.3301	1094.4888	1117.115	1139.2386	1188.975	1215.218	1249.0049	1276.5113	1297.5375	1365.2563	1396.5519	1412.4717	1418.9916	1477.0571	1478.2379	1479.7965	1493.9489	1496.1845	1501.6688	2357.35	3021.2079	3029.0032	3040.6114	3060.4781	3078.5405	3081.8018	3094.5496	3100.4952	3107.8206	3110.2891	3188.2249	3209.3191
CC#CC12CC1CC2C	CC#C[C@]12C[C@H]1C[C@H]2C	
InChI=1S/C9H12/c1-3-4-9-6-8(9)5-7(9)2/h7-8H,5-6H2,1-2H3	InChI=1S/C9H12/c1-3-4-9-6-8(9)5-7(9)2/h7-8H,5-6H2,1-2H3/t7-,8-,9-/m1/s1
