17
gdb 112226	2.24189	1.27016	0.86639	5.3065	75.42	-0.2574	-0.0499	0.2074	1320.4913	0.134122	-418.006953	-417.9979	-417.996956	-418.041379	32.199	
C	 0.0349077442	 1.5182041068	-0.0402371016	-0.389011
C	 0.0445850651	 0.0012994508	 0.1210829661	-0.134281
N	-1.3029317409	-0.5477840546	 0.0926048904	-0.076748
C	-2.208531622	-0.2814430275	 1.2348263403	-0.293337
C	-2.6423849178	-1.7466823212	 1.1714679435	 0.395473
O	-3.5075000355	-2.4140601919	 1.6334133077	-0.254592
C	-1.4419601519	-2.0145157774	 0.2043626077	-0.248543
C	-1.6735679134	-2.7395029802	-1.03692406	 0.312435
N	-1.870169118	-3.3177866132	-2.0179404129	-0.317667
H	 1.0569659924	 1.9073980572	-0.0372210976	 0.125353
H	-0.4452616504	 1.801711246	-0.9806520281	 0.137734
H	-0.5069913637	 2.0023778303	 0.7791456134	 0.122782
H	 0.6023158637	-0.4564291143	-0.7034342752	 0.124876
H	 0.5682287274	-0.2754732324	 1.0575897739	 0.0837
H	-1.6967873815	-0.0613052982	 2.1872873247	 0.127269
H	-2.9804392551	 0.4739772033	 1.060934416	 0.15119
H	-0.6270286827	-2.5036897136	 0.7669178917	 0.133369
78.0505	88.4855	119.798	162.6204	207.8158	252.3265	343.6492	369.501	410.007	445.3486	551.7392	618.1599	623.1748	764.6818	811.3483	839.8964	970.7666	980.473	1007.8489	1051.82	1072.1494	1107.5967	1120.7387	1171.2022	1195.0694	1235.5468	1281.5881	1311.9066	1340.8746	1396.4752	1417.9416	1470.866	1490.9056	1493.6608	1512.0812	1940.7359	2358.5331	2909.6777	2953.4751	2971.39	3041.4978	3061.3239	3083.5599	3110.3278	3126.2404
CCN1CC(=O)C1C#N	CCN1CC(=O)[C@H]1C#N	
InChI=1S/C6H8N2O/c1-2-8-4-6(9)5(8)3-7/h5H,2,4H2,1H3	InChI=1S/C6H8N2O/c1-2-8-4-6(9)5(8)3-7/h5H,2,4H2,1H3/t5-/m1/s1
