22
gdb 30765	2.87852	1.19739	0.91732	1.9923	91.21	-0.1874	0.0512	0.2386	1368.2313	0.193808	-367.262668	-367.25248	-367.251535	-367.298323	36.859	
C	-0.2474857611	 1.591152059	-0.0120791855	-0.358345
C	 0.0345264254	 0.0785231436	 0.0272255225	-0.298112
C	 0.7393533452	-0.4315621264	-1.1982105599	 0.2067
C	 2.093187407	-0.6811458739	-1.3443264852	 0.192778
C	 3.2197083005	-0.5585223385	-0.3709365444	-0.507205
N	 2.308059456	-1.1066745902	-2.642071883	-0.027557
C	 3.5855429043	-1.4886241447	-3.201166479	-0.335864
C	 1.1108967047	-1.1287772742	-3.3159133567	-0.109261
C	 0.125754467	-0.7176679955	-2.4539676215	-0.263485
H	 0.6849652657	 2.1606637796	-0.0817501136	 0.111523
H	-0.8565919337	 1.8513082349	-0.8835575439	 0.117088
H	-0.7818092926	 1.9192145022	 0.8862327494	 0.101915
H	 0.6210379038	-0.153593606	 0.9241222729	 0.091508
H	-0.9163266394	-0.4561212356	 0.1465963468	 0.09819
H	 3.7576025237	-1.5050851005	-0.2294552591	 0.121777
H	 3.9630374098	 0.189120865	-0.6782579268	 0.123136
H	 2.8385666146	-0.2517831084	 0.6053673773	 0.134058
H	 4.0128824386	-2.3513975906	-2.6774669597	 0.134401
H	 3.4464982538	-1.7585432275	-4.2494662733	 0.138215
H	 4.3069621631	-0.6655405969	-3.1506503237	 0.134585
H	 1.0706361312	-1.4425630976	-4.3472918039	 0.108346
H	-0.9254701676	-0.6325881278	-2.6869729196	 0.08561
42.8067	83.595	115.6743	142.8006	199.6036	206.5558	235.1601	282.0557	301.7968	390.2723	475.1665	570.1095	615.4633	678.0244	700.0148	722.2965	731.6937	790.4515	796.3629	935.348	970.5074	1041.0031	1052.2038	1057.7536	1081.0856	1100.7496	1137.2445	1149.7163	1203.3096	1250.417	1297.1491	1346.8276	1377.3318	1402.1679	1408.6908	1416.5089	1456.8623	1474.8272	1476.2906	1481.1959	1488.7026	1491.9563	1495.1455	1506.8805	1519.8554	1538.4926	1614.8442	3008.2994	3021.41	3025.7316	3029.7529	3047.5121	3053.5366	3076.8614	3098.8719	3106.7992	3123.2924	3134.2939	3233.8183	3258.6439
CCC1=C(C)N(C)C=C1	CCc1c(C)n(C)cc1	
InChI=1S/C8H13N/c1-4-8-5-6-9(3)7(8)2/h5-6H,4H2,1-3H3	InChI=1S/C8H13N/c1-4-8-5-6-9(3)7(8)2/h5-6H,4H2,1-3H3
