16
gdb 95611	2.38101	1.77476	1.06994	6.7176	67.25	-0.2581	-0.0476	0.2105	1082.2969	0.124987	-475.079837	-475.071523	-475.070578	-475.113223	29.695	
C	-0.0766102095	 1.4585222366	 0.0601395659	-0.352481
N	 0.0019788768	 0.0105310453	-0.050219939	-0.108241
C	-1.2167856972	-0.7677708203	 0.0985406564	-0.179022
C	-1.0742680665	-2.0693254715	-0.6622133602	-0.089937
O	 0.0569137702	-2.8145369892	-0.2008596401	-0.225564
C	 1.2251945491	-2.1499912404	-0.0177283757	 0.347005
O	 2.2224959087	-2.7441784799	 0.2581989719	-0.286147
C	 1.2239336389	-0.5994712874	-0.132774349	 0.275865
O	 2.2776417654	-0.0127160362	-0.2452572518	-0.347931
H	 0.9307585937	 1.8594439329	-0.0419161135	 0.179628
H	-0.7169197183	 1.8695333373	-0.7285139236	 0.130731
H	-0.4898573905	 1.7523109913	 1.0328825052	 0.132617
H	-1.4460395302	-0.9615760154	 1.1569758189	 0.12901
H	-2.053011379	-0.1969277034	-0.3196519846	 0.127929
H	-1.9403059817	-2.7153166521	-0.5062358482	 0.137539
H	-0.9693599401	-1.8733880278	-1.7364710525	 0.128998
83.502	107.8755	126.516	182.2801	301.9591	331.4609	369.8726	423.6214	454.6442	510.3179	576.5247	663.8901	702.0836	816.3923	911.3338	937.7745	1012.3966	1093.3528	1100.4055	1112.7428	1155.8403	1196.0453	1246.0128	1278.2065	1307.8406	1372.367	1415.7587	1432.6414	1454.6731	1495.7927	1499.894	1505.4298	1527.6843	1791.9204	1869.0358	2999.1853	3022.156	3036.9627	3070.7627	3075.8659	3120.4726	3169.4043
CN1CCOC(=O)C1=O	CN1CCOC(=O)C1=O	
InChI=1S/C5H7NO3/c1-6-2-3-9-5(8)4(6)7/h2-3H2,1H3	InChI=1S/C5H7NO3/c1-6-2-3-9-5(8)4(6)7/h2-3H2,1H3
