14
gdb 130690	3.40969	1.61602	1.10399	5.4068	68.59	-0.2477	-0.005	0.2427	1000.575	0.105164	-432.919101	-432.912195	-432.911251	-432.951051	25.724	
O	-0.0838433439	-0.0757628667	 0.0060187326	-0.375144
C	 0.0055652191	 1.1310421792	 0.0095415583	 0.340221
N	-1.0733030532	 2.0168307941	 0.0279490912	-0.353559
C	-0.7354189025	 3.4350391132	 0.0301347402	-0.286695
C	 0.7589965167	 3.3263146036	 0.0090743273	 0.357794
C	 1.1878654178	 2.0221099208	-0.0026800952	 0.086138
C	 2.5972979297	 2.1022843052	-0.0216009024	-0.162741
N	 2.9974940041	 3.3708500092	-0.0214543508	-0.211549
N	 1.8503616857	 4.1090641259	-0.0024616362	-0.331722
H	-2.0188566492	 1.6739906595	 0.0408845576	 0.255097
H	-1.1360638257	 3.9586476615	-0.8490651596	 0.134991
H	-1.1115823543	 3.950122725	 0.9250543484	 0.134987
H	 3.3317998653	 1.3117912331	-0.0352036112	 0.13429
H	 1.9252286202	 5.1122671665	 0.0009366099	 0.277892
52.8014	187.8795	235.8628	306.4465	389.7458	511.929	536.8723	634.1819	651.3338	657.7107	680.157	779.9817	782.4242	902.3933	978.4543	1017.8233	1052.3889	1071.4283	1102.016	1168.918	1183.988	1227.7846	1297.5032	1342.9465	1398.9378	1433.8567	1470.7869	1506.0346	1549.4745	1587.8168	1830.3802	3002.3602	3027.0554	3260.4142	3669.8087	3671.9022
O=C1NCC2=C1C=NN2	O=C1NCc2c1cn[nH]2	
InChI=1S/C5H5N3O/c9-5-3-1-7-8-4(3)2-6-5/h1H,2H2,(H,6,9)(H,7,8)	InChI=1S/C5H5N3O/c9-5-3-1-7-8-4(3)2-6-5/h1H,2H2,(H,6,9)(H,7,8)
