23
gdb 99018	3.06301	0.8795	0.8248	2.9175	82.6	-0.262	-0.0274	0.2346	1534.7373	0.202005	-425.455232	-425.444252	-425.443308	-425.491657	40.594	
C	-0.0486050758	 1.4890100096	 0.4767251463	-0.405353
C	 0.0542520753	 0.0245085052	 0.01503752	 0.272369
C	 0.9140472889	-0.7784917389	 1.0087607262	-0.414568
C	-1.3564615732	-0.5887196134	-0.0469244763	-0.405974
C	 0.6663555504	-0.0599220791	-1.415537593	-0.316154
C	 2.129615307	 0.3211815676	-1.5197376587	 0.354863
O	 2.5701159057	 1.4100255207	-1.2070327705	-0.330509
C	 3.0945770605	-0.7255410799	-2.0575685554	-0.13284
O	 4.4013410035	-0.2450645809	-2.1071540629	-0.419876
H	 0.9296236432	 1.9725513061	 0.4956143169	 0.144232
H	-0.6934532355	 2.0664144144	-0.1952538883	 0.106498
H	-0.4833022113	 1.5388571769	 1.4809994944	 0.106001
H	 0.45173294	-0.7792441594	 2.0011974548	 0.116457
H	 1.0209128752	-1.8227975587	 0.6933301877	 0.108241
H	 1.9156474883	-0.3490942556	 1.1136694472	 0.125202
H	-1.9887133693	-0.0592219545	-0.7680537391	 0.111438
H	-1.3232361965	-1.6441509294	-0.339397445	 0.109165
H	-1.8446838577	-0.5283680264	 0.9315469958	 0.11436
H	 0.5387501748	-1.0774019712	-1.8036638074	 0.101522
H	 0.1072047712	 0.6111025699	-2.0798682083	 0.129651
H	 3.0129210099	-1.6205145094	-1.416174215	 0.116782
H	 2.7365304451	-1.0352483909	-3.0550489108	 0.11558
H	 4.3422251603	 0.6642584875	-1.7698652386	 0.292913
28.0058	75.2149	130.5317	182.7933	223.3998	261.7603	271.5754	285.0174	298.7956	325.2373	371.4531	401.1683	409.2606	431.3397	463.0214	523.3596	697.553	739.6782	818.0647	897.7114	920.6901	937.114	940.472	966.143	987.4957	1056.0548	1060.2024	1102.2218	1148.9657	1189.1597	1233.3717	1247.8838	1256.7493	1298.5339	1307.7074	1358.8444	1400.1074	1403.8026	1433.7444	1450.2621	1470.8188	1479.6621	1485.071	1488.55	1489.6125	1504.8406	1509.8803	1519.9186	1786.6773	2960.6517	2974.4811	3022.6857	3024.6641	3027.0877	3034.9782	3070.968	3089.5677	3092.1414	3094.699	3098.6039	3102.6181	3138.0458	3669.0395
CC(C)(C)CC(=O)CO	CC(C)(C)CC(=O)CO	
InChI=1S/C7H14O2/c1-7(2,3)4-6(9)5-8/h8H,4-5H2,1-3H3	InChI=1S/C7H14O2/c1-7(2,3)4-6(9)5-8/h8H,4-5H2,1-3H3
