18
gdb 6564	3.11622	2.05274	1.57023	1.6413	68.61	-0.2444	0.0884	0.3328	886.688	0.151878	-384.893371	-384.885324	-384.88438	-384.925065	31.226	
C	 0.0005683526	 1.4673659212	 0.0791540821	-0.514347
C	-0.059051017	-0.015611026	-0.0971217371	 0.353151
C	 0.6240020165	-0.9424182817	-1.1256175898	-0.299917
C	 0.0003902103	-1.8393719415	-0.034786518	 0.353153
C	 0.1559066062	-3.2998442126	 0.242131388	-0.514348
O	 0.5110639956	-0.8736327055	 0.9944238516	-0.407931
C	-1.2920514218	-0.9695678922	-0.0929151457	 0.122201
O	-2.116586197	-0.95824418	 1.024841283	-0.451318
H	 1.0293017748	 1.8004520303	 0.2454714789	 0.13389
H	-0.3876031636	 1.9686799943	-0.8130976821	 0.128694
H	-0.6092715093	 1.7721906581	 0.935451425	 0.134039
H	 0.2041471473	-0.9905953193	-2.1347163876	 0.093105
H	 1.7140051927	-0.9066285617	-1.118001615	 0.107833
H	 1.2037287016	-3.553202513	 0.428618856	 0.133891
H	-0.4348237297	-3.5845462533	 1.1185166658	 0.134039
H	-0.1967620213	-3.8850466	-0.6130115759	 0.128693
H	-1.9111597137	-1.0204784533	-0.9920851826	 0.081631
H	-1.5033938642	-0.9126244637	 1.7745331535	 0.283542
184.8162	188.6561	201.009	206.6686	222.1209	318.7056	372.5409	471.4414	510.4406	597.8578	598.8183	650.318	695.2503	746.2516	766.5388	846.7274	895.713	936.7084	1005.9044	1013.8708	1051.0163	1138.3138	1146.4799	1152.5914	1164.2717	1174.8897	1222.0641	1275.9631	1298.9176	1363.4496	1407.3606	1416.0989	1446.5961	1476.5513	1478.1771	1486.4168	1487.8602	1510.5741	3038.5098	3038.5906	3056.2039	3091.2769	3111.5284	3111.6247	3114.9022	3115.1047	3143.2039	3718.0506
CC12CC(C)(O1)C2O	C[C@@]12C[C@@](C)(O1)[C@H]2O	
InChI=1S/C6H10O2/c1-5-3-6(2,8-5)4(5)7/h4,7H,3H2,1-2H3	InChI=1S/C6H10O2/c1-5-3-6(2,8-5)4(5)7/h4,7H,3H2,1-2H3/t4-,5-,6+
