23
gdb 68408	2.40307	1.80327	1.37678	0.2037	88.93	-0.255	0.0886	0.3436	1066.5441	0.207633	-351.14144	-351.133425	-351.132481	-351.17324	33.758	
C	 0.0000268062	 1.530563753	 0.0341514488	-0.517714
C	 0.0157709372	 0.0196661672	 0.0317371067	 0.279646
C	 0.885885255	-0.800331382	-0.9772922386	-0.258485
C	 0.6945536003	-1.9307582921	 0.0726858298	-0.022186
C	 0.7438698557	-0.8052359529	 1.1439771322	-0.258489
C	-0.8175356005	-2.2096953246	-0.0291493045	-0.300567
C	-1.3150152439	-0.7461370534	-0.0591696083	 0.399075
C	-2.5803104763	-0.302854959	 0.6165472062	-0.343181
C	-2.4790244163	-0.2994221896	-0.895594282	-0.343171
H	 1.0173600737	 1.9289693785	 0.1033737667	 0.113403
H	-0.4479651875	 1.9308107731	-0.8824738389	 0.117347
H	-0.5666091979	 1.9267697223	 0.8844696872	 0.117346
H	 0.4925095058	-0.9560534857	-1.9867564386	 0.086435
H	 1.9161168269	-0.4370800502	-1.0238816906	 0.087857
H	 1.3586094303	-2.7945685607	 0.115151575	 0.056026
H	 1.7585964871	-0.442550905	 1.3291496715	 0.087858
H	 0.21949155	-0.9654745277	 2.0912690863	 0.086434
H	-1.0793337885	-2.7637787301	-0.9367888666	 0.093611
H	-1.197818979	-2.7677588518	 0.8330043753	 0.093616
H	-3.2013452531	-1.0592413872	 1.0865162912	 0.105527
H	-2.5970350077	 0.6574419705	 1.122294735	 0.107041
H	-2.4284292474	 0.6631588429	-1.3947007267	 0.107041
H	-3.0316217502	-1.0534773056	-1.4476026673	 0.105529
126.1491	209.9845	244.9235	261.8739	318.2742	361.3042	412.201	446.9317	523.2134	539.7266	612.7265	728.819	781.2195	821.9168	830.8084	862.6811	883.5673	900.2948	923.4801	926.1689	962.1189	966.606	987.2825	1025.5627	1030.5191	1054.7097	1078.3552	1079.1559	1081.3102	1124.7197	1171.1736	1182.1755	1188.59	1202.6798	1207.2069	1245.9117	1267.9216	1280.0272	1307.5737	1341.4135	1373.0775	1413.2902	1463.5698	1484.6412	1493.706	1494.6984	1498.6087	1508.0171	1525.8543	3026.3082	3035.9882	3042.7524	3049.1373	3078.1135	3089.0287	3094.8397	3103.8634	3106.09	3110.8956	3119.2548	3122.93	3194.6778	3209.6115
CC12CC(C1)CC21CC1	C[C@@]12C[C@@H](C1)CC12CC1	
InChI=1S/C9H14/c1-8-4-7(5-8)6-9(8)2-3-9/h7H,2-6H2,1H3	InChI=1S/C9H14/c1-8-4-7(5-8)6-9(8)2-3-9/h7H,2-6H2,1H3/t7-,8+
