16
gdb 71445	4.19458	1.44095	1.29319	5.1604	67.61	-0.2541	0.0081	0.2622	983.9484	0.125286	-437.87177	-437.864779	-437.863835	-437.903029	27.452	
C	 0.015851627	 1.5500045891	 0.0640665015	-0.507069
C	-0.0128463894	 0.0505761529	 0.0404427807	 0.271187
C	-1.2475788645	-0.8387504442	 0.0110872643	-0.247426
N	-0.4497838745	-1.9776013015	 0.6603277902	-0.219644
C	 0.6303787503	-0.9855424525	 0.9644484367	-0.113217
C	 1.1797244357	-0.8028673916	-0.3971751295	 0.034573
O	 0.9701801858	-1.9792549257	-1.1569622982	-0.225888
C	 0.0452752809	-2.7377126966	-0.4740125249	 0.440349
O	-0.3160941635	-3.8099232314	-0.8374195421	-0.329915
H	 1.0224418344	 1.9266074771	 0.2720375322	 0.128533
H	-0.2999368943	 1.9630046822	-0.9004609304	 0.136061
H	-0.6536526871	 1.9453791915	 0.8356310753	 0.131117
H	-2.0212279631	-0.5138202999	 0.7100343601	 0.130379
H	-1.7033183477	-1.0863892146	-0.9536383978	 0.132453
H	 1.1242067259	-0.9490672334	 1.9269815391	 0.112362
H	 2.1294297443	-0.3271523117	-0.5998986271	 0.126144
132.2452	197.1172	230.4014	284.8729	348.2414	468.6921	503.0644	577.034	700.359	737.015	770.1443	813.3192	841.9169	849.2079	901.6727	922.7433	954.8324	988.8243	1013.0244	1044.4175	1052.329	1077.624	1114.35	1143.039	1182.9253	1210.1954	1247.9718	1289.4407	1329.9793	1417.7316	1436.5194	1486.6941	1496.8475	1512.5107	1915.8417	3029.4131	3047.208	3093.3031	3101.763	3111.8526	3195.5975	3221.835
CC12CN3C1C2OC3=O	C[C@]12CN3[C@H]1[C@H]2OC3=O	
InChI=1S/C6H7NO2/c1-6-2-7-3(6)4(6)9-5(7)8/h3-4H,2H2,1H3	InChI=1S/C6H7NO2/c1-6-2-7-3(6)4(6)9-5(7)8/h3-4H,2H2,1H3/t3-,4+,6-/m0/s1
