19
gdb 116410	2.846	1.31058	0.96574	2.8374	72.44	-0.2292	-0.0268	0.2024	1229.0673	0.158819	-460.167021	-460.158192	-460.157248	-460.200795	32.348	
C	-0.1508124246	 1.3491237106	 0.0219762369	-0.247982
O	 0.1231796436	-0.0408656426	 0.0756053786	-0.236299
C	 0.6279802725	-0.5932717627	-1.1062258191	 0.018493
C	 1.2961816551	-1.9361748795	-0.7768066579	-0.23297
C	 1.7425949644	-2.644659609	-2.0547984267	-0.087804
O	 0.6462800551	-2.8771427523	-2.9237721701	-0.238858
C	 0.0389871383	-1.6784903254	-3.368159699	-0.175504
C	-0.4266677459	-0.7960534621	-2.2038872397	 0.364244
O	-1.5243279578	-0.2951007013	-2.1757175283	-0.300655
H	 0.7453069131	 1.9176991261	-0.273377674	 0.098141
H	-0.9671696269	 1.5759193581	-0.66996161	 0.1399
H	-0.4375550882	 1.6498085882	 1.0323256176	 0.128337
H	 1.3939486755	 0.0725642042	-1.5534717771	 0.080167
H	 2.1459902282	-1.7640668496	-0.1084547851	 0.11108
H	 0.5743390791	-2.563810611	-0.2435140273	 0.129226
H	 2.519999054	-2.0551862334	-2.571896047	 0.089707
H	 2.1638338039	-3.6275063201	-1.8282909057	 0.119724
H	 0.73666691	-1.0933422391	-3.9963314906	 0.103322
H	-0.8288509695	-1.9479515992	-3.9728502153	 0.137729
80.8431	109.3337	144.9639	188.7394	244.1219	285.0169	327.1748	367.15	431.0269	462.0492	522.341	590.419	677.8144	739.7761	877.9127	917.6994	947.391	989.8428	1032.8294	1051.4219	1123.0607	1149.137	1158.7134	1177.1154	1183.2537	1195.5467	1236.5166	1263.8514	1305.8625	1319.0665	1346.2405	1360.4331	1384.522	1409.2273	1471.8076	1477.4491	1482.3415	1486.6275	1500.8162	1516.518	1826.482	2900.425	2936.9877	2957.1213	2982.5957	3049.2256	3082.8395	3094.8828	3099.357	3120.1998	3127.205
COC1CCOCC1=O	CO[C@H]1CCOCC1=O	
InChI=1S/C6H10O3/c1-8-6-2-3-9-4-5(6)7/h6H,2-4H2,1H3	InChI=1S/C6H10O3/c1-8-6-2-3-9-4-5(6)7/h6H,2-4H2,1H3/t6-/m0/s1
