21
gdb 94011	3.295	1.00071	0.91613	3.0637	85.92	-0.2366	-0.0269	0.2097	1368.5381	0.182822	-387.122744	-387.113734	-387.11279	-387.156989	33.888	
C	-0.1319030899	 1.5707329384	 0.034720418	-0.402154
C	-0.0083620191	 0.0398005854	 0.0171256243	-0.004202
C	 0.6365213407	-0.4639174511	-1.283344135	-0.206378
C	 1.008053669	-1.9502638558	-1.2008612445	-0.254917
C	 1.9856303188	-2.2486102892	-0.0444859337	-0.103317
C	 3.4265015621	-1.9190655418	-0.4188603086	 0.159443
O	 4.3743344681	-2.6193012149	-0.1745021553	-0.250929
C	 1.6301789397	-1.4639854075	 1.1995246261	-0.102651
C	 0.7493092131	-0.4634987446	 1.2218036231	-0.037988
H	 0.8559846662	 2.043319864	 0.0019634209	 0.119314
H	-0.7052330334	 1.9262111901	-0.8276625251	 0.113978
H	-0.6384865767	 1.9178200011	 0.9413238979	 0.114095
H	-1.0298069903	-0.3701269773	 0.0740264657	 0.086079
H	-0.0416597658	-0.2934092063	-2.1268897851	 0.096351
H	 1.5345787031	 0.1346472884	-1.4847142772	 0.101537
H	 0.0993822144	-2.541707457	-1.037682347	 0.108604
H	 1.433071844	-2.2921287451	-2.1517658608	 0.102206
H	 1.9813527492	-3.318277299	 0.1942262113	 0.096974
H	 3.5553089705	-0.9389745683	-0.9339926322	 0.073521
H	 2.1455413847	-1.7580087474	 2.1102475716	 0.101977
H	 0.5365383717	 0.0321699878	 2.1675451055	 0.088457
57.9894	64.8433	195.7455	206.3632	251.5055	294.856	326.2087	349.215	412.4216	481.6831	548.4855	570.1384	710.0992	749.3459	800.2	880.0044	889.1137	925.6493	965.8885	974.2229	1010.57	1017.5986	1038.1214	1076.2209	1102.3173	1121.1747	1158.3708	1177.6564	1241.6799	1257.0635	1285.4896	1319.51	1326.5444	1344.5211	1370.6005	1378.8051	1405.2838	1421.3477	1427.1372	1487.0131	1491.9521	1497.6425	1501.3059	1710.1049	1827.8849	2863.2058	2970.1556	3022.4433	3028.0755	3029.5985	3046.5324	3063.6998	3071.8469	3099.2448	3101.7369	3136.1704	3166.9061
CC1CCC(C=O)C=C1	C[C@H]1CC[C@@H](C=O)C=C1	
InChI=1S/C8H12O/c1-7-2-4-8(6-9)5-3-7/h2,4,6-8H,3,5H2,1H3	InChI=1S/C8H12O/c1-7-2-4-8(6-9)5-3-7/h2,4,6-8H,3,5H2,1H3/t7-,8+/m1/s1
