23
gdb 72401	2.92452	1.44639	1.33604	1.4996	84.61	-0.2335	0.0779	0.3114	1114.7313	0.206996	-388.32336	-388.314853	-388.313909	-388.355535	34.865	
C	-0.0691495422	 1.4860270725	-0.0160043698	-0.487758
C	 0.0114173491	-0.0301736633	 0.009396711	 0.287936
C	 0.7354643177	-0.6765995369	-1.2024124678	-0.247504
C	 0.9984818634	-2.1373592725	-0.7265100068	-0.241925
C	 0.4128297023	-2.1309179441	 0.705419098	 0.411944
C	 0.7657969771	-3.310204425	 1.5837590881	-0.472251
C	 0.7513397565	-0.7086307905	 1.1856351832	-0.284733
O	-1.0256930502	-2.0738660302	 0.5702317261	-0.31165
C	-1.3489715255	-0.7435174793	 0.1445365847	-0.092537
H	 0.9289127484	 1.9335172235	-0.073089108	 0.114581
H	-0.6372839998	 1.8386695132	-0.8847846393	 0.114984
H	-0.5611844194	 1.8751825481	 0.8821852608	 0.113747
H	 0.129373177	-0.6257221441	-2.1123175927	 0.094812
H	 1.6723466553	-0.1481502908	-1.4076763266	 0.09146
H	 0.4880469693	-2.8868087806	-1.3363255633	 0.102807
H	 2.0662914417	-2.3787610242	-0.7205269127	 0.091252
H	 1.8486534006	-3.3751388363	 1.7269922063	 0.111611
H	 0.2874467558	-3.2173540747	 2.5629299713	 0.120025
H	 0.4238154926	-4.2443175005	 1.1271703301	 0.123264
H	 1.8247282988	-0.4964457813	 1.1983822871	 0.089911
H	 0.3206265233	-0.4822952296	 2.1656474036	 0.093551
H	-1.9895231478	-0.2618823848	 0.8976928334	 0.086525
H	-1.9025957143	-0.7738228884	-0.8036222169	 0.089952
170.4886	208.6789	218.833	226.2536	265.6169	298.1523	361.0572	410.6491	423.0097	477.6178	562.9807	584.156	625.2172	781.0953	790.8652	838.7055	874.5026	899.5571	902.7726	924.9898	969.5306	972.1684	997.5113	1020.4767	1041.9658	1068.0054	1101.2589	1149.3072	1179.5995	1197.9974	1204.0751	1233.3329	1254.4154	1272.1635	1274.7113	1292.3879	1317.2492	1355.0648	1390.568	1413.8353	1415.4299	1476.7625	1483.1316	1484.9127	1494.0153	1496.6221	1497.9137	1506.0396	1534.8134	2989.0784	3023.6987	3027.9282	3038.2502	3040.2274	3048.0618	3055.5989	3078.8826	3087.1685	3094.019	3103.1013	3106.6138	3110.8467	3116.7706
CC12CCC(C)(C1)OC2	C[C@@]12CC[C@@](C)(C1)OC2	
InChI=1S/C8H14O/c1-7-3-4-8(2,5-7)9-6-7/h3-6H2,1-2H3	InChI=1S/C8H14O/c1-7-3-4-8(2,5-7)9-6-7/h3-6H2,1-2H3/t7-,8+/m1/s1
