14
gdb 45393	2.21875	1.80646	1.27115	5.6943	67.54	-0.2635	-0.0645	0.199	989.5184	0.100222	-436.667518	-436.659917	-436.658972	-436.700041	27.733	
O	-0.069884526	 0.0608611397	-0.6266987484	-0.257167
C	-0.1050329715	 1.164169841	-0.1863998152	 0.368907
C	-1.1940467422	 2.0604086221	 0.4343797034	-0.360378
C	-0.16138211	 3.2100382422	 0.582911308	-0.14925
C	 0.6805109329	 3.1432018934	 1.8638068374	-0.083996
O	 1.588157772	 2.1703047035	 1.2750442298	-0.308416
C	 0.9680355103	 2.296246377	-0.0217356856	 0.219262
C	 1.8688946017	 2.630226436	-1.1019257731	 0.223713
N	 2.549942534	 2.8962779285	-1.997494285	-0.324977
H	-1.9835310116	 2.2693586313	-0.2943835533	 0.155651
H	-1.659004028	 1.6872235278	 1.3507414884	 0.146326
H	-0.4217640549	 4.1807123423	 0.1702553705	 0.118246
H	 1.2139586271	 4.0674109971	 2.1101843025	 0.129352
H	 0.1855493263	 2.7523507282	 2.7585512507	 0.122727
84.3281	117.6809	173.0786	227.9045	328.9516	385.2496	493.23	501.142	558.2753	611.9577	626.2915	806.0209	821.9547	907.5586	955.4774	990.9814	996.3689	1042.9654	1050.9099	1063.2574	1109.3641	1150.9498	1178.7425	1217.8077	1248.6754	1312.5351	1344.4732	1433.826	1520.0998	1912.4912	2350.969	3038.9169	3062.5532	3091.4911	3115.9205	3160.076
O=C1CC2COC12C#N	O=C1C[C@H]2CO[C@@]12C#N	
InChI=1S/C6H5NO2/c7-3-6-4(2-9-6)1-5(6)8/h4H,1-2H2	InChI=1S/C6H5NO2/c7-3-6-4(2-9-6)1-5(6)8/h4H,1-2H2/t4-,6+/m0/s1
