20
gdb 105196	1.88907	1.51205	1.04321	2.2877	75.86	-0.2441	0.0295	0.2736	1231.3696	0.169216	-440.308136	-440.297962	-440.297018	-440.343023	37.742	
C	-0.1415313663	 1.4222054123	-0.7049070379	-0.383005
C	-0.0746793528	 0.1251078182	 0.1130610287	-0.295942
C	-1.4147146558	-0.5748162359	 0.2802332245	 0.208101
C	-1.9854750135	-1.3223395771	-0.9250669078	-0.350824
C	-1.4532787105	-2.0991451302	 0.233718708	 0.07417
O	-0.2239931181	-2.7565225398	 0.1401802136	-0.424998
C	-2.4724049197	-0.0064764024	 1.1937271688	 0.358461
N	-2.1119734921	 1.0651181696	 1.9622829762	-0.544279
O	-3.5971140422	-0.4778230847	 1.246669665	-0.379296
H	 0.8516872103	 1.8714056352	-0.8034790447	 0.112395
H	-0.5222284947	 1.2255195815	-1.7122125986	 0.121774
H	-0.8034308869	 2.1624203833	-0.2450203374	 0.119526
H	 0.6112367451	-0.5789533143	-0.3650760526	 0.121457
H	 0.370796654	 0.3205463603	 1.0987320075	 0.089118
H	-3.0593332636	-1.2821782152	-1.0604697915	 0.139886
H	-1.3802787434	-1.2972513607	-1.82541148	 0.109752
H	-2.1826278354	-2.5627516043	 0.8944739437	 0.114072
H	-0.328190659	-3.4884581389	-0.4763256863	 0.29174
H	-1.1559174311	 1.3556905246	 2.0613677815	 0.258877
H	-2.7755373243	 1.3638859087	 2.6586265495	 0.259015
56.3783	120.5466	175.6441	183.318	214.2727	233.4884	247.9894	258.4201	329.3651	357.7045	432.4241	453.2647	531.3581	564.0277	594.9552	678.6327	755.2611	784.7456	841.7216	891.1739	922.77	972.9387	1013.6433	1053.8162	1061.0209	1086.6716	1099.1801	1132.4409	1180.2906	1226.0174	1279.3806	1298.3272	1309.6946	1365.4287	1384.4164	1405.982	1414.7278	1461.6655	1497.8316	1498.4124	1513.5895	1613.1167	1768.344	3007.4021	3037.4584	3087.9075	3106.0237	3112.3856	3132.4755	3135.7406	3238.0264	3604.3368	3739.2865	3812.0001
CCC1(CC1O)C(N)=O	CC[C@]1(C[C@H]1O)C(=O)N	
InChI=1S/C6H11NO2/c1-2-6(5(7)9)3-4(6)8/h4,8H,2-3H2,1H3,(H2,7,9)	InChI=1S/C6H11NO2/c1-2-6(5(7)9)3-4(6)8/h4,8H,2-3H2,1H3,(H2,7,9)/t4-,6-/m1/s1
