16
gdb 50155	5.25603	0.99075	0.88985	3.2081	76.14	-0.2229	-0.0181	0.2047	1260.1177	0.124434	-437.895503	-437.887708	-437.886763	-437.928332	28.93	
O	-0.0717510396	-0.01975117	 0.1746328626	-0.322756
C	-0.0023051554	 1.1873775699	 0.0967039885	 0.150942
N	 1.1633948589	 1.8932198119	-0.0133271936	-0.084521
C	 1.2735621605	 3.3531614304	-0.137690558	-0.270346
C	 2.7929810693	 3.5933823346	-0.1252492952	 0.412796
C	 3.4135959374	 4.8252241138	-0.625036095	-0.244494
O	 3.2976465252	 4.5894849446	 0.7809405739	-0.272277
C	 3.4058645514	 2.2407863539	-0.1242794194	-0.274846
C	 2.4392987388	 1.3202151719	-0.0413132137	 0.025321
H	-0.8863928868	 1.8532227008	 0.1050711332	 0.079355
H	 0.8146977281	 3.6947257387	-1.071346877	 0.132338
H	 0.7990043117	 3.8687920828	 0.7016826998	 0.146674
H	 4.4264304731	 4.7976282076	-1.0261769897	 0.119375
H	 2.7840653057	 5.6223658419	-1.0220906718	 0.114756
H	 4.468786884	 2.0557945644	-0.1484449409	 0.12109
H	 2.5010402276	 0.243427093	 0.0047617962	 0.166592
52.5254	152.4413	201.1051	252.4828	315.2557	346.3372	360.6156	439.5292	582.793	622.4805	759.6903	780.6739	789.9604	841.4263	902.4752	920.1577	948.4368	966.5443	1022.6147	1048.9543	1091.056	1126.5999	1164.8091	1211.4816	1230.8863	1243.0352	1296.8714	1320.6933	1406.6273	1438.6868	1449.9109	1501.1768	1530.4711	1662.6044	1794.4243	2951.6605	3044.577	3070.9705	3098.1555	3157.1062	3250.0026	3272.042
O=CN1CC2(CO2)C=C1	O=CN1C[C@]2(CO2)C=C1	
InChI=1S/C6H7NO2/c8-5-7-2-1-6(3-7)4-9-6/h1-2,5H,3-4H2	InChI=1S/C6H7NO2/c8-5-7-2-1-6(3-7)4-9-6/h1-2,5H,3-4H2/t6-/m0/s1
