25
gdb 118664	2.57902	0.71373	0.5873	2.5797	90.84	-0.2445	-0.0179	0.2266	2014.692	0.225913	-389.518278	-389.50649	-389.505546	-389.55688	40.978	
C	-0.0060444403	 1.6084213536	 0.0446002396	-0.381728
C	 0.0274749595	 0.0780254176	 0.0269882067	-0.177281
C	-1.3727824426	-0.5455641036	-0.020305041	-0.193742
C	-1.3780534378	-2.0886497472	-0.02402145	-0.069543
C	-2.8098175387	-2.6483859716	 0.1103353015	-0.193746
C	-2.8754642435	-4.1697950264	 0.2914818075	-0.177272
C	-4.308802419	-4.6876665312	 0.4360572967	-0.381734
C	-0.7640005467	-2.588752101	-1.3164164831	 0.175222
O	 0.2228971787	-3.2708395875	-1.4165459387	-0.259174
H	 1.0036472349	 2.0279242372	 0.08687209	 0.115813
H	-0.4940541255	 2.0051402712	-0.8526989555	 0.114712
H	-0.5593114884	 1.9828489869	 0.9132642926	 0.114078
H	 0.616998449	-0.2665363623	-0.8319136386	 0.109969
H	 0.5538725811	-0.2899201028	 0.9170436008	 0.102574
H	-1.9553838883	-0.2011578352	 0.843601048	 0.099166
H	-1.9093314066	-0.1812925789	-0.9085073657	 0.096692
H	-0.7564209063	-2.4624281385	 0.7983402868	 0.088446
H	-3.2927276564	-2.1576080647	 0.9649180549	 0.099172
H	-3.3953097419	-2.3562283764	-0.7735914638	 0.096691
H	-2.3893819736	-4.6665272703	-0.5575968867	 0.110012
H	-2.2903648103	-4.4509932265	 1.1765020327	 0.102565
H	-4.3276660441	-5.7731650215	 0.5723810988	 0.115812
H	-4.8088753729	-4.2344525765	 1.2994249412	 0.114068
H	-4.9070196915	-4.4531888697	-0.4515472245	 0.114709
H	-1.3264360189	-2.2597803548	-2.2263861299	 0.064518
43.6469	67.2089	76.8042	79.45	104.1021	127.6388	231.9365	245.4049	246.134	299.5335	300.9378	337.3687	373.6043	508.1142	559.166	735.0125	742.0606	837.061	857.8317	880.2244	921.6094	969.0399	976.582	1010.9282	1042.5948	1055.6719	1068.3943	1085.4679	1139.172	1153.0676	1181.0567	1247.5763	1248.3968	1278.3472	1320.1389	1324.9032	1329.2514	1357.6096	1361.3988	1389.0082	1400.9749	1414.1209	1414.2059	1427.6016	1478.1828	1486.9397	1491.7792	1495.4437	1500.1675	1500.3155	1509.5983	1511.0759	1832.0936	2818.2104	3003.3846	3007.6372	3023.6152	3023.6629	3029.9224	3030.1189	3037.6366	3038.3995	3048.577	3060.5925	3065.4149	3095.9532	3096.234	3104.545	3104.6656
CCCC(CCC)C=O	CCCC(CCC)C=O	
InChI=1S/C8H16O/c1-3-5-8(7-9)6-4-2/h7-8H,3-6H2,1-2H3	InChI=1S/C8H16O/c1-3-5-8(7-9)6-4-2/h7-8H,3-6H2,1-2H3
