20
gdb 99900	2.28205	1.34348	1.04098	2.3723	80.66	-0.2401	0.026	0.2661	1243.5595	0.168314	-403.084373	-403.074158	-403.073214	-403.119211	37.838	
C	 0.7419494156	-1.4844714178	-0.6129672569	-0.409021
C	-0.1611372042	-0.8147930073	 0.4234761371	-0.178677
C	-1.5767629245	-0.4691159553	-0.0981156878	 0.138332
O	-1.4885945253	 0.4498779322	-1.1978452801	-0.463641
C	-2.2903719897	-1.6831153358	-0.5229226723	 0.315089
C	-2.8640659056	-2.6728338581	-0.8933732237	-0.483665
C	-2.3771086835	 0.2300478289	 1.0056011146	 0.012548
C	-2.2870289723	 1.6987837108	 1.1744972363	-0.249812
N	-3.5242893803	 1.071283199	 0.665948589	-0.330174
H	 1.729063321	-1.6883911749	-0.188619098	 0.118145
H	 0.3187710504	-2.4336143136	-0.9553781824	 0.128075
H	 0.8834525554	-0.8364171114	-1.4834697693	 0.116062
H	-0.2681286751	-1.4578518387	 1.304697348	 0.105039
H	 0.2856040839	 0.1262362648	 0.7612725964	 0.109601
H	-1.4587460063	-0.0625507322	-2.0109593082	 0.294606
H	-3.3825809846	-3.5439157114	-1.211367253	 0.204461
H	-2.5235713886	-0.3978144895	 1.8810147888	 0.096993
H	-2.3643984228	 2.1330686041	 2.1671115851	 0.112874
H	-1.6706788089	 2.2494135611	 0.471402119	 0.127166
H	-3.5347030845	 1.184133995	-0.3466067427	 0.235997
84.8655	102.3652	146.3563	153.7486	185.2755	216.0057	247.9692	296.2786	318.6322	395.4068	419.0956	480.8835	558.7994	617.4138	630.8221	671.7427	707.0245	788.3155	847.1414	878.9754	951.5712	968.0024	977.2561	995.6629	1049.1557	1094.4697	1096.9162	1127.8093	1157.0938	1178.9704	1216.7507	1274.2662	1300.1261	1320.6569	1324.1188	1368.7737	1406.688	1421.8791	1473.7335	1499.545	1504.2301	1510.7636	2227.6646	3039.7155	3041.7639	3082.0358	3111.8404	3117.0206	3117.9316	3139.2811	3209.8699	3487.5914	3498.1389	3842.7554
CCC(O)(C#C)C1CN1	CC[C@@](O)(C#C)[C@H]1CN1	
InChI=1S/C7H11NO/c1-3-7(9,4-2)6-5-8-6/h1,6,8-9H,4-5H2,2H3	InChI=1S/C7H11NO/c1-3-7(9,4-2)6-5-8-6/h1,6,8-9H,4-5H2,2H3/t6-,7+/m1/s1
