21
gdb 104982	2.47382	1.28136	1.12273	0.6988	73.46	-0.263	0.0711	0.3341	1203.8953	0.179721	-461.344226	-461.334181	-461.333237	-461.378577	38.451	
C	-0.280701594	 1.4482422333	-0.0820444883	-0.429385
C	 0.0641541691	-0.0461915157	 0.0453044209	 0.279292
C	 0.8485367764	-0.3285330524	 1.3285440778	-0.405032
O	-1.1462020095	-0.7904513227	 0.1486540546	-0.465733
C	 0.8436882657	-0.5424831095	-1.1878680204	 0.33872
C	 2.105200603	 0.202816716	-1.6151623242	-0.146562
O	 2.5974526405	-0.2632851251	-2.8526140382	-0.417628
C	 0.6784649213	-1.9324990169	-1.6232022929	-0.230979
O	-0.0118559541	-0.857922387	-2.3089266653	-0.317256
H	 0.60320199	 2.0896626593	-0.0207334348	 0.115902
H	-0.783603098	 1.6485091109	-1.0341952176	 0.120623
H	-0.9609818064	 1.7224823142	 0.7282276315	 0.125783
H	 0.246245419	-0.0403461569	 2.1945010436	 0.128774
H	 1.0774869598	-1.3943260384	 1.4108696664	 0.12411
H	 1.784398453	 0.2363395237	 1.3580179189	 0.117143
H	-1.5396445408	-0.780258865	-0.7346087473	 0.286438
H	 1.895567123	 1.2818483333	-1.6557246003	 0.099617
H	 2.8971547739	 0.0489638594	-0.8746332816	 0.120327
H	 1.831159396	-0.2994343171	-3.4403172509	 0.292391
H	 1.4685239966	-2.3972797659	-2.2054836634	 0.131642
H	 0.0287802954	-2.5906898277	-1.0551013086	 0.131812
68.442	110.9256	199.4104	211.997	231.5617	278.7575	307.4352	318.8105	347.642	365.6412	405.5704	453.0665	493.1708	509.694	537.9734	580.433	677.8472	810.5653	855.8886	900.8655	929.8425	934.9572	978.7498	1009.367	1053.8081	1080.4023	1135.5785	1142.909	1163.1038	1180.6247	1213.6627	1234.7307	1269.5524	1362.6363	1377.7542	1399.5412	1413.1513	1421.4516	1437.3918	1477.8006	1487.1101	1500.1116	1501.6449	1506.0102	1510.1206	2997.2573	3037.4538	3046.7447	3074.2458	3108.3866	3119.8083	3122.333	3124.1741	3125.9132	3221.7809	3755.9174	3766.8756
CC(C)(O)C1(CO)CO1	CC(C)(O)[C@@]1(CO)CO1	
InChI=1S/C6H12O3/c1-5(2,8)6(3-7)4-9-6/h7-8H,3-4H2,1-2H3	InChI=1S/C6H12O3/c1-5(2,8)6(3-7)4-9-6/h7-8H,3-4H2,1-2H3/t6-/m1/s1
