19
gdb 80046	2.82737	1.61258	1.3851	2.3557	81.76	-0.2233	-0.0043	0.219	1013.3324	0.160566	-382.014148	-382.006388	-382.005444	-382.046065	30.93	
C	-0.2013196302	 1.5060591377	-0.0760950778	-0.307124
N	 0.0528834225	 0.0786045006	 0.0404839793	-0.099289
C	 1.3798147945	-0.5192621058	-0.1809685227	-0.087033
C	 2.5881218345	 0.3604974466	-0.0962332595	-0.098493
C	 2.7095083522	 0.896792319	 1.1229697256	-0.173623
C	 1.6387148462	 0.4041242369	 2.0349889135	 0.341436
C	 1.8907249047	 0.1534339122	 3.4811921279	-0.29532
N	 1.0244997263	 1.2651152715	 3.0727474837	-0.35794
C	 0.7492828421	-0.4824723009	 1.1854627335	-0.11846
H	 0.6397464415	 2.1555091469	 0.2018170883	 0.102721
H	-0.4770068964	 1.7253838391	-1.112746948	 0.115444
H	-1.0500623883	 1.7551132688	 0.566802104	 0.131586
H	 1.3879780947	-1.3969305769	-0.8208041873	 0.090528
H	 3.2396234973	 0.555063627	-0.93965257	 0.102693
H	 3.4529105199	 1.6229182281	 1.4371492699	 0.097326
H	 1.3758018948	-0.6688097869	 3.9728892204	 0.122702
H	 2.8825996108	 0.3677515128	 3.8714320583	 0.112414
H	 1.5334103507	 2.1448991327	 3.1310474298	 0.231158
H	 0.2753021123	-1.3402425192	 1.654875271	 0.089274
112.407	181.0481	199.3367	284.754	298.869	319.5316	459.082	499.8309	544.7417	624.2661	731.6239	754.1486	778.8026	820.8264	872.9594	875.4719	920.3224	941.9968	947.7109	962.3694	985.036	1007.5953	1061.6577	1080.383	1109.2349	1127.2927	1132.4645	1157.1538	1176.8988	1260.5373	1285.8709	1292.7984	1320.8374	1347.4607	1358.8609	1416.9414	1449.0491	1484.6453	1504.0252	1506.1275	1652.2682	3004.5987	3074.271	3098.3392	3111.1142	3138.9029	3149.4509	3175.2754	3184.9786	3210.7343	3485.5894
CN1C2C=CC3(CN3)C12	CN1[C@H]2C=C[C@]3(CN3)[C@@H]12	
InChI=1S/C7H10N2/c1-9-5-2-3-7(4-8-7)6(5)9/h2-3,5-6,8H,4H2,1H3	InChI=1S/C7H10N2/c1-9-5-2-3-7(4-8-7)6(5)9/h2-3,5-6,8H,4H2,1H3/t5-,6-,7-,9?/m0/s1
