12
gdb 132721	5.85082	0.99829	0.85279	2.9162	70.88	-0.2795	-0.0651	0.2144	1193.9896	0.07935	-439.712111	-439.705392	-439.704448	-439.743595	24.911	
F	-0.0081188838	 0.049569496	 0.0035534556	-0.05631
C	-0.0151007016	 1.373210553	 0.0107456211	 0.360606
N	-1.1980166348	 1.9466243751	 0.0293202125	-0.30702
C	-1.2293663727	 3.2782914921	 0.036800393	-0.045459
C	-0.0757964391	 4.0712076148	 0.0258735622	 0.122104
C	 1.1702781767	 3.4244626614	 0.0060523297	-0.137426
C	 1.2086344538	 2.042642683	-0.0018017593	-0.25742
C	-0.1736350613	 5.4949654352	 0.0347395502	 0.211944
N	-0.252327217	 6.6498851486	 0.0419183513	-0.322522
H	-2.2100841506	 3.743918469	 0.0521735018	 0.148703
H	 2.0844887917	 4.0060822748	-0.0028718118	 0.145649
H	 2.1376345088	 1.487600517	-0.0169786063	 0.137151
106.1898	153.653	261.8979	414.4063	422.9371	448.221	500.4284	562.9596	588.4935	658.0397	717.7975	780.8967	864.3981	877.5382	972.4614	994.2416	1033.8138	1147.8652	1230.1118	1303.5092	1311.4069	1341.0275	1411.5001	1521.5846	1604.3126	1637.9793	2347.2467	3183.7025	3207.7361	3224.2217
FC1=NC=C(C=C1)C#N	Fc1ncc(cc1)C#N	
InChI=1S/C6H3FN2/c7-6-2-1-5(3-8)4-9-6/h1-2,4H	InChI=1S/C6H3FN2/c7-6-2-1-5(3-8)4-9-6/h1-2,4H
