20
gdb 80537	2.1946	1.75692	1.29803	3.326	78.76	-0.2319	-0.0074	0.2244	1076.4055	0.171281	-403.132828	-403.124432	-403.123488	-403.165402	32.689	
C	-0.0333770739	 1.6045694181	 0.0887586704	-0.417609
C	 0.0513547898	 0.0802009762	 0.0107638498	 0.01276
C	 0.9925766362	-0.4787479444	-1.1179047476	-0.261136
C	 1.9710429504	-1.3094160814	-0.2402520403	-0.123564
N	 1.1210202645	-1.967159323	 0.801471742	-0.096354
C	 0.0870613571	-2.9123164636	 0.4088153628	-0.331639
C	 0.7530189782	-0.5839306616	 1.2362622306	-0.134305
C	 2.2326746797	-0.2964475076	 0.8964154175	 0.473939
O	 3.1405208772	 0.3405260336	 1.3290528395	-0.326675
H	 0.9585077739	 2.0545740056	 0.204769581	 0.133734
H	-0.4858168249	 2.0198956226	-0.8174267846	 0.118603
H	-0.6439491792	 1.9229814511	 0.9406076959	 0.118045
H	-0.959200421	-0.326105114	-0.0947883199	 0.079171
H	 0.4647736516	-1.0968977893	-1.8481734062	 0.107561
H	 1.5093451735	 0.3160714973	-1.664170077	 0.113348
H	 2.7518607131	-1.8995185412	-0.7181015258	 0.087936
H	 0.5658072422	-3.8284337308	 0.0492808009	 0.128403
H	-0.5077309936	-3.1709371166	 1.2902624821	 0.128652
H	-0.6005614821	-2.5589062155	-0.3746136634	 0.104277
H	 0.3191852873	-0.4525363953	 2.2271760824	 0.084854
128.7599	154.6824	201.3231	220.1251	251.1357	275.9466	325.0009	419.1705	497.8862	538.5775	641.988	672.0966	690.7608	773.8719	812.0215	850.6083	878.8971	916.226	936.0447	1000.6725	1038.3531	1059.7005	1065.0933	1100.0959	1139.8655	1150.1452	1159.1753	1179.7547	1212.7155	1222.0246	1235.3033	1282.1197	1307.8293	1316.6644	1367.2746	1415.5463	1448.7993	1484.9443	1497.815	1498.9055	1502.3512	1510.9472	1930.1766	2987.4306	3030.5441	3049.352	3059.83	3070.7083	3097.2633	3102.5418	3105.7916	3106.7821	3127.9323	3134.2284
CC1CC2N(C)C1C2=O	C[C@H]1C[C@@H]2N(C)[C@H]1C2=O	
InChI=1S/C7H11NO/c1-4-3-5-7(9)6(4)8(5)2/h4-6H,3H2,1-2H3	InChI=1S/C7H11NO/c1-4-3-5-7(9)6(4)8(5)2/h4-6H,3H2,1-2H3/t4-,5-,6+/m0/s1
