20
gdb 103605	2.48565	1.27157	1.11839	3.0691	75.72	-0.2396	-0.0319	0.2077	1213.47	0.168977	-440.284413	-440.274534	-440.27359	-440.318951	36.412	
C	-0.8380894732	 1.183389351	-0.0627104341	-0.389726
C	 0.0519297503	-0.0484643207	-0.0028365274	-0.062849
N	 1.2101678673	-0.081488691	-0.9510195357	-0.38041
C	 2.1879462073	-0.4539298121	 0.1213733318	 0.174989
C	 2.658319248	-1.9081304222	 0.1139781457	-0.450947
C	 3.3650357725	 0.5266209321	 0.2625985926	-0.091232
O	 4.0318328567	 0.3367644174	 1.4951325241	-0.421331
C	 1.0777670751	-0.143936252	 1.133938089	 0.35295
O	 1.0712312666	 0.0818242789	 2.3129774962	-0.323337
H	-0.2345828411	 2.0944128805	-0.0349552496	 0.128823
H	-1.4270563047	 1.1915524879	-0.9847639502	 0.123425
H	-1.5271357365	 1.1922679874	 0.787580287	 0.131464
H	-0.5609720357	-0.9625255698	-0.0342219531	 0.099169
H	 1.1222284367	-0.7881693205	-1.6734520033	 0.218959
H	 3.2082903469	-2.1118561643	-0.8125255175	 0.123368
H	 3.3338524464	-2.0842517621	 0.9541090208	 0.152155
H	 1.822055847	-2.6115283161	 0.1784350626	 0.114354
H	 4.100623806	 0.3509612135	-0.5309413452	 0.107538
H	 2.9885807998	 1.5530598665	 0.1441434529	 0.09492
H	 3.3738472945	 0.4521027457	 2.1934569935	 0.297718
70.5081	115.0502	165.294	192.3675	204.9624	228.9734	243.3718	293.0453	321.6593	407.5512	411.1936	488.5304	533.2778	637.7369	696.3945	721.0601	796.9747	852.8114	943.572	959.1759	966.8842	1001.7808	1028.1901	1076.4904	1077.7989	1113.1691	1148.1856	1165.1681	1206.1178	1260.8437	1291.3339	1346.1539	1363.4158	1375.7425	1396.1249	1404.4918	1436.2334	1484.1878	1484.4557	1495.1782	1499.2266	1510.0717	1880.4522	2986.1724	2998.5328	3029.1012	3041.6622	3063.1332	3094.7324	3113.9912	3124.6915	3132.026	3529.7169	3763.1794
CC1NC(C)(CO)C1=O	C[C@H]1N[C@@](C)(CO)C1=O	
InChI=1S/C6H11NO2/c1-4-5(9)6(2,3-8)7-4/h4,7-8H,3H2,1-2H3	InChI=1S/C6H11NO2/c1-4-5(9)6(2,3-8)7-4/h4,7-8H,3H2,1-2H3/t4-,6+/m1/s1
