15
gdb 44840	2.55552	1.84119	1.43399	4.7164	64.52	-0.26	-0.0459	0.2141	917.0802	0.114609	-457.8302	-457.823647	-457.822702	-457.861275	25.989	
O	-0.0015471239	 0.0091724557	 0.0064012983	-0.305487
C	-0.0247999019	 1.2063481991	 0.0143607511	 0.424367
C	-1.2613124182	 2.1295898305	 0.0272598453	-0.340909
C	-0.5877936406	 3.5094845517	 0.022579649	 0.090327
C	 0.622806677	 3.3007529748	-0.9027369699	-0.256136
C	 1.1907234459	 2.1642266486	-0.0166837619	-0.262312
C	 1.1489191832	 2.8732971035	 1.3451643848	 0.439905
O	 1.8782461749	 2.7790853487	 2.2831722468	-0.331126
O	 0.0454667706	 3.6863245505	 1.3212861293	-0.239156
H	-1.8700128001	 1.9578979106	-0.866101474	 0.14103
H	-1.8828194417	 1.9536651308	 0.90803216	 0.153639
H	-1.2299212815	 4.3686785202	-0.1567868348	 0.107327
H	 0.3496087668	 2.9802775708	-1.9109163042	 0.125355
H	 1.2750592796	 4.1748170389	-0.954666672	 0.134806
H	 2.14133018	 1.6927037355	-0.2440208977	 0.118369
121.8115	156.1819	389.9158	403.7114	427.2341	497.0402	540.3661	596.6901	663.3234	730.7147	769.4127	822.2236	837.3715	900.8243	925.8243	943.3486	952.2795	992.0097	1024.1933	1060.2995	1124.2143	1160.3893	1170.1043	1185.3294	1216.7089	1259.319	1305.1097	1320.6226	1358.5443	1442.0415	1500.7268	1866.5293	1908.3074	3066.9748	3074.4717	3124.3364	3132.2707	3151.7236	3184.8546
O=C1CC2CC1C(=O)O2	O=C1C[C@@H]2C[C@H]1C(=O)O2	
InChI=1S/C6H6O3/c7-5-2-3-1-4(5)6(8)9-3/h3-4H,1-2H2	InChI=1S/C6H6O3/c7-5-2-3-1-4(5)6(8)9-3/h3-4H,1-2H2/t3-,4+/m0/s1
