17
gdb 34751	2.88464	1.70246	1.51885	4.2803	74.28	-0.2477	0.0092	0.2569	926.6692	0.139089	-380.847132	-380.84031	-380.839366	-380.878275	27.262	
N	-0.2377147988	-1.1874513863	-0.3292270336	-0.336676
C	-0.1197755524	-0.0484762326	-0.1676447601	 0.298316
C	 0.0105247824	 1.3917853236	 0.0438416123	-0.105182
C	-0.2663222255	 2.0054366446	 1.4497785502	-0.074048
C	 0.0989264982	 1.019569157	 2.5653144277	-0.221113
C	 1.5841211156	 0.669181768	 2.2711494329	-0.254068
C	 2.0452479101	 1.7828081696	 1.3384138322	-0.008799
C	 1.0201809912	 2.8304376142	 1.1919988029	-0.057013
N	 1.3986780787	 1.9787982457	-0.0007898229	-0.156237
H	-0.5678425672	 1.9004600101	-0.7324473042	 0.134206
H	-1.2203370159	 2.5173132178	 1.5663422767	 0.086455
H	 0.0000717377	 1.513752655	 3.5373409915	 0.107349
H	-0.5505826669	 0.1397229487	 2.5678803433	 0.124644
H	 2.1921388217	 0.6701758304	 3.1803708472	 0.11053
H	 1.6947103004	-0.3166963291	 1.812215656	 0.140202
H	 3.0979792936	 2.0376702442	 1.2867943287	 0.106892
H	 1.1522956669	 3.904971469	 1.2073067193	 0.104543
138.0014	147.681	249.3292	358.1362	393.2501	534.2001	546.3924	625.8081	676.7172	762.3268	792.8454	818.2408	840.3949	859.7745	905.3299	915.359	947.4664	1002.1466	1027.4691	1037.3125	1052.9993	1061.1255	1090.7687	1155.8907	1189.2771	1218.2596	1230.4117	1270.0846	1280.3091	1285.3218	1313.7066	1338.4844	1362.4278	1397.5411	1484.3409	1503.5065	2347.1119	3049.6694	3064.9714	3072.8095	3094.3472	3110.5621	3127.4897	3177.6708	3195.5861
N#CC1C2CCC3C2N13	N#C[C@H]1[C@H]2CC[C@@H]3[C@H]2N13	
InChI=1S/C7H8N2/c8-3-6-4-1-2-5-7(4)9(5)6/h4-7H,1-2H2	InChI=1S/C7H8N2/c8-3-6-4-1-2-5-7(4)9(5)6/h4-7H,1-2H2/t4-,5-,6+,7+,9?/m1/s1
