21
gdb 109071	3.42447	1.20122	1.15652	1.706	83.03	-0.2319	0.0197	0.2516	1199.3551	0.184834	-387.100884	-387.092866	-387.091922	-387.133595	31.655	
C	-0.2834324563	 1.50322206	-0.0537907212	-0.371978
C	 0.1460692797	 0.0265512949	 0.0138237069	-0.310616
C	 0.8704760605	-0.4355994817	-1.2096145093	 0.373855
C	 2.1131504217	-0.9026970996	-1.3604682491	-0.222764
C	 2.2207225704	-1.3424726543	-2.8137993197	 0.025217
C	 1.4010543807	-2.6681742187	-2.9549606158	-0.209244
C	-0.0474707967	-2.1254482867	-2.7821671882	-0.218856
C	 0.2368878001	-0.5974943321	-2.5959632101	-0.035284
O	 1.3521462249	-0.4093854695	-3.472467942	-0.247904
H	 0.5875350841	 2.1563518061	-0.1618247607	 0.126091
H	-0.9454857499	 1.6889342385	-0.9053221591	 0.120701
H	-0.8187667163	 1.793389284	 0.8554353605	 0.113065
H	 0.7793720925	-0.1322693889	 0.8938894306	 0.104703
H	-0.7491225357	-0.5948657004	 0.1625271453	 0.104865
H	 2.8645160276	-1.061946463	-0.5977410187	 0.094697
H	 3.2080159381	-1.3408593847	-3.2744100415	 0.075956
H	 1.5476646981	-3.0986892205	-3.948475741	 0.103443
H	 1.6807294579	-3.4156961297	-2.2095829446	 0.097789
H	-0.6436663519	-2.2894057919	-3.682703019	 0.103541
H	-0.5809411116	-2.5610293769	-1.9338750291	 0.098237
H	-0.5802897182	 0.072662495	-2.8617741741	 0.074485
75.4453	125.1651	192.219	239.5081	259.342	372.1728	430.8434	557.1741	579.2978	632.15	733.1758	786.3308	812.4808	832.1068	842.5468	865.7698	889.1061	892.9289	936.9644	947.2617	961.2599	1001.3908	1037.6426	1048.4127	1073.2298	1090.7335	1132.5772	1178.7566	1208.2488	1230.9948	1243.3041	1247.1732	1288.0603	1293.592	1322.9152	1342.4337	1349.3504	1357.476	1411.1523	1477.6774	1482.674	1498.0268	1502.6928	1505.9102	1693.3767	3002.616	3039.0328	3059.0173	3062.3084	3072.1212	3105.3503	3108.5499	3114.1519	3121.8746	3123.3033	3128.6695	3214.8127
CCC1=CC2CCC1O2	CCC1=C[C@H]2CC[C@@H]1O2	
InChI=1S/C8H12O/c1-2-6-5-7-3-4-8(6)9-7/h5,7-8H,2-4H2,1H3	InChI=1S/C8H12O/c1-2-6-5-7-3-4-8(6)9-7/h5,7-8H,2-4H2,1H3/t7-,8+/m1/s1
