21
gdb 63578	3.16167	1.26754	1.05662	1.827	85.64	-0.2347	0.0137	0.2484	1228.3618	0.181218	-387.10124	-387.092001	-387.091057	-387.135464	35.071	
C	-0.0589878506	 1.5230894424	 0.0164643087	-0.45577
C	-0.092179478	 0.0091244649	 0.0859848675	 0.309168
C	-1.2884114287	-0.6148180125	-0.6042704214	-0.457693
O	 1.1654903679	-0.6363450177	-0.1724874885	-0.337842
C	 0.6301897679	-0.6975201821	 1.1696930672	 0.365611
C	 1.4078071313	 0.0110995292	 2.2925285412	-0.312929
C	 1.5615276169	-1.0369543532	 3.426933846	-0.275445
C	 0.7797317221	-2.2265155074	 2.9284187952	-0.072134
C	 0.2757929513	-2.0389534043	 1.7092325406	-0.141746
H	 0.849512099	 1.9260412691	 0.4667984077	 0.126719
H	-0.0934803814	 1.8509784374	-1.0284362603	 0.122025
H	-0.9256229933	 1.9556612605	 0.5289099023	 0.117103
H	-1.3283264071	-0.2894110684	-1.6498845767	 0.122188
H	-1.2369904145	-1.7043487736	-0.5951573866	 0.126244
H	-2.2222257595	-0.3040233468	-0.1231842757	 0.118364
H	 2.3717512516	 0.3543241117	 1.9101636049	 0.121404
H	 0.8662915696	 0.8920249963	 2.6484529866	 0.108364
H	 2.6097389047	-1.3031061338	 3.6128737522	 0.113222
H	 1.1706818603	-0.6668342899	 4.382290591	 0.108658
H	 0.6639330708	-3.1306686135	 3.5162749422	 0.096985
H	-0.2977083102	-2.7636524884	 1.1461671758	 0.097504
38.0682	144.5475	156.7005	182.7083	211.8076	249.3846	346.6272	377.6123	428.6483	468.7882	510.5905	545.7015	671.5085	753.4842	766.1835	815.2797	823.9165	886.8097	926.6218	937.9027	943.4977	972.9537	993.2756	1010.455	1047.824	1109.4098	1141.1664	1152.383	1177.1968	1195.3447	1245.0035	1248.0862	1279.9381	1326.5485	1370.5984	1405.4057	1415.6764	1448.6337	1473.5686	1474.1046	1486.6748	1495.6915	1502.0809	1515.4401	1681.4954	3025.058	3032.0844	3037.8691	3048.5545	3062.8193	3090.3289	3096.1042	3109.6802	3136.4306	3139.861	3188.4344	3222.7806
CC1(C)OC11CCC=C1	CC1(C)O[C@]21CCC=C2	
InChI=1S/C8H12O/c1-7(2)8(9-7)5-3-4-6-8/h3,5H,4,6H2,1-2H3	InChI=1S/C8H12O/c1-7(2)8(9-7)5-3-4-6-8/h3,5H,4,6H2,1-2H3/t8-/m0/s1
