18
gdb 17571	3.47274	2.39746	1.93951	1.6381	70.42	-0.2473	0.0922	0.3396	774.7378	0.155148	-347.766445	-347.759996	-347.759052	-347.796456	27.058	
C	 0.0008617855	 1.5052925915	 0.090431494	-0.498174
C	 0.0139285189	 0.006842658	-0.0132899538	 0.405444
C	 0.9010900265	-0.8065886212	-1.0060751882	-0.255888
C	 0.7198914273	-1.8141869729	 0.1571032717	 0.052371
O	 0.7232874731	-0.6803515247	 1.072472676	-0.317747
C	-0.7784677556	-2.1806264555	 0.0580993508	-0.052002
C	-1.6699266627	-1.6098167407	 1.1315773421	-0.295027
C	-1.3266893404	-0.773778244	-0.07565017	-0.089026
H	 1.0176039316	 1.9034816119	 0.1462815838	 0.125613
H	-0.4967973995	 1.940858131	-0.7823378698	 0.120696
H	-0.5458989026	 1.8206759732	 0.9848599131	 0.13189
H	 0.4952587026	-1.0581262286	-1.9900228342	 0.089095
H	 1.9186027457	-0.4152605751	-1.0718638897	 0.10089
H	 1.4465649911	-2.5871223049	 0.4067992501	 0.07839
H	-1.096881786	-3.0087069132	-0.5631024109	 0.086825
H	-2.6815102555	-2.0008053457	 1.1678327273	 0.104368
H	-1.2375366732	-1.3514149107	 2.0899147295	 0.128617
H	-2.0796257568	-0.4907855582	-0.8013711119	 0.083666
201.5598	242.0978	295.7373	377.4563	420.9149	514.6155	601.5862	627.5451	705.6018	774.0538	792.4247	817.301	828.8099	878.6446	905.6397	938.0976	954.1334	975.5716	1014.679	1036.8102	1062.7966	1075.4451	1092.76	1099.7959	1137.027	1181.0113	1197.542	1210.9061	1247.3684	1264.2769	1297.3139	1316.4221	1364.467	1415.3174	1461.6408	1479.1805	1486.3376	1493.073	3038.4175	3056.6278	3107.5428	3117.9682	3121.6272	3130.3124	3139.5978	3180.8186	3190.9898	3232.2209
CC12CC(O1)C1CC21	C[C@@]12C[C@@H](O1)[C@H]1C[C@@H]21	
InChI=1S/C7H10O/c1-7-3-6(8-7)4-2-5(4)7/h4-6H,2-3H2,1H3	InChI=1S/C7H10O/c1-7-3-6(8-7)4-2-5(4)7/h4-6H,2-3H2,1H3/t4-,5+,6+,7-/m0/s1
