20
gdb 74271	2.6416	1.43092	1.19054	2.6997	80.88	-0.228	0.0122	0.2402	1145.0315	0.170526	-403.140034	-403.131242	-403.130298	-403.172854	34.631	
C	 0.0063888062	 1.5237956488	 0.0775770897	-0.499387
C	-0.0369415872	 0.0318225165	-0.0126568124	 0.34704
C	-0.0855291917	-0.732985613	-1.1074325381	-0.248866
C	-0.0553846806	-2.2305346057	-0.8126323197	 0.388643
C	-1.2682382635	-2.9779988072	-1.3559947723	-0.428661
O	 1.096492515	-2.844973057	-1.382046597	-0.474239
C	 0.0083629347	-2.2454062012	 0.7255617873	-0.102022
N	 1.2838876182	-1.6787387249	 1.2172378474	-0.359636
C	 0.0373117058	-0.8479809114	 1.202613707	-0.144918
H	 0.9312813287	 1.8603718842	 0.5628025118	 0.133588
H	-0.0501216778	 1.9871632421	-0.9107045116	 0.127016
H	-0.8236390824	 1.9110084171	 0.6821816688	 0.123997
H	-0.0654617445	-0.3699316391	-2.1299086234	 0.092175
H	-1.313816486	-2.8834926742	-2.4446004391	 0.123609
H	-1.194063227	-4.0419056324	-1.1090148817	 0.118756
H	-2.1937907323	-2.5768725903	-0.932869943	 0.114157
H	 1.842010812	-2.4917898941	-0.8760825498	 0.284228
H	-0.4596541194	-3.0524956835	 1.2790675545	 0.085473
H	 1.4476656483	-2.0188265653	 2.1635646528	 0.230572
H	-0.3848387266	-0.5379857693	 2.1532136888	 0.088473
114.0356	177.6086	192.813	215.8248	256.6914	275.4291	337.6782	385.0321	453.1263	504.4894	528.7693	575.815	611.5028	630.6137	804.8349	841.9971	845.9683	872.9888	897.1085	927.6435	946.6742	953.2757	1018.9337	1055.6983	1070.1426	1081.6422	1125.1146	1149.7358	1160.9883	1201.8691	1228.0036	1265.6212	1294.6106	1352.624	1396.8586	1406.6822	1412.586	1426.355	1479.5638	1481.3466	1487.7436	1494.2931	1708.1052	3018.2328	3038.2714	3065.0181	3112.2172	3114.7168	3119.2449	3160.0785	3170.9426	3186.8704	3477.4446	3740.7386
CC1=CC(C)(O)C2NC12	CC1=C[C@@](C)(O)[C@H]2N[C@@H]12	
InChI=1S/C7H11NO/c1-4-3-7(2,9)6-5(4)8-6/h3,5-6,8-9H,1-2H3	InChI=1S/C7H11NO/c1-4-3-7(2,9)6-5(4)8-6/h3,5-6,8-9H,1-2H3/t5-,6-,7+/m0/s1
