19
gdb 35695	2.49046	1.42194	1.08527	4.5917	79.64	-0.25	0.0134	0.2634	1161.715	0.160719	-382.047921	-382.03962	-382.038675	-382.081163	31.35	
N	-0.4188267682	-0.785189761	-0.9105393365	-0.336516
C	-0.2524299425	 0.229777232	-0.3826358555	 0.307873
C	-0.017079551	 1.5283324558	 0.2479971167	-0.207262
N	 0.2194311084	 1.5010251571	 1.7059391788	-0.307319
C	 1.2764122855	 2.5315696801	 1.5741891044	-0.229103
C	 1.3832867864	 2.1918854798	 0.0656958611	 0.351168
C	 2.6175640071	 1.38511838	-0.407316189	-0.273253
C	 3.1427928346	 2.6732709544	-1.1002233894	-0.212853
C	 1.7122902519	 3.2707610079	-0.9861033086	-0.297651
H	-0.813951492	 2.2161820956	-0.0741514423	 0.105105
H	-0.5814399562	 1.7474062177	 2.2770570252	 0.228397
H	 0.9297482044	 3.561972435	 1.7412154416	 0.094458
H	 2.1597936409	 2.3482569851	 2.1946683158	 0.113294
H	 3.2358813268	 0.9284724056	 0.3688787455	 0.109386
H	 2.3391540889	 0.6131421854	-1.130197707	 0.127183
H	 3.862815908	 3.2128841204	-0.4795369521	 0.107679
H	 3.5610476729	 2.5658554308	-2.1026824032	 0.106933
H	 1.1345679941	 3.125654195	-1.9045600515	 0.11202
H	 1.61285404	 4.3142819934	-0.674465304	 0.10046
88.6441	98.9404	139.9016	190.6147	277.9871	356.1962	374.1646	450.2614	544.9051	577.2926	673.3443	706.9319	778.4361	844.1113	882.8454	897.4518	921.1643	936.5633	963.592	991.7811	1023.558	1051.937	1062.2319	1138.3578	1154.3613	1175.9118	1194.6445	1201.8244	1239.7016	1257.4226	1275.9215	1276.7807	1305.9324	1327.4357	1360.9424	1389.0729	1471.6613	1482.9214	1503.5315	1520.0773	2353.0715	2982.4486	2993.3083	3047.7574	3061.656	3065.2664	3067.6588	3096.9087	3111.1455	3126.6313	3532.15
N#CC1NCC11CCC1	N#C[C@H]1NCC21CCC2	
InChI=1S/C7H10N2/c8-4-6-7(5-9-6)2-1-3-7/h6,9H,1-3,5H2	InChI=1S/C7H10N2/c8-4-6-7(5-9-6)2-1-3-7/h6,9H,1-3,5H2/t6-/m1/s1
