17
gdb 86927	4.11376	0.86621	0.75804	2.3677	69.95	-0.2522	-0.0411	0.2111	1440.9073	0.133006	-458.97012	-458.960692	-458.959748	-459.005535	32.723	
O	 0.2285636181	 1.5041343798	 0.0313206343	-0.42997
C	 0.1065185878	 0.1181452793	 0.0406331052	 0.079779
C	-1.294855597	-0.5927493323	 0.1265583255	-0.305364
C	-0.8038088942	-1.6701913884	-0.8983554156	-0.110272
C	-1.7420743035	-2.1730506117	-1.9971327617	-0.297581
C	-1.0220593038	-3.0746796377	-2.9847269664	 0.148944
O	-1.3424553087	-4.2118791329	-3.2168539159	-0.236556
C	 0.2575495497	-0.6287945689	-1.2847792994	 0.327135
O	 0.7132873747	-0.2750223873	-2.3388575248	-0.312378
H	 0.268655798	 1.7862723628	-0.8910716392	 0.297235
H	 0.7665528902	-0.2986490756	 0.811794122	 0.116587
H	-1.5997004797	-0.9479072887	 1.1105202079	 0.123789
H	-2.0750510347	 0.040891539	-0.3024858189	 0.123572
H	-0.3435580272	-2.5100536473	-0.3657496337	 0.118083
H	-2.5872120901	-2.7231418458	-1.5737867549	 0.128069
H	-2.1303207303	-1.3095995888	-2.5546106874	 0.123718
H	-0.1529621193	-2.6002458754	-3.4887200071	 0.10521
53.5695	71.0378	97.1399	144.6375	167.9623	231.3235	281.1892	331.9023	381.6016	469.8304	557.7846	595.6381	706.1021	785.5056	804.0941	862.746	952.7483	955.0515	975.7332	1018.7052	1062.8566	1097.716	1125.3254	1163.6276	1167.9264	1213.0008	1252.519	1257.8247	1300.6013	1330.3122	1360.9743	1416.3171	1423.5137	1461.1904	1482.667	1832.9055	1858.9825	2913.299	3022.7013	3035.3547	3052.7918	3077.7672	3101.7032	3148.8224	3778.0888
OC1CC(CC=O)C1=O	O[C@H]1C[C@@H](CC=O)C1=O	
InChI=1S/C6H8O3/c7-2-1-4-3-5(8)6(4)9/h2,4-5,8H,1,3H2	InChI=1S/C6H8O3/c7-2-1-4-3-5(8)6(4)9/h2,4-5,8H,1,3H2/t4-,5+/m1/s1
