21
gdb 114740	2.87277	1.26339	1.00792	2.3161	77.1	-0.2512	0.0704	0.3216	1246.6482	0.183252	-424.220229	-424.211543	-424.210598	-424.253793	33.587	
C	 0.0888880679	 1.5134411073	-0.0900955103	-0.389435
C	 0.0205461763	-0.0169295654	-0.0640500967	-0.173638
C	-1.40658417	-0.5647032882	-0.0146573906	 0.001563
C	-2.2983502095	-0.2257097889	-1.2444762573	-0.265403
C	-3.2557136968	-1.3997512455	-1.3610068949	 0.046588
O	-2.641131884	-2.5779645452	-1.915182294	-0.264515
C	-2.8136384109	-2.4987692855	-0.4897535198	-0.009685
C	-1.4884761444	-2.1134769111	 0.1760734011	 0.082748
O	-0.4109771221	-2.8323270966	-0.3951568699	-0.429213
H	 1.1267667266	 1.8601419397	-0.1066046611	 0.113513
H	-0.4095450831	 1.9261865446	-0.9737719128	 0.11548
H	-0.3921678632	 1.9490706199	 0.7933163122	 0.110667
H	 0.5308970574	-0.430234807	-0.9409755628	 0.100747
H	 0.5738179556	-0.3943418573	 0.8045408022	 0.099614
H	-1.9120474955	-0.135333369	 0.8622820607	 0.07062
H	-2.8377370516	 0.7163577219	-1.1111346643	 0.105577
H	-1.7121598432	-0.1363003457	-2.1666444521	 0.1137
H	-4.294242337	-1.2582635049	-1.6492395715	 0.099841
H	-3.4776127781	-3.2443085014	-0.0607663557	 0.100347
H	-1.4865441601	-2.3648503214	 1.241294846	 0.081533
H	-0.6180093341	-2.9042787804	-1.3371050283	 0.289351
66.2019	100.657	174.8685	220.8556	266.607	303.5311	375.594	402.5991	480.6854	507.4486	583.7153	686.9611	717.6499	773.7148	794.838	826.0912	867.3443	897.5556	941.6227	957.0877	980.4905	1016.2895	1047.6123	1057.867	1105.2538	1109.3205	1151.4649	1158.9149	1205.8564	1247.7728	1265.6939	1274.6688	1306.2552	1312.6692	1321.6456	1330.5161	1371.741	1389.6903	1413.6995	1424.8428	1448.5657	1480.5006	1487.666	1501.3341	1507.1458	2997.8049	3028.6923	3034.9839	3041.45	3063.3351	3068.0268	3090.3394	3097.0407	3102.1901	3143.6693	3156.9806	3750.6922
CCC1CC2OC2C1O	CC[C@H]1C[C@H]2O[C@H]2[C@H]1O	
InChI=1S/C7H12O2/c1-2-4-3-5-7(9-5)6(4)8/h4-8H,2-3H2,1H3	InChI=1S/C7H12O2/c1-2-4-3-5-7(9-5)6(4)8/h4-8H,2-3H2,1H3/t4-,5+,6-,7+/m0/s1
