21
gdb 61491	2.35479	0.87731	0.82187	2.8902	85.32	-0.246	-0.0197	0.2263	1548.7538	0.1784	-387.074245	-387.063246	-387.062302	-387.111522	38.938	
C	 0.1444061578	 1.6281041147	 0.1053361502	-0.41608
C	 0.1114465144	 0.0918507512	 0.0415624917	-0.065526
C	 0.6115040468	-0.4719791121	-1.3060947457	-0.195366
C	-0.1935949534	-0.0244499693	-2.5501153873	-0.158469
C	 0.3972486404	-0.6473702781	-3.8313553384	-0.392494
C	-1.6131548855	-0.350276067	-2.4191639411	 0.350071
C	-2.7768131387	-0.6353108769	-2.3158330621	-0.491333
C	 0.9900326465	-0.4752302179	 1.1404435363	 0.159017
O	 0.6431496365	-1.2793052352	 1.9657516931	-0.248136
H	 1.1521777696	 2.0139338227	-0.088483226	 0.117952
H	-0.5333563883	 2.0661514447	-0.6314844945	 0.135509
H	-0.1681714375	 1.9853629987	 1.0913441064	 0.129283
H	-0.9050282756	-0.2696831292	 0.2230184775	 0.110881
H	 1.6582977928	-0.1780574759	-1.4614864734	 0.097851
H	 0.5922967812	-1.5671800308	-1.2599108826	 0.118945
H	-0.1052548118	 1.0660734816	-2.6413498451	 0.109253
H	 0.3410681123	-1.7391994789	-3.7914496616	 0.13008
H	-0.1512753005	-0.3118939949	-4.7150043807	 0.128517
H	 1.4470828053	-0.3593528239	-3.9446435094	 0.115391
H	-3.8061283278	-0.8805589704	-2.2254126445	 0.200163
H	 2.0374566154	-0.0840360932	 1.1290741171	 0.064492
35.2818	45.1075	88.7573	138.7437	199.2106	212.4707	219.977	259.1281	292.5527	320.7948	365.3782	386.5779	531.6386	549.3774	588.1714	632.5814	640.7459	783.5945	846.8847	905.0714	908.8567	944.7121	992.6352	1016.4416	1056.8646	1118.5857	1138.0583	1146.7031	1169.1336	1239.3601	1278.5722	1319.1536	1350.6121	1368.0506	1376.1855	1406.2933	1410.8135	1430.9103	1479.8136	1492.2276	1496.2953	1500.668	1506.3988	1836.6367	2232.6175	2828.6891	3016.6847	3020.0529	3034.0905	3041.2119	3064.7611	3079.5008	3102.8406	3114.424	3120.3679	3124.0393	3503.1438
CC(CC(C)C#C)C=O	C[C@@H](C[C@@H](C)C#C)C=O	
InChI=1S/C8H12O/c1-4-7(2)5-8(3)6-9/h1,6-8H,5H2,2-3H3	InChI=1S/C8H12O/c1-4-7(2)5-8(3)6-9/h1,6-8H,5H2,2-3H3/t7-,8-/m0/s1
