15
gdb 45649	3.60333	1.54619	1.17629	3.2601	71.24	-0.2422	-0.0373	0.205	997.174	0.113567	-416.75637	-416.749645	-416.748701	-416.787556	26.412	
O	-0.2107765633	-0.0255149986	-0.0315143201	-0.278268
C	-0.0574469757	 1.1592983587	 0.0040586395	 0.345865
C	-1.1558976172	 2.2683650799	-0.0197529625	-0.273131
N	-0.5870490608	 3.3765243685	 0.771286004	-0.290716
C	 0.6695630942	 3.2132530412	 0.7206981106	 0.361658
C	 1.2551030987	 1.9765399019	 0.096092543	-0.226357
C	 2.2743885165	 2.1182434706	 1.2411136431	-0.059796
C	 3.0050663546	 3.3767228327	 1.0405245229	-0.223842
N	 1.6804793075	 3.5061466239	 1.699844937	-0.178334
H	-1.3834759321	 2.5498548133	-1.0572612959	 0.134825
H	-2.0831335249	 1.9083974378	 0.4344207081	 0.145552
H	 1.7070976126	 2.0068661876	-0.8999531426	 0.128316
H	 2.5134931549	 1.3803255553	 1.995766178	 0.139404
H	 3.81448963	 3.6130335988	 1.7234807467	 0.143592
H	 3.1340039152	 3.7656368184	 0.0330212082	 0.131231
108.4427	190.0484	290.1866	333.751	441.945	486.5234	556.4356	598.9772	620.8257	686.8884	770.4891	798.6136	840.7766	908.3518	925.1613	972.2538	1003.7357	1035.7105	1050.0912	1073.1702	1114.8682	1134.795	1154.1525	1173.6523	1183.5746	1248.7093	1257.2642	1280.7266	1320.6493	1462.3241	1502.3209	1731.391	1875.816	3019.8433	3064.7362	3099.3752	3113.6371	3204.7767	3215.3037
O=C1CN=C2C1C1CN21	O=C1C[N][C]2[C@H]1[C@H]1CN21	
InChI=1S/C6H6N2O/c9-4-1-7-6-5(4)3-2-8(3)6/h3,5H,1-2H2	InChI=1S/C6H6N2O/c9-4-1-7-6-5(4)3-2-8(3)6/h3,5H,1-2H2/t3-,5+,8?/m1/s1
