18
gdb 62030	4.39811	0.65961	0.59558	2.6307	70.07	-0.25	-0.0383	0.2117	1779.8349	0.14467	-476.267279	-476.256828	-476.255884	-476.304672	35.812	
N	 0.0064271263	 1.3085202144	-0.2736488178	-0.523488
C	 0.0630034828	 0.0242439549	 0.1826040782	 0.408289
O	 1.0641759208	-0.4440093552	 0.6905234219	-0.361012
C	-1.2391982691	-0.7627482952	 0.0425060969	-0.31124
C	-0.9855215037	-2.2688172647	-0.0205332832	-0.191493
C	-2.2977771265	-3.0676746368	-0.0203185797	 0.035337
O	-3.1233036397	-2.7078593857	-1.0967701766	-0.437526
C	-2.0117593278	-4.5548149415	-0.0545645148	 0.137197
O	-2.4646583486	-5.2694589286	-0.9162682417	-0.261099
H	 0.8323626777	 1.8795447231	-0.2006107527	 0.260985
H	-0.7979641913	 1.675820809	-0.7499087165	 0.259691
H	-1.8587524829	-0.5251350454	 0.9185612817	 0.127966
H	-1.8070914381	-0.4380697827	-0.8345545474	 0.125896
H	-0.4233740903	-2.5106255496	-0.929835653	 0.116076
H	-0.3611245461	-2.5608018057	 0.8298911035	 0.125932
H	-2.8167155072	-2.8754283627	 0.9389115777	 0.090756
H	-3.3036921431	-3.5339602468	-1.5732672025	 0.294638
H	-1.3623879231	-4.9507567809	 0.752323746	 0.103094
28.1822	57.1977	86.5311	104.5841	135.5211	176.0276	244.6402	294.2884	338.9269	419.0361	456.8025	492.2437	526.8256	602.328	670.8974	749.4806	790.6696	837.8345	870.8283	945.1483	980.6165	1068.2297	1086.5864	1101.6781	1158.0032	1197.584	1233.9242	1278.4974	1310.3279	1331.4991	1368.2506	1396.2392	1407.3691	1440.3174	1464.9247	1482.0137	1616.9108	1795.4754	1812.7815	2919.9564	2939.5441	3021.5911	3046.2335	3081.3484	3101.571	3604.3075	3686.8525	3742.1267
NC(=O)CCC(O)C=O	NC(=O)CC[C@@H](O)C=O	
InChI=1S/C5H9NO3/c6-5(9)2-1-4(8)3-7/h3-4,8H,1-2H2,(H2,6,9)	InChI=1S/C5H9NO3/c6-5(9)2-1-4(8)3-7/h3-4,8H,1-2H2,(H2,6,9)/t4-/m1/s1
