18
gdb 54431	2.51457	1.57702	1.18573	6.079	72.71	-0.2446	0.0199	0.2646	1072.4608	0.148939	-439.096372	-439.088257	-439.087313	-439.128832	31.795	
N	 0.0449580353	 0.9194368446	 0.1116020487	-0.59406
H	-0.2720888849	 0.0077627757	-0.2038638974	 0.245746
H	 1.5124688499	 0.5722009872	 1.4563613154	 0.307782
H	 0.0444600106	 1.5458761906	-0.6875235387	 0.246756
C	-0.753322086	 1.4118870392	 1.1921659546	 0.247648
C	-0.2336547276	 2.5608370747	 1.9887698952	-0.345581
C	-0.3916225845	 1.2190206208	 2.6800770327	 0.170508
C	-1.8651611573	 1.0021036074	 3.0309696661	-0.290881
C	-2.2327932971	 1.1400818168	 1.5108516756	-0.281992
C	 0.7633118621	 0.459638931	 3.220454871	 0.33422
O	 0.7924158069	-0.0224016086	 4.322189314	-0.340918
O	 1.8006472504	 0.324989312	 2.359352933	-0.39444
H	 0.7883253941	 2.8521441043	 1.7722256096	 0.131715
H	-0.888013858	 3.3782458872	 2.2808253385	 0.120657
H	-2.062011089	 0.0074775855	 3.4326875776	 0.127491
H	-2.3043583024	 1.7458361492	 3.701230716	 0.108094
H	-2.9438982449	 1.9247077566	 1.2322397883	 0.101478
H	-2.5776304175	 0.1910671657	 1.0908167295	 0.105778
100.5432	165.961	180.1584	247.616	337.7762	357.37	388.5073	420.4305	477.4961	563.7067	643.8507	712.3086	744.0909	770.1287	787.6105	808.1936	830.959	891.3732	926.0374	942.9576	977.6984	1023.994	1079.2629	1090.7817	1133.5363	1153.1338	1195.5439	1220.9224	1237.3647	1256.0914	1303.6508	1359.492	1394.8023	1425.5411	1478.7419	1484.9796	1513.2505	1656.6319	1850.2408	3044.067	3067.7579	3096.0905	3116.6437	3132.4438	3214.372	3490.7086	3510.8522	3570.8945
[NH3+]C12CC1(CC2)C([O-])=O	N[C@]12C[C@]1(CC2)C(=O)O	
InChI=1S/C6H9NO2/c7-6-2-1-5(6,3-6)4(8)9/h1-3,7H2,(H,8,9)	InChI=1S/C6H9NO2/c7-6-2-1-5(6,3-6)4(8)9/h1-3,7H2,(H,8,9)/t5-,6-/m1/s1
