16
gdb 30962	2.34684	1.48865	0.93888	4.4634	70.95	-0.1904	0.0437	0.2341	1214.9638	0.124868	-471.209884	-471.201149	-471.200205	-471.24346	32.016	
C	-0.0899516788	 1.4613244948	-0.1695666477	-0.338202
N	 0.5040777042	 0.1536462245	 0.1203621064	-0.393792
C	 0.7991222071	-0.6702094504	-0.938177218	 0.386874
C	 0.6254175526	-1.9779172013	-1.1535234455	 0.117323
N	 0.0106189802	-2.9549157436	-0.391991897	-0.605273
O	 1.274654505	-2.2889537487	-2.3857890628	-0.248025
C	 1.7612739052	-1.1217052203	-2.8800818912	 0.491795
N	 2.3688799635	-0.9049043466	-3.9603710222	-0.582222
O	 1.4927093257	-0.1123445841	-1.9892306995	-0.223402
H	 0.5606472429	 2.0035549062	-0.8575707959	 0.163246
H	-1.0926093798	 1.3956252233	-0.6168621834	 0.117487
H	-0.1540127743	 2.0280515493	 0.7616632911	 0.131057
H	 0.008758321	-0.3658162736	 0.8337706384	 0.251967
H	-0.750895411	-3.4218856298	-0.8748979195	 0.250234
H	 0.6519502207	-3.6620517894	-0.0445002459	 0.250648
H	 2.4706612556	-1.7700536501	-4.4846611874	 0.230286
84.2397	130.1547	167.2609	184.2995	231.5196	282.2131	325.5327	375.1138	404.8228	575.893	622.6093	650.5139	671.148	711.7961	736.7925	776.8231	780.6573	839.5945	965.822	980.9848	1048.7424	1080.1695	1151.1667	1159.6758	1218.1032	1270.468	1309.7211	1405.5462	1471.5029	1480.6969	1496.5076	1523.3163	1662.7035	1779.5187	1856.6443	2997.3289	3102.6255	3147.0081	3483.5978	3543.3311	3544.425	3580.1599
CNC1=C(N)OC(=N)O1	CNC1=C(N)O[C@H]([NH])O1	
InChI=1S/C4H7N3O2/c1-7-3-2(5)8-4(6)9-3/h6-7H,5H2,1H3	InChI=1S/C4H8N3O2/c1-7-3-2(5)8-4(6)9-3/h4,6-7H,5H2,1H3/t4-/m0/s1
