15
gdb 126124	4.54508	1.03931	0.85471	1.6893	68.76	-0.2778	-0.088	0.1898	1296.3263	0.111767	-453.960794	-453.952474	-453.95153	-453.995058	28.677	
C	-0.0725037629	 1.4658194031	 0.1125721745	-0.386781
C	 0.0409499964	-0.0474309921	-0.0489143713	-0.289673
C	 0.7553107793	-0.4520178156	-1.3220276983	 0.279043
O	 1.1954675366	 0.3256998018	-2.1315646971	-0.271496
C	 0.9101486058	-1.9297199798	-1.5629129269	 0.365951
N	 1.4812214117	-2.5265634436	-2.5682360228	-0.283798
C	 1.3158171082	-3.8449480112	-2.2408289637	 0.041261
N	 0.6878357198	-4.0668667766	-1.114523615	-0.099956
O	 0.4120066455	-2.7839354562	-0.6527543016	-0.191993
H	 0.9153923049	 1.9325818838	 0.1336454028	 0.137541
H	-0.6247476804	 1.9082911535	-0.7202143894	 0.137442
H	-0.5919579403	 1.7104649397	 1.042431282	 0.118918
H	 0.5731304718	-0.506508299	 0.7952113668	 0.1422
H	-0.9454635886	-0.5305282387	-0.0487208965	 0.142208
H	 1.6700844621	-4.6607929092	-2.8537344235	 0.159134
50.1913	62.3929	145.8837	168.5243	210.7627	278.4266	370.5301	474.3654	528.3203	660.4749	716.4419	722.9184	821.3529	927.1496	936.5327	953.1581	978.2642	1008.4899	1056.2949	1090.0866	1116.6766	1195.9592	1242.7785	1274.5611	1300.8058	1374.6968	1415.8076	1443.4518	1474.4382	1491.8411	1497.3877	1599.4866	1810.9705	3027.4465	3053.2501	3055.0899	3129.022	3129.6407	3265.9706
CCC(=O)C1=NC=NO1	CCC(=O)c1ncno1	
InChI=1S/C5H6N2O2/c1-2-4(8)5-6-3-7-9-5/h3H,2H2,1H3	InChI=1S/C5H6N2O2/c1-2-4(8)5-6-3-7-9-5/h3H,2H2,1H3
