21
gdb 102318	2.16064	1.10412	0.80285	3.7881	76.04	-0.2429	-0.0294	0.2135	1476.9969	0.178241	-461.362792	-461.351819	-461.350875	-461.400222	38.455	
C	 0.0266844042	 1.4289077252	-0.1075530109	-0.402728
C	 0.1304841629	-0.0968406684	-0.0631252735	 0.148537
C	 1.0207469213	-0.648663043	-1.1697010662	-0.392588
O	 0.6887800369	-0.5652627419	 1.1691192009	-0.283164
C	-0.1197620357	-0.4488217681	 2.3250241374	-0.005709
C	 0.1780666225	-1.6788462853	 3.1960017034	-0.06921
O	 1.5602508012	-1.7866820317	 3.4630724041	-0.424242
C	 0.2060217268	 0.827382785	 3.1034045489	 0.157858
O	-0.4995602972	 1.267192978	 3.9724619919	-0.251763
H	 1.0166147757	 1.8835898514	-0.0002836416	 0.126357
H	-0.3986171488	 1.7503059162	-1.0635715842	 0.122155
H	-0.620290554	 1.8170188393	 0.6853225601	 0.128348
H	-0.8797109016	-0.5253617968	-0.1662206895	 0.076018
H	 2.033965038	-0.244131821	-1.0805126887	 0.125751
H	 1.0782321441	-1.7384239826	-1.1075213928	 0.122875
H	 0.6258066194	-0.3750882556	-2.152187775	 0.119873
H	-1.1910934936	-0.4368423102	 2.0777795157	 0.095847
H	-0.3361300727	-1.5774158314	 4.1560529301	 0.130106
H	-0.21033271	-2.5715854714	 2.6822758865	 0.093465
H	 1.9989450012	-1.7709083005	 2.6039600059	 0.29336
H	 1.1639436392	 1.308619863	 2.8083193076	 0.088853
29.4189	56.7254	87.1365	112.875	173.1339	221.9993	244.8694	263.6432	277.0583	342.2125	349.4772	426.6983	460.0471	481.4772	588.1583	619.9903	824.1693	864.8147	905.4968	928.212	944.6525	980.335	1011.0653	1080.9535	1092.2801	1128.8135	1152.7242	1168.1192	1197.4327	1231.0387	1272.0098	1319.3659	1368.3406	1378.3085	1390.0744	1401.1904	1409.4911	1419.2914	1425.8646	1481.612	1485.1233	1497.075	1497.7233	1509.5694	1834.0891	2898.6754	2971.1342	2986.9592	3013.4859	3036.2524	3044.5907	3096.9072	3107.6233	3111.9245	3119.0752	3125.523	3792.5075
CC(C)OC(CO)C=O	CC(C)O[C@@H](CO)C=O	
InChI=1S/C6H12O3/c1-5(2)9-6(3-7)4-8/h3,5-6,8H,4H2,1-2H3	InChI=1S/C6H12O3/c1-5(2)9-6(3-7)4-8/h3,5-6,8H,4H2,1-2H3/t6-/m1/s1
