23
gdb 86187	2.18972	1.41857	1.15562	1.1037	80.69	-0.2537	0.0751	0.3288	1206.4466	0.204715	-425.445717	-425.435761	-425.434817	-425.47976	38.936	
C	-0.5413513693	 1.3672272305	 0.0367859465	-0.426819
C	-0.0652374689	-0.0828529973	 0.0160130551	 0.049425
C	 0.7851602402	-0.4787352945	-1.2087293259	-0.266161
C	 1.7011760366	-1.6533962896	-0.7514396449	 0.114161
O	 3.0890443561	-1.3199123416	-0.821870414	-0.432696
C	 1.3479459143	-1.8836568051	 0.7260847587	-0.259052
C	 0.7713054556	-0.5430584579	 1.235980097	 0.367443
C	 1.8836031176	 0.4305719635	 1.639772317	-0.444401
O	-0.1434586489	-0.717232629	 2.3181660321	-0.486829
H	 0.2938354405	 2.0706508841	-0.0485730689	 0.111551
H	-1.2235912841	 1.5658727291	-0.7965295094	 0.107548
H	-1.0762055121	 1.5807711346	 0.9672624635	 0.127384
H	-0.9534327657	-0.7277026011	 0.0410046842	 0.080669
H	 0.1614281798	-0.7444048296	-2.0675937029	 0.095766
H	 1.4222696365	 0.3574293067	-1.5205270841	 0.09388
H	 1.516867183	-2.5593226022	-1.3447566533	 0.06456
H	 3.2920762975	-1.0997086133	-1.7366776799	 0.279481
H	 0.5590749059	-2.6377067911	 0.8110795186	 0.100595
H	 2.2195859077	-2.2354014936	 1.2855628583	 0.097446
H	 2.6024417595	 0.5721011563	 0.8290423985	 0.136273
H	 1.473166686	 1.3987291327	 1.938381826	 0.116492
H	 2.4420842303	 0.0210810052	 2.4910129587	 0.100749
H	 0.3691574017	-0.8646375666	 3.1195070193	 0.272534
71.8203	136.958	214.0063	227.8493	262.3481	281.6932	288.7938	314.6309	319.6904	377.4752	406.7057	439.6747	469.1531	516.79	561.9234	655.4412	731.6061	842.9267	848.2785	907.5303	925.8174	942.1633	977.869	1003.8671	1012.763	1070.2244	1085.5353	1095.7581	1124.6312	1169.8546	1203.4151	1216.8873	1229.9677	1245.4806	1293.0693	1311.8212	1340.4353	1359.4672	1377.4599	1387.8289	1405.5272	1411.8692	1421.7114	1475.3897	1487.6117	1490.6596	1497.2009	1502.8629	1508.8423	2995.9078	3016.655	3026.8824	3030.9459	3035.4403	3053.7725	3083.4562	3092.8425	3098.6573	3103.3048	3108.2842	3134.9342	3813.3979	3813.6123
CC1CC(O)CC1(C)O	C[C@H]1C[C@@H](O)C[C@]1(C)O	
InChI=1S/C7H14O2/c1-5-3-6(8)4-7(5,2)9/h5-6,8-9H,3-4H2,1-2H3	InChI=1S/C7H14O2/c1-5-3-6(8)4-7(5,2)9/h5-6,8-9H,3-4H2,1-2H3/t5-,6+,7-/m0/s1
