17
gdb 45588	2.7408	1.61984	1.28222	2.5998	67.28	-0.2381	-0.0322	0.2059	1000.131	0.137401	-458.960183	-458.952948	-458.952004	-458.992062	28.106	
O	-0.128034775	-0.0658113018	 0.1131387714	-0.289721
C	-0.1025804276	 1.1272448658	 0.0653691971	 0.346164
C	-1.177593201	 2.2362091896	 0.164171449	-0.363544
C	-0.0577827472	 3.1689389314	 0.7116501203	-0.083655
C	 0.0633686327	 3.1375883694	 2.2417108743	-0.100932
O	 1.4275027505	 3.151622741	 2.6466737427	-0.227571
C	 2.0994343994	 2.0233886428	 2.1664435434	 0.001978
O	 2.2357260589	 2.0307457737	 0.7579384633	-0.242895
C	 1.0171159949	 2.2063868809	 0.1032054359	 0.040895
H	-1.5427952777	 2.5386493368	-0.821659571	 0.134871
H	-2.0323842533	 2.0205411657	 0.808803869	 0.133383
H	-0.0333441588	 4.1882672919	 0.3269490993	 0.089077
H	-0.4122758465	 4.0053304975	 2.70413076	 0.121493
H	-0.4229793878	 2.2321146746	 2.6429304063	 0.100054
H	 3.1125026503	 2.0473112976	 2.5699073959	 0.124819
H	 1.5767424264	 1.1042822812	 2.486237422	 0.097581
H	 1.2436961818	 2.4926259719	-0.9306409188	 0.118003
92.445	140.7033	242.373	341.9425	394.7007	408.0273	467.7513	510.0473	593.0327	692.0717	703.5608	729.686	855.5968	880.351	910.819	963.272	976.7612	1015.0462	1037.22	1068.3912	1091.8982	1116.7993	1163.2529	1191.4645	1216.3395	1228.2615	1249.4627	1280.486	1330.9854	1350.849	1370.7902	1408.3417	1445.0853	1449.7853	1494.7276	1512.4494	1894.4169	2948.2874	2965.3462	3046.7698	3066.9604	3097.6903	3115.5296	3125.3923	3127.0107
O=C1CC2COCOC12	O=C1C[C@H]2COCO[C@@H]12	
InChI=1S/C6H8O3/c7-5-1-4-2-8-3-9-6(4)5/h4,6H,1-3H2	InChI=1S/C6H8O3/c7-5-1-4-2-8-3-9-6(4)5/h4,6H,1-3H2/t4-,6+/m0/s1
