16
gdb 54870	3.37071	1.37098	1.214	3.07	69.28	-0.2413	-0.0153	0.226	1032.1488	0.125581	-437.904604	-437.897083	-437.896139	-437.936982	29.126	
N	 0.5815388389	 0.3426384833	-0.8330384308	-0.515875
C	-0.058343072	 0.0603011337	 0.3327947726	 0.37617
O	 0.1690427847	 0.620528214	 1.3863961247	-0.366162
C	-1.1610719177	-1.014513945	 0.2078024184	-0.156239
C	-2.3431605071	-0.5586554513	-0.633726506	-0.08003
C	-2.6464204504	-1.4242641402	-1.6049492744	-0.10169
C	-1.6863759478	-2.5656852538	-1.5925755557	-0.002632
O	-0.3104439516	-2.1635430996	-1.8467434263	-0.259508
C	-0.7455617713	-2.3157885947	-0.4872470649	 0.001315
H	 1.3665933643	 0.9721929476	-0.7949677738	 0.257094
H	 0.4515034114	-0.2579020062	-1.6344984743	 0.274019
H	-1.4675348072	-1.2199639048	 1.2381407496	 0.115446
H	-2.8352187328	 0.3894524742	-0.4506757581	 0.122672
H	-3.4473231003	-1.3223345687	-2.3259932221	 0.111752
H	-1.9373648797	-3.553160462	-1.9651641452	 0.109448
H	-0.2418095815	-3.0988809664	 0.0709671764	 0.114221
54.0433	155.3556	203.274	332.8018	382.6799	418.3499	441.3176	502.8389	602.6531	649.2151	721.3593	740.201	773.1263	816.7761	841.4065	864.083	900.2136	942.5575	963.1735	988.2231	1010.883	1052.455	1115.6058	1130.2186	1134.054	1247.7969	1256.3169	1285.178	1298.5091	1348.1237	1373.9629	1404.0107	1618.8528	1653.333	1805.0465	3068.909	3163.1544	3178.7728	3200.2615	3225.9887	3554.0315	3704.5278
NC(=O)C1C=CC2OC12	NC(=O)[C@H]1C=C[C@H]2O[C@@H]12	
InChI=1S/C6H7NO2/c7-6(8)3-1-2-4-5(3)9-4/h1-5H,(H2,7,8)	InChI=1S/C6H7NO2/c7-6(8)3-1-2-4-5(3)9-4/h1-5H,(H2,7,8)/t3-,4+,5-/m0/s1
