23
gdb 101348	2.49302	1.01532	0.80577	2.3627	82.84	-0.2492	0.0762	0.3254	1513.4253	0.203663	-425.397181	-425.386298	-425.385353	-425.433872	39.063	
C	 0.2662918368	 1.5419689129	 0.0165454602	-0.238567
O	-0.100381618	 0.197384886	-0.1943329331	-0.240334
C	 0.7149252655	-0.5076630376	-1.1236054487	 0.110747
C	 2.0645278939	-0.8910666921	-0.5024030568	-0.398833
C	-0.0244897471	-1.7527404894	-1.5905380143	-0.024165
C	-1.0788037895	-2.4237152943	-0.7455110336	-0.304191
C	-1.4543568891	-1.8036846652	-2.077473263	-0.043831
C	-2.3868452827	-0.6157601235	-2.1481839153	-0.095642
O	-3.7510960493	-1.0248782059	-2.1848273337	-0.421758
H	 1.2411665496	 1.6412517487	 0.5144375959	 0.110536
H	 0.3016802315	 2.1061674159	-0.9281929433	 0.107156
H	-0.4968195254	 1.9841997128	 0.6617868688	 0.12849
H	 0.8999434142	 0.1452215052	-1.9947323152	 0.066402
H	 1.9085503348	-1.5522876128	 0.3552570104	 0.12748
H	 2.6883765681	-1.4127926294	-1.2348478615	 0.115675
H	 2.6182059447	-0.0100782422	-0.1664543074	 0.113448
H	 0.6442339394	-2.423721957	-2.1237973536	 0.083436
H	-1.0665183981	-3.5037324956	-0.6475020318	 0.105653
H	-1.3830993135	-1.8878832317	 0.1472316768	 0.127009
H	-1.6272751267	-2.5095560375	-2.8869413652	 0.086394
H	-2.1925496722	 0.0701460031	-1.3160735042	 0.106309
H	-2.2291688063	-0.06225071	-3.0811626286	 0.100311
H	-3.9041669907	-1.5551093001	-1.3956229327	 0.278274
49.2646	64.796	92.0977	129.2031	192.3042	201.6689	220.801	257.1121	296.926	343.6175	351.3773	401.4242	452.4176	568.1494	608.7726	758.1566	809.9041	863.3896	884.5481	905.0417	962.9096	1009.4717	1028.4956	1053.9525	1068.4934	1091.9638	1118.9075	1126.3109	1142.5941	1167.6353	1178.1755	1181.9382	1223.6787	1236.5991	1255.5396	1346.0806	1350.6935	1382.4251	1396.331	1402.9211	1420.0007	1438.2106	1476.3213	1483.4356	1489.7025	1491.711	1504.0333	1511.0768	1520.3003	2944.2958	2981.4015	3032.1206	3034.4845	3042.7003	3074.6201	3111.3276	3112.8802	3120.2365	3128.2079	3133.0946	3141.2258	3222.1687	3807.9454
COC(C)C1CC1CO	CO[C@@H](C)[C@H]1C[C@H]1CO	
InChI=1S/C7H14O2/c1-5(9-2)7-3-6(7)4-8/h5-8H,3-4H2,1-2H3	InChI=1S/C7H14O2/c1-5(9-2)7-3-6(7)4-8/h5-8H,3-4H2,1-2H3/t5-,6-,7+/m0/s1
