19
gdb 122870	6.94953	0.5033	0.47486	2.0474	69.99	-0.2686	0.0184	0.287	2218.2218	0.155947	-497.312984	-497.301939	-497.300995	-497.351259	36.56	
O	-0.2524673641	 1.4421750207	 0.0127978637	-0.419126
C	-0.0542832167	 0.0380399985	 0.0030423465	-0.073112
C	-1.429652624	-0.6186525839	 0.0128689988	-0.190947
C	-1.338540403	-2.1350916418	 0.0032917177	-0.065381
O	-2.682481593	-2.6507569991	 0.0137636509	-0.250673
C	-2.7924709705	-3.9956805983	 0.0070125796	 0.43363
O	-1.8649203247	-4.7566432318	-0.0063519124	-0.333134
C	-4.2657231755	-4.3726675611	 0.0186459707	-0.190283
O	-4.3749911965	-5.7722614391	 0.014971421	-0.393124
H	 0.6096608258	 1.8679401618	 0.0070911522	 0.287799
H	 0.5063571149	-0.2808000584	-0.8910580679	 0.08985
H	 0.5237452278	-0.290674677	 0.8823667146	 0.08986
H	-1.9772687518	-0.2860012919	 0.9010296808	 0.118302
H	-1.994641045	-0.2758963806	-0.8604456371	 0.118293
H	-0.8206004247	-2.5101027584	-0.8861280497	 0.122137
H	-0.8030070586	-2.520177309	 0.8778599079	 0.122164
H	-4.7194670058	-3.9068581718	 0.907716158	 0.119535
H	-4.7345402382	-3.9011370102	-0.8595562013	 0.11955
H	-5.3102983262	-5.9948466585	 0.019998576	 0.294657
30.8464	63.221	73.1208	85.3379	117.5675	169.478	214.3672	215.8495	269.864	270.6672	322.1978	459.2	512.1283	591.3955	693.8265	774.2556	882.0703	917.0277	1000.2942	1034.8852	1039.2868	1076.1157	1099.5359	1135.6728	1174.3845	1201.9647	1231.9953	1245.1256	1245.4436	1262.5599	1299.3015	1309.0557	1320.6664	1418.5638	1459.0383	1468.5962	1496.7931	1499.1648	1517.6718	1532.7613	1849.4011	2960.3086	2978.0845	2985.3659	3004.0524	3040.7972	3052.4323	3076.1519	3103.64	3831.6632	3839.6083
OCCCOC(=O)CO	OCCCOC(=O)CO	
InChI=1S/C5H10O4/c6-2-1-3-9-5(8)4-7/h6-7H,1-4H2	InChI=1S/C5H10O4/c6-2-1-3-9-5(8)4-7/h6-7H,1-4H2
