22
gdb 8155	3.70421	1.56537	1.32074	0.2647	81.51	-0.2495	0.082	0.3315	1049.5544	0.201234	-313.082578	-313.074355	-313.073411	-313.114711	32.571	
C	 0.014687241	 1.5624072688	-0.0206727391	-0.406192
C	 0.0701258143	 0.0361689657	-0.0275087621	 0.072149
C	 0.8858518992	-0.5774121832	-1.1943047339	-0.241166
C	 1.3325514454	-1.9489802198	-0.6905229378	-0.071893
C	 2.5597195037	-1.9995075405	 0.189285058	-0.324721
C	 1.190011797	-1.9804778295	 0.8229073879	 0.37913
C	 0.690997323	-3.196513044	 1.5677172732	-0.484131
C	 0.6777753544	-0.5966057853	 1.2494316841	-0.30181
H	 1.0205229416	 1.9897341598	 0.0699729977	 0.109958
H	-0.4290095535	 1.9507200363	-0.9439701978	 0.110305
H	-0.5825702566	 1.9383465182	 0.8171676877	 0.11021
H	-0.9551007291	-0.3482787092	-0.1178592434	 0.068912
H	 0.2862766126	-0.6516033213	-2.1068147218	 0.094072
H	 1.7482693199	 0.0580304832	-1.4366613529	 0.091578
H	 1.096774476	-2.8274970312	-1.2824694486	 0.075878
H	 3.1167771085	-2.9311768879	 0.2235281641	 0.100289
H	 3.1805783423	-1.1097241646	 0.257040869	 0.09862
H	 1.043592397	-4.1212265	 1.0989430659	 0.110645
H	 1.0393848755	-3.2013549853	 2.6077900995	 0.114038
H	-0.4051067517	-3.2301751301	 1.5872065814	 0.110964
H	 1.4933027821	 0.0275897136	 1.6378349955	 0.090828
H	-0.0654759625	-0.6739131335	 2.0497542136	 0.092335
82.3881	198.7406	221.5266	238.8491	262.6053	352.3577	373.7539	406.7838	427.4985	529.8346	594.6643	741.8419	808.5916	838.7947	857.5116	873.0654	924.9135	935.4965	951.7338	959.642	998.8278	1052.5245	1056.5613	1070.0078	1097.2418	1103.8153	1137.9726	1165.3636	1188.2302	1255.2934	1273.3088	1288.0685	1305.6502	1314.8692	1352.2291	1374.4299	1400.5088	1408.918	1418.5511	1482.875	1487.8885	1492.5218	1496.3835	1497.158	1500.0573	1508.3273	3001.8641	3014.419	3015.8057	3019.3362	3024.8564	3070.6983	3072.7159	3075.7105	3089.3571	3091.6585	3092.6118	3106.5025	3155.6608	3192.193
CC1CC2CC2(C)C1	C[C@H]1C[C@H]2C[C@@]2(C)C1	
InChI=1S/C8H14/c1-6-3-7-5-8(7,2)4-6/h6-7H,3-5H2,1-2H3	InChI=1S/C8H14/c1-6-3-7-5-8(7,2)4-6/h6-7H,3-5H2,1-2H3/t6-,7-,8+/m0/s1
