17
gdb 23015	2.36809	1.31972	0.9118	4.4735	76.54	-0.2515	-0.0011	0.2504	1260.343	0.134066	-417.969081	-417.959532	-417.958587	-418.005067	33.677	
C	 0.6279438602	 1.3657063158	 0.0341919472	-0.476409
C	 0.0063736737	-0.0037789354	 0.1238949773	 0.332488
N	-0.4241322084	-0.5283407047	 1.2054429825	-0.141792
O	-0.2214758073	 0.307296138	 2.3053290884	-0.396345
C	-0.1317962704	-0.7972892489	-1.1287495082	-0.09192
C	 1.0233936838	-1.6030438647	-1.6689581793	-0.28219
C	-0.2319901898	-2.3105723676	-1.1815397265	-0.175765
C	-0.1664327309	-3.166623501	-0.0273646093	 0.311369
N	-0.1092587785	-3.9297603394	 0.8397069261	-0.35106
H	 0.8045006681	 1.654995903	-1.0036052345	 0.121206
H	-0.0155042901	 2.1077910738	 0.5154526462	 0.153771
H	 1.5831776643	 1.3857841238	 0.5700375848	 0.152643
H	-0.5769546811	-0.2212273205	 3.0284396458	 0.3143
H	-0.7301552297	-0.2989533857	-1.8890046914	 0.114996
H	 1.2193670912	-1.6005077743	-2.7348274675	 0.130572
H	 1.8998114978	-1.698204056	-1.0385551398	 0.147162
H	-0.8927536228	-2.6985992061	-1.9502379617	 0.136974
26.1059	48.1703	106.9345	167.603	214.532	234.1415	295.2772	373.8385	402.0814	448.6004	535.2168	556.0697	585.5395	691.652	762.5942	771.9799	856.77	923.618	978.7512	991.242	1024.0311	1048.9763	1068.1347	1091.7481	1127.2734	1156.8389	1197.8144	1252.1612	1376.7683	1393.3214	1400.6353	1430.4583	1474.0329	1483.402	1490.5295	1731.9329	2358.3329	3043.8564	3104.0499	3126.1127	3135.9893	3144.8031	3163.0334	3238.8644	3814.4622
CC(=NO)C1CC1C#N	CC(=NO)[C@H]1C[C@H]1C#N	
InChI=1S/C6H8N2O/c1-4(8-9)6-2-5(6)3-7/h5-6,9H,2H2,1H3	InChI=1S/C6H8N2O/c1-4(8-9)6-2-5(6)3-7/h5-6,9H,2H2,1H3/t5-,6+/m0/s1
