15
gdb 24174	3.9946	1.74661	1.21525	2.899	84.49	-0.1964	-0.0395	0.1569	951.5405	0.117104	-379.744655	-379.738642	-379.737698	-379.774792	24.966	
C	-0.0217888254	 1.3893734165	 0.0100476954	-0.13766
C	 1.2818934886	 1.8537149209	 0.0000277237	-0.124918
N	 2.1116193949	 0.7657405469	-0.0136641888	-0.058725
C	 3.4723372162	 0.6681403198	-0.0272012944	 0.020216
C	 4.043771085	-0.5672668046	-0.0391786872	-0.171584
C	 3.1961707859	-1.7124362572	-0.0370998856	-0.03187
N	 1.8869665	-1.6428441079	-0.0242087854	-0.31789
C	 1.3180379543	-0.4231827753	-0.012334499	 0.412696
C	-0.0089610597	-0.0200926428	 0.0024481443	-0.282859
H	-0.8984850213	 2.0197250597	 0.0217629307	 0.107648
H	 1.6820336153	 2.8549680991	 0.0014897383	 0.123171
H	 4.0255116573	 1.5999442686	-0.0275805092	 0.133009
H	 5.1206642593	-0.6707919218	-0.0500279434	 0.110154
H	 3.6360918369	-2.7068098085	-0.0465554022	 0.108626
H	-0.8544239874	-0.6883625235	 0.0069830431	 0.109987
209.266	231.8894	429.8987	434.0999	578.6226	582.9657	616.639	627.2784	679.3156	743.3042	759.1986	788.7441	800.9338	867.7167	874.3509	914.4286	935.5029	947.4081	1036.5988	1055.9496	1099.1105	1150.7827	1215.9445	1255.6365	1272.718	1341.3542	1404.3616	1432.0951	1472.7724	1501.3114	1534.7927	1584.1086	1661.612	3155.4042	3201.8969	3226.2494	3242.4363	3263.4068	3272.7169
C1=CN2C=CC=NC2=C1	c1cn2cccnc2c1	
InChI=1S/C7H6N2/c1-3-7-8-4-2-6-9(7)5-1/h1-6H	InChI=1S/C7H6N2/c1-3-7-8-4-2-6-9(7)5-1/h1-6H
