19
gdb 41845	2.88033	2.01386	1.75453	2.8439	72.44	-0.2492	0.0813	0.3305	867.8848	0.164392	-423.056108	-423.050013	-423.049068	-423.086384	26.184	
C	 0.0107475651	 1.5773816169	 0.0206995991	-0.087532
O	 1.3772684248	 1.9769775818	-0.1419057983	-0.261856
C	 2.1730776615	 0.8377481503	-0.3377693943	 0.237997
O	 2.6830119109	 0.3045785995	 0.8930068136	-0.288294
C	 1.9489922848	-0.9050187591	 1.1455201427	 0.098329
C	 0.4782365698	-0.543009296	 1.4206854313	-0.234162
C	 0.0274994882	 0.0475986116	 0.0434961071	-0.045867
C	 1.253142689	-0.2858468624	-0.8629944845	-0.102184
C	 1.8738425414	-1.5438915212	-0.2487477117	-0.236416
H	-0.3888757745	 2.0136254168	 0.9429883295	 0.105466
H	-0.5757746062	 1.9647527305	-0.8235244739	 0.095359
H	 3.0220471333	 1.1390507127	-0.9556232564	 0.085264
H	 2.4599710048	-1.4550125673	 1.9354677943	 0.075664
H	-0.0987919714	-1.4343439698	 1.6867120886	 0.096535
H	 0.386413596	 0.1784867781	 2.2364054131	 0.109861
H	-0.9132875189	-0.378849108	-0.3083972164	 0.073289
H	 1.0710467127	-0.2602486792	-1.9368667545	 0.073149
H	 2.8589337894	-1.7894640204	-0.6530853852	 0.10659
H	 1.2251432991	-2.4228992347	-0.298117324	 0.098809
135.712	333.274	385.3201	436.5823	501.7488	571.3388	585.1164	740.4613	790.7715	803.5941	846.3041	870.9893	877.3083	920.6057	930.0109	952.0592	973.5086	977.8267	981.0426	995.6009	1031.1953	1046.5041	1093.1331	1111.9954	1133.2497	1178.3385	1197.3508	1219.1722	1235.1306	1274.2087	1279.5686	1287.89	1318.4915	1331.1675	1342.7351	1346.9766	1377.9735	1400.9151	1479.1883	1497.9252	1525.6403	3009.3857	3051.6753	3059.2069	3062.7633	3089.2322	3094.3338	3107.892	3117.1829	3122.3854	3127.6995
C1OC2OC3CC1C2C3	C1O[C@H]2O[C@H]3C[C@@H]1[C@@H]2C3	
InChI=1S/C7H10O2/c1-4-3-8-7-6(4)2-5(1)9-7/h4-7H,1-3H2	InChI=1S/C7H10O2/c1-4-3-8-7-6(4)2-5(1)9-7/h4-7H,1-3H2/t4-,5-,6-,7-/m0/s1
