18
gdb 82390	2.75559	1.84247	1.42073	1.2251	69.7	-0.2262	0.059	0.2853	941.443	0.149786	-439.030434	-439.023415	-439.022471	-439.06152	28.971	
O	 0.0559766444	 1.4585670978	 0.0078259403	-0.436699
C	-0.0135234835	 0.047296094	 0.0039182371	 0.063448
C	 0.6606032717	-0.5271000894	 1.2668285202	 0.00781
O	 1.0332574353	 0.4520268072	 2.2419354225	-0.262643
C	-0.1087217513	-0.3949005323	 2.5097327547	 0.053831
C	-1.4922662966	 0.2268104895	 2.379213402	-0.202192
N	-2.2196425074	-0.3890826585	 1.2502924889	-0.105146
C	-2.6028296284	 0.4727693853	 0.1286708667	-0.244766
C	-1.4591721482	-0.4615957434	-0.0072836797	-0.022318
H	 0.5429934454	 1.7009120465	 0.8098920197	 0.296535
H	 0.4982778743	-0.3359520538	-0.8882299988	 0.077057
H	 1.3711812922	-1.3396501375	 1.1367050783	 0.104919
H	 0.0624381252	-1.0934315908	 3.3249392444	 0.10864
H	-2.0753606845	 0.0481590413	 3.28723042	 0.112757
H	-1.3774288199	 1.3119726003	 2.2651737609	 0.114976
H	-3.5602086082	 0.2416184216	-0.3309539099	 0.111872
H	-2.3536273803	 1.5286040406	 0.1883630793	 0.132648
H	-1.59217355	-1.3983981182	-0.5463028166	 0.089271
133.459	237.4387	296.2764	363.1367	392.634	459.6285	473.6162	505.2605	571.3797	608.9171	734.0471	779.6714	796.3532	839.6385	873.8211	912.3112	929.4307	973.9961	1005.0337	1028.499	1059.885	1088.6436	1111.4119	1123.7738	1129.6032	1167.9554	1171.6083	1240.2249	1268.7044	1283.2446	1308.2937	1336.4561	1361.369	1375.3354	1401.273	1423.2636	1454.5393	1488.3395	1508.2626	3016.0682	3024.4508	3078.5399	3106.8283	3114.9773	3138.5725	3150.4629	3198.7268	3702.9329
OC1C2OC2CN2CC12	O[C@H]1[C@H]2O[C@H]2CN2C[C@@H]12	
InChI=1S/C6H9NO2/c8-5-3-1-7(3)2-4-6(5)9-4/h3-6,8H,1-2H2	InChI=1S/C6H9NO2/c8-5-3-1-7(3)2-4-6(5)9-4/h3-6,8H,1-2H2/t3-,4-,5+,6-,7?/m0/s1
