18
gdb 64817	2.65656	1.3933	1.13074	3.1886	71.36	-0.2546	0.004	0.2586	1123.5219	0.147266	-439.091364	-439.082942	-439.081998	-439.124622	31.749	
C	-0.3003787719	 1.6190417184	-0.019828254	-0.439318
C	-0.0267403808	 0.1267899308	-0.0927996585	 0.363683
C	 1.031616181	-0.3268505819	-1.127794186	-0.463601
C	 1.855938182	-0.6880390644	 0.1036524341	 0.446563
O	 2.9224645253	-1.1469822249	 0.3526159272	-0.312223
O	 0.8953585214	-0.2759054376	 0.9977334688	-0.280977
C	-1.2933695882	-0.6970916232	-0.0365804544	-0.020901
C	-1.3035779809	-2.0888970087	 0.4713511807	-0.257465
N	-1.916799243	-0.9996065936	 1.2584120772	-0.326708
H	 0.6337382682	 2.1872650464	-0.0222089877	 0.129351
H	-0.9017634702	 1.9337335124	-0.8786340131	 0.130703
H	-0.8546980978	 1.8636226921	 0.890659321	 0.143473
H	 0.7584879359	-1.1801281297	-1.7504025596	 0.146845
H	 1.4715635589	 0.4585535846	-1.745044152	 0.142536
H	-2.0073130965	-0.425108926	-0.8129211537	 0.097699
H	-2.0058169509	-2.805724851	 0.0561960826	 0.122692
H	-0.3715588299	-2.5132361782	 0.8312744637	 0.131747
H	-1.2669524727	-0.7419862154	 2.0001063136	 0.245903
78.4878	94.9883	199.1336	235.3343	242.0708	314.8447	363.3978	431.4811	508.6224	530.2037	559.1589	621.7857	791.9027	839.0022	859.9108	869.6651	912.5699	954.4418	971.5431	976.7656	1006.1983	1055.7834	1090.0307	1117.0473	1149.0591	1175.9745	1197.6775	1223.7127	1245.7542	1271.7435	1282.441	1308.5433	1414.0699	1423.5081	1451.7175	1486.8492	1492.487	1506.1739	1941.2934	3043.1024	3087.8247	3113.7123	3118.4965	3121.7253	3124.5546	3146.4819	3208.6282	3482.2942
CC1(CC(=O)O1)C1CN1	C[C@]1(CC(=O)O1)[C@H]1CN1	
InChI=1S/C6H9NO2/c1-6(4-3-7-4)2-5(8)9-6/h4,7H,2-3H2,1H3	InChI=1S/C6H9NO2/c1-6(4-3-7-4)2-5(8)9-6/h4,7H,2-3H2,1H3/t4-,6+/m1/s1
