19
gdb 116424	2.90272	1.26353	0.93559	2.8691	71.63	-0.2413	-0.0364	0.2049	1238.0887	0.160026	-460.180656	-460.172181	-460.171236	-460.214032	31.969	
O	 0.1494370805	 1.3824977336	-0.0328728351	-0.427508
C	 0.0776894917	-0.0244173695	-0.0157832346	-0.074011
C	-1.3645622055	-0.5495997941	 0.0575743793	-0.124127
C	-1.4641873068	-2.0759947172	-0.1351719014	-0.226414
C	-2.8778433025	-2.5777249607	 0.1492002562	-0.084173
O	-3.2730831411	-2.250039132	 1.4719548421	-0.238532
C	-3.3524732	-0.8565072771	 1.6880114393	-0.172254
C	-2.0605885224	-0.11655147	 1.3436124618	 0.384301
O	-1.6569344249	 0.790850548	 2.0417383655	-0.324534
H	-0.2438228072	 1.6682152286	 0.8027467052	 0.294038
H	 0.5398641143	-0.3793950375	-0.9438773501	 0.104493
H	 0.6546029588	-0.4539018097	 0.8199879033	 0.091708
H	-1.9378018259	-0.0627082778	-0.7482535709	 0.113289
H	-1.1645423652	-2.3427465945	-1.1551338588	 0.108692
H	-0.7711353687	-2.580318102	 0.5493804878	 0.11775
H	-3.591553079	-2.153835992	-0.5783161314	 0.090691
H	-2.9319701387	-3.6673758841	 0.0792988657	 0.117609
H	-4.1618804624	-0.4073183848	 1.0811122847	 0.11032
H	-3.5860033847	-0.6930345874	 2.7419187515	 0.138661
71.1643	120.7168	170.7874	219.4053	286.4089	332.402	348.9383	446.4192	459.7262	510.3869	569.411	582.6572	657.4301	729.8614	870.6513	916.9457	936.1908	959.8017	1000.7394	1043.2985	1086.698	1096.6007	1133.6239	1157.2355	1176.8815	1204.6734	1223.9175	1263.4502	1273.2238	1317.1476	1353.7621	1362.5545	1378.4733	1393.5771	1408.783	1450.3416	1465.7131	1482.3273	1499.4506	1503.5515	1793.1959	2931.2159	2960.7653	2968.3664	2989.5501	3031.5086	3061.4114	3076.7948	3094.0598	3117.4136	3753.8711
OCC1CCOCC1=O	OC[C@H]1CCOCC1=O	
InChI=1S/C6H10O3/c7-3-5-1-2-9-4-6(5)8/h5,7H,1-4H2	InChI=1S/C6H10O3/c7-3-5-1-2-9-4-6(5)8/h5,7H,1-4H2/t5-/m1/s1
