17
gdb 76106	2.31919	1.43787	1.10435	5.4055	74.29	-0.2515	0.0316	0.2831	1137.7174	0.135521	-417.96379	-417.955244	-417.954299	-417.997574	31.491	
O	 0.4141779448	 1.4742047009	 0.3100948822	-0.411009
C	 0.2783101986	 0.1162070951	 0.1320717592	 0.11674
C	-0.5051385142	-0.7325798843	 1.151827106	-0.280261
C	-1.0915637597	-0.106351298	 2.297664587	 0.309131
N	-1.5620542193	 0.3897697962	 3.2311739041	-0.343852
C	-1.0627459596	-0.4371973748	-0.2486489251	-0.037318
N	-2.090556194	 0.5555228798	-0.3314205452	-0.0846
C	-2.8479406616	 0.6385236845	-1.5799753599	-0.228599
C	-3.4823756605	 0.1081759582	-0.3422216545	-0.213407
H	-0.483601949	 1.8423945562	 0.2803220714	 0.30077
H	 1.1774778298	-0.3395937824	-0.2687091851	 0.122513
H	-0.1516890588	-1.7443537873	 1.3210040591	 0.13401
H	-1.1234686115	-1.2917482689	-0.92506959	 0.095048
H	-3.0695416744	 1.6428828343	-1.9267997285	 0.132711
H	-2.6033848016	-0.0732325976	-2.3655934509	 0.122819
H	-3.666248452	-0.9623092336	-0.2917478322	 0.124444
H	-4.1700456771	 0.7197982119	 0.2324232024	 0.140859
59.0501	107.4452	128.0225	174.2547	259.0187	323.7154	381.6044	410.4066	490.5659	599.5955	646.5584	674.5973	740.0182	769.4963	790.8283	852.5897	902.7624	952.3461	1001.4075	1022.9262	1056.9604	1072.0552	1112.0538	1121.9348	1128.0287	1131.7828	1176.1821	1201.693	1227.4099	1312.246	1349.813	1355.9336	1384.5582	1465.4954	1491.6153	1519.3471	2352.8063	3078.8975	3107.5667	3116.0302	3165.5023	3174.5249	3195.1769	3211.429	3690.4431
OC1C(C#N)C1N1CC1	O[C@H]1[C@@H](C#N)[C@H]1N1CC1	
InChI=1S/C6H8N2O/c7-3-4-5(6(4)9)8-1-2-8/h4-6,9H,1-2H2	InChI=1S/C6H8N2O/c7-3-4-5(6(4)9)8-1-2-8/h4-6,9H,1-2H2/t4-,5+,6-/m0/s1
