19
gdb 91647	2.48865	1.68551	1.36296	2.9583	70.33	-0.2437	0.0637	0.3074	1011.4868	0.158304	-460.127951	-460.119435	-460.11849	-460.16029	33.726	
C	-0.2417135595	 1.6139867996	-0.1266314348	-0.489868
C	-0.0129316003	 0.1147195091	-0.0206737529	 0.443851
O	-1.231096968	-0.579938788	-0.2096506844	-0.473677
C	 1.1841458711	-0.5940252274	-0.7358465735	 0.016668
C	 2.4408533671	 0.1524539489	-0.2552376477	-0.281552
C	 2.0920033575	 0.1461326855	 1.2786746818	 0.113796
O	 1.9851778266	 1.4119978764	 1.903691803	-0.434142
C	 0.7265347217	-0.5621535162	 1.16682409	 0.014592
O	 1.0896824052	-1.653691634	 0.2695965056	-0.299731
H	 0.6363903358	 2.2013001972	 0.1347754312	 0.14092
H	-0.5472921645	 1.8704155267	-1.1498565545	 0.099046
H	-1.05467445	 1.9023284143	 0.5462504252	 0.130537
H	-1.6189907543	-0.2704784131	-1.0348867133	 0.275807
H	 1.1226165474	-0.9454802526	-1.7670277011	 0.073959
H	 3.346740441	-0.41241597	-0.4853601014	 0.107662
H	 2.5437740785	 1.1669496737	-0.6493778972	 0.10097
H	 2.7780502781	-0.5024269214	 1.8357464931	 0.085889
H	 2.8730446028	 1.7512868003	 2.0493798474	 0.288905
H	 0.2102754438	-0.8669867888	 2.0763214737	 0.086368
164.9367	194.1694	218.9915	237.7325	244.9059	270.4597	368.0833	400.7951	410.2437	454.5221	525.9937	589.9197	642.8109	700.5079	828.4794	859.1414	870.2834	920.691	941.7232	963.0526	974.803	1000.9181	1052.2316	1066.5232	1116.6089	1135.4761	1161.5649	1191.0099	1208.4863	1219.8814	1244.3828	1261.1317	1293.1201	1319.5763	1330.8373	1396.4267	1413.947	1425.569	1482.4314	1487.4194	1506.5476	3022.7173	3032.8575	3066.7025	3097.7724	3109.9199	3118.4432	3136.5792	3168.248	3808.2382	3829.7001
CC1(O)C2CC(O)C1O2	C[C@@]1(O)[C@H]2C[C@@H](O)[C@@H]1O2	
InChI=1S/C6H10O3/c1-6(8)4-2-3(7)5(6)9-4/h3-5,7-8H,2H2,1H3	InChI=1S/C6H10O3/c1-6(8)4-2-3(7)5(6)9-4/h3-5,7-8H,2H2,1H3/t3-,4-,5+,6-/m1/s1
