20
gdb 99125	3.82988	0.79492	0.71385	4.103	76.82	-0.2429	-0.0229	0.22	1612.6008	0.168235	-440.264984	-440.255005	-440.254061	-440.301038	35.749	
C	 0.1753069215	 1.1838215112	-0.6103801717	-0.415137
C	-0.282029581	 0.1764001315	 0.4214538391	 0.033546
C	 0.4470897898	-1.1059843338	 0.635522725	-0.25809
N	 0.4441007297	-0.0719400872	 1.6702433133	-0.091108
C	 1.6851298431	 0.6327714525	 1.9392951922	-0.255422
C	 2.3692484267	 0.1182677777	 3.1994576278	 0.348387
O	 3.5458389824	 0.3289079216	 3.4069417018	-0.32321
C	 1.5482934925	-0.6339325164	 4.2325117522	-0.123242
O	 2.3209345904	-0.9487322753	 5.3532507453	-0.426969
H	 1.2489865722	 1.1268025995	-0.8052360001	 0.124241
H	-0.343035005	 1.0027169871	-1.557541292	 0.129411
H	-0.0612302092	 2.2065710974	-0.2967226478	 0.127425
H	-1.3611576681	 0.1634068149	 0.5694325674	 0.097674
H	-0.084185911	-2.0233316408	 0.8743854416	 0.121357
H	 1.3670043449	-1.2490332584	 0.0689628635	 0.113876
H	 2.4300119436	 0.6094035226	 1.1300332832	 0.119926
H	 1.45644575	 1.691239545	 2.1286604795	 0.139748
H	 0.674029876	-0.0181615307	 4.4966604044	 0.122614
H	 1.1368586741	-1.5355466985	 3.7523930782	 0.123643
H	 3.2077387772	-0.6092985398	 5.1514296572	 0.291328
38.9273	59.3012	115.6945	133.58	182.8136	214.4963	306.8236	333.6645	395.2438	420.8062	449.4775	483.4655	494.8793	656.4889	755.1484	802.7665	838.2424	853.5381	907.1275	953.8565	1031.2004	1047.568	1084.2806	1115.822	1121.1304	1149.7184	1164.6781	1187.1329	1195.4789	1230.0444	1269.1294	1312.5143	1337.0891	1352.7848	1405.1736	1423.6575	1450.249	1455.969	1473.8524	1491.0642	1500.2112	1513.2444	1794.4154	2990.5547	2991.8712	3005.8035	3037.511	3038.9727	3088.8241	3097.3811	3105.6062	3127.407	3178.3591	3681.8073
CC1CN1CC(=O)CO	C[C@H]1CN1CC(=O)CO	
InChI=1S/C6H11NO2/c1-5-2-7(5)3-6(9)4-8/h5,8H,2-4H2,1H3	InChI=1S/C6H11NO2/c1-5-2-7(5)3-6(9)4-8/h5,8H,2-4H2,1H3/t5-,7?/m0/s1
