13
gdb 123398	7.8242	0.7902	0.72093	3.1454	66.85	-0.2751	-0.0432	0.2319	1439.5755	0.087677	-452.650817	-452.642981	-452.642037	-452.684214	27.735	
C	 0.0085176684	-1.1723819599	-0.0051423312	-0.3927
C	 0.0248725751	 0.0276063894	 0.0022460606	 0.2957
C	 0.00259691	 1.4781334349	 0.0116582787	-0.256294
O	 1.3634854737	 1.9640727324	-0.000803083	-0.258837
C	 1.4857164726	 3.2886637933	 0.0061297384	 0.424101
N	 0.4968887135	 4.1434939284	 0.0228015397	-0.166616
O	 1.1016061102	 5.3817830469	 0.0236791114	-0.174901
N	 2.4616193108	 5.2733894571	 0.0074596558	-0.047836
C	 2.7229469084	 3.9993547643	-0.0035368304	-0.116288
H	-0.0037310192	-2.2346549981	-0.011707981	 0.211166
H	-0.5260352979	 1.8755284505	-0.8630552258	 0.161517
H	-0.5058801736	 1.8643759749	 0.9031550455	 0.161516
H	 3.7318655679	 3.620044036	-0.0174492988	 0.159473
47.3646	112.3065	118.3509	226.5207	325.0756	360.1293	414.9354	511.8255	621.6737	624.7254	697.5227	724.6106	781.9774	881.2319	907.7727	919.5965	975.103	1016.5514	1017.0279	1031.5181	1085.6567	1218.2555	1252.0377	1385.0633	1453.9223	1486.6549	1517.8849	1631.098	2254.121	3032.6453	3068.17	3280.4937	3503.8713
C#CCOC1=NON=C1	C#CCOc1nonc1	
InChI=1S/C5H4N2O2/c1-2-3-8-5-4-6-9-7-5/h1,4H,3H2	InChI=1S/C5H4N2O2/c1-2-3-8-5-4-6-9-7-5/h1,4H,3H2
