20
gdb 18080	4.79229	1.09882	1.05841	1.5794	74.94	-0.2319	0.0783	0.3102	1218.3419	0.176997	-348.961888	-348.953638	-348.952694	-348.995284	30.55	
C	-0.0000474729	 1.5274796835	-0.0714854232	-0.381494
C	-0.0922818342	 0.001691053	-0.1504217092	-0.156644
C	-1.4749579584	-0.5366278491	 0.2434759406	-0.205203
C	-1.5531038611	-2.0460651941	 0.1599100988	-0.026843
C	-2.8323971569	-2.8689998288	 0.1510088686	-0.168901
C	-3.8808200578	-2.2055907627	-0.7353305693	-0.09119
O	-2.93492311	-2.0743899217	-1.831000872	-0.284088
C	-1.950084952	-2.7924789095	-1.0782571174	 0.087842
H	 0.9951067827	 1.8833498244	-0.3562065766	 0.10993
H	-0.7270672888	 2.0019923121	-0.7398819144	 0.11633
H	-0.203523363	 1.8855076528	 0.9441217076	 0.111502
H	 0.1418305254	-0.3306298372	-1.1694691058	 0.103521
H	 0.6714141042	-0.446420185	 0.499488277	 0.089573
H	-1.7185701307	-0.2100738773	 1.2635643109	 0.090387
H	-2.228815081	-0.0970194126	-0.4180585804	 0.112201
H	-0.7675061632	-2.5672299427	 0.7072341852	 0.084997
H	-3.0152682766	-3.6838813265	 0.8385797907	 0.095185
H	-4.6960924936	-2.8810258658	-1.0181622597	 0.108756
H	-4.2947370389	-1.2407532789	-0.4195003418	 0.104886
H	-1.3531375633	-3.5267682238	-1.6078383996	 0.099251
53.7908	86.6302	138.8165	232.4367	245.3206	288.6678	368.9363	458.8832	599.5822	738.3479	753.2443	786.183	805.2362	867.505	904.6743	926.6511	963.174	974.8528	1007.8752	1024.0913	1048.5362	1059.6594	1079.0355	1089.2947	1119.9608	1146.7049	1165.1806	1202.7933	1260.1876	1270.3969	1300.9143	1319.9144	1333.7881	1358.4949	1391.7981	1412.6685	1448.457	1476.7842	1491.6549	1499.2118	1508.9979	1517.2439	3013.1908	3017.9311	3024.049	3028.7873	3048.6791	3070.2505	3078.3139	3096.0562	3100.7256	3115.4736	3172.0975	3200.6114
CCCC1C2COC12	CCC[C@H]1[C@H]2CO[C@@H]12	
InChI=1S/C7H12O/c1-2-3-5-6-4-8-7(5)6/h5-7H,2-4H2,1H3	InChI=1S/C7H12O/c1-2-3-5-6-4-8-7(5)6/h5-7H,2-4H2,1H3/t5-,6+,7-/m0/s1
