17
gdb 46613	3.11352	1.52654	1.04943	5.1795	76.65	-0.2029	-0.0012	0.2018	1099.496	0.139648	-418.05761	-418.050102	-418.049158	-418.089563	28.844	
O	-0.102826577	-0.0764306542	-0.0793642939	-0.389345
C	 0.0032424811	 1.1325580277	-0.0839945456	 0.31428
N	-1.0807643799	 2.0287650943	-0.1682456705	-0.351441
C	-0.6914089846	 3.415866476	 0.0552528099	-0.286654
C	 0.8017401679	 3.2795043984	 0.0647368469	 0.314633
C	 1.1859282185	 1.9972162658	-0.0261627458	 0.113727
C	 2.6845606698	 1.9077419228	 0.0652012601	-0.358725
C	 3.0790432364	 3.415472506	-0.0902079714	-0.169044
N	 1.8360289869	 4.1757717124	 0.2306952639	-0.394373
H	-1.9963911479	 1.6949731337	 0.0858075045	 0.245034
H	-1.0542378272	 4.0809867721	-0.7411827585	 0.120563
H	-1.0629430915	 3.8143101267	 1.0103409266	 0.13017
H	 3.0091085042	 1.5130962905	 1.0361238026	 0.12162
H	 3.1511610056	 1.2865566524	-0.7040475503	 0.123244
H	 3.8905224391	 3.7140804702	 0.5775515858	 0.117093
H	 3.3916557762	 3.6218521718	-1.1223161892	 0.109909
H	 1.7502630824	 5.0892220233	-0.193695505	 0.239309
129.311	164.0312	206.5842	233.8885	285.8979	396.93	519.973	539.36	568.3492	617.7015	637.322	754.7826	769.8181	783.1308	864.2468	926.3215	1000.0993	1008.724	1056.956	1059.8334	1073.7379	1111.5777	1180.4145	1188.8188	1231.9007	1262.3808	1283.215	1326.3395	1338.5418	1376.6993	1415.5489	1485.5899	1498.0296	1498.4888	1522.9041	1694.8626	1813.0031	2999.4199	3014.3643	3023.2659	3026.8465	3082.5688	3097.3994	3579.6428	3649.4606
O=C1NCC2=C1CCN2	O=C1NCC2=C1CCN2	
InChI=1S/C6H8N2O/c9-6-4-1-2-7-5(4)3-8-6/h7H,1-3H2,(H,8,9)	InChI=1S/C6H8N2O/c9-6-4-1-2-7-5(4)3-8-6/h7H,1-3H2,(H,8,9)
