21
gdb 63803	2.91725	1.61483	1.45515	1.1155	80.4	-0.2507	0.0737	0.3244	1010.5068	0.18369	-387.075158	-387.067319	-387.066374	-387.106715	32.785	
C	-0.1479432879	 1.573554877	-0.0041670783	-0.452369
C	 0.030479459	 0.0558182659	-0.0134714671	 0.409556
O	-1.2506978199	-0.5834569434	 0.0119827717	-0.480447
C	 0.8795265387	-0.4834653425	-1.2058476533	-0.284951
C	 1.6061397037	-1.6929438965	-0.623634703	-0.031227
C	 2.5797370192	-1.4746886505	 0.5264806954	-0.066852
C	 2.2854030095	-0.1463481299	 1.2229592584	-0.255229
C	 0.7657517466	-0.5199028987	 1.2069541436	-0.051857
C	 1.1637747314	-1.9610790242	 0.7869187865	-0.071565
H	 0.8099964507	 2.0988421169	 0.0475886111	 0.117323
H	-0.6559790949	 1.9083641594	-0.917039197	 0.102842
H	-0.7595428912	 1.8765801542	 0.8508674521	 0.120653
H	-1.7371740551	-0.2986641779	-0.7690318539	 0.271052
H	 0.220486949	-0.7696831095	-2.0324253133	 0.086125
H	 1.5703291856	 0.2757435243	-1.5899824185	 0.092863
H	 1.8303784341	-2.5395698822	-1.2628507664	 0.078075
H	 3.5110551898	-2.0269875968	 0.5786019957	 0.076868
H	 2.672597325	-0.1370763113	 2.24492629	 0.101346
H	 2.5946148947	 0.7805811469	 0.7261913403	 0.085924
H	 0.2192074872	-0.376062492	 2.1384074508	 0.069667
H	 0.7892283947	-2.8991977493	 1.1716664253	 0.082203
147.8835	235.1964	246.7485	270.7041	343.9579	355.8326	375.0232	448.713	474.9833	585.7934	694.1927	720.1765	762.8758	784.0595	806.3987	877.4749	910.7053	927.1662	940.4913	959.7761	976.5342	983.1873	991.1325	1020.5179	1056.364	1067.4373	1094.0673	1117.7977	1135.4071	1148.5369	1173.3025	1219.1229	1233.9652	1241.1947	1276.7938	1285.6785	1303.4985	1329.2627	1380.7031	1402.8655	1409.2193	1480.3115	1491.6668	1494.6904	1505.346	3025.3083	3029.7057	3036.8869	3073.2215	3090.7835	3093.8203	3116.329	3119.9854	3167.9778	3177.3701	3211.4198	3801.0007
CC1(O)CC2C3CC1C23	C[C@@]1(O)C[C@H]2[C@H]3C[C@@H]1[C@@H]23	
InChI=1S/C8H12O/c1-8(9)3-5-4-2-6(8)7(4)5/h4-7,9H,2-3H2,1H3	InChI=1S/C8H12O/c1-8(9)3-5-4-2-6(8)7(4)5/h4-7,9H,2-3H2,1H3/t4-,5+,6-,7-,8-/m1/s1
