20
gdb 56500	2.51703	1.2328	1.03965	3.5293	84.76	-0.2773	0.0226	0.2999	1240.6819	0.167506	-366.00574	-365.995154	-365.99421	-366.040608	39.144	
C	-0.037632683	 1.561314295	 0.1020362221	-0.418017
C	-0.0356771666	 0.0243201614	-0.0246510065	-0.165424
C	-1.3990715413	-0.4987834098	 0.0403477672	 0.32491
C	-2.5306169217	-0.9017983537	 0.0968615842	-0.458513
C	 0.7089425816	-0.5075076315	-1.3091048485	 0.077876
C	 0.773916715	-2.0508636908	-1.2795376335	-0.415873
C	 0.030409326	-0.0301240658	-2.6109450146	-0.413947
C	 2.0877761559	 0.0077417216	-1.2717727766	 0.274091
N	 3.1729598799	 0.4056270907	-1.2416156745	-0.352132
H	 0.9824824474	 1.9510203467	 0.0567242915	 0.147226
H	-0.6295492122	 2.0249105656	-0.6907706949	 0.132354
H	-0.4781168775	 1.8515959612	 1.0587471932	 0.132964
H	 0.5203732185	-0.3785067708	 0.8321518349	 0.12202
H	-3.5277900443	-1.2622584201	 0.1594150786	 0.200963
H	-0.2389970448	-2.4591795614	-1.3038221311	 0.140181
H	 1.3275759288	-2.4282248192	-2.1429432786	 0.132379
H	 1.2710204014	-2.4070620199	-0.3729081634	 0.131848
H	 0.0484752098	 1.0578964449	-2.7023666935	 0.13543
H	 0.5429666039	-0.4496292946	-3.4802285311	 0.132877
H	-1.0096478568	-0.3660018894	-2.621198275	 0.138786
66.1541	132.3095	173.1795	191.0578	204.9123	223.8269	245.6184	269.5651	274.8266	343.9665	361.1941	401.184	497.0323	546.1734	576.5122	599.4602	628.9819	651.981	711.3245	824.111	899.1097	946.2878	953.2278	1017.3667	1044.1928	1080.1038	1110.2212	1178.3764	1214.3782	1234.7308	1329.3599	1340.5697	1398.0786	1409.5322	1421.6791	1483.8834	1484.3972	1495.1589	1498.9847	1501.8758	1513.2617	2231.4059	2349.4509	3019.9229	3048.344	3052.8113	3055.4805	3122.9285	3128.4253	3130.1647	3133.2954	3135.4293	3138.7634	3501.9074
CC(C#C)C(C)(C)C#N	C[C@@H](C#C)C(C)(C)C#N	
InChI=1S/C8H11N/c1-5-7(2)8(3,4)6-9/h1,7H,2-4H3	InChI=1S/C8H11N/c1-5-7(2)8(3,4)6-9/h1,7H,2-4H3/t7-/m0/s1
