21
gdb 81690	2.72168	1.46221	1.42337	2.0652	76.74	-0.2354	0.0639	0.2992	1058.597	0.18421	-424.218746	-424.210485	-424.209541	-424.251213	32.876	
C	-0.3431637043	 1.4829501341	 0.0479835729	-0.391501
C	 0.0466168338	-0.0026790512	-0.0128795052	 0.049572
C	 0.7304755305	-0.3343546413	-1.3731043069	-0.229965
C	 2.2530021446	-0.2974141555	-1.2354418348	 0.040707
O	 2.6502779576	 0.6796935824	-0.2276891153	-0.297055
C	 2.4324040298	-0.345604339	 0.7890779443	 0.06375
C	 0.9572471018	-0.3821603228	 1.1929559696	-0.236978
C	 2.7468685784	-1.4097810443	-0.2757455106	 0.106813
O	 2.0513365456	-2.6246050491	-0.1648088111	-0.421126
H	 0.5462681208	 2.114932133	-0.0196979289	 0.135456
H	-1.015924994	 1.7462531469	-0.7759072898	 0.101891
H	-0.8589232569	 1.7150067591	 0.9865251857	 0.102748
H	-0.8748892396	-0.5898639727	 0.0572481344	 0.068626
H	 0.4466567253	-1.3353128259	-1.7168599492	 0.096073
H	 0.3992860087	 0.377083102	-2.1362373058	 0.092785
H	 2.7782091855	-0.1420323801	-2.182421298	 0.068035
H	 3.1151904698	-0.2356655548	 1.6357294651	 0.073852
H	 0.7796286923	 0.3115071252	 2.0210503856	 0.093136
H	 0.7283817736	-1.3881789084	 1.5595619515	 0.113919
H	 3.8281819884	-1.5589817305	-0.3718675288	 0.078587
H	 2.4195752183	-3.2515511168	-0.7940308447	 0.290674
88.3112	202.4436	212.7303	223.5283	263.2281	368.0682	372.5264	417.498	436.5482	572.7415	592.3241	646.9409	766.3773	829.5356	832.906	861.9032	871.485	920.7435	940.2146	970.1113	1002.9168	1024.0708	1064.5133	1087.0556	1093.1421	1098.4225	1163.7205	1177.7719	1201.6287	1235.9844	1252.9959	1281.1837	1291.0665	1328.9476	1344.8188	1347.3066	1364.7327	1370.9946	1382.6075	1405.1048	1438.6903	1475.3554	1482.9282	1499.6516	1511.4466	3026.1964	3032.3851	3038.9113	3040.431	3049.1492	3066.0096	3076.469	3080.1525	3086.3573	3090.4627	3121.9877	3833.22
CC1CC2OC(C1)C2O	C[C@H]1C[C@H]2O[C@@H](C1)[C@H]2O	
InChI=1S/C7H12O2/c1-4-2-5-7(8)6(3-4)9-5/h4-8H,2-3H2,1H3	InChI=1S/C7H12O2/c1-4-2-5-7(8)6(3-4)9-5/h4-8H,2-3H2,1H3/t4-,5+,6-,7-
