15
gdb 45670	3.25769	1.72831	1.14522	1.3796	74.6	-0.2331	-0.026	0.207	998.3414	0.116138	-413.022316	-413.01555	-413.014606	-413.053651	25.89	
N	-0.1025665289	 1.3083471357	 0.0096900477	-0.531186
C	-0.000690149	 0.0452291348	 0.0026906379	 0.330062
C	 1.1934398637	-0.9394220199	-0.0076623758	-0.279833
N	 0.6385676949	-2.3070906209	-0.0123018394	-0.349378
C	-0.6239018629	-2.1480635797	-0.0059674378	 0.388411
C	-1.8782275704	-2.991560407	-0.0048594054	-0.281883
N	-2.9926592134	-2.0158163762	 0.0050635547	-0.256642
C	-2.4761982862	-0.8458914936	 0.0088787241	 0.069207
N	-1.0864648368	-0.8278889415	 0.0028964637	-0.092375
H	 0.8179265383	 1.7463953748	 0.0079338169	 0.229499
H	 1.8223901372	-0.7788491636	-0.8908610321	 0.145987
H	 1.8301774178	-0.7879718546	 0.8715535642	 0.145985
H	-1.9464891238	-3.634978375	-0.8881610026	 0.157171
H	-1.9388018476	-3.6441022085	 0.8722883246	 0.157172
H	-3.0334912528	 0.0825481052	 0.0161287192	 0.167805
127.7831	144.8265	245.0545	291.0007	470.335	517.7121	531.5818	630.9	650.6965	653.2719	759.5612	844.7853	903.824	931.1197	935.009	969.271	980.7249	1001.7836	1023.3169	1112.3101	1183.8283	1189.9336	1228.346	1252.8687	1280.4356	1304.5288	1348.028	1423.3407	1452.266	1457.1068	1654.2191	1739.7532	1752.3137	3042.5384	3057.2936	3076.2204	3089.5707	3228.6874	3492.3395
N=C1CN=C2CN=CN12	[NH][C]1CN=C2CN=CN12	
InChI=1S/C5H6N4/c6-4-1-8-5-2-7-3-9(4)5/h3,6H,1-2H2	InChI=1S/C5H6N4/c6-4-1-8-5-2-7-3-9(4)5/h3,6H,1-2H2
