17
gdb 39996	3.43147	1.54441	1.29618	1.5311	71.68	-0.2478	0.0146	0.2624	984.8934	0.138506	-417.978	-417.971061	-417.970117	-418.00961	27.356	
C	-0.4219477458	 1.3350896026	 0.0067469208	-0.296262
N	 1.0095385245	 0.9805220927	-0.03061985	-0.368322
C	 0.0087682654	-0.0789731745	 0.0330561129	 0.339446
C	-0.0821100402	-1.1255690083	 1.1570837333	-0.30669
C	-0.5518773599	-2.1665402334	 0.1005589866	-0.013019
N	-2.0046239553	-2.3852684547	 0.0593425982	-0.262176
C	-2.4371912466	-1.7095714283	-0.9224223226	 0.115514
O	-1.578402171	-0.9846083672	-1.6916207696	-0.225231
C	-0.2987419102	-1.1288757395	-1.0405820414	-0.020581
H	-0.7482625862	 1.813593826	 0.9262434124	 0.124302
H	-0.901976748	 1.7004914737	-0.8971477554	 0.123913
H	 1.3681158682	 1.0717078975	-0.9790076136	 0.232278
H	 0.8902559887	-1.3573068626	 1.5996332298	 0.116103
H	-0.8048264961	-0.9257137336	 1.9509454509	 0.117229
H	-0.020660237	-3.1200672236	 0.090862955	 0.089274
H	-3.4725276353	-1.6524504918	-1.2397113521	 0.142866
H	 0.4616095149	-1.3050133349	-1.8040349553	 0.091358
68.549	207.8339	271.2644	326.199	333.6928	493.4272	494.2234	611.9682	727.9874	793.9591	827.7693	852.995	877.4004	894.5409	929.3631	938.0863	961.6298	974.9043	995.3297	1028.2433	1048.6746	1082.6959	1098.0031	1127.6811	1145.2097	1194.0213	1240.5386	1258.511	1263.4488	1294.9879	1307.5129	1313.5439	1349.255	1407.8404	1473.6439	1512.4572	1687.8944	3064.8424	3086.9929	3098.0093	3108.3496	3124.2776	3195.8324	3217.2457	3486.2302
C1NC11CC2N=COC12	C1N[C@]21C[C@H]1N=CO[C@@H]21	
InChI=1S/C6H8N2O/c1-4-5(9-3-7-4)6(1)2-8-6/h3-5,8H,1-2H2	InChI=1S/C6H8N2O/c1-4-5(9-3-7-4)6(1)2-8-6/h3-5,8H,1-2H2/t4-,5-,6+/m1/s1
