19
gdb 53555	4.27976	0.79035	0.756	1.6845	84.21	-0.2444	0.0543	0.2987	1590.8227	0.157229	-385.831869	-385.822376	-385.821432	-385.868756	33.684	
C	 0.0229316034	 1.4995023896	-0.1862186986	-0.496237
C	 0.04431096	 0.0510602481	-0.0405525308	 0.066219
C	 0.0684849066	-1.1470084083	 0.0714961753	 0.067127
C	 0.0674182786	-2.6015831468	 0.2178092708	-0.47031
C	-1.3210719826	-3.1818726208	 0.251534489	 0.44386
C	-2.4214825285	-2.9725854101	 1.3076574329	-0.28282
C	-2.9716450641	-4.3985590475	 0.9469863766	-0.236996
C	-1.8454484481	-4.5170451979	-0.0887509867	-0.051692
O	-1.9909264213	-3.4111180148	-0.9936552974	-0.283467
H	 0.7946747458	 1.8398720751	-0.8855128862	 0.147972
H	-0.9439453169	 1.8452636467	-0.5682181389	 0.1496
H	 0.1995830249	 2.0013573461	 0.7716111291	 0.145275
H	 0.6145770038	-3.0692318383	-0.6096848264	 0.138225
H	 0.5911879959	-2.8807077406	 1.1422069671	 0.128753
H	-2.036675325	-2.9180932386	 2.3290014028	 0.105162
H	-3.0799459938	-2.122591608	 1.1190036764	 0.113775
H	-2.8769348932	-5.1068968628	 1.7734776587	 0.104402
H	-3.982207463	-4.4489895835	 0.5352772491	 0.112282
H	-1.3500139025	-5.4026949478	-0.4715696427	 0.098871
11.7486	48.044	70.0795	195.0046	205.8033	259.9812	311.7345	371.9688	380.4119	439.0752	494.4032	706.0533	731.0767	763.3831	772.5344	865.2583	912.1037	919.5307	948.59	956.514	1017.7996	1051.5069	1053.2365	1060.5478	1135.3304	1160.9322	1173.1172	1210.1253	1215.9795	1243.2	1257.0491	1299.9412	1331.0911	1415.0698	1448.7487	1454.6492	1464.4632	1478.6638	1479.1063	1492.5964	2376.5731	3013.3905	3026.2159	3055.9585	3064.2978	3072.164	3086.1471	3087.4611	3116.5791	3133.1037	3177.4276
CC#CCC12CCC1O2	CC#CC[C@]12CC[C@H]1O2	
InChI=1S/C8H10O/c1-2-3-5-8-6-4-7(8)9-8/h7H,4-6H2,1H3	InChI=1S/C8H10O/c1-2-3-5-8-6-4-7(8)9-8/h7H,4-6H2,1H3/t7-,8+/m1/s1
