15
gdb 44121	2.4994	1.65109	1.34845	4.1296	68.6	-0.2515	-0.0382	0.2133	969.6402	0.113186	-416.816442	-416.80901	-416.808066	-416.848833	27.917	
O	-0.0437409192	 0.2041513743	-0.9476366468	-0.286108
C	-0.0335652363	 1.2187638226	-0.310725224	 0.403062
C	-1.2672306322	 1.9649796436	 0.2353213353	-0.368495
C	-0.6963201533	 3.1657395425	 0.9525671184	-0.038115
C	 0.1792271676	 2.9413541553	 2.1491929792	-0.163323
C	 0.2587592223	 1.6335213139	 2.7477735056	 0.298672
N	 0.3383135354	 0.5807819789	 3.2213735618	-0.334512
N	 0.7803775124	 3.2167401653	 0.8246858416	-0.109934
C	 1.215392687	 2.0346750375	 0.0722414421	-0.292159
H	-1.9073341182	 2.2608005866	-0.6014482531	 0.147802
H	-1.8491206781	 1.2926972871	 0.8720482216	 0.165253
H	-1.2067332799	 4.1210063128	 0.8810543364	 0.118841
H	 0.3110084126	 3.7538137437	 2.8580622333	 0.14481
H	 1.9163631988	 1.4138841421	 0.6376830103	 0.163975
H	 1.7238736212	 2.3659516338	-0.8391692116	 0.150231
62.8011	138.1929	156.3599	340.6555	370.1665	449.9262	456.8409	563.3633	583.5182	625.9369	707.7271	748.5648	771.4074	798.5474	840.5684	895.7805	968.7608	1034.1	1069.9222	1085.6471	1124.6964	1131.2605	1171.4598	1226.9054	1268.2222	1279.9004	1292.3094	1358.9782	1385.5097	1448.7794	1460.0802	1865.6926	2348.1381	3057.6619	3066.1439	3105.0309	3108.7462	3152.349	3162.1124
O=C1CC2C(C#N)N2C1	O=C1C[C@H]2[C@@H](C#N)N2C1	
InChI=1S/C6H6N2O/c7-2-6-5-1-4(9)3-8(5)6/h5-6H,1,3H2	InChI=1S/C6H6N2O/c7-2-6-5-1-4(9)3-8(5)6/h5-6H,1,3H2/t5-,6+,8?/m0/s1
