20
gdb 98219	2.82472	0.94444	0.90352	2.4447	76.53	-0.2413	-0.0291	0.2122	1430.8953	0.168696	-440.35281	-440.342227	-440.341283	-440.389366	37.509	
C	-0.3780942256	 1.7291704603	 0.2123433542	-0.381063
C	-0.2917263472	 0.2453971584	-0.1321063955	-0.280936
C	-1.5620672517	-0.5325235499	 0.1553047659	 0.37871
O	-2.5727698382	 0.0163124133	 0.5502638288	-0.333235
C	-1.4920222472	-2.0444858163	-0.0512215054	-0.176888
C	-1.4302266611	-2.7359221923	 1.3325931435	-0.394836
C	-2.6542384269	-2.6382132073	-0.8739929662	 0.375406
N	-3.8932558293	-2.2048248693	-0.5225978503	-0.511504
O	-2.4426386785	-3.483896501	-1.7214874672	-0.366875
H	 0.5575733272	 2.2373081611	-0.0357154439	 0.115373
H	-1.1907728475	 2.2094088685	-0.337981756	 0.135388
H	-0.5773090689	 1.8730561992	 1.2775618703	 0.131095
H	-0.0616600959	 0.0934441862	-1.1968792478	 0.137659
H	 0.5328451456	-0.2481203291	 0.401374794	 0.128091
H	-0.5895237126	-2.297136957	-0.6120759171	 0.105651
H	-2.3185217442	-2.4961751263	 1.9216003846	 0.141002
H	-1.3763414241	-3.8195322748	 1.2010718278	 0.143516
H	-0.5463700042	-2.4145450157	 1.8925643791	 0.121412
H	-3.9782937366	-1.3652133027	 0.0340393289	 0.275686
H	-4.6680811231	-2.5165539354	-1.0858975877	 0.256347
35.3945	65.1448	86.2314	180.1007	186.9209	218.2522	231.3656	235.0826	308.571	351.5636	399.6605	465.7672	542.8473	574.2322	659.3195	674.5923	761.5121	796.7033	821.2955	832.8458	982.7565	998.7271	1028.6099	1053.6304	1092.0769	1118.0889	1127.7049	1147.9407	1275.516	1308.817	1330.0352	1351.8012	1378.5052	1407.3655	1414.779	1445.0408	1493.0496	1494.4404	1497.7333	1498.2224	1611.3846	1780.88	1801.3412	3014.0666	3039.5332	3043.3493	3053.1222	3090.7669	3115.5214	3124.039	3129.2287	3136.7043	3541.548	3695.075
CCC(=O)C(C)C(N)=O	CCC(=O)[C@@H](C)C(=O)N	
InChI=1S/C6H11NO2/c1-3-5(8)4(2)6(7)9/h4H,3H2,1-2H3,(H2,7,9)	InChI=1S/C6H11NO2/c1-3-5(8)4(2)6(7)9/h4H,3H2,1-2H3,(H2,7,9)/t4-/m1/s1
