23
gdb 119466	4.6508	0.76979	0.73385	1.4413	86.66	-0.2435	0.0777	0.3212	1653.8159	0.205054	-388.268371	-388.258594	-388.25765	-388.303261	36.966	
C	 0.0969554235	 1.6199844298	 0.0340138524	-0.380428
C	 0.1475090284	 0.0902468541	 0.0458687447	-0.15508
C	 0.5739097838	-0.5082268122	-1.3038079964	-0.307589
C	 0.6057775126	-2.0116121286	-1.3017435242	 0.391314
C	 1.777831187	-2.8181709857	-0.8169739377	-0.318883
C	 1.3319447907	-2.9825716981	-2.2467653589	-0.129702
C	 0.0992206645	-3.8701677242	-2.3129379946	 0.127441
O	 0.33955781	-5.207060217	-1.9246005969	-0.433824
C	-0.6385284122	-2.9157407407	-1.3081118404	-0.337236
H	 1.0770204123	 2.0467817836	-0.2074892352	 0.112678
H	-0.6146143707	 1.9874760748	-0.7140707222	 0.112252
H	-0.2083393871	 2.0180159194	 1.0068233147	 0.110357
H	 0.8413332647	-0.2534709497	 0.8231733689	 0.099484
H	-0.8377808923	-0.3076953532	 0.3212975103	 0.097662
H	-0.1128618007	-0.1550039081	-2.0866642042	 0.088982
H	 1.56732192	-0.1241528498	-1.5727371795	 0.091853
H	 2.7036689846	-2.263922809	-0.6947831382	 0.104433
H	 1.646879768	-3.6338774148	-0.1115045608	 0.115072
H	 1.9924091361	-2.7676812772	-3.0787940006	 0.079377
H	-0.3721993904	-3.8296097036	-3.3042535644	 0.066068
H	-0.4985657752	-5.6800367547	-1.9451661261	 0.280592
H	-0.9118352479	-3.3651052691	-0.3476338029	 0.091492
H	-1.5221318497	-2.444439296	-1.7481307377	 0.093685
69.1989	90.2073	95.3587	171.0429	245.2543	266.7276	296.6266	309.3885	349.8232	397.5845	433.4299	562.8305	659.1122	724.7704	747.122	821.8594	860.7632	870.0732	897.1651	915.5938	962.9375	979.0421	986.0826	1020.9706	1044.4239	1049.0692	1077.1474	1097.3436	1108.9733	1134.8655	1166.3007	1212.4609	1227.2053	1239.1975	1277.8495	1288.54	1313.7201	1323.3141	1344.42	1383.8357	1411.0657	1413.1034	1422.9561	1475.4205	1479.7181	1493.491	1499.6348	1504.4351	1510.8164	2998.164	3002.561	3021.3779	3027.9508	3031.9212	3039.8783	3058.0303	3094.4552	3095.7893	3100.4558	3115.7649	3176.0301	3200.6675	3813.1704
CCCC12CC1C(O)C2	CCC[C@]12C[C@H]1[C@@H](O)C2	
InChI=1S/C8H14O/c1-2-3-8-4-6(8)7(9)5-8/h6-7,9H,2-5H2,1H3	InChI=1S/C8H14O/c1-2-3-8-4-6(8)7(9)5-8/h6-7,9H,2-5H2,1H3/t6-,7-,8+/m0/s1
