15
gdb 67811	2.42674	1.99327	1.6047	1.925	64.99	-0.2222	-0.0054	0.2168	876.6389	0.111236	-457.695821	-457.688319	-457.687375	-457.727264	29.714	
O	-0.2209055699	 1.3496953331	 0.0131642861	-0.472794
C	-0.0558613058	-0.0262997598	-0.0667991336	 0.21455
C	 0.892389506	-0.6806070821	-0.9949412647	-0.142619
C	 0.5344100068	-1.9640839851	-1.1715438542	-0.097031
C	-0.6194659886	-2.255015903	-0.2598662601	-0.043916
O	-0.0572029195	-2.2155769765	 1.1283696524	-0.288364
C	-0.4579278626	-0.8813428122	 1.2442878726	-0.025821
C	-1.3061939705	-0.8619862319	 0.0280260352	 0.290871
O	-2.5923294899	-0.4593184603	-0.2025595576	-0.455972
H	 0.4738514259	 1.7157190359	 0.5701060213	 0.294012
H	 1.7760605589	-0.1910333983	-1.3869213809	 0.10467
H	 1.0751554151	-2.7180110434	-1.7275970173	 0.107634
H	-1.2173353233	-3.1528849575	-0.4031068017	 0.09361
H	-0.4913327768	-0.4143037969	 2.2213723456	 0.120604
H	-2.5979484557	 0.1317827482	-0.964715103	 0.300566
141.781	219.1129	258.1587	266.6106	332.8704	385.727	401.3657	466.0279	555.7386	640.7425	657.473	672.7048	760.6681	767.2614	812.6791	861.795	880.5823	922.816	977.1148	992.4735	1046.456	1076.1995	1102.1973	1148.8184	1193.8523	1226.4745	1245.489	1297.7582	1305.8845	1335.5706	1404.8201	1492.4507	1616.788	3142.6064	3195.1959	3198.5868	3228.7006	3787.2497	3808.0788
OC12C=CC3OC1C23O	O[C@@]12C=C[C@H]3O[C@@H]1[C@@]23O	
InChI=1S/C6H6O3/c7-5-2-1-3-6(5,8)4(5)9-3/h1-4,7-8H	InChI=1S/C6H6O3/c7-5-2-1-3-6(5,8)4(5)9-3/h1-4,7-8H/t3-,4+,5+,6-/m1/s1
