23
gdb 123054	6.14249	0.52719	0.50807	2.3749	84.18	-0.2426	0.087	0.3296	2223.9509	0.204452	-425.398234	-425.387751	-425.386806	-425.435481	36.27	
C	 0.1503323338	 1.3494195549	 0.1242329179	-0.226003
O	 0.0906738604	-0.0525206774	 0.044545681	-0.229224
C	 0.6723330971	-0.5617429866	-1.1357332449	-0.051718
C	 0.5683703832	-2.0801699998	-1.1159512864	-0.195966
C	 1.1587994669	-2.7292815747	-2.3717757754	-0.207352
C	 1.110254859	-4.2459958136	-2.3166810438	 0.164372
C	 1.9071463994	-5.0457457606	-3.372210509	-0.301467
C	 2.6293089039	-5.6558701806	-2.1549978939	-0.056556
O	 1.9239824356	-4.7882560694	-1.2444613229	-0.292197
H	 1.1892171094	 1.717502652	 0.116663531	 0.100834
H	-0.3866576321	 1.8318888027	-0.7088675569	 0.099688
H	-0.3209181266	 1.6460536893	 1.0646843493	 0.125119
H	 0.1585888044	-0.1503571966	-2.023647495	 0.077972
H	 1.729674859	-0.2499322524	-1.2077399212	 0.081977
H	 1.0878642536	-2.4629088527	-0.2314426804	 0.128873
H	-0.4876428467	-2.3568201389	-1.0093461961	 0.102805
H	 0.6138009728	-2.3980107744	-3.2671478665	 0.093815
H	 2.2039967821	-2.4183144582	-2.5005039532	 0.095403
H	 0.068272271	-4.5830482888	-2.208388648	 0.070418
H	 1.3330582814	-5.7361634805	-3.9916472399	 0.108783
H	 2.5385079609	-4.4265110915	-4.013462525	 0.107639
H	 2.4055608724	-6.7138485788	-1.9658406856	 0.099709
H	 3.7147854989	-5.5112303334	-2.1028224652	 0.103078
46.7736	67.1648	79.8079	95.4035	124.9166	148.3811	223.8702	236.816	290.6325	389.6936	463.2667	504.1119	735.2355	761.8718	812.1234	859.2134	885.9692	948.2136	973.8569	988.4445	1016.005	1033.5717	1061.9945	1099.7748	1111.3394	1160.9158	1165.4021	1174.0913	1186.7474	1214.0138	1221.6558	1233.5715	1255.0284	1269.6394	1292.909	1306.4745	1318.0512	1356.4169	1374.3548	1410.0113	1427.8604	1473.5065	1481.1106	1484.9962	1490.0629	1498.4652	1507.3578	1532.7693	1533.0251	2933.9592	2959.4952	2964.7936	2985.5937	3004.5532	3007.8513	3012.4907	3037.2092	3050.1444	3053.3277	3073.9459	3092.8568	3110.4367	3130.6277
COCCCC1CCO1	COCCC[C@H]1CCO1	
InChI=1S/C7H14O2/c1-8-5-2-3-7-4-6-9-7/h7H,2-6H2,1H3	InChI=1S/C7H14O2/c1-8-5-2-3-7-4-6-9-7/h7H,2-6H2,1H3/t7-/m0/s1
