18
gdb 80001	2.74465	2.02327	1.62211	1.1409	76.03	-0.2043	-0.0019	0.2024	895.1879	0.147824	-401.81765	-401.810664	-401.809719	-401.848384	29.315	
C	 0.1130225731	 1.4316094298	-0.0759489035	-0.337972
N	 0.0212877388	-0.0232867346	 0.0059807003	-0.120006
C	-1.1901554318	-0.593702232	 0.6959047774	-0.133778
C	-0.8997855623	-2.0936626266	 0.416344771	-0.066286
C	 0.414061957	-2.2294345156	 0.6690118243	-0.17276
C	 0.737632809	-0.8136956156	 1.1225472134	 0.235409
C	 1.556982466	 0.0623423521	 2.0580782073	-0.202347
O	 0.3112595733	 0.6036130844	 2.6139154547	-0.303078
C	-0.4317314812	-0.5275277524	 2.0734951068	 0.13491
H	 1.1145451623	 1.7033258978	-0.4262872692	 0.115685
H	-0.5895039242	 1.7541171151	-0.8532157601	 0.115313
H	-0.1025995142	 1.9866961962	 0.8456840511	 0.124427
H	-2.1792814818	-0.1972267782	 0.4588245964	 0.067966
H	-1.6111227323	-2.8194644487	 0.0511943752	 0.110188
H	 1.061254081	-3.088604363	 0.578163366	 0.116754
H	 2.1214020043	-0.4850999985	 2.8236911049	 0.112807
H	 2.1811191595	 0.8438670997	 1.6162566196	 0.118068
H	-0.7512190265	-1.2016665797	 2.8743872745	 0.0847
194.673	253.4391	296.8729	321.5255	365.3445	426.2029	494.6191	557.2812	598.1743	641.2984	727.8882	737.1489	772.2005	843.0819	873.1294	882.9712	889.645	932.3689	961.0179	975.197	1009.5781	1070.2237	1094.7458	1130.7484	1152.0316	1157.2775	1166.3431	1201.8345	1216.0233	1240.3399	1269.1713	1302.0306	1324.1414	1356.9978	1438.9365	1482.5812	1509.2655	1517.5652	1570.5641	3008.1917	3022.4174	3056.6695	3071.4668	3085.2414	3097.3013	3100.4083	3233.0976	3257.9391
CN1C2C=CC11COC21	CN1[C@H]2C=C[C@]31CO[C@@H]23	
InChI=1S/C7H9NO/c1-8-5-2-3-7(8)4-9-6(5)7/h2-3,5-6H,4H2,1H3	InChI=1S/C7H9NO/c1-8-5-2-3-7(8)4-9-6(5)7/h2-3,5-6H,4H2,1H3/t5-,6-,7-/m0/s1
