16
gdb 56094	4.28897	0.78223	0.667	1.9297	74.52	-0.2663	-0.06	0.2063	1613.1849	0.120304	-437.867351	-437.857361	-437.856417	-437.904161	34.007	
C	-0.0514196833	 1.4221792865	-0.0812775729	-0.460677
C	 0.0925591634	-0.0683091263	 0.0757361254	 0.399368
N	 0.3267677636	-0.7475910164	 1.1217214266	-0.5198
O	-0.0675172813	-0.6738184615	-1.1237065946	-0.220077
C	 0.0410533422	-2.0811546839	-1.1336101294	-0.162887
C	-0.1655126597	-2.5815502837	-2.5535338721	 0.222214
O	-0.3857171276	-1.868740008	-3.5027014404	-0.259902
C	-0.0721109634	-4.0294297364	-2.6697625877	 0.248946
C	 0.0069921628	-5.2272625691	-2.7553018527	-0.422578
H	 0.0744238384	 1.9298473768	 0.8760036862	 0.127538
H	 0.6921540702	 1.7982988222	-0.7902309076	 0.153149
H	-1.0369094803	 1.662776207	-0.4910474006	 0.15315
H	 0.4192484964	-0.1393202597	 1.9317242921	 0.223344
H	 1.0222055954	-2.4094752988	-0.7660767194	 0.149637
H	-0.6992687506	-2.5443736513	-0.4681119316	 0.149643
H	 0.0743839537	-6.2845658575	-2.8448737715	 0.218933
27.4058	52.3236	95.427	109.347	177.8723	184.2318	249.2374	281.3452	368.8592	507.023	566.2228	580.1402	582.9825	630.7403	662.6043	710.0067	832.2401	857.3071	957.557	994.7236	1000.9877	1069.225	1075.8859	1106.9698	1151.9225	1238.3218	1351.7092	1390.1073	1422.1302	1470.5842	1474.5048	1481.6515	1728.7897	1792.4803	2213.7688	3026.7123	3051.3246	3057.3547	3115.5638	3146.8105	3493.8017	3519.3526
CC(=N)OCC(=O)C#C	C[C]([NH])OCC(=O)C#C	
InChI=1S/C6H7NO2/c1-3-6(8)4-9-5(2)7/h1,7H,4H2,2H3	InChI=1S/C6H7NO2/c1-3-6(8)4-9-5(2)7/h1,7H,4H2,2H3
