19
gdb 82890	2.48798	1.92157	1.43367	2.6334	73.67	-0.2361	0.0677	0.3038	971.3156	0.159793	-422.980851	-422.97317	-422.972226	-423.012541	30.998	
C	-0.2371310298	 1.6328230622	-0.0570526378	-0.442168
C	 0.0177972234	 0.1319322672	-0.0256470525	-0.029424
C	 1.0987615647	-0.5721959318	-0.902397858	-0.123156
C	 2.4108671217	 0.1289998527	-0.4952083587	-0.214998
C	 2.3428960385	-0.3906295673	 0.9509938556	-0.009228
O	 2.4748416792	-1.8268187864	 0.7353951816	-0.293092
C	 1.1479722637	-1.7328432927	 0.2141276971	 0.060535
C	 0.7601932313	-0.5638338928	 1.1324725066	 0.371054
O	 0.2348257147	-0.7683548576	 2.3979229665	-0.480098
H	 0.6635231623	 2.2221644178	 0.1375943518	 0.114638
H	-0.637025388	 1.9483645867	-1.0267154649	 0.121702
H	-0.9769445146	 1.9059557516	 0.7040506619	 0.117114
H	-0.9335422349	-0.4008807466	-0.1495502501	 0.079843
H	 0.9166502463	-0.7904718027	-1.9520735904	 0.069538
H	 3.2987718537	-0.2634761382	-0.9952965183	 0.10958
H	 2.3811644045	 1.2139953405	-0.6070803356	 0.09684
H	 2.997997867	 0.0018466805	 1.7285689691	 0.077519
H	 0.6109476886	-2.6692226633	 0.0762107252	 0.090501
H	 0.3260681276	 0.0444449102	 2.9066237508	 0.283298
162.7127	186.6867	206.3258	223.5855	315.7474	348.9339	480.485	530.797	548.8598	621.4482	651.1787	735.7766	748.181	842.3435	860.7983	916.5036	923.2281	949.1328	955.4924	983.4323	996.738	1030.7771	1058.6311	1086.6778	1111.4388	1132.4855	1147.2411	1178.3613	1198.3376	1223.3251	1228.7103	1242.9203	1298.6462	1302.2034	1324.9133	1388.0344	1410.0787	1416.7508	1482.1055	1497.1859	1508.595	3029.4808	3033.1594	3077.0926	3090.227	3106.856	3124.1939	3130.991	3139.9264	3148.8108	3804.4712
CC1C2CC3OC2C13O	C[C@H]1[C@H]2C[C@@H]3O[C@H]2[C@]13O	
InChI=1S/C7H10O2/c1-3-4-2-5-7(3,8)6(4)9-5/h3-6,8H,2H2,1H3	InChI=1S/C7H10O2/c1-3-4-2-5-7(3,8)6(4)9-5/h3-6,8H,2H2,1H3/t3-,4+,5-,6+,7-/m0/s1
