23
gdb 59667	2.63227	1.21248	1.09302	1.6499	85.48	-0.2387	0.074	0.3127	1279.6033	0.204494	-388.263686	-388.253963	-388.253019	-388.298148	36.757	
C	-1.533908004	-0.511277688	-0.0784611519	-0.398442
C	-0.1008473426	 0.0333139174	-0.0144665037	 0.016844
C	-0.1022719821	 1.5651023921	 0.1078833696	-0.392919
C	 0.712342257	-0.574314351	 1.1312323327	 0.076196
O	 0.0338180736	-0.4826187734	 2.4147781574	-0.300932
C	 0.094142322	-1.9111132806	 2.6189629552	-0.134982
C	 0.8197896765	-2.0942357983	 1.2919376715	 0.293694
C	 0.6850239904	-3.1872408419	 0.276987681	-0.321055
C	 1.9966520444	-2.9716900537	 0.998037184	-0.335266
H	-2.0688709506	-0.273264829	 0.8453806439	 0.130347
H	-2.0796556693	-0.0606148771	-0.9132835514	 0.10591
H	-1.5535526731	-1.5963116002	-0.2115379376	 0.11603
H	 0.4253673467	-0.2380874948	-0.9424395288	 0.067601
H	-0.5646852222	 1.8703641086	 1.0523578557	 0.133535
H	 0.9148774438	 1.9705328195	 0.0852274348	 0.107484
H	-0.666855748	 2.0248053024	-0.709372836	 0.107589
H	 1.6892793059	-0.069905995	 1.1841742068	 0.067623
H	 0.6675796187	-2.1722689976	 3.5183374515	 0.099528
H	-0.9071804854	-2.3567314714	 2.6887237609	 0.099575
H	 0.0897793585	-4.0563354149	 0.5404600199	 0.114743
H	 0.6285394629	-2.9131762781	-0.7716208969	 0.118386
H	 2.8230135235	-2.5452623591	 0.4372409113	 0.114479
H	 2.2951139832	-3.695729896	 1.7498633	 0.114034
79.5376	85.6347	148.4696	200.3926	225.4192	239.8445	267.1505	275.1612	356.0634	374.853	468.1959	549.7167	615.7517	774.2478	792.5187	865.3581	869.3757	901.256	924.9254	936.4205	947.5625	969.8071	979.9363	1015.4541	1042.1621	1062.3043	1077.4376	1087.1143	1121.1327	1142.5097	1156.434	1188.9659	1204.7653	1254.2018	1274.307	1317.2278	1330.6068	1354.6467	1379.5211	1398.8799	1415.1979	1420.6378	1463.8973	1486.6878	1494.6954	1502.8894	1508.4731	1515.842	1524.7675	2978.14	2993.3799	2999.8976	3031.3503	3039.706	3043.2856	3099.1802	3105.7235	3110.4694	3119.2683	3120.5758	3123.8883	3197.0385	3212.2779
CC(C)C1OCC11CC1	CC(C)[C@H]1OCC21CC2	
InChI=1S/C8H14O/c1-6(2)7-8(3-4-8)5-9-7/h6-7H,3-5H2,1-2H3	InChI=1S/C8H14O/c1-6(2)7-8(3-4-8)5-9-7/h6-7H,3-5H2,1-2H3/t7-/m1/s1
