16
gdb 15359	6.32627	0.92034	0.89127	1.6523	67.15	-0.2641	0.0438	0.3079	1281.1656	0.128057	-383.67388	-383.665181	-383.664237	-383.707947	30.882	
O	-0.0949285764	 1.2287000061	-0.8454664468	-0.417953
C	 0.0639189942	 0.1679148356	 0.0806421264	-0.082494
C	-1.2598964462	-0.5007378541	 0.3591251831	 0.025872
O	-1.7823445375	-1.3102144887	-0.7114262891	-0.259925
C	-1.4703247817	-1.9476046471	 0.5258837935	 0.068686
C	-0.3591828536	-2.9879000349	 0.5246244865	-0.387625
C	-0.8433491872	-4.3077428597	 0.1337196798	 0.295179
C	-1.2631269332	-5.3884526522	-0.180746945	-0.430749
H	-0.4926165133	 0.8492072323	-1.6375397892	 0.2946
H	 0.8028973495	-0.5640015037	-0.2728827872	 0.091774
H	 0.4520283455	 0.6189626812	 1.0005830178	 0.115888
H	-2.0032009917	 0.1666357506	 0.799146372	 0.101212
H	-2.3487955222	-2.2555060783	 1.0949784752	 0.105286
H	 0.4422817769	-2.6731876046	-0.1503068325	 0.141786
H	 0.0740647722	-3.0395832907	 1.5326992532	 0.138382
H	-1.6254396852	-6.3447377518	-0.4665321676	 0.20008
44.7899	78.7443	114.9492	179.9153	256.9838	333.6577	363.7814	404.5772	460.2564	503.9058	580.9699	623.2992	648.5827	781.8533	837.1277	893.5581	960.158	977.4866	1037.3964	1070.0968	1081.9998	1149.2754	1160.4274	1233.2654	1240.6145	1295.4657	1321.3676	1361.125	1398.4832	1432.442	1453.0686	1490.9687	1494.4466	2243.41	3010.8276	3024.0886	3071.5172	3082.7772	3096.217	3109.2357	3506.6807	3800.8576
OCC1OC1CC#C	OC[C@H]1O[C@H]1CC#C	
InChI=1S/C6H8O2/c1-2-3-5-6(4-7)8-5/h1,5-7H,3-4H2	InChI=1S/C6H8O2/c1-2-3-5-6(4-7)8-5/h1,5-7H,3-4H2/t5-,6+/m0/s1
