22
gdb 60549	2.84463	1.20564	0.95641	2.6269	82.07	-0.2441	0.0743	0.3185	1305.5558	0.193925	-404.310775	-404.301337	-404.300393	-404.344987	36.46	
C	-0.0491129131	 1.4939994661	-0.3570267072	-0.473136
C	-0.0276173301	 0.0074461797	-0.0755304999	 0.31427
C	 1.1687915835	-0.7738181458	-0.4763882199	-0.283585
N	 0.8950708747	-0.5131604791	 0.9542846434	-0.372147
C	-1.3865331472	-0.7078696691	-0.0326351269	 0.060131
O	-1.2097214138	-2.0705361915	 0.3142927733	-0.441778
C	-2.3619223213	-0.0231775004	 0.9094853821	 0.01468
C	-3.3593339293	 0.988454781	 0.3947743002	-0.268672
C	-3.8214935227	-0.3767503209	 0.8346333758	-0.27321
H	 0.9685383685	 1.8937202921	-0.4186288605	 0.108819
H	-0.5468407896	 1.7035604649	-1.3104288205	 0.124973
H	-0.588217044	 2.0419479681	 0.4211925129	 0.131545
H	 1.060960669	-1.8125255282	-0.7692111166	 0.131399
H	 1.9886077166	-0.2382944399	-0.9476348128	 0.108198
H	 1.4967449614	 0.2252248313	 1.3083971561	 0.230226
H	-1.8157008283	-0.7049419372	-1.0445001159	 0.076349
H	-0.5762728252	-2.0629371104	 1.0483919973	 0.287629
H	-1.9582972469	 0.1552841631	 1.9037407108	 0.080613
H	-3.59648701	 1.8441649061	 1.0176138601	 0.107963
H	-3.360453262	 1.2054352773	-0.6689472661	 0.108057
H	-4.1243164722	-1.0847225961	 0.0703214868	 0.118436
H	-4.3792386678	-0.4597560013	 1.7606354575	 0.109241
69.917	81.7949	159.1114	216.6078	259.3131	278.128	301.2737	354.4901	362.4026	448.1276	489.0256	552.6988	572.8342	737.4371	776.0456	826.4991	843.0089	867.9339	911.3058	939.8426	946.0289	972.2557	978.1888	1001.3758	1053.7257	1057.7548	1077.1665	1090.1034	1117.5875	1138.783	1151.4505	1168.163	1196.9015	1225.0069	1258.1724	1267.1869	1306.8449	1340.9278	1369.7871	1416.1835	1421.2338	1444.5171	1472.0388	1483.5381	1498.4133	1504.73	1507.827	3012.4452	3030.8002	3094.204	3108.2417	3117.5652	3125.855	3130.4884	3136.3198	3203.8262	3212.2489	3221.4462	3509.051	3707.1419
CC1(CN1)C(O)C1CC1	C[C@]1(CN1)[C@@H](O)C1CC1	
InChI=1S/C7H13NO/c1-7(4-8-7)6(9)5-2-3-5/h5-6,8-9H,2-4H2,1H3	InChI=1S/C7H13NO/c1-7(4-8-7)6(9)5-2-3-5/h5-6,8-9H,2-4H2,1H3/t6-,7-/m0/s1
