19
gdb 121329	3.12644	0.98015	0.77821	1.6346	72.7	-0.2457	-0.0278	0.2178	1460.3731	0.158016	-460.167856	-460.158591	-460.157647	-460.202993	32.581	
C	-0.4404006516	 1.4472462878	-0.6811282288	-0.229754
O	-0.3494750334	 0.0513025213	-0.8497758473	-0.241042
C	 0.8133599458	-0.4955331317	-0.2673982183	-0.067147
C	 0.8011187718	-1.9936446886	-0.5105334991	-0.141574
C	 0.916619039	-2.4576305128	-1.9669353873	-0.095583
O	 1.4679135532	-3.776245087	-1.9000329727	-0.249942
C	 2.4244458471	-3.7919451139	-0.8616180676	-0.18171
C	 1.9871986195	-2.715573457	 0.1357929072	 0.357756
O	 2.4973669276	-2.4681511611	 1.1964769338	-0.308745
H	-0.4658307466	 1.7278981725	 0.3832762844	 0.109262
H	 0.4053993619	 1.9711694744	-1.1536310868	 0.106587
H	-1.3684281012	 1.7736940208	-1.1561355082	 0.130045
H	 1.7179080382	-0.0445435103	-0.7123276823	 0.088896
H	 0.8518320713	-0.2964796486	 0.8147210876	 0.111713
H	-0.1122826349	-2.4163680156	-0.0702351641	 0.124317
H	-0.0371917437	-2.5232343537	-2.490705353	 0.130596
H	 1.5819316563	-1.7848603069	-2.5334589188	 0.095262
H	 2.4589397183	-4.7845372458	-0.4028150993	 0.14041
H	 3.4383797112	-3.544947784	-1.2210028996	 0.120653
58.5942	87.2894	100.1308	129.6506	209.9962	231.8832	289.165	331.8988	381.4859	513.0075	567.4059	606.0926	667.5948	788.436	907.2212	939.1862	952.3592	963.242	1027.6853	1092.1021	1112.5246	1133.3928	1159.2244	1165.4673	1186.1924	1207.2962	1228.1266	1240.242	1253.9875	1281.3278	1314.5458	1337.9519	1391.0399	1418.8808	1474.2853	1480.0667	1485.566	1502.7265	1515.624	1527.2011	1853.3833	2951.0849	2963.8162	2971.8978	2974.5317	3003.4395	3019.3428	3031.1905	3086.2286	3117.8181	3128.158
COCC1COCC1=O	COC[C@H]1COCC1=O	
InChI=1S/C6H10O3/c1-8-2-5-3-9-4-6(5)7/h5H,2-4H2,1H3	InChI=1S/C6H10O3/c1-8-2-5-3-9-4-6(5)7/h5H,2-4H2,1H3/t5-/m0/s1
