14
gdb 131209	3.24021	1.39885	0.9785	5.2636	71.2	-0.2037	-0.0246	0.1791	1105.8303	0.102485	-470.014421	-470.006721	-470.005776	-470.046366	29.77	
O	 0.056976342	 1.3230991798	 0.0932574971	-0.424441
C	-0.0178936597	-0.029305343	 0.0235832429	 0.4697
C	-1.1953979902	-0.6935941785	 0.0190109784	-0.267466
C	-1.2115270134	-2.1381807218	 0.0040826436	 0.239599
N	-2.2942710656	-2.8323145564	 0.0024639422	-0.55305
C	 0.1559124889	-2.7132194146	-0.0228495534	 0.38108
O	 0.2105487843	-4.0588330669	-0.0370122992	-0.40597
N	 1.266132219	-2.0605200926	-0.0229812263	-0.324815
N	 1.1803227118	-0.6927409454	-0.0496022314	-0.337366
H	 0.8056455685	 1.6348149026	-0.429366041	 0.304169
H	-2.127523021	-0.1467683389	 0.0060187222	 0.123463
H	-2.0674541603	-3.8269073116	-0.02454974	 0.22379
H	 1.1441995957	-4.3104362274	-0.0510883406	 0.305401
H	 2.0151360201	-0.2410745953	 0.2908386556	 0.265906
114.6225	191.5912	264.0235	340.0281	358.5796	373.537	417.6775	437.1513	471.4822	520.7434	541.1311	603.6134	650.7666	721.128	756.1938	808.7804	854.407	888.3319	1015.9007	1105.3554	1159.6938	1199.8041	1241.9267	1283.9569	1345.6863	1394.6248	1446.8061	1522.42	1652.5975	1685.8646	1708.7765	3238.8808	3478.9489	3622.8078	3774.9725	3792.9185
OC1=CC(=N)C(O)=NN1	O[C@H]1C=C([NH])C(=NN1)O	
InChI=1S/C4H5N3O2/c5-2-1-3(8)6-7-4(2)9/h1H,(H,7,9)(H3,5,6,8)	InChI=1S/C4H6N3O2/c5-2-1-3(8)6-7-4(2)9/h1,3,5-6,8H,(H,7,9)/t3-/m0/s1
