15
gdb 84343	3.1147	1.3095	1.0109	2.2229	72.69	-0.2548	-0.0363	0.2185	1137.7868	0.110545	-420.605947	-420.597548	-420.596604	-420.639264	31.225	
O	 0.553687813	 1.2946677456	-0.3157390665	-0.438978
C	 0.1835287625	-0.0222505722	 0.0073562608	 0.019643
C	 0.7440296962	-0.5356347066	 1.3068183488	-0.101062
C	-0.1653033841	-1.1946431251	 2.0256569676	-0.071996
C	-1.5398870246	-1.2132711207	 1.3715815184	-0.348709
C	-2.6614530558	-0.9451910426	 2.2563860964	 0.337865
C	-3.5792147938	-0.7196573772	 2.9973915455	-0.439734
C	-1.3287962387	-0.1513764706	 0.2591833492	 0.35455
O	-2.1536595805	 0.5475704614	-0.2588820471	-0.300475
H	-0.2317818179	 1.7080022885	-0.7009617488	 0.296911
H	 0.4494255869	-0.7099384688	-0.8189576298	 0.100395
H	 1.7837785669	-0.3973654561	 1.5763156231	 0.121683
H	 0.0067125982	-1.6817421923	 2.9772483491	 0.122913
H	-1.7082960302	-2.1773333144	 0.8636665749	 0.143435
H	-4.3941820579	-0.515803289	 3.6471113482	 0.20356
53.2319	126.5392	164.689	254.9561	280.9875	328.5361	385.5138	427.5929	469.5666	564.0103	623.2831	636.4189	652.312	673.164	731.5722	751.8414	908.2215	945.8663	978.771	993.5582	1019.7344	1101.1439	1127.7109	1167.5822	1189.203	1221.9062	1288.2319	1334.1055	1369.2382	1410.3745	1671.9952	1861.6291	2244.1675	2911.7872	2972.6469	3204.8526	3226.6911	3504.2246	3745.5757
OC1C=CC(C#C)C1=O	O[C@H]1C=C[C@@H](C#C)C1=O	
InChI=1S/C7H6O2/c1-2-5-3-4-6(8)7(5)9/h1,3-6,8H	InChI=1S/C7H6O2/c1-2-5-3-4-6(8)7(5)9/h1,3-6,8H/t5-,6+/m1/s1
