17
gdb 55157	3.04195	1.46814	1.30685	3.0592	67.52	-0.2371	0.0275	0.2646	1015.4629	0.137209	-455.122798	-455.115018	-455.114074	-455.155373	30.318	
N	-0.1744445965	 1.2207804336	-0.208312578	-0.518326
C	-0.1081349915	-0.1529174665	-0.2434995036	 0.295465
N	 0.9381672226	-0.7815487366	-0.6083903305	-0.511948
C	-1.3834780151	-0.8116165812	 0.3088177855	 0.121278
O	-2.5492853539	-0.216461486	-0.2642931564	-0.273768
C	-3.0749909081	-1.1310097468	-1.1969341575	 0.065663
C	-2.164722231	-1.6546709496	-2.2923152356	-0.363254
C	-2.3506717755	-2.4167911578	-0.9964708123	 0.069598
O	-1.4168259246	-2.1966388497	 0.0369058207	-0.255887
H	 0.5819451503	 1.6884677596	-0.6864532392	 0.256004
H	-1.0908262988	 1.6138193522	-0.3641633046	 0.260507
H	 0.781681388	-1.7825005052	-0.4890777003	 0.2254
H	-1.4239094628	-0.6608861428	 1.3952174	 0.121479
H	-4.1435849527	-1.0202675885	-1.3287980569	 0.117817
H	-2.6547587507	-2.0644422121	-3.1698809826	 0.12248
H	-1.2139406496	-1.1691258519	-2.4781753043	 0.149071
H	-2.7972748201	-3.4012672107	-0.9473916744	 0.118419
65.9812	104.0971	215.5176	323.948	331.383	438.0475	468.3997	479.9195	544.0801	588.5245	666.7497	740.8629	757.4191	773.3794	795.9469	876.6142	923.0904	930.4826	975.424	990.9947	1000.375	1070.3068	1078.7168	1093.8701	1127.2515	1138.2011	1167.8025	1171.3914	1209.4043	1294.4956	1346.5241	1359.0694	1380.4022	1440.108	1467.3281	1618.5015	1737.9329	3030.582	3135.8501	3195.6174	3204.2853	3233.3261	3486.5028	3566.8581	3682.1826
NC(=N)C1OC2CC2O1	NC(=N)[C@H]1O[C@H]2C[C@H]2O1	
InChI=1S/C5H8N2O2/c6-4(7)5-8-2-1-3(2)9-5/h2-3,5H,1H2,(H3,6,7)	InChI=1S/C5H8N2O2/c6-4(7)5-8-2-1-3(2)9-5/h2-3,5H,1H2,(H3,6,7)/t2-,3+,5-
