16
gdb 76391	2.12094	1.5489	1.33679	4.4849	62.33	-0.2292	0.0031	0.2323	1032.0888	0.122585	-512.166363	-512.157424	-512.15648	-512.199381	34.397	
N	 0.0511145721	 1.2315146675	 0.1599298063	-0.536651
C	 0.0479334464	-0.0999378057	-0.0539651081	 0.412614
O	 1.0835752182	-0.7544812921	-0.2525723778	-0.445831
C	-1.2829109307	-0.7550843951	-0.0412761706	 0.111445
O	-2.3908674359	 0.0736589851	 0.1910402465	-0.463033
C	-1.4257855058	-2.0240982074	-0.9157159324	 0.019453
O	-0.4431734805	-2.4053275686	-1.8056391298	-0.423161
C	-1.3052548721	-2.1772867865	 0.5725743502	 0.064153
O	-0.2014403149	-2.7211268633	 1.1927991308	-0.421303
H	 0.9342143253	 1.7041904125	 0.2595104844	 0.270538
H	-0.8027432447	 1.6789234259	 0.4507682021	 0.274092
H	-2.7561018048	 0.3319978232	-0.6636934052	 0.291883
H	-2.4212960026	-2.1563366364	-1.3331859447	 0.114189
H	 0.3979117509	-2.0411032542	-1.4780212669	 0.303559
H	-2.2213481585	-2.3888188267	 1.1156577336	 0.12653
H	 0.5884388774	-2.331565818	 0.7825069016	 0.301522
100.1417	177.5487	187.7843	265.1639	272.4329	316.355	326.9822	392.6801	403.9017	436.8501	482.8775	488.473	581.9843	638.8131	646.7811	674.9634	700.7117	787.7878	827.6974	852.6537	959.6503	1070.2574	1093.2692	1138.9729	1154.314	1198.8793	1248.8932	1310.2453	1338.3115	1367.1916	1428.6704	1434.6093	1500.0197	1592.1984	1707.811	3141.2309	3168.1555	3594.7948	3620.5801	3666.6389	3732.8106	3778.7052
NC(=O)C1(O)C(O)C1O	NC(=O)[C@@]1(O)[C@@H](O)[C@H]1O	
InChI=1S/C4H7NO4/c5-3(8)4(9)1(6)2(4)7/h1-2,6-7,9H,(H2,5,8)	InChI=1S/C4H7NO4/c5-3(8)4(9)1(6)2(4)7/h1-2,6-7,9H,(H2,5,8)/t1-,2+,4+
