17
gdb 47532	2.69761	1.80432	1.33167	3.824	67.6	-0.2606	0.0002	0.2608	961.9539	0.138385	-458.976138	-458.969138	-458.968194	-459.007622	27.655	
O	-0.032323965	-0.036744533	-0.3883282954	-0.314337
C	-0.0357289168	 1.1005325076	-0.0060036757	 0.395843
O	-1.2321691626	 1.6785935374	 0.3207124847	-0.23799
C	-1.3334442958	 2.7819934959	 1.2269674578	 0.018884
O	-0.7639442613	 3.9747561195	 0.8042848466	-0.252369
C	 0.6422674254	 3.9818484159	 0.5683321973	 0.126044
C	 0.9886854394	 3.3020512848	-0.7807145074	-0.23659
C	 1.2094449998	 1.9676277922	 0.007077884	-0.131839
C	 1.4369148779	 2.8526731764	 1.2725985902	-0.288812
H	-2.404432484	 2.9711151266	 1.3065663948	 0.136541
H	-0.943251989	 2.4637360241	 2.201471493	 0.107698
H	 0.960925264	 5.0137480456	 0.7243751221	 0.091512
H	 0.2118112258	 3.3254983725	-1.5461027139	 0.126649
H	 1.9312758171	 3.6686997584	-1.193651998	 0.113607
H	 2.0347232669	 1.3293040833	-0.3036370175	 0.104648
H	 2.4912661331	 3.1331807036	 1.3285079078	 0.121199
H	 1.1293807352	 2.4956349591	 2.2562501997	 0.119312
95.9852	190.9066	278.538	359.6803	390.8834	430.074	444.7578	509.2962	683.1941	730.2999	746.9859	789.877	821.7157	879.3558	922.2202	941.8831	990.3109	995.0105	1036.1671	1072.9998	1081.8278	1107.068	1165.1014	1169.5921	1188.1805	1255.2064	1271.9338	1278.6653	1284.0818	1316.6676	1341.5286	1387.1158	1454.6008	1463.1819	1491.3597	1526.6581	1842.1395	3024.7711	3074.0528	3078.5067	3100.2168	3127.0202	3129.7766	3133.249	3141.1478
O=C1OCOC2CC1C2	O=C1OCO[C@@H]2C[C@H]1C2	
InChI=1S/C6H8O3/c7-6-4-1-5(2-4)8-3-9-6/h4-5H,1-3H2	InChI=1S/C6H8O3/c7-6-4-1-5(2-4)8-3-9-6/h4-5H,1-3H2/t4-,5+
