23
gdb 52784	2.86527	0.85698	0.74719	0.098	96.11	-0.2354	0.0612	0.2967	1674.1194	0.203444	-351.136036	-351.125231	-351.124287	-351.173397	39.225	
C	-0.0378749057	 1.5018811018	-0.0105474963	-0.500997
C	 0.0026631031	 0.0460762799	-0.0141468739	 0.100935
C	 0.0351237425	-1.1589846638	-0.0157919855	-0.011692
C	 0.070098295	-2.6131428899	-0.0132358425	 0.150364
C	 1.0579969285	-3.1392778277	-1.0666113926	-0.44175
C	 0.2737506472	-3.2992866622	 1.3845443228	-0.263991
C	-0.8690322594	-4.2965135176	 1.0487562038	 0.054803
C	-1.8695670287	-4.6451981115	 2.1400795174	-0.412009
C	-1.3197305783	-3.34020592	-0.089449541	-0.263992
H	 0.6455965592	 1.9232122517	-0.7564083331	 0.144733
H	-1.0432477791	 1.874388927	-0.2377051069	 0.144511
H	 0.2500792441	 1.9073972739	 0.966067071	 0.14451
H	 2.0691870012	-2.772621743	-0.8652352274	 0.120394
H	 1.0842742305	-4.2339949939	-1.0646243224	 0.11016
H	 0.7688834121	-2.806017592	-2.0680331107	 0.120395
H	 1.2689806761	-3.7061209795	 1.5842117534	 0.09499
H	-0.0028648448	-2.6258301394	 2.2000093424	 0.102356
H	-0.4549479685	-5.2185196079	 0.6266999758	 0.070452
H	-2.3006192122	-3.7389690117	 2.5809160447	 0.112514
H	-2.6949924148	-5.2490932456	 1.7462178397	 0.112983
H	-1.3964372125	-5.2157465721	 2.9473997194	 0.112983
H	-2.129658037	-2.6804448589	 0.2326938498	 0.102357
H	-1.5845020685	-3.7793956473	-1.0553027279	 0.09499
14.5835	60.6208	105.771	132.9752	229.434	246.9549	268.7209	286.2268	288.4717	315.6307	373.91	406.3206	467.9615	537.8061	552.0462	700.8667	833.281	854.335	865.5574	898.7655	914.849	946.5869	959.9489	1043.8597	1053.4052	1055.4297	1070.3707	1110.555	1129.0062	1169.7153	1187.7654	1234.9504	1236.1852	1269.3437	1289.8938	1321.3993	1375.3962	1406.3449	1411.6993	1415.0466	1471.7241	1479.2199	1479.6539	1490.078	1491.6041	1495.5722	1496.8374	1500.8901	2361.9933	3020.8005	3022.6048	3031.0587	3039.2047	3049.9076	3055.4132	3081.3936	3082.0637	3088.0083	3089.7356	3102.9363	3106.6898	3109.8698	3112.3214
CC#CC1(C)CC(C)C1	CC#C[C@@]1(C)C[C@@H](C)C1	
InChI=1S/C9H14/c1-4-5-9(3)6-8(2)7-9/h8H,6-7H2,1-3H3	InChI=1S/C9H14/c1-4-5-9(3)6-8(2)7-9/h8H,6-7H2,1-3H3/t8-,9+
