19
gdb 116715	4.18063	0.86601	0.78178	3.3429	79.11	-0.2314	0.0164	0.2478	1489.7958	0.158897	-419.143233	-419.134278	-419.133333	-419.178034	32.033	
C	 0.1745750384	 0.8720101705	 0.530845314	-0.249856
O	-0.4444033006	 0.107346419	-0.4964735225	-0.191553
C	-1.2728091239	-0.8689184296	-0.076680288	 0.132526
N	-1.8109026063	-1.6472145933	-0.906105016	-0.243565
C	-2.7269513674	-2.6532735106	-0.4293969316	 0.035252
C	-2.4089799395	-4.1402857853	-0.7525889266	-0.175502
N	-2.6650109517	-4.5598794612	 0.6728103042	-0.123924
C	-1.6382155789	-3.871081226	 1.4672215897	-0.237417
C	-2.821331195	-3.0917647434	 1.0411726964	-0.077354
H	 0.7394090091	 1.6591965959	 0.0302521862	 0.147537
H	-0.5682716446	 1.3309888576	 1.1947088623	 0.126935
H	 0.8627433794	 0.2606852203	 1.1273236715	 0.127559
H	-1.421119124	-0.9049079184	 1.0123743261	 0.080955
H	-3.7227392858	-2.4061201863	-0.8118078006	 0.098417
H	-3.1186983456	-4.6176813198	-1.4298136245	 0.112871
H	-1.3881582106	-4.340337325	-1.0917165654	 0.110424
H	-1.6066537361	-4.1999856386	 2.5016577802	 0.119657
H	-0.6649382576	-3.6829683609	 1.0186615211	 0.114952
H	-3.5816078192	-2.770745555	 1.7468687336	 0.092088
47.8194	86.2061	112.2724	155.3747	182.1645	254.8642	339.912	389.0004	453.949	515.9712	649.235	717.3212	757.8942	780.2266	888.4599	955.3756	976.5643	991.4881	1006.0754	1053.1312	1068.6224	1078.9919	1107.4661	1121.3566	1128.917	1176.6918	1184.3357	1202.731	1220.9618	1255.0192	1280.0702	1291.6781	1361.4318	1368.6346	1405.2891	1484.5818	1489.8535	1494.2256	1501.2597	1510.5944	1769.7887	3006.266	3019.5465	3049.8756	3058.2398	3076.5709	3103.5251	3125.048	3145.2746	3152.3296	3195.16
COC=NC1CN2CC12	COC=N[C@H]1CN2C[C@@H]12	
InChI=1S/C6H10N2O/c1-9-4-7-5-2-8-3-6(5)8/h4-6H,2-3H2,1H3	InChI=1S/C6H10N2O/c1-9-4-7-5-2-8-3-6(5)8/h4-6H,2-3H2,1H3/t5-,6-,8?/m0/s1
