19
gdb 71293	2.6555	1.95426	1.47356	1.6796	73.59	-0.2357	0.0875	0.3232	949.6045	0.160781	-422.992916	-422.985675	-422.984731	-423.024107	29.83	
C	 0.0560714571	 1.441766666	 0.0725425593	-0.460163
C	-0.0134065604	-0.0659629328	-0.0207571415	 0.401349
C	 0.2061993488	-0.690351422	-1.4467183171	-0.304741
C	-1.0763916805	-1.5022353929	-1.2704861002	-0.120491
C	-1.1800075708	-2.1695994471	 0.0803519506	 0.127386
O	-0.151647291	-2.7261228137	 0.8541095619	-0.269256
C	 1.0344374766	-1.9639619312	 0.9421013349	 0.017885
O	 0.8307357286	-0.5800816999	 1.0141139555	-0.298478
C	-1.4167065248	-0.7054672481	 0.0191767699	-0.154071
H	 1.0726483901	 1.7914205539	-0.1317525725	 0.123685
H	-0.627375272	 1.9032624356	-0.6456730791	 0.116755
H	-0.2231629605	 1.7678834115	 1.0791371808	 0.12841
H	 0.0803685207	 0.0881927499	-2.2037854301	 0.105694
H	 1.1393822678	-1.2199168071	-1.6534113638	 0.103512
H	-1.7416043692	-1.7884886698	-2.077297333	 0.087437
H	-2.0629337666	-2.7903154082	 0.1924708663	 0.107004
H	 1.5218034219	-2.2565937638	 1.8756865897	 0.116104
H	 1.6926320966	-2.2143854115	 0.0954046795	 0.08727
H	-2.3275564526	-0.211134119	 0.336169289	 0.084708
144.6975	232.963	262.4396	307.5298	357.4918	424.8048	443.5596	536.58	558.8749	627.6796	713.6175	778.7162	791.9353	832.7318	888.5031	899.2002	924.3191	958.0474	985.0207	1003.1556	1035.8413	1046.8077	1072.6889	1091.8634	1128.3588	1157.2562	1169.3782	1187.3857	1234.2996	1244.3641	1256.6053	1290.6327	1320.786	1356.8849	1409.1296	1419.2516	1462.302	1481.5254	1491.4626	1493.6248	1531.1296	2971.5898	3039.4843	3058.6844	3092.2001	3103.1246	3113.4819	3119.9576	3167.2717	3170.9598	3184.5452
CC12CC3C(OCO1)C23	C[C@@]12C[C@H]3[C@@H](OCO1)[C@@H]23	
InChI=1S/C7H10O2/c1-7-2-4-5(7)6(4)8-3-9-7/h4-6H,2-3H2,1H3	InChI=1S/C7H10O2/c1-7-2-4-5(7)6(4)8-3-9-7/h4-6H,2-3H2,1H3/t4-,5+,6-,7+/m1/s1
