20
gdb 61873	4.01855	0.70505	0.68435	1.191	77.26	-0.2379	-0.038	0.1999	1670.316	0.166254	-440.292126	-440.281285	-440.280341	-440.32963	36.976	
C	 0.3566473015	 1.3903145846	-0.5245022816	-0.336811
N	-0.1940172263	 0.18882299	 0.0982497497	-0.082408
C	 0.4501097236	-0.0965441554	 1.3694159601	-0.230277
C	 1.8708154413	-0.6056056441	 1.1664769576	 0.151966
O	 2.7656148619	-0.4573010925	 1.9549031795	-0.233207
C	-1.6484762495	 0.2449160243	 0.1741954289	-0.239916
C	-2.3306160481	 0.0780712288	-1.1924792826	 0.365454
C	-1.826801345	-1.0471857077	-2.0740219123	-0.467551
O	-3.2551512585	 0.7896252939	-1.5065413601	-0.289489
H	 1.4392409782	 1.288777746	-0.6467862767	 0.13172
H	-0.0811338604	 1.5336011321	-1.5165112168	 0.135135
H	 0.1625450013	 2.3015315024	 0.0691341328	 0.112682
H	 0.4733484789	 0.7532738232	 2.0735639209	 0.113384
H	-0.0937010498	-0.9120291993	 1.8662801903	 0.129491
H	 2.0051581118	-1.1668583935	 0.2132764781	 0.08525
H	-1.9948376415	-0.588015764	 0.800377316	 0.11819
H	-2.0319965697	 1.1771473125	 0.621087949	 0.108466
H	-2.0244241506	-2.0088714378	-1.5845710102	 0.138684
H	-2.3381967462	-1.0190261101	-3.0364776561	 0.140497
H	-0.743564063	-0.9854390031	-2.2032427768	 0.148739
41.5154	55.0408	77.0155	99.6102	122.7474	171.4445	236.7709	247.4673	319.1411	366.6067	396.2929	426.237	505.7223	531.9306	605.3978	754.4466	787.8097	858.665	909.6952	1012.7866	1045.1978	1065.7841	1070.9968	1080.1352	1151.9695	1174.3839	1205.8608	1233.3845	1283.4275	1308.5345	1342.6217	1375.6459	1380.5643	1404.4833	1454.5573	1459.6683	1462.3838	1469.783	1484.2504	1491.7854	1505.3616	1819.27	1842.8802	2875.1402	2952.5021	2959.4961	2972.1812	3036.5512	3039.8958	3045.2944	3070.8684	3110.9133	3113.4416	3161.6527
CN(CC=O)CC(C)=O	CN(CC=O)CC(=O)C	
InChI=1S/C6H11NO2/c1-6(9)5-7(2)3-4-8/h4H,3,5H2,1-2H3	InChI=1S/C6H11NO2/c1-6(9)5-7(2)3-4-8/h4H,3,5H2,1-2H3
