15
gdb 45227	3.27566	1.84518	1.47313	4.911	63.44	-0.2574	-0.0131	0.2443	872.8643	0.114812	-457.764958	-457.758807	-457.757863	-457.795544	24.666	
O	 0.0314273888	 0.0099250764	-0.4135671804	-0.327533
C	 0.0392392112	 1.1596139578	-0.0919368963	 0.442331
O	-1.0948772638	 1.8421024003	 0.2479475751	-0.230064
C	-0.8177656385	 3.2148988357	 0.5447498098	 0.083672
C	-0.394355248	 3.4870941399	 2.0189685165	-0.257476
C	 1.0804045238	 3.5302774742	 1.5674632603	 0.109387
O	 1.6478256901	 2.2026181602	 1.4318296959	-0.305995
C	 1.2345851978	 2.1105249418	 0.0411904646	-0.027942
C	 0.6395609816	 3.5189817485	 0.078291638	-0.135672
H	-1.6396812449	 3.8086539922	 0.147594027	 0.105311
H	-0.7466380492	 4.4670897222	 2.3547039243	 0.114622
H	-0.6607190927	 2.7250277749	 2.753307696	 0.130835
H	 1.7771623343	 4.2276441826	 2.034050914	 0.093358
H	 2.0595425466	 1.8470166331	-0.6216546336	 0.109334
H	 0.8484674829	 4.2635358804	-0.6842478014	 0.095833
124.1116	238.1119	344.0785	403.1887	446.7267	622.0428	664.6652	708.6909	742.8105	801.5797	824.7853	865.4754	890.6086	919.2856	935.2628	965.4324	988.367	998.5208	1056.1382	1085.4912	1144.2586	1158.4059	1175.3182	1204.7783	1221.2661	1253.1053	1276.7297	1285.8378	1308.7599	1328.0519	1372.153	1452.5477	1890.044	3062.9662	3105.4492	3111.3661	3124.3939	3134.9658	3160.9648
O=C1OC2CC3OC1C23	O=C1O[C@H]2C[C@H]3O[C@@H]1[C@@H]23	
InChI=1S/C6H6O3/c7-6-5-4-2(8-5)1-3(4)9-6/h2-5H,1H2	InChI=1S/C6H6O3/c7-6-5-4-2(8-5)1-3(4)9-6/h2-5H,1H2/t2-,3+,4-,5-/m1/s1
