12
gdb 131115	3.39327	1.11536	1.04119	3.7991	60.38	-0.3024	-0.0665	0.2359	1119.6223	0.07694	-468.774159	-468.766433	-468.765488	-468.807579	26.946	
O	-0.214516739	 1.335185926	 0.0877644561	-0.393908
C	 0.0285702031	-0.0485094732	-0.0274408118	-0.135138
C	 0.8033817605	-0.3624047388	-1.2523044467	 0.266312
N	 1.4049704434	-0.597956287	-2.2096803489	-0.308539
C	 0.7093338025	-0.6088100299	 1.1890869248	 0.273431
C	 0.4005206652	-1.6219645251	 2.0376201553	-0.046178
O	 1.3232988786	-1.679554002	 2.9911531169	-0.156263
N	 2.2548148805	-0.6284170562	 2.713910121	 0.014842
N	 1.868605354	-0.042519449	 1.6739620961	-0.170281
H	 0.6288234761	 1.7694612473	 0.2703689388	 0.312523
H	-0.953372504	-0.5216007316	-0.1320961095	 0.156104
H	-0.4009479609	-2.3415193407	 2.0769557779	 0.187095
41.2007	103.7791	170.5328	216.3573	308.5625	386.988	431.0861	476.2316	599.4177	622.2987	647.0442	739.0555	782.7455	867.6267	932.5132	985.0484	1038.696	1074.5831	1152.5076	1248.0489	1262.3793	1302.8061	1367.2626	1423.4718	1474.2418	1615.4278	2360.3951	3072.379	3284.4265	3785.7149
OC(C#N)C1=CON=N1	O[C@@H](C#N)c1conn1	
InChI=1S/C4H3N3O2/c5-1-4(8)3-2-9-7-6-3/h2,4,8H	InChI=1S/C4H3N3O2/c5-1-4(8)3-2-9-7-6-3/h2,4,8H/t4-/m0/s1
