18
gdb 35473	3.90082	1.14704	0.9664	4.4092	81.51	-0.2529	-0.0034	0.2496	1209.8368	0.15013	-364.82808	-364.820439	-364.819495	-364.860358	29.849	
N	 0.0664083864	-1.1899313935	 0.1297897267	-0.324135
C	 0.0357533818	-0.0365718267	 0.0615417352	 0.25771
C	-0.009811063	 1.4259138067	-0.0110604028	-0.185662
C	-0.8044548657	 2.006340829	 1.1915229009	-0.228814
C	-0.735546497	 3.5301907516	 1.2245753835	-0.052614
C	 0.1650063926	 4.2187238066	 2.2229799234	-0.287617
C	 0.5454826511	 4.1811261419	 0.7563805059	-0.05841
C	 1.6228014148	 3.2835514825	 0.2738321816	-0.092117
C	 1.3896353354	 2.0217873384	-0.0845820602	-0.05315
H	-0.5482206842	 1.6762260167	-0.9370676345	 0.137214
H	-1.8438033091	 1.670805713	 1.1364675005	 0.119869
H	-0.3842431764	 1.5797425905	 2.107059649	 0.125282
H	-1.6581852811	 4.042227499	 0.9726305606	 0.09239
H	-0.1544548675	 5.1671187809	 2.640961325	 0.116159
H	 0.7282669346	 3.5893056294	 2.9041726414	 0.120178
H	 0.4593475853	 5.125738619	 0.2257304224	 0.098063
H	 2.6295416289	 3.6882855308	 0.204012758	 0.100749
H	 2.1862663432	 1.3806213944	-0.4461372264	 0.114904
80.7341	154.3964	184.9262	271.0977	367.8074	414.5222	470.5757	503.805	556.6884	594.0112	710.4186	736.9313	794.8087	817.9012	859.6342	901.7888	946.4918	987.2432	994.2666	1010.4636	1037.3306	1060.7502	1087.6214	1097.3997	1124.8629	1135.5996	1204.9469	1220.5747	1242.6094	1288.2231	1306.7114	1340.4237	1379.2612	1402.0949	1421.3848	1479.596	1494.1796	1708.3999	2358.0352	3000.3883	3056.0602	3098.2684	3129.8755	3136.9864	3155.3212	3160.8531	3193.2739	3220.0606
N#CC1CC2CC2C=C1	N#C[C@H]1C[C@H]2C[C@H]2C=C1	
InChI=1S/C8H9N/c9-5-6-1-2-7-4-8(7)3-6/h1-2,6-8H,3-4H2	InChI=1S/C8H9N/c9-5-6-1-2-7-4-8(7)3-6/h1-2,6-8H,3-4H2/t6-,7-,8+/m1/s1
