21
gdb 91068	3.47817	1.28248	1.20331	1.7426	80.84	-0.2488	0.0838	0.3326	1136.7171	0.184256	-387.068089	-387.060414	-387.05947	-387.100068	31.232	
C	-0.0855063931	 1.5540958886	 0.008499703	-0.404726
C	 0.0820321503	 0.0362089556	 0.0081895428	 0.059781
C	 0.911974849	-0.5154737533	-1.1783269969	-0.238646
C	 1.3146958732	-1.9301627236	-0.7346126451	-0.046819
C	 2.8103181455	-2.29439074	-0.6139299627	 0.00944
O	 3.4433278849	-1.2651639433	 0.1575211224	-0.240695
C	 2.7419807617	-2.3021478491	 0.856048019	 0.009434
C	 1.2414078747	-1.9385664255	 0.8412480403	-0.04682
C	 0.79849187	-0.5284971475	 1.2606967175	-0.238645
H	 0.88972612	 2.0523948661	 0.0565357032	 0.116927
H	-0.5930793616	 1.9003003194	-0.8983304316	 0.109332
H	-0.6752586054	 1.8908686121	 0.8679212661	 0.109332
H	-0.9158936784	-0.424375537	-0.0407016382	 0.065893
H	 0.3524222813	-0.4974560104	-2.1182915766	 0.088747
H	 1.8073363295	 0.102475412	-1.3083308624	 0.10929
H	 0.7286776937	-2.7253205881	-1.200954296	 0.071101
H	 3.4409635373	-2.8494009862	-1.2994822827	 0.098967
H	 3.306578669	-2.8646614213	 1.5912625163	 0.098969
H	 0.615050373	-2.7383691073	 1.2426976038	 0.071106
H	 1.677597612	 0.0876002309	 1.4798539327	 0.109286
H	 0.1540707234	-0.5202332322	 2.1447839352	 0.088746
100.1391	166.5305	236.3529	281.1775	285.5185	411.845	451.1133	506.6712	610.4482	639.0948	702.6879	818.3703	828.3764	830.2996	865.2172	875.323	918.6614	920.6367	923.6886	956.9249	1003.0434	1026.3189	1043.9428	1055.4922	1069.2673	1128.0459	1146.9691	1157.4226	1172.9843	1231.251	1234.6458	1264.3622	1270.5225	1274.8367	1301.0206	1336.7394	1337.4028	1352.8724	1379.4869	1391.2121	1409.992	1478.0152	1489.7725	1497.2477	1499.4342	2990.9922	3024.2449	3041.8491	3045.7058	3074.4427	3081.9386	3091.775	3092.7127	3093.9251	3101.4844	3171.455	3187.1515
CC1CC2C3OC3C2C1	C[C@H]1C[C@H]2[C@H]3O[C@H]3[C@H]2C1	
InChI=1S/C8H12O/c1-4-2-5-6(3-4)8-7(5)9-8/h4-8H,2-3H2,1H3	InChI=1S/C8H12O/c1-4-2-5-6(3-4)8-7(5)9-8/h4-8H,2-3H2,1H3/t4-,5+,6-,7+,8-
