22
gdb 113058	2.41097	1.02259	0.79611	2.4636	84.17	-0.2394	-0.0218	0.2176	1545.9888	0.192699	-404.357036	-404.346806	-404.345862	-404.392979	36.939	
C	-0.2763785647	 1.4666584248	 0.0868678523	-0.386938
C	-0.0135297999	-0.0366304702	-0.0323890174	-0.16488
C	 0.8400236462	-0.574651778	 1.111299157	-0.082145
N	 0.1871861098	-0.6058258797	 2.4550732987	-0.339614
C	 0.5579767852	-2.0327262567	 2.6987285417	-0.082145
C	-0.5772101261	-2.9506333841	 3.1401362997	-0.16488
C	-1.0702685651	-2.6374144384	 4.5550487469	-0.386938
C	 1.0112767875	-2.0985863919	 1.2303737993	 0.374246
O	 1.3055226651	-2.9773969835	 0.4754541914	-0.302584
H	 0.6585479939	 2.03799884	 0.0577477185	 0.110463
H	-0.9110087799	 1.8234402495	-0.7298425425	 0.1166
H	-0.7825456767	 1.6943776655	 1.030342891	 0.126849
H	-0.9649050821	-0.5804318299	-0.0426634722	 0.10338
H	 0.496934386	-0.2661221084	-0.9754825704	 0.110131
H	 1.824434563	-0.0789502906	 1.1108066954	 0.089395
H	 0.5905951817	 0.041570056	 3.1213906546	 0.222241
H	 1.4228706173	-2.1548803803	 3.3709055536	 0.089395
H	-1.4038475419	-2.8496011605	 2.4278137419	 0.10338
H	-0.2227014882	-3.9863558615	 3.0748067304	 0.110131
H	-0.2717849802	-2.771418663	 5.2938534301	 0.110463
H	-1.4202411518	-1.6022428569	 4.6194313058	 0.126849
H	-1.9003974495	-3.2912694326	 4.8386404645	 0.1166
53.7121	87.3781	95.9315	130.7408	163.5608	229.3693	243.8096	293.0972	297.7	399.7286	411.3651	566.675	595.4551	649.4306	748.6144	778.6207	811.8135	848.7631	893.2585	959.3407	976.1025	987.8696	1028.272	1043.6685	1078.9174	1084.763	1115.955	1132.954	1180.2483	1180.8834	1265.7621	1268.4668	1290.6155	1316.3614	1351.6891	1365.5018	1372.7331	1397.3711	1407.755	1410.2131	1475.5637	1477.9171	1497.6552	1498.0916	1508.9425	1509.2907	1905.2877	2972.7388	2976.6442	3030.9111	3031.2386	3034.7855	3035.7357	3072.0912	3073.201	3100.8802	3101.4137	3109.8573	3110.0893	3548.3581
CCC1NC(CC)C1=O	CC[C@H]1N[C@@H](CC)C1=O	
InChI=1S/C7H13NO/c1-3-5-7(9)6(4-2)8-5/h5-6,8H,3-4H2,1-2H3	InChI=1S/C7H13NO/c1-3-5-7(9)6(4-2)8-5/h5-6,8H,3-4H2,1-2H3/t5-,6+
