17
gdb 56925	2.26262	1.21458	0.95545	1.1564	80.25	-0.2642	0.0158	0.28	1281.3856	0.131965	-384.59876	-384.589167	-384.588222	-384.633535	35.184	
C	-0.3169345622	 1.30681515	 0.1012171333	-0.394725
C	 0.1900396901	-0.1115567133	-0.2334903171	-0.197935
C	 1.0247764057	-0.121811528	-1.4333171421	 0.325241
C	 1.7333873062	-0.1137168369	-2.4040951474	-0.47316
C	 0.9704694028	-0.6834203322	 0.9416888594	 0.08248
O	 0.2213117203	-0.9940806234	 2.1091136634	-0.24778
C	 0.8340434397	-2.085439774	 1.3919379618	-0.158665
C	-0.0384593487	-3.0276308639	 0.7451773322	 0.341709
C	-0.7434683967	-3.84323948	 0.2134998532	-0.426499
H	 0.5210930326	 1.9877898799	 0.2774148892	 0.125932
H	-0.9104721359	 1.7054716573	-0.7248709098	 0.12877
H	-0.9372206026	 1.2724517597	 1.0005548795	 0.136906
H	-0.6763340632	-0.7626950629	-0.3992308763	 0.12428
H	 2.3472963757	-0.1168526415	-3.2705408568	 0.198458
H	 1.9266954196	-0.1933309487	 1.134117173	 0.107431
H	 1.6813550267	-2.5295491614	 1.91338266	 0.120946
H	-1.3706031001	-4.5596333008	-0.2575180955	 0.20661
44.5672	104.3404	135.1825	199.3281	216.791	243.8868	250.8437	343.7841	428.2124	494.64	527.8913	550.9493	618.937	632.2066	634.9257	649.7846	674.3907	792.2885	842.4395	871.1561	952.6193	993.5412	1055.9388	1076.9145	1101.3943	1151.0637	1176.9882	1276.1883	1287.235	1322.4993	1381.5341	1402.2647	1454.0171	1495.7713	1498.4929	2237.0107	2240.5912	3043.2111	3047.2666	3096.2108	3117.5002	3122.361	3132.4108	3501.8859	3504.6964
CC(C#C)C1OC1C#C	C[C@@H](C#C)[C@H]1O[C@H]1C#C	
InChI=1S/C8H8O/c1-4-6(3)8-7(5-2)9-8/h1-2,6-8H,3H3	InChI=1S/C8H8O/c1-4-6(3)8-7(5-2)9-8/h1-2,6-8H,3H3/t6-,7-,8+/m0/s1
