16
gdb 49485	2.3383	1.8739	1.44995	3.9695	70.26	-0.2432	-0.0474	0.1958	942.3823	0.122731	-437.84087	-437.832906	-437.831962	-437.873482	29.205	
O	-0.5112199775	 0.6103567428	 0.2937674378	-0.269134
C	 0.3993789833	 0.9081343899	-0.4462043495	 0.144889
C	 1.668135538	 1.5838454717	-0.0649089395	-0.081354
C	 1.6909811216	 2.7719572798	 0.8491366798	-0.035195
C	 0.6771347088	 2.6628412626	 1.9876894375	-0.289289
C	 1.4332321791	 1.358720818	 2.3648186093	-0.036665
C	 0.7405474319	 0.0237310234	 2.5280395714	 0.172436
O	 1.2183307786	-1.0218158663	 2.175472604	-0.257103
N	 2.408496962	 1.5103235319	 1.2248189553	-0.138349
H	 0.3195007985	 0.7181045345	-1.5380093485	 0.100844
H	 2.3804914124	 1.6333172905	-0.8839561278	 0.11283
H	 2.2257421093	 3.6710168497	 0.5598580687	 0.113348
H	 0.7836290519	 3.4568974789	 2.7280062642	 0.118385
H	-0.3705853673	 2.5638883552	 1.7009845438	 0.139532
H	 2.0114926293	 1.5079567353	 3.2861227318	 0.124314
H	-0.22509458	 0.080592912	 3.0783453515	 0.080512
93.7332	155.9783	164.5859	197.1471	234.397	305.8093	393.2627	414.2317	616.004	688.9232	725.1362	754.4337	802.676	837.1173	902.5078	925.233	975.1227	1009.3603	1045.5118	1054.1748	1073.1239	1099.1275	1113.6024	1163.5429	1233.5195	1237.463	1268.2269	1329.1133	1340.0516	1405.0795	1412.669	1432.9561	1485.1869	1794.3561	1830.6407	2882.1411	2903.563	3028.2723	3084.4746	3139.6551	3152.9573	3167.6756
O=CC1C2CC(C=O)N12	O=C[C@H]1[C@H]2C[C@@H](C=O)N12	
InChI=1S/C6H7NO2/c8-2-4-1-5-6(3-9)7(4)5/h2-6H,1H2	InChI=1S/C6H7NO2/c8-2-4-1-5-6(3-9)7(4)5/h2-6H,1H2/t4-,5+,6-,7?/m0/s1
