20
gdb 7584	3.0317	1.54533	1.49514	2.4656	70.28	-0.2412	0.0602	0.3014	987.544	0.1753	-386.12003	-386.110879	-386.109935	-386.153681	33.611	
C	 0.1016251628	 1.5024826856	-0.1593843681	-0.425227
C	-0.0447061299	-0.0077525576	 0.0365630814	 0.082025
O	 0.5711877511	-0.4334323866	 1.2516393465	-0.445197
C	-1.4953330967	-0.5034917779	 0.1009001929	 0.319731
C	-2.2971548711	 0.123417519	 1.2367933146	-0.477668
C	-2.182176644	-0.5453814071	-1.2878116884	-0.126316
O	-2.0821536009	-1.9795399565	-1.3538724014	-0.277509
C	-1.5709256683	-2.0487823214	-0.0054097367	-0.112749
H	 1.1589576148	 1.7704564492	-0.266898635	 0.10816
H	-0.4130742942	 1.8406980343	-1.0646214125	 0.121192
H	-0.2992230154	 2.0503829491	 0.6974747535	 0.129644
H	 0.4319031879	-0.5170607897	-0.8180717066	 0.070378
H	 1.4875205308	-0.1403490108	 1.242012064	 0.28298
H	-2.445002476	 1.1974468083	 1.0825845169	 0.113645
H	-3.2873765193	-0.337045304	 1.30764771	 0.114175
H	-1.7820631476	-0.0147690484	 2.1911531017	 0.13779
H	-3.2261612739	-0.2029824634	-1.2885405034	 0.092273
H	-1.6512938829	-0.0577662735	-2.1160427236	 0.093434
H	-0.6163203351	-2.5826657507	 0.0518296416	 0.107608
H	-2.2873193521	-2.5206846578	 0.6798493125	 0.091629
59.6535	95.8375	201.1267	217.2268	250.7653	267.1711	281.5954	323.9884	332.6746	420.9372	487.0845	498.7425	683.6407	818.4302	876.5331	904.1028	925.678	974.6425	989.2523	997.2499	1038.1892	1041.8422	1092.956	1123.3776	1154.5355	1163.5043	1181.6657	1204.005	1257.3468	1307.5565	1324.6697	1380.228	1383.4314	1401.3023	1409.483	1427.9965	1490.5187	1494.1854	1498.7348	1508.5083	1514.9553	1539.3616	2954.8771	2995.0886	3012.7827	3032.2361	3037.6655	3039.2431	3068.8317	3094.6065	3100.8457	3120.9813	3122.7818	3823.2742
CC(O)C1(C)COC1	C[C@@H](O)C1(C)COC1	
InChI=1S/C6H12O2/c1-5(7)6(2)3-8-4-6/h5,7H,3-4H2,1-2H3	InChI=1S/C6H12O2/c1-5(7)6(2)3-8-4-6/h5,7H,3-4H2,1-2H3/t5-/m1/s1
