17
gdb 93201	2.93037	1.32582	0.94201	4.5137	71.31	-0.2342	-0.0597	0.1744	1188.8361	0.137362	-455.173502	-455.165175	-455.164231	-455.206607	31.476	
O	-0.0051829076	 1.4128085847	-0.1003754616	-0.42191
C	 0.074434935	 0.0015610627	-0.0191403125	 0.092154
C	 0.7023811982	-0.4541293718	 1.3028643419	-0.191107
N	 0.6974144132	-1.9030645897	 1.3747385056	-0.329174
C	-0.3904026246	-2.6787957756	 1.0485967563	 0.273429
N	-0.4780778066	-3.8969036387	 1.4192712413	-0.514663
C	-1.4567672299	-2.0215229557	 0.166944113	 0.33447
O	-2.3645416537	-2.6935113895	-0.2607789855	-0.304039
C	-1.3524703393	-0.5321730322	-0.1054649553	-0.310978
H	 0.8843870136	 1.7634187016	-0.2116947878	 0.289303
H	 0.6703067997	-0.4113246744	-0.8477124655	 0.089141
H	 1.74093282	-0.1111372721	 1.3618802573	 0.1057
H	 0.152004524	 0.0233942448	 2.1297183512	 0.112697
H	 1.3307462694	-2.3463086923	 2.0243382911	 0.252574
H	-1.3271666507	-4.2907194767	 1.0088300759	 0.236246
H	-1.9463638397	-0.020475268	 0.6665229555	 0.146241
H	-1.820601291	-0.3083376771	-1.0666619611	 0.139915
79.9892	95.7352	218.5879	287.7725	313.7596	355.669	382.3509	399.7516	428.1642	476.6182	569.1401	598.9764	651.0789	707.8379	750.7234	873.9916	901.9851	927.507	1023.7353	1061.9972	1093.6845	1105.0131	1165.9853	1178.6482	1214.8588	1236.8558	1289.9967	1307.5655	1325.0613	1388.7051	1428.5753	1441.3078	1452.0574	1473.6547	1518.733	1707.2282	1813.2238	2972.1374	2989.9385	3019.3677	3064.1151	3111.5919	3466.8705	3605.3075	3818.8758
OC1CNC(=N)C(=O)C1	O[C@H]1CN[C]([NH])C(=O)C1	
InChI=1S/C5H8N2O2/c6-5-4(9)1-3(8)2-7-5/h3,8H,1-2H2,(H2,6,7)	InChI=1S/C5H8N2O2/c6-5-4(9)1-3(8)2-7-5/h3,8H,1-2H2,(H2,6,7)/t3-/m1/s1
