19
gdb 85520	2.42109	1.591	1.07166	2.2351	74.99	-0.2401	-0.0151	0.225	1139.3272	0.159471	-423.048702	-423.040476	-423.039531	-423.081749	31.523	
C	-0.1792485325	 1.5161428244	 0.0494033953	-0.402793
C	 0.0278211215	-0.0043772162	 0.026056952	-0.027016
C	 0.7475593027	-0.4527263732	-1.2640210645	-0.307371
C	 1.0474201566	-1.9402086506	-1.2714673366	 0.372415
O	 0.7240667258	-2.6679060449	-2.1804727372	-0.306803
C	 1.7979610128	-2.4844304137	-0.055227	-0.336307
C	 1.6521687898	-1.6603209536	 1.2073537641	 0.026679
O	 2.2202866222	-0.3437064155	 1.1924299092	-0.259293
C	 0.7925535336	-0.4690854664	 1.2509172972	 0.062717
H	 0.7850479887	 2.0347441723	 0.0532629489	 0.132606
H	-0.7418293965	 1.8485958391	-0.8282572174	 0.119819
H	-0.7332960614	 1.825495102	 0.9417333257	 0.115772
H	-0.9582577372	-0.4897994418	 0.0621759067	 0.090447
H	 0.1558605976	-0.2137452992	-2.1503966666	 0.117608
H	 1.7026457681	 0.0837243451	-1.326367002	 0.134165
H	 1.4604825282	-3.5114921615	 0.1138312151	 0.132688
H	 2.862284413	-2.5485762652	-0.3210648305	 0.14482
H	 1.8349579528	-2.2011611029	 2.1360962658	 0.099833
H	 0.3605607643	-0.1764974982	 2.2095092448	 0.090015
63.2374	118.9997	213.3218	254.5538	288.6642	329.7782	391.4303	433.8821	487.8698	555.799	586.0555	664.8883	773.8532	802.1694	821.5994	868.4166	922.4766	940.4412	976.5863	991.6608	1049.242	1061.4992	1092.377	1150.8117	1163.3335	1176.2366	1233.8943	1249.0523	1285.9293	1296.3302	1330.5612	1347.3946	1361.8226	1388.911	1408.7192	1435.788	1458.1639	1479.7312	1496.1512	1501.4322	1816.584	3005.0257	3026.8077	3033.5497	3040.5867	3089.9179	3094.1083	3104.4742	3109.456	3110.7239	3115.5926
CC1CC(=O)CC2OC12	C[C@H]1CC(=O)C[C@H]2O[C@@H]12	
InChI=1S/C7H10O2/c1-4-2-5(8)3-6-7(4)9-6/h4,6-7H,2-3H2,1H3	InChI=1S/C7H10O2/c1-4-2-5(8)3-6-7(4)9-6/h4,6-7H,2-3H2,1H3/t4-,6+,7-/m0/s1
