18
gdb 37780	3.01575	1.89276	1.43597	1.7599	82.27	-0.2195	-0.023	0.1965	934.1158	0.150103	-364.732664	-364.725936	-364.724992	-364.763274	28.233	
C	-0.0142496731	 1.4038355939	 0.2248073311	-0.205149
N	 1.4323386247	 1.5638265237	-0.2147872933	-0.176953
C	 2.314878075	 0.3391772553	 0.0822644987	-0.007198
C	 2.369559553	-0.6268946101	 1.2236940164	-0.074564
C	 1.7436486089	-1.8096964967	 1.2945722681	-0.056429
C	 0.6542887182	-2.2787603158	 0.325864759	-0.316377
C	-0.3470932037	-1.1457734245	 0.2945806345	-0.139744
C	-0.0052750393	-0.0120440807	-0.3041365421	 0.193939
C	 1.3164957951	 0.2733593784	-0.993296129	-0.15423
H	-0.2062719609	 1.5346366344	 1.2952054057	 0.108002
H	-0.5891078607	 2.1407414562	-0.3452639539	 0.116759
H	 3.3138789762	 0.6467967905	-0.2250701884	 0.105989
H	 3.0943645493	-0.3820781102	 1.9971095598	 0.09158
H	 1.9742904897	-2.4664686097	 2.1299431588	 0.09476
H	 1.0809750264	-2.4553613037	-0.6683762871	 0.127151
H	 0.2214957641	-3.2233102784	 0.6638295061	 0.104108
H	-1.1354348947	-1.1501701569	 1.0443888968	 0.094195
H	 1.5307246717	 0.2197263943	-2.0569645113	 0.094162
184.9891	238.6762	311.8663	347.8257	431.1968	445.8228	489.984	624.9021	666.5231	715.9186	756.7275	776.4406	798.9162	863.0742	881.1869	903.8321	939.7095	954.3922	979.7299	996.9304	1016.0987	1054.8655	1063.2324	1076.6537	1105.5064	1152.7742	1199.6852	1222.6268	1251.1232	1278.1873	1304.1958	1305.6126	1355.8372	1403.1059	1416.5241	1482.5986	1494.6966	1680.8198	1747.3154	3034.7408	3041.0167	3085.9003	3096.4512	3110.5155	3140.3046	3142.8994	3150.6953	3165.0474
C1N2C3C=CCC=C1C23	C1N2[C@H]3C=CC[CH][C]1[C@@H]23	
InChI=1S/C8H9N/c1-2-4-7-8-6(3-1)5-9(7)8/h2-4,7-8H,1,5H2	InChI=1S/C8H9N/c1-2-4-7-8-6(3-1)5-9(7)8/h2-4,7-8H,1,5H2/t7-,8+,9?/m0/s1
