19
gdb 121014	2.96707	1.10536	0.87679	2.7662	78.48	-0.2366	-0.0459	0.1908	1338.6366	0.159006	-423.050205	-423.041199	-423.040255	-423.085155	32.224	
C	 0.8337659361	 0.8187466681	-0.4780201212	-0.241072
O	 1.0414804844	 0.4442655024	 0.8652655301	-0.233035
C	-0.0098274667	-0.3151352608	 1.4259120367	-0.076037
C	 0.0011473065	-1.7918253352	 0.9973137436	-0.132056
C	 1.2639746976	-2.5641278669	 1.4274170637	-0.28167
C	 0.7413604192	-3.6733927195	 2.3049891026	-0.046712
C	-0.5907942698	-3.66234106	 2.4353112883	-0.177392
C	-1.1699723131	-2.5384734256	 1.666772598	 0.37603
O	-2.3365339694	-2.2267040874	 1.5800001465	-0.345187
H	-0.1096704265	 1.3719585468	-0.6019166272	 0.111026
H	 1.6650938602	 1.4687483241	-0.761806523	 0.129004
H	 0.8184546179	-0.0428742412	-1.1621961009	 0.105209
H	 0.1251195229	-0.2517580445	 2.5118340056	 0.10855
H	-0.9903593456	 0.1185656956	 1.1817888945	 0.112677
H	-0.1509773286	-1.8469362569	-0.0859079092	 0.103611
H	 1.8234278297	-2.9704333562	 0.5762109743	 0.120469
H	 1.9719183047	-1.9249476844	 1.9689748874	 0.132916
H	 1.4064646809	-4.3923652051	 2.7724833679	 0.116249
H	-1.1995755106	-4.3481677034	 3.0102078723	 0.117418
52.6468	58.7001	112.7272	157.621	208.4844	258.5264	317.1299	414.0642	445.4022	540.0037	611.1643	661.6025	751.139	797.0257	852.9047	897.6037	921.0483	957.0858	964.403	1005.2174	1081.5562	1091.7967	1113.4398	1130.6076	1176.2815	1178.8601	1198.4125	1222.6934	1233.0237	1296.3836	1321.6735	1337.7579	1369.2247	1401.3023	1471.9472	1478.2353	1489.9573	1497.7541	1510.2012	1648.4736	1804.132	2978.6844	3005.1241	3025.8648	3034.2252	3050.0337	3060.997	3073.3949	3113.6956	3187.4008	3228.0892
COCC1CC=CC1=O	COC[C@H]1CC=CC1=O	
InChI=1S/C7H10O2/c1-9-5-6-3-2-4-7(6)8/h2,4,6H,3,5H2,1H3	InChI=1S/C7H10O2/c1-9-5-6-3-2-4-7(6)8/h2,4,6H,3,5H2,1H3/t6-/m1/s1
