20
gdb 113420	4.59726	0.85162	0.8026	2.6873	81.34	-0.2348	-0.0237	0.2111	1482.0368	0.168554	-403.127621	-403.118462	-403.117518	-403.16208	34.342	
C	-0.0843096888	 1.5455487591	-0.6066354219	-0.376374
C	-0.0097521987	 0.2345346196	 0.1711215429	-0.118813
N	-1.3088508046	-0.4333668037	 0.1759976896	-0.121563
C	-1.5868348343	-1.345685582	-0.9369562132	-0.320662
C	-1.3492196574	-1.8575601029	 0.4346943638	 0.348289
C	-0.1934573191	-2.7749471684	 0.8959799146	-0.428832
C	-1.2295051517	-3.506909246	 1.7751096709	 0.405031
O	-1.1822551926	-4.4882761291	 2.4562434594	-0.288038
C	-2.3476667353	-2.5152477682	 1.4034512673	-0.418206
H	 0.8788127337	 2.0641818331	-0.582230361	 0.113818
H	-0.3447059855	 1.3633526412	-1.6543622304	 0.119601
H	-0.846465276	 2.2026189818	-0.1788613374	 0.129238
H	 0.7843557774	-0.4064710136	-0.2512250267	 0.084806
H	 0.2644936651	 0.4354317902	 1.2139960092	 0.103524
H	-2.5921996492	-1.3042430072	-1.3488758118	 0.117447
H	-0.7979910855	-1.5079856813	-1.6720263081	 0.108646
H	 0.297291682	-3.3974876775	 0.1426310978	 0.134038
H	 0.5803872338	-2.2761359699	 1.4904460517	 0.135932
H	-2.6504087417	-1.8709111319	 2.2358820361	 0.139166
H	-3.2425918616	-2.9701283233	 0.9686328071	 0.132952
42.9755	93.4192	141.0948	184.4723	254.5064	295.9009	329.9901	417.9758	420.8426	435.9832	504.0003	587.5679	661.705	715.9553	757.266	815.2876	877.7842	893.0812	910.2519	973.5569	1002.3783	1045.937	1055.6326	1076.7774	1105.7605	1112.9755	1150.2243	1180.0105	1189.4874	1200.8667	1214.5982	1235.6276	1310.9913	1387.8757	1405.7028	1413.9861	1421.3857	1445.1945	1488.3617	1489.4162	1505.0634	1518.3948	1899.6884	2945.1709	3040.1746	3044.5083	3046.2634	3052.7777	3079.8022	3101.9433	3105.4672	3109.7924	3121.2475	3169.5535
CCN1CC11CC(=O)C1	CCN1CC21CC(=O)C2	
InChI=1S/C7H11NO/c1-2-8-5-7(8)3-6(9)4-7/h2-5H2,1H3	InChI=1S/C7H11NO/c1-2-8-5-7(8)3-6(9)4-7/h2-5H2,1H3
