18
gdb 9151	5.65963	0.72063	0.67436	1.5135	73.96	-0.2597	0.0272	0.2869	1674.5391	0.151063	-384.903096	-384.892959	-384.892015	-384.939485	34.631	
C	-0.0594561555	 1.5573208537	 0.0794505737	-0.38572
C	-0.0477263399	 0.0286855398	 0.122292325	-0.173236
C	-1.4502013339	-0.5765977695	-0.0905234738	-0.053336
O	-2.0306369024	-0.1572337114	-1.3258023768	-0.415331
C	-1.4236887253	-2.0369495891	 0.0291298752	 0.012719
C	-1.3656484885	-3.2392958913	 0.1003490269	 0.09619
C	-1.3722276981	-4.6995086561	 0.1825824516	-0.191878
O	-2.5237167903	-5.227970938	 0.8243090029	-0.400958
H	 0.9525899441	 1.95954324	 0.1815730739	 0.11132
H	-0.48084649	 1.9130661202	-0.8639823462	 0.131728
H	-0.6670578025	 1.9696208835	 0.8927359253	 0.115806
H	 0.6202848846	-0.3726937835	-0.6508587559	 0.095901
H	 0.3400436719	-0.3303433263	 1.082436578	 0.109552
H	-2.1224014566	-0.1701532217	 0.6763868223	 0.116803
H	-1.5692769472	-0.6248605856	-2.0311362133	 0.281923
H	-1.2485266097	-5.1176960607	-0.8296782471	 0.117928
H	-0.5166443777	-5.0476760306	 0.7720591453	 0.141578
H	-3.294528323	-4.8307587434	 0.4055184029	 0.289014
24.4815	75.9706	86.6985	140.228	182.5038	223.2181	263.8764	282.7399	313.1334	341.964	415.7482	521.0967	531.207	585.4456	761.2881	804.4647	890.2981	976.4136	988.3976	1045.0998	1058.8332	1092.6497	1112.6556	1160.4388	1216.7653	1250.6298	1291.5677	1326.1571	1356.5883	1372.4892	1405.3973	1416.2188	1422.5623	1479.2514	1491.2171	1495.2174	1508.6204	2350.934	2972.5708	3021.3584	3033.3392	3038.9426	3061.7586	3069.9557	3104.6377	3126.3071	3801.6429	3815.8041
CCC(O)C#CCO	CC[C@@H](O)C#CCO	
InChI=1S/C6H10O2/c1-2-6(8)4-3-5-7/h6-8H,2,5H2,1H3	InChI=1S/C6H10O2/c1-2-6(8)4-3-5-7/h6-8H,2,5H2,1H3/t6-/m1/s1
