16
gdb 50284	3.24487	1.19749	1.0616	2.335	70.9	-0.2518	-0.0527	0.1991	1135.4938	0.122413	-437.848826	-437.840479	-437.839535	-437.882537	29.698	
O	-0.8015666973	 1.0500787442	-0.693372121	-0.241927
C	 0.1252694271	 0.8754005338	 0.0567777548	 0.143794
C	 1.3386307424	 1.7669450615	 0.1349469803	-0.175975
C	 1.4079583929	 3.0262774006	-0.7536814312	-0.182613
N	 1.533792379	 3.95004842	 0.436242236	-0.134523
C	 0.3191471103	 3.7742779686	 1.2192375016	-0.272207
C	 1.3586899592	 2.7164626256	 1.3496426302	 0.207176
C	 2.1707681865	 2.5546242462	 2.5793694189	 0.071614
O	 2.2484509767	 3.387432725	 3.4475675345	-0.245208
H	 0.1215125509	 0.0361494173	 0.7898476515	 0.085594
H	 2.2464076775	 1.1551097555	 0.0975872766	 0.10801
H	 2.3041551985	 3.0893639551	-1.3705891966	 0.126308
H	 0.5195899885	 3.2146932815	-1.3612299187	 0.139222
H	 0.2539772135	 4.4572051379	 2.059670737	 0.155097
H	-0.6155183374	 3.5360624333	 0.715767926	 0.140912
H	 2.7203440117	 1.5882787739	 2.6483342902	 0.074726
64.925	93.7312	140.0416	195.1713	221.0528	262.1551	358.9083	449.4164	536.9633	659.5255	679.5525	721.1968	758.2448	852.2086	879.439	946.7804	992.1854	1001.8258	1033.5656	1080.713	1092.9607	1123.977	1150.6476	1176.0535	1206.148	1233.7906	1300.4601	1330.4769	1367.4127	1420.0041	1430.2838	1481.0059	1503.4471	1811.8481	1822.7779	2868.9339	2874.9896	3058.9953	3078.4972	3110.5413	3143.1369	3219.1121
O=CC1CN2CC12C=O	O=C[C@H]1CN2C[C@@]12C=O	
InChI=1S/C6H7NO2/c8-2-5-1-7-3-6(5,7)4-9/h2,4-5H,1,3H2	InChI=1S/C6H7NO2/c8-2-5-1-7-3-6(5,7)4-9/h2,4-5H,1,3H2/t5-,6-,7?/m1/s1
