15
gdb 54678	2.89169	1.49465	0.99144	7.5448	70.67	-0.2528	-0.0572	0.1956	1112.0171	0.113997	-454.014372	-454.006515	-454.005571	-454.047531	28.764	
O	 0.0624810522	 0.0311360584	-0.0285479879	-0.353198
C	-0.0015899051	 1.2355780868	-0.0075804405	 0.376646
O	 1.0697437235	 2.0258375655	-0.0095842668	-0.381272
C	-1.3146926349	 1.9563388325	 0.0232293475	 0.117773
C	-2.5302949874	 1.3980597925	 0.0309081573	-0.173037
C	-3.5928798291	 2.4590892874	 0.0640213874	-0.215167
N	-2.8025201082	 3.6778308719	 0.0738997017	-0.35561
C	-1.4567657571	 3.4308432642	 0.0501033302	 0.378411
N	-0.4422996658	 4.219586357	 0.0486652117	-0.624343
H	-0.6742086994	 5.2091766071	 0.0686370009	 0.217412
H	 0.778791764	 2.9811356662	 0.0107185003	 0.329612
H	-2.7379273825	 0.3373001134	 0.0158442564	 0.150387
H	-4.2547050907	 2.399465365	-0.8124304141	 0.138942
H	-4.2297348285	 2.3690889877	 0.956253359	 0.13896
H	-3.2019211709	 4.5996583743	 0.093618227	 0.254484
50.9928	104.7977	182.1818	245.4294	332.3584	383.9105	386.817	444.9704	573.6478	672.5785	691.2833	775.013	778.0842	807.5519	823.9978	872.7648	892.2919	951.3295	1023.033	1043.8967	1104.1421	1135.3845	1187.5053	1244.979	1273.9348	1328.5601	1415.1844	1433.4292	1496.7263	1535.0437	1681.8916	1729.1133	1840.7688	2998.636	3020.5227	3133.2061	3247.3571	3517.6541	3677.8838
[O-]C(=O)C1=CCNC1=[NH2+]	O=C(O)C1=C(NC[CH]1)[NH]	
InChI=1S/C5H6N2O2/c6-4-3(5(8)9)1-2-7-4/h1H,2H2,(H2,6,7)(H,8,9)	InChI=1S/C5H6N2O2/c6-4-3(5(8)9)1-2-7-4/h1H,2H2,(H2,6,7)(H,8,9)
