15
gdb 33581	2.15593	1.56756	1.17221	4.1403	69.56	-0.2966	-0.0147	0.2819	1069.9016	0.113719	-416.825745	-416.817589	-416.816645	-416.859668	29.045	
N	-0.0410731806	-1.216334717	-0.2481509157	-0.322964
C	-0.0525582728	-0.0662548595	-0.1428161724	 0.268296
C	-0.0208501	 1.3887200513	 0.0297066381	-0.021386
C	-0.58841635	 1.8432967541	 1.42938817	-0.289223
C	 0.608482103	 2.57486277	 2.0732223006	-0.080273
O	 1.4186445908	 3.0008791965	 0.98825676	-0.226443
C	 1.4655053519	 1.9235328974	 0.0955511663	-0.119091
C	-0.7508336378	 2.0365789512	-1.0663083517	 0.279881
N	-1.3142009114	 2.5745295532	-1.9190175035	-0.322322
H	-1.4336554366	 2.5142682501	 1.2759234978	 0.155699
H	-0.9277049698	 0.9871028225	 2.0128636379	 0.148664
H	 0.3177365515	 3.4573755979	 2.6451355601	 0.135539
H	 1.171198579	 1.8944067869	 2.7295796228	 0.113864
H	 2.1060148924	 1.1085804836	 0.4639296114	 0.125103
H	 1.8298530703	 2.2705287518	-0.8714539114	 0.154657
27.2427	132.4956	165.4812	187.64	244.8036	309.0607	463.7881	496.4028	519.0455	575.7831	594.9426	652.3218	749.9274	841.4597	934.1073	947.226	968.0142	1005.8289	1057.3977	1101.5828	1133.7472	1168.524	1238.6825	1269.6783	1292.4961	1328.1128	1357.9278	1400.0461	1491.3558	1501.7314	1520.1377	2362.107	2367.6573	2997.3076	3002.4448	3096.9148	3121.6343	3138.5807	3153.1293
N#CC1(CCOC1)C#N	N#CC1(CCOC1)C#N	
InChI=1S/C6H6N2O/c7-3-6(4-8)1-2-9-5-6/h1-2,5H2	InChI=1S/C6H6N2O/c7-3-6(4-8)1-2-9-5-6/h1-2,5H2
