21
gdb 114076	3.02047	1.27544	1.08672	2.7961	78.43	-0.2412	0.0775	0.3187	1198.319	0.183147	-424.210872	-424.202454	-424.20151	-424.243654	33.55	
C	-0.2453804198	 1.443427535	-0.0364919726	-0.490914
C	 0.0262246601	-0.0316503693	 0.0438599303	 0.450608
C	 0.9791642785	-0.8218777693	-0.8957246697	-0.269539
C	 0.7504700773	-1.9203276579	 0.1901126396	-0.094724
C	 0.742070089	-0.7466116339	 1.2205706382	-0.273366
C	-0.7535240765	-2.1594997912	-0.0110481575	 0.126529
C	-1.5283928938	-2.8935122759	 1.0760313558	-0.084714
O	-2.9216497437	-2.7501705935	 0.873964584	-0.422685
O	-1.2103699888	-0.7804170874	-0.0742377148	-0.345555
H	 0.6854082882	 2.0105632929	 0.0517696052	 0.118889
H	-0.7176786049	 1.695319077	-0.9910193052	 0.129459
H	-0.9186803837	 1.7544132733	 0.768489408	 0.126979
H	 0.628027081	-1.0170513618	-1.9123535948	 0.099299
H	 1.9993149484	-0.4336320834	-0.900852904	 0.099666
H	 1.3949587045	-2.7926201998	 0.2907523639	 0.074757
H	 1.744134927	-0.3570723773	 1.4090887425	 0.100328
H	 0.1887120173	-0.8552647775	 2.1551838054	 0.099893
H	-0.9656756813	-2.6410131162	-0.9749345425	 0.078869
H	-1.3065735064	-3.9658522106	 1.0301541948	 0.102501
H	-1.2299493525	-2.5332238658	 2.0723707754	 0.082548
H	-3.0665960998	-1.8048318677	 0.7432647279	 0.291172
88.3412	168.9823	190.537	211.208	301.2095	320.9533	408.2574	460.437	490.7163	514.2219	539.6194	617.2917	670.6255	814.9375	835.9419	853.2985	871.334	904.2255	933.8801	967.3927	995.4464	1014.1953	1029.9475	1039.193	1076.9732	1093.3347	1113.2994	1133.4621	1187.7681	1199.4104	1213.5278	1222.8027	1233.6092	1290.4346	1308.7603	1334.6982	1355.8253	1403.95	1419.8527	1441.9541	1475.1513	1481.8208	1492.6787	1501.4586	1515.2355	2987.0734	3016.8389	3040.6085	3062.268	3065.5289	3074.6407	3109.9684	3118.9596	3127.195	3129.8438	3137.1599	3784.0358
CC12CC(C1)C(CO)O2	C[C@@]12C[C@@H](C1)[C@@H](CO)O2	
InChI=1S/C7H12O2/c1-7-2-5(3-7)6(4-8)9-7/h5-6,8H,2-4H2,1H3	InChI=1S/C7H12O2/c1-7-2-5(3-7)6(4-8)9-7/h5-6,8H,2-4H2,1H3/t5-,6-,7+/m1/s1
