22
gdb 109433	2.15389	1.33305	1.02377	3.759	83.08	-0.2392	0.0382	0.2774	1303.1921	0.192276	-404.391284	-404.380977	-404.380033	-404.426401	38.271	
C	 0.1197400832	 1.6347434777	 0.0302704457	-0.388823
C	-0.1094963648	 0.1197247513	-0.0402061627	-0.200902
C	 0.6502365802	-0.5078666233	-1.2063860425	-0.202604
C	 2.1857766897	-0.6209689932	-1.0486334693	 0.451765
O	 3.0862947761	 0.1376945183	-0.7921554406	-0.379942
N	 2.1447364223	-1.9683701143	-1.2927765024	-0.365454
C	 0.674665767	-2.0725419352	-1.4205370264	 0.319168
C	 0.0353812619	-2.9209721871	-0.3217203443	-0.427667
C	 0.2213152629	-2.5267466448	-2.8077810658	-0.429
H	 1.1872786329	 1.856785431	 0.1102070822	 0.153902
H	-0.259348103	 2.1327364777	-0.8691402373	 0.111654
H	-0.3924373619	 2.0690754219	 0.8940597631	 0.108567
H	 0.2077551078	-0.3381258363	 0.9036348712	 0.103235
H	-1.1810236972	-0.0941681485	-0.1446420139	 0.095812
H	 0.3917043617	 0.0089233801	-2.1372882908	 0.091023
H	 2.8728048077	-2.668849321	-1.2938680236	 0.240371
H	 0.3923160196	-2.6317122745	 0.6692954982	 0.124584
H	-1.0551334917	-2.8254804829	-0.338950465	 0.122959
H	 0.2754998583	-3.9798510714	-0.4701815312	 0.113137
H	 0.4749354228	-3.5789870636	-2.9796029357	 0.114091
H	-0.8644148701	-2.4272668629	-2.9108583942	 0.121694
H	 0.6992099546	-1.9295193388	-3.5894822151	 0.122434
53.1024	102.5928	153.1167	178.93	215.3037	238.0899	262.7962	305.4233	319.6865	340.7261	389.3462	414.5136	486.7746	551.6196	618.9315	703.845	776.1626	810.9447	867.2844	880.2436	937.6375	967.4201	987.0577	1008.5525	1065.19	1098.4787	1128.7506	1142.7715	1189.0637	1217.8684	1247.2557	1275.5959	1298.5121	1335.0932	1373.5707	1384.6145	1402.6166	1414.7932	1420.6248	1477.1445	1486.403	1490.0207	1498.7858	1500.1003	1507.1386	1513.4293	1877.1892	3020.2639	3028.9042	3035.5588	3035.84	3047.0126	3064.0774	3093.0726	3099.131	3101.8557	3113.7765	3124.7129	3125.6628	3594.4538
CCC1C(=O)NC1(C)C	CC[C@H]1C(=O)NC1(C)C	
InChI=1S/C7H13NO/c1-4-5-6(9)8-7(5,2)3/h5H,4H2,1-3H3,(H,8,9)	InChI=1S/C7H13NO/c1-4-5-6(9)8-7(5,2)3/h5H,4H2,1-3H3,(H,8,9)/t5-/m0/s1
