21
gdb 87800	2.71655	1.40198	1.18993	1.313	82.56	-0.2335	0.0707	0.3042	1146.8873	0.181994	-387.042612	-387.033795	-387.032851	-387.075741	34.548	
C	-0.1064599037	 1.5285652505	 0.0670791346	-0.402857
C	-0.0008780923	 0.0202757435	 0.08196448	-0.05273
C	 1.3307789341	-0.6663226399	-0.1470792903	-0.379636
C	 0.6897532711	-0.694117876	 1.2096462003	 0.405979
C	 1.287425696	-0.1094455722	 2.5061463634	-0.316878
C	 0.8143324036	-1.3669640824	 3.2544987243	-0.092552
C	-0.6564758142	-1.5551788761	 3.1008617503	 0.112132
O	-1.5002815942	-0.4379802972	 3.0900701388	-0.423424
C	 0.2208030619	-1.9371855553	 1.9399371154	-0.224357
H	 0.7968334931	 1.991403108	 0.4776648233	 0.115882
H	-0.2393686411	 1.9099302256	-0.9515642418	 0.11221
H	-0.9540359395	 1.8721899171	 0.6705573633	 0.118595
H	-0.8635872476	-0.4954066103	-0.3367663578	 0.068734
H	 1.3500100753	-1.5831289308	-0.7287913256	 0.105142
H	 2.2078409886	-0.0386496207	-0.28009339	 0.105627
H	 2.3766905419	-0.0305293497	 2.4677248671	 0.099778
H	 0.8646459643	 0.833067884	 2.8632338368	 0.11047
H	 1.3773395718	-1.8762923391	 4.0272093445	 0.086864
H	-1.0518735047	-2.4092268274	 3.6533405007	 0.083375
H	-2.1732151504	-0.5815888248	 2.417045371	 0.286037
H	 0.2526054562	-2.9477184968	 1.5460880115	 0.081607
86.3539	139.9392	199.2422	210.8717	245.5394	271.6923	334.2676	387.507	432.89	503.6772	547.8311	638.0715	729.3171	793.9831	798.868	829.5414	881.8789	909.2326	922.6395	956.0873	973.673	995.0692	1007.6702	1031.1013	1049.0746	1071.9757	1092.3237	1118.6682	1127.9366	1172.2637	1187.3982	1203.5176	1217.141	1257.4176	1281.5395	1301.8483	1313.4845	1355.3371	1410.338	1430.9688	1444.7424	1482.2586	1490.6136	1494.4169	1504.9813	3025.473	3058.2425	3087.0761	3089.869	3093.5525	3110.1306	3111.7974	3118.487	3161.9628	3184.3862	3195.4555	3814.5195
CC1CC11CC2C(O)C12	C[C@H]1C[C@]21C[C@H]1[C@@H](O)[C@@H]21	
InChI=1S/C8H12O/c1-4-2-8(4)3-5-6(8)7(5)9/h4-7,9H,2-3H2,1H3	InChI=1S/C8H12O/c1-4-2-8(4)3-5-6(8)7(5)9/h4-7,9H,2-3H2,1H3/t4-,5+,6-,7+,8+/m0/s1
