20
gdb 78957	2.46171	2.10174	1.54985	1.7316	80.81	-0.2183	0.0836	0.3019	954.7008	0.171559	-365.934628	-365.927059	-365.926114	-365.966079	30.919	
C	-0.0450162567	 1.6519364071	-0.0100537015	-0.428759
C	 0.0350895464	 0.1363006743	 0.0243329693	-0.014023
C	 1.0796804514	-0.6249408287	-0.8119358469	-0.033511
C	 2.4853218367	-0.2394851323	-0.3269716408	-0.093169
C	 2.5730363209	-1.493559694	 0.488367303	-0.037524
C	 2.2191215359	-0.2184120955	 1.19088243	-0.142213
C	 0.7247696115	-0.6037073528	 1.196524199	 0.340593
C	 0.0375295179	-0.9311612089	 2.4922782499	-0.502942
N	 1.0971368879	-1.7623201747	 0.231730177	-0.221029
H	 0.9398340633	 2.1014462975	 0.1548798874	 0.119722
H	-0.4181758114	 2.0072562096	-0.9767317298	 0.116845
H	-0.7217918706	 2.0320406578	 0.7630266142	 0.116479
H	-0.9470227886	-0.3232097182	-0.1405386394	 0.081429
H	 0.9242289637	-0.8881908882	-1.858727178	 0.069572
H	 3.2666970846	 0.3428467726	-0.7973840276	 0.087851
H	 3.3433723613	-2.2402198117	 0.6329309284	 0.093614
H	 2.7954892858	 0.380332071	 1.8846050487	 0.084359
H	-0.1330222764	-0.0230530579	 3.0827509126	 0.115597
H	-0.9292477693	-1.4098486717	 2.3089132948	 0.123594
H	 0.6472024159	-1.6134808354	 3.0941110598	 0.123515
186.461	193.5481	209.2036	226.5536	285.6749	302.7399	545.2998	587.9644	602.8523	710.0501	772.9134	801.7608	804.331	822.9585	825.3348	852.0415	895.3274	918.8095	936.048	958.6452	1000.2138	1018.3776	1032.8825	1050.3417	1056.3231	1074.5197	1112.4351	1139.5041	1168.7569	1191.8175	1212.7567	1219.6225	1255.0171	1296.6822	1319.4071	1359.3422	1387.6241	1408.1328	1415.1973	1482.4233	1489.5047	1496.6294	1500.3052	3026.4653	3029.2625	3042.7278	3091.5691	3093.3613	3100.3502	3106.0766	3107.7708	3184.6177	3191.0501	3206.3063
CC1C2C3C4C3C1(C)N24	C[C@H]1[C@H]2[C@@H]3[C@H]4[C@@H]3[C@]1(C)N24	
InChI=1S/C8H11N/c1-3-6-4-5-7(4)9(6)8(3,5)2/h3-7H,1-2H3	InChI=1S/C8H11N/c1-3-6-4-5-7(4)9(6)8(3,5)2/h3-7H,1-2H3/t3-,4+,5+,6-,7-,8+/m0/s1
