21
gdb 120089	3.88207	0.92613	0.84782	1.77	81.94	-0.2274	0.0574	0.2849	1456.5177	0.181493	-387.00581	-386.997058	-386.996113	-387.040342	33.413	
C	 0.1218648156	 1.6003211516	-0.1507626964	-0.383283
C	-0.0254639412	 0.0776555497	-0.1827217926	-0.18264
C	-1.3855905268	-0.404012746	 0.3420259382	-0.175856
C	-1.4988007545	-1.9303253799	 0.2959843194	-0.006694
C	-2.0922676264	-2.8803224128	 1.3101161134	-0.132424
C	-3.4799968621	-2.430265837	 1.8617640544	 0.019997
O	-3.8377794537	-1.1609559041	 1.2962921054	-0.238759
C	-4.0293578495	-2.3489897464	 0.5147729707	 0.020011
C	-2.6705494877	-2.7947068741	-0.1077977244	-0.132444
H	 1.0988430354	 1.9172011843	-0.5294507397	 0.107579
H	-0.6465912652	 2.0848105341	-0.763568522	 0.114182
H	 0.0184441836	 1.9861860269	 0.8696284188	 0.114184
H	 0.1156407475	-0.2835708288	-1.2106555761	 0.092008
H	 0.7762668927	-0.3815445985	 0.4117560139	 0.092015
H	-1.5291185374	-0.0451220367	 1.3654341261	 0.104883
H	-2.1860096813	 0.0522333548	-0.2478581524	 0.104849
H	-0.5896041784	-2.3839646478	-0.1022450349	 0.089704
H	-1.5311663758	-3.6949658739	 1.7506055433	 0.089252
H	-3.9254414179	-2.7021736194	 2.8108693522	 0.107093
H	-5.0212807278	-2.5400506125	 0.1239533546	 0.107093
H	-2.6103363692	-3.5351682036	-0.895580162	 0.089249
28.9849	89.5784	132.3122	233.2429	251.1972	269.7332	353.7034	436.3586	502.821	678.6536	723.1875	727.3595	735.5238	765.0148	817.3003	863.5674	876.7826	883.1879	916.0003	942.881	947.1783	983.8645	1005.6986	1032.2769	1045.8994	1056.7487	1079.4567	1115.7975	1143.6526	1193.3564	1233.638	1244.6317	1263.8827	1281.3353	1296.6363	1319.4182	1327.5503	1373.5725	1397.9991	1412.5605	1441.0686	1474.35	1491.4752	1500.1547	1509.3488	3006.6567	3028.1573	3034.7442	3054.3981	3088.8051	3094.8161	3097.8501	3099.4111	3179.432	3189.1484	3191.3276	3202.6852
CCCC1C2C3OC3C12	CCC[C@H]1[C@H]2[C@H]3O[C@H]3[C@@H]12	
InChI=1S/C8H12O/c1-2-3-4-5-6(4)8-7(5)9-8/h4-8H,2-3H2,1H3	InChI=1S/C8H12O/c1-2-3-4-5-6(4)8-7(5)9-8/h4-8H,2-3H2,1H3/t4-,5+,6-,7+,8-
