18
gdb 37706	2.71363	2.3325	2.10738	0.688	72.23	-0.2006	0.087	0.2876	790.5764	0.152516	-401.912738	-401.907157	-401.906213	-401.942228	25.081	
C	-0.0394945434	 1.543121425	 0.0089858683	-0.239575
C	 1.4630042172	 1.8496558417	 0.0614528911	-0.009972
C	 2.112312464	 1.450676826	 1.3886980055	-0.142079
C	 1.6952735831	 0.0259463217	 1.6553049368	 0.106833
O	 0.4349551857	-0.4728116087	 1.2833953389	-0.278815
C	 0.0065016885	 0.0030378502	-0.0011522225	 0.091625
C	 1.1110131794	-0.2597803348	-1.0353924513	-0.184476
N	 2.1730056784	 0.6921580156	-0.639530919	-0.125732
C	 2.7745732331	 0.2844772893	 0.6490628806	-0.077567
H	-0.5832934103	 1.9359884128	 0.8712750945	 0.110612
H	-0.5034131498	 1.9208922021	-0.9078444854	 0.101276
H	 1.7601071831	 2.8186336927	-0.342501232	 0.077815
H	 2.505381148	 2.117057562	 2.1457506798	 0.089101
H	 1.9969724312	-0.395467858	 2.6080461398	 0.105719
H	-0.9493691884	-0.4845377454	-0.2006416351	 0.076078
H	 1.4860017917	-1.2861058308	-1.003616259	 0.11161
H	 0.7648079877	-0.0399146868	-2.0517141209	 0.098929
H	 3.7824276109	-0.1158180547	 0.68909349	 0.088617
324.7836	398.5342	412.5376	462.849	553.1782	645.7321	673.9706	746.7162	758.5309	805.493	830.5895	843.2734	873.3905	889.9404	919.3204	949.8764	958.5267	993.7249	1026.8842	1044.9702	1049.9173	1066.5875	1079.242	1102.8189	1111.8874	1158.583	1175.359	1220.4647	1245.1612	1261.5103	1269.6518	1310.2006	1314.3166	1323.6316	1352.9907	1366.641	1433.0957	1472.1533	1489.666	3037.5756	3054.3596	3089.7702	3100.7246	3104.8272	3114.2547	3156.1025	3177.1738	3195.3218
C1C2C3C4OC1CN2C34	C1[C@H]2[C@H]3[C@H]4O[C@@H]1CN2[C@@H]34	
InChI=1S/C7H9NO/c1-3-2-8-4(1)5-6(8)7(5)9-3/h3-7H,1-2H2	InChI=1S/C7H9NO/c1-3-2-8-4(1)5-6(8)7(5)9-3/h3-7H,1-2H2/t3-,4-,5+,6-,7+/m0/s1
