14
gdb 42999	2.40403	1.71274	1.31261	4.6167	65.82	-0.2674	-0.051	0.2164	969.9997	0.101009	-436.690018	-436.682669	-436.681725	-436.722251	27.354	
O	-0.1239367058	 0.1310189982	-0.7726158096	-0.296311
C	-0.1101070184	 1.2160717834	-0.26552246	 0.402283
C	-1.2325020542	 2.0304820322	 0.2610316563	-0.1965
C	-1.0276528803	 2.5894361135	 1.6833141867	-0.329769
C	-0.645998433	 3.4014926971	 0.5016239475	 0.112327
O	 0.7224553237	 3.4315457663	 0.1415865036	-0.248447
C	 1.1714286261	 2.117262316	-0.136723958	-0.158013
C	 2.0739977067	 1.6114364698	 0.9060902551	 0.301639
N	 2.7682905753	 1.2115229714	 1.7388061503	-0.322589
H	-2.2312445197	 1.8366749414	-0.1053137157	 0.131998
H	-1.9425041204	 2.8480641383	 2.2038191277	 0.144416
H	-0.249676063	 2.1626448829	 2.3062371046	 0.162731
H	-1.1524751427	 4.3208519666	 0.2372759974	 0.13052
H	 1.6978502557	 2.109675413	-1.0972657857	 0.165716
74.9708	141.824	179.9024	267.234	393.7114	416.3497	492.8175	532.7291	595.8451	659.5323	704.7506	782.8314	813.0007	862.3331	946.2141	958.1384	969.6372	1009.3688	1049.649	1063.6467	1094.6668	1140.1568	1173.2324	1202.8338	1230.5844	1311.9313	1331.8319	1374.6135	1480.4583	1863.9797	2355.4613	3061.9502	3144.5909	3203.2174	3215.9803	3237.967
O=C1C2CC2OC1C#N	O=C1[C@H]2C[C@H]2O[C@H]1C#N	
InChI=1S/C6H5NO2/c7-2-5-6(8)3-1-4(3)9-5/h3-5H,1H2	InChI=1S/C6H5NO2/c7-2-5-6(8)3-1-4(3)9-5/h3-5H,1H2/t3-,4+,5-/m0/s1
