18
gdb 54424	2.47027	1.53083	1.22223	4.8631	72.84	-0.2519	0.0052	0.2571	1078.4597	0.148093	-439.09095	-439.082578	-439.081633	-439.123933	31.804	
C	-0.0159729407	 1.5442767848	 0.0353832351	-0.492708
C	-0.0288148728	 0.0484965467	-0.0675791658	 0.270354
C	-0.9357564291	-0.8318585141	 0.7421733933	-0.371787
C	 0.5489584188	-0.99083194	 0.9200717814	 0.143542
N	 1.1984255593	-1.7316766759	-0.1687102634	-0.389833
H	 2.6846246926	-1.5668722296	 1.2692976061	 0.302218
H	 0.8548483281	-2.6850213211	-0.2672927585	 0.226796
C	 0.6302229574	-0.7797105147	-1.1800333905	-0.224214
C	 1.2876066479	-0.7154942128	 2.1790098499	 0.383895
O	 2.5510620116	-1.1827717891	 2.1569017191	-0.381786
O	 0.832337321	-0.1047157124	 3.1118740171	-0.356775
H	 0.9418994239	 1.9573423336	-0.2981677702	 0.124748
H	-0.8069514468	 1.9895682485	-0.5791724691	 0.126352
H	-0.1752374854	 1.8566730042	 1.0715142806	 0.152884
H	-1.4306336864	-0.3404703941	 1.5728789778	 0.149441
H	-1.4957240068	-1.6417953454	 0.2788880056	 0.106031
H	-0.0478113334	-1.2320675939	-1.9129049369	 0.109081
H	 1.4265340708	-0.2490560445	-1.7103714017	 0.121761
94.6076	115.046	179.7486	199.8651	278.62	330.7439	391.2071	419.6462	475.6263	517.3744	635.1204	702.8624	741.6462	751.9375	789.7433	838.2499	908.3436	940.3222	953.2109	973.8142	994.0434	1041.1871	1066.9698	1106.7257	1153.0805	1174.4748	1186.0306	1259.1499	1281.7655	1340.4521	1360.8662	1379.3484	1415.1891	1433.8488	1483.3581	1488.6165	1496.0803	1511.7201	1852.5467	3028.3813	3033.2716	3086.4736	3090.2569	3105.4796	3113.9518	3215.8818	3470.7058	3597.8367
CC12CC1([NH2+]C2)C([O-])=O	C[C@]12C[C@]1(NC2)C(=O)O	
InChI=1S/C6H9NO2/c1-5-2-6(5,4(8)9)7-3-5/h7H,2-3H2,1H3,(H,8,9)	InChI=1S/C6H9NO2/c1-5-2-6(5,4(8)9)7-3-5/h7H,2-3H2,1H3,(H,8,9)/t5-,6+/m1/s1
