14
gdb 123388	7.74274	0.79755	0.72632	2.8539	70.83	-0.231	-0.0067	0.2243	1448.2232	0.100752	-432.811423	-432.803382	-432.802438	-432.845074	28.755	
C	-0.0188893883	-1.1593189929	-0.0040197796	-0.406803
C	 0.0186038287	 0.0405201674	 0.0024109993	 0.298334
C	 0.0186856347	 1.4940861572	 0.0107215629	-0.249128
O	 1.3801143955	 1.9533368138	-0.0027159553	-0.27424
C	 1.5260129557	 3.287741526	 0.0030956451	 0.422217
C	 2.7176359843	 3.9815202621	-0.007138326	-0.200227
N	 2.3067543056	 5.2752472819	 0.0050712338	-0.140462
N	 0.975679151	 5.3862241828	 0.0215179264	-0.129399
N	 0.4936798485	 4.1663775035	 0.020339303	-0.267279
H	-0.0488127003	-2.2209090055	-0.0097552635	 0.202889
H	-0.5140322128	 1.8920135853	-0.8615659625	 0.151958
H	-0.4932486987	 1.8819388278	 0.899829849	 0.151958
H	 3.7486930322	 3.6780017603	-0.0211126445	 0.152897
H	 2.8684117139	 6.1117479204	 0.003133212	 0.287284
45.4516	89.5102	115.3583	231.0433	323.067	348.271	429.7086	512.5501	578.7862	611.2592	685.3231	685.9565	719.8017	756.5086	771.5198	976.9271	986.2335	1014.9344	1016.7731	1059.8166	1079.7056	1139.187	1250.5349	1275.8962	1344.0005	1347.6769	1397.9382	1490.969	1508.3565	1623.5325	2251.5517	3028.8414	3060.7225	3302.8849	3505.8604	3658.3559
C#CCOC1=CNN=N1	C#CCOc1c[nH]nn1	
InChI=1S/C5H5N3O/c1-2-3-9-5-4-6-8-7-5/h1,4H,3H2,(H,6,7,8)	InChI=1S/C5H5N3O/c1-2-3-9-5-4-6-8-7-5/h1,4H,3H2,(H,6,7,8)
