23
gdb 72032	2.31588	1.87727	1.45923	0.0646	88.54	-0.2433	0.0894	0.3327	1051.4057	0.20815	-351.186279	-351.178173	-351.177228	-351.218097	33.627	
C	-0.0254753998	 1.4947427141	 0.0462425747	-0.504247
C	 0.014606613	-0.0084759731	-0.0108479327	 0.313965
C	 1.1086608503	-0.7430925705	-0.7881626328	-0.266803
C	 0.6643664813	-2.1846953464	-0.456107433	-0.048653
C	 0.5715364229	-2.1361968187	 1.0880957413	-0.226207
C	-0.323618647	-0.9046070239	 1.1744398724	-0.141861
C	-1.2214468184	-0.9037874034	-0.056924633	 0.313964
C	-2.6387963008	-0.3982007962	-0.051124364	-0.504247
C	-0.8258495003	-2.144229337	-0.8604450499	-0.266801
H	 0.897955497	 1.8963304736	 0.4806498183	 0.113903
H	-0.1339638892	 1.9319514208	-0.9538685257	 0.112584
H	-0.857223419	 1.8596053636	 0.656607477	 0.11424
H	 1.0813580646	-0.5283103841	-1.8629449735	 0.085783
H	 2.1145591522	-0.5124222546	-0.4175319697	 0.086129
H	 1.2632005092	-2.9895098753	-0.8821797632	 0.057284
H	 0.1092733427	-3.0350440103	 1.5110613746	 0.08928
H	 1.5476709484	-1.9932976892	 1.5648019398	 0.089274
H	-0.6618023706	-0.4860769516	 2.1149908079	 0.069775
H	-2.7566724507	 0.4837215872	 0.5858944997	 0.11424
H	-2.9712869128	-0.1231977155	-1.0595706266	 0.112582
H	-3.3280232559	-1.1647570464	 0.323130974	 0.113905
H	-0.9686285672	-2.0130282401	-1.9395372747	 0.085788
H	-1.3754119299	-3.0401904629	-0.5479758008	 0.086123
182.459	184.4472	207.7971	233.8548	305.2145	328.7252	421.5724	429.5478	493.3329	559.1018	602.2618	667.942	695.2759	807.6349	890.4569	900.133	906.025	915.7518	921.9835	947.231	952.944	956.6017	999.6097	1014.666	1049.5262	1071.0607	1105.9123	1139.0414	1155.3588	1168.7131	1177.5236	1192.1493	1243.4773	1243.9766	1279.8837	1300.3131	1301.1715	1322.2141	1355.0109	1414.606	1423.7878	1436.859	1483.9394	1488.6689	1491.2655	1494.1852	1495.8	1506.8051	1521.3356	3017.1378	3020.1649	3025.5143	3028.5902	3036.3656	3066.5654	3070.0421	3071.9622	3073.5639	3077.1616	3093.3237	3100.7781	3117.2448	3181.7316
CC12CC3CC1C2(C)C3	C[C@@]12C[C@H]3C[C@@H]1[C@]2(C)C3	
InChI=1S/C9H14/c1-8-4-6-3-7(8)9(8,2)5-6/h6-7H,3-5H2,1-2H3	InChI=1S/C9H14/c1-8-4-6-3-7(8)9(8,2)5-6/h6-7H,3-5H2,1-2H3/t6-,7+,8-,9+
