25
gdb 122885	3.98005	0.57082	0.56235	2.2623	87.02	-0.2496	0.0636	0.3133	2131.833	0.225031	-426.625833	-426.613911	-426.612967	-426.663482	42.761	
C	-0.0248951783	 1.4422929719	 0.1206578668	-0.225869
O	 0.0109559605	 0.0403249131	 0.0286574898	-0.229585
C	-1.273418759	-0.5444923719	 0.02845524	-0.05205
C	-1.1216780565	-2.0553765004	-0.0826446815	-0.203247
C	-2.4730139117	-2.7748640801	-0.124306746	-0.209107
C	-2.3945901839	-4.3162671996	-0.0278899557	 0.343634
C	-3.8120670114	-4.9066213669	-0.0163662727	-0.417294
C	-1.5738382335	-4.9253076124	-1.1675663062	-0.391124
O	-1.7062281057	-4.6995409416	 1.1706074883	-0.455073
H	 1.0080324484	 1.7994473835	 0.1123527017	 0.125039
H	-0.5637065192	 1.8961171381	-0.7271741645	 0.100015
H	-0.5095380483	 1.7810562176	 1.0509149474	 0.099933
H	-1.815955689	-0.2773291757	 0.9533619376	 0.0779
H	-1.8713625335	-0.1518678038	-0.8138833523	 0.078694
H	-0.5386642599	-2.2715633334	-0.984241087	 0.10708
H	-0.5387313929	-2.4226207882	 0.7677283065	 0.11771
H	-3.0958041391	-2.4217808262	 0.7117970366	 0.077913
H	-3.0182775906	-2.5039765919	-1.0380426376	 0.093194
H	-4.3457765526	-4.6862402186	-0.9465788369	 0.113551
H	-3.7677698162	-5.9921125349	 0.1097922477	 0.120483
H	-4.4014027968	-4.4896562976	 0.8095093609	 0.099909
H	-0.53585404	-4.5888900149	-1.1218437879	 0.128505
H	-1.576967567	-6.0159631638	-1.0884403163	 0.117891
H	-1.990061536	-4.6456199614	-2.1399500568	 0.108613
H	-2.2321872876	-4.399044861	 1.9198443882	 0.273286
52.4992	65.6389	97.5833	120.4129	149.2392	209.7782	231.1121	240.4659	250.4028	279.0185	299.8828	343.8618	370.7233	417.3654	450.9939	485.5874	556.163	762.2876	768.803	861.323	909.8439	932.2004	959.6068	990.8767	1002.4778	1057.0667	1064.9955	1086.683	1141.92	1165.6765	1178.7185	1205.3893	1223.646	1232.2729	1243.0708	1288.2768	1301.5412	1317.996	1375.3397	1387.8526	1403.3074	1423.1383	1427.0355	1471.4552	1481.6227	1483.379	1485.6734	1489.289	1497.5072	1501.6217	1509.8024	1511.3016	1533.5705	2933.488	2957.4626	2964.4924	2990.9705	3004.2752	3024.2493	3038.8474	3047.7263	3053.0178	3090.5636	3100.2188	3110.255	3112.4335	3120.126	3131.3861	3800.5872
COCCCC(C)(C)O	COCCCC(C)(C)O	
InChI=1S/C7H16O2/c1-7(2,8)5-4-6-9-3/h8H,4-6H2,1-3H3	InChI=1S/C7H16O2/c1-7(2,8)5-4-6-9-3/h8H,4-6H2,1-3H3
