21
gdb 93005	2.68374	1.51549	1.10632	1.6892	83.71	-0.2356	0.0066	0.2422	1175.419	0.182465	-387.101501	-387.092809	-387.091865	-387.13427	34.19	
C	 0.1610080211	 1.5719175576	 0.0369312735	-0.400078
C	 0.0234964405	 0.0439413218	 0.0114956636	-0.016996
C	 0.5810232788	-0.5467313568	-1.3028543664	-0.269285
C	 0.7503314365	-2.0418060697	-1.2616083474	-0.098215
C	 1.0313114128	-2.6928486809	-0.1326934357	-0.080419
C	 1.1701453377	-1.9776708802	 1.1667729555	 0.372138
C	 1.24262193	-2.8259943989	 2.4128605765	-0.482715
O	 2.081668123	-0.8409285464	 1.1591239866	-0.303481
C	 0.6766729824	-0.5905515001	 1.223181414	-0.00635
H	 1.2170054807	 1.8620716308	 0.0263945384	 0.129136
H	-0.3237251817	 2.0259914615	-0.8334580861	 0.112196
H	-0.2963235258	 1.9987007319	 0.9356835332	 0.111369
H	-1.0446043048	-0.2123501347	 0.0752047389	 0.078012
H	-0.0698663939	-0.2578758893	-2.1354529321	 0.099641
H	 1.5574280668	-0.0859062627	-1.5060412691	 0.126856
H	 0.6726776104	-2.5865748113	-2.1986979896	 0.0929
H	 1.1697391742	-3.7703834094	-0.126518086	 0.083283
H	 2.1039185989	-3.5018974975	 2.3689474313	 0.126508
H	 1.3458529489	-2.1991550003	 3.3016466595	 0.126684
H	 0.3409829635	-3.4393890873	 2.5180729093	 0.122075
H	 0.33249402	-0.209852248	 2.1882445222	 0.076742
113.5067	161.4338	199.6951	239.0204	242.9885	296.4114	354.9564	368.793	422.6557	480.8467	540.1225	623.8171	662.5082	712.0693	748.4	840.1063	867.3051	909.1489	924.272	957.1727	986.4067	1007.3488	1013.8625	1047.56	1077.6948	1099.4888	1132.9377	1169.9902	1197.2509	1234.6063	1249.1439	1316.5067	1316.9596	1363.9775	1371.7062	1408.3685	1412.5947	1423.7382	1457.162	1473.502	1486.4093	1497.5659	1498.3107	1502.3961	1712.6009	2996.2082	3018.3415	3031.0074	3033.0313	3062.308	3074.5815	3094.5103	3100.2353	3104.4464	3124.8794	3153.5272	3176.6267
CC1CC=CC2(C)OC12	C[C@H]1CC=C[C@@]2(C)O[C@@H]12	
InChI=1S/C8H12O/c1-6-4-3-5-8(2)7(6)9-8/h3,5-7H,4H2,1-2H3	InChI=1S/C8H12O/c1-6-4-3-5-8(2)7(6)9-8/h3,5-7H,4H2,1-2H3/t6-,7-,8+/m0/s1
