17
gdb 108094	2.60226	1.54939	1.27051	0.3728	68.08	-0.2153	0.0638	0.2791	1044.4512	0.134283	-458.86376	-458.855598	-458.854654	-458.89647	31.02	
C	-0.258639441	 1.1979309022	 0.0564490021	-0.25769
O	 0.3181023574	-0.0951741951	-0.0606493788	-0.281788
C	 0.9000380713	-0.5452718844	 1.0913663325	 0.342268
C	 2.209558779	-0.1159112241	 1.7558321792	-0.305997
C	 2.0033011185	-1.3718725172	 2.6444642834	-0.015028
O	 0.8407857172	-1.0549724862	 3.4573771698	-0.283196
C	 0.061668412	-1.1683704152	 2.2710035044	-0.089192
C	 1.0596523026	-1.9863082636	 1.5055308756	 0.249569
O	 1.0505276004	-3.1277823542	 0.7596441247	-0.442292
H	 0.5002554674	 1.957876034	 0.2859283649	 0.118467
H	-0.7145889484	 1.4289132209	-0.9082422658	 0.131564
H	-1.0276637277	 1.2223338609	 0.8401919073	 0.114279
H	 3.0561076204	-0.2347598961	 1.0748995442	 0.11406
H	 2.262004528	 0.8374023831	 2.289596795	 0.102569
H	 2.8152982941	-1.8421811001	 3.1944218459	 0.091824
H	-1.0193193582	-1.155377937	 2.3174381332	 0.113563
H	 0.7364638769	-3.853968208	 1.3114808223	 0.297022
89.5152	146.4665	168.6682	238.1257	280.1411	344.5784	396.3467	431.4396	464.3688	565.0344	603.3868	710.3668	723.1795	805.9774	839.0029	915.9942	921.6396	946.8128	1021.9507	1032.8594	1055.0259	1065.8077	1114.0804	1124.0715	1167.3501	1179.9739	1207.8265	1219.4797	1237.1881	1283.8509	1311.9511	1353.8915	1471.6567	1477.0498	1487.2077	1505.0271	1532.6796	3000.328	3053.4138	3057.5826	3120.3345	3128.7171	3148.8304	3211.4301	3782.6296
COC12CC3OC1C23O	CO[C@@]12C[C@H]3O[C@@H]1[C@@]23O	
InChI=1S/C6H8O3/c1-8-5-2-3-6(5,7)4(5)9-3/h3-4,7H,2H2,1H3	InChI=1S/C6H8O3/c1-8-5-2-3-6(5,7)4(5)9-3/h3-4,7H,2H2,1H3/t3-,4+,5+,6-/m1/s1
