23
gdb 114115	3.43678	0.93433	0.83938	0.8177	87.21	-0.2362	0.0893	0.3256	1508.2054	0.20445	-388.258407	-388.248616	-388.247671	-388.293315	36.62	
C	 0.0184613392	 1.540191886	 0.1669770639	-0.372864
C	-0.0080041875	 0.0390807573	-0.1529164501	-0.298307
C	-1.3936773192	-0.5453514644	-0.1171258506	 0.397888
C	-2.0582539099	-1.0132244595	 1.1499075411	-0.334581
C	-1.8582198401	-1.9975324116	 0.0270262851	-0.154882
C	-2.9426606214	-1.7898513636	-1.0239772103	 0.164457
C	-2.4805495584	-0.297830465	-1.1798066993	-0.330747
O	-2.6984244965	-2.5909622676	-2.1541374313	-0.249628
C	-3.6571849983	-2.4213920457	-3.1724886009	-0.238401
H	 1.0378028905	 1.9360914528	 0.1226886533	 0.109854
H	-0.5899678167	 2.1070644709	-0.5459147472	 0.117238
H	-0.3777212078	 1.7351012407	 1.1689435967	 0.117099
H	 0.4326736467	-0.1310363517	-1.1443269337	 0.097774
H	 0.6277282593	-0.4997630885	 0.5614422305	 0.094653
H	-1.396736619	-1.1478802074	 2.0005626132	 0.108525
H	-3.0591317626	-0.6785135473	 1.4173865905	 0.099526
H	-1.2808886866	-2.9078757958	 0.1366007464	 0.08982
H	-3.9797411328	-1.9352478244	-0.6774749539	 0.055251
H	-3.2094295114	 0.4923808467	-0.9696018903	 0.085854
H	-2.0590759419	-0.1470693197	-2.1775169402	 0.107045
H	-3.3925672812	-3.1017709011	-3.9855123473	 0.125539
H	-4.6714455659	-2.6659595565	-2.8188832637	 0.103598
H	-3.6707868984	-1.3928730945	-3.5645028218	 0.105292
64.6116	89.6593	117.7248	193.9094	200.8437	217.1363	261.7308	345.5344	373.3059	424.5663	431.5386	480.5214	637.1586	746.0835	785.2407	826.2187	855.4305	879.6648	939.3699	957.0608	991.3737	998.2579	1027.4812	1036.4045	1059.0836	1082.4932	1090.9243	1116.8806	1140.9267	1175.3599	1184.3876	1226.4004	1228.7123	1240.0299	1268.6103	1279.1403	1328.9501	1347.7515	1385.1541	1402.3037	1411.1441	1467.4752	1479.1087	1481.0555	1488.4516	1497.274	1502.6563	1507.1291	1509.7127	2951.3026	2973.3539	3012.7243	3018.2512	3032.171	3037.4795	3046.2337	3095.6392	3100.5076	3100.623	3105.3761	3113.6421	3182.2243	3191.8388
CCC12CC1C(C2)OC	CC[C@]12C[C@H]1[C@@H](C2)OC	
InChI=1S/C8H14O/c1-3-8-4-6(8)7(5-8)9-2/h6-7H,3-5H2,1-2H3	InChI=1S/C8H14O/c1-3-8-4-6(8)7(5-8)9-2/h6-7H,3-5H2,1-2H3/t6-,7+,8+/m0/s1
