22
gdb 93235	2.69872	1.2622	0.90773	3.751	82.9	-0.2343	0.0308	0.2651	1334.2638	0.195668	-404.412859	-404.403529	-404.402585	-404.446848	35.491	
C	-0.0034210359	 1.5862873365	-0.0117979086	-0.406341
C	 0.0198777465	 0.0562964394	 0.0145594429	 0.014908
C	 0.6785455396	-0.5016579854	-1.249808425	-0.148163
N	 0.8553920166	-1.9444031555	-1.1690017358	-0.326937
C	 1.0068972381	-2.7059901572	-0.0418541392	 0.411628
O	 1.3400211598	-3.8764547523	-0.1139790472	-0.385517
C	 0.6651748154	-2.0360525334	 1.2957669941	-0.102471
C	 1.5016730516	-2.641606882	 2.4264553124	-0.39594
C	 0.7534444188	-0.5040647426	 1.2374242389	-0.201626
H	 1.0130597373	 1.996447084	-0.0178107708	 0.118046
H	-0.5216139691	 1.9645384896	-0.8995468131	 0.114564
H	-0.5168379039	 1.9828975166	 0.8693842421	 0.118598
H	-1.0161687207	-0.3097378168	 0.0418718858	 0.081541
H	 0.0651694959	-0.2725334888	-2.1291652651	 0.107864
H	 1.6488053935	 0.0000501389	-1.399055661	 0.10143
H	 1.113932538	-2.4360443657	-2.0130394859	 0.241796
H	-0.3880738754	-2.302728834	 1.4724286067	 0.102824
H	 2.557703411	-2.3703642239	 2.320556077	 0.114691
H	 1.1547482147	-2.2775253286	 3.3985366785	 0.103514
H	 1.4335458199	-3.7300692989	 2.4056960243	 0.143058
H	 1.8086550539	-0.195990819	 1.1987150159	 0.096266
H	 0.3418128545	-0.0777564111	 2.1597994131	 0.096267
65.8365	127.1937	182.8756	213.2165	226.0146	252.045	305.0447	367.9624	403.3603	421.0748	433.259	543.7884	582.6603	674.9923	715.798	769.2357	858.2893	889.4833	917.4343	955.962	969.4311	1024.6516	1058.1973	1087.2991	1120.5329	1136.6009	1161.7223	1200.6556	1209.9203	1281.1863	1290.2495	1300.277	1334.7879	1352.1354	1381.9262	1390.8552	1401.8769	1407.7523	1412.7571	1480.7562	1489.9104	1494.2462	1497.1782	1502.1933	1504.6587	1526.1385	1776.4479	2965.8743	2992.8456	3001.4117	3013.6306	3029.1408	3039.5863	3045.5249	3057.0058	3094.4229	3101.9111	3104.8885	3144.0535	3598.108
CC1CNC(=O)C(C)C1	C[C@H]1CNC(=O)[C@@H](C)C1	
InChI=1S/C7H13NO/c1-5-3-6(2)7(9)8-4-5/h5-6H,3-4H2,1-2H3,(H,8,9)	InChI=1S/C7H13NO/c1-5-3-6(2)7(9)8-4-5/h5-6H,3-4H2,1-2H3,(H,8,9)/t5-,6+/m1/s1
