13
gdb 49335	2.4109	1.82369	1.04516	3.8825	61.69	-0.287	-0.0546	0.2324	1036.5802	0.089472	-489.949514	-489.94183	-489.940885	-489.982538	26.864	
N	-0.1163587144	 1.2775106507	 0.0072494436	-0.518788
C	 0.0053479236	 0.0221496071	 0.0001102761	 0.367405
C	-1.1760202638	-0.9244506682	 0.0023353749	-0.152117
O	-0.6142516334	-2.2374116294	-0.0073224042	-0.239124
C	 0.7397829582	-2.1984238398	-0.0153898015	 0.52092
O	 1.4428757332	-3.1537888288	-0.0237993988	-0.325976
N	 1.1343253624	-0.8250658123	-0.0107464345	-0.248322
C	 2.4666377387	-0.3808888754	-0.0165346671	 0.172062
O	 3.4338468083	-1.0839031705	-0.0254924183	-0.243112
H	 0.7641377796	 1.7886471738	 0.0047279754	 0.237466
H	-1.7900221642	-0.7940442883	 0.8973057988	 0.164341
H	-1.8003418545	-0.7853721837	-0.884156436	 0.16432
H	 2.5132483862	 0.7224078647	-0.0115328483	 0.100923
65.072	119.9223	174.0058	205.1181	220.4547	365.2028	477.7799	541.7722	584.2308	635.6233	715.8853	767.026	788.613	863.4546	990.5988	1018.8947	1034.4411	1081.9362	1113.9639	1171.961	1207.2445	1215.9223	1358.9102	1385.9108	1450.3334	1497.7609	1776.9454	1833.0362	1942.3198	2976.0122	3069.5495	3116.7324	3507.116
N=C1COC(=O)N1C=O	[NH][C]1COC(=O)N1C=O	
InChI=1S/C4H4N2O3/c5-3-1-9-4(8)6(3)2-7/h2,5H,1H2	InChI=1S/C4H4N2O3/c5-3-1-9-4(8)6(3)2-7/h2,5H,1H2
