22
gdb 111315	2.34388	1.3423	1.13852	2.5243	81.42	-0.2237	0.0676	0.2913	1226.7165	0.192477	-404.305131	-404.295444	-404.294499	-404.339144	37.174	
C	-0.0079131822	 1.6793755969	-0.0736536313	-0.377831
C	-0.1497271708	 0.1531474605	-0.0318204949	-0.206292
C	 0.6482279361	-0.5270579984	-1.1344756693	 0.010151
N	 2.1538871841	-0.3467248014	-1.1090262794	-0.141733
C	 2.6637947268	-1.1045190659	 0.0496053435	-0.260535
C	 2.291153482	-1.8567316226	-1.1605428736	-0.050897
C	 0.784189464	-2.0888278589	-1.2535596053	 0.367311
C	 0.1145054702	-2.9990881958	-0.231707992	-0.45852
O	 0.5083720994	-2.5439656997	-2.5716556412	-0.476447
H	 1.0409202698	 1.9740128117	 0.0240383509	 0.137961
H	-0.3763657974	 2.0829528739	-1.0229637165	 0.116578
H	-0.5735042273	 2.1520670275	 0.7349393928	 0.108654
H	 0.1527344359	-0.2161462016	 0.9549714699	 0.093959
H	-1.2052826648	-0.127689941	-0.146136545	 0.094084
H	 0.3146296408	-0.1542818169	-2.1081981098	 0.08324
H	 3.7214048553	-0.9306697012	 0.2236978481	 0.122511
H	 2.074216005	-1.1857762911	 0.95836093	 0.108517
H	 3.0071244825	-2.3452844198	-1.8130610281	 0.101088
H	 0.3487160101	-2.7171068291	 0.797728313	 0.117795
H	-0.97693634	-2.9627082597	-0.3401818723	 0.107488
H	 0.4360342157	-4.0329683427	-0.3901887501	 0.127693
H	-0.4481980651	-2.5970676048	-2.6731416094	 0.275226
78.5824	148.4575	163.1916	208.3384	219.277	259.0592	273.9456	312.4666	322.5684	382.9506	480.0017	514.7358	538.4168	632.1162	739.4521	760.3062	794.209	833.7205	904.0248	928.4692	962.7868	969.1334	995.3604	1048.8108	1057.3831	1107.0498	1111.357	1120.2186	1123.2206	1147.287	1194.0299	1202.8077	1223.4758	1269.1877	1284.7801	1331.3035	1341.5861	1386.1392	1401.7724	1408.9557	1412.6031	1480.8378	1485.9796	1492.5389	1497.1238	1504.9577	1513.085	3020.2013	3026.441	3036.9249	3047.1466	3064.6648	3093.1147	3103.8628	3116.0661	3116.3916	3122.7116	3170.186	3198.7499	3803.1411
CCC1N2CC2C1(C)O	CC[C@H]1N2C[C@H]2[C@]1(C)O	
InChI=1S/C7H13NO/c1-3-5-7(2,9)6-4-8(5)6/h5-6,9H,3-4H2,1-2H3	InChI=1S/C7H13NO/c1-3-5-7(2,9)6-4-8(5)6/h5-6,9H,3-4H2,1-2H3/t5-,6+,7-,8?/m1/s1
