17
gdb 85537	2.42789	1.74748	1.16411	4.6701	68.56	-0.2654	0.0128	0.2782	1056.5415	0.135856	-458.99061	-458.982685	-458.981741	-459.023472	29.746	
C	-0.0304577239	 1.5069558036	-0.0587296308	-0.395038
C	 0.1493421913	-0.0038650984	 0.0312921875	 0.100148
O	 0.6763973392	-0.4208907703	-1.24072072	-0.239056
C	 1.4658081588	-1.5056685329	-1.4290878514	 0.417554
O	 1.8267815388	-1.775368856	-2.540464721	-0.320397
C	 1.8412609987	-2.3533006641	-0.2211031129	-0.39183
C	 1.8700042325	-1.5932146232	 1.0771614609	 0.046891
O	 2.4296762261	-0.2715199104	 1.0210432903	-0.25054
C	 1.0202040577	-0.4131349033	 1.1982888887	 0.025799
H	 0.944262734	 1.9934076506	-0.1487619955	 0.147176
H	-0.633443285	 1.7624462712	-0.9328086871	 0.138077
H	-0.5334659341	 1.8841778259	 0.8368148803	 0.119123
H	-0.8309729647	-0.4857583462	 0.1631356146	 0.097259
H	 1.111690246	-3.170955456	-0.1439617334	 0.141628
H	 2.8058468568	-2.8140521564	-0.4480942803	 0.152574
H	 2.1380277069	-2.1585037141	 1.968611785	 0.104869
H	 0.6392124207	-0.1104619598	 2.1738044351	 0.105764
70.1827	100.8208	213.5346	250.4182	310.0315	329.3571	454.4655	465.1822	529.4492	568.231	653.159	699.8124	774.544	840.1179	877.7635	899.8271	955.2788	996.3175	1018.6153	1048.1292	1075.4091	1120.0314	1144.5557	1172.6437	1205.4088	1236.2414	1288.0951	1342.8813	1345.8673	1379.1439	1386.8905	1408.8515	1453.4151	1484.5461	1496.6436	1500.1003	1849.5513	2997.626	3033.7274	3049.2715	3105.331	3111.6351	3124.8875	3127.58	3138.3909
CC1OC(=O)CC2OC12	C[C@H]1OC(=O)C[C@H]2O[C@@H]12	
InChI=1S/C6H8O3/c1-3-6-4(9-6)2-5(7)8-3/h3-4,6H,2H2,1H3	InChI=1S/C6H8O3/c1-3-6-4(9-6)2-5(7)8-3/h3-4,6H,2H2,1H3/t3-,4-,6+/m1/s1
