16
gdb 29135	3.18087	1.37934	0.9679	2.54	79.17	-0.201	-0.0339	0.1671	1172.4934	0.125113	-437.93372	-437.925849	-437.924905	-437.965923	30.4	
C	-0.2453403911	 1.5336074773	 0.0335242891	-0.487035
C	 0.0112234009	 0.0518168925	 0.0026556643	 0.218276
C	 0.1432240212	-0.6128273108	-1.1583981761	-0.045287
O	 0.3772003459	-1.9606473741	-1.2272506363	-0.224962
C	 0.490599681	-2.7129750854	-0.0995891402	 0.336681
N	 0.7081682864	-3.9709826009	-0.1053683022	-0.591869
C	 0.3532889785	-2.0280329969	 1.1842990087	 0.309633
O	 0.4739285159	-2.8179234348	 2.2615169732	-0.420016
C	 0.122449589	-0.6965910454	 1.2323449507	-0.269989
H	 0.5502279602	 2.0608137981	 0.5726218237	 0.135246
H	-0.3025496487	 1.950259909	-0.9753477556	 0.126292
H	-1.1867111633	 1.760601303	 0.5471342083	 0.135244
H	 0.0826697085	-0.1781930876	-2.1463973341	 0.127809
H	 0.7882424431	-4.3540437776	-1.0442976242	 0.229684
H	 0.6337031747	-3.7114128095	 1.8981801546	 0.30923
H	 0.0219554878	-0.1968223169	 2.1892231759	 0.111062
118.6994	164.4511	205.137	280.8093	335.0418	340.3377	411.6147	464.0218	502.7017	582.4148	590.5275	644.7325	676.6697	771.2853	802.7462	812.8138	824.1425	898.0478	991.9509	1000.1359	1052.7307	1066.2681	1168.4324	1203.5281	1225.98	1329.1241	1334.4462	1407.8534	1420.4066	1478.3447	1486.481	1496.9203	1640.4378	1696.2837	1731.5438	3027.9954	3080.0247	3116.3273	3196.3971	3233.3038	3528.1149	3579.1811
CC1=COC(=N)C(O)=C1	CC1=COC(=C(O)C1)[NH]	
InChI=1S/C6H7NO2/c1-4-2-5(8)6(7)9-3-4/h2-3,7-8H,1H3	InChI=1S/C6H8NO2/c1-4-2-5(8)6(7)9-3-4/h3,7-8H,2H2,1H3
