16
gdb 29486	3.2642	1.64221	1.10001	2.6288	78.11	-0.1835	0.0215	0.205	1055.9222	0.126813	-400.792491	-400.785139	-400.784194	-400.824046	28.717	
C	-0.0169371078	 1.5419775153	-0.0027671481	-0.512479
C	-0.0073932748	 0.0465471128	 0.0295090031	 0.095508
C	-0.032014584	-0.8011141933	-1.0435446164	-0.109489
O	-0.0143817159	-2.131129516	-0.6911781546	-0.217175
C	 0.0228698977	-2.1331912943	 0.6679007806	 0.353025
C	 0.0286348338	-0.8416346649	 1.153908733	 0.195345
N	 0.0667573269	-0.9278580083	 2.5243403655	-0.406679
C	 0.0842972478	-2.2676633895	 2.8732289441	-0.067324
C	 0.0575782662	-3.0567778833	 1.7374101633	-0.325452
H	 0.8764300269	 1.9631421877	 0.4739033145	 0.126104
H	-0.0479554987	 1.9108053817	-1.0315647208	 0.129445
H	-0.8869751812	 1.952919743	 0.5233987946	 0.126078
H	-0.0623596449	-0.606812732	-2.1035989884	 0.128356
H	 0.0800505113	-0.1654022683	 3.1768168853	 0.260584
H	 0.1145973897	-2.5589314165	 3.9109404555	 0.118669
H	 0.063151407	-4.1338859342	 1.7109528488	 0.105484
149.5163	169.1883	231.401	249.1537	348.1956	402.3023	514.0846	588.3191	598.459	612.0797	681.8628	686.2343	717.6496	747.4963	787.5967	800.8524	928.0022	1007.5108	1058.2831	1064.4526	1066.8527	1122.9309	1135.9184	1228.6058	1260.6529	1319.8182	1380.3961	1420.9131	1465.7339	1476.0625	1482.1037	1496.2273	1558.0359	1580.8566	1625.9879	3022.093	3068.6605	3110.5872	3257.7529	3269.6368	3275.9008	3696.0827
CC1=COC2=C1NC=C2	Cc1coc2c1[nH]cc2	
InChI=1S/C7H7NO/c1-5-4-9-6-2-3-8-7(5)6/h2-4,8H,1H3	InChI=1S/C7H7NO/c1-5-4-9-6-2-3-8-7(5)6/h2-4,8H,1H3
