23
gdb 84091	2.24944	1.43208	1.0805	1.4758	87.7	-0.2401	0.0201	0.2603	1258.0093	0.204896	-388.315626	-388.305534	-388.304589	-388.349966	38.408	
C	 0.631846788	 1.594087171	-0.139491493	-0.387614
C	 0.1463598019	 0.1388608188	-0.0091272321	-0.04584
C	 0.5789339957	-0.7062898068	-1.1857061413	-0.166472
C	 1.4971646214	-1.6261850181	-0.8761585973	 0.281908
C	 2.1869845053	-2.5903389887	-1.789049844	-0.497573
C	 1.8699345225	-1.5291447703	 0.5907246918	 0.034676
O	 3.1869153452	-0.9902236124	 0.7560444618	-0.433139
C	 0.7231584571	-0.6719320636	 1.1957982572	-0.020142
C	 1.1091411366	 0.1141666464	 2.4463250777	-0.399538
H	 1.7247056895	 1.6530665532	-0.1927908215	 0.10126
H	 0.2364988569	 2.0509515157	-1.0529940457	 0.112544
H	 0.3037572872	 2.2047533012	 0.7072284525	 0.11808
H	-0.9491689038	 0.1705499396	 0.0623937554	 0.072039
H	 0.1942198586	-0.5356321687	-2.1877937142	 0.084407
H	 1.8974180613	-2.4429766123	-2.8331496716	 0.11898
H	 3.2749063596	-2.4822582029	-1.7097452109	 0.134406
H	 1.957037929	-3.6280445515	-1.515149976	 0.12581
H	 1.9276223842	-2.507025287	 1.0825444283	 0.076997
H	 3.2566615337	-0.2224467557	 0.1781033749	 0.276079
H	-0.0583851046	-1.3902850225	 1.4735234255	 0.076573
H	 1.9342767538	 0.8043563097	 2.2554839505	 0.116322
H	 0.259746525	 0.690849807	 2.8276324553	 0.105912
H	 1.435509686	-0.5645791921	 3.2408538866	 0.114325
76.0803	141.1723	182.2961	204.9783	220.4113	235.6076	257.9544	266.5848	302.7998	350.0411	408.7845	468.2306	491.041	594.9896	636.2681	707.362	752.799	853.7432	870.7182	910.1254	941.7638	984.1887	996.5639	1021.9882	1036.145	1063.0142	1087.6595	1100.5866	1151.077	1156.9813	1202.6073	1238.7335	1273.6032	1308.0845	1319.8874	1348.766	1358.7426	1364.9464	1405.1898	1408.7297	1414.5789	1429.4694	1477.3797	1486.7237	1489.9739	1491.9701	1500.5961	1504.7784	1717.3783	3003.3685	3020.6427	3022.9356	3027.7109	3037.339	3047.1774	3072.3387	3092.1541	3097.9241	3105.573	3110.8166	3119.7124	3165.2295	3801.8633
CC1C=C(C)C(O)C1C	C[C@H]1C=C(C)[C@@H](O)[C@H]1C	
InChI=1S/C8H14O/c1-5-4-6(2)8(9)7(5)3/h4-5,7-9H,1-3H3	InChI=1S/C8H14O/c1-5-4-6(2)8(9)7(5)3/h4-5,7-9H,1-3H3/t5-,7-,8+/m0/s1
