15
gdb 97260	2.15599	0.87351	0.62371	3.0599	87.84	-0.1528	-0.0143	0.1385	1671.8459	0.106386	-453.921194	-453.909317	-453.908373	-453.961549	37.365	
N	 0.345762741	 1.2400324209	-0.4203509909	-0.536213
C	-0.2497174639	 0.632401964	 0.7049129507	-0.084373
N	-0.8255522675	-0.5463444225	 0.5218040682	-0.081775
H	-0.7588668069	-0.8687215118	-0.4437053096	 0.30147
C	-1.4709348617	-1.3795915871	 1.3650655255	-0.262278
C	-2.0005086021	-2.5897818248	 0.9258707052	 0.229205
C	-2.4786640313	-3.6538576038	 0.5895244871	-0.467166
C	-1.4519225437	-3.1010577295	-2.4167554594	 0.598888
O	-1.9480212714	-4.1321767086	-2.6075626169	-0.288351
O	-0.9443788788	-2.0638772071	-2.2599067196	-0.298878
H	-0.0706643806	 2.138745667	-0.648359134	 0.242046
H	 1.3432264469	 1.395103607	-0.3016519225	 0.242045
H	-0.2705810811	 1.0571697363	 1.7040812447	 0.104318
H	-1.5567517227	-1.0629203713	 2.3959608624	 0.113747
H	-2.8959890862	-4.5839336886	 0.296396099	 0.187317
28.3583	37.2184	63.7203	82.0736	95.7984	103.9757	119.601	149.4476	165.9239	315.586	328.3436	481.9764	509.4443	594.5721	596.0258	657.1897	666.0588	674.2569	684.2862	801.6612	1006.678	1068.9003	1145.4053	1192.2336	1295.9833	1305.6467	1378.887	1398.2393	1464.0454	1641.7973	1683.1859	2171.1382	2432.541	3162.6413	3207.2533	3467.5379	3495.7374	3507.0319	3517.8564
NC=[NH+]C(C#C)C([O-])=O	[NH2]=C[NH]=CC#C.C(=O)=O	
InChI=1S/C5H6N2O2/c1-2-4(5(8)9)7-3-6/h1,3-4H,(H2,6,7)(H,8,9)	InChI=1S/C4H6N2.CO2/c1-2-3-6-4-5;2-1-3/h1,3-4,6H,5H2;
