12
gdb 133385	3.16532	1.42231	0.98227	5.4442	61.43	-0.2465	-0.0778	0.1687	1064.8987	0.076641	-513.911931	-513.904571	-513.903626	-513.943838	27.663	
N	 0.0499602382	 1.3899637293	 0.145140622	-0.559165
C	-0.0077130744	 0.0195921347	 0.0348196303	 0.295648
N	-1.1625329893	-0.5674540725	 0.0101204396	-0.159173
O	-1.1783516451	-1.9591560573	 0.0048308407	-0.26444
C	-0.0480411878	-2.7603403455	-0.0131961612	 0.46995
O	-0.1960928971	-3.9523848979	-0.0215852756	-0.335554
C	 1.2309776213	-2.0593124783	-0.0252395929	-0.402928
C	 1.2353829814	-0.7236427737	 0.0019674914	 0.310822
F	 2.3523030153	-0.0036414102	-0.014261498	-0.05601
H	 0.857152164	 1.8313108083	-0.2673582439	 0.269901
H	-0.8264142261	 1.8602578679	-0.0303118458	 0.2741
H	 2.1357466794	-2.6509870849	-0.0544999768	 0.15685
102.4405	189.9093	279.8649	322.161	364.6866	379.9324	419.9455	444.4055	530.6221	574.8644	596.5295	718.2405	719.8758	745.5421	807.0656	884.6945	902.4805	985.412	1144.0964	1202.7268	1238.8737	1291.3203	1488.0743	1608.3492	1633.7832	1723.1801	1838.9629	3236.7855	3575.7986	3690.8513
NC1=NOC(=O)C=C1F	Nc1noc(=O)cc1F	
InChI=1S/C4H3FN2O2/c5-2-1-3(8)9-7-4(2)6/h1H,(H2,6,7)	InChI=1S/C4H3FN2O2/c5-2-1-3(8)9-7-4(2)6/h1H,(H2,6,7)
