18
gdb 71649	3.2685	1.91901	1.67359	1.8042	73.02	-0.2219	0.0679	0.2898	873.0681	0.149424	-401.892275	-401.885755	-401.88481	-401.922694	27.589	
C	 0.0256910302	 1.5349558278	-0.0618577878	-0.485102
C	-0.0024298836	 0.0322205471	 0.0600455302	 0.402006
C	-1.3539177701	-0.6734359852	-0.0564398274	-0.186029
N	-1.1826074657	-1.9985755105	 0.5692547269	-0.118648
C	 0.1397252339	-2.6289486829	 0.41678438	-0.075489
C	-0.2421834737	-1.8866589835	 1.6716704814	-0.076543
C	 0.6938374032	-0.7216517162	 1.2556693505	-0.169321
C	 1.2394327277	-1.5776919111	 0.1009883191	 0.106411
O	 0.8863462194	-0.6237503639	-0.9104169581	-0.340981
H	 1.0488742598	 1.9102188008	 0.0245047538	 0.126904
H	-0.3691161605	 1.849412954	-1.0337153998	 0.130964
H	-0.5856576185	 1.9947163501	 0.7217083432	 0.1198
H	-2.1450813545	-0.1491720726	 0.4920517946	 0.09972
H	-1.649339723	-0.7756948823	-1.1037395586	 0.118174
H	 0.1614019046	-3.6898174441	 0.1938476424	 0.09368
H	-0.4986328845	-2.2342519119	 2.6647760126	 0.095433
H	 1.3182474496	-0.1775529194	 1.9585667406	 0.077347
H	 2.2622366756	-1.9521665262	 0.0287492964	 0.081675
195.6889	251.5704	261.3459	380.111	433.4875	533.0132	578.4182	685.1099	723.6547	750.3454	766.3669	809.8453	839.8698	881.4075	897.9108	911.7117	932.9407	942.5202	968.0313	990.9953	1007.8286	1035.6004	1052.9603	1134.9039	1141.7535	1166.3041	1195.7792	1202.7354	1234.5701	1244.1139	1266.4243	1270.6608	1311.7738	1329.0136	1379.0248	1408.2381	1477.9449	1479.6428	1493.9981	3034.6145	3040.9672	3095.597	3103.7992	3108.6074	3117.5707	3157.8818	3171.2434	3191.6643
CC12CN3C4C3C1C4O2	C[C@]12CN3[C@@H]4[C@H]3[C@H]1[C@@H]4O2	
InChI=1S/C7H9NO/c1-7-2-8-4-3(7)6(9-7)5(4)8/h3-6H,2H2,1H3	InChI=1S/C7H9NO/c1-7-2-8-4-3(7)6(9-7)5(4)8/h3-6H,2H2,1H3/t3-,4+,5+,6-,7-,8?/m0/s1
