15
gdb 20568	4.63113	1.43672	1.3334	4.2958	62.44	-0.2597	-0.0087	0.251	943.6594	0.119977	-395.97931	-395.971806	-395.970861	-396.011892	27.231	
C	 0.0324888462	 1.5322044303	-0.1528309915	-0.391222
C	 0.0626784565	 0.007752919	 0.0246227487	 0.026702
O	 0.7052350172	-0.3541647062	 1.2386050926	-0.43223
C	-1.32018126	-0.5824776366	-0.0284496034	 0.336629
C	-2.0059959392	-1.2470081398	-1.0158657045	-0.196866
N	-3.2091824899	-1.5164582936	-0.4522957218	-0.149831
N	-3.2789961357	-1.0610870202	 0.8093271859	-0.109299
N	-2.1364265749	-0.4925819874	 1.0631534327	-0.266172
H	 1.0461634617	 1.9316736622	-0.0635649906	 0.123121
H	-0.3728993604	 1.8089742767	-1.1318661906	 0.108836
H	-0.5955327606	 1.9890246211	 0.6184496029	 0.12912
H	 0.6672187617	-0.4331065466	-0.7765381624	 0.088215
H	 0.0491762071	-0.248827735	 1.9390425833	 0.295216
H	-1.7523790915	-1.541043765	-2.0201541898	 0.152039
H	-4.0007676983	-2.0008175789	-0.8450114115	 0.28574
33.499	150.027	199.0472	260.5952	341.4182	363.8357	441.7933	505.66	580.6381	691.2743	699.0961	752.8443	799.5381	902.7682	991.8226	1010.2367	1041.9078	1059.0645	1094.4036	1114.6177	1133.3825	1251.5682	1270.2697	1321.1623	1344.7165	1377.8042	1397.2655	1435.8307	1484.4133	1489.2247	1495.66	1592.9711	3035.4586	3043.2792	3109.3753	3124.1079	3285.0198	3656.8061	3781.2464
CC(O)C1=CNN=N1	C[C@@H](O)c1c[nH]nn1	
InChI=1S/C4H7N3O/c1-3(8)4-2-5-7-6-4/h2-3,8H,1H3,(H,5,6,7)	InChI=1S/C4H7N3O/c1-3(8)4-2-5-7-6-4/h2-3,8H,1H3,(H,5,6,7)/t3-/m1/s1
