17
gdb 103396	2.3561	1.51735	1.32069	1.2965	68.06	-0.2421	-0.0358	0.2063	1053.3926	0.133001	-458.930656	-458.921706	-458.920762	-458.964309	32.827	
C	 0.1460834002	 1.520691268	 0.0643060141	-0.406082
C	 0.0575136917	-0.0023647938	-0.0924796198	-0.236961
C	-1.3706392135	-0.5230913376	-0.0153024555	 0.268721
O	-2.2035751636	-0.0431408529	-1.0558403739	-0.484851
C	-1.5734212048	-2.0451066974	 0.1348867662	-0.000021
O	-0.9336459101	-2.4088973722	 1.3459811005	-0.231316
C	-2.2962397008	-1.9294666277	 1.4305040602	-0.122517
C	-2.1828294314	-0.4184944725	 1.3376620463	 0.370478
O	-2.7046713697	 0.5082782299	 1.8856880058	-0.315969
H	 1.1874548982	 1.8521545822	 0.0303517836	 0.120871
H	-0.3854666754	 2.0335310419	-0.7442688779	 0.114124
H	-0.2841005398	 1.8496139393	 1.0151792149	 0.139162
H	 0.4746601573	-0.3025781073	-1.0620780411	 0.105676
H	 0.645814435	-0.4993282736	 0.6850438661	 0.120585
H	-2.4669458745	 0.8568427356	-0.8314059985	 0.299357
H	-1.7066889503	-2.7872854083	-0.6425171233	 0.12865
H	-3.0277956082	-2.5731822537	 1.9034368623	 0.130093
89.0337	99.8261	168.3377	192.0144	242.8434	261.2839	295.881	316.3943	406.9198	498.7992	534.1889	665.1459	686.1122	763.9373	813.7335	849.0105	858.7552	907.5493	950.411	985.5666	1021.9414	1025.3715	1069.4873	1102.229	1173.2137	1186.0994	1218.5305	1245.9341	1307.7176	1328.3981	1346.5978	1391.5535	1411.6057	1479.8438	1499.0484	1512.2834	1885.1887	3030.0406	3039.3947	3084.5927	3109.1602	3118.0632	3196.1962	3209.8668	3802.8074
CCC1(O)C2OC2C1=O	CC[C@@]1(O)[C@H]2O[C@H]2C1=O	
InChI=1S/C6H8O3/c1-2-6(8)4(7)3-5(6)9-3/h3,5,8H,2H2,1H3	InChI=1S/C6H8O3/c1-2-6(8)4(7)3-5(6)9-3/h3,5,8H,2H2,1H3/t3-,5-,6-/m0/s1
