17
gdb 71921	2.52136	2.13589	1.47857	2.63	73.53	-0.2313	-0.0061	0.2252	920.3501	0.136541	-417.943057	-417.93579	-417.934846	-417.974465	28.738	
C	-0.050749229	 1.5380773373	 0.0121708118	-0.50179
C	 0.1085172063	 0.0503366416	 0.0731072344	 0.3636
O	-1.1730943627	-0.6705644811	 0.1160747307	-0.332079
C	-0.6544559002	-1.6728849334	 1.0171037921	 0.089042
C	 0.1758716184	-2.7304299221	 0.2610401404	-0.200397
N	 1.3345474239	-1.7529175565	 0.1437340668	-0.203842
C	 0.6536716672	-0.8770049173	 1.1977558707	-0.099504
C	 1.0157007715	-0.7427603056	-0.8611591104	 0.355725
N	 1.3832346162	-0.57779988	-2.0506847307	-0.539767
H	 0.9261717493	 2.0288007735	 0.0468313036	 0.133167
H	-0.5359700254	 1.8155467743	-0.9286055448	 0.151696
H	-0.6650880323	 1.8976394366	 0.8420787574	 0.126729
H	-1.3846112386	-1.9657481287	 1.7736980808	 0.089805
H	 0.4744816287	-3.5723402007	 0.893244173	 0.118902
H	-0.2169977025	-3.0942505229	-0.6916452681	 0.127565
H	 1.1919007587	-0.6040052597	 2.1016044092	 0.095758
H	 1.9945782604	-1.3431034052	-2.349524357	 0.225392
144.5777	183.0457	226.1397	262.4802	295.3637	425.8823	460.2194	615.6297	635.0279	712.919	771.8015	815.9181	834.5729	839.7669	861.6775	899.6827	921.6653	930.3539	980.1295	987.6111	1015.3401	1051.647	1122.6744	1142.1938	1158.6017	1184.8787	1195.218	1233.7668	1255.8383	1300.1905	1311.6848	1356.9221	1414.6653	1475.7818	1483.0834	1483.9602	1800.7092	3044.5728	3050.7014	3096.2591	3118.0548	3119.5472	3124.5785	3153.3073	3436.111
CC12OC3CN(C13)C2=N	C[C@]12O[C@H]3CN([C@@H]13)[C]2[NH]	
InChI=1S/C6H8N2O/c1-6-4-3(9-6)2-8(4)5(6)7/h3-4,7H,2H2,1H3	InChI=1S/C6H8N2O/c1-6-4-3(9-6)2-8(4)5(6)7/h3-4,7H,2H2,1H3/t3-,4+,6-/m0/s1
