19
gdb 71484	2.14676	2.02547	1.72218	1.2775	79.47	-0.2154	0.0112	0.2266	940.1645	0.15901	-385.841437	-385.833644	-385.8327	-385.872969	31.971	
C	-0.0087869174	 1.5434052483	-0.0257315101	-0.517601
C	 0.0176791082	 0.0303663704	-0.0082115227	 0.291592
C	 0.8126151972	-0.6992052424	-1.0855263541	-0.162181
C	 0.6528687784	-1.9947845394	-0.8119787925	-0.112662
C	-0.2316901846	-1.9996555746	 0.4144800285	-0.138019
C	 0.2297390718	-0.8061318974	 1.3221802764	-0.080232
C	-1.2299310263	-0.5468552789	 1.7576635147	-0.335127
C	-1.2886000231	-0.8232668793	 0.2350037039	 0.374055
O	-2.3813875843	-0.7654675283	-0.6026884167	-0.473958
H	 1.0057609768	 1.9512086657	 0.0427371913	 0.117121
H	-0.4505121154	 1.9085077159	-0.9591379165	 0.128282
H	-0.5910831292	 1.9619774382	 0.7998131212	 0.116904
H	 1.3626547435	-0.2238557902	-1.886232825	 0.095889
H	 1.0328620239	-2.8618875328	-1.3334237829	 0.100211
H	-0.5391598822	-2.9355644727	 0.883537932	 0.057179
H	 1.1224288959	-0.7938817058	 1.9479698562	 0.074944
H	-1.6800936803	-1.3038178482	 2.4074641193	 0.083798
H	-1.4868483735	 0.4589410714	 2.0967865945	 0.095418
H	-3.1069378393	-1.2546053999	-0.1999291977	 0.284389
173.1444	196.7608	207.4377	269.7577	319.2598	341.1202	448.832	462.8258	548.1477	626.5342	639.6331	711.8854	737.8392	754.4064	802.3182	825.5928	885.6986	902.4235	927.5188	949.6744	972.8956	984.4623	1028.8407	1066.4606	1068.4166	1094.661	1121.1761	1162.5501	1182.3916	1190.3399	1207.0404	1252.9272	1288.6021	1296.4049	1334.4699	1372.1121	1413.1522	1490.5622	1493.5203	1519.4417	1638.2284	3032.9972	3049.7795	3093.0411	3105.0422	3107.2649	3114.3552	3119.5814	3214.9383	3243.0345	3807.9809
CC12C=CC3C1CC23O	C[C@@]12C=C[C@H]3[C@@H]1C[C@@]23O	
InChI=1S/C8H10O/c1-7-3-2-5-6(7)4-8(5,7)9/h2-3,5-6,9H,4H2,1H3	InChI=1S/C8H10O/c1-7-3-2-5-6(7)4-8(5,7)9/h2-3,5-6,9H,4H2,1H3/t5-,6-,7+,8-/m0/s1
