21
gdb 91577	2.67638	1.18224	0.97032	2.6123	83.27	-0.239	-0.0201	0.2189	1290.767	0.181107	-387.077082	-387.067808	-387.066864	-387.111853	34.491	
C	-0.1516443227	 1.536579763	-0.1408534692	-0.417826
C	 0.1037212822	 0.0343005849	-0.1541095336	-0.023438
C	 1.3412738183	-0.5359776927	-0.9317998053	-0.24769
C	 1.8004964892	-1.2449127951	 0.346850992	-0.114846
C	 2.032530449	-0.2319013075	 1.4320702798	-0.330061
C	 0.6180320179	-0.6590758086	 1.1261507641	 0.354053
C	-0.2818781878	-1.2993777208	 2.1557890166	-0.392816
C	-0.9339527179	-0.2567881286	 3.043472804	 0.168391
O	-2.1215345785	-0.1012421533	 3.1678536519	-0.242187
H	 0.7264615676	 2.0959063285	 0.1982931072	 0.11363
H	-0.4054093428	 1.8974652535	-1.1436508833	 0.116358
H	-0.9864899428	 1.7882218756	 0.522581435	 0.126961
H	-0.8008774387	-0.480654942	-0.4952642613	 0.078709
H	 1.0565006858	-1.213816071	-1.739086035	 0.103758
H	 2.042158437	 0.2056396335	-1.3308858327	 0.095758
H	 2.2133018223	-2.2453682885	 0.4027946703	 0.08697
H	 2.4397881304	-0.6265771283	 2.358162855	 0.109037
H	 2.3900471076	 0.7652206899	 1.186543899	 0.108828
H	-1.0708424409	-1.8985185059	 1.6893112782	 0.116754
H	 0.3155872996	-1.9585206698	 2.8017583014	 0.115005
H	-0.209368135	 0.3958449331	 3.5835744657	 0.074655
46.1551	69.7208	130.7144	200.533	218.6029	268.6638	313.0851	342.6504	434.323	461.3999	516.7107	650.6494	683.4919	803.9197	820.8591	845.719	873.1452	901.8726	931.1111	970.5399	989.7661	1024.573	1039.5472	1065.1403	1083.0916	1093.039	1113.7832	1145.7834	1180.8941	1184.0617	1236.4807	1252.5759	1267.8753	1304.7294	1312.0268	1365.4613	1393.7897	1413.6635	1425.7495	1455.2542	1482.7387	1495.6254	1496.2109	1505.561	1831.053	2864.537	3013.0358	3028.3472	3041.8386	3042.0644	3083.6017	3094.2239	3098.7221	3107.6018	3109.5469	3176.8949	3193.9896
CC1CC2CC12CC=O	C[C@H]1C[C@H]2C[C@@]12CC=O	
InChI=1S/C8H12O/c1-6-4-7-5-8(6,7)2-3-9/h3,6-7H,2,4-5H2,1H3	InChI=1S/C8H12O/c1-6-4-7-5-8(6,7)2-3-9/h3,6-7H,2,4-5H2,1H3/t6-,7-,8-/m0/s1
