21
gdb 76195	2.20424	1.42154	1.18268	1.9977	79.33	-0.2266	0.0669	0.2935	1181.7298	0.180067	-424.193726	-424.183809	-424.182865	-424.228204	37.28	
C	-0.0674076343	 1.5513853453	 0.0242019881	-0.459016
C	 0.0037838623	 0.0432165168	 0.032541241	 0.248248
O	-1.1623190129	-0.6150147143	-0.3985298735	-0.457926
C	 1.3234937344	-0.6657376815	-0.2362337807	-0.063937
O	 2.5145404367	 0.0570283816	-0.3748838785	-0.414655
C	 0.7128768162	-0.684963391	 1.137888351	 0.320492
C	 1.3728281351	-0.1167734701	 2.4014233055	-0.297522
C	 1.1500143061	-1.501434384	 3.0825715678	-0.20957
C	 0.2447168564	-1.935608018	 1.8906338446	-0.290782
H	 0.884232259	 1.9887624783	 0.3342764589	 0.133641
H	-0.296891025	 1.9248678933	-0.9827900847	 0.098326
H	-0.8548998638	 1.9062494834	 0.6967574977	 0.125262
H	-1.2842293204	-0.424855306	-1.3357305042	 0.276298
H	 1.2632782738	-1.5925824938	-0.8105172683	 0.082408
H	 2.5296293028	 0.4519976861	-1.2529912298	 0.28727
H	 2.4067926515	 0.2146002487	 2.2863860539	 0.115646
H	 0.7953893049	 0.6894174917	 2.8645039858	 0.097333
H	 2.0702521536	-2.0868817375	 3.1462093751	 0.104373
H	 0.6810093234	-1.4875561027	 4.0688001125	 0.09607
H	-0.8232613316	-1.9078500416	 2.1228437194	 0.110873
H	 0.4705774918	-2.8986902546	 1.4254880384	 0.097167
59.8392	143.2562	164.2415	181.5036	216.3942	237.58	255.6783	301.6505	309.2463	382.3817	419.6729	520.3493	549.2898	593.274	708.1078	725.5038	794.2116	854.6797	879.549	938.3571	945.0151	975.4827	994.8349	1048.7222	1076.6723	1108.1422	1136.5102	1166.9256	1174.9132	1212.3035	1236.1446	1248.2202	1251.0319	1267.9944	1274.8941	1285.0658	1311.6566	1353.6662	1407.2935	1464.8986	1477.5898	1481.1715	1489.1705	1504.681	1509.2351	3017.2386	3051.6528	3056.6725	3067.0935	3079.3409	3082.8267	3097.9954	3109.5352	3124.702	3128.6657	3785.2508	3802.4418
CC1(O)C(O)C11CCC1	C[C@@]1(O)[C@@H](O)C21CCC2	
InChI=1S/C7H12O2/c1-6(9)5(8)7(6)3-2-4-7/h5,8-9H,2-4H2,1H3	InChI=1S/C7H12O2/c1-6(9)5(8)7(6)3-2-4-7/h5,8-9H,2-4H2,1H3/t5-,6-/m1/s1
