15
gdb 48950	3.82684	1.3939	1.34628	1.7547	64.91	-0.2506	-0.027	0.2236	954.7144	0.113814	-457.757126	-457.750611	-457.749666	-457.788291	25.532	
O	-0.1454702656	 0.0490609234	 0.2161973435	-0.26398
C	 0.0300181348	 1.2090948395	-0.0754825425	 0.046637
C	 1.324202279	 1.8904960541	-0.0248805663	 0.151925
C	 2.6428262718	 1.2669029446	 0.3956571936	-0.29609
C	 3.4521963205	 2.5609226006	 0.1842197151	 0.141213
O	 3.1470672466	 2.9222270684	-1.1638157516	-0.242494
C	 1.7477981816	 2.9915963114	-1.0391684633	-0.001115
C	 1.4847902288	 3.3864916148	 0.3710757129	-0.001133
O	 2.7483698988	 3.5209194621	 0.9740785594	-0.242506
H	-0.8179772333	 1.8492081283	-0.4131743193	 0.065182
H	 2.6499748738	 0.9364692809	 1.4352403881	 0.131428
H	 2.9668248486	 0.4606474134	-0.2638462601	 0.131435
H	 4.5204019916	 2.5976987103	 0.3731287551	 0.113528
H	 1.2012883149	 3.2746439513	-1.9261081581	 0.132986
H	 0.701819768	 4.024619997	 0.7521299935	 0.132983
100.3165	179.3097	254.456	426.0064	441.1751	555.831	598.2838	680.1672	684.4682	780.3163	821.7918	834.0912	878.0157	905.2078	933.1452	984.3179	1009.5267	1015.471	1038.6902	1051.0645	1072.0013	1090.1835	1150.4076	1153.6092	1231.8456	1253.3433	1282.6066	1326.6482	1347.9678	1383.9573	1441.5779	1477.8578	1799.4791	2857.1339	3091.6302	3151.4598	3191.9602	3237.4017	3245.8254
O=CC12CC3OC1C2O3	O=C[C@@]12C[C@H]3O[C@@H]1[C@@H]2O3	
InChI=1S/C6H6O3/c7-2-6-1-3-8-4(6)5(6)9-3/h2-5H,1H2	InChI=1S/C6H6O3/c7-2-6-1-3-8-4(6)5(6)9-3/h2-5H,1H2/t3-,4+,5-,6-
