17
gdb 117880	2.32923	0.75737	0.59946	3.4068	77.34	-0.2697	-0.0657	0.204	1808.5114	0.131823	-458.914682	-458.903948	-458.903004	-458.952489	35.183	
C	-0.1105198576	 1.2142008117	 1.0288876865	-0.228283
O	-0.0609677034	-0.1949859225	 1.0349181171	-0.228991
C	 1.0541081893	-0.7094959511	 0.3573858541	-0.070621
C	 1.0122173664	-2.246413774	 0.448268508	-0.058446
O	 2.0062508586	-2.8210298401	-0.3863616463	-0.41097
C	 1.1169541495	-2.7002424314	 1.8341649348	 0.149439
C	 1.2793817889	-3.0763021417	 2.9709672344	-0.041218
C	 1.4205909077	-3.5105875404	 4.3370519837	 0.029084
O	 2.4180331367	-4.0208485505	 4.7930039376	-0.229963
H	-0.1666128559	 1.6146539997	 0.0049182515	 0.110053
H	-1.0090196769	 1.5096334568	 1.5749464036	 0.134021
H	 0.7693412655	 1.6534086691	 1.5237232058	 0.110704
H	 1.0457720806	-0.4404420542	-0.7104588384	 0.106069
H	 1.9977477121	-0.3380918205	 0.7923407265	 0.090208
H	 0.0487921102	-2.572755539	 0.0394469514	 0.140014
H	 2.8492800692	-2.7748788101	 0.0783681468	 0.294209
H	 0.5204217492	-3.3363141717	 4.960525183	 0.104692
36.7483	58.5318	81.408	111.3206	127.4717	172.5228	227.9159	243.1737	274.3126	290.6999	389.9954	399.4138	505.5629	590.8626	647.5588	787.2237	985.942	1013.8847	1021.3452	1037.3175	1094.3749	1149.9241	1173.0435	1182.0088	1227.3499	1237.0576	1265.6002	1331.0776	1402.0519	1413.047	1421.4095	1480.6915	1487.1007	1501.8887	1525.9192	1768.3365	2322.8058	2923.9181	2958.2358	2978.373	3005.6515	3024.6434	3054.8814	3122.1403	3808.7752
COCC(O)C#CC=O	COC[C@@H](O)C#CC=O	
InChI=1S/C6H8O3/c1-9-5-6(8)3-2-4-7/h4,6,8H,5H2,1H3	InChI=1S/C6H8O3/c1-9-5-6(8)3-2-4-7/h4,6,8H,5H2,1H3/t6-/m0/s1
