19
gdb 53539	2.59774	0.94387	0.79329	0.6477	90.05	-0.2412	0.0487	0.2898	1532.637	0.155957	-348.686385	-348.676037	-348.675092	-348.723599	36.847	
C	 0.1932143911	 1.4574354412	-0.4291321412	-0.496341
C	 0.0968322229	 0.0367658386	-0.1260593987	 0.06274
C	 0.0158901269	-1.1365802379	 0.1298997936	 0.091572
C	-0.095962359	-2.5605287965	 0.4299727533	-0.442507
C	-1.4769411988	-3.1509747571	 0.113653089	 0.164063
C	-1.7707771697	-3.5281117532	-1.3281035236	-0.280338
C	-1.5346069306	-4.6105389658	-0.3139984801	-0.308086
C	-2.560890683	-2.6480736034	 0.9141110025	 0.299986
C	-3.4583798898	-2.2316572358	 1.5982521722	-0.470431
H	 0.8808484581	 1.64399941	-1.2616374392	 0.144337
H	-0.7829551557	 1.8695170222	-0.7080321095	 0.148847
H	 0.5568281608	 2.0258742735	 0.434139811	 0.146411
H	 0.6553697322	-3.1187871478	-0.1432757697	 0.120505
H	 0.1309850404	-2.7386013157	 1.4887031048	 0.133619
H	-2.7802039968	-3.3733217211	-1.6888658435	 0.127502
H	-0.992631739	-3.3191426132	-2.0542614202	 0.122395
H	-0.5957648835	-5.1534099657	-0.3445886859	 0.116767
H	-2.3833263326	-5.1931516367	 0.0231345208	 0.128347
H	-4.2515478841	-1.8571049954	 2.1960791843	 0.190613
17.4732	46.1034	77.9818	157.913	204.9276	214.4565	260.9162	315.0943	345.3584	384.0346	453.3727	535.4506	553.5772	582.2322	645.3165	702.1158	766.6512	787.5004	876.8169	925.3347	934.363	960.1222	1008.1261	1052.9285	1054.7783	1063.5211	1084.5393	1168.5473	1191.5555	1205.9349	1274.8761	1329.8252	1356.7232	1415.0085	1462.2376	1470.6137	1478.8368	1479.2402	1497.1514	2235.2244	2375.8942	3016.1615	3025.2601	3050.1557	3084.7024	3086.2436	3136.1128	3141.491	3222.4338	3236.7626	3505.2207
CC#CCC1(CC1)C#C	CC#CCC1(CC1)C#C	
InChI=1S/C9H10/c1-3-5-6-9(4-2)7-8-9/h2H,6-8H2,1H3	InChI=1S/C9H10/c1-3-5-6-9(4-2)7-8-9/h2H,6-8H2,1H3
