21
gdb 98419	2.17531	1.3204	1.06453	2.8708	80.68	-0.2343	0.0337	0.268	1277.0466	0.181455	-420.429751	-420.419326	-420.418381	-420.465192	37.539	
C	-0.3496610572	 1.416120208	-0.5049342354	-0.335446
N	-0.2518260732	-0.0095392401	-0.7308182543	-0.301581
C	 0.9269265864	-0.6804581072	-0.6902145818	 0.352284
O	 2.0116009845	-0.1633430796	-0.4707226776	-0.39627
C	 0.808801721	-2.1779085129	-0.9313313523	 0.197567
C	 1.6960755708	-2.9969706566	-0.0180270658	-0.468721
N	-0.5436616586	-2.6624470369	-1.2747917676	-0.392144
C	 0.5114404922	-2.6936258399	-2.3047726406	-0.001329
C	 0.3273047917	-1.8369227423	-3.5330209016	-0.407196
H	 0.6640549236	 1.7975447676	-0.372575589	 0.166308
H	-0.8162061937	 1.9243401893	-1.3562401719	 0.123118
H	-0.9340746604	 1.6406080759	 0.39500809	 0.123668
H	-1.0744552269	-0.5749569418	-0.8845722341	 0.259141
H	 1.3630433042	-2.9202212671	 1.0231483821	 0.123607
H	 1.6864026837	-4.0528494143	-0.3060737782	 0.105198
H	 2.7206621898	-2.6224486518	-0.0661384938	 0.156612
H	-0.7006490775	-3.585716264	-0.8791897298	 0.232083
H	 0.9469196773	-3.6717907665	-2.5089979365	 0.086784
H	-0.0885824737	-0.8602095086	-3.2786640998	 0.129186
H	 1.2863387215	-1.6824195585	-4.0381346843	 0.127735
H	-0.3529382956	-2.3250687725	-4.2391568777	 0.119396
74.1216	89.8822	107.7358	184.1055	191.8702	196.7222	221.7859	241.9625	308.715	341.2534	413.2948	470.0546	517.3298	531.9009	655.0924	752.9243	783.146	809.2758	868.8166	924.2988	980.4474	1025.7376	1046.4444	1061.9218	1096.239	1136.3316	1145.602	1154.4078	1180.3321	1209.5145	1243.9054	1308.978	1363.6147	1403.6923	1410.905	1437.8869	1453.6216	1481.0333	1492.5443	1496.0056	1497.7789	1500.1951	1505.1497	1567.6162	1768.966	3024.1965	3034.3918	3039.7058	3074.3972	3097.1535	3101.0307	3104.5909	3134.5973	3137.5396	3146.1644	3502.4704	3600.1166
CNC(=O)C1(C)NC1C	CNC(=O)[C@@]1(C)N[C@H]1C	
InChI=1S/C6H12N2O/c1-4-6(2,8-4)5(9)7-3/h4,8H,1-3H3,(H,7,9)	InChI=1S/C6H12N2O/c1-4-6(2,8-4)5(9)7-3/h4,8H,1-3H3,(H,7,9)/t4-,6-/m0/s1
