18
gdb 79053	3.68955	1.63519	1.3862	1.8058	75.04	-0.2164	0.0725	0.2889	952.189	0.149633	-401.835231	-401.828519	-401.827575	-401.865964	27.942	
O	 0.1016762935	 1.4979637912	-0.0466098444	-0.438049
C	 0.0502766992	 0.0930226187	-0.0244748849	-0.013387
C	 0.0580441857	-0.6315691829	 1.3699712345	-0.152337
C	-1.41861248	-0.2323771652	 1.625103364	-0.013889
N	-1.9773235275	-1.6241938689	 1.8012321223	-0.166301
C	-3.1853818125	-1.6045872837	 0.9073068675	-0.156632
C	-2.7733415285	-0.7669801216	-0.3867110216	-0.382328
C	-1.3702638448	-0.485963848	 0.0895708716	 0.329874
C	-0.8415352877	-1.7587514267	 0.8161821794	-0.025529
H	 1.0233297463	 1.7693494048	 0.0064654888	 0.286911
H	 0.6969394812	-0.3520111766	-0.7945310556	 0.069336
H	 0.8691856933	-0.713841581	 2.0933391713	 0.077868
H	-1.817945595	 0.639823371	 2.1417315407	 0.08365
H	-3.4649620471	-2.63146978	 0.6559633145	 0.105746
H	-4.0212106086	-1.1449827515	 1.4419981012	 0.107448
H	-2.826665058	-1.3638535897	-1.3011632086	 0.103168
H	-3.3871978179	 0.1276968172	-0.5166190689	 0.110611
H	-0.5551345316	-2.7084080671	 0.3606974784	 0.073839
182.8121	242.1983	257.3892	291.2876	384.4972	525.0341	543.9051	690.6456	748.7473	772.1975	808.4587	836.2702	852.0343	864.0889	869.1315	892.419	918.0236	940.7707	971.2458	1011.2455	1028.7282	1102.0507	1104.8919	1112.7944	1135.5559	1152.2682	1166.7283	1186.6988	1212.7565	1217.63	1243.0849	1243.6017	1266.4413	1309.7956	1322.9021	1337.647	1442.6965	1490.909	1510.8334	2998.0326	3056.6535	3065.0371	3095.3234	3099.1453	3112.7995	3117.2836	3125.8496	3820.8947
OC1C2C3N4CCC13C24	O[C@H]1[C@H]2[C@@H]3N4CC[C@@]13[C@@H]24	
InChI=1S/C7H9NO/c9-6-3-4-7(6)1-2-8(4)5(3)7/h3-6,9H,1-2H2	InChI=1S/C7H9NO/c9-6-3-4-7(6)1-2-8(4)5(3)7/h3-6,9H,1-2H2/t3-,4-,5+,6-,7+/m0/s1
