16
gdb 129572	4.09261	1.0075	0.83495	4.2887	67.29	-0.2596	-0.0361	0.2235	1303.3356	0.124038	-471.16594	-471.157213	-471.156269	-471.199939	31.25	
N	-0.9102596395	 0.7724376902	 0.1164473174	-0.512092
C	 0.0411585917	-0.3095328968	-0.1329872279	-0.107326
C	 1.0578237122	-0.0220923702	-1.2516614751	-0.088023
O	 0.2923279286	 0.2509784068	-2.4131646837	-0.423084
C	 0.7199576399	-0.664809299	 1.15218313	 0.434935
C	 0.4543573801	-0.3393211408	 2.4478496357	-0.208155
N	 1.4119056613	-0.9554896466	 3.2174737925	-0.108267
N	 2.2126930902	-1.6084144203	 2.5096029973	-0.014804
O	 1.7971447667	-1.4463396016	 1.1283505999	-0.235225
H	-0.3997408293	 1.6199672028	 0.3560436569	 0.228728
H	-1.3889296933	 0.9717361221	-0.7570923996	 0.250038
H	-0.5437376101	-1.1806774734	-0.4605179275	 0.129598
H	 1.6828829237	 0.839040953	-0.964076228	 0.09177
H	 1.7189529473	-0.8884226152	-1.3899116345	 0.114298
H	 0.8926928456	 0.453154908	-3.1360425032	 0.296008
H	-0.333752865	 0.2597281008	 2.8664328797	 0.1516
59.1973	107.9453	139.677	201.0302	234.0505	285.4253	314.7788	370.4678	426.3285	478.5928	606.1955	669.0106	702.6011	784.3187	843.4531	875.7401	946.0364	984.4742	1038.4092	1069.9262	1092.1858	1110.5208	1137.6857	1197.963	1227.472	1231.8133	1278.3446	1330.7336	1363.5505	1413.8166	1447.4771	1468.7887	1517.8642	1599.9951	1666.3951	2972.3288	3015.6584	3035.5702	3311.5613	3479.6991	3567.1562	3842.1273
NC(CO)C1=CN=NO1	N[C@@H](CO)c1cnno1	
InChI=1S/C4H7N3O2/c5-3(2-8)4-1-6-7-9-4/h1,3,8H,2,5H2	InChI=1S/C4H7N3O2/c5-3(2-8)4-1-6-7-9-4/h1,3,8H,2,5H2/t3-/m0/s1
