17
gdb 51291	4.16883	1.10759	0.93269	5.2588	76.33	-0.241	-0.0136	0.2274	1234.8855	0.13776	-418.031041	-418.023265	-418.022321	-418.063998	29.195	
O	-0.4037150808	 0.0684288284	-0.0436109714	-0.259109
C	-0.0948312331	 1.2280106147	-0.0792551297	 0.156124
N	 1.1895246558	 1.746827963	-0.1081295864	-0.394225
C	 2.4086353177	 1.071221937	-0.0986283471	 0.432773
N	 2.5478342111	-0.1907009021	-0.2204114333	-0.258267
C	 3.9761215275	-0.5083699669	-0.0836575154	-0.175197
C	 4.7397838701	 0.8162920733	 0.0094759347	-0.047976
C	 4.5959175517	 1.7587386475	-1.1496051934	-0.276393
C	 3.6621219067	 1.8808548685	 0.0412712796	-0.172298
H	-0.8328128504	 2.0573429827	-0.0882203635	 0.075689
H	 1.2489607255	 2.7533517346	-0.1212935539	 0.254961
H	 4.1193994099	-1.1188729928	 0.8167177331	 0.114982
H	 4.2981750599	-1.1203906369	-0.9345386492	 0.115391
H	 5.6183898583	 0.8897025258	 0.6385661733	 0.095776
H	 5.3486238536	 2.5315414866	-1.2615473547	 0.11697
H	 4.1836790638	 1.3861891901	-2.0824304815	 0.126167
H	 3.6909764827	 2.7611862263	 0.6741497488	 0.094633
46.5905	154.9061	175.3587	261.2257	298.7608	342.6637	382.5866	569.0978	577.6768	691.0839	725.614	778.3669	818.0514	836.3935	876.9708	914.067	983.7909	993.8133	1020.4726	1026.8251	1064.9966	1080.1541	1094.2124	1097.3496	1128.2519	1193.7542	1219.4638	1241.7548	1326.7704	1341.1887	1375.5314	1446.7543	1476.7508	1491.3073	1538.5634	1706.5794	1848.1448	2913.005	3027.6909	3058.5117	3125.5816	3167.7394	3186.8383	3216.0836	3628.4784
O=CNC1=NCC2CC12	O=CNC1=NC[C@H]2C[C@@H]12	
InChI=1S/C6H8N2O/c9-3-8-6-5-1-4(5)2-7-6/h3-5H,1-2H2,(H,7,8,9)	InChI=1S/C6H8N2O/c9-3-8-6-5-1-4(5)2-7-6/h3-5H,1-2H2,(H,7,8,9)/t4-,5-/m1/s1
