20
gdb 71028	3.73024	1.64228	1.34904	1.392	83.06	-0.2145	0.0874	0.3019	1005.8004	0.172729	-365.9154	-365.908307	-365.907363	-365.946328	29.748	
C	-0.0673009385	 1.4790802003	-0.0380112046	-0.519329
C	 0.0559468218	-0.0193812065	-0.0377259878	 0.301636
C	 0.6806474202	-0.9497127113	-1.1432151218	-0.403003
C	 0.2165096798	-1.9345044802	-0.0434793638	 0.324726
C	 0.0221810184	-3.2986114927	 0.5750611778	-0.37672
C	-0.6786572662	-2.7471137291	 1.8970410017	-0.155333
N	-0.7317130572	-1.2502507424	 1.7554246206	-0.167832
C	 0.5898472545	-0.9437068214	 1.0924391306	-0.060156
C	-1.035755788	-1.0775775556	 0.2864855962	-0.060161
H	 0.9159450288	 1.958026051	-0.1040266076	 0.118259
H	-0.6642446351	 1.827907154	-0.8880091359	 0.118258
H	-0.5517957558	 1.823192521	 0.8814296598	 0.134608
H	 0.1534935001	-0.9896841616	-2.1018305013	 0.096678
H	 1.7593143189	-0.8574503536	-1.3056883159	 0.096678
H	-0.6334356221	-3.9613694826	 0.00350072	 0.10212
H	 0.9529898837	-3.8307257536	 0.7900306866	 0.10212
H	-1.6948672843	-3.1343736086	 2.0121054272	 0.105088
H	-0.1124567197	-3.0040607082	 2.7966454166	 0.105089
H	 1.533662226	-0.8863439286	 1.6401856935	 0.068637
H	-2.0400767353	-1.1806469704	-0.1316281818	 0.068638
211.4561	223.1966	224.1656	263.5079	382.5431	440.2836	470.6167	577.68	699.5781	745.4148	757.843	814.5622	830.7721	842.9886	861.8576	865.1838	901.9841	902.1656	968.4303	1008.6442	1017.4876	1035.9197	1059.9701	1074.4394	1122.4419	1123.4897	1159.4293	1160.1338	1177.2357	1182.1309	1218.9421	1235.0142	1242.6203	1265.7592	1288.0032	1330.6927	1381.1484	1412.0929	1488.6542	1489.4719	1492.3306	1510.1216	1512.7603	3027.2675	3038.0995	3053.1522	3061.7824	3080.2487	3087.8493	3090.0805	3094.0803	3096.3515	3103.4555	3113.5215
CC12CC34CCN(C13)C24	C[C@@]12C[C@@]34CCN([C@H]13)[C@@H]24	
InChI=1S/C8H11N/c1-7-4-8-2-3-9(5(7)8)6(7)8/h5-6H,2-4H2,1H3	InChI=1S/C8H11N/c1-7-4-8-2-3-9(5(7)8)6(7)8/h5-6H,2-4H2,1H3/t5-,6+,7-,8+
