18
gdb 105503	1.99753	1.69452	1.10127	5.013	67.93	-0.2405	0.0271	0.2676	1120.0306	0.147424	-476.224659	-476.21547	-476.214525	-476.259196	33.598	
N	 0.0635011197	 1.3571227991	 0.2859631899	-0.53486
C	 0.1267161928	 0.0456043249	-0.0639833522	 0.325368
O	 1.1586756743	-0.4977409043	-0.4167819572	-0.368633
C	-1.2028203495	-0.7179823348	-0.0169986218	 0.183501
C	-2.2072295639	-0.2527807463	 1.0316579102	-0.180524
O	-2.6699727071	 1.0582680668	 0.6945766759	-0.422099
C	-1.8632917883	-0.9514893653	-1.4070937431	-0.101664
O	-1.8986540266	-2.3745870102	-1.1991660226	-0.276166
C	-1.0550064322	-2.2568882873	-0.0327776543	-0.123207
H	 0.8973793442	 1.9101763453	 0.1720783082	 0.255711
H	-0.8281464441	 1.7969616236	 0.4612622362	 0.269362
H	-3.0502084042	-0.9572432319	 1.0403131582	 0.114646
H	-1.742818984	-0.2611390089	 2.0288804926	 0.10678
H	-3.3137676365	 1.3338075999	 1.3539263601	 0.298736
H	-2.8597951261	-0.5173309152	-1.539143206	 0.111529
H	-1.2232503998	-0.675950809	-2.2541073015	 0.113216
H	-0.026767288	-2.5732790154	-0.228263666	 0.134204
H	-1.4644533406	-2.7978413712	 0.8289530136	 0.0941
38.1021	97.3274	147.6621	216.6583	261.2712	271.4759	310.4183	354.9924	397.3064	420.1971	445.5084	593.5426	652.819	672.6015	775.9266	834.2763	889.8561	929.859	981.182	1000.0351	1035.4623	1050.5835	1081.1925	1136.5197	1162.3299	1169.8517	1181.3082	1232.5317	1273.4782	1287.6949	1308.4936	1372.0647	1386.5539	1451.9837	1504.9391	1514.0144	1531.8762	1619.9758	1784.3945	2989.5906	3019.7093	3027.9291	3033.5138	3078.594	3098.8221	3551.1727	3703.836	3832.2844
NC(=O)C1(CO)COC1	NC(=O)C1(CO)COC1	
InChI=1S/C5H9NO3/c6-4(8)5(1-7)2-9-3-5/h7H,1-3H2,(H2,6,8)	InChI=1S/C5H9NO3/c6-4(8)5(1-7)2-9-3-5/h7H,1-3H2,(H2,6,8)
