15
gdb 47128	3.08227	1.24549	0.91038	3.5329	75.69	-0.246	-0.0564	0.1896	1200.9946	0.114443	-416.875009	-416.86723	-416.866286	-416.907616	28.938	
O	 0.0547668746	-0.0595543816	 0.011446246	-0.348435
C	-0.0209439903	 1.1479097781	 0.0299872547	 0.408191
C	-1.3278970607	 1.9274385148	 0.0926316225	-0.32753
C	-1.2142475279	 3.2673022212	 0.8392090575	-0.277159
C	 0.0087240584	 4.022460267	 0.4034196902	-0.166683
C	 1.092097717	 3.3451603531	-0.0074782041	 0.27665
N	 1.1097644741	 1.9423123585	-0.064968492	-0.412697
C	 2.3011416996	 3.9977422979	-0.4018747577	 0.223622
N	 3.2945851919	 4.5014496498	-0.7167907836	-0.322565
H	-1.625804787	 2.1122636153	-0.9481479447	 0.14182
H	-2.0817547952	 1.2728997015	 0.5323307543	 0.14125
H	-2.1160584442	 3.8646148759	 0.6760074806	 0.127445
H	-1.1607734977	 3.0906288233	 1.9242479223	 0.136705
H	 0.0364345718	 5.1034636636	 0.4350303951	 0.128576
H	 1.9845316055	 1.4576467316	-0.2029842411	 0.270808
106.1603	125.7922	156.5022	209.9249	386.9688	438.4158	441.6823	498.5127	526.3082	571.9558	586.7296	657.5821	676.1522	771.2908	825.2089	900.7996	927.7534	1013.5616	1036.7037	1082.4775	1174.4304	1177.9107	1230.4689	1293.8632	1331.287	1349.2765	1376.6819	1462.5017	1469.8366	1478.3097	1697.3072	1816.151	2347.2463	2998.4213	3033.7102	3081.074	3127.2393	3225.4948	3623.0799
O=C1CCC=C(N1)C#N	O=C1CCC=C(N1)C#N	
InChI=1S/C6H6N2O/c7-4-5-2-1-3-6(9)8-5/h2H,1,3H2,(H,8,9)	InChI=1S/C6H6N2O/c7-4-5-2-1-3-6(9)8-5/h2H,1,3H2,(H,8,9)
