19
gdb 37849	2.60419	2.52545	1.94806	1.7357	76.03	-0.2348	0.0667	0.3015	813.6333	0.164509	-385.866284	-385.860837	-385.859892	-385.895658	25.171	
C	-0.0271742278	 1.5514367185	 0.0697529119	-0.211184
C	 1.5161275323	 1.4223149141	-0.0041447762	-0.0679
C	 1.2983613115	 0.1186201676	-0.85148945	-0.012342
C	 2.2858181043	-0.9426524344	-0.3888125711	-0.2596
C	 2.0779211891	-0.7108217394	 1.0933405006	-0.040358
C	 2.0063663005	 0.8221711342	 1.3718454611	 0.076293
O	 0.8583338571	 0.6090384216	 2.2358455948	-0.286528
C	 0.5559712512	-0.5242262114	 1.3789991777	 0.076293
C	-0.0133962143	 0.0024627147	 0.0033983293	-0.0679
H	-0.4621600624	 2.0246947809	 0.949420663	 0.111271
H	-0.4358504556	 1.9868177979	-0.8453635347	 0.089167
H	 2.1325468704	 2.2399593901	-0.3807777895	 0.057525
H	 1.1572120281	 0.2649817615	-1.9226268895	 0.062712
H	 2.0108216317	-1.9543552056	-0.7082026601	 0.09752
H	 3.3134411519	-0.7451448048	-0.7146295568	 0.09752
H	 2.6302529751	-1.3019455085	 1.8218656258	 0.072137
H	 2.8098184539	 1.3697177174	 1.8663907783	 0.073924
H	-0.0470947276	-1.282346497	 1.8804800102	 0.073924
H	-0.8765379795	-0.5533657274	-0.3659372747	 0.057525
372.6749	416.1768	443.1456	528.6947	592.361	626.6255	716.0491	764.5568	779.8676	824.0805	838.9906	863.4972	864.4058	881.3583	916.0574	940.7988	945.5677	977.5533	999.0841	1017.1681	1021.6414	1042.8422	1074.2684	1082.5871	1091.7117	1124.8345	1169.9388	1216.6391	1235.0924	1242.4491	1247.5839	1252.3113	1258.5862	1282.3573	1287.3728	1307.81	1330.0301	1344.9287	1356.0242	1481.5219	1484.8795	3035.8104	3070.3656	3079.4603	3089.5194	3091.2569	3104.8557	3105.3647	3113.7286	3135.9235	3140.5611
C1C2C3CC4C2OC4C13	C1[C@@H]2[C@H]3C[C@H]4[C@@H]2O[C@H]4[C@@H]13	
InChI=1S/C8H10O/c1-3-4-2-5(3)8-6(1)7(4)9-8/h3-8H,1-2H2	InChI=1S/C8H10O/c1-3-4-2-5(3)8-6(1)7(4)9-8/h3-8H,1-2H2/t3-,4-,5+,6+,7-,8+
