14
gdb 131701	6.86316	0.89013	0.79184	4.0002	73.35	-0.2393	-0.0104	0.2289	1353.5661	0.101101	-432.85272	-432.844261	-432.843317	-432.887199	29.786	
O	-0.1700955197	 1.4308979411	 0.0085946569	-0.42957
C	-0.000141383	 0.0226341754	 0.0032656155	-0.207656
C	-1.3658155108	-0.5848946316	 0.014221544	 0.359541
N	-1.6699009794	-1.8661342437	 0.0133533511	-0.357803
C	-3.0422456411	-1.8528785753	 0.0261937663	 0.154762
N	-3.5849606901	-0.6352940222	 0.0347717709	-0.269473
N	-2.4922757163	 0.1550263805	 0.0268678802	-0.208015
C	-3.8294595348	-3.0334055921	 0.0301262796	 0.293263
C	-4.4889076114	-4.0383713627	 0.0333743655	-0.390641
H	 0.6964000571	 1.8457655808	 0.0021231897	 0.303954
H	 0.540983048	-0.325876734	-0.8884725749	 0.132366
H	 0.557283636	-0.330603237	 0.8830227898	 0.13236
H	-2.5695184842	 1.1592306392	 0.0304703665	 0.293323
H	-5.0719756603	-4.9257906384	 0.0362498289	 0.193588
19.1363	125.7491	131.8064	195.0112	227.179	271.2825	418.7588	473.8268	563.2311	604.6255	611.5843	623.167	668.9902	702.5718	729.2466	774.9354	1014.8998	1043.8382	1060.9202	1097.2072	1165.5697	1206.3935	1231.0493	1277.8064	1354.5259	1433.7625	1470.0219	1482.0402	1512.0184	1593.6578	2250.1466	2994.1197	3022.0749	3505.0749	3669.3145	3852.5522
OCC1=NC(=NN1)C#C	OCc1nc(n[nH]1)C#C	
InChI=1S/C5H5N3O/c1-2-4-6-5(3-9)8-7-4/h1,9H,3H2,(H,6,7,8)	InChI=1S/C5H5N3O/c1-2-4-6-5(3-9)8-7-4/h1,9H,3H2,(H,6,7,8)
