20
gdb 7594	2.64206	1.77123	1.42425	2.7527	70.86	-0.2513	0.0694	0.3207	991.3534	0.174866	-386.127396	-386.118031	-386.117086	-386.160635	35.439	
C	-0.2396971751	 1.4902954246	 0.0018842055	-0.396498
C	 0.0591435681	-0.0041263075	-0.0205921115	 0.087663
O	 0.8455147856	-0.2592329324	-1.1808339663	-0.450529
C	 0.7851114431	-0.5066104581	 1.2308480714	 0.32492
C	 2.0126076694	 0.2759735218	 1.6535825413	-0.472136
C	-0.065439244	-1.1853046694	 2.2927279323	-0.383599
C	 0.8281141467	-2.0008471069	 1.3899238158	 0.050085
O	 0.2818724586	-2.7630065133	 0.3445119308	-0.427243
H	 0.684212863	 2.0749451312	 0.0122698814	 0.123828
H	-0.8020750292	 1.7674110698	-0.8936231951	 0.119944
H	-0.8316201749	 1.7550026483	 0.8833673612	 0.110691
H	-0.8923958558	-0.5479406881	-0.0965619281	 0.063369
H	 0.9118952896	-1.2191523739	-1.248653106	 0.292502
H	 1.7476334188	 1.2598546352	 2.054229838	 0.118031
H	 2.5716714216	-0.254724	 2.4306615344	 0.106411
H	 2.6764710611	 0.423571106	 0.7958120874	 0.134085
H	 0.2115445703	-1.0820357283	 3.3370089554	 0.108789
H	-1.1344253454	-1.2405618313	 2.1112131329	 0.1112
H	 1.7293191235	-2.4302888241	 1.8276089686	 0.086126
H	-0.1792633651	-3.5197585835	 0.7198380203	 0.292359
78.676	171.7782	205.7124	226.6446	245.1319	248.4288	271.2511	290.5825	392.8729	398.2169	453.7326	475.6199	529.9921	587.3322	718.2027	803.6706	872.9306	899.8755	925.5084	955.0956	1024.3683	1035.8447	1047.1717	1070.7322	1109.6099	1125.7592	1142.5724	1173.4034	1273.7208	1281.3387	1301.2876	1326.697	1383.8382	1396.6428	1412.3961	1425.513	1439.7245	1481.8558	1485.2294	1492.308	1500.5027	1513.0943	3000.7474	3032.218	3045.4626	3095.211	3099.7666	3107.3529	3119.3277	3122.5744	3123.2383	3210.0936	3794.1289	3812.3335
CC(O)C1(C)CC1O	C[C@@H](O)[C@@]1(C)C[C@H]1O	
InChI=1S/C6H12O2/c1-4(7)6(2)3-5(6)8/h4-5,7-8H,3H2,1-2H3	InChI=1S/C6H12O2/c1-4(7)6(2)3-5(6)8/h4-5,7-8H,3H2,1-2H3/t4-,5-,6-/m1/s1
