17
gdb 128848	6.00817	0.6973	0.6621	1.8467	70.61	-0.2601	-0.0263	0.2338	1667.0751	0.135883	-455.134939	-455.126208	-455.125264	-455.169997	29.879	
C	 0.0362028685	 1.3589102863	-0.1918430626	-0.230779
O	-0.0055803723	-0.0312715988	 0.0286955843	-0.229593
C	-1.3117359765	-0.5542388827	-0.0255322519	-0.054117
C	-1.2161010243	-2.0601864965	 0.2296640222	-0.31652
C	-2.5449319404	-2.7296256251	 0.1319007124	 0.358606
N	-3.1075940112	-3.3340339434	 1.1458750542	-0.172388
O	-4.3188555798	-3.8063413461	 0.6186963324	-0.151353
C	-4.3379281132	-3.4227033797	-0.656573205	 0.108724
N	-3.2929878099	-2.7601187772	-1.033214445	-0.305118
H	 1.0825468626	 1.6674222145	-0.1323609345	 0.129621
H	-0.3585617232	 1.6269903692	-1.1845157968	 0.106685
H	-0.5412660317	 1.9103312813	 0.5669206609	 0.106114
H	-1.955160612	-0.0802105394	 0.7349851498	 0.095583
H	-1.7719755652	-0.3669949324	-1.0087610094	 0.110133
H	-0.5395019356	-2.4930910963	-0.5148170818	 0.137958
H	-0.7919586324	-2.2427426996	 1.2194718219	 0.139531
H	-5.2041595436	-3.6977101041	-1.2406918511	 0.166914
44.5759	81.1608	95.7999	113.6643	233.5259	262.7742	330.8418	346.5808	463.0083	633.8342	714.0679	785.3624	815.1729	906.3049	907.0828	982.451	994.2563	999.2907	1062.2547	1082.5028	1150.8109	1163.6707	1181.7108	1227.7599	1230.6776	1291.6507	1305.422	1317.0712	1370.9508	1422.531	1476.4813	1482.3623	1486.4916	1504.7305	1525.9918	1533.9035	1604.3937	2959.2594	2974.3666	2999.4254	3017.2141	3059.5652	3116.9438	3122.5114	3265.2492
COCCC1=NOC=N1	COCCc1nocn1	
InChI=1S/C5H8N2O2/c1-8-3-2-5-6-4-9-7-5/h4H,2-3H2,1H3	InChI=1S/C5H8N2O2/c1-8-3-2-5-6-4-9-7-5/h4H,2-3H2,1H3
