20
gdb 81423	2.36513	1.96272	1.47525	1.5619	77.46	-0.2279	0.0695	0.2974	975.0898	0.173068	-403.098341	-403.090823	-403.089879	-403.129625	31.613	
C	 0.0073305414	 1.4824739128	 0.0305460113	-0.503771
C	 0.0714424348	-0.0205978711	 0.001437657	 0.337186
N	-0.7985149784	-0.8342718284	 0.8864601974	-0.378167
C	 0.6800833777	-0.9121437997	 1.0283787748	-0.116389
C	 1.3652746152	-1.9758203153	 0.1472340644	-0.097708
C	 0.3001689556	-2.2533779661	-0.9488071514	-0.23178
C	 0.5114209595	-0.7543826853	-1.2888775868	-0.136773
C	 2.0235575833	-1.0411146903	-0.935705335	 0.172492
O	 2.9100644268	-0.0183550242	-0.57735323	-0.445552
H	 0.8902155795	 1.9225017475	-0.4461916685	 0.132431
H	-0.8713644884	 1.848574842	-0.5133422392	 0.129661
H	-0.0537920842	 1.861884933	 1.0569241808	 0.112194
H	-1.1511630146	-0.2251943427	 1.6239040132	 0.221814
H	 1.1399462041	-0.5560163144	 1.9446288506	 0.087629
H	 1.9182426551	-2.7744701543	 0.64111902	 0.062644
H	 0.6827623626	-2.9105733162	-1.7316514461	 0.093527
H	-0.6891582236	-2.5613723162	-0.6239196846	 0.131716
H	 0.2106372905	-0.3218333718	-2.2434974149	 0.05884
H	 2.5219332189	-1.6092718469	-1.7241883197	 0.086356
H	 2.5455007443	 0.4373388874	 0.1884392569	 0.283649
185.8781	218.2333	231.9115	315.4167	342.2979	401.7482	449.9518	481.8265	522.1396	601.3645	658.1884	736.582	783.8152	807.4653	828.0437	849.0824	878.2801	919.2301	943.864	980.7335	993.2799	1017.6538	1036.7814	1044.4484	1083.1178	1096.1955	1119.9472	1141.8005	1153.3938	1196.3185	1232.2198	1233.6718	1255.6378	1257.7654	1293.7704	1325.1813	1339.9133	1410.0709	1427.6391	1444.2069	1485.9111	1494.0969	1506.956	3020.436	3082.6396	3087.6653	3093.1134	3096.502	3112.6991	3119.9169	3161.8691	3180.4286	3472.841	3813.9804
CC12NC1C1CC2C1O	C[C@]12N[C@H]1[C@H]1C[C@@H]2[C@H]1O	
InChI=1S/C7H11NO/c1-7-4-2-3(5(4)9)6(7)8-7/h3-6,8-9H,2H2,1H3	InChI=1S/C7H11NO/c1-7-4-2-3(5(4)9)6(7)8-7/h3-6,8-9H,2H2,1H3/t3-,4+,5-,6-,7+/m0/s1
