17
gdb 64672	3.36306	1.04773	0.96185	4.1047	74.15	-0.2728	0.0091	0.2819	1258.2743	0.133185	-421.829334	-421.820372	-421.819428	-421.863197	33.404	
C	-0.2237449632	 1.7360945221	-0.2669288424	-0.439694
C	-0.0147959047	 0.2396756618	-0.1395782746	 0.406152
C	-1.288519341	-0.5404621462	 0.2186534298	-0.401915
C	-1.9446843965	-0.0790140815	 1.4353182864	 0.309201
C	-2.4848027052	 0.3050346265	 2.4372650616	-0.431844
C	 0.8532775457	-0.4307045148	-1.2291442447	-0.476821
C	 1.8433697842	-0.6447162427	-0.0858464722	 0.445788
O	 2.9196493402	-1.1242582716	 0.069411329	-0.316791
O	 1.0468094167	-0.0484406868	 0.8548930435	-0.267366
H	 0.7202461653	 2.2364733024	-0.4980961995	 0.129272
H	-0.9377853856	 1.952523076	-1.068368543	 0.125447
H	-0.6187541379	 2.1459537839	 0.6654881158	 0.153094
H	-1.9814045822	-0.4653773792	-0.62995458	 0.138676
H	-1.029649864	-1.6012663394	 0.3194029893	 0.140489
H	-2.9592908876	 0.6358050936	 3.3279291412	 0.203223
H	 0.4617034931	-1.352774121	-1.6633225861	 0.140453
H	 1.2156439127	 0.2238070869	-2.0234355041	 0.142636
60.5802	103.3965	143.2146	229.667	299.2043	312.5465	344.0529	357.2097	404.2254	487.0629	526.4769	545.6439	627.384	652.6354	683.5112	814.8059	850.515	886.4347	922.3929	954.7442	977.9063	996.3617	1063.0436	1090.8812	1156.3747	1207.6018	1232.2556	1263.2793	1304.3178	1356.0513	1417.1802	1455.337	1457.3268	1485.6741	1495.9753	1939.08	2242.9739	3021.737	3045.5157	3061.1411	3085.1891	3117.427	3135.0123	3142.9053	3505.2709
CC1(CC#C)CC(=O)O1	C[C@@]1(CC#C)CC(=O)O1	
InChI=1S/C7H8O2/c1-3-4-7(2)5-6(8)9-7/h1H,4-5H2,2H3	InChI=1S/C7H8O2/c1-3-4-7(2)5-6(8)9-7/h1H,4-5H2,2H3/t7-/m1/s1
