15
gdb 127934	3.80345	1.21108	0.92395	3.176	74.2	-0.2385	-0.0628	0.1757	1200.5288	0.114273	-450.156577	-450.148486	-450.147541	-450.18956	29.389	
C	 0.0517991954	 1.4303460761	-0.2042595264	-0.344061
N	 0.0328036571	-0.018573287	-0.1352784508	-0.325568
C	-1.0609968682	-0.6019017842	 0.1404805604	 0.524105
N	-2.2924443245	-0.0008913876	 0.3947989484	-0.323597
N	-3.4506738985	-0.6248677132	 0.6871795983	-0.131864
C	-3.4427425354	-1.9103582857	 0.7427547745	-0.103672
C	-2.2456263062	-2.7440454923	 0.5066068242	 0.421109
O	-2.230300621	-3.9553511754	 0.5571301001	-0.361996
N	-1.1218369984	-1.9890263215	 0.2162552814	-0.427147
H	 1.0633400135	 1.7613825683	-0.4497379682	 0.136944
H	-0.6175839198	 1.830528802	-0.9830308225	 0.113195
H	-0.2222104159	 1.9079036269	 0.7505017438	 0.113178
H	-2.3580697385	 1.001877679	 0.3650725568	 0.283105
H	-4.3727330217	-2.4130464382	 0.9775721444	 0.151266
H	-0.253533638	-2.4767860071	 0.0397603756	 0.275002
89.9329	119.5371	156.2358	210.5875	248.2601	370.4802	391.7453	498.4716	536.0502	540.0852	608.1793	680.4391	712.2423	734.9676	767.3746	899.4794	941.449	1002.096	1064.6913	1115.6526	1126.713	1172.6106	1277.4107	1355.9762	1402.7231	1408.468	1442.2628	1469.0642	1508.9064	1509.5937	1654.1133	1762.6316	1806.0903	2959.5872	3003.7105	3106.0872	3220.1477	3606.9644	3679.0314
CN=C1NN=CC(=O)N1	CN=c1[nH]ncc(=O)[nH]1	
InChI=1S/C4H6N4O/c1-5-4-7-3(9)2-6-8-4/h2H,1H3,(H2,5,7,8,9)	InChI=1S/C4H6N4O/c1-5-4-7-3(9)2-6-8-4/h2H,1H3,(H2,5,7,8,9)
