19
gdb 120180	4.65817	0.8444	0.81056	3.8179	77.59	-0.2409	0.0114	0.2522	1462.8034	0.158676	-422.972623	-422.963962	-422.963018	-423.006814	31.714	
C	 0.0555482527	 1.3406811601	-0.0386576524	-0.224752
O	-0.0412982242	-0.0561126171	 0.1079540696	-0.231797
C	-1.3450557597	-0.5452798722	-0.1291196216	-0.117527
C	-1.2833938879	-2.0584811037	-0.0319653414	 0.025138
C	-1.084514926	-2.7556530538	 1.3679902231	-0.170143
C	-2.5960239267	-2.4552414826	 1.6574930505	-0.248323
C	-2.6007190354	-2.8996850651	 0.1522378432	-0.201373
C	-1.6360130091	-3.9950624797	 0.6458723935	 0.449941
O	-1.4384384147	-5.1640215303	 0.5340021032	-0.323322
H	 1.092692883	 1.6191557072	 0.1623289725	 0.130534
H	-0.2088889821	 1.6642417467	-1.0579521698	 0.105348
H	-0.5992616593	 1.8733489298	 0.6694697606	 0.103885
H	-2.0565340427	-0.0930558335	 0.5773706701	 0.091229
H	-1.682118245	-0.2645841397	-1.1422747063	 0.091308
H	-0.6097866631	-2.4268467626	-0.8109089975	 0.096353
H	-0.2377566454	-2.6587276935	 2.0423143989	 0.100228
H	-3.1041995264	-3.1091126305	 2.3683759352	 0.116639
H	-2.8418418247	-1.4115299548	 1.8439448257	 0.114231
H	-3.448827333	-2.9740360248	-0.525239697	 0.092404
62.626	85.9025	108.8982	171.3943	229.6078	317.2585	360.2186	411.8488	478.8049	556.3549	698.8762	720.717	765.3322	814.1719	854.4903	889.9015	955.1166	991.041	1018.9691	1027.8639	1044.908	1080.0817	1112.4485	1127.7659	1135.4971	1159.222	1183.216	1190.3893	1196.2332	1218.6204	1235.3105	1238.1251	1267.3983	1386.859	1441.7782	1480.675	1485.6019	1499.7135	1517.7068	1537.4009	1920.9247	2952.9473	2969.8	3001.5818	3012.5415	3070.6241	3086.4035	3116.1212	3143.25	3157.3875	3160.9513
COCC1C2CC1C2=O	COC[C@H]1[C@H]2C[C@@H]1C2=O	
InChI=1S/C7H10O2/c1-9-3-6-4-2-5(6)7(4)8/h4-6H,2-3H2,1H3	InChI=1S/C7H10O2/c1-9-3-6-4-2-5(6)7(4)8/h4-6H,2-3H2,1H3/t4-,5+,6+
