22
gdb 119636	4.29637	0.96367	0.92169	1.7	85.41	-0.238	0.0752	0.3132	1390.095	0.194983	-367.167042	-367.158458	-367.157513	-367.200731	33.192	
C	-0.0300724985	 1.5912221609	 0.0057703609	-0.380036
C	-0.0155160351	 0.0603768703	-0.0131963219	-0.169505
C	-1.423936996	-0.5494357408	 0.0348767958	-0.305482
C	-1.4155394037	-2.0528827725	 0.0164994414	 0.360086
C	-1.01163927	-2.8627693836	-1.2400115074	-0.278076
C	-2.0226029049	-3.8690597314	-0.729436212	-0.040497
C	-1.9641123455	-3.8870015594	 0.763840375	-0.040494
C	-0.91536464	-2.8923040544	 1.2177752291	-0.278078
N	-2.7803216338	-2.8381382601	 0.0605204499	-0.198731
H	 0.9844707407	 2.0001257664	-0.0292137662	 0.111406
H	-0.5815502666	 1.9918480386	-0.8519461	 0.116051
H	-0.5121213015	 1.9706361781	 0.9135042538	 0.116051
H	 0.5019059538	-0.2898345573	-0.9156685936	 0.101135
H	 0.5708584565	-0.3108956013	 0.8371881255	 0.101132
H	-1.9462458636	-0.2087533393	 0.9387445679	 0.101285
H	-2.0152892976	-0.1876993897	-0.8167674992	 0.101291
H	-1.3680994549	-2.3766028235	-2.1527889548	 0.106146
H	 0.0357950687	-3.159557852	-1.3613521055	 0.093347
H	-2.5467221348	-4.6345219158	-1.2909228139	 0.091737
H	-2.4434346287	-4.6662025494	 1.3460742078	 0.091738
H	 0.1380716737	-3.1909358395	 1.2496705597	 0.093347
H	-1.1988884482	-2.4285114443	 2.1670354677	 0.106146
65.9067	81.7672	124.7423	251.0719	311.9331	312.9797	318.8049	431.3917	438.1528	690.2846	728.37	749.0553	771.1027	804.5572	823.6745	865.6261	870.4672	908.7762	913.7541	988.4228	1015.9977	1021.3004	1022.2413	1037.2341	1049.3292	1064.8223	1101.5787	1121.9401	1122.2628	1160.7652	1214.1002	1243.9	1245.1024	1277.5012	1295.0236	1318.283	1344.9504	1346.7599	1376.3496	1392.3736	1413.1717	1481.8169	1485.3298	1492.8362	1500.4675	1502.5835	1510.017	3011.3305	3021.0132	3030.8673	3032.24	3038.2023	3039.1972	3060.954	3093.9663	3096.2579	3098.4686	3103.2494	3170.6284	3182.5753
CCCC12CC3C(C1)N23	CCC[C@@]12C[C@H]3[C@@H](C1)N23	
InChI=1S/C8H13N/c1-2-3-8-4-6-7(5-8)9(6)8/h6-7H,2-5H2,1H3	InChI=1S/C8H13N/c1-2-3-8-4-6-7(5-8)9(6)8/h6-7H,2-5H2,1H3/t6-,7+,8+,9?
