19
gdb 84659	2.29041	1.80967	1.32299	1.4064	75.34	-0.2448	-0.0053	0.2396	1026.3708	0.160142	-423.016286	-423.008166	-423.007222	-423.048517	32.134	
C	-0.5092695561	 1.4129726667	 0.0204416711	-0.415207
C	-0.0298185976	-0.0553398975	-0.0264237225	-0.070749
C	 0.6597742576	-0.3407545242	-1.3396041836	-0.089087
C	 1.9847449411	-0.3244502539	-1.493200689	-0.051281
C	 2.8870834938	-0.0558505954	-0.3461121062	-0.006001
O	 2.6472295124	 1.1588041055	 0.4127651182	-0.260624
C	 2.3243924607	-0.1002163954	 1.0102588926	 0.007938
C	 0.8602877926	-0.444819895	 1.187870357	 0.095944
O	 0.3551751518	 0.05701471	 2.4194651667	-0.442329
H	 0.3422305328	 2.0967141683	 0.0044728212	 0.143281
H	-1.1397403256	 1.6331073125	-0.8463985178	 0.113741
H	-1.1076578797	 1.5922629459	 0.9181780032	 0.118399
H	-0.9271157749	-0.6837627234	 0.0334495735	 0.08614
H	 0.0185399658	-0.5130762146	-2.2006821145	 0.097955
H	 2.4398078795	-0.5021447856	-2.462563673	 0.093887
H	 3.9445864395	-0.2717014606	-0.4818138646	 0.094663
H	 2.9609048295	-0.3792238893	 1.8507882249	 0.097596
H	 0.8158629283	-1.5360699853	 1.2981937596	 0.096514
H	 0.5055589483	 1.0086474413	 2.427967333	 0.289219
106.3872	180.2369	235.696	256.4737	295.2183	343.3763	369.2213	428.163	468.3347	511.8756	599.5015	690.7762	726.8034	759.6543	798.2852	850.7098	880.9779	921.2583	960.9287	990.0379	1003.3971	1045.2968	1076.2264	1090.207	1105.2674	1133.9372	1164.9118	1199.9436	1267.9993	1278.2828	1329.1103	1331.6388	1360.1818	1375.1353	1389.4498	1420.6694	1432.6876	1461.3528	1499.6514	1516.5808	1708.2424	3019.2296	3035.116	3043.23	3106.443	3108.3347	3136.0725	3137.1939	3153.0352	3183.4929	3807.7671
CC1C=CC2OC2C1O	C[C@H]1C=C[C@H]2O[C@H]2[C@H]1O	
InChI=1S/C7H10O2/c1-4-2-3-5-7(9-5)6(4)8/h2-8H,1H3	InChI=1S/C7H10O2/c1-4-2-3-5-7(9-5)6(4)8/h2-8H,1H3/t4-,5+,6-,7+/m0/s1
