21
gdb 95250	2.6121	1.52035	1.21149	2.1136	77.75	-0.2453	0.0758	0.3211	1105.3692	0.184791	-424.215327	-424.207329	-424.206385	-424.247457	32.586	
O	 0.097749157	 1.4189959015	 0.0123300946	-0.444351
C	 0.0186663753	-0.001668461	-0.0024239561	 0.137071
C	-1.4394434881	-0.4748641638	 0.1603680871	-0.202868
C	-2.3832186466	-0.0005296535	-0.9577607442	-0.231144
C	-2.2020201557	-0.7433473338	-2.272196042	-0.032884
C	-2.0279540687	 0.0200216227	-3.5739665544	-0.333792
C	-0.8678060136	-0.7096862212	-2.9740629882	 0.118544
O	 0.1744832824	 0.0528714574	-2.4342818698	-0.265978
C	 0.7328421935	-0.5253403268	-1.2517696152	-0.108472
H	-0.0102341471	 1.699580427	-0.9049322407	 0.288212
H	 0.5867603054	-0.3480637362	 0.8714420503	 0.077079
H	-1.4595844214	-1.5701359077	 0.2369986062	 0.086016
H	-1.7969243787	-0.0830549713	 1.119335443	 0.101654
H	-3.4224985288	-0.1131992006	-0.6296543882	 0.09866
H	-2.2338939751	 1.0747633209	-1.1012486436	 0.10116
H	-2.7338997105	-1.6893746695	-2.3365200671	 0.084769
H	-2.4668172809	-0.3675554785	-4.4865165161	 0.114118
H	-2.0083553438	 1.1025375386	-3.5046309616	 0.120655
H	-0.5233871477	-1.6205376904	-3.4648115563	 0.08523
H	 1.778995098	-0.2037020053	-1.2218987173	 0.112461
H	 0.7055490951	-1.6219508286	-1.3029297703	 0.09386
106.063	189.2932	257.2488	280.8574	307.1408	374.2857	384.9837	461.8131	468.479	489.1865	620.5739	734.9178	750.8832	761.1014	803.1075	856.4359	904.3973	918.1555	936.5719	975.7424	1017.4143	1045.9696	1047.4384	1072.6787	1099.7085	1128.7649	1135.0037	1138.9934	1172.3068	1221.8908	1239.8546	1247.3672	1274.2666	1322.8936	1347.3069	1353.5177	1387.1012	1393.8534	1404.1954	1417.0942	1432.5458	1472.2076	1479.2929	1490.0339	1499.332	3011.8675	3016.4381	3031.2506	3040.3439	3068.6008	3076.1207	3082.6167	3092.4205	3133.497	3137.3127	3222.0666	3779.2048
OC1CCC2CC2OC1	O[C@H]1CC[C@H]2C[C@H]2OC1	
InChI=1S/C7H12O2/c8-6-2-1-5-3-7(5)9-4-6/h5-8H,1-4H2	InChI=1S/C7H12O2/c8-6-2-1-5-3-7(5)9-4-6/h5-8H,1-4H2/t5-,6-,7+/m0/s1
