15
gdb 29737	3.34606	1.34238	0.96385	5.5655	77.7	-0.2085	-0.0103	0.1982	1138.3079	0.11333	-416.861552	-416.852954	-416.85201	-416.895448	30.666	
C	 0.0113547881	 1.4407471554	 0.0331699539	-0.350437
N	 0.0248319438	-0.0116223196	 0.0205317007	-0.121442
C	 0.1206281156	-0.7838109684	-1.0907329817	 0.372392
O	 0.1956247323	-0.1493184218	-2.2807281017	-0.432729
C	 0.121344121	-2.1233293566	-0.7407570555	-0.285524
C	 0.0219585122	-2.1645621128	 0.6671241358	-0.222106
C	-0.0356938106	-0.8613217245	 1.1288676274	 0.187914
C	-0.1413824859	-0.3635869971	 2.4395743382	 0.207315
N	-0.229109351	 0.0647304405	 3.5155237542	-0.37441
H	 0.9728894364	 1.842382756	-0.2997509792	 0.149956
H	-0.7736846764	 1.8181494032	-0.626574818	 0.152428
H	-0.1820642124	 1.7767524555	 1.052043983	 0.171289
H	 0.2453695424	-0.8081509087	-2.9803206199	 0.315591
H	 0.1845505133	-2.9595696836	-1.4190284384	 0.105563
H	-0.0078632188	-3.0436202572	 1.2909362512	 0.1242
42.0546	114.1228	149.5435	188.4654	278.6512	287.6088	301.8738	436.3536	510.7095	529.6033	606.0267	640.8126	676.989	709.2917	734.922	757.5131	832.3307	982.5557	1049.0571	1139.9628	1155.5136	1184.2712	1245.4985	1280.0525	1357.3684	1394.7486	1456.8389	1485.1995	1509.73	1514.0414	1580.8912	1602.453	2320.1291	3051.0192	3115.9598	3158.2478	3251.284	3269.7663	3844.4567
CN1C(O)=CC=C1C#N	Cn1c(O)ccc1C#N	
InChI=1S/C6H6N2O/c1-8-5(4-7)2-3-6(8)9/h2-3,9H,1H3	InChI=1S/C6H6N2O/c1-8-5(4-7)2-3-6(8)9/h2-3,9H,1H3
