23
gdb 115389	3.19678	1.07283	0.95064	1.4795	82.36	-0.2467	0.0811	0.3278	1366.9301	0.206316	-425.439424	-425.429985	-425.42904	-425.473509	35.751	
C	-0.0258093366	 1.4245706318	 0.0263111279	-0.241358
O	-0.0079118719	 0.0077761268	-0.0086233417	-0.238182
C	-1.2634570549	-0.5768380224	 0.0215570553	 0.236916
C	-1.1161777396	-2.0793917313	-0.1857953155	-0.224893
C	-2.4756917296	-2.7763833308	-0.0120911706	-0.227326
C	-3.1745786154	-2.3611748543	 1.3001219273	 0.021563
C	-2.5264719879	-2.9803555882	 2.5460689202	-0.389613
C	-3.1785958807	-0.8267664681	 1.3777557411	-0.077583
O	-1.8650301795	-0.2972755009	 1.279645669	-0.264467
H	 1.0110140714	 1.7557405576	-0.0625716874	 0.124823
H	-0.6054508016	 1.8350977468	-0.8146348254	 0.102001
H	-0.4508531193	 1.7988642524	 0.9634230489	 0.129754
H	-1.9120774497	-0.1407284344	-0.7691730141	 0.040835
H	-0.7051724461	-2.268723284	-1.1824484389	 0.10086
H	-0.3848873206	-2.4428317106	 0.5431956179	 0.115886
H	-3.1239090106	-2.5068960574	-0.8568203634	 0.092385
H	-2.3508746786	-3.8638240042	-0.0525755025	 0.095911
H	-4.2203880063	-2.6920963926	 1.2525453441	 0.067141
H	-1.5152045719	-2.594587602	 2.7003044188	 0.133403
H	-3.1080482122	-2.7453734982	 3.4439765051	 0.109655
H	-2.4682875294	-4.0704014305	 2.4612803678	 0.108063
H	-3.813081441	-0.4117934985	 0.5752313943	 0.08173
H	-3.5770186281	-0.4760840472	 2.3348771317	 0.102494
85.0649	114.392	169.1759	192.8475	211.5524	221.8121	296.1906	366.9892	376.0164	420.6067	478.1757	523.4655	542.1702	690.4954	775.2969	853.8737	874.3047	907.754	970.6878	984.0827	999.798	1022.1535	1052.7477	1077.7074	1096.0661	1151.0203	1161.5887	1172.3609	1180.9379	1219.4987	1234.8099	1248.4032	1293.4782	1333.5251	1337.2528	1365.685	1381.0439	1386.9547	1402.8091	1416.1323	1425.7731	1477.7508	1482.7527	1483.1874	1490.0366	1493.3944	1505.6036	1509.7306	1512.8539	2864.7933	2954.8009	2990.7997	3011.756	3025.4759	3035.4703	3051.4906	3066.7805	3074.6813	3075.5621	3096.9162	3098.4673	3118.4681	3126.9309
COC1CCC(C)CO1	CO[C@H]1CC[C@@H](C)CO1	
InChI=1S/C7H14O2/c1-6-3-4-7(8-2)9-5-6/h6-7H,3-5H2,1-2H3	InChI=1S/C7H14O2/c1-6-3-4-7(8-2)9-5-6/h6-7H,3-5H2,1-2H3/t6-,7-/m1/s1
