18
gdb 46612	3.01489	1.50407	1.03169	4.2522	78.84	-0.237	-0.0151	0.2219	1135.6058	0.150616	-402.014397	-402.006589	-402.005644	-402.047101	29.41	
O	-0.0281265645	-0.0593569103	-0.0136197937	-0.384049
C	 0.0277956473	 1.1528394673	 0.0022659241	 0.324421
N	-1.0543019845	 2.0190730692	 0.0727287057	-0.345659
C	-0.6907174773	 3.4250261598	 0.0279205766	-0.290751
C	 0.8064218516	 3.3333750668	-0.0403915809	 0.247408
C	 1.2043689529	 2.0592241682	-0.0497886468	 0.167246
C	 2.6945728354	 1.9043138682	-0.0706012013	-0.352289
C	 3.1644289083	 3.3697588547	-0.3513000845	-0.2029
C	 1.9480166026	 4.3057553646	-0.0459931393	-0.345023
H	-1.9996581643	 1.6779998348	 0.0324007961	 0.250632
H	-1.1166219691	 3.9369938315	-0.8476734738	 0.123458
H	-1.0349356171	 3.9706144533	 0.9188609175	 0.124219
H	 3.0651499532	 1.5300719383	 0.8921193907	 0.117994
H	 3.0470720229	 1.2002496433	-0.8305607834	 0.121583
H	 4.0492101409	 3.6419092899	 0.2288237947	 0.104971
H	 3.4327789431	 3.4663939103	-1.4073083863	 0.112855
H	 1.8421785396	 5.1055570032	-0.7877243866	 0.110957
H	 2.0457474788	 4.8032780572	 0.9289836512	 0.114925
84.6319	107.7998	177.8226	223.92	272.9954	406.3192	478.6763	496.784	592.6102	620.0877	694.5786	759.6445	776.6558	834.0562	892.9316	899.6255	967.8813	983.2014	1010.1557	1052.9254	1063.5915	1125.6205	1153.9955	1186.1349	1194.5872	1218.7647	1229.0515	1277.6874	1317.9781	1326.2548	1339.2463	1399.1512	1424.0022	1481.8861	1489.4317	1497.5745	1506.1018	1710.3481	1816.2257	2994.2822	3012.728	3015.5674	3029.7672	3050.8363	3063.6626	3077.4491	3109.7171	3667.7873
O=C1NCC2=C1CCC2	O=C1NCC2=C1CCC2	
InChI=1S/C7H9NO/c9-7-6-3-1-2-5(6)4-8-7/h1-4H2,(H,8,9)	InChI=1S/C7H9NO/c9-7-6-3-1-2-5(6)4-8-7/h1-4H2,(H,8,9)
