23
gdb 78374	2.70265	1.37665	1.16517	0.1502	88.91	-0.2274	0.0824	0.3098	1204.3088	0.206581	-351.106532	-351.09799	-351.097046	-351.139081	34.54	
C	 0.1527400269	 1.57540115	 0.1115799067	-0.421218
C	 0.1697870536	 0.0603801559	 0.0738112259	-0.005274
C	 1.5110591535	-0.6001979008	-0.0427598507	-0.070669
C	 0.7331406516	-0.6317402749	 1.2895292739	-0.07155
C	 0.702912476	-2.1775279576	 1.2482875734	-0.051483
C	-0.4839467827	-2.9801821306	 0.622418259	 0.036761
C	-1.9301484927	-2.5693131513	 0.8668199356	-0.414155
C	 0.171743044	-2.8067207907	-0.7950585037	-0.281925
C	 1.4192215254	-2.1419175095	-0.1302869575	-0.022117
H	 1.0257912934	 1.9667938552	 0.644992977	 0.114706
H	 0.1651257199	 1.9965895305	-0.8996380395	 0.115925
H	-0.7424205919	 1.9500060818	 0.6200863529	 0.116099
H	-0.6785050209	-0.3668726063	-0.450911735	 0.075983
H	 2.3925208485	-0.0237678282	-0.3030220611	 0.07627
H	 0.9170062468	-0.0589893047	 2.1924508886	 0.07592
H	 1.1909838503	-2.6256440563	 2.1157806265	 0.060168
H	-0.37145659	-4.0269066708	 0.927711808	 0.070074
H	-2.1144036354	-1.5203846717	 0.621020065	 0.120159
H	-2.6159889214	-3.1790358812	 0.2674287505	 0.110891
H	-2.1996473403	-2.7098009337	 1.919899171	 0.111531
H	 0.3824332426	-3.7497340805	-1.305606691	 0.091444
H	-0.3782991755	-2.1672891899	-1.4906607566	 0.09852
H	 2.3743146281	-2.6474203747	-0.272434539	 0.063939
139.2493	177.0784	198.5185	219.9639	242.5162	268.9295	350.0391	372.3985	464.8291	567.5349	629.4378	706.1354	759.0362	782.0917	828.4599	857.7546	869.7375	896.3018	905.0597	939.397	972.3728	1000.6049	1009.5121	1020.8628	1050.533	1076.4898	1101.1136	1107.6476	1127.4531	1147.2304	1150.6898	1194.6336	1206.2531	1212.9089	1243.3877	1254.8212	1289.2631	1290.9874	1311.5465	1332.4656	1370.2637	1411.2395	1414.5644	1425.4107	1489.5522	1494.7214	1495.9511	1500.205	1502.0871	3025.6518	3025.8634	3031.478	3057.1417	3084.8083	3086.0603	3089.7766	3093.3932	3099.6042	3111.3197	3114.9039	3155.046	3158.0194	3166.368
CC1C2C1C1C(C)CC21	C[C@H]1[C@H]2[C@@H]1[C@H]1[C@@H](C)C[C@@H]21	
InChI=1S/C9H14/c1-4-3-6-7(4)9-5(2)8(6)9/h4-9H,3H2,1-2H3	InChI=1S/C9H14/c1-4-3-6-7(4)9-5(2)8(6)9/h4-9H,3H2,1-2H3/t4-,5-,6+,7-,8+,9-/m0/s1
