17
gdb 36699	4.95139	0.79131	0.7515	5.287	73.16	-0.244	0.0219	0.266	1478.1246	0.136152	-417.960497	-417.952214	-417.95127	-417.994399	30.212	
N	 0.006400632	-1.1331165043	-0.147396123	-0.296453
C	 0.0389358801	 0.0087013395	 0.0224573967	 0.260644
C	 0.0852695119	 1.4535789535	 0.2653211761	-0.266085
N	 1.2771511129	 2.0481483452	-0.3249655728	-0.29983
C	 1.3769213106	 3.4737088488	-0.1256325076	 0.03025
C	 1.6396702741	 4.1014203634	 1.3173200967	-0.289639
C	 2.9556809923	 4.6495335891	 0.7629034853	 0.038113
O	 3.713838425	 3.5220173718	 0.3019799148	-0.248705
C	 2.7169976187	 4.0718364677	-0.5697695972	-0.001806
H	-0.8014091492	 1.9062108068	-0.1966490865	 0.154794
H	-0.0136414919	 1.6158712984	 1.3538723361	 0.135209
H	 2.1141528225	 1.6051967546	 0.0422260144	 0.24303
H	 0.5267424117	 3.9687109747	-0.6065478418	 0.092968
H	 0.9120142074	 4.8731783223	 1.5791308029	 0.111183
H	 1.7506861763	 3.3989897761	 2.1476326668	 0.11061
H	 3.5115457192	 5.5337226911	 1.0497042593	 0.113547
H	 3.0356606765	 4.3750651413	-1.5599305101	 0.112169
54.464	98.1544	110.801	198.7775	256.5955	366.5618	390.2266	441.3724	508.1822	623.7762	728.2096	783.9452	833.9393	843.8676	871.0271	910.8553	932.6004	963.572	994.4173	1013.797	1018.0511	1050.4216	1116.1957	1138.4219	1196.0426	1202.9515	1234.5384	1241.4465	1262.8844	1282.7812	1330.7659	1385.7939	1398.8158	1467.7462	1490.1879	1503.5408	2369.4384	2942.5417	3044.5241	3058.7974	3063.8227	3123.0965	3188.7844	3204.1635	3522.9324
N#CCNC1CC2OC12	N#CCN[C@H]1C[C@H]2O[C@@H]12	
InChI=1S/C6H8N2O/c7-1-2-8-4-3-5-6(4)9-5/h4-6,8H,2-3H2	InChI=1S/C6H8N2O/c7-1-2-8-4-3-5-6(4)9-5/h4-6,8H,2-3H2/t4-,5+,6-/m0/s1
