23
gdb 40623	3.66647	1.07773	1.05209	0.1075	89.49	-0.2545	0.0953	0.3498	1292.2821	0.20891	-351.132863	-351.125022	-351.124078	-351.165446	32.171	
C	-0.2479881232	 1.385828771	-0.1801465811	-0.273842
C	 1.1985162111	 1.2059268419	 0.2090333503	-0.27382
C	 0.3033874787	-0.0004044372	 0.0540534969	-0.007999
C	-0.121435955	-0.7729050373	 1.276054828	 0.050147
C	-1.2783535003	-1.8155008021	 1.1139112523	-0.02209
C	-0.1946598308	-2.8130267071	 0.6090855942	-0.235643
C	 0.691286918	-2.0596058652	 1.6443425598	-0.022068
C	 0.029239655	-2.4686856474	 2.9748435997	-0.216215
C	-1.475201824	-2.2822319235	 2.569694927	-0.216217
H	-0.9252132942	 1.7922196208	 0.5642280713	 0.108007
H	-0.4754324677	 1.6876370396	-1.1966612607	 0.108184
H	 1.9610508268	 1.3846210002	-0.5411198012	 0.108183
H	 1.4910685871	 1.4916909499	 1.2143357415	 0.108006
H	 0.4719333901	-0.5870755654	-0.8436857146	 0.079333
H	-0.2570850841	-0.0654242503	 2.1053865415	 0.047127
H	-2.1728459323	-1.5891822548	 0.5317551314	 0.054368
H	-0.370682803	-3.8812505494	 0.7710848833	 0.082602
H	 0.1047298509	-2.6464976481	-0.4259514166	 0.098231
H	 1.7810447716	-2.0792005971	 1.5965407185	 0.054368
H	 0.264428888	-3.4991782523	 3.2568238712	 0.092497
H	 0.3249856879	-1.8187414379	 3.8038019645	 0.092172
H	-1.9854880126	-1.5323893458	 3.1815842866	 0.092174
H	-2.0467926179	-3.2127361225	 2.6344067461	 0.092497
63.7366	149.569	170.8601	301.533	326.2666	426.9635	430.7606	490.4741	645.1959	771.1702	814.6703	821.1399	834.3047	838.7314	878.6975	883.782	884.4486	905.754	933.3256	946.8893	961.5424	990.5036	1027.361	1027.5482	1055.1463	1063.2762	1072.8631	1082.5623	1120.4603	1130.0767	1132.8548	1186.047	1195.6173	1206.5814	1231.4741	1239.8425	1240.1689	1258.1997	1268.8466	1284.7677	1312.2409	1312.4278	1346.6085	1443.3395	1468.5119	1493.3342	1497.7374	1505.6438	1519.2626	3006.5262	3044.7918	3051.8791	3055.5521	3081.0734	3100.4186	3101.3688	3104.7711	3126.7502	3126.8407	3131.5897	3151.5659	3204.5235	3219.9266
C1CC1C1C2CC1CC2	C1CC1[C@H]1[C@H]2C[C@@H]1CC2	
InChI=1S/C9H14/c1-2-6(1)9-7-3-4-8(9)5-7/h6-9H,1-5H2	InChI=1S/C9H14/c1-2-6(1)9-7-3-4-8(9)5-7/h6-9H,1-5H2/t7-,8+,9+
