17
gdb 35666	3.44262	1.05304	0.94996	4.2931	78.24	-0.255	0.0163	0.2713	1251.3455	0.137119	-380.849558	-380.840964	-380.840019	-380.884054	31.494	
C	 0.7333367881	-1.0611166437	 0.2181377418	-0.484653
C	 0.253120386	 0.0381128206	 0.1258375251	 0.33422
C	-0.2842881555	 1.4010151788	 0.0049355088	-0.167402
C	-0.9779802	 1.8818994982	 1.3007715588	-0.204194
C	 0.1638670149	 2.5014773384	 2.1439246908	-0.219232
C	 1.3679917305	 2.6061472993	 1.1569886527	-0.108324
N	 0.7541666533	 2.4290318245	-0.1663867955	-0.28876
C	 2.0863526956	 3.8816384776	 1.2403775257	 0.280683
N	 2.6695931999	 4.8755462447	 1.3235759494	-0.323461
H	 1.1452409313	-2.0375028553	 0.2929733909	 0.205417
H	-0.9683622025	 1.4401310755	-0.8491784459	 0.115072
H	-1.7141806287	 2.6442034723	 1.0378414275	 0.121873
H	-1.4924820779	 1.0696516752	 1.8151259893	 0.121211
H	-0.1130885883	 3.4838036286	 2.5281113363	 0.135239
H	 0.4372360869	 1.8763521044	 2.9952323265	 0.12541
H	 2.0908976938	 1.8103613942	 1.3947735749	 0.120206
H	 1.4410903427	 2.1673456967	-0.8657149171	 0.236696
24.669	91.5145	151.7983	191.4907	228.1816	300.4821	445.0054	485.5298	537.984	569.0171	617.3726	640.2663	659.7784	732.892	788.2021	825.8971	864.7872	911.1423	958.539	983.389	1019.1855	1069.9062	1089.6538	1119.0835	1186.8621	1221.6644	1271.9081	1294.3224	1322.1628	1341.1863	1353.8032	1369.4058	1435.451	1484.888	1505.475	2223.0979	2361.8992	2977.2113	3052.9222	3081.074	3090.3122	3127.048	3144.3181	3499.9968	3537.7145
C#CC1CCC(N1)C#N	C#C[C@H]1CC[C@@H](N1)C#N	
InChI=1S/C7H8N2/c1-2-6-3-4-7(5-8)9-6/h1,6-7,9H,3-4H2	InChI=1S/C7H8N2/c1-2-6-3-4-7(5-8)9-6/h1,6-7,9H,3-4H2/t6-,7+/m0/s1
