20
gdb 74263	2.49864	1.44892	1.15157	3.625	82.79	-0.2262	0.0067	0.2328	1173.3189	0.170151	-399.379331	-399.369659	-399.368715	-399.413263	36.227	
C	 0.0004375849	 1.4832592752	-0.0008319374	-0.494205
C	-0.0371272248	-0.0096635503	-0.0002810435	 0.354053
N	-1.0923715824	-0.7265178618	-0.0581111502	-0.306085
C	-0.6632366994	-2.142414343	-0.0316939012	 0.196308
C	-1.2464929579	-2.839952099	 1.2046842799	-0.39918
C	-1.1057150157	-2.8446976831	-1.3224874377	-0.399222
C	 0.8710637259	-2.0942772349	 0.0538748557	 0.365896
N	 1.6397567868	-3.1049633081	 0.0983567956	-0.55485
N	 1.157574901	-0.7342142321	 0.068038512	-0.387338
H	 0.574949846	 1.8606198612	-0.8543590165	 0.137398
H	-1.0179300617	 1.8670360187	-0.0587758853	 0.160226
H	 0.4759141059	 1.8638562748	 0.9101928417	 0.137423
H	-2.3382863972	-2.8491990608	 1.147451363	 0.120741
H	-0.8740604599	-3.8662330013	 1.2597063709	 0.134874
H	-0.9559079303	-2.3170371887	 2.1204168877	 0.113061
H	-0.7154895223	-2.3249575482	-2.2022839784	 0.113055
H	-0.7293471168	-3.8709804921	-1.3321942579	 0.134892
H	-2.1971196439	-2.8543459592	-1.3866489846	 0.120735
H	 2.6247217158	-2.8401567064	 0.1531516353	 0.202167
H	 2.081498236	-0.338180821	 0.118428921	 0.250051
86.5324	143.8051	157.5804	212.0896	222.5439	238.4043	281.364	297.241	335.2797	357.1474	437.54	530.308	606.0532	622.6206	652.842	709.1094	742.5634	852.5541	888.1797	952.6281	969.6867	981.7927	1023.7493	1033.6382	1062.8058	1088.4017	1189.9727	1194.4255	1227.1875	1257.7903	1333.8049	1386.6142	1401.4191	1407.2614	1439.0717	1475.8423	1480.8485	1481.6482	1483.2625	1493.5634	1506.0568	1713.7091	1757.4289	3036.9771	3041.5637	3044.8832	3091.0663	3115.7341	3118.2893	3127.7692	3132.543	3159.105	3451.3549	3651.9801
CC1=NC(C)(C)C(=N)N1	CC1=NC(C)(C)[C]([NH])N1	
InChI=1S/C6H11N3/c1-4-8-5(7)6(2,3)9-4/h1-3H3,(H2,7,8,9)	InChI=1S/C6H11N3/c1-4-8-5(7)6(2,3)9-4/h1-3H3,(H2,7,8,9)
