20
gdb 105837	2.09189	1.52905	1.19873	2.2397	79.99	-0.2368	-0.021	0.2157	1168.1773	0.169486	-403.132391	-403.123067	-403.122123	-403.166651	34.534	
C	 0.1901142249	 1.7249611753	-0.3079414806	-0.383879
C	-0.0830296549	 0.435909108	 0.4810698148	-0.296067
C	-1.3841927535	-0.1983118414	 0.0766559938	 0.194363
C	-2.7095007397	 0.0868126357	 0.7141498905	-0.018866
C	-3.9988140983	 0.4388873065	 0.0012842118	-0.43373
N	-2.166542133	-1.266704755	 0.8822789091	-0.187053
C	-2.4565347613	-2.018103429	-0.3893779023	-0.291959
C	-1.5920426937	-1.0125326532	-1.1688900766	 0.354839
O	-1.0663710557	-1.0108713076	-2.2471550443	-0.313939
H	 1.1517339771	 2.158930687	-0.0193549172	 0.11709
H	 0.2163631467	 1.5198112148	-1.381778405	 0.145966
H	-0.5874573551	 2.4740426869	-0.1252262892	 0.114866
H	 0.7317111697	-0.2782624813	 0.31200462	 0.113421
H	-0.1068124853	 0.6399366159	 1.5574620963	 0.111385
H	-2.5900362945	 0.637638529	 1.6473056647	 0.104539
H	-4.0787410731	 0.0138030235	-1.0003962819	 0.135342
H	-4.8615196221	 0.1046884041	 0.5880233664	 0.131945
H	-4.0684209586	 1.5264963905	-0.0991657582	 0.132805
H	-1.981741499	-3.0028469053	-0.3622383594	 0.141468
H	-3.5129676604	-2.1333907843	-0.6415994428	 0.127464
60.9502	106.4006	143.4027	176.0812	202.1316	280.5221	304.7518	316.9594	401.6424	466.733	528.995	579.6737	658.0289	712.2034	727.5844	780.0013	848.5133	874.0045	941.1627	976.1217	996.1728	1041.3444	1055.9831	1082.9949	1113.2894	1121.4334	1160.6707	1180.9717	1242.9604	1260.0971	1316.1527	1333.4852	1357.4616	1410.1325	1411.7137	1441.3197	1467.9358	1484.5249	1496.4914	1499.0903	1501.1846	1511.4638	1875.0312	3032.2475	3039.7864	3041.7646	3066.3815	3070.4526	3102.0137	3105.1966	3108.803	3120.5078	3122.3905	3138.4083
CCC12C(C)N1CC2=O	CC[C@]12[C@@H](C)N1CC2=O	
InChI=1S/C7H11NO/c1-3-7-5(2)8(7)4-6(7)9/h5H,3-4H2,1-2H3	InChI=1S/C7H11NO/c1-3-7-5(2)8(7)4-6(7)9/h5H,3-4H2,1-2H3/t5-,7-,8?/m1/s1
