16
gdb 34799	4.13144	1.32078	1.24063	1.9216	73.68	-0.24	0.0428	0.2828	1017.7189	0.125316	-400.637975	-400.63115	-400.630206	-400.669006	27.993	
C	-0.0563066127	-1.2103365926	-0.0839151244	-0.406341
C	-0.015838041	-0.0108256824	-0.0180548234	 0.310617
C	-0.0202499507	 1.434470441	 0.0057020641	-0.189812
C	-0.050984937	 2.0909363336	 1.4254950562	-0.061153
N	 1.416737489	 1.7535245509	 1.5035008009	-0.300504
C	 1.3865657443	 2.1181155566	 0.0405256499	-0.061156
C	 1.0211375819	 3.6294901653	 0.0758540862	 0.013995
O	-0.3350345287	 3.9585407558	-0.2715182313	-0.237858
C	-0.0317912152	 3.6095811591	 1.090250982	 0.013987
H	-0.0794095425	-2.2706873317	-0.1292163629	 0.187194
H	-0.7228755277	 1.8476771475	-0.715492469	 0.128029
H	-0.6989581928	 1.7334383663	 2.2240685226	 0.085939
H	 1.9413036367	 2.431887271	 2.0612969737	 0.2068
H	 2.2154586487	 1.7885426221	-0.583744237	 0.085939
H	 1.7592705643	 4.4112823595	-0.0695702833	 0.112161
H	-0.2197818763	 4.373861868	 1.8370588859	 0.112161
148.1301	150.346	348.5193	391.5378	425.9416	496.5106	555.9393	587.9383	617.4621	631.7691	700.5033	790.1172	834.9315	860.9688	878.5276	891.6478	902.4252	943.7847	959.8559	982.0269	1045.5325	1057.8595	1083.3437	1131.0666	1132.2246	1199.8163	1216.353	1223.7552	1253.5114	1276.3306	1287.9851	1336.3965	1348.945	1400.8832	2241.3401	3131.5303	3135.7434	3137.7882	3168.1747	3180.5594	3413.262	3506.1524
C#CC1C2NC1C1OC21	C#C[C@H]1[C@H]2N[C@@H]1[C@H]1O[C@@H]21	
InChI=1S/C7H7NO/c1-2-3-4-6-7(9-6)5(3)8-4/h1,3-8H	InChI=1S/C7H7NO/c1-2-3-4-6-7(9-6)5(3)8-4/h1,3-8H/t3-,4+,5-,6-,7+
