19
gdb 64696	4.41334	0.80286	0.77755	2.8266	83.81	-0.2477	-0.0213	0.2264	1492.5515	0.155896	-385.859208	-385.849399	-385.848455	-385.894087	36.009	
C	-0.0564476937	 1.7224105349	 0.1558717757	-0.470018
C	-0.0705579046	 0.2068916921	 0.0787986864	 0.335218
C	-1.4003287796	-0.3807111393	-0.4075577648	-0.421952
C	-1.7363466283	 0.0175705391	-1.7716099505	 0.317254
C	-1.9964341382	 0.3547438043	-2.895625171	-0.449261
C	 1.1753882722	-0.5284582416	-0.2818566696	-0.324137
C	 0.6385320014	-0.6385842713	 1.1445934239	-0.154804
C	 1.3974917099	-0.0262136809	 2.2570391474	 0.156934
O	 1.41382813	-0.4588258416	 3.3839789301	-0.269121
H	 0.9294210405	 2.1151574559	 0.4137580327	 0.121543
H	-0.3390994787	 2.1412891116	-0.8148473917	 0.140504
H	-0.7716841718	 2.0888598754	 0.9008167486	 0.125469
H	-1.3598080489	-1.4751192597	-0.3502627631	 0.132592
H	-2.2037943451	-0.0683134882	 0.272777113	 0.137572
H	-2.23556513	 0.6445015699	-3.8888547966	 0.199826
H	 1.1107602312	-1.4168786111	-0.9002042999	 0.129546
H	 2.0841938172	 0.0488784871	-0.4213806524	 0.123012
H	 0.1523158502	-1.5673580951	 1.4257136476	 0.103037
H	 1.9877464464	 0.8785752183	 1.9860346943	 0.066786
55.2242	102.5596	106.0962	186.1913	208.2898	270.2229	326.701	343.4173	360.7353	385.7493	396.7767	475.0714	573.3542	622.2589	647.9616	722.8578	841.3239	864.1115	907.2767	946.1256	955.256	978.4312	1024.6976	1052.6493	1078.5569	1080.8348	1113.2276	1189.4546	1206.9393	1247.9792	1327.8141	1342.9831	1386.0595	1420.432	1450.1064	1464.8981	1487.3606	1494.3719	1508.7553	1812.6896	2237.2846	2870.1832	3019.074	3037.5801	3055.3197	3101.3027	3124.1307	3130.3866	3166.7125	3217.4453	3505.3763
CC1(CC#C)CC1C=O	C[C@@]1(CC#C)C[C@H]1C=O	
InChI=1S/C8H10O/c1-3-4-8(2)5-7(8)6-9/h1,6-7H,4-5H2,2H3	InChI=1S/C8H10O/c1-3-4-8(2)5-7(8)6-9/h1,6-7H,4-5H2,2H3/t7-,8+/m0/s1
