21
gdb 73210	2.4005	1.73578	1.30241	1.6479	82.09	-0.2392	0.0175	0.2567	1065.6223	0.183865	-387.089395	-387.081166	-387.080222	-387.122454	32.309	
C	-0.0715264633	 1.4423013281	-0.1630664546	-0.471453
C	-0.0502265836	-0.0764558851	-0.0309216684	 0.293552
C	-1.2569123004	-0.7216089342	 0.6924507405	-0.130874
O	-0.3976356895	-1.3619378488	 1.6570857195	-0.297268
C	 0.7595168182	-0.6434672347	 1.1671804087	 0.11601
C	 1.9621122736	-1.5478909224	 0.8476967959	-0.290766
C	 2.6085453643	-1.1476214061	-0.4566107066	-0.05408
C	 1.8576727211	-0.7785713179	-1.495038953	-0.060312
C	 0.3541244575	-0.7522206206	-1.3598088455	-0.32429
H	 0.8955088772	 1.8149154879	-0.517425712	 0.123216
H	-0.837127567	 1.763190972	-0.8790276202	 0.113388
H	-0.2867328742	 1.9237524461	 0.7965069218	 0.115269
H	-1.9398677844	-0.0022781707	 1.1656464563	 0.090679
H	-1.8470983233	-1.4490735188	 0.1211741968	 0.096033
H	 1.0552608697	 0.139449611	 1.8792415968	 0.068564
H	 2.6862713524	-1.5413380317	 1.667372652	 0.102662
H	 1.5774810013	-2.5747666333	 0.7786544346	 0.123667
H	 3.6913724546	-1.1809258538	-0.5312271418	 0.088539
H	 2.3087922934	-0.5044123014	-2.4437861103	 0.087914
H	-0.027660242	-1.7830568857	-1.3690753293	 0.111815
H	-0.1157253655	-0.2412783198	-2.2064850412	 0.097733
44.6014	121.5094	224.2937	266.7545	320.5174	358.1036	410.3218	428.9597	459.1174	532.4967	622.828	702.7447	764.9505	795.1526	892.8193	904.2675	923.2982	952.369	976.4028	985.4276	993.4891	1014.4357	1024.1529	1041.7354	1092.1053	1140.5616	1155.5412	1169.9778	1188.1823	1206.8787	1240.1034	1272.3122	1300.8598	1325.239	1332.7188	1368.7475	1380.0489	1404.5901	1412.5865	1479.1065	1484.6303	1496.5505	1498.8292	1526.9531	1702.1475	2993.4242	3001.2154	3003.0835	3016.0764	3025.3406	3044.7883	3067.5147	3080.8749	3091.2501	3100.3533	3160.2653	3183.6796
CC12COC1CC=CC2	C[C@]12CO[C@H]1CC=CC2	
InChI=1S/C8H12O/c1-8-5-3-2-4-7(8)9-6-8/h2-3,7H,4-6H2,1H3	InChI=1S/C8H12O/c1-8-5-3-2-4-7(8)9-6-8/h2-3,7H,4-6H2,1H3/t7-,8-/m0/s1
