17
gdb 130447	3.15227	1.30858	0.96083	5.9469	70.9	-0.2065	0.0284	0.2349	1183.3875	0.138913	-451.329453	-451.321568	-451.320624	-451.362129	30.02	
N	-1.2422111044	 1.4214920218	 0.2034207684	-0.512366
H	-1.5002611656	 0.4949562037	-0.1238626453	 0.250375
H	-0.7952589288	 1.8905603197	-0.580691015	 0.248327
H	-2.584708858	 2.3674171645	 0.719721112	 0.317572
C	-0.2895998829	 1.3222862988	 1.3347671997	-0.171405
C	 0.0203132338	 2.7072119582	 1.9127740378	-0.312942
C	-1.1330735282	 3.3819305684	 2.5926865896	 0.177673
C	-2.4698719828	 3.4657764281	 2.234547429	 0.321027
O	-3.1946072469	 2.9799819418	 1.2298911446	-0.437239
N	-3.0254402021	 4.2251825547	 3.2043071799	-0.228128
N	-2.1020871209	 4.6029023725	 4.1306560527	-0.146596
N	-0.9723142952	 4.0883245683	 3.7518287918	-0.251074
H	-0.7555140249	 0.6958639093	 2.1020314608	 0.127717
H	 0.6470513859	 0.8339247908	 1.0317949357	 0.102593
H	 0.8249044089	 2.6124268873	 2.6485293604	 0.133688
H	 0.4264188326	 3.3357715954	 1.1044854344	 0.104316
H	-3.9895539306	 4.4996879868	 3.2990482633	 0.276463
62.7322	177.2897	248.9457	258.3175	300.5934	346.7444	369.0737	462.4289	493.8707	541.7005	667.1761	708.9841	739.2272	746.8662	865.7902	909.221	937.076	1000.1764	1013.5619	1034.8879	1047.2081	1072.0661	1144.6821	1226.9379	1241.0707	1270.4972	1321.7534	1323.0782	1379.3245	1386.1748	1416.7876	1464.274	1477.3025	1508.629	1609.4027	1646.6242	1647.7562	2982.0893	3004.0179	3038.6424	3081.7209	3087.0949	3485.6759	3563.8483	3664.4264
[NH3+]CCC1=C([O-])NN=N1	NCCc1c(O)[nH]nn1	
InChI=1S/C4H8N4O/c5-2-1-3-4(9)7-8-6-3/h1-2,5H2,(H2,6,7,8,9)	InChI=1S/C4H8N4O/c5-2-1-3-4(9)7-8-6-3/h1-2,5H2,(H2,6,7,8,9)
