16
gdb 48562	3.04846	1.81373	1.30973	2.9008	73.41	-0.2295	-0.0419	0.1877	944.9688	0.124716	-400.66452	-400.657677	-400.656732	-400.695913	27.197	
O	 0.0595457208	-0.085774732	 0.2311750169	-0.249183
C	 0.0803907126	 1.1199721872	 0.1802634771	 0.052054
C	 1.3471780071	 1.9029432692	 0.025436696	 0.250815
C	 2.664111574	 1.2040194483	 0.2891172049	-0.152872
C	 3.5597900142	 2.1812945812	 0.1587958423	-0.106285
C	 2.7070839825	 3.3818622301	-0.1850915567	-0.032619
C	 1.5658708431	 2.937874729	-1.1484930637	-0.098012
C	 0.6651687551	 3.9180987895	-0.3953529221	-0.201803
N	 1.4611834062	 3.3008063884	 0.7600480216	-0.18016
H	-0.8592446147	 1.7074734876	 0.2412109362	 0.08571
H	 2.7695172598	 0.1628506211	 0.5516303126	 0.136216
H	 4.6319857653	 2.1686816996	 0.2885284513	 0.120675
H	 3.1482778502	 4.3754218608	-0.2725016279	 0.082349
H	 1.6287247798	 2.7070865345	-2.2191252492	 0.078579
H	 0.8646912911	 4.9852233244	-0.5254933535	 0.107026
H	-0.4099955272	 3.7372754011	-0.354838516	 0.107509
74.8604	211.7397	245.6963	393.3724	416.7895	488.1926	519.1758	648.9875	682.805	736.1186	762.6542	779.7345	796.2248	854.5458	913.1641	928.7398	937.3174	978.1111	1016.4349	1041.5673	1059.4938	1078.1346	1107.7772	1135.445	1157.1137	1198.1433	1236.8071	1244.2673	1257.5687	1324.8376	1336.4661	1431.3045	1540.8805	1639.2299	1810.8861	2911.9152	3030.9793	3065.3052	3117.0522	3125.8604	3238.4394	3269.8632
O=CC12C=CC3C1CN23	O=C[C@@]12C=C[C@H]3[C@@H]1CN23	
InChI=1S/C7H7NO/c9-4-7-2-1-6-5(7)3-8(6)7/h1-2,4-6H,3H2	InChI=1S/C7H7NO/c9-4-7-2-1-6-5(7)3-8(6)7/h1-2,4-6H,3H2/t5-,6-,7-/m0/s1
