16
gdb 45783	3.1268	1.38305	1.04933	2.8811	72.61	-0.2238	-0.0193	0.2045	1103.303	0.125438	-437.913379	-437.905885	-437.904941	-437.945595	29.04	
O	 0.0441131265	-0.0923129725	 0.0620401738	-0.356681
C	 0.0076488408	 1.1173876579	 0.0012515787	 0.40548
C	-1.2839642211	 1.9154154101	-0.150390808	-0.416941
C	-1.1276864265	 3.2811498811	-0.8015733171	 0.394529
C	-1.8364107288	 3.6027484849	-2.0579382106	-0.228445
O	-2.3245475398	 4.0758325205	-0.803384056	-0.284656
C	 0.1300718138	 3.9779292617	-0.4474938871	-0.198401
C	 1.1808558726	 3.2758646334	-0.0152228758	 0.013861
N	 1.1437326763	 1.8886233655	 0.1442647877	-0.348564
H	-2.0121938452	 1.288868153	-0.6668212116	 0.139615
H	-1.6617533477	 2.0723773673	 0.8698300818	 0.151143
H	-1.4362978468	 4.3659267906	-2.7244587932	 0.114702
H	-2.441258075	 2.8346692847	-2.5399909203	 0.117265
H	 0.1850161284	 5.0516226107	-0.5694209483	 0.11097
H	 2.1322509615	 3.733186861	 0.2273057447	 0.127855
H	 1.994711911	 1.3772187202	 0.3224273212	 0.258268
79.0976	123.9443	299.5776	307.7541	354.9738	424.9705	458.1302	505.5896	547.3133	579.3238	638.503	701.3802	749.4051	817.0637	836.4153	916.459	924.504	939.9855	966.6334	1021.2746	1078.1544	1130.8756	1156.3622	1166.3242	1205.168	1267.677	1296.5718	1333.0477	1370.2139	1440.1667	1454.458	1467.0385	1523.2616	1716.4252	1809.6967	3025.8405	3074.4896	3127.4109	3163.9864	3204.6069	3226.7466	3629.9228
O=C1CC2(CO2)C=CN1	O=C1C[C@]2(CO2)C=CN1	
InChI=1S/C6H7NO2/c8-5-3-6(4-9-6)1-2-7-5/h1-2H,3-4H2,(H,7,8)	InChI=1S/C6H7NO2/c8-5-3-6(4-9-6)1-2-7-5/h1-2H,3-4H2,(H,7,8)/t6-/m0/s1
