14
gdb 10778	2.76815	2.12287	1.52072	1.3847	53.78	-0.2391	-0.0554	0.1836	830.1286	0.104334	-456.787942	-456.779364	-456.77842	-456.821687	29.774	
O	 0.4797260407	 1.0401227973	-0.5062441479	-0.41809
C	 0.0817497784	-0.2126341302	-0.0648828723	 0.14829
C	 0.2360175563	-0.5219893827	 1.4682814848	-0.057106
O	 0.3986886498	 0.6851876873	 2.1878103644	-0.423784
C	-1.2457460846	-0.974053731	 1.4634539332	 0.346977
O	-1.9849872697	-1.3818298506	 2.3147897167	-0.295751
C	-1.4621974904	-0.4979153374	 0.0052185827	-0.057098
O	-2.1780998168	 0.7217399061	-0.0321905423	-0.423797
H	 0.0176521879	 1.687547871	 0.0403650587	 0.298337
H	 0.5958495889	-0.960076914	-0.6738968296	 0.101895
H	 0.9820242436	-1.2792822857	 1.744034571	 0.088612
H	 0.1073246631	 0.5311223496	 3.0936549983	 0.301448
H	-1.8575074003	-1.2390106205	-0.7022867062	 0.088615
H	-3.0332553768	 0.5757362109	 0.3880175986	 0.301452
34.1671	105.8918	170.128	205.6621	242.3613	251.075	328.1216	361.8941	423.3111	535.4732	594.5742	627.5621	757.3989	809.9844	866.0708	983.5677	992.2927	1107.0582	1114.9979	1144.2274	1162.1975	1188.1117	1269.5753	1281.248	1287.9789	1341.2893	1356.8617	1395.2545	1450.3202	1882.3096	3011.6632	3015.202	3090.325	3798.3017	3805.0916	3805.9998
OC1C(O)C(=O)C1O	O[C@H]1[C@@H](O)C(=O)[C@H]1O	
InChI=1S/C4H6O4/c5-1-2(6)4(8)3(1)7/h1-3,5-7H	InChI=1S/C4H6O4/c5-1-2(6)4(8)3(1)7/h1-3,5-7H/t1-,2+,3-
