21
gdb 83759	2.41278	1.83101	1.44439	1.5398	81.21	-0.2204	0.0902	0.3105	1024.548	0.183482	-387.070138	-387.06208	-387.061136	-387.102073	32.461	
C	-0.1538998266	 1.5897791478	 0.0089530022	-0.428502
C	 0.0610856779	 0.0791709071	 0.0169482789	-0.019085
C	 1.157000648	-0.5887701276	-0.8918594372	-0.099684
C	 2.3806591224	 0.3134317587	-1.0315996467	-0.082128
O	 2.7946262313	 0.5644261944	 0.3196556681	-0.269314
C	 2.2273391685	-0.4602334634	 1.1118899102	 0.063689
C	 1.5388885705	-1.5036282855	 0.3037885642	-0.178281
C	 0.7178796488	-0.5900690839	 1.2335938365	 0.295001
C	 0.0262592686	-0.9077875799	 2.5284449323	-0.508832
H	 0.7709792088	 2.1243138461	 0.2389425696	 0.138464
H	-0.5242821251	 1.9346775347	-0.9634517955	 0.107853
H	-0.9005148383	 1.8732519571	 0.759270088	 0.110556
H	-0.8912973665	-0.4289466569	-0.1778443544	 0.067999
H	 0.8171695876	-1.0426188089	-1.8223870783	 0.06888
H	 3.1878923179	-0.1837585617	-1.5909550802	 0.091025
H	 2.1651566871	 1.2750805417	-1.5080880356	 0.105894
H	 2.8324519078	-0.7143999276	 1.9748815977	 0.095886
H	 1.7228806429	-2.5702019738	 0.3109771132	 0.084664
H	 0.6623605744	-1.513325356	 3.1831766316	 0.116857
H	-0.2330508442	 0.0064287501	 3.0756273418	 0.12342
H	-0.9011549218	-1.4677183824	 2.3575979633	 0.115638
173.3167	196.8751	212.3214	223.9232	263.0221	284.2213	345.5685	474.1597	531.2605	571.8498	695.088	715.4916	775.7777	784.5049	847.6821	865.6385	899.8687	910.9163	949.6185	962.7702	1019.7627	1026.8794	1030.5444	1068.6835	1084.866	1109.0572	1126.909	1144.4066	1179.2244	1208.476	1230.0359	1237.0003	1267.2459	1286.6317	1321.5107	1369.1424	1374.6773	1404.2841	1413.9817	1443.5849	1486.8309	1493.2445	1498.476	1505.3188	1521.914	2987.6541	3017.291	3024.1679	3030.7361	3074.4013	3076.3671	3086.2546	3089.7948	3117.7371	3124.3652	3179.2213	3194.5931
CC1C2COC3C2C13C	C[C@H]1[C@H]2CO[C@@H]3[C@H]2[C@]13C	
InChI=1S/C8H12O/c1-4-5-3-9-7-6(5)8(4,7)2/h4-7H,3H2,1-2H3	InChI=1S/C8H12O/c1-4-5-3-9-7-6(5)8(4,7)2/h4-7H,3H2,1-2H3/t4-,5+,6-,7+,8-/m0/s1
