16
gdb 123850	3.57138	1.5195	1.10673	2.3851	69.8	-0.2549	-0.0132	0.2417	1036.3501	0.127354	-437.88368	-437.876986	-437.876042	-437.914874	26.239	
C	-0.0177408759	 1.4107057979	 0.0214922045	-0.087545
C	 1.4223267779	 1.9544497771	-0.0064316629	-0.323032
C	 2.157193897	 1.2413789909	-1.0985896146	 0.34309
N	 3.2856798685	 1.6232910707	-1.6415776677	-0.229608
O	 3.5825217147	 0.6463996643	-2.5922384681	-0.170216
C	 2.6138950603	-0.285926793	-2.5822941895	-0.04018
C	 1.6721026491	 0.0224852038	-1.6570785794	 0.089463
C	 0.374302968	-0.5807834279	-1.2042148511	-0.204124
O	-0.0343064477	-0.0094910566	 0.0300484717	-0.245803
H	-0.5342114131	 1.7263693123	 0.9310997622	 0.11757
H	-0.5835457797	 1.7943659103	-0.8430947061	 0.097599
H	 1.431226263	 3.0378465481	-0.1595819667	 0.128486
H	 1.9045556093	 1.7546052256	 0.9571626859	 0.135749
H	 2.7383496453	-1.0949343834	-3.2856859685	 0.151479
H	-0.409025687	-0.4296365175	-1.9665284476	 0.108211
H	 0.4584346304	-1.6571345827	-1.0274315323	 0.12886
111.6057	213.4398	310.773	334.8011	384.2816	456.9958	521.2704	605.5115	665.995	710.9142	733.6131	831.5067	857.2663	913.2774	941.7323	958.9391	982.4572	1028.0799	1091.047	1116.6121	1141.5005	1201.4577	1217.5033	1248.2478	1285.7657	1308.8043	1347.6158	1365.0985	1411.9596	1443.6656	1467.7624	1491.6683	1500.998	1528.989	1655.2205	2956.929	2977.3688	3045.6815	3078.6615	3094.1851	3101.5304	3261.0424
C1CC2=NOC=C2CO1	C1Cc2nocc2CO1	
InChI=1S/C6H7NO2/c1-2-8-3-5-4-9-7-6(1)5/h4H,1-3H2	InChI=1S/C6H7NO2/c1-2-8-3-5-4-9-7-6(1)5/h4H,1-3H2
