19
gdb 88085	3.41116	1.26145	1.1545	2.1986	74.84	-0.2314	0.0803	0.3117	1139.9477	0.158832	-422.994569	-422.986453	-422.985509	-423.027183	31.456	
C	-0.007646257	 1.5435688282	-0.0695827269	-0.423677
C	-0.0619995708	 0.0471443423	 0.1106918885	-0.002603
O	 1.1572585732	-0.6853498448	-0.1030909612	-0.301211
C	 0.5909834646	-0.6679238678	 1.2129432564	 0.393114
C	 1.3918743994	 0.0026284614	 2.3330247537	-0.168996
O	 1.7869812461	-1.0349103557	 3.2306441034	-0.261811
C	 0.9571553518	-2.150850698	 3.0319272298	 0.120971
C	-0.530460433	-1.962279481	 3.1325919691	-0.340522
C	 0.1550897585	-1.9910004104	 1.7711663944	-0.164827
H	 0.8773494903	 1.9730978537	 0.4058449292	 0.127992
H	 0.0212649607	 1.7976635718	-1.13423313	 0.132259
H	-0.8985738354	 2.0128278847	 0.3618337633	 0.123966
H	-0.9363158746	-0.4325729715	-0.3349736795	 0.087207
H	 2.2900032203	 0.4919667082	 1.9483651986	 0.127453
H	 0.7830687192	 0.751145877	 2.8606911669	 0.101938
H	 1.4321607163	-3.0741675906	 3.3398797686	 0.107674
H	-1.1267570789	-2.8306089646	 3.3908386517	 0.118562
H	-0.9200683392	-1.022604349	 3.5099222059	 0.118964
H	-0.0365276517	-2.7957393938	 1.073014598	 0.103549
96.14	154.4083	181.5662	190.4305	281.2616	387.5201	394.8495	442.5951	500.9848	547.8032	707.8945	746.8127	779.3711	804.2777	847.9072	900.9632	935.1636	971.1824	972.4768	1006.261	1030.8268	1037.5169	1059.5195	1086.5494	1094.7835	1125.7993	1158.5955	1159.1289	1190.4948	1229.8929	1244.9757	1304.4704	1321.9444	1375.6066	1392.4203	1410.2689	1473.9859	1475.7434	1490.2669	1509.2224	1520.7246	2995.4947	3038.085	3081.6394	3094.6694	3100.7048	3128.3968	3131.8211	3188.6905	3196.7219	3220.1736
CC1OC11COC2CC12	C[C@H]1O[C@]21CO[C@H]1C[C@@H]21	
InChI=1S/C7H10O2/c1-4-7(9-4)3-8-6-2-5(6)7/h4-6H,2-3H2,1H3	InChI=1S/C7H10O2/c1-4-7(9-4)3-8-6-2-5(6)7/h4-6H,2-3H2,1H3/t4-,5-,6+,7+/m1/s1
