13
gdb 33268	15.3627	0.44932	0.44897	1.6834	110.84	-0.2384	-0.0614	0.177	2285.8734	0.08696	-382.187235	-382.178517	-382.177573	-382.221523	30.624	
C	 0.0750677321	-6.3229460733	-0.065922991	-0.69986
C	 0.0653368508	-5.113497862	-0.0444348689	 0.173182
C	 0.0549066031	-3.76136376	-0.0197790269	-0.038313
C	 0.044560047	-2.542897111	 0.002003659	 0.627126
C	 0.0345771947	-1.1934194298	 0.0270576501	-0.349058
C	 0.0307081778	 0.0199060616	 0.0596422849	 0.256926
C	-0.0080101438	 1.45225904	 0.0673327858	-0.194595
C	 0.5156134597	 2.2353954641	 1.2083464573	-0.15707
O	 1.2472059985	 2.1496475113	-0.0049692785	-0.204236
H	 0.0837479005	-7.3846927111	-0.0857822056	 0.19679
H	-0.7980128535	 1.9005708482	-0.5344429569	 0.128934
H	 0.0677879599	 3.2039622164	 1.4263617699	 0.127199
H	 0.9448376932	 1.7059616156	 2.0564175707	 0.132976
55.9103	61.5726	147.5881	158.7512	271.7709	282.5679	411.9526	465.2913	486.2921	512.0222	563.442	571.3852	610.5291	661.0772	688.2743	817.8282	843.1034	944.874	1034.3562	1086.6454	1154.9117	1161.8038	1263.5643	1315.5618	1410.3043	1516.6964	2154.6105	2295.8959	2331.5202	3088.7136	3115.8714	3184.8592	3501.6178
C#CC#CC#CC1CO1	C#CC#CC#C[C@H]1CO1	
InChI=1S/C8H4O/c1-2-3-4-5-6-8-7-9-8/h1,8H,7H2	InChI=1S/C8H4O/c1-2-3-4-5-6-8-7-9-8/h1,8H,7H2/t8-/m0/s1
