15
gdb 24562	2.29261	2.15011	1.30213	3.5161	77.84	-0.2186	-0.0206	0.198	946.5642	0.115651	-412.994181	-412.986872	-412.985928	-413.025857	27.576	
N	-0.0225071682	 1.3053288968	 0.1683252489	-0.279467
C	 1.0546805985	 2.2104667788	 0.0758927961	-0.091226
C	 1.7572288752	 2.5012119348	-1.0348272582	 0.012518
N	 1.5775289075	 2.0486890556	-2.317270476	-0.243411
C	 1.8451616595	 0.8550843315	-2.7110143293	 0.058465
N	 2.5034421087	-0.1154146538	-2.0155242675	-0.229462
C	 2.0689389909	-0.7193534474	-0.9671104191	 0.061409
N	 0.7961998098	-0.8481451918	-0.5150292801	-0.239005
C	-0.0992219959	-0.012016696	-0.1521885602	 0.103812
H	-0.8590229652	 1.6690112255	 0.6004554811	 0.25945
H	 1.2295934548	 2.7893373411	 0.9762733661	 0.108677
H	 2.5058807654	 3.2863362871	-0.9327546259	 0.116282
H	 1.6626846478	 0.6317588109	-3.7643496989	 0.118635
H	 2.776640292	-1.380161494	-0.4618224967	 0.121407
H	-1.1061273606	-0.4046483891	 0.0035014397	 0.121916
136.7405	172.1337	187.1025	241.0954	362.9011	398.0614	486.6467	499.4259	555.1227	661.0234	718.0959	761.0434	832.1397	881.6617	891.184	931.9174	967.1579	982.6488	996.4826	1050.0127	1055.1515	1134.2008	1254.0108	1328.0219	1391.7913	1435.9128	1447.4681	1488.3841	1536.0154	1621.3527	1659.6213	1700.1025	1763.4361	3104.6301	3107.4619	3110.9395	3131.0984	3183.4487	3599.0822
N1C=CN=CN=CN=C1	N1C=CN=C[N][CH][N][CH]1	
InChI=1S/C5H6N4/c1-2-7-4-9-5-8-3-6-1/h1-5H,(H,6,7,8,9)/b2-1-	InChI=1S/C5H6N4/c1-2-7-4-9-5-8-3-6-1/h1-5H,(H,6,7,8,9)/b2-1-
