18
gdb 128684	3.15531	1.25674	0.91084	2.4221	76.44	-0.1987	0.0454	0.2441	1269.2822	0.147759	-435.283015	-435.273195	-435.272251	-435.317724	34.703	
C	 0.0735751899	 1.3921133688	 0.0306659929	-0.231856
O	 0.0826586479	-0.0304248006	-0.0061599558	-0.2686
C	 0.6874296339	-0.6351223282	 1.0338429094	 0.409115
N	 1.2440412849	 0.0262834246	 2.0324644264	-0.345414
N	 1.6847982814	-0.9750114331	 2.8606279619	-0.287979
C	 1.4314934774	-2.2123252823	 2.3629512173	 0.319903
N	 1.8792159298	-3.3592744085	 3.0251591073	-0.607735
C	 0.7566037709	-2.0485927742	 1.1677246942	 0.020717
C	 0.1974061092	-3.0868812358	 0.2488583945	-0.52374
H	 1.0933905491	 1.7916461334	 0.0303786646	 0.129683
H	-0.4567494325	 1.7140289195	-0.8670480766	 0.121143
H	-0.4394804404	 1.7586030225	 0.9261699845	 0.129596
H	 2.3233851009	-0.7439676802	 3.6009411316	 0.26331
H	 1.5769638988	-3.4040550619	 3.9919313161	 0.249478
H	 1.5850196727	-4.2014451936	 2.5479993403	 0.252564
H	-0.043936057	-4.0121165321	 0.7863081765	 0.103569
H	-0.7254255076	-2.7304159663	-0.2185007701	 0.138722
H	 0.8858171907	-3.353191302	-0.5632140048	 0.127524
83.0676	94.8988	157.8007	174.9578	191.3491	196.086	247.295	283.5924	293.3597	359.7266	440.514	535.3819	618.993	650.4676	732.8519	748.4717	772.2419	786.9404	953.6193	1048.7367	1064.3621	1099.5875	1145.9142	1181.8174	1188.1653	1229.9454	1262.2585	1339.6954	1419.8614	1439.3982	1456.156	1476.8807	1481.973	1500.7127	1503.6179	1552.8524	1576.7104	1632.7355	1673.8669	3014.0655	3029.0291	3060.4596	3093.2676	3099.1572	3138.4089	3522.1607	3619.5508	3685.5254
COC1=NNC(N)=C1C	COc1n[nH]c(N)c1C	
InChI=1S/C5H9N3O/c1-3-4(6)7-8-5(3)9-2/h1-2H3,(H3,6,7,8)	InChI=1S/C5H9N3O/c1-3-4(6)7-8-5(3)9-2/h1-2H3,(H3,6,7,8)
