16
gdb 79481	2.21576	1.91284	1.21073	4.5735	73.57	-0.258	0.0081	0.2661	1022.7104	0.123796	-400.668554	-400.661045	-400.660101	-400.700524	28.835	
C	-0.149065611	 1.602572169	 0.0111765681	-0.420262
C	-0.0453063758	 0.0862628931	 0.0066838558	-0.076437
C	 1.1597759451	-0.5905627516	-0.6877752012	-0.117298
C	 2.1120233163	-0.3615809922	 0.5309688199	 0.047899
O	 2.5309245673	-1.7479182824	 0.6199420623	-0.315498
C	 1.1237728352	-1.8208555497	 0.2697746875	 0.047757
C	 0.6948324652	-0.6109259791	 1.17979389	 0.209338
C	 0.3623113553	-0.6366135773	 2.5757951708	 0.148069
N	 0.0808320353	-0.6443109692	 3.697920367	-0.342732
H	 0.8125231358	 2.0754310121	 0.2363067428	 0.121564
H	-0.4819076376	 1.9697407127	-0.9650149857	 0.128044
H	-0.8725574783	 1.942412395	 0.7589869541	 0.138536
H	-1.0096872967	-0.3768704323	-0.2274973137	 0.091524
H	 1.4489656324	-0.6001939509	-1.7369568816	 0.100284
H	 2.8378593746	 0.4208725722	 0.7429886834	 0.120039
H	 0.6481376468	-2.7944016494	 0.1631531205	 0.119173
119.6209	163.017	211.4249	215.5892	277.8584	439.5096	491.7338	544.5277	553.1475	638.6564	732.5083	753.6828	821.7433	830.7341	901.5402	913.531	915.8422	950.2944	1043.9309	1055.0225	1086.5179	1096.3063	1119.8154	1144.9224	1160.0427	1174.3399	1233.4113	1256.0647	1275.3593	1326.2696	1400.6047	1419.3642	1491.523	1499.71	2346.7404	3035.9078	3053.6105	3105.2704	3107.331	3137.5081	3142.362	3153.4286
CC1C2C3OC2C13C#N	C[C@H]1[C@H]2[C@@H]3O[C@H]2[C@]13C#N	
InChI=1S/C7H7NO/c1-3-4-5-7(3,2-8)6(4)9-5/h3-6H,1H3	InChI=1S/C7H7NO/c1-3-4-5-7(3,2-8)6(4)9-5/h3-6H,1H3/t3-,4-,5-,6+,7+/m0/s1
