17
gdb 50705	3.12359	1.39269	1.06918	3.8292	68.19	-0.2561	-0.0311	0.225	1107.0855	0.135642	-458.949874	-458.941981	-458.941037	-458.982991	29.121	
O	-0.8987566983	 1.1645115887	 0.1057825433	-0.250376
C	 0.2253014154	 0.7646995997	-0.0386327356	 0.145776
C	 1.4433980279	 1.6845815659	-0.0377882081	 0.00122
O	 2.5821409123	 0.8686546058	-0.1827869496	-0.258583
C	 3.7832416677	 1.6183275613	-0.2846541405	-0.078399
C	 3.8497007811	 2.4110693027	-1.5947700397	-0.239184
C	 2.5315304041	 3.1079754	-1.8863426864	 0.042614
O	 1.5066252906	 2.2837430079	-2.4582995579	-0.246629
C	 1.326856551	 2.7435741023	-1.1233759902	 0.022567
H	 0.474210111	-0.3078439718	-0.1845266972	 0.102941
H	 1.4569064428	 2.2113643684	 0.9349366299	 0.097461
H	 3.8647926975	 2.3037558521	 0.5751158917	 0.093825
H	 4.6008186298	 0.8962738727	-0.2170156042	 0.116762
H	 4.6576227283	 3.1482473796	-1.5325271612	 0.105906
H	 4.0783696242	 1.7433868009	-2.4320115129	 0.129574
H	 2.5867678918	 4.10312324	-2.3260732096	 0.100563
H	 0.5175827828	 3.4568471237	-0.9747629618	 0.113962
61.6725	96.5126	175.6261	232.6239	294.5512	365.1387	418.7002	478.6696	562.4439	607.7315	712.8041	784.3878	795.8488	888.7028	900.3338	935.9488	979.54	1011.2022	1057.5006	1079.1052	1087.3285	1113.4503	1145.0374	1178.5351	1253.3513	1279.9087	1281.2901	1310.5657	1329.843	1355.7447	1370.6603	1394.8363	1421.19	1460.3044	1471.9885	1502.6737	1839.9751	2917.3635	2935.8749	2971.8884	3045.477	3087.6029	3098.7389	3114.908	3132.5868
O=CC1OCCC2OC12	O=C[C@H]1OCC[C@H]2O[C@@H]12	
InChI=1S/C6H8O3/c7-3-5-6-4(9-6)1-2-8-5/h3-6H,1-2H2	InChI=1S/C6H8O3/c7-3-5-6-4(9-6)1-2-8-5/h3-6H,1-2H2/t4-,5-,6-/m1/s1
