17
gdb 14765	10.89637	0.59418	0.57151	5.7499	66.93	-0.2748	0.0098	0.2846	1828.6759	0.140089	-400.98767	-400.978092	-400.977148	-401.023408	31.575	
O	-0.1453021019	 1.4251177002	 0.0109358309	-0.416735
C	-0.0052270099	 0.014828406	 0.0023155622	-0.07262
C	-1.4070220244	-0.5828487227	 0.0123621484	-0.186582
C	-1.3912191978	-2.1029127771	 0.004000907	-0.056013
O	-2.7353099203	-2.5591117313	 0.0144110486	-0.236435
C	-2.8244232176	-3.9594536428	 0.0077498325	-0.184592
C	-4.2358164027	-4.356722251	 0.0189582707	 0.265065
N	-5.3369670858	-4.7029948364	 0.0273509911	-0.291371
H	 0.7330791649	 1.8162507358	 0.0050743246	 0.288337
H	 0.5423667274	-0.3273641324	-0.8916595315	 0.08725
H	 0.5590071229	-0.3365587616	 0.8822604023	 0.087257
H	-1.9418447906	-0.2303129489	 0.9001463056	 0.125114
H	-1.958486344	-0.2207790724	-0.861292219	 0.125121
H	-0.8714418416	-2.4861226452	-0.890692719	 0.094454
H	-0.8544392468	-2.4957050413	 0.8843867973	 0.094446
H	-2.3459828685	-4.3947061062	-0.8856735728	 0.138656
H	-2.3292350935	-4.4041892627	 0.8872698711	 0.138649
47.5432	71.7554	83.2287	124.3119	136.9856	193.667	269.4817	307.4898	366.3634	385.7313	499.7834	579.698	780.2419	891.3154	948.7468	1000.0504	1034.9371	1045.0963	1066.5986	1105.2562	1158.6978	1177.0492	1230.1877	1245.5775	1254.5042	1306.4518	1306.5131	1320.034	1389.5959	1451.6492	1468.3401	1493.9714	1499.7155	1524.0517	1534.4157	2374.5644	2949.6934	2958.1419	2967.4463	2976.9075	2983.4794	2989.951	3056.4058	3103.8176	3832.6556
OCCCOCC#N	OCCCOCC#N	
InChI=1S/C5H9NO2/c6-2-5-8-4-1-3-7/h7H,1,3-5H2	InChI=1S/C5H9NO2/c6-2-5-8-4-1-3-7/h7H,1,3-5H2
