20
gdb 11459	4.47913	1.21262	1.1045	1.7816	71.14	-0.246	0.0769	0.323	1143.6728	0.177412	-386.147639	-386.139014	-386.13807	-386.181377	31.702	
C	 0.4161518963	 1.555952644	-0.0271194068	-0.407643
C	 0.2631717568	 0.0502244753	 0.0913213526	 0.168357
C	 0.4555175038	-0.747400118	-1.2192769112	-0.276914
C	 1.167829514	-2.0498879022	-0.7707294099	 0.024978
C	 2.5276394454	-2.20877618	-1.4421986718	-0.08838
O	 3.0979518021	-3.4312727467	-0.9982167562	-0.423686
C	 1.3060465314	-1.8552327168	 0.7568799319	-0.094816
O	 1.2622282634	-0.4535019212	 0.9717267937	-0.258706
H	 1.4019467001	 1.8071073802	-0.4313689522	 0.118975
H	-0.3488729785	 1.9680582176	-0.6925274496	 0.11392
H	 0.3139435471	 2.0326894957	 0.9517115778	 0.125
H	-0.7322468875	-0.1856884741	 0.5086397117	 0.058967
H	-0.4942453201	-0.937809767	-1.7248733885	 0.101316
H	 1.0871990304	-0.1804447375	-1.9133738125	 0.096756
H	 0.5743142009	-2.9407048943	-0.9956181869	 0.07969
H	 2.405278431	-2.2008811904	-2.5373014442	 0.084385
H	 3.161388211	-1.3482961023	-1.172337971	 0.09284
H	 3.9947111495	-3.4890789654	-1.3398355062	 0.287205
H	 0.4782821823	-2.3522723626	 1.2880758737	 0.080928
H	 2.2499355406	-2.2389524741	 1.1496366954	 0.116829
32.2584	131.6605	171.7702	232.1705	249.3425	261.0855	312.785	361.3376	451.1763	475.1151	622.6708	711.1891	832.1747	842.2257	898.3847	903.9169	949.7914	991.1696	1030.8412	1058.8997	1070.0371	1104.1112	1142.2541	1144.2258	1163.0352	1202.2924	1248.1297	1251.6631	1264.5443	1299.2132	1305.7796	1347.8837	1373.3212	1384.3739	1396.1463	1414.2023	1452.9751	1483.857	1493.457	1499.8266	1517.7882	1521.6804	2934.8057	2961.8346	2971.1746	2993.647	3035.2587	3039.5168	3067.0454	3098.7424	3109.2771	3111.9835	3117.3844	3833.2771
CC1CC(CO)CO1	C[C@H]1C[C@@H](CO)CO1	
InChI=1S/C6H12O2/c1-5-2-6(3-7)4-8-5/h5-7H,2-4H2,1H3	InChI=1S/C6H12O2/c1-5-2-6(3-7)4-8-5/h5-7H,2-4H2,1H3/t5-,6-/m0/s1
