17
gdb 34615	3.18058	1.40726	1.07441	3.6896	80.41	-0.2344	-0.0459	0.1885	1104.5281	0.138592	-380.873148	-380.865796	-380.864851	-380.905213	28.145	
N	-0.0562709929	-0.9801441307	 0.5615844137	-0.334514
C	-0.0964443904	 0.155000531	 0.3320146569	 0.2055
C	-0.0856401531	 1.5471387172	 0.0563339007	 0.19642
C	-1.155491141	 2.3418272177	-0.0807512859	-0.171679
C	-0.732422706	 3.755414041	-0.4092814028	-0.223161
N	 0.7292662078	 3.7471891398	-0.2780613131	-0.089542
C	 1.2682343719	 4.033647602	 1.0823431312	-0.168209
C	 2.0461475856	 2.694273511	 1.0675668373	-0.243298
C	 1.1953618084	 2.333718857	-0.1752532522	-0.094639
H	-2.18717896	 2.0205972351	-0.0028728641	 0.126571
H	-1.0493990989	 4.0285883897	-1.4269056675	 0.124854
H	-1.1773726166	 4.4982774425	 0.2654422191	 0.120955
H	 1.8608698688	 4.9514756221	 1.1336978001	 0.111669
H	 0.4919625315	 4.0732016179	 1.8584834874	 0.099529
H	 3.1065711079	 2.8036962071	 0.8359113358	 0.120013
H	 1.932531419	 2.0488131114	 1.9391239866	 0.121256
H	 1.7417065677	 1.949015138	-1.0445731933	 0.098277
98.6064	140.2461	179.4121	256.1333	382.6161	416.8969	505.5686	555.6162	627.8495	706.826	726.9825	763.624	830.8835	855.0342	919.7896	945.4853	955.9818	989.4702	1022.4118	1066.9693	1072.6801	1124.5436	1165.1487	1196.8213	1208.0595	1237.7335	1245.0984	1268.3172	1279.6954	1316.731	1335.545	1340.2939	1486.5702	1488.0211	1518.6689	1669.0805	2335.7368	2994.1288	3011.2253	3032.0206	3039.851	3077.062	3087.8406	3142.828	3214.9662
N#CC1=CCN2CCC12	N#CC1=CCN2CC[C@@H]12	
InChI=1S/C7H8N2/c8-5-6-1-3-9-4-2-7(6)9/h1,7H,2-4H2	InChI=1S/C7H8N2/c8-5-6-1-3-9-4-2-7(6)9/h1,7H,2-4H2/t7-/m0/s1
