17
gdb 34076	3.48248	1.54581	1.33191	0.8467	82.81	-0.2283	0.0099	0.2382	985.3221	0.136625	-347.490016	-347.483018	-347.482074	-347.520995	29.355	
C	-0.0275098696	-1.2136676236	 0.0242015392	-0.335218
C	-0.0061492057	-0.0117411962	-0.0171249917	 0.061428
C	 0.0138800396	 1.4291875246	-0.0630683908	 0.176522
C	-0.8935091634	 2.2105952232	 0.991747428	-0.260249
C	-1.3267742548	 3.1424320031	-0.1286447607	-0.083062
C	-0.1438036408	 3.5433326191	-1.0516763685	-0.089012
C	 1.2457245828	 3.3465556826	-0.5523126736	-0.093856
C	 1.3698730708	 2.1194569787	-0.0407194277	-0.148007
C	-0.7993626984	 2.197327133	-1.1777271689	-0.111094
H	-0.0431025925	-2.2746803795	 0.0580484414	 0.18098
H	-1.7258784095	 1.5760312449	 1.3021699429	 0.118751
H	-0.3786960605	 2.6161100867	 1.8682380776	 0.097543
H	-2.2344478096	 3.7331871557	-0.1405571186	 0.091822
H	-0.3765179664	 4.3134647463	-1.7779011689	 0.088549
H	 2.0072460466	 4.1160398409	-0.5673766564	 0.101704
H	 2.2274752156	 1.6979330743	 0.4670808103	 0.106977
H	-1.2513054043	 1.772227046	-2.0650201236	 0.09622
146.1097	154.263	355.6055	378.4668	464.559	512.666	537.1755	556.7866	617.2242	637.1302	702.6365	728.3366	747.5754	768.2417	789.5234	828.5955	917.7938	922.8779	938.8715	969.2444	976.7463	1006.4926	1016.7788	1049.2023	1073.0516	1107.3339	1128.6371	1155.6248	1205.2584	1242.2894	1261.5958	1302.5042	1359.6645	1372.323	1486.2726	1646.1524	2237.1184	3050.1689	3120.8134	3179.5986	3183.5136	3197.9026	3205.1276	3230.312	3503.1907
C#CC12CC3C(C=C1)C23	C#C[C@@]12C[C@H]3[C@@H](C=C1)[C@@H]23	
InChI=1S/C9H8/c1-2-9-4-3-6-7(5-9)8(6)9/h1,3-4,6-8H,5H2	InChI=1S/C9H8/c1-2-9-4-3-6-7(5-9)8(6)9/h1,3-4,6-8H,5H2/t6-,7+,8-,9+/m1/s1
