21
gdb 81222	2.43773	1.86146	1.42544	1.7895	81.74	-0.2374	0.0798	0.3173	1016.3545	0.184921	-387.027559	-387.02016	-387.019216	-387.058877	30.954	
C	-0.1170811607	 1.5543858625	-0.012445529	-0.446625
C	 0.0239855645	 0.0380663109	-0.0631199794	 0.000786
C	 1.2132239519	-0.6006940201	-0.8430414358	-0.040248
C	 2.1127556288	-0.2785868927	 0.4319365557	-0.335965
C	 0.7776377262	-0.652804172	 1.1083790224	 0.465438
O	 0.1641182857	-0.8002246362	 2.3998382736	-0.365841
C	-0.4383414367	-2.0506878738	 1.9103964021	-0.170179
C	 0.6621821421	-2.1341998006	 0.8148079549	-0.023805
C	 0.8008795154	-2.1100967136	-0.7325687335	-0.281147
H	 0.8221156626	 2.0729521661	 0.1952051431	 0.11837
H	-0.5036773561	 1.9382522598	-0.9627257026	 0.112969
H	-0.8266760325	 1.8369541588	 0.7724368536	 0.127856
H	-0.9512880579	-0.3987007818	-0.3062059375	 0.059008
H	 1.5170385236	-0.2240481077	-1.8196311771	 0.069006
H	 2.9717918131	-0.9204869923	 0.6422702344	 0.09605
H	 2.4119879416	 0.7686778466	 0.4509953876	 0.108229
H	-0.4310795657	-2.8236421448	 2.682733732	 0.110207
H	-1.4620082045	-1.8812446805	 1.5576631838	 0.106537
H	 1.5052028734	-2.6694915009	 1.2603849584	 0.086325
H	-0.1152384769	-2.3017415981	-1.2983531559	 0.105961
H	 1.5649523922	-2.8090388596	-1.0825404607	 0.097067
174.9934	192.3753	234.2023	302.2225	363.1855	419.4676	444.5728	524.9716	564.4776	612.6696	723.9097	770.5376	799.3312	816.3815	869.4233	894.2601	917.8873	932.9906	960.1539	998.7243	1017.1824	1046.0842	1063.4237	1093.7029	1104.4006	1118.8422	1138.1977	1157.5416	1173.2443	1192.1289	1196.8841	1221.0763	1256.3947	1269.2931	1277.9702	1297.0799	1321.6644	1389.3921	1402.3312	1414.5565	1491.5414	1497.2686	1501.4335	1513.9666	1519.2236	3028.5178	3035.7958	3040.7183	3055.2891	3060.5852	3073.4067	3094.5404	3102.25	3106.758	3115.8193	3119.9922	3145.8994
CC1C2CC11OCC1C2	C[C@H]1[C@H]2C[C@]31OC[C@H]3C2	
InChI=1S/C8H12O/c1-5-6-2-7-4-9-8(5,7)3-6/h5-7H,2-4H2,1H3	InChI=1S/C8H12O/c1-5-6-2-7-4-9-8(5,7)3-6/h5-7H,2-4H2,1H3/t5-,6+,7+,8+/m0/s1
