19
gdb 109717	3.2826	1.08948	1.01139	3.0044	72.22	-0.2195	0.0554	0.275	1244.8536	0.158289	-460.109081	-460.100066	-460.099121	-460.142986	33.587	
O	-0.0600005632	 1.09113353	-0.976839381	-0.421097
C	-0.0274940943	 0.2104007085	 0.1580838675	-0.123538
C	-1.3804281732	-0.4437118989	 0.2640433536	-0.156596
C	-1.8719841904	-1.2437148013	-0.940417215	 0.013692
O	-1.0093527357	-1.4008952255	-2.0272705684	-0.432011
C	-1.5147624612	-1.9428879734	 0.3274567465	 0.417424
C	-0.4766593705	-3.0367781603	 0.5274516214	-0.348988
C	-1.6017745333	-3.717439378	 1.3397815595	-0.079434
O	-2.4827243421	-2.5813718071	 1.1553216034	-0.311521
H	 0.8064496623	 1.5019715721	-1.0636701932	 0.290654
H	 0.7563292105	-0.5468746244	 0.0227217121	 0.10198
H	 0.2037265813	 0.7715195742	 1.0740683237	 0.10157
H	-2.1468463257	 0.1190898926	 0.7887692735	 0.102632
H	-2.9319562298	-1.1632849741	-1.1817670426	 0.094276
H	-0.6615615943	-0.5189982712	-2.2221221597	 0.294952
H	-0.1605965915	-3.539857975	-0.3867888595	 0.131044
H	 0.4014229692	-2.7537482675	 1.111964694	 0.108582
H	-2.0176645364	-4.62711123	 0.892135125	 0.10982
H	-1.3935454216	-3.8971030907	 2.3998236193	 0.106559
83.9782	103.7142	149.7539	166.1149	232.2819	274.2602	321.5979	364.9416	423.9804	480.6948	536.8116	601.4172	676.9362	790.6563	816.9657	861.3914	882.5181	944.2732	965.3083	998.3388	1016.5174	1021.7979	1068.6056	1112.2524	1121.1185	1151.0909	1163.4848	1187.3169	1207.7902	1234.9595	1246.6752	1271.735	1306.8821	1336.2983	1360.4118	1387.5366	1454.334	1467.4781	1490.6025	1513.8961	1531.2117	2998.4823	3029.6233	3032.8192	3071.5941	3078.3998	3103.3348	3136.3394	3157.0185	3730.8615	3814.2917
OCC1C(O)C11CCO1	OC[C@H]1[C@@H](O)[C@]21CCO2	
InChI=1S/C6H10O3/c7-3-4-5(8)6(4)1-2-9-6/h4-5,7-8H,1-3H2	InChI=1S/C6H10O3/c7-3-4-5(8)6(4)1-2-9-6/h4-5,7-8H,1-3H2/t4-,5+,6+/m0/s1
