19
gdb 83095	2.21754	1.94873	1.8423	1.6859	78.86	-0.2324	0.0017	0.234	913.0932	0.162617	-385.90346	-385.896509	-385.895564	-385.934168	29.626	
O	 0.1367525913	 1.3460059704	 0.2508739305	-0.449131
C	 0.0128575944	-0.0310521373	-0.0007090128	 0.142565
C	-1.4292063277	-0.5624853053	-0.2440937331	-0.097676
C	-2.0910673615	 0.3085299499	-1.3432894448	-0.263618
C	-1.1339598346	 0.64689027	-2.4663404698	-0.055511
C	 0.1487111264	 0.2679065615	-2.4595603275	-0.087811
C	 0.6922798292	-0.5551419111	-1.2995458547	-0.137
C	 0.0905270399	-1.9544891083	-1.3555843679	-0.07079
C	-1.1066519127	-1.9498586207	-0.7634550089	-0.073016
H	-0.0179838079	 1.8046148128	-0.584882698	 0.278362
H	 0.4444780279	-0.539828434	 0.8657512117	 0.087639
H	-2.0449416986	-0.5575877917	 0.6595755125	 0.066846
H	-2.9764270003	-0.1973789152	-1.7522919979	 0.108245
H	-2.4639682309	 1.2388692879	-0.8926672119	 0.113874
H	-1.5357834657	 1.2148143193	-3.3024925326	 0.089825
H	 0.8090518849	 0.5209320899	-3.2839805035	 0.090243
H	 1.7836015095	-0.5295921824	-1.2612180608	 0.067482
H	 0.5611141573	-2.7915046273	-1.8576759245	 0.096613
H	-1.7859426509	-2.7917895584	-0.6924013361	 0.092858
221.5958	228.367	302.6217	322.3052	412.7218	457.331	497.6251	563.2802	605.3944	611.2411	703.7487	748.5564	782.2015	803.6116	841.0831	904.2319	914.8131	954.103	968.8348	979.7188	991.4488	1015.4059	1047.1357	1078.5095	1117.1632	1134.0273	1138.7169	1195.6716	1234.8954	1256.2329	1273.6016	1302.6934	1325.7686	1334.4882	1338.0598	1378.0061	1403.7924	1434.7399	1465.2858	1658.1022	1690.3025	3007.7245	3033.3772	3065.6529	3075.8463	3086.1136	3144.5868	3172.938	3184.8123	3211.0128	3761.1221
OC1C2CC=CC1C=C2	O[C@H]1[C@H]2CC=C[C@@H]1C=C2	
InChI=1S/C8H10O/c9-8-6-2-1-3-7(8)5-4-6/h1-2,4-9H,3H2	InChI=1S/C8H10O/c9-8-6-2-1-3-7(8)5-4-6/h1-2,4-9H,3H2/t6-,7+,8-/m1/s1
