20
gdb 120396	3.13815	0.87712	0.77079	2.8411	76.6	-0.2489	0.0216	0.2706	1542.9912	0.169542	-440.308212	-440.298118	-440.297174	-440.344042	35.837	
C	-0.1025128668	 1.5516695984	-0.0236928402	-0.378463
C	-0.0883493589	 0.0224509784	-0.0985390414	-0.178562
C	 0.858066558	-0.5114941459	-1.1800484762	-0.158205
C	 0.8999273689	-2.031876775	-1.2459418204	 0.007428
N	-0.3261032712	-2.6890151254	-1.7476633499	-0.333558
C	 0.2160392405	-3.1391731861	-2.919997728	 0.38926
O	-0.2345435939	-3.6534641813	-3.9112228355	-0.372011
C	 1.623837275	-2.6583560701	-2.4876323994	-0.033641
O	 2.2585648179	-1.7598689654	-3.3586661048	-0.428183
H	 0.8943429342	 1.9446241684	 0.2042062532	 0.118192
H	-0.4198690896	 1.9904295757	-0.9758561238	 0.118886
H	-0.7870202679	 1.9068129896	 0.752683688	 0.11361
H	 0.2009370411	-0.391177734	 0.8768768651	 0.096432
H	-1.1071990582	-0.3393552197	-0.2925213465	 0.088886
H	 0.5741371306	-0.1186529738	-2.1622012372	 0.105189
H	 1.877743742	-0.1533373739	-0.9895085942	 0.109418
H	 1.2320125702	-2.451383613	-0.28879239	 0.082644
H	-1.2823148599	-2.6718228651	-1.4229726032	 0.252058
H	 2.28804071	-3.4878068686	-2.2104648257	 0.0977
H	 1.9953344782	-1.9992277529	-4.2549353198	 0.302922
56.4232	83.7972	105.3567	123.5883	173.6658	219.0207	246.8323	275.5082	323.701	387.5325	469.1832	526.3047	560.9316	718.2466	739.4284	781.6074	840.9595	873.8821	900.0394	937.7281	946.9932	1045.5914	1080.1765	1110.0365	1130.3514	1170.7649	1189.4551	1206.488	1254.0466	1266.778	1310.5363	1328.6027	1354.3527	1366.7608	1387.2999	1390.2191	1409.3925	1415.3749	1473.2441	1490.9946	1499.3511	1509.0093	1887.8958	3008.7962	3015.9319	3030.9056	3034.2977	3036.3912	3039.5814	3084.2318	3100.2471	3105.0964	3600.491	3797.0013
CCCC1NC(=O)C1O	CCC[C@H]1NC(=O)[C@H]1O	
InChI=1S/C6H11NO2/c1-2-3-4-5(8)6(9)7-4/h4-5,8H,2-3H2,1H3,(H,7,9)	InChI=1S/C6H11NO2/c1-2-3-4-5(8)6(9)7-4/h4-5,8H,2-3H2,1H3,(H,7,9)/t4-,5+/m1/s1
