23
gdb 118857	2.7657	0.83863	0.72287	2.2265	84.1	-0.2507	0.0766	0.3272	1664.0736	0.203021	-425.39566	-425.384578	-425.383634	-425.432308	39.441	
C	 0.0483029237	 1.3616047076	 0.234553945	-0.223106
O	-0.0246279773	-0.0393574908	 0.3219578772	-0.233651
C	-1.2368871737	-0.5598968578	-0.1911134234	-0.128356
C	-1.1833607505	-2.0697665501	-0.1151806173	 0.319573
C	-0.0502388503	-2.676692669	-0.9237881755	-0.459474
C	-1.5623918935	-2.7292760567	 1.190774952	-0.310741
C	-2.4664180385	-2.871607201	-0.0089643643	-0.031223
C	-3.852708624	-2.2800035447	-0.0236880581	-0.111397
O	-4.7283893455	-3.2343834056	 0.5663172287	-0.418592
H	 1.0127533353	 1.6669706067	 0.6480695283	 0.126179
H	-0.0183136839	 1.7127828768	-0.8080607684	 0.101253
H	-0.7544146861	 1.8515651948	 0.8095364581	 0.100383
H	-2.0861807408	-0.1575998942	 0.3827717207	 0.079201
H	-1.3688476474	-0.2336611868	-1.2388014925	 0.080152
H	 0.9119599142	-2.2742292222	-0.5957182821	 0.134415
H	-0.0252005739	-3.7647469771	-0.8123951047	 0.110115
H	-0.1628925801	-2.4519120781	-1.9916050661	 0.107707
H	-0.9933881639	-3.591469639	 1.521251532	 0.109118
H	-1.9025179552	-2.0867922376	 1.9969514424	 0.109875
H	-2.4343027959	-3.8349418795	-0.5122668955	 0.088173
H	-3.8786885748	-1.3313732313	 0.5329354495	 0.082269
H	-4.157358553	-2.059718097	-1.0602051367	 0.08427
H	-5.6264755349	-2.8973332772	 0.4949424409	 0.283856
63.1294	85.3581	93.8002	121.408	176.4906	215.6032	225.5105	232.296	262.6308	313.1008	327.9081	373.7245	429.4716	456.2149	578.5512	735.7434	840.2995	883.0606	920.8128	942.3375	984.5832	997.3698	1002.0398	1052.3507	1066.0305	1081.1533	1123.3204	1132.1087	1156.0944	1168.8161	1184.6945	1225.4258	1237.5711	1255.8112	1283.9164	1316.5649	1333.6418	1408.1314	1409.9818	1429.0286	1470.9798	1480.9295	1484.4127	1486.0826	1495.1614	1503.4522	1510.2677	1519.0637	1527.9321	2938.0985	2961.702	2964.4039	2986.3563	3004.7004	3006.3018	3026.7068	3091.5129	3111.0933	3117.5913	3128.9184	3137.451	3212.4886	3824.3523
COCC1(C)CC1CO	COC[C@@]1(C)C[C@H]1CO	
InChI=1S/C7H14O2/c1-7(5-9-2)3-6(7)4-8/h6,8H,3-5H2,1-2H3	InChI=1S/C7H14O2/c1-7(5-9-2)3-6(7)4-8/h6,8H,3-5H2,1-2H3/t6-,7+/m0/s1
