17
gdb 50559	3.48321	1.16455	1.01907	3.8162	69.74	-0.2402	-0.0344	0.2059	1183.8465	0.134375	-458.945665	-458.937353	-458.936409	-458.97969	30.274	
O	-0.6948703156	 0.676043832	 0.0235967461	-0.232338
C	 0.2892958087	 1.0234382902	-0.56981634	 0.157528
C	 1.4312501171	 1.8230768889	 0.0627375193	 0.11134
O	 2.6248198305	 1.0855835284	-0.1075596989	-0.272606
C	 3.583642382	 1.9380359154	-0.735929508	-0.154272
C	 2.7142782028	 2.9481464304	-1.4460381278	 0.414276
C	 3.1801076212	 4.1725302524	-2.149762237	-0.343224
C	 2.5510827052	 3.0308161045	-2.937492998	-0.323458
O	 1.575850169	 3.0587502576	-0.6142365959	-0.287567
H	 0.4554495226	 0.8012821169	-1.6472132803	 0.084055
H	 1.2124860798	 2.0203664457	 1.1204124308	 0.100727
H	 4.2242870239	 2.4144342249	 0.0196603574	 0.11003
H	 4.1998493626	 1.3347825826	-1.4064743321	 0.124072
H	 2.5876982121	 5.0700401804	-2.0138185099	 0.137296
H	 4.2481539793	 4.3422896621	-2.2374290473	 0.124168
H	 3.1902419491	 2.4193981205	-3.5661235657	 0.120113
H	 1.5471601199	 3.188053407	-3.3152659726	 0.129859
42.4231	72.2523	128.1242	257.8169	319.4127	326.0707	356.9618	425.4025	447.3725	549.0391	763.493	768.9346	790.1739	877.493	914.8157	939.1051	945.7987	991.6479	1013.1223	1041.7607	1053.1814	1080.4323	1087.1213	1096.1571	1142.8683	1188.229	1211.1049	1252.2515	1314.471	1340.2411	1355.7288	1400.3882	1412.5897	1452.3142	1504.491	1518.1463	1847.0191	2894.4871	3004.9632	3032.4066	3103.0719	3132.4976	3136.8457	3219.1511	3232.621
O=CC1OCC2(CC2)O1	O=C[C@H]1OCC2(CC2)O1	
InChI=1S/C6H8O3/c7-3-5-8-4-6(9-5)1-2-6/h3,5H,1-2,4H2	InChI=1S/C6H8O3/c7-3-5-8-4-6(9-5)1-2-6/h3,5H,1-2,4H2/t5-/m0/s1
