23
gdb 60215	3.75066	0.89078	0.80443	1.2228	85.52	-0.2484	0.0711	0.3195	1521.6039	0.205195	-388.262413	-388.25286	-388.251916	-388.2971	36.599	
C	 0.0779252247	 1.5687151177	-0.0678877406	-0.401975
C	 0.0303607315	 0.0417027444	 0.0037245455	 0.136058
O	 0.7247722454	-0.4378426921	 1.1556933173	-0.423565
C	-1.4021766594	-0.5037632686	-0.0721643854	-0.217911
C	-1.4892733079	-2.0285803047	-0.0797049124	 0.039522
C	-1.2722675767	-2.8500017711	 1.2414833369	-0.235274
C	-2.6270480011	-3.5337999999	 1.0217540961	-0.041968
C	-3.717501976	-2.5021411401	 0.9977758533	-0.273952
C	-2.8690043119	-2.6891633661	-0.231773209	-0.072751
H	 1.1106658534	 1.9200357217	 0.0073554024	 0.122177
H	-0.3486626226	 1.9376487136	-1.0063346972	 0.114308
H	-0.4954766402	 2.0141280331	 0.7551841172	 0.104564
H	 0.6032017915	-0.3692835061	-0.8379725049	 0.085479
H	 0.2746131394	-0.0868422043	 1.9321787515	 0.274539
H	-1.9840734473	-0.0919695259	 0.7652089474	 0.080048
H	-1.8722447873	-0.1150763201	-0.986186288	 0.093442
H	-0.8132519122	-2.4150064628	-0.8505279856	 0.070403
H	-0.4125995542	-3.5191549531	 1.1802988008	 0.104835
H	-1.1857605646	-2.2685954086	 2.1648974683	 0.078589
H	-2.8373149663	-4.5844591314	 1.181117589	 0.081444
H	-4.7281767013	-2.889676693	 0.9153093095	 0.106952
H	-3.6407920762	-1.6046287064	 1.607801942	 0.098339
H	-3.3125221706	-2.9836044763	-1.1764469841	 0.076698
49.6987	99.5239	122.8215	213.9957	234.308	260.3817	294.2356	314.2877	407.4883	449.2351	477.4222	519.2712	680.6161	780.4074	798.9514	829.4774	845.4496	862.8526	934.8977	941.1099	962.5138	963.7897	1006.2385	1023.1721	1031.2728	1064.9244	1077.8411	1085.2356	1103.5675	1118.2596	1138.3105	1165.3419	1198.3878	1229.5673	1236.7793	1261.9429	1293.733	1311.6752	1333.7817	1366.6031	1373.0859	1396.6656	1402.6273	1421.0691	1472.1252	1482.1296	1491.5992	1494.3353	1498.3821	2999.8391	3019.8328	3026.2942	3033.2281	3048.572	3051.4696	3091.9108	3105.0285	3115.7209	3116.6788	3165.7442	3180.6198	3196.7865	3797.2821
CC(O)CC1CC2CC12	C[C@@H](O)C[C@H]1C[C@H]2C[C@@H]12	
InChI=1S/C8H14O/c1-5(9)2-6-3-7-4-8(6)7/h5-9H,2-4H2,1H3	InChI=1S/C8H14O/c1-5(9)2-6-3-7-4-8(6)7/h5-9H,2-4H2,1H3/t5-,6+,7+,8+/m1/s1
