20
gdb 32640	3.28466	0.95353	0.7989	3.0642	83.27	-0.2019	0.0399	0.2419	1483.8516	0.171454	-403.181272	-403.171843	-403.170898	-403.216533	34.411	
C	 0.1115079142	 1.6206527955	 0.0938223303	-0.367752
C	-0.0449260404	 0.0980799559	 0.1410868749	-0.157284
N	 0.6945713291	-0.5232883679	 1.2274958544	 0.029267
C	 2.0077465298	-0.9202664901	 1.1729225034	-0.086857
C	 2.3833197123	-1.3493604183	 2.4247945537	-0.286684
C	 1.252666627	-1.2130392124	 3.2809301041	 0.205841
C	 1.1564853909	-1.575700789	 4.7339210859	-0.158126
O	 0.241888341	-0.7539403399	 5.4514566117	-0.41539
C	 0.2321818348	-0.6954368664	 2.50914163	-0.188701
H	 1.1608491286	 1.8996082423	-0.0381352058	 0.129988
H	-0.4633002907	 2.0357801766	-0.7400635399	 0.11946
H	-0.2478769856	 2.0770826943	 1.020542423	 0.129566
H	-1.0995529797	-0.1721280043	 0.2548725763	 0.121335
H	 0.2988138138	-0.3484477043	-0.7974371303	 0.11941
H	 2.5609860137	-0.8575653552	 0.2486722713	 0.113615
H	 3.3541984735	-1.7354618756	 2.698239834	 0.092034
H	 0.7801406522	-2.5976560247	 4.867278642	 0.115437
H	 2.1608659468	-1.5508805142	 5.1871890162	 0.087163
H	 0.4796309267	 0.1587609232	 5.2553864032	 0.275078
H	-0.7834514279	-0.4453794955	 2.7716581017	 0.122601
49.3009	59.6825	103.044	163.2941	216.2927	249.034	340.212	368.6554	394.5006	457.1618	607.8563	633.5295	654.9738	687.2579	733.7045	776.7609	797.0378	805.4231	949.1578	976.081	1006.7945	1022.2764	1061.0896	1089.8543	1101.1877	1122.9338	1182.5298	1202.4283	1248.6543	1286.0934	1341.844	1376.0175	1389.5774	1409.5072	1417.2357	1435.7852	1440.1389	1483.8973	1488.9401	1506.4018	1509.1846	1535.2068	1593.5144	2970.1968	3037.7682	3041.671	3049.6216	3087.9313	3115.9322	3124.6417	3235.7938	3257.5927	3261.6508	3802.9116
CCN1C=CC(CO)=C1	CCn1ccc(CO)c1	
InChI=1S/C7H11NO/c1-2-8-4-3-7(5-8)6-9/h3-5,9H,2,6H2,1H3	InChI=1S/C7H11NO/c1-2-8-4-3-7(5-8)6-9/h3-5,9H,2,6H2,1H3
