17
gdb 39359	2.90891	1.83586	1.31062	1.674	74.15	-0.2126	0.0024	0.2149	964.7968	0.136794	-421.768882	-421.761883	-421.760939	-421.799967	28.338	
C	 0.1383836676	 1.5300822709	 0.2235467714	-0.40292
C	 1.3202329351	 0.608007591	-0.0590758582	 0.036692
O	 2.2582102558	 0.2365758499	 0.9062879745	-0.259103
C	 1.7622997035	-0.104069678	 2.2145063703	-0.128542
C	 0.6350751576	-1.1153953058	 2.1629134797	-0.259258
C	-0.2217779802	-0.9432403951	 1.1665195824	 0.199633
C	-1.2462484296	-1.6183116573	 0.2847582705	-0.18005
O	-0.9514910787	-0.6557348592	-0.7797115361	-0.333293
C	-0.066191469	 0.0504188565	 0.0947356761	 0.371188
H	-0.012737183	 2.0121563233	 1.1840521095	 0.124573
H	-0.160880717	 2.1269061731	-0.6329192473	 0.130751
H	 1.7927748426	 0.6832463666	-1.0317386424	 0.120425
H	 2.6287438303	-0.5140168157	 2.7391339679	 0.122347
H	 1.4662962591	 0.8148305439	 2.7432163085	 0.107427
H	 0.6242286467	-1.9559422451	 2.8476844501	 0.101419
H	-1.0275175381	-2.6483500261	-0.0163195414	 0.127805
H	-2.2926992726	-1.5411614229	 0.6035410246	 0.120909
163.7779	208.5124	255.8255	311.7842	390.9006	432.2829	481.6994	537.5633	597.1311	717.7819	767.486	781.3622	803.4022	850.2383	928.1359	947.3276	956.8281	972.4394	985.7621	1018.5797	1030.6561	1035.4975	1067.242	1130.2002	1134.5244	1166.0913	1215.1825	1265.9385	1272.8621	1317.9222	1358.2706	1391.2954	1410.7304	1465.5164	1498.2883	1505.2619	1777.054	2981.0116	3025.355	3076.3461	3096.4805	3125.6695	3184.9371	3190.2383	3214.3926
C1C2OCC=C3COC123	C1[C@H]2OC[CH][C]3CO[C@]123	
InChI=1S/C7H8O2/c1-2-8-6-3-7(6)5(1)4-9-7/h1,6H,2-4H2	InChI=1S/C7H8O2/c1-2-8-6-3-7(6)5(1)4-9-7/h1,6H,2-4H2/t6-,7+/m1/s1
