23
gdb 85849	1.92906	1.58753	1.36799	1.9166	81.36	-0.2462	0.0744	0.3206	1139.4549	0.202498	-425.422928	-425.412447	-425.411503	-425.456858	41.019	
C	 0.5942341345	 1.3886295817	-0.3622805807	-0.462621
C	 0.017307696	 0.0318532268	 0.0293640982	 0.391372
O	-1.390516839	 0.1117989261	 0.1718497817	-0.478015
C	 0.5633201759	-1.1323981965	-0.8542857985	-0.330033
C	 1.5598321884	-1.488678282	 0.2825490765	 0.09009
O	 2.8428608593	-0.9037508543	 0.1211256036	-0.435327
C	 0.693846768	-0.6536531164	 1.2778139503	 0.26284
C	 1.435446752	 0.232511469	 2.2744865636	-0.455308
C	-0.2913400441	-1.568134091	 2.0164156445	-0.428111
H	 1.6792540857	 1.337679568	-0.4731595556	 0.138067
H	 0.1751302501	 1.7053352823	-1.327082539	 0.095425
H	 0.3464254269	 2.1495000235	 0.3838843725	 0.119894
H	-1.7380751328	 0.6168554038	-0.5705440819	 0.272524
H	-0.1942942806	-1.9044469925	-1.0062581867	 0.104797
H	 1.0091814754	-0.8652140283	-1.8174659835	 0.082186
H	 1.6513259425	-2.5548860207	 0.5302922702	 0.059127
H	 3.2658404189	-1.3273223088	-0.6325050732	 0.282213
H	 2.2128929338	 0.8302315761	 1.7975426696	 0.127969
H	 0.734894227	 0.9075821333	 2.7788329877	 0.111296
H	 1.9162625462	-0.3791389287	 3.0457850805	 0.109472
H	 0.2488618946	-2.1783223011	 2.7488414688	 0.103226
H	-1.044243706	-0.977883483	 2.5450917948	 0.124478
H	-0.8244914226	-2.2401766673	 1.3391655266	 0.114439
112.8103	191.3508	213.9458	234.0996	238.622	249.695	275.5843	291.7975	303.6232	322.3953	350.4215	383.282	403.0867	436.5802	485.264	537.7511	644.0231	675.3133	838.0073	854.058	880.8242	928.8083	955.7479	964.4681	975.3711	1008.1422	1034.2499	1096.5055	1117.07	1163.632	1193.8525	1210.6886	1216.3783	1238.8309	1249.1745	1277.9037	1327.5032	1365.3364	1397.3414	1400.7968	1406.1532	1426.5407	1469.2602	1480.0586	1482.9303	1491.135	1500.6209	1504.8376	1516.4681	3000.1321	3015.5475	3032.5154	3038.1749	3050.6449	3088.4245	3091.305	3106.1759	3115.6534	3122.4266	3135.2311	3143.3048	3808.2427	3816.0966
CC1(O)CC(O)C1(C)C	C[C@@]1(O)C[C@@H](O)C1(C)C	
InChI=1S/C7H14O2/c1-6(2)5(8)4-7(6,3)9/h5,8-9H,4H2,1-3H3	InChI=1S/C7H14O2/c1-6(2)5(8)4-7(6,3)9/h5,8-9H,4H2,1-3H3/t5-,7-/m1/s1
