20
gdb 39360	2.76301	1.76394	1.25623	1.4781	85.29	-0.2191	0.0089	0.228	1048.1375	0.173896	-365.989993	-365.982636	-365.981692	-366.021379	30.357	
C	 0.1079862964	 1.4538854646	 0.3878065666	-0.346873
C	 1.5198812387	 1.5396640884	-0.3087235934	-0.331518
C	 1.3208210003	 0.0877131368	-0.7699315059	 0.305634
N	 1.5380473966	-0.4465275226	-2.1212507596	-0.387477
C	 2.1406469036	-1.1336966172	-0.9692705762	-0.088366
C	 1.5501051932	-2.4141594937	-0.3943943119	-0.226061
C	-0.0014948154	-2.4323103889	-0.2936317922	-0.279139
C	-0.5704877624	-1.1535023943	 0.2920317812	-0.257917
C	 0.0577235025	-0.0185130006	 0.0064826685	 0.330889
H	 0.085486078	 1.6708507709	 1.4593139334	 0.113302
H	-0.6510883505	 2.0725505602	-0.1015030016	 0.115969
H	 1.59834314	 2.2663553328	-1.119887393	 0.113427
H	 2.3495935782	 1.6891547078	 0.3866061553	 0.107036
H	 0.7032189555	-0.9290260878	-2.4485527814	 0.227999
H	 3.2267886691	-1.0667156351	-0.9455297455	 0.091325
H	 1.8810357236	-3.2802556667	-0.9797473082	 0.103499
H	 1.9701182544	-2.5411544551	 0.6120734591	 0.10745
H	-0.4303786943	-2.6245357649	-1.2875593527	 0.108219
H	-0.2987216446	-3.2928056981	 0.3149713799	 0.106052
H	-1.4444882928	-1.2044303266	 0.9349409275	 0.086552
137.0246	214.4218	243.1808	269.8977	363.5729	430.5589	487.2003	514.8433	595.066	671.8483	729.7441	739.7874	774.3642	809.6232	849.1765	878.9127	897.9524	921.9431	958.1227	1013.2347	1033.1318	1062.1401	1074.2038	1088.1381	1114.6165	1131.461	1167.2003	1203.1337	1206.6394	1222.0184	1230.9006	1253.2103	1268.6047	1312.2946	1339.026	1365.9198	1375.0502	1442.7625	1466.0802	1483.0056	1489.846	1492.0762	1755.4525	2999.2606	3021.2048	3048.5133	3059.6621	3066.31	3067.5862	3093.6638	3124.7944	3125.2942	3166.2548	3481.698
C1CC23NC2CCC=C13	C1C[C@@]23N[C@@H]2CCC=C13	
InChI=1S/C8H11N/c1-2-6-4-5-8(6)7(3-1)9-8/h2,7,9H,1,3-5H2	InChI=1S/C8H11N/c1-2-6-4-5-8(6)7(3-1)9-8/h2,7,9H,1,3-5H2/t7-,8+/m1/s1
