20
gdb 70346	2.7258	1.84228	1.53386	1.1185	77.44	-0.2159	0.0849	0.3009	960.9927	0.172995	-403.112663	-403.10534	-403.104395	-403.143834	30.407	
C	 0.0276159694	 1.4839191089	-0.0667777934	-0.470026
C	-0.073400709	-0.0199013647	 0.0509242729	 0.325812
C	-0.2029741371	-0.6907776016	 1.3700677574	-0.288978
N	 1.0844525483	-0.716517373	 0.6562693461	-0.143217
C	 1.4738603974	-1.9905112912	 0.0128669532	-0.169377
C	 0.6460536831	-2.2911643547	-1.2350428516	 0.091316
C	 0.5162659751	-1.0506232538	-2.1439148818	-0.249374
C	-0.6389263409	-0.7406532231	-1.1646896005	 0.016474
O	-0.7643392879	-2.159740794	-0.8778602106	-0.293786
H	 0.5726195106	 1.895248294	 0.7858333032	 0.13164
H	 0.5582344859	 1.7801969581	-0.9789627542	 0.116649
H	-0.9689708247	 1.9394694846	-0.0957817393	 0.116326
H	-0.2064140271	-0.0929398012	 2.2787404725	 0.103451
H	-0.7806272879	-1.6091306041	 1.4069051449	 0.127044
H	 2.5347094894	-1.9208129423	-0.2616887863	 0.104336
H	 1.3743327771	-2.8098100973	 0.7337967697	 0.110026
H	 0.8802790696	-3.2608711045	-1.682886146	 0.077148
H	 1.3546507971	-0.3530365122	-2.1977657591	 0.108148
H	 0.1595351937	-1.3091728552	-3.1414981234	 0.109375
H	-1.5694499121	-0.3025627429	-1.5364265237	 0.077013
177.7037	210.8501	233.9396	325.7777	362.0472	406.7811	446.9884	505.815	528.664	621.3758	707.5171	748.142	835.3647	867.472	876.3812	912.335	938.448	944.1111	961.4344	975.9161	997.406	1048.9816	1077.8872	1097.2321	1104.4865	1132.2182	1136.8154	1174.063	1207.7399	1241.7653	1248.8409	1261.8372	1324.6236	1328.7316	1360.4001	1365.6612	1384.4354	1414.1552	1478.3661	1487.4322	1490.8738	1493.4144	1502.6454	3017.8354	3028.5295	3064.3866	3068.3498	3072.7802	3081.0705	3087.3789	3103.1892	3123.99	3140.7028	3200.7575
CC12CN1CC1CC2O1	C[C@]12CN1C[C@@H]1C[C@H]2O1	
InChI=1S/C7H11NO/c1-7-4-8(7)3-5-2-6(7)9-5/h5-6H,2-4H2,1H3	InChI=1S/C7H11NO/c1-7-4-8(7)3-5-2-6(7)9-5/h5-6H,2-4H2,1H3/t5-,6+,7+,8?/m0/s1
