15
gdb 25983	5.20955	1.02018	0.85374	4.8446	70.57	-0.1975	0.0206	0.2181	1264.5701	0.115534	-450.204418	-450.196461	-450.195516	-450.23733	29.745	
N	 0.1088158164	 1.3261026656	 0.0549873957	-0.571891
C	-0.3497641997	 0.089559064	-0.3640352007	 0.470754
O	-0.7100512507	-0.1216516	-1.5132075801	-0.406135
N	-0.3191932142	-0.8799434895	 0.6124960958	-0.470878
C	-0.6883522921	-2.2138357354	 0.4250364118	 0.417077
C	-0.7118396822	-3.2766660231	 1.2943858678	-0.202041
N	-1.1583331514	-4.4030508017	 0.6381970886	-0.253102
C	-1.3988600714	-4.0229510357	-0.5933236941	 0.007095
N	-1.1281961594	-2.6951883094	-0.7795781398	-0.290995
H	-0.0939186577	 2.0593997287	-0.6070337535	 0.269885
H	-0.0226410178	 1.5902380733	 1.0194720798	 0.254772
H	 0.1122867408	-0.667860753	 1.4969903746	 0.261396
H	-0.4366473311	-3.293750958	 2.3379428347	 0.09578
H	-1.7672109865	-4.6475399936	-1.392525059	 0.127823
H	-1.1990077232	-2.1088469921	-1.5995907117	 0.290461
73.7879	88.7443	189.3264	307.8482	334.6137	368.665	394.9997	460.0697	527.9956	623.7733	627.4882	677.4569	712.7603	757.7728	791.169	793.8142	811.5819	936.6298	986.7925	1058.9601	1097.2811	1106.7751	1141.6166	1264.1701	1285.0565	1321.9722	1382.4082	1458.6581	1484.3819	1556.6973	1629.2359	1650.4252	1779.2438	3244.1061	3258.0495	3580.8431	3604.2525	3648.9028	3695.1919
NC(=O)NC1=CN=CN1	NC(=O)Nc1cnc[nH]1	
InChI=1S/C4H6N4O/c5-4(9)8-3-1-6-2-7-3/h1-2H,(H,6,7)(H3,5,8,9)	InChI=1S/C4H6N4O/c5-4(9)8-3-1-6-2-7-3/h1-2H,(H,6,7)(H3,5,8,9)
