19
gdb 84256	2.96972	1.4534	1.0824	2.3718	82.93	-0.2364	-0.0145	0.2219	1148.3256	0.159384	-385.896009	-385.887823	-385.886879	-385.928882	31.442	
C	-0.0704318581	 1.5894172558	-0.0298946933	-0.395142
C	 0.01024102	 0.0614573529	-0.0351862614	-0.126356
C	 0.8477491861	-0.5491242996	-1.1513941481	-0.233546
C	 1.5265990467	-1.6002076696	-0.6935512579	 0.269783
C	 2.8598260685	-2.3057462347	-0.7865122369	-0.311025
C	 2.9616117868	-2.0701278982	 0.771377484	-0.23939
C	 1.4144073107	-1.8030715298	 0.7893559789	-0.158425
C	 0.7204650467	-0.5086894745	 1.2384951757	 0.36197
O	 0.7434173714	 0.0149946335	 2.3182976607	-0.304669
H	 0.9275222285	 2.0346885788	-0.0956472153	 0.119586
H	-0.6631125362	 1.9548968146	-0.8737196183	 0.113202
H	-0.5316456015	 1.9383076342	 0.8974590077	 0.137045
H	-1.0149886375	-0.341965226	-0.0260965327	 0.105182
H	 0.9639988806	-0.0698452166	-2.1174572912	 0.097032
H	 2.776403706	-3.3738285887	-1.0136062586	 0.115408
H	 3.6262195277	-1.8660241736	-1.4293566933	 0.113498
H	 3.3219085922	-2.9076304628	 1.3714559046	 0.110633
H	 3.5353099871	-1.1734659465	 1.0143036252	 0.122859
H	 0.8464968244	-2.6756191693	 1.1329271502	 0.102354
66.6898	157.4424	186.5505	212.1568	253.7027	318.882	382.3593	501.7007	543.2171	619.9035	631.1967	735.8655	757.6171	793.013	848.0305	864.0313	902.7081	910.5291	959.1574	1003.9234	1034.8861	1043.6146	1080.9078	1105.6613	1118.4444	1155.1125	1173.067	1201.1315	1226.8081	1241.3055	1258.2066	1277.5733	1299.0759	1332.1782	1403.6473	1475.2359	1487.0419	1491.6256	1498.4599	1719.8357	1850.6798	2976.0318	3039.9619	3040.648	3047.5562	3074.3767	3103.1266	3108.4033	3124.6724	3136.8041	3186.9477
CC1C=C2CCC2C1=O	C[C@H]1[CH][C]2CC[C@H]2C1=O	
InChI=1S/C8H10O/c1-5-4-6-2-3-7(6)8(5)9/h4-5,7H,2-3H2,1H3	InChI=1S/C8H10O/c1-5-4-6-2-3-7(6)8(5)9/h4-5,7H,2-3H2,1H3/t5-,7+/m0/s1
