16
gdb 34461	3.64456	1.4723	1.24773	3.8721	72.71	-0.2501	0.0232	0.2734	990.9191	0.126373	-400.731772	-400.724961	-400.724017	-400.762944	27.053	
N	 0.1197407665	-1.0815070437	-0.0235112101	-0.342974
C	 0.0371359151	 0.073406125	-0.0254871835	 0.18007
C	-0.0616083929	 1.4997908116	-0.0136622224	 0.163835
C	-1.2243887145	 2.1962427019	 0.7124124727	-0.293314
C	-1.3754753282	 3.5501448957	-0.033689004	-0.21545
C	-0.0415313831	 3.6942738854	-0.751388172	 0.072395
O	 1.0239330985	 3.6453443491	 0.2668494651	-0.306184
C	 1.2623157499	 2.2946594357	-0.0804828103	 0.081666
C	 0.358223612	 2.2910658902	-1.2576467562	-0.185533
H	-2.1309643064	 1.5900093763	 0.6589402254	 0.125301
H	-0.9828029137	 2.3454633806	 1.7673637624	 0.13058
H	-2.1898993023	 3.515179928	-0.7658822218	 0.112719
H	-1.5601346744	 4.386220717	 0.6454994981	 0.121692
H	 0.0840570135	 4.5495904941	-1.4155805979	 0.098443
H	 2.2318082235	 1.8562324516	 0.1210913912	 0.132138
H	 0.4432213665	 1.9050491816	-2.2627762266	 0.124616
139.5626	159.575	231.0646	374.0508	453.1545	489.323	538.937	557.6698	665.5897	734.3814	750.0522	830.502	858.4386	868.9563	905.3729	923.7179	951.2584	1006.8677	1017.3013	1043.4273	1053.5712	1086.4248	1150.7733	1170.4046	1200.9056	1228.6157	1257.8841	1262.9485	1291.8719	1330.9444	1339.6998	1388.4714	1472.7061	1497.0148	2344.4996	3049.043	3074.1055	3104.4817	3119.3267	3123.0065	3198.6371	3226.6025
N#CC12CCC3OC1C23	N#C[C@@]12CC[C@H]3O[C@@H]1[C@@H]23	
InChI=1S/C7H7NO/c8-3-7-2-1-4-5(7)6(7)9-4/h4-6H,1-2H2	InChI=1S/C7H7NO/c8-3-7-2-1-4-5(7)6(7)9-4/h4-6H,1-2H2/t4-,5+,6-,7-/m1/s1
