21
gdb 109542	2.05557	1.44759	0.98048	2.6419	78.91	-0.2324	-0.0121	0.2202	1268.9982	0.18016	-424.235288	-424.224997	-424.224053	-424.270588	37.16	
C	-1.1234392637	 1.0813753903	-0.1536613665	-0.416342
C	-0.1004824046	-0.0467945251	-0.1294580711	-0.107917
C	 0.7234243732	-0.4817276434	-1.3968100818	-0.042108
C	 0.824066885	 0.5824190661	-2.4760858652	-0.08991
O	 1.6616716412	 0.0728316082	-3.5037673182	-0.420028
C	 2.0042825055	-0.637505674	-0.4941428862	-0.088481
C	 3.3918193785	-0.190024186	-0.9325671782	-0.402282
C	 1.2539082104	 0.1929385897	 0.556482869	 0.372356
O	 1.6051876779	 0.906597256	 1.4536584854	-0.310303
H	-0.7060944656	 2.0007638427	-0.5742178369	 0.123657
H	-2.0082814763	 0.8090257423	-0.7375790037	 0.119099
H	-1.448279472	 1.3089204149	 0.8658940817	 0.134699
H	-0.549215991	-0.9444073723	 0.315122487	 0.103571
H	 0.3883615002	-1.4110451487	-1.862478369	 0.080267
H	-0.1817458406	 0.8109058597	-2.8622209957	 0.092351
H	 1.2299043867	 1.518742275	-2.0590156563	 0.09101
H	 1.761107738	 0.7521081	-4.1773408712	 0.287582
H	 2.0448738209	-1.674320733	-0.1348129913	 0.100953
H	 3.3919460448	 0.8470373155	-1.2784274414	 0.118169
H	 4.0836979168	-0.2546678098	-0.0871867879	 0.12442
H	 3.7698160945	-0.8141981381	-1.7454454627	 0.129238
55.0497	130.5957	146.4184	176.458	182.6628	196.6413	219.7479	231.8095	275.2494	332.8053	429.9831	501.7031	530.5163	560.357	727.1892	760.3626	786.0821	861.8041	952.8206	965.4304	972.6338	1019.304	1037.2796	1084.1217	1098.0073	1133.4863	1158.1705	1167.7329	1178.4978	1224.3661	1249.3365	1273.6854	1279.2534	1324.2714	1363.1944	1366.7597	1408.2421	1410.5901	1464.0638	1484.7256	1491.3338	1494.7711	1497.4942	1522.8126	1877.7431	2962.9275	2991.5085	3023.0137	3030.2856	3040.9529	3046.9839	3087.0308	3108.8827	3112.9537	3115.1885	3127.5086	3828.2715
CC1C(CO)C(C)C1=O	C[C@H]1[C@@H](CO)[C@@H](C)C1=O	
InChI=1S/C7H12O2/c1-4-6(3-8)5(2)7(4)9/h4-6,8H,3H2,1-2H3	InChI=1S/C7H12O2/c1-4-6(3-8)5(2)7(4)9/h4-6,8H,3H2,1-2H3/t4-,5+,6+
