17
gdb 62317	3.97946	1.30851	1.14866	1.6689	78.02	-0.2382	0.0258	0.264	1074.155	0.133266	-384.563747	-384.555555	-384.554611	-384.59622	32.046	
C	-0.0441607258	 1.6122110838	-0.01427322	-0.454445
C	 0.082558963	 0.0785676054	 0.0312679199	 0.147432
C	-1.0672753088	-0.5953429163	-0.534667695	 0.249642
C	-2.0283848793	-1.1431142879	-1.007563714	-0.437106
C	 1.3498692584	-0.7459502491	-0.2070584159	-0.134801
C	 2.6332803678	-0.1580828511	 0.4573281021	-0.005817
O	 2.3216787512	 1.0680711686	 1.1300068082	-0.238939
C	 1.9953855901	-0.1718359895	 1.7696942019	-0.005818
C	 0.6849243718	-0.7602817584	 1.1609596055	-0.134797
H	 0.7588069745	 2.0621853347	-0.598126085	 0.132655
H	-0.9985965414	 1.8771452844	-0.4755618048	 0.116388
H	-0.011118788	 2.0455787546	 0.9853400208	 0.132648
H	-2.8792544776	-1.6204700817	-1.4261544235	 0.190498
H	 1.3735012121	-1.534704138	-0.9470254228	 0.106789
H	 3.6576726817	-0.3161720986	 0.143125009	 0.114441
H	 2.3825248681	-0.3436697075	 2.766535281	 0.11444
H	 0.1241907623	-1.5616270433	 1.6231995524	 0.10679
91.417	153.5343	157.002	236.3063	285.7794	356.3145	449.3426	528.0466	545.0836	589.9383	593.0113	642.4132	699.7586	742.7416	772.7149	792.554	865.1066	879.6713	912.7497	924.174	965.4047	994.9825	1012.778	1036.1852	1042.7905	1087.5255	1163.6268	1221.2291	1222.7492	1249.2198	1273.5794	1320.1171	1398.7568	1421.422	1487.3446	1497.831	2230.2886	3062.9424	3135.5084	3152.4189	3184.8829	3199.2937	3202.2449	3212.4647	3503.8033
CC1(C#C)C2C3OC3C12	C[C@@]1(C#C)[C@H]2[C@H]3O[C@H]3[C@@H]12	
InChI=1S/C8H8O/c1-3-8(2)4-5(8)7-6(4)9-7/h1,4-7H,2H3	InChI=1S/C8H8O/c1-3-8(2)4-5(8)7-6(4)9-7/h1,4-7H,2H3/t4-,5+,6-,7+,8-
