21
gdb 114894	2.93696	1.28556	1.17609	1.9884	77.91	-0.2461	0.0852	0.3313	1177.0177	0.184007	-424.220882	-424.212601	-424.211657	-424.253909	31.817	
C	 0.3432199032	 1.4500575373	 0.1485707293	-0.38579
C	 0.1136082047	-0.0624039497	 0.0593094931	-0.201855
C	 0.5365357003	-0.6189166128	-1.2888182437	 0.16195
O	 1.9622326512	-0.471037775	-1.5298173851	-0.313299
C	 2.1162919647	-1.8727687676	-1.8170259648	 0.123738
C	 2.8687936403	-2.631905734	-0.7278718664	-0.105029
O	 1.9334987628	-2.8199145309	 0.3288154062	-0.246329
C	 0.6677054504	-3.0551047497	-0.2803113782	-0.096098
C	 0.6211017172	-2.1525444481	-1.5145308499	-0.147003
H	 1.3974741494	 1.6851648196	-0.0226880803	 0.137632
H	-0.2473757916	 1.9882157964	-0.6013359179	 0.110215
H	 0.0635467522	 1.8339535741	 1.1339836403	 0.110884
H	 0.68047483	-0.5726381808	 0.844581439	 0.122155
H	-0.9488878385	-0.294112732	 0.2146106162	 0.090661
H	-0.025956292	-0.1170868371	-2.0902312418	 0.069548
H	 2.5056677206	-2.0478734827	-2.8251768075	 0.077109
H	 3.2168958548	-3.6020379353	-1.121426941	 0.08548
H	 3.7228682155	-2.0747353682	-0.3354939045	 0.121319
H	 0.5726547051	-4.1100656972	-0.5863415491	 0.090564
H	-0.1034456733	-2.8430051503	 0.4646879817	 0.114657
H	-0.005790917	-2.545627086	-2.3145606155	 0.079491
87.2115	121.2665	164.1881	227.2103	248.893	301.7241	379.6874	446.2019	481.6318	611.8408	732.7839	775.169	805.6345	862.0794	870.1841	895.6892	934.5239	949.3481	966.7765	991.7995	1017.7652	1040.9995	1075.4797	1090.6909	1116.6102	1120.6106	1174.8365	1199.0723	1217.7757	1251.7003	1276.914	1285.9832	1297.7946	1324.3411	1338.8702	1352.4286	1362.5385	1400.3006	1406.898	1420.1474	1480.9187	1487.7066	1498.4522	1509.0553	1511.4847	2963.7397	2971.7013	2987.1589	3020.5751	3035.6325	3057.0133	3081.7181	3093.3436	3104.8776	3105.7961	3115.6267	3119.2753
CCC1OC2COCC12	CC[C@H]1O[C@H]2COC[C@@H]12	
InChI=1S/C7H12O2/c1-2-6-5-3-8-4-7(5)9-6/h5-7H,2-4H2,1H3	InChI=1S/C7H12O2/c1-2-6-5-3-8-4-7(5)9-6/h5-7H,2-4H2,1H3/t5-,6+,7-/m0/s1
