16
gdb 12835	3.2029	2.39294	1.76035	2.3183	65.51	-0.2281	0.0115	0.2395	780.0791	0.132528	-379.891133	-379.884354	-379.88341	-379.921687	26.764	
O	-0.310407606	 1.4615835001	-0.1517366644	-0.483199
C	-0.0806212499	 0.0703798656	-0.1010390651	 0.362425
C	 1.1650608823	-0.4121177282	-0.9410985952	-0.262416
N	 1.9271307582	-0.4873022875	 0.3619916896	-0.374421
C	 0.7148736249	-0.4837375204	 1.0530813723	 0.306517
N	 0.1393446997	-1.0498605295	 2.0296707137	-0.314104
C	-1.3147718452	-0.879285464	 1.7104389579	-0.162921
C	-1.4013770885	-0.6605589363	 0.153938352	-0.281302
H	 0.5126797925	 1.9124226752	 0.0693830916	 0.287938
H	 1.0363685455	-1.3874208135	-1.4217533018	 0.116837
H	 1.5707159365	 0.3162278073	-1.6472319948	 0.114564
H	 2.6148467353	-1.2116892836	 0.5349384902	 0.24408
H	-1.8490093741	-1.7791035764	 2.0263076289	 0.108955
H	-1.7404512698	-0.0320741384	 2.2618625621	 0.115365
H	-2.2675059855	-0.076620249	-0.163976162	 0.115457
H	-1.4235590959	-1.6318871813	-0.3488542852	 0.106226
148.0094	236.5178	271.9723	331.2633	359.4659	386.3889	523.8407	603.0504	649.8096	721.6999	750.6065	826.1896	840.5251	894.1442	907.7046	950.5263	963.2427	981.4926	1045.9825	1118.4384	1127.8365	1139.9064	1195.6362	1214.9192	1262.2845	1294.4891	1300.029	1324.729	1354.4317	1388.8646	1469.2921	1495.3719	1500.9455	1770.5921	3035.4578	3043.1003	3063.0802	3094.2761	3113.3179	3125.9839	3551.5888	3796.1363
OC12CNC1=NCC2	O[C@@]12CN[C]1[N]CC2	
InChI=1S/C5H8N2O/c8-5-1-2-6-4(5)7-3-5/h8H,1-3H2,(H,6,7)	InChI=1S/C5H8N2O/c8-5-1-2-6-4(5)7-3-5/h8H,1-3H2,(H,6,7)/t5-/m0/s1
