21
gdb 118276	2.76504	0.75059	0.6374	4.8348	81.23	-0.2395	0.0281	0.2676	1782.3419	0.180943	-420.397599	-420.386812	-420.385868	-420.43449	37.413	
C	-0.2315516678	 1.3095802543	 0.0200068418	-0.226612
O	-0.080568985	-0.0905039257	-0.0110728643	-0.242753
C	 0.6573429351	-0.5480890736	-1.1268651648	-0.067087
C	 0.6732934251	-2.0757468803	-1.0869792495	 0.037464
C	 1.402414857	-2.5949338124	 0.1650887384	-0.398729
N	-0.7146584832	-2.5231327746	-1.2382498386	-0.295616
C	-0.9050504126	-3.9630386829	-1.2923765888	-0.276025
C	-2.3017321049	-4.2914374277	-1.6011252301	 0.266042
N	-3.4036483634	-4.5585378926	-1.8211148065	-0.301375
H	 0.7415807616	 1.8210915955	 0.0820416294	 0.107054
H	-0.75995646	 1.6814240928	-0.8712272225	 0.11172
H	-0.817693108	 1.5561643414	 0.9084008291	 0.130515
H	 0.1856016218	-0.2100210951	-2.0620758177	 0.100172
H	 1.6870518554	-0.1552835046	-1.0969511143	 0.086314
H	 1.2194402423	-2.412752232	-1.9793975569	 0.081883
H	 0.9055333838	-2.23990443	 1.0719423951	 0.134486
H	 1.437017827	-3.6879346854	 0.1891472564	 0.113394
H	 2.4368749519	-2.2360243691	 0.1822136898	 0.116181
H	-1.2789860768	-2.1102616763	-0.5028672255	 0.238025
H	-0.2752932321	-4.3716529873	-2.0934331526	 0.150758
H	-0.632918017	-4.5126308444	-0.3743079579	 0.13419
54.2358	70.5921	96.2053	121.3774	146.0575	198.7905	228.9382	245.3668	281.6317	341.0893	367.3554	392.119	457.2419	549.5361	640.2025	765.6422	848.9208	931.9012	939.5635	947.2024	973.9894	1002.2167	1097.4117	1126.8178	1140.1189	1160.1495	1182.1692	1193.2912	1225.7648	1255.3288	1284.2009	1335.0177	1359.8442	1393.6333	1402.8911	1419.1216	1478.0754	1485.5383	1488.1668	1492.8144	1494.6753	1500.2323	1508.4097	1523.9593	2367.4685	2953.6835	2964.1504	2978.2406	3009.2248	3014.1489	3023.2678	3041.0316	3041.7629	3104.9041	3117.411	3125.4038	3536.4973
COCC(C)NCC#N	COC[C@@H](C)NCC#N	
InChI=1S/C6H12N2O/c1-6(5-9-2)8-4-3-7/h6,8H,4-5H2,1-2H3	InChI=1S/C6H12N2O/c1-6(5-9-2)8-4-3-7/h6,8H,4-5H2,1-2H3/t6-/m1/s1
