15
gdb 33694	4.07602	1.48308	1.37131	5.0799	72.89	-0.2513	-0.001	0.2502	935.9737	0.115044	-379.626743	-379.620485	-379.619541	-379.657333	25.389	
N	-0.0178502489	-1.1275735321	-0.1992473672	-0.345108
C	 0.0043877325	 0.0217305977	-0.0668222881	 0.170011
C	 0.0158628008	 1.4323423278	 0.1407225841	 0.250787
C	-1.1158843378	 2.2812497209	 0.7512417729	-0.170087
C	-0.4259506156	 3.6025410758	 1.0591076071	-0.08455
C	 1.0739329919	 3.4171737624	 1.1629243428	-0.246257
C	 1.2236836982	 2.3163565002	 0.1385739867	-0.092257
N	 0.2360712236	 2.437974761	-0.9671923954	-0.179885
C	-0.8650731111	 3.2776048081	-0.3441030069	-0.014713
H	-2.0302724591	 1.9179971343	 1.19519051	 0.117501
H	-0.9633612365	 4.3511626922	 1.6266812568	 0.107817
H	 1.6283406977	 4.3169484943	 0.8776015861	 0.123694
H	 1.4039997866	 3.0978188865	 2.1562811116	 0.124402
H	 2.1866910776	 1.9164108651	-0.1562417467	 0.124492
H	-1.5239056498	 3.8520801158	-0.9789913738	 0.114154
145.8154	162.4276	386.7643	473.0589	499.8206	536.0423	605.5993	700.6031	729.4734	770.4455	796.6671	835.1745	866.2591	879.7955	896.0317	959.1064	965.453	1005.1871	1018.2418	1039.6474	1047.7882	1070.2941	1098.4875	1164.4447	1190.3351	1217.1031	1256.1494	1266.6128	1298.5701	1372.9681	1391.2972	1485.4916	2349.7143	3054.8955	3101.0579	3196.7431	3207.6062	3220.0613	3237.2264
N#CC12C3C4CC1N2C34	N#C[C@@]12[C@H]3[C@H]4C[C@@H]1N2[C@@H]34	
InChI=1S/C7H6N2/c8-2-7-4-1-3-5(7)6(3)9(4)7/h3-6H,1H2	InChI=1S/C7H6N2/c8-2-7-4-1-3-5(7)6(3)9(4)7/h3-6H,1H2/t3-,4+,5+,6-,7+,9?/m1/s1
