16
gdb 29511	3.16901	1.60114	1.08282	1.7271	71.8	-0.169	0.0472	0.2162	1070.7899	0.125486	-437.885534	-437.877662	-437.876718	-437.917835	29.466	
C	 0.0046584038	 1.5401178372	 0.0048273342	-0.505765
C	-0.0052296043	 0.0436375014	 0.0329383632	 0.100602
C	 0.0346815068	-0.8063317484	-1.0638260368	-0.158196
N	 0.0486177632	-2.1384071053	-0.6419826572	-0.394192
C	-0.0488949879	-2.1109950434	 0.711096665	 0.332716
C	-0.0635432177	-0.8310096169	 1.1492224964	 0.196438
O	 0.1172917291	-0.8229842167	 2.5298568814	-0.285596
C	-0.1396501626	-2.186397133	 2.8671483867	 0.003736
O	 0.1507657291	-3.0205611061	 1.7140425165	-0.285675
H	 0.8802249592	 1.9496003791	 0.5219182259	 0.130216
H	 0.025247342	 1.9094219889	-1.0243496461	 0.11983
H	-0.8807409692	 1.960770349	 0.4949373781	 0.127938
H	-0.0363243568	-0.5725977766	-2.1138002968	 0.116579
H	-0.0595676018	-2.9379847273	-1.2405020198	 0.268254
H	 0.5033221592	-2.4912146629	 3.6938446796	 0.131229
H	-1.2075233722	-2.3090088289	 3.1101752296	 0.101886
118.7307	146.0517	205.3733	229.7388	258.0229	327.1513	386.2483	503.0877	593.7662	600.3556	634.8879	651.3474	665.068	768.7432	805.4879	895.8711	999.1253	1048.9219	1063.5055	1076.991	1109.4223	1140.2302	1164.3254	1239.9004	1261.4535	1357.5551	1406.747	1421.3005	1455.6806	1481.1216	1500.5436	1516.7265	1553.5388	1574.1784	1665.7106	2969.3067	3026.9034	3075.4548	3108.4475	3126.6596	3263.9403	3684.5811
CC1=CNC2=C1OCO2	Cc1c[nH]c2c1OCO2	
InChI=1S/C6H7NO2/c1-4-2-7-6-5(4)8-3-9-6/h2,7H,3H2,1H3	InChI=1S/C6H7NO2/c1-4-2-7-6-5(4)8-3-9-6/h2,7H,3H2,1H3
