21
gdb 112073	1.92953	1.49505	0.92743	2.715	84.34	-0.2361	-0.0191	0.217	1313.6238	0.181801	-387.115135	-387.105759	-387.104814	-387.15009	34.349	
C	 0.0214096497	 1.5878040224	-0.1048436236	-0.399546
C	-0.0285112939	 0.058653917	-0.0352665348	-0.184195
C	 0.6462845329	-0.5133060018	 1.2251142484	-0.0305
C	-0.077555716	-0.266516223	 2.5325568798	-0.059448
C	-0.0542569001	-1.3244672734	 3.3393988254	-0.071287
C	 0.6857241425	-2.4888532094	 2.7270779949	-0.291223
C	 0.8398920208	-2.0735912255	 1.2352681864	-0.107651
C	-0.2244854282	-2.7717036039	 0.4133513507	 0.163524
O	-0.0333019341	-3.3044670133	-0.6500268431	-0.261289
H	 1.0557252182	 1.949311356	-0.0858199632	 0.116954
H	-0.4418853523	 1.9533504864	-1.0261429176	 0.118019
H	-0.506430183	 2.0517597885	 0.7349040866	 0.117652
H	-1.0723305968	-0.2759634158	-0.0825907895	 0.101176
H	 0.4656288469	-0.3610822665	-0.9194633981	 0.115106
H	 1.6453303575	-0.0532272608	 1.2855893343	 0.086597
H	-0.5156779102	 0.6944273268	 2.778583378	 0.097026
H	-0.4748325924	-1.3625746284	 4.3381930719	 0.096645
H	 1.6657990885	-2.6334811259	 3.2002011346	 0.116843
H	 0.1515758826	-3.4414652272	 2.841218354	 0.108864
H	 1.8049875227	-2.353266844	 0.807472284	 0.089708
H	-1.2381688954	-2.7732664481	 0.8790467911	 0.077025
63.1301	67.3557	96.5374	177.9622	205.926	276.448	292.8454	350.0929	403.0307	434.9813	501.6156	688.1377	742.656	772.1107	795.5663	851.6483	892.615	932.3761	960.1184	974.6823	982.2125	998.0729	1027.4013	1062.3536	1091.2394	1125.1455	1130.4438	1153.6001	1198.3122	1228.98	1272.9299	1281.9044	1314.3541	1323.7082	1344.4884	1380.2908	1383.813	1412.7425	1427.4578	1485.2465	1486.7881	1499.65	1505.098	1688.2886	1827.8129	2854.1213	2970.747	3014.9042	3026.2824	3032.3088	3039.6508	3061.7545	3092.2765	3099.367	3105.8749	3183.3947	3208.4828
CCC1C=CCC1C=O	CC[C@H]1C=CC[C@H]1C=O	
InChI=1S/C8H12O/c1-2-7-4-3-5-8(7)6-9/h3-4,6-8H,2,5H2,1H3	InChI=1S/C8H12O/c1-2-7-4-3-5-8(7)6-9/h3-4,6-8H,2,5H2,1H3/t7-,8-/m0/s1
