20
gdb 80763	2.68662	1.27653	1.06766	3.3151	78.95	-0.2304	-0.0197	0.2107	1199.0494	0.170159	-403.106587	-403.097686	-403.096742	-403.14096	33.114	
C	 0.4483168294	 1.8871167637	-0.418516442	-0.439891
C	 0.2055137367	 0.3925671464	-0.4217683236	 0.036413
C	 0.5306512623	-0.5547628578	-1.5062005725	-0.045227
C	 1.8600202636	-0.2314226931	-2.1916543011	-0.299253
C	 2.5110304018	-0.4098715773	-0.7948737703	 0.069545
C	 3.4162464172	 0.6623888526	-0.1801782544	-0.31177
C	 3.5529925087	 0.4650343624	 1.3149846239	 0.180257
O	 3.2759887041	 1.2991816246	 2.1381558996	-0.243422
N	 1.1833041528	-0.6836596732	-0.1279564052	-0.16988
H	 1.1413255202	 2.21747596	-1.1952469924	 0.121366
H	-0.5030045186	 2.3999669693	-0.5944950089	 0.121028
H	 0.8349624865	 2.2192903486	 0.5500791323	 0.152003
H	-0.7135580221	 0.1316056819	 0.1012233658	 0.101323
H	-0.1750523538	-1.2970682866	-1.8665141835	 0.095579
H	 2.1804153305	-0.9821816621	-2.9155273318	 0.113393
H	 1.9315642546	 0.7550030727	-2.6601048323	 0.107103
H	 3.0457867297	-1.3645185566	-0.7589605663	 0.093451
H	 4.4150677513	 0.5601826005	-0.6284536957	 0.117524
H	 3.0663137273	 1.6783390333	-0.3610726412	 0.121536
H	 3.9355787479	-0.5359373395	 1.6194175994	 0.078921
38.7725	81.8939	155.5801	204.0069	260.1865	273.2454	317.8453	376.4821	457.6942	508.3398	612.2761	669.6182	713.3698	764.1054	804.0904	867.54	902.8857	951.3153	956.168	979.3105	1006.3553	1070.7165	1083.6518	1100.3007	1109.8754	1122.2889	1152.2147	1177.4883	1224.76	1253.7344	1271.5223	1277.8923	1309.8653	1356.6469	1396.6196	1413.6257	1429.5238	1442.3774	1464.9949	1493.7513	1503.5641	1510.9419	1831.041	2872.3567	3017.8661	3041.3309	3046.0142	3056.186	3101.8969	3113.1408	3119.4306	3127.9944	3139.1573	3157.2485
CC1C2CC(CC=O)N12	C[C@H]1[C@H]2C[C@@H](CC=O)N12	
InChI=1S/C7H11NO/c1-5-7-4-6(2-3-9)8(5)7/h3,5-7H,2,4H2,1H3	InChI=1S/C7H11NO/c1-5-7-4-6(2-3-9)8(5)7/h3,5-7H,2,4H2,1H3/t5-,6+,7+,8?/m0/s1
