18
gdb 23030	3.86449	0.98065	0.7938	1.9125	82.07	-0.2234	-0.0324	0.191	1400.0397	0.146329	-439.054116	-439.044838	-439.043894	-439.089369	32.869	
C	-0.0721239195	 1.5300951519	 0.0232853815	-0.507602
C	-0.0088528348	 0.0260152362	 0.0041888449	 0.276242
N	 0.0300785762	-0.7283198048	 1.0477570701	-0.179439
O	 0.0187392585	-0.0080783643	 2.2410959614	-0.388632
C	 0.0229627477	-0.6925351669	-1.2634122535	 0.281317
C	 0.0155810356	-0.1906336565	-2.5028147477	-0.243583
C	 0.066987016	-1.3024083095	-3.507154082	-0.098667
O	 0.0981006855	-2.5012465519	-2.7435652654	-0.271744
C	 0.0834463654	-2.2002757164	-1.3495993337	-0.154177
H	 0.8969961567	 1.9571358887	-0.2584453146	 0.14192
H	-0.8107600058	 1.8891118331	-0.6987033264	 0.133685
H	-0.3330095185	 1.8953020254	 1.0151577841	 0.157293
H	 0.0224931361	-0.7092628532	 2.901421642	 0.310086
H	-0.0168014215	 0.8544706625	-2.7817713141	 0.103909
H	-0.8096997332	-1.3028510161	-4.1758391345	 0.106497
H	 0.9587082202	-1.2401568041	-4.153050779	 0.106046
H	 0.9832850072	-2.6033078348	-0.8640112783	 0.113319
H	-0.7832475319	-2.6753280092	-0.8692862448	 0.113531
40.7909	77.6714	102.3503	147.4796	161.0073	307.443	324.089	403.1736	406.6706	457.3583	490.1945	579.5843	714.518	778.3612	828.1233	873.919	926.7309	951.6386	974.5586	1024.4888	1038.5328	1056.4015	1066.8789	1076.9699	1136.6426	1171.2895	1219.5315	1273.4342	1321.8797	1371.9774	1391.4915	1398.297	1419.4153	1485.6569	1490.0069	1514.473	1526.3637	1685.1346	1697.6162	2961.8895	2973.7492	3002.1415	3023.7369	3045.9347	3103.7528	3167.7499	3221.3136	3818.6341
CC(=NO)C1=CCOC1	CC(=NO)C1=CCOC1	
InChI=1S/C6H9NO2/c1-5(7-8)6-2-3-9-4-6/h2,8H,3-4H2,1H3	InChI=1S/C6H9NO2/c1-5(7-8)6-2-3-9-4-6/h2,8H,3-4H2,1H3
