18
gdb 18055	3.39823	2.21546	1.6093	1.7124	67.3	-0.2454	0.0863	0.3317	835.8766	0.156293	-384.92638	-384.919693	-384.918749	-384.957204	26.166	
C	 0.034541953	 1.5449878134	 0.1227056225	-0.086329
O	 1.4623385753	 1.5344891931	-0.101106303	-0.296789
C	 1.4030503987	 0.1559871581	-0.5411576658	 0.128475
C	 2.5111780351	-0.727689172	 0.0041292595	-0.237776
C	 2.2626055218	-1.1146940971	 1.4672906148	-0.206506
C	 0.8178720669	-1.5819998844	 1.6287605414	-0.064515
O	-0.0890259331	-0.521717594	 1.3591244614	-0.266101
C	-0.0232766516	 0.0117064886	 0.0523848467	 0.066847
H	-0.2364119871	 1.9750184599	 1.0909373504	 0.115396
H	-0.5017881656	 2.058380758	-0.6866722557	 0.093273
H	 1.381002628	 0.1159885881	-1.6404654215	 0.066499
H	 2.553930834	-1.6371374847	-0.6100153191	 0.098631
H	 3.4689258256	-0.2112562847	-0.1242021169	 0.113997
H	 2.9542695407	-1.9049097264	 1.7786085683	 0.094183
H	 2.4235621971	-0.2524731197	 2.1230712934	 0.118891
H	 0.6182330542	-2.4463631628	 0.9715450791	 0.082075
H	 0.6065048871	-1.8905749755	 2.6563235074	 0.108969
H	-0.7831509602	-0.449416638	-0.5915351328	 0.070781
128.0055	147.0265	294.6888	353.4174	388.9264	453.8463	494.7121	633.5177	774.4303	811.269	829.9295	875.8784	882.2631	940.6014	959.8777	1004.3014	1015.667	1047.4373	1075.0163	1093.1782	1122.2871	1153.015	1184.1318	1222.072	1247.5823	1256.0296	1297.1276	1307.7999	1349.9848	1360.0281	1364.912	1383.2312	1396.1928	1413.6799	1465.7534	1480.5899	1503.8655	1506.0258	2955.9527	2983.6568	3008.2305	3021.2333	3028.4746	3043.4057	3071.3353	3087.1361	3092.933	3093.9212
C1OC2CCCOC12	C1O[C@H]2CCCO[C@@H]12	
InChI=1S/C6H10O2/c1-2-5-6(4-8-5)7-3-1/h5-6H,1-4H2	InChI=1S/C6H10O2/c1-2-5-6(4-8-5)7-3-1/h5-6H,1-4H2/t5-,6-/m0/s1
