19
gdb 59323	2.70764	1.21898	0.9217	3.8681	71.65	-0.2701	0.0111	0.2812	1279.7826	0.157219	-460.195542	-460.185827	-460.184883	-460.23029	35.053	
C	 0.2245708544	 1.5360949804	 0.04018548	-0.418511
C	 0.0830596327	 0.0171061077	 0.0519230872	 0.114188
O	-1.2390502127	-0.4069556406	 0.3707042718	-0.428815
C	 0.493836016	-0.6016957828	-1.2800914906	 0.111593
O	 1.9059369408	-0.3400418023	-1.5942626907	-0.261696
C	 2.1948000264	-1.685127366	-1.6476282603	 0.451773
O	 3.2524952526	-2.1892282669	-1.8457343589	-0.322512
C	 0.7551278575	-2.1266429736	-1.3693353103	-0.212247
C	 0.5224837649	-3.0463350445	-0.1754720221	-0.408485
H	 1.2571918116	 1.8249652402	-0.172593456	 0.147851
H	-0.4138852316	 1.9794306118	-0.7350729332	 0.108583
H	-0.0694214014	 1.951192645	 1.0076993467	 0.129449
H	 0.7168754827	-0.3966570116	 0.8435516741	 0.100324
H	-1.8520348357	 0.0969267972	-0.1763508695	 0.283323
H	-0.1359579569	-0.206988844	-2.0862345568	 0.083361
H	 0.3093467315	-2.5600366674	-2.2699180125	 0.114993
H	 1.03258694	-2.6894538606	 0.7230781388	 0.129684
H	-0.5438302839	-3.1214040798	 0.0485785307	 0.142248
H	 0.9088028311	-4.0442025723	-0.4001192283	 0.134896
70.0967	92.873	149.8693	178.2786	211.3928	238.7918	262.2469	274.3779	336.6361	393.8088	439.5447	487.6666	577.6912	687.2808	763.7295	810.8023	857.4626	893.366	939.0387	1000.3293	1028.8429	1069.3945	1077.5386	1108.596	1125.0808	1163.7285	1194.5676	1232.8496	1268.0239	1298.1746	1331.4842	1353.6285	1401.8428	1409.5604	1413.2752	1418.8581	1490.181	1492.8776	1496.0618	1500.1973	1936.2509	3024.705	3036.1694	3051.0298	3062.7679	3069.903	3103.3694	3120.9434	3132.3407	3134.692	3799.1219
CC(O)C1OC(=O)C1C	C[C@@H](O)[C@H]1OC(=O)[C@H]1C	
InChI=1S/C6H10O3/c1-3-5(4(2)7)9-6(3)8/h3-5,7H,1-2H3	InChI=1S/C6H10O3/c1-3-5(4(2)7)9-6(3)8/h3-5,7H,1-2H3/t3-,4+,5-/m0/s1
