21
gdb 116898	4.39171	0.51444	0.47274	1.4665	86.5	-0.2438	0.0383	0.2821	2338.9962	0.17902	-424.179471	-424.167918	-424.166974	-424.218492	39.038	
C	-0.0057214032	 1.4061437505	 0.0087230831	-0.217857
O	-0.0290880643	-0.0008161581	-0.0401567586	-0.227566
C	 0.6407986639	-0.5805947996	 1.0641093876	-0.203237
C	 0.5982087581	-2.0337424229	 0.974116809	-0.007293
C	 0.5836724772	-3.2361831265	 0.9138638852	 0.141238
C	 0.5430729545	-4.695574416	 0.8547935385	-0.143831
C	 1.3099749682	-5.334596563	 2.0289142051	-0.383385
C	-0.9154324874	-5.1809006184	 0.8015088058	-0.069315
O	-0.8918219318	-6.5857426277	 0.6053515753	-0.420132
H	 1.022945828	 1.8009511701	-0.0124433331	 0.103955
H	-0.5414811378	 1.7693744458	-0.8710846788	 0.13005
H	-0.5015271539	 1.7943292917	 0.9132251599	 0.103239
H	 1.6905364864	-0.2385290926	 1.0967621966	 0.112816
H	 0.1760583107	-0.2479539242	 2.009340299	 0.110966
H	 1.0147300183	-5.0240857476	-0.0814820937	 0.114053
H	 0.8832342961	-5.0151716814	 2.9851037581	 0.117384
H	 1.2427584507	-6.4222139769	 1.9622468631	 0.135794
H	 2.36207885	-5.0393414055	 2.0116642636	 0.119504
H	-1.420449113	-4.9102162405	 1.7418833782	 0.09304
H	-1.4374938743	-4.6678170397	-0.0187767154	 0.100887
H	-1.7982844465	-6.9054036375	 0.6018175613	 0.289691
15.6633	61.0483	70.4775	110.326	143.8982	184.7793	223.0086	229.4459	236.4913	266.2227	322.7932	345.733	406.3584	475.7937	531.1322	567.9816	785.9968	881.5259	932.8433	976.1308	1019.1241	1030.1367	1079.0229	1101.4394	1132.4224	1151.0301	1182.3494	1192.5415	1220.2701	1237.7915	1255.2977	1261.8157	1329.8052	1347.3554	1397.7858	1411.3702	1451.9508	1477.7183	1483.7793	1494.0139	1496.43	1501.0697	1516.9836	1521.9707	2370.6747	2940.7143	2956.9982	2966.5585	2979.0653	3008.2601	3010.4417	3026.5691	3046.2655	3116.6304	3119.2458	3139.7134	3838.4702
COCC#CC(C)CO	COCC#C[C@@H](C)CO	
InChI=1S/C7H12O2/c1-7(6-8)4-3-5-9-2/h7-8H,5-6H2,1-2H3	InChI=1S/C7H12O2/c1-7(6-8)4-3-5-9-2/h7-8H,5-6H2,1-2H3/t7-/m1/s1
