16
gdb 43933	3.6523	1.55044	1.35721	4.2379	68.6	-0.2421	0.0016	0.2436	942.4469	0.126294	-437.830864	-437.824453	-437.823509	-437.861512	26.604	
O	-0.0428962692	-0.0150017344	-0.095253002	-0.32079
C	-0.0223061013	 1.1736639797	-0.0023400821	 0.314074
N	-1.059285039	 2.1467703878	 0.0226456844	-0.454649
C	-0.1775066816	 3.1274369849	 0.650187478	 0.318128
C	 0.3941222643	 4.5710136395	 0.5977147097	-0.327516
C	 1.3923481453	 3.8623333869	 1.6149674876	 0.106752
C	 0.1707210461	 3.1062729689	 2.1646801144	-0.268162
O	 2.0828006167	 2.7971108721	 0.8914262119	-0.291717
C	 1.0084149301	 2.3743384015	 0.0622534844	 0.005946
H	-2.0137477777	 1.9437423958	 0.2898106032	 0.251456
H	 0.7851820709	 4.9351046107	-0.3534666522	 0.1171
H	-0.189568166	 5.3391134329	 1.108218813	 0.111298
H	 2.0984749309	 4.4220306751	 2.2236548378	 0.100561
H	-0.5069762267	 3.7183164735	 2.763445419	 0.103931
H	 0.3696879849	 2.1419299517	 2.6373118237	 0.119262
H	 1.2203766722	 2.6408883435	-0.9799561407	 0.114325
131.7244	254.5395	375.8563	446.1387	484.4678	503.0076	558.7825	581.773	651.457	701.6619	764.626	785.0893	856.2426	875.452	884.1924	922.9687	952.8837	996.038	1011.3584	1044.4061	1065.3198	1103.7494	1111.0101	1149.4241	1184.1606	1208.7763	1213.7076	1243.9469	1258.7826	1303.4797	1338.8321	1375.0553	1474.1346	1510.2031	1906.2498	3033.0718	3067.649	3079.2767	3136.8245	3147.5995	3160.2663	3582.655
O=C1NC23CC(C2)OC13	O=C1N[C@@]23C[C@@H](C2)O[C@@H]13	
InChI=1S/C6H7NO2/c8-5-4-6(7-5)1-3(2-6)9-4/h3-4H,1-2H2,(H,7,8)	InChI=1S/C6H7NO2/c8-5-4-6(7-5)1-3(2-6)9-4/h3-4H,1-2H2,(H,7,8)/t3-,4-,6-/m0/s1
