16
gdb 44057	2.67401	1.75549	1.59075	4.4945	68.1	-0.2417	0.0118	0.2535	910.6737	0.125044	-437.829808	-437.822697	-437.821753	-437.861188	28.013	
O	-0.0671546006	 0.0042114748	-0.0647036851	-0.345543
C	-0.0272577953	 1.1991934404	-0.0192986276	 0.364883
N	-1.0216669231	 2.1790052822	 0.0301275735	-0.370939
C	-0.1156237782	 3.3126281275	 0.0331661769	 0.18919
C	 0.4020901333	 3.9030571404	 1.3843204788	-0.278748
C	 1.6293986339	 2.9159986023	 1.3231817316	-0.304556
C	 1.042394507	 2.3407977352	 0.0053507605	 0.234146
O	 1.5448622763	 2.8197180631	-1.2574080244	-0.324207
C	 0.4621064697	 3.8033845966	-1.3191942097	-0.13309
H	-2.0303327396	 2.1012217147	 0.0216005649	 0.249404
H	 0.6583547801	 4.9639839898	 1.3551851447	 0.114724
H	-0.2810219658	 3.7279370863	 2.2164334577	 0.119397
H	 2.5910484965	 3.4055141283	 1.1617794639	 0.128938
H	 1.7226864535	 2.2085124234	 2.1485383624	 0.126099
H	-0.1804269858	 3.6503519548	-2.1919525829	 0.117137
H	 0.8562261081	 4.8253492402	-1.3188352553	 0.113164
117.2886	179.2616	271.0688	306.873	362.3778	400.2908	468.0273	627.7943	662.8239	681.6974	721.546	739.5401	752.6282	850.9345	883.6137	906.5922	920.0578	953.5957	1017.9416	1089.5602	1109.891	1139.72	1161.9927	1190.1995	1214.7416	1233.3369	1237.0153	1259.82	1273.1436	1333.2576	1357.3498	1461.344	1473.8141	1502.477	1893.448	3033.8966	3076.4123	3082.4603	3091.488	3130.0754	3146.8095	3571.5867
O=C1NC23CCC12OC3	O=C1N[C@@]23CC[C@@]12OC3	
InChI=1S/C6H7NO2/c8-4-6-2-1-5(6,7-4)3-9-6/h1-3H2,(H,7,8)	InChI=1S/C6H7NO2/c8-4-6-2-1-5(6,7-4)3-9-6/h1-3H2,(H,7,8)/t5-,6-/m1/s1
