21
gdb 26087	3.05845	1.23703	1.09372	0.4029	84.78	-0.2123	0.0242	0.2365	1222.5065	0.181805	-387.134052	-387.124831	-387.123887	-387.167726	35.591	
C	 0.2344253569	 1.5029497532	 0.2563925484	-0.412113
C	 0.0298925379	-0.0008901729	 0.0088009885	 0.134788
C	 0.5298984353	-0.8007221322	 1.233216976	-0.402612
C	-1.4720570572	-0.2903216626	-0.2132004449	-0.40261
C	 0.8055705035	-0.4162595401	-1.2113003907	 0.403052
C	 1.6113981722	 0.2338130822	-2.0966082545	-0.301485
C	 2.0521411464	-0.7426541742	-3.0512663316	-0.179482
C	 1.4821649493	-1.9143220492	-2.6764865452	-0.023029
O	 0.7219929461	-1.7363456898	-1.5620387255	-0.197641
H	 1.2896454045	 1.7394861071	 0.4252746284	 0.116712
H	-0.118401073	 2.0983862795	-0.5915108287	 0.116708
H	-0.3262027578	 1.8151166609	 1.1429984618	 0.111442
H	-0.0417415116	-0.5271029748	 2.1265233556	 0.106942
H	 0.4169461353	-1.8757510786	 1.0702158552	 0.12542
H	 1.5874442098	-0.5969850537	 1.4284551527	 0.114765
H	-1.8594727699	 0.2814892226	-1.0622920135	 0.114766
H	-1.6397099572	-1.3514838134	-0.4151940197	 0.125421
H	-2.0487764954	-0.0149290586	 0.6762892183	 0.10694
H	 1.8659717749	 1.2812110152	-2.07892488	 0.105542
H	 2.7034679409	-0.5852318466	-3.8966366706	 0.107887
H	 1.5090986493	-2.9175333639	-3.0686923998	 0.128589
56.7837	143.0293	197.7664	223.8869	276.2807	281.0796	328.5625	330.378	332.7458	425.5326	473.9667	587.7652	613.8014	714.9431	744.2915	808.4427	824.307	846.8552	901.8728	929.6579	941.3905	944.7799	961.1937	1030.1431	1047.9886	1048.5014	1109.0172	1142.0432	1196.0257	1225.5194	1226.8658	1261.154	1299.9193	1392.7714	1393.4384	1411.3736	1428.124	1476.05	1488.2881	1490.4635	1500.9669	1501.124	1517.3704	1542.8302	1627.335	3031.1614	3031.4193	3038.1963	3099.6654	3101.842	3106.0656	3108.1653	3116.519	3120.3324	3252.0276	3266.2597	3284.6945
CC(C)(C)C1=CC=CO1	CC(C)(C)c1ccco1	
InChI=1S/C8H12O/c1-8(2,3)7-5-4-6-9-7/h4-6H,1-3H3	InChI=1S/C8H12O/c1-8(2,3)7-5-4-6-9-7/h4-6H,1-3H3
