17
gdb 65300	2.57038	1.42908	1.17803	3.3426	74.16	-0.23	0.0093	0.2393	1094.0902	0.135483	-417.972664	-417.964114	-417.96317	-418.005787	32.199	
O	-0.2055423846	 1.3530938664	-0.2495079529	-0.441208
C	-0.0771345065	-0.020673798	-0.0481799569	 0.164118
C	-0.3245591728	-0.598229565	 1.3498020479	-0.414364
C	-1.3581568345	-0.7759138122	 0.292087967	 0.34927
C	-2.7503624367	-0.1698170287	 0.1213950199	-0.313768
C	-3.0190126859	-1.3748252974	-0.8217669008	-0.155459
N	-1.7868277316	-2.0299422317	-0.3002289768	-0.358496
C	 0.8730768961	-0.6931777972	-0.9025348472	 0.247621
N	 1.6082138484	-1.2547599276	-1.5987755735	-0.354962
H	 0.5699665283	 1.7918346163	 0.1203673129	 0.297147
H	 0.2587626004	-1.4623556876	 1.6507788459	 0.140639
H	-0.5077492746	 0.1394942404	 2.1246677776	 0.130889
H	-3.3424608911	-0.1909186265	 1.0386280515	 0.119347
H	-2.7838997938	 0.8263844589	-0.3178002714	 0.133805
H	-3.9297208084	-1.9530103925	-0.6438604905	 0.11043
H	-2.9695517868	-1.0993463984	-1.8817856056	 0.109571
H	-1.1605076658	-2.4315854693	-0.992227827	 0.235419
93.4348	133.2814	141.1158	219.7002	250.7648	310.3936	387.1182	404.9158	444.8818	539.5507	586.0076	638.5475	665.7158	729.8743	781.3653	854.4677	887.036	918.279	952.1236	967.3187	1006.746	1047.9442	1102.9364	1122.6853	1150.8194	1186.6784	1207.1335	1251.8455	1260.6051	1314.6174	1336.5879	1362.9596	1408.5732	1463.847	1484.4333	1526.3988	2336.1274	3030.8131	3081.1702	3090.3156	3126.7061	3150.3268	3223.4039	3509.0508	3781.4426
OC1(CC11CCN1)C#N	O[C@]1(C[C@]21CCN2)C#N	
InChI=1S/C6H8N2O/c7-4-6(9)3-5(6)1-2-8-5/h8-9H,1-3H2	InChI=1S/C6H8N2O/c7-4-6(9)3-5(6)1-2-8-5/h8-9H,1-3H2/t5-,6+/m0/s1
