18
gdb 31501	3.24684	1.04495	0.82775	1.7753	77.74	-0.1798	0.0428	0.2226	1382.5721	0.146902	-439.119532	-439.109772	-439.108828	-439.154835	34.983	
C	-0.3732330966	 1.5726943046	-0.2246229289	-0.513167
C	-0.1930729658	 0.101733841	-0.0000983397	 0.148807
C	 0.3736102053	-0.8053560792	-0.8692785287	 0.295276
O	 0.9387972718	-0.6784551985	-2.0979065215	-0.435695
N	 0.334289817	-2.051814543	-0.3185116413	-0.340789
C	-0.2433883244	-1.9783980707	 0.9404874883	 0.27096
C	-0.4102575178	-3.1981685737	 1.7756727286	-0.18063
O	 0.8100325316	-3.9241807066	 1.9511601828	-0.420232
C	-0.5759241409	-0.6627311647	 1.1500729772	-0.328911
H	 0.2014585953	 1.9296463853	-1.0888463631	 0.09416
H	-1.4201304923	 1.8470186302	-0.4059627691	 0.128764
H	-0.0318459592	 2.157218402	 0.6371119819	 0.129705
H	 0.8967929405	 0.2480987184	-2.3540246626	 0.304411
H	 0.7712669957	-2.8688940722	-0.7098551555	 0.268413
H	-0.8572426364	-2.9069380116	 2.7372231814	 0.099815
H	-1.0899097611	-3.9230813513	 1.3098278978	 0.111806
H	 1.4544082149	-3.3025263489	 2.3076870699	 0.278547
H	-1.0625274978	-0.2757090409	 2.0340998027	 0.088758
53.0318	58.4685	117.6265	197.8604	234.3965	244.6909	259.0294	305.0366	377.156	405.1024	464.3546	500.8615	605.2567	642.6371	668.7565	700.5711	796.4687	810.6651	966.3371	985.6518	1009.8839	1038.6179	1058.2793	1146.1153	1171.4576	1200.3724	1213.5063	1264.8596	1348.6741	1365.4082	1419.5992	1422.5491	1429.506	1477.204	1500.1006	1504.8711	1551.839	1571.4273	1661.7878	3000.6767	3010.2168	3041.2261	3058.4714	3075.1542	3232.4661	3675.8871	3798.8505	3839.5807
CC1=C(O)NC(CO)=C1	Cc1c(O)[nH]c(CO)c1	
InChI=1S/C6H9NO2/c1-4-2-5(3-8)7-6(4)9/h2,7-9H,3H2,1H3	InChI=1S/C6H9NO2/c1-4-2-5(3-8)7-6(4)9/h2,7-9H,3H2,1H3
