18
gdb 56582	3.63564	0.98678	0.90261	4.9073	72.11	-0.2848	0.0353	0.3201	1309.1987	0.146395	-439.073957	-439.064633	-439.063689	-439.108398	33.764	
C	-0.0097727624	 1.5928619863	-0.0103563208	-0.409136
C	 0.0422332712	 0.053114973	 0.0054710542	-0.16047
C	 0.6542966202	-0.4564964016	-1.225464477	 0.272646
N	 1.1264299931	-0.8605438968	-2.1996888258	-0.321436
C	 0.7935562262	-0.5226663812	 1.2447910378	 0.097793
O	 2.1061296711	-0.026619543	 1.3426123984	-0.429734
C	 0.0190285089	-0.2461260592	 2.5276444202	 0.042773
C	 0.6818611303	-0.2962638654	 3.8333488243	-0.187238
O	 0.3936886718	 0.9631597687	 3.2000767438	-0.244226
H	 1.0005496757	 2.0051627006	-0.0575408557	 0.145637
H	-0.5629059614	 1.9484101442	-0.8822909857	 0.139283
H	-0.4993618624	 1.9683286237	 0.8914539152	 0.143423
H	-0.9823692693	-0.3416417961	 0.034490256	 0.123166
H	 0.8706093898	-1.6085696306	 1.1122986726	 0.11673
H	 2.0438767064	 0.8030010473	 1.8379547305	 0.298687
H	-1.055827615	-0.4234390057	 2.484363837	 0.104045
H	 0.0957701148	-0.5044600721	 4.7255299869	 0.129504
H	 1.736986721	-0.5531313521	 3.8795682779	 0.138555
62.5904	94.6894	140.072	197.9637	231.3882	247.5647	276.0932	301.0284	380.3702	422.893	539.5073	565.8826	649.4655	699.1552	792.9148	810.258	877.9858	913.2194	963.8836	1003.0453	1022.5621	1088.2823	1111.5693	1122.5345	1147.2946	1165.039	1170.2915	1257.2348	1285.0129	1298.8081	1336.1804	1365.2137	1411.8307	1422.1751	1445.7047	1492.6104	1509.5188	1516.6913	2359.5014	3024.7808	3045.0132	3058.3547	3104.669	3114.4043	3136.293	3139.171	3201.7738	3737.5114
CC(C#N)C(O)C1CO1	C[C@@H](C#N)[C@@H](O)[C@H]1CO1	
InChI=1S/C6H9NO2/c1-4(2-7)6(8)5-3-9-5/h4-6,8H,3H2,1H3	InChI=1S/C6H9NO2/c1-4(2-7)6(8)5-3-9-5/h4-6,8H,3H2,1H3/t4-,5+,6+/m0/s1
