16
gdb 8570	4.24166	2.01646	1.73668	4.173	63.92	-0.2343	0.0518	0.2861	779.2226	0.13425	-379.95253	-379.946242	-379.945298	-379.982601	25.67	
O	 0.0006234781	-0.0162456659	-0.1976440252	-0.410649
C	-0.0147430357	 1.1782409101	 0.0273476188	 0.413333
N	-1.1746446386	 1.9237867103	 0.1851762917	-0.324706
C	-1.0903628431	 3.3825555891	 0.1442431755	 0.001341
C	-0.0471892895	 3.8246520312	-0.9297112603	-0.235733
C	 1.0044826906	 3.4090737489	 0.1465374958	 0.001344
C	-0.0495513077	 3.8260378946	 1.210544614	-0.209189
N	 1.1255635355	 1.9529058224	 0.1876711285	-0.324703
H	-2.0046137097	 1.4652821157	-0.1544763525	 0.250309
H	-2.0926668496	 3.8110433455	 0.147650638	 0.078281
H	-0.0394595545	 3.2968633858	-1.8859754681	 0.104946
H	-0.0606964281	 4.9053757522	-1.085781597	 0.106846
H	 1.995611784	 3.8627907066	 0.1521273893	 0.07828
H	-0.0633948412	 4.9063911106	 1.3650333448	 0.106104
H	-0.0438526754	 3.2933835833	 2.1624988697	 0.113885
H	 1.9676366249	 1.5155470197	-0.150071463	 0.250311
140.9796	343.3615	364.9625	393.7724	463.591	465.431	530.434	532.7202	650.2365	769.6604	798.07	853.2858	853.5303	865.3579	934.7264	981.0681	1007.0293	1016.7233	1074.8638	1113.8797	1118.8715	1137.8402	1145.0095	1228.0297	1256.4874	1257.6994	1272.9317	1362.4842	1392.9481	1436.1138	1446.8535	1464.6644	1499.2833	1819.3748	3064.6928	3076.9033	3109.842	3112.052	3131.3747	3144.8532	3647.5392	3649.328	140.9796	343.3615	364.9624	393.7724	463.591	465.431	530.4339	532.7202	650.2365	769.6603	798.07	853.2858	853.5302	865.3579	934.7264	981.0682	1007.0293	1016.7233	1074.8638	1113.8798	1118.8716	1137.8403	1145.0095	1228.0298	1256.4873	1257.6995	1272.9318	1362.4843	1392.9481	1436.1139	1446.8537	1464.6644	1499.2833	1819.3749	3064.6927	3076.9033	3109.842	3112.052	3131.3747	3144.8532	3647.5392	3649.328
O=C1NC2CC(C2)N1	O=C1N[C@@H]2C[C@@H](C2)N1	
InChI=1S/C5H8N2O/c8-5-6-3-1-4(2-3)7-5/h3-4H,1-2H2,(H2,6,7,8)	InChI=1S/C5H8N2O/c8-5-6-3-1-4(2-3)7-5/h3-4H,1-2H2,(H2,6,7,8)/t3-,4+
