17
gdb 102373	1.78819	1.67738	1.07766	1.9844	64.77	-0.2475	-0.0427	0.2048	1143.0788	0.130859	-496.091371	-496.08059	-496.079646	-496.128281	35.897	
O	-0.1032394226	 1.5865498236	 0.0117620265	-0.431577
C	 0.0270470494	 0.1722090832	 0.0024845966	-0.109475
C	-1.4004266145	-0.391549931	 0.0133004808	 0.049976
C	-1.3712143716	-1.9260461103	 0.0049040967	-0.109472
O	-2.7267074762	-2.3502516347	 0.0153056676	-0.431577
C	-2.1016301722	 0.0773034006	 1.294170451	 0.173242
O	-1.6955498471	-0.1932029104	 2.3931931585	-0.271741
C	-2.126269637	 0.0906416209	-1.2487474707	 0.173248
O	-1.7405794877	-0.166766616	-2.3582091251	-0.271725
H	 0.7752533717	 1.9775013977	 0.0060861774	 0.297379
H	 0.5408307972	-0.1812795096	-0.9017499091	 0.114144
H	 0.5584678268	-0.1914334829	 0.8923856659	 0.114098
H	-0.8474716836	-2.2656342442	-0.8989499058	 0.114104
H	-0.8307386664	-2.275066523	 0.8951993939	 0.114136
H	-2.7493406197	-3.3115517273	 0.0115019546	 0.297378
H	-3.0189528385	 0.6896396509	 1.1541356903	 0.088931
H	-3.0416589782	 0.6998551824	-1.0845225391	 0.088931
39.0108	65.3089	106.3568	117.4308	143.1236	213.0965	236.8195	237.6024	253.9026	288.0156	302.8946	404.9112	461.4225	549.0682	685.942	819.3674	887.2988	914.3689	944.6812	1048.0771	1062.7439	1094.809	1137.2514	1172.8933	1179.8104	1230.1311	1256.1903	1301.9564	1305.0941	1423.8488	1428.8301	1429.6245	1458.3409	1507.6409	1515.7314	1812.3718	1850.7689	2881.1971	2899.5911	2997.9298	3005.8728	3044.1084	3052.8579	3836.0459	3836.1965
OCC(CO)(C=O)C=O	OCC(CO)(C=O)C=O	
InChI=1S/C5H8O4/c6-1-5(2-7,3-8)4-9/h1-2,8-9H,3-4H2	InChI=1S/C5H8O4/c6-1-5(2-7,3-8)4-9/h1-2,8-9H,3-4H2
