15
gdb 125917	3.11498	1.25627	0.9289	4.9706	74.47	-0.2378	-0.0694	0.1684	1199.0361	0.112293	-453.969424	-453.961212	-453.960268	-454.002916	29.3	
C	 0.1516239173	 1.5276122025	-0.0114019242	-0.401588
C	 0.0567248435	 0.0137179806	 0.0236062815	 0.149357
C	 0.8476470237	-0.7088729031	-1.1017984331	-0.367634
C	 1.4454385623	-1.8367906345	-0.3138100767	 0.146549
C	 1.3152155968	-1.612560675	 1.1288244975	 0.405616
O	 1.7423822777	-2.2477690322	 2.051450942	-0.363313
N	 2.6490672682	-3.7541770524	-1.1937491908	-0.22934
N	 2.0854924935	-2.8567745431	-0.7883276092	 0.141126
O	 0.5887692071	-0.4630422181	 1.2791533025	-0.242392
H	 1.1959613955	 1.8480836637	 0.0496770606	 0.132727
H	-0.2775001748	 1.9091776134	-0.9433225608	 0.125158
H	-0.3955082895	 1.9663150676	 0.8266668789	 0.140742
H	-0.9937966933	-0.2993415417	-0.0122264416	 0.102478
H	 0.1872756936	-1.0291348804	-1.9125218219	 0.132645
H	 1.6115267086	-0.0476783775	-1.5310993147	 0.127869
58.309	130.1133	144.382	200.6764	239.8254	302.8758	435.3746	443.4105	520.79	549.56	636.0358	649.6734	731.6189	759.6541	861.8788	934.0779	955.559	1071.0694	1076.7203	1115.1494	1162.708	1206.7348	1233.2	1297.7748	1368.0045	1386.6518	1412.9962	1427.372	1484.0206	1495.8097	1503.7731	1856.2585	2216.936	3017.821	3030.9168	3043.5884	3083.0739	3117.4883	3129.1663
CC1CC2=C(ON=N2)O1	C[C@H]1C[C](C(=O)O1)[N][N]	
InChI=1S/C5H6N2O2/c1-3-2-4-5(8-3)9-7-6-4/h3H,2H2,1H3	InChI=1S/C5H6N2O2/c1-3-2-4(7-6)5(8)9-3/h3H,2H2,1H3/t3-/m0/s1
