18
gdb 106014	3.39412	1.66242	1.46665	2.0005	73.59	-0.2243	0.0666	0.2909	936.5038	0.149493	-401.846587	-401.839702	-401.838758	-401.87789	28.217	
O	 0.0628823859	 1.3715236719	 0.1444710316	-0.413936
C	 0.0694361569	-0.0297822927	-0.0669962681	-0.21508
C	-1.3250646394	-0.5839877723	-0.1291219674	 0.376166
C	-1.7996980849	-2.0396383485	 0.0962826772	-0.196216
C	-3.0500624217	-1.6529546005	-0.6749722822	-0.084632
C	-2.9390934781	-1.4050821088	 0.8346129259	-0.015371
N	-2.3316485253	-0.0410682105	 0.9245457907	-0.215825
C	-3.018381531	 0.7398622858	-0.1778332275	-0.187491
C	-2.4748765318	-0.3038784648	-1.1669670276	-0.120773
H	-0.4506945706	 1.5090117077	 0.9509674449	 0.296596
H	 0.6024281229	-0.2095139805	-1.0073329694	 0.114881
H	 0.6227993671	-0.5524723039	 0.7309440169	 0.095575
H	-1.2827122703	-2.9798669123	 0.2313589559	 0.095753
H	-3.7991514061	-2.289525265	-1.1251578829	 0.091835
H	-3.6141241129	-1.8050963956	 1.5798408108	 0.093714
H	-4.1010737377	 0.843690088	-0.0593071489	 0.098393
H	-2.5445330159	 1.7177755582	-0.2806456486	 0.114843
H	-2.3286357672	-0.1366293862	-2.2335704416	 0.071569
82.4185	185.3539	266.9275	368.6019	446.6436	502.8889	560.1722	649.378	732.3897	771.2519	788.431	813.9839	820.6998	841.4568	871.2667	916.7986	931.055	958.1556	982.4352	1001.3562	1030.5347	1037.3532	1055.7456	1065.1339	1080.7608	1108.5825	1146.3545	1184.1716	1208.6998	1220.0323	1236.5104	1248.6694	1298.6834	1331.1713	1338.2262	1386.8666	1434.1277	1489.8793	1495.3996	2967.4487	3056.6886	3066.3838	3121.7992	3130.087	3195.1114	3203.6081	3218.126	3772.02
OCC12C3C4C3N1CC24	OC[C@@]12[C@@H]3[C@H]4[C@@H]3N1C[C@@H]24	
InChI=1S/C7H9NO/c9-2-7-3-1-8(7)6-4(3)5(6)7/h3-6,9H,1-2H2	InChI=1S/C7H9NO/c9-2-7-3-1-8(7)6-4(3)5(6)7/h3-6,9H,1-2H2/t3-,4+,5-,6+,7-/m1/s1
