14
gdb 5755	5.3723	2.18284	1.82438	3.4814	66.34	-0.2185	0.006	0.2246	717.1098	0.110351	-341.549408	-341.543922	-341.542978	-341.578812	22.055	
C	-0.0596340314	 1.3789216148	-0.1138379719	-0.270984
C	 1.3085972481	 0.8024078704	 0.1336237403	-0.017798
C	 0.0950872721	-0.1229012562	 0.1069154844	-0.187857
C	 0.7010715668	-0.6785158127	-1.1635887053	 0.294641
N	 0.4494577245	-1.1148244662	-2.3715450922	-0.327241
C	 1.4887285861	-0.5646775946	-3.1142981777	-0.074202
C	 2.2872148975	 0.2734620574	-2.3636168432	-0.167493
N	 1.8163145655	 0.1145821675	-1.0742164406	 0.001548
H	-0.4921768237	 1.9394068032	 0.7115103433	 0.125669
H	-0.3131539758	 1.7522085746	-1.100726033	 0.144128
H	 1.9673133215	 1.0631360794	 0.9503821925	 0.122586
H	-0.3658514737	-0.6532645133	 0.9274112438	 0.119176
H	 1.6203599781	-0.8285599302	-4.1539382832	 0.109717
H	 3.1743487244	 0.8302470758	-2.6158514073	 0.128111
154.5595	287.0361	475.0096	493.3441	628.3117	717.7899	735.0757	752.8619	775.9488	815.8151	852.3195	861.5336	931.1579	976.1623	998.2641	1005.5675	1046.9246	1072.9867	1090.847	1114.8078	1146.69	1182.921	1236.304	1249.1301	1291.1069	1354.0047	1394.4185	1464.9366	1477.1294	1569.8322	3118.5396	3208.716	3214.1617	3227.6371	3238.7133	3278.0579
C1C2C1C1=NC=CN21	C1[C@H]2[C@@H]1[C]1N=C[CH]N21	
InChI=1S/C6H6N2/c1-2-8-5-3-4(5)6(8)7-1/h1-2,4-5H,3H2	InChI=1S/C6H6N2/c1-2-8-5-3-4(5)6(8)7-1/h1-2,4-5H,3H2/t4-,5+/m1/s1
