19
gdb 35756	3.04273	1.47152	1.31882	1.4973	80.11	-0.2544	0.037	0.2914	1040.2514	0.160704	-385.840371	-385.832751	-385.831807	-385.872314	30.696	
C	-0.0845535641	-1.244889193	-0.2787944326	-0.467122
C	-0.0438513143	-0.0554711668	-0.1081180367	 0.342324
C	 0.0066619996	 1.3980745961	 0.0937816198	-0.066711
O	-0.6472030399	 1.7908285566	 1.3021050623	-0.264392
C	 0.1886176445	 1.9011113649	 2.4539005549	-0.074919
C	 1.5909920727	 2.3998685038	 2.0895543689	-0.029305
C	 1.4823083286	 3.2897817136	 0.8167187691	-0.235262
C	 1.4514806385	 1.9435009503	 0.0382458428	-0.031043
C	 2.2809429808	 1.3341855681	 1.19773265	-0.230413
H	-0.1315749232	-2.2949073635	-0.4314472844	 0.197219
H	-0.5805405311	 1.8765722466	-0.7007941158	 0.110924
H	-0.3262775335	 2.6105726478	 3.1108365577	 0.106882
H	 0.2538587113	 0.9361495109	 2.9803238247	 0.097105
H	 2.1164955668	 2.7764039383	 2.970312017	 0.064718
H	 0.6231316698	 3.9584771409	 0.7249804454	 0.105357
H	 2.4067939153	 3.8394701944	 0.6258621672	 0.097772
H	 1.8394477587	 1.8910962483	-0.9808514582	 0.074759
H	 3.3495661903	 1.5271018103	 1.0741306875	 0.095809
H	 2.1235024392	 0.2791089723	 1.4373252106	 0.106299
93.0449	142.7414	242.5762	295.1979	391.7595	407.2729	440.7268	542.1043	565.9579	622.9303	650.9799	665.0692	808.2641	825.8745	832.8098	876.6686	912.1969	934.3242	936.2427	970.6722	1000.9338	1046.1487	1050.6359	1090.7278	1102.0044	1123.9079	1150.4759	1181.8026	1239.8533	1245.5186	1267.3119	1291.6238	1322.5318	1334.3844	1343.2473	1365.8278	1403.7564	1477.7398	1503.1654	1514.5122	2229.1311	2984.905	3021.6086	3055.7945	3061.7413	3063.6371	3082.7515	3091.5498	3112.1603	3122.1214	3501.8252
C#CC1OCC2CC1C2	C#C[C@H]1OC[C@@H]2C[C@H]1C2	
InChI=1S/C8H10O/c1-2-8-7-3-6(4-7)5-9-8/h1,6-8H,3-5H2	InChI=1S/C8H10O/c1-2-8-7-3-6(4-7)5-9-8/h1,6-8H,3-5H2/t6-,7+,8-/m1/s1
