16
gdb 11597	6.10175	0.95544	0.87094	1.6293	62.48	-0.2708	0.014	0.2848	1298.935	0.128038	-420.887611	-420.878857	-420.877912	-420.923012	29.237	
C	-0.182408431	 1.4056931156	 0.1768021335	-0.477833
C	 0.0583054374	-0.0664028588	-0.0506209451	 0.434165
O	 1.1293732856	-0.5888666465	-0.2269873139	-0.348592
O	-1.1080740623	-0.7493772852	-0.0278989385	-0.243008
C	-0.9974868979	-2.1701722273	-0.2170131282	-0.084351
C	-2.3874788838	-2.7337712274	-0.2399769484	 0.075591
C	-2.6453177621	-4.1159087864	 0.1809189366	-0.180752
O	-2.9912973293	-3.0164408934	 1.0220571828	-0.225991
H	 0.763282393	 1.9422956101	 0.1118369644	 0.148851
H	-0.8865590533	 1.7927503858	-0.5647782566	 0.149461
H	-0.6311554166	 1.5607843386	 1.1622600882	 0.154748
H	-0.4742289826	-2.3711745922	-1.1582730663	 0.126049
H	-0.4141088378	-2.6078809813	 0.5985408621	 0.127746
H	-3.0596027387	-2.2769864676	-0.9669922654	 0.103305
H	-3.4813071409	-4.6613903179	-0.2535025604	 0.121055
H	-1.8218064096	-4.7347357259	 0.5354741353	 0.119554
33.5541	49.8934	70.7876	135.527	185.9242	277.1267	329.2249	432.6846	489.0033	606.1381	639.4777	800.9299	870.1413	911.0599	953.4413	987.9917	998.5674	1065.0332	1068.208	1101.1766	1152.0031	1162.5236	1174.2533	1263.34	1268.7232	1292.8855	1365.9699	1395.7406	1458.1611	1469.3126	1475.3616	1490.9917	1532.7245	1825.8587	3048.1055	3057.6808	3085.2731	3096.4442	3116.4274	3122.8186	3169.2116	3172.4298
CC(=O)OCC1CO1	CC(=O)OC[C@H]1CO1	
InChI=1S/C5H8O3/c1-4(6)7-2-5-3-8-5/h5H,2-3H2,1H3	InChI=1S/C5H8O3/c1-4(6)7-2-5-3-8-5/h5H,2-3H2,1H3/t5-/m0/s1
