13
gdb 69033	2.81405	1.41427	1.1797	2.389	67.49	-0.2686	-0.0333	0.2353	1028.9889	0.088264	-452.713858	-452.706133	-452.705189	-452.746225	28.756	
O	 0.1082144473	 1.4072005795	-0.1930403572	-0.417425
C	 0.0511003372	 0.0616963612	-0.0487382442	 0.233652
C	-0.2499725357	-0.8297579798	-1.2250295067	-0.358798
C	-1.1085051143	-0.9839182592	-0.0004648025	 0.234958
O	-0.3729323342	-1.7510280459	 0.9894870556	-0.287454
C	 0.6050633217	-0.7554690878	 1.0791673233	 0.373141
N	 1.5353834722	-0.5851203259	 1.8938109779	-0.544295
C	-2.5148079492	-0.8651758127	 0.1145679354	 0.228622
N	-3.6629525708	-0.7436778765	 0.2007419993	-0.339621
H	 0.0804880343	 1.8165426551	 0.6811955361	 0.31515
H	-0.7172211989	-0.2901930215	-2.043616703	 0.164377
H	 0.4070810677	-1.6468533131	-1.5072941588	 0.149332
H	 1.5870590425	-1.3334393633	 2.5863314549	 0.248362
102.0577	120.1802	191.7217	274.3461	360.0146	387.246	417.2691	472.2984	535.4606	572.8205	638.2303	646.0117	722.3208	756.8066	838.1075	875.3102	930.2194	961.1142	977.4865	1065.7615	1106.3885	1136.0638	1225.3483	1316.2049	1380.6733	1425.4202	1493.3047	1844.8311	2345.7286	3124.5174	3223.4149	3491.435	3785.4533
OC12CC1(OC2=N)C#N	O[C@]12C[C@]1(O[C]2[NH])C#N	
InChI=1S/C5H4N2O2/c6-2-4-1-5(4,8)3(7)9-4/h7-8H,1H2	InChI=1S/C5H4N2O2/c6-2-4-1-5(4,8)3(7)9-4/h7-8H,1H2/t4-,5-/m0/s1
