20
gdb 68837	2.75516	1.44062	1.20593	1.6298	80.17	-0.2223	0.0728	0.2952	1126.5504	0.169224	-403.092801	-403.083817	-403.082873	-403.125954	34.484	
C	-0.0058202662	 1.53708556	 0.058496105	-0.507681
C	 0.1322537791	 0.0481859448	 0.0011647083	 0.286636
C	 0.6223084201	-0.7882700293	-1.1983559681	-0.368442
C	 1.1969772488	-1.7919358058	-0.1764635098	 0.453078
C	 1.4936864247	-3.2182797718	-0.2504529873	-0.266653
O	 2.5431848095	-2.2289028932	-0.2407863948	-0.284548
C	 0.6982185823	-0.9388338771	 0.9782939843	 0.18483
C	 1.3311300234	-0.8017828572	 2.3256835433	-0.51965
N	-0.7772574009	-0.8592767042	 0.7521791249	-0.411359
H	 0.881698426	 2.0311879296	-0.3507787351	 0.127768
H	-0.8733872675	 1.8764595597	-0.5199431748	 0.130383
H	-0.1386933774	 1.883047344	 1.0897538515	 0.116856
H	-0.1534802784	-1.1475517646	-1.8787509126	 0.107025
H	 1.4282646425	-0.3065979607	-1.7586803049	 0.114422
H	 1.4287838749	-3.8368058493	 0.6435225001	 0.113575
H	 1.3699638614	-3.7495308733	-1.1929149396	 0.116121
H	 2.4201963256	-0.7587784856	 2.2299317061	 0.14279
H	 0.9915128524	 0.1072774334	 2.8336630779	 0.117405
H	 1.085419289	-1.6548320674	 2.9693226938	 0.128897
H	-1.1540927992	-0.3175551318	 1.5324547216	 0.218547
103.3427	176.2026	179.749	199.9207	211.1502	238.305	336.812	364.6176	442.6907	472.9881	483.947	559.9905	634.3763	705.2335	761.4813	833.7872	851.5038	889.507	923.1342	956.4331	985.5818	1043.4723	1079.9034	1094.9436	1107.7773	1120.752	1128.4134	1151.8905	1168.5711	1175.7794	1220.1766	1313.642	1357.924	1407.1342	1416.3793	1431.348	1451.5303	1475.1348	1480.1476	1492.4207	1500.3381	1505.8043	1544.8022	3022.0355	3026.614	3060.5459	3083.2178	3083.8202	3086.0153	3095.6471	3109.6216	3121.5547	3170.2483	3442.5219
CC12CC3(CO3)C1(C)N2	C[C@@]12C[C@]3(CO3)[C@]1(C)N2	
InChI=1S/C7H11NO/c1-5-3-7(4-9-7)6(5,2)8-5/h8H,3-4H2,1-2H3	InChI=1S/C7H11NO/c1-5-3-7(4-9-7)6(5,2)8-5/h8H,3-4H2,1-2H3/t5-,6-,7+/m1/s1
