20
gdb 109980	2.13797	1.36753	0.95426	4.9739	80.52	-0.2263	0.0216	0.248	1288.4405	0.171068	-399.307566	-399.297869	-399.296925	-399.34235	35.292	
C	 0.1060686114	 1.3074799625	-0.7108192432	-0.324935
N	-0.2409936679	 0.4411475261	 0.4068355204	-0.265839
C	-1.4373011722	-0.3338887506	 0.2554856903	 0.019699
C	-1.4087339172	-1.7327205095	-0.4797821409	 0.035874
C	-0.2719268065	-2.08955193	-1.419153701	-0.394566
N	-1.3354022	-2.382524014	 0.8522110125	-0.317477
C	-1.8248551397	-1.1668461501	 1.5279236793	-0.170668
C	-1.1575901734	-0.8495667867	 2.7910771628	 0.311896
N	-0.6345530609	-0.6079510357	 3.7927641352	-0.330631
H	 1.0041646857	 1.8768752054	-0.4554637852	 0.128739
H	 0.2909965311	 0.7881690022	-1.6647733783	 0.103356
H	-0.70531425	 2.0259581644	-0.8746273802	 0.125205
H	 0.5436201297	-0.1285786784	 0.7006891956	 0.235632
H	-2.2312791677	 0.3314537801	-0.0920830668	 0.088664
H	-2.3747208212	-1.8986722838	-0.9818543502	 0.063713
H	 0.6963600232	-1.8293955351	-0.9821904304	 0.117328
H	-0.26766185	-3.1673058054	-1.6146469071	 0.121095
H	-0.3762682747	-1.5752781725	-2.3800040793	 0.11803
H	-1.8968118672	-3.2162264381	 0.9880839523	 0.225171
H	-2.9105644728	-1.1364447308	 1.6973036742	 0.109715
60.8629	112.2548	123.1844	175.8005	205.1846	243.5412	252.4429	295.5667	362.7371	382.9442	483.6268	567.3097	594.8626	670.896	696.0997	768.6668	833.1592	893.2708	960.9249	996.8055	1000.608	1059.6165	1074.4315	1099.4765	1141.8681	1151.0276	1167.0736	1177.5374	1225.6392	1249.5961	1313.2104	1335.5831	1367.7683	1379.522	1402.1552	1419.2234	1459.5595	1481.4984	1492.2877	1495.4219	1505.1931	1525.5428	2357.947	2972.7909	2975.2158	2999.7876	3036.1875	3058.019	3082.1486	3101.2004	3106.9451	3117.4204	3530.2678	3548.4678
CNC1C(C)NC1C#N	CN[C@H]1[C@@H](C)N[C@H]1C#N	
InChI=1S/C6H11N3/c1-4-6(8-2)5(3-7)9-4/h4-6,8-9H,1-2H3	InChI=1S/C6H11N3/c1-4-6(8-2)5(3-7)9-4/h4-6,8-9H,1-2H3/t4-,5+,6+/m1/s1
