18
gdb 78624	2.6712	1.70229	1.34567	4.4935	75.48	-0.2383	0.0049	0.2432	1010.8975	0.146705	-401.91133	-401.903183	-401.902239	-401.943646	31.397	
C	 0.0758720153	 1.570718055	-0.1486520571	-0.424824
C	 0.084720266	 0.0646345327	 0.0303915957	-0.007948
N	 1.0249702729	-0.7452050737	-0.8705072734	-0.235979
C	 1.2384479074	-1.6783423503	 0.3296441642	-0.078779
C	 2.2620607248	-0.68932581	 0.8846177351	-0.277475
C	 2.34489952	-0.150038882	-0.4972663154	 0.438976
O	 3.1405892839	 0.4166020456	-1.1772599677	-0.324343
C	 0.7403804687	-0.6215031736	 1.2396127558	 0.310698
C	 0.2529657065	-0.7033498136	 2.6557952854	-0.513994
H	 1.0558873876	 2.0176444687	 0.0393804472	 0.136328
H	-0.2217785946	 1.8263242303	-1.1703326141	 0.141222
H	-0.6451363734	 2.0250204396	 0.538703076	 0.119669
H	-0.922187532	-0.3421004792	-0.1146303429	 0.087306
H	 1.2536079843	-2.7570315536	 0.2927046776	 0.120561
H	 3.021061628	-0.8290553999	 1.6427474321	 0.113488
H	 0.3310576257	 0.2658790951	 3.1593415627	 0.134293
H	-0.7975057881	-1.0136905635	 2.6811716929	 0.131008
H	 0.829320247	-1.4300035875	 3.2369715861	 0.129793
133.2687	179.3843	192.365	208.8183	212.9001	282.7287	372.3208	483.059	543.1733	593.9789	656.559	707.773	792.4007	810.6874	825.4922	846.1359	883.0458	900.8653	940.5232	950.4662	1009.1999	1045.2957	1078.956	1096.7149	1115.3962	1140.6879	1148.9765	1192.8584	1259.0401	1278.7451	1372.7672	1409.3328	1412.9171	1438.2224	1485.7942	1490.4548	1492.8862	1497.4159	1916.1887	3031.1808	3040.5517	3046.4571	3095.9064	3104.1783	3109.8532	3121.2412	3210.2117	3238.6429
CC1N2C3C(C2=O)C13C	C[C@H]1N2[C@H]3[C@@H](C2=O)[C@@]13C	
InChI=1S/C7H9NO/c1-3-7(2)4-5(7)8(3)6(4)9/h3-5H,1-2H3	InChI=1S/C7H9NO/c1-3-7(2)4-5(7)8(3)6(4)9/h3-5H,1-2H3/t3-,4+,5+,7-/m1/s1
