15
gdb 133730	2.9707	1.00995	0.88851	2.5938	55.77	-0.259	0.0182	0.2771	1283.3184	0.10809	-585.49157	-585.482181	-585.481237	-585.527441	32.073	
C	 0.352619593	 1.3896560894	-0.0444347473	-0.335237
N	 0.5345532843	-0.0205709529	-0.3340874346	-0.306478
C	-0.2722977818	-0.6947949207	-1.1959954992	 0.394272
O	-1.2302380423	-0.2023756049	-1.7604388875	-0.365239
C	 0.0622453162	-2.1833369221	-1.3862371738	-0.438039
C	 1.5057910988	-2.5003526462	-1.719901178	 0.272702
F	 2.3362005114	-2.2268384848	-0.6830212456	-0.093871
F	 1.6588608618	-3.7998289533	-2.0018559245	-0.066343
F	 1.9462753472	-1.7983415671	-2.7692714363	-0.065783
H	 1.2051092867	 1.9816558503	-0.3953161619	 0.132041
H	-0.5472266484	 1.7180181838	-0.5647429475	 0.173612
H	 0.2283615916	 1.5564393356	 1.0306724583	 0.128801
H	 1.3328629641	-0.4982795015	 0.0502909568	 0.254273
H	-0.1986396405	-2.7445162024	-0.4835422738	 0.151081
H	-0.5608690522	-2.5433908033	-2.2050383652	 0.164209
43.2819	66.4649	73.3129	132.6307	184.9794	265.9317	331.2539	343.4034	409.183	509.4509	523.2229	536.5675	617.263	667.0973	750.7	844.848	887.7486	939.7962	1063.3784	1117.9622	1153.6645	1172.0629	1186.2761	1249.3763	1284.0342	1312.5052	1358.243	1440.246	1460.5226	1496.353	1500.6868	1577.9608	1792.8738	3032.0338	3074.6302	3085.7205	3148.8101	3159.1066	3652.5118
CNC(=O)CC(F)(F)F	CNC(=O)CC(F)(F)F	
InChI=1S/C4H6F3NO/c1-8-3(9)2-4(5,6)7/h2H2,1H3,(H,8,9)	InChI=1S/C4H6F3NO/c1-8-3(9)2-4(5,6)7/h2H2,1H3,(H,8,9)
