17
gdb 45820	2.46472	1.95351	1.19153	3.2556	74.03	-0.2146	-0.0258	0.1888	1013.5356	0.138062	-418.012153	-418.004685	-418.003741	-418.044738	28.023	
O	-0.0580440554	-0.0827078684	 0.1405578906	-0.310441
C	-0.0718436365	 1.1256213088	 0.1107017621	 0.343884
C	-1.3354144816	 1.9724705003	 0.1681893209	-0.253802
N	-1.2534476925	 3.1157385139	 1.0836228473	-0.269432
C	-0.097306558	 3.5976193097	 1.3269096879	 0.077369
N	 1.0995868488	 3.2449062713	 0.744067689	-0.103471
C	 2.3403668137	 2.9769823662	 1.5228740869	-0.174943
C	 2.4281524802	 1.5627203059	 0.8777206711	-0.255657
C	 1.1978434986	 1.9498025112	 0.023315627	-0.050468
H	-1.5585250585	 2.3293631761	-0.8504335816	 0.128591
H	-2.1687241589	 1.3301680056	 0.4654900368	 0.135361
H	-0.0106140967	 4.4103173788	 2.0510544856	 0.115319
H	 3.1553991511	 3.6564778999	 1.256699922	 0.121292
H	 2.197653729	 2.9962697734	 2.6069751654	 0.124213
H	 3.3413899473	 1.3496667594	 0.3224294956	 0.121076
H	 2.2241284699	 0.7396650851	 1.5639492951	 0.135696
H	 1.4255645094	 2.1012129229	-1.0413557518	 0.115414
64.2648	93.0091	209.049	243.7396	395.104	435.8411	506.797	520.808	576.7888	679.8209	694.2198	791.2831	860.5524	911.5194	932.7607	963.1253	973.7824	992.612	1020.5598	1089.9575	1115.9059	1137.4472	1166.2442	1210.2844	1230.6097	1251.4644	1260.2359	1303.3495	1315.0739	1336.8646	1347.2811	1400.2239	1458.3339	1491.0068	1515.8579	1708.5645	1820.2293	2982.4069	3004.403	3047.2987	3091.0797	3092.0552	3096.4055	3113.7415	3150.0852
O=C1CN=CN2CCC12	O=C1CN=CN2CC[C@@H]12	
InChI=1S/C6H8N2O/c9-6-3-7-4-8-2-1-5(6)8/h4-5H,1-3H2	InChI=1S/C6H8N2O/c9-6-3-7-4-8-2-1-5(6)8/h4-5H,1-3H2/t5-/m0/s1
