21
gdb 63183	2.92275	1.36252	1.27734	1.7427	78.38	-0.2425	0.083	0.3256	1118.9279	0.183186	-424.216224	-424.207621	-424.206676	-424.248851	33.585	
C	-0.191801338	 1.5585501578	 0.0647427809	-0.462311
C	-0.0295478623	 0.0523626159	 0.0065793537	 0.28945
C	-1.1978882291	-0.7257295007	 0.5848334737	-0.453312
C	 0.6923107159	-0.5995221314	-1.1639743197	-0.141348
C	 1.3738189735	 0.1747800333	-2.2793912292	-0.115274
O	 2.3677791081	 1.0827471606	-1.8044356536	-0.229622
C	 3.1622968578	 0.4982611968	-0.8111962769	 0.010038
O	 2.4461095461	 0.2881940088	 0.3813620168	-0.241928
C	 1.3414026364	-0.5584925925	 0.2051069729	 0.049515
H	 0.6838174702	 2.0786185784	-0.3227666937	 0.144947
H	-1.0658119199	 1.8719762376	-0.5182553431	 0.107809
H	-0.3526483369	 1.8836535625	 1.0989188979	 0.11352
H	-2.1163867382	-0.537423932	 0.0164937245	 0.115768
H	-1.0146012269	-1.8052128546	 0.568443466	 0.110168
H	-1.3839640649	-0.43440268	 1.6250889761	 0.118377
H	 0.3028274985	-1.5611382055	-1.4869709114	 0.086297
H	 1.8438842373	-0.5437645327	-2.9701590595	 0.097422
H	 0.6662767883	 0.7797552315	-2.8547590088	 0.116132
H	 3.5857353041	-0.4551028751	-1.1763210228	 0.0791
H	 3.9601396984	 1.2048622948	-0.5758525848	 0.117615
H	 1.4207377316	-1.4732945336	 0.789661801	 0.087636
151.9344	162.912	204.5266	207.2252	250.5241	272.0475	334.2875	378.6587	423.0664	492.4558	527.1671	574.0934	690.2299	767.2514	809.9763	843.6882	941.197	965.6334	978.6841	982.9393	1008.1772	1027.0814	1046.1427	1085.007	1113.9764	1144.3989	1164.0912	1177.4823	1216.1519	1246.8566	1276.0876	1326.2597	1329.4822	1347.8375	1386.9192	1410.6759	1422.046	1442.5919	1448.2375	1486.452	1491.5839	1497.5164	1508.8156	1512.5231	1514.8687	2938.5473	2974.5738	3020.4052	3030.0592	3073.2558	3080.9996	3084.1652	3093.0944	3111.8959	3117.9821	3140.8751	3153.7811
CC1(C)C2COCOC12	CC1(C)[C@H]2COCO[C@@H]12	
InChI=1S/C7H12O2/c1-7(2)5-3-8-4-9-6(5)7/h5-6H,3-4H2,1-2H3	InChI=1S/C7H12O2/c1-7(2)5-3-8-4-9-6(5)7/h5-6H,3-4H2,1-2H3/t5-,6+/m0/s1
