18
gdb 91504	2.67406	1.83984	1.52051	2.4691	72.03	-0.2414	0.03	0.2714	929.9164	0.149201	-438.946395	-438.939436	-438.938491	-438.977326	29.241	
O	-0.1289392531	 1.3836947178	 0.0213479307	-0.453007
C	 0.0442563609	-0.0165784529	 0.0209703979	 0.158787
C	 0.5965698438	-0.5978154552	 1.3550583999	-0.259753
C	-0.6686386914	-1.3406287431	 1.7610476659	 0.001413
O	-1.764729389	-0.3450158248	 1.4139462173	-0.395315
C	-1.3374273856	-0.7205150326	 0.021033287	 0.32519
C	-1.7460190555	-1.3131690443	-1.3556272504	-0.290652
N	-0.7820156199	-2.4474664623	-0.9416540004	-0.367527
C	-1.1699499603	-2.1062712255	 0.4739615774	 0.026675
H	-0.7587512586	 1.5638274373	 0.7323647438	 0.282703
H	 0.6541844033	-0.2629972703	-0.8472709312	 0.100779
H	 1.4506172061	-1.2672139833	 1.2220702613	 0.112542
H	 0.8669219737	 0.1960335558	 2.0545217681	 0.108115
H	-0.7904931591	-1.7383078029	 2.76877049	 0.089134
H	-2.78776087	-1.6436769249	-1.419934012	 0.118075
H	-1.4473997391	-0.7716919244	-2.2565168392	 0.126692
H	-1.0978124853	-3.3690149858	-1.2350321741	 0.226644
H	-2.1404720409	-2.5442900587	 0.734253018	 0.089504
157.5231	255.32	271.5953	332.118	439.7087	458.1811	529.6603	542.858	614.4063	647.8363	665.0583	785.2636	794.8671	821.0165	857.3809	872.2779	917.2144	941.2342	966.3718	992.6153	1004.8626	1058.7593	1074.8856	1099.8852	1132.8537	1142.3938	1194.3442	1208.0908	1224.4778	1246.153	1274.4637	1289.4793	1299.4594	1316.9306	1355.3187	1411.2776	1435.6725	1480.8404	1497.4206	3027.4706	3045.7542	3067.2535	3116.541	3119.1647	3125.2514	3130.8964	3490.9137	3758.2169
OC1CC2OC11CNC21	O[C@H]1C[C@H]2O[C@]31CN[C@@H]23	
InChI=1S/C6H9NO2/c8-4-1-3-5-6(4,9-3)2-7-5/h3-5,7-8H,1-2H2	InChI=1S/C6H9NO2/c8-4-1-3-5-6(4,9-3)2-7-5/h3-5,7-8H,1-2H2/t3-,4+,5+,6+/m1/s1
