23
gdb 106371	3.03053	1.2585	1.11901	1.2925	85.62	-0.2327	0.0889	0.3216	1241.166	0.206065	-388.288444	-388.279532	-388.278588	-388.321696	35.267	
C	-0.0458084014	 1.5575664723	-0.0513035276	-0.380346
C	-0.0154265344	 0.0317020635	 0.093997392	-0.288045
C	-1.3760530019	-0.6050056421	-0.0265400642	 0.475745
C	-2.2939291049	-0.5391249206	-1.282486635	-0.277826
C	-3.0483334681	-1.6494412242	-0.4887276055	-0.082882
C	-1.6391073053	-2.1348949527	-0.0285300373	-0.287136
C	-3.4963542577	-0.8269849414	 0.7337323235	 0.162534
C	-4.0073806006	-1.5853006651	 1.9479572017	-0.412492
O	-2.2529850202	-0.1409779542	 1.0276177811	-0.338471
H	 0.9545525999	 1.9826059939	 0.0729142848	 0.107601
H	-0.414024356	 1.853587589	-1.0393653812	 0.113148
H	-0.7053916804	 2.0004474257	 0.6989073947	 0.136658
H	 0.6401702107	-0.4094647669	-0.666109922	 0.094325
H	 0.4044453487	-0.2414159932	 1.0701277429	 0.105032
H	-2.81605632	 0.4018223795	-1.4746968019	 0.095481
H	-1.812539711	-0.9112492416	-2.1889858812	 0.095446
H	-3.7825503783	-2.3101653804	-0.9487652485	 0.06757
H	-1.1023775104	-2.6615614722	-0.8199827103	 0.095871
H	-1.5388608327	-2.6621012899	 0.9225203257	 0.096049
H	-4.2475902331	-0.0802720849	 0.4385685236	 0.06773
H	-3.3253750795	-2.3858110343	 2.2465527317	 0.117797
H	-4.117584496	-0.9021796445	 2.7955352965	 0.126045
H	-4.9883885675	-2.0246481356	 1.7363378966	 0.110167
84.7518	151.6814	179.4259	203.464	226.2663	264.171	358.0622	392.5764	489.1945	506.9326	522.9525	617.5054	663.1834	775.417	805.4037	845.5486	868.1662	884.1622	889.2002	937.8123	952.1905	986.6693	1003.9524	1033.486	1039.6893	1062.3559	1078.4453	1118.3286	1125.8168	1146.5047	1159.5928	1193.428	1213.7103	1231.089	1292.4977	1296.3492	1319.5129	1336.1796	1391.46	1397.3034	1406.5239	1413.3131	1471.1251	1475.8622	1488.8253	1495.8088	1496.4001	1510.0852	1514.2654	2992.822	3028.7422	3038.1342	3040.3095	3060.0948	3064.9455	3070.346	3104.4819	3106.3312	3119.7683	3122.0427	3126.751	3127.1955	3133.5351
CCC12CC(C1)C(C)O2	CC[C@@]12C[C@@H](C1)[C@@H](C)O2	
InChI=1S/C8H14O/c1-3-8-4-7(5-8)6(2)9-8/h6-7H,3-5H2,1-2H3	InChI=1S/C8H14O/c1-3-8-4-7(5-8)6(2)9-8/h6-7H,3-5H2,1-2H3/t6-,7-,8+/m1/s1
