21
gdb 41781	2.85925	1.52303	1.11822	1.9558	82.77	-0.2375	0.0146	0.2521	1131.1578	0.185408	-387.081918	-387.074162	-387.073217	-387.114141	30.98	
C	 0.1975072648	 1.6565900857	 0.196702341	-0.091542
O	 1.4607239582	 1.5196394009	-0.4846814419	-0.297259
C	 1.2184080574	 0.1156122106	-0.7467693802	 0.095602
C	 2.3729370182	-0.750576328	-0.34000387	-0.075662
C	 2.235105907	-2.0076884254	 0.0793261626	-0.063584
C	 0.8861216533	-2.6815852384	 0.1995120324	-0.252149
C	 0.018555462	-2.1284254348	 1.358121024	-0.198906
C	 0.040137472	-0.5938616006	 1.4804843399	-0.199804
C	-0.063387462	 0.1366575981	 0.1444429329	-0.052089
H	 0.3174943984	 2.0911362074	 1.1973389086	 0.099161
H	-0.5107709576	 2.2706915222	-0.3753179678	 0.093889
H	 0.9865371823	-0.0311117996	-1.8146665417	 0.080398
H	 3.3506647107	-0.2800240253	-0.4093098995	 0.099111
H	 3.1168897781	-2.5770267843	 0.3619095993	 0.088527
H	 0.3356820231	-2.5530580321	-0.7412114509	 0.109029
H	 1.0083376554	-3.7614562158	 0.3272515875	 0.097381
H	-1.0106429939	-2.4771073779	 1.2085798953	 0.095456
H	 0.3534126477	-2.5584302218	 2.3090694196	 0.09938
H	-0.7783290044	-0.269674444	 2.1352623159	 0.092003
H	 0.968165015	-0.2813783568	 1.9716799802	 0.11043
H	-0.9751466154	-0.1495997803	-0.387436617	 0.070629
81.8469	174.3452	227.8305	296.0013	310.5016	327.2343	389.3121	523.0356	551.6489	669.5968	711.2138	788.913	803.243	841.8939	846.4544	895.1771	936.2535	974.7544	990.269	1003.7465	1027.4622	1042.0954	1052.4224	1073.9053	1102.8813	1142.5631	1160.6395	1181.8534	1200.8607	1244.3575	1262.4557	1278.8022	1301.8746	1322.3402	1341.6742	1351.0508	1366.6523	1378.5234	1400.1208	1413.1658	1482.0526	1493.4238	1502.0907	1526.3071	1713.6643	2954.2888	3003.0093	3019.5969	3023.1766	3033.1495	3044.5045	3056.0223	3064.0849	3076.6357	3082.2943	3149.3576	3172.1883
C1OC2C=CCCCC12	C1O[C@H]2C=CCCC[C@@H]12	
InChI=1S/C8H12O/c1-2-4-7-6-9-8(7)5-3-1/h3,5,7-8H,1-2,4,6H2	InChI=1S/C8H12O/c1-2-4-7-6-9-8(7)5-3-1/h3,5,7-8H,1-2,4,6H2/t7-,8-/m0/s1
