20
gdb 114597	3.21101	1.06644	0.9243	2.6116	81.66	-0.238	-0.0342	0.2039	1335.8822	0.170378	-403.123487	-403.114508	-403.113564	-403.157289	33.468	
C	-0.0051938015	 1.6422545205	-0.2304917121	-0.383413
C	 0.0211840606	 0.1516694426	 0.1205413147	-0.193149
C	-1.3572602828	-0.4981304353	 0.0666814399	-0.052223
C	-2.0673594603	-0.6669299171	-1.3301566436	-0.238769
C	-2.1456516082	-2.1747991971	-1.0823317387	-0.077538
N	-0.7893923622	-2.6687582623	-0.9105696156	-0.359068
C	-1.4361811193	-2.0215867919	 0.2553125065	 0.236238
C	-1.7518064357	-2.817395494	 1.444589804	 0.048724
O	-1.7245952031	-4.0303562628	 1.4671414543	-0.28849
H	 0.9981537893	 2.0762504131	-0.1848455559	 0.116257
H	-0.3909871229	 1.8070160405	-1.2424659306	 0.118467
H	-0.6426294157	 2.2045555424	 0.4614079689	 0.11173
H	 0.687221225	-0.3869216667	-0.5617957514	 0.121275
H	 0.4357180281	 0.0190478584	 1.1288237388	 0.094336
H	-2.0405575291	-0.0047421948	 0.767704807	 0.076141
H	-3.0423881912	-0.1792487614	-1.3768763632	 0.109736
H	-1.4751961642	-0.3885686183	-2.2057922124	 0.115657
H	-2.9649560026	-2.8486226595	-1.3039399326	 0.115859
H	-0.8426839309	-3.6720648565	-0.7207570566	 0.25172
H	-2.0478524432	-2.2289809197	 2.3399793284	 0.076512
93.0038	111.1069	151.8463	197.7021	211.4536	238.8571	292.6183	349.5367	434.8835	460.9752	596.9475	702.2906	739.6081	782.573	809.1329	839.339	898.6785	929.5192	955.6856	972.9294	1018.2499	1034.1278	1074.2313	1091.8429	1096.7571	1127.6084	1169.144	1182.8933	1231.014	1241.6963	1279.1411	1301.3874	1329.638	1347.5837	1384.68	1405.4551	1413.7514	1436.5563	1475.2603	1491.0928	1500.5188	1507.3741	1775.4823	2896.6568	3021.3143	3029.8118	3039.2712	3067.5385	3073.8311	3098.4527	3104.8453	3128.8725	3190.3522	3452.0878
CCC1CC2NC12C=O	CC[C@H]1C[C@H]2N[C@@]12C=O	
InChI=1S/C7H11NO/c1-2-5-3-6-7(5,4-9)8-6/h4-6,8H,2-3H2,1H3	InChI=1S/C7H11NO/c1-2-5-3-6-7(5,4-9)8-6/h4-6,8H,2-3H2,1H3/t5-,6+,7-/m0/s1
