19
gdb 101534	2.48648	0.99782	0.82479	3.2047	79.25	-0.29	-0.0516	0.2384	1460.9135	0.157322	-419.232773	-419.222597	-419.221653	-419.268558	35.948	
C	 0.0313622297	 1.565034329	-0.057445257	-0.391321
C	 0.0960224797	 0.0363663238	-0.0261476512	-0.180781
C	 0.6905872452	-0.529841127	 1.2595489116	 0.14149
C	 0.6791961452	-2.0524185831	 1.3186285463	-0.412063
O	 2.0716428017	-0.0529674928	 1.3030094215	-0.248904
C	 2.6576035648	 0.0590543301	 2.4941007109	 0.328162
N	 2.1151965423	-0.2320251973	 3.6043281749	-0.518859
C	 4.0141115187	 0.5697234297	 2.3570842251	 0.250457
N	 5.0972917409	 0.9709404254	 2.318975497	-0.317046
H	 1.0294037823	 2.001593468	 0.0350679379	 0.132788
H	-0.4048950765	 1.9172556129	-0.9964785356	 0.118599
H	-0.5836486046	 1.9525661636	 0.7622519925	 0.11735
H	-0.9107055474	-0.3848740792	-0.1320774296	 0.105232
H	 0.681765079	-0.3363795203	-0.8752031146	 0.111089
H	 0.1794803336	-0.1176452401	 2.1351026037	 0.117137
H	 1.2299041583	-2.4754201491	 0.4728849039	 0.126714
H	 1.125341215	-2.407965109	 2.2493559918	 0.144055
H	-0.3523729399	-2.414623732	 1.2744041204	 0.124374
H	 2.7439525419	-0.0535612625	 4.3834702105	 0.251526
56.1092	76.218	116.6845	132.4491	217.4082	220.2203	226.9088	269.3576	322.6086	375.9721	426.5384	481.4238	527.4041	604.1527	734.7766	772.3848	837.4602	844.7335	874.5325	922.1105	979.3506	1005.9991	1035.0093	1109.1811	1138.3982	1142.9666	1200.8198	1299.3045	1326.9427	1354.2524	1396.7232	1401.9616	1407.9635	1413.5828	1473.805	1488.4234	1497.5266	1502.9404	1509.3526	1697.714	2355.1951	3032.3874	3039.3716	3046.8187	3063.3284	3077.0302	3106.849	3117.8562	3122.3028	3138.5817	3534.9428
CCC(C)OC(=N)C#N	CC[C@@H](C)O[C]([NH])C#N	
InChI=1S/C6H10N2O/c1-3-5(2)9-6(8)4-7/h5,8H,3H2,1-2H3	InChI=1S/C6H10N2O/c1-3-5(2)9-6(8)4-7/h5,8H,3H2,1-2H3/t5-/m1/s1
