18
gdb 102042	2.88497	1.01342	0.87136	2.7824	70.75	-0.2224	-0.0413	0.1811	1393.3942	0.144277	-476.243336	-476.232784	-476.23184	-476.280098	35.236	
C	 0.1300914805	 1.5626355953	-0.042870049	-0.322695
N	-0.2124238317	 0.1603014968	-0.2551810325	-0.270933
C	 0.5749523129	-0.5232590875	-1.2439390022	-0.184529
C	 2.0852599269	-0.6593223805	-0.9437202177	 0.142505
O	 2.5682930387	-0.3982146712	 0.1251730109	-0.234085
C	 0.0487170519	-1.9472509881	-1.4399857628	 0.44398
O	-0.6157218163	-2.5477068356	-0.6390786863	-0.346915
O	 0.4848360821	-2.4526901227	-2.6084340607	-0.235769
C	 0.1122363301	-3.8164950963	-2.8655213827	-0.245192
H	 1.1605535662	 1.7381768703	 0.2958396735	 0.122975
H	-0.0253807883	 2.117255649	-0.9760898796	 0.116086
H	-0.5534323954	 1.9800624836	 0.7015770793	 0.125174
H	-0.1961606834	-0.3632542019	 0.6120656419	 0.23877
H	 0.4989394158	-0.0113519328	-2.2134169533	 0.121221
H	 2.6991545976	-1.0294734475	-1.794465892	 0.094958
H	 0.4891669048	-4.4720580369	-2.076943756	 0.147026
H	-0.9749636587	-3.9113129226	-2.9148307041	 0.148441
H	 0.5624457264	-4.0698164114	-3.8248430667	 0.138984
47.5916	73.7768	96.4751	114.5549	144.0122	180.4231	193.7011	239.893	291.2658	310.7464	362.4455	413.5996	636.9439	685.8258	737.7073	763.8074	829.9082	916.3166	993.4422	1013.1589	1054.169	1145.4952	1154.3476	1178.7667	1193.3363	1216.7874	1245.1781	1268.3791	1344.2114	1400.2378	1457.6875	1471.899	1481.953	1486.2727	1496.5857	1497.3174	1527.6516	1818.3238	1846.2588	2887.6162	3003.2945	3026.3822	3056.4601	3062.4627	3106.1333	3133.795	3165.7742	3557.9493
CNC(C=O)C(=O)OC	CN[C@@H](C=O)C(=O)OC	
InChI=1S/C5H9NO3/c1-6-4(3-7)5(8)9-2/h3-4,6H,1-2H3	InChI=1S/C5H9NO3/c1-6-4(3-7)5(8)9-2/h3-4,6H,1-2H3/t4-/m0/s1
