14
gdb 47124	3.41043	1.16036	0.87504	3.3666	71.13	-0.2846	-0.0616	0.223	1213.7313	0.101434	-436.740964	-436.733054	-436.732109	-436.774895	27.809	
O	 0.0112263522	 0.1861407668	 0.7822630596	-0.30929
C	-0.0021780369	 1.2093476032	 0.1595895412	 0.416475
C	-1.2947248602	 1.9742861515	-0.0846783202	-0.454845
C	-1.1583574053	 3.2440321782	-0.883634229	 0.147274
C	 0.0278648885	 3.6527114338	-1.3378357203	-0.149966
C	 1.2851474887	 2.8956347229	-1.0924045288	-0.112184
O	 1.1618281446	 1.69170864	-0.3358714268	-0.225274
C	-2.348361768	 3.9935821098	-1.1361599275	 0.226236
N	-3.3333555825	 4.5737259277	-1.3205906203	-0.319121
H	-1.988191445	 1.2796918734	-0.5721698263	 0.173203
H	-1.7346036538	 2.1777040929	 0.8982406686	 0.173202
H	 0.1245654433	 4.567421455	-1.9131419371	 0.136962
H	 1.751327868	 2.6259664863	-2.0500283074	 0.148664
H	 2.0076761166	 3.5331678486	-0.5645860457	 0.148664
31.9726	94.541	148.8359	169.6133	363.8706	394.8302	445.2079	519.2979	526.5528	595.2803	605.7676	701.7838	799.6007	858.8718	920.4339	970.772	992.5765	1028.7658	1121.3532	1161.3572	1219.8446	1229.4379	1260.7673	1311.8387	1375.6929	1427.4961	1450.1663	1494.1738	1731.1816	1853.9167	2341.4898	3013.4264	3037.1131	3050.9066	3079.5116	3195.9357
O=C1CC(=CCO1)C#N	O=C1CC(=CCO1)C#N	
InChI=1S/C6H5NO2/c7-4-5-1-2-9-6(8)3-5/h1H,2-3H2	InChI=1S/C6H5NO2/c7-4-5-1-2-9-6(8)3-5/h1H,2-3H2
