21
gdb 96364	2.32511	1.65951	1.1112	1.6318	77.83	-0.2453	0.0774	0.3227	1144.184	0.183602	-424.216888	-424.208563	-424.207619	-424.249423	32.938	
C	-0.0847955489	 1.5687601251	-0.0444943064	-0.426547
C	 0.079024597	 0.0491772813	 0.0120954868	-0.053257
C	 0.7425153238	-0.5288295067	-1.2541641153	-0.206173
C	 0.9246689072	-2.0432000988	-1.1397937731	-0.080154
O	 1.6733987144	-2.3944343301	 0.0128637469	-0.240148
C	 1.036571165	-1.9691936947	 1.20394663	-0.156606
C	 0.8480130199	-0.4603597627	 1.2254679218	 0.422762
C	 1.7908238124	 0.3655842519	 1.9912094875	-0.237201
O	 0.4854121945	 0.0645148754	 2.5058448627	-0.29143
H	 0.8654366491	 2.0682411585	-0.2619555073	 0.114743
H	-0.788987584	 1.8463953171	-0.834792295	 0.112705
H	-0.4674922204	 1.9520783337	 0.905243267	 0.135666
H	-0.9255672311	-0.3956795402	 0.090860795	 0.08041
H	 0.1382661152	-0.2934834204	-2.1385459184	 0.096412
H	 1.725269503	-0.062023245	-1.397148309	 0.104364
H	-0.0616556749	-2.5392557127	-1.1133571242	 0.085297
H	 1.4779198017	-2.4415699521	-1.9950628114	 0.107758
H	 0.0498498324	-2.4541811316	 1.3086064945	 0.090631
H	 1.6630007516	-2.2925510629	 2.0390542928	 0.111536
H	 2.6190914251	-0.1130317541	 2.5120593156	 0.113944
H	 1.952779957	 1.4084791489	 1.7286684993	 0.115287
100.7817	174.1971	245.161	273.2216	282.2429	317.8395	350.3176	404.6474	437.3035	473.3295	518.4232	608.5956	694.0421	846.2879	853.4431	892.0194	903.8237	938.921	972.3753	985.1317	1010.8125	1031.6614	1096.5057	1119.8791	1126.5875	1143.0647	1168.5688	1181.6894	1216.1945	1230.2401	1268.0058	1307.1392	1334.528	1363.5261	1378.1257	1391.8722	1401.7913	1413.7635	1433.1397	1477.4976	1490.0595	1498.0183	1501.4299	1509.0769	1533.0839	2950.9782	2956.2999	2982.9877	3025.2296	3036.5905	3069.8528	3086.4791	3089.4935	3096.9459	3101.1263	3119.8243	3177.8185
CC1CCOCC11CO1	C[C@H]1CCOC[C@]21CO2	
InChI=1S/C7H12O2/c1-6-2-3-8-4-7(6)5-9-7/h6H,2-5H2,1H3	InChI=1S/C7H12O2/c1-6-2-3-8-4-7(6)5-9-7/h6H,2-5H2,1H3/t6-,7+/m0/s1
