18
gdb 71323	3.7788	1.4676	1.28949	2.9387	75.37	-0.244	-0.0286	0.2153	1012.5092	0.148196	-401.918159	-401.910753	-401.909809	-401.949718	29.506	
C	-0.0524408853	 1.5162763706	-0.0516566706	-0.484182
C	-0.0103631426	 0.009371626	-0.0166717328	 0.374899
C	-1.319214226	-0.7549295786	 0.2969495401	-0.30395
C	-0.4946306029	-1.6533342501	 1.2480462902	-0.126489
N	 0.6979386104	-0.6854424396	 1.1677940824	-0.189106
C	 1.3658450014	-1.626636404	 0.1511671507	-0.126493
C	 0.9136223605	-0.7229047941	-1.0194861528	-0.303932
C	 0.3327405725	-2.6978507483	 0.49937997	 0.428369
O	 0.2766228406	-3.8866875534	 0.375261186	-0.308503
H	 0.9587113666	 1.9350285144	-0.0696621578	 0.124655
H	-0.5833862134	 1.8654435014	-0.945701303	 0.121019
H	-0.5678910895	 1.9134148386	 0.8285101255	 0.124619
H	-2.0163242184	-0.1292578747	 0.8599654104	 0.118487
H	-1.8594626861	-1.2329108677	-0.524179613	 0.115557
H	-0.9122421833	-1.9266422976	 2.2184107133	 0.100503
H	 2.4226869337	-1.8787774625	 0.2522293807	 0.100502
H	 0.4668251715	-1.1995567513	-1.8957070725	 0.115558
H	 1.7301796204	-0.0755103291	-1.3489242368	 0.118486
123.5251	188.2921	213.4246	273.7179	375.353	382.2356	442.8068	507.0109	629.75	646.6953	719.8721	771.805	849.4575	870.5619	886.6626	895.3835	931.0468	945.5281	977.7299	999.9471	1005.7941	1015.9061	1104.3494	1111.3383	1152.7397	1154.474	1209.9032	1223.3356	1238.5684	1273.8636	1279.0326	1286.7418	1337.0647	1411.7782	1475.9146	1482.5234	1488.2311	1498.3276	1890.287	3026.4669	3058.2784	3060.7849	3095.4749	3100.8773	3102.6068	3106.3381	3113.3087	3115.4988
CC12CC3N1C(C2)C3=O	C[C@]12C[C@@H]3N1[C@H](C2)C3=O	
InChI=1S/C7H9NO/c1-7-2-4-6(9)5(3-7)8(4)7/h4-5H,2-3H2,1H3	InChI=1S/C7H9NO/c1-7-2-4-6(9)5(3-7)8(4)7/h4-5H,2-3H2,1H3/t4-,5+,7+
