17
gdb 85785	3.07257	1.23876	0.9291	1.0208	73.1	-0.2358	-0.0096	0.2263	1232.0158	0.137579	-451.355208	-451.34622	-451.345276	-451.389094	33.075	
N	 0.0341001104	 1.4815666719	 0.1832029171	-0.507195
C	 0.0011663697	 0.0491031256	-0.0088370296	-0.117599
C	-1.4107551334	-0.6175802494	-0.0709080817	-0.162822
N	-1.01867615	-1.1870085961	-1.365176001	-0.109902
C	-1.7361362907	-1.987450245	-2.2594254786	 0.406005
N	-0.9757881585	-2.3692393292	-3.3423454427	-0.564688
N	-2.9399671326	-2.2866336046	-1.9558890167	-0.546376
C	 0.2140497959	-0.5674226203	-1.4221029377	 0.392449
O	 1.0535560746	-0.5359737201	-2.2915232236	-0.391018
H	 0.9932953173	 1.8136978921	 0.1572599387	 0.245212
H	-0.4556010674	 1.9550290167	-0.5712561778	 0.23577
H	 0.6541223033	-0.424804447	 0.7296863863	 0.116911
H	-1.636348983	-1.3670023368	 0.6897001555	 0.134053
H	-2.2368064762	 0.093749178	-0.1461912791	 0.131614
H	-0.1241071103	-1.8476531231	-3.5121044799	 0.276792
H	-1.4784598899	-2.6874751436	-4.1539579961	 0.25239
H	-3.3607472491	-2.8823845688	-2.6670758529	 0.208404
75.5226	100.1265	161.1162	184.7719	244.4858	255.0288	347.3453	403.6165	421.1592	439.1615	553.6904	588.2081	639.0872	721.8718	773.296	778.5174	799.5399	868.0643	875.2603	985.9436	1018.8794	1101.4688	1123.035	1146.1686	1155.927	1193.3101	1223.76	1237.8092	1259.7327	1367.7384	1418.2292	1467.8014	1521.5337	1645.1256	1663.1938	1725.582	1842.1734	3072.563	3078.1184	3129.4757	3491.1681	3499.5035	3529.2367	3572.02	3690.8804
NC1CN(C(N)=N)C1=O	N[C@H]1CN(C(=N)N)C1=O	
InChI=1S/C4H8N4O/c5-2-1-8(3(2)9)4(6)7/h2H,1,5H2,(H3,6,7)	InChI=1S/C4H8N4O/c5-2-1-8(3(2)9)4(6)7/h2H,1,5H2,(H3,6,7)/t2-/m0/s1
