21
gdb 118005	3.48567	0.77147	0.66318	0.1215	81.72	-0.2524	0.0303	0.2827	1723.8687	0.178384	-424.187564	-424.17629	-424.175346	-424.224332	40.393	
C	 0.0185643584	 1.5974761458	 0.0480655768	-0.382062
C	 0.0189529035	 0.067461332	 0.003113357	-0.171676
C	-1.3918007144	-0.5298570658	-0.0154365007	-0.187353
C	-1.4002397172	-2.0595195934	 0.0184489168	 0.10432
O	-0.7974546764	-2.5792891561	 1.1936360837	-0.421611
C	-2.837903063	-2.6231599017	-0.1512626133	-0.085747
O	-3.4497553508	-2.1404784109	-1.3456303527	-0.415959
C	-2.8532957503	-4.0850836922	-0.0949019517	 0.302347
C	-2.8634667704	-5.2867292701	-0.1239854141	-0.438111
H	 1.037947057	 1.9957978732	 0.0544587469	 0.112227
H	-0.4998727838	 2.0213536552	-0.8192617654	 0.114243
H	-0.4882557826	 1.9677872079	 0.9464953832	 0.111514
H	 0.5635590945	-0.2739244445	-0.8871914326	 0.094696
H	 0.5648964477	-0.3341747247	 0.8638986209	 0.106711
H	-1.9627310541	-0.1595406567	 0.8516616636	 0.077858
H	-1.9396347613	-0.1980933421	-0.9035248217	 0.116898
H	-0.7919893595	-2.4510027806	-0.8073405585	 0.087766
H	-1.2530930398	-2.1988180169	 1.9534578648	 0.279967
H	-3.452495267	-2.2226093969	 0.667763212	 0.105439
H	-3.1512367322	-2.7036397035	-2.0682248743	 0.288865
H	-2.8737134183	-6.3488007379	-0.1267776007	 0.199669
50.9928	84.1923	95.2444	118.4638	176.692	222.0201	243.5514	254.7735	270.4437	294.8079	340.5641	383.3859	431.2492	466.4852	591.2225	599.9191	633.2095	670.0202	750.6866	856.6289	883.5967	933.8984	960.1451	1039.5354	1064.4653	1066.5479	1095.0901	1122.8929	1143.9472	1217.1627	1242.992	1269.8637	1295.2421	1322.1925	1348.962	1372.6489	1395.0512	1411.0631	1412.8562	1417.6284	1484.1717	1495.2981	1499.502	1512.3088	2233.956	2982.3603	3006.3544	3022.4622	3028.2148	3037.9988	3061.1532	3082.3093	3097.0459	3101.9445	3503.4329	3792.1628	3810.3413
CCCC(O)C(O)C#C	CCC[C@@H](O)[C@@H](O)C#C	
InChI=1S/C7H12O2/c1-3-5-7(9)6(8)4-2/h2,6-9H,3,5H2,1H3	InChI=1S/C7H12O2/c1-3-5-7(9)6(8)4-2/h2,6-9H,3,5H2,1H3/t6-,7+/m0/s1
