20
gdb 38452	3.64042	1.32859	1.20357	0.8879	78.54	-0.2266	0.0821	0.3087	1102.7951	0.172819	-403.109109	-403.101442	-403.100497	-403.141591	30.436	
C	 0.1863329757	 1.6670551132	-0.1248679179	-0.299841
C	 1.6843350565	 1.3459149136	-0.1312489879	-0.03816
N	 1.97206515	 0.679816169	 1.1642483118	-0.340834
C	 1.4215500829	-0.1061411069	 0.0308343113	-0.129088
C	-0.1072719234	 0.1368137672	 0.0549152342	 0.477737
C	-0.9042374357	-0.3739899034	 1.2527332562	-0.286814
C	-1.4292140822	-1.7222981185	 0.7406939142	-0.236107
C	-1.6933976633	-1.4016873791	-0.7346182004	-0.069963
O	-0.7394918606	-0.4028963824	-1.1038547701	-0.322596
H	-0.1575103668	 2.3406667673	 0.6646678616	 0.097795
H	-0.1852165911	 1.9941643811	-1.0977688363	 0.116227
H	 2.4697531762	 1.8548629717	-0.6756447622	 0.091223
H	 2.9749416497	 0.4960180587	 1.1927697808	 0.227779
H	 1.9396942808	-0.9677885826	-0.3730473333	 0.087173
H	-0.2870456357	-0.4358994353	 2.1499001698	 0.124711
H	-1.7381693824	 0.3069106405	 1.4603918017	 0.100603
H	-0.6571746629	-2.4939522416	 0.8329802518	 0.105651
H	-2.3216683258	-2.0753299908	 1.2629527252	 0.10071
H	-1.5729001493	-2.2654549785	-1.3974204984	 0.100929
H	-2.7098429425	-1.0053179533	-0.8771454022	 0.092866
55.2602	151.276	193.7381	259.3324	370.9174	402.4507	457.0313	513.9999	622.827	727.4408	761.4625	818.3448	840.7197	854.1092	884.2088	902.2252	927.7135	935.3653	956.3403	968.5103	993.3247	1008.6027	1043.5777	1082.213	1089.3458	1140.2978	1144.1624	1160.0579	1199.5854	1202.0764	1218.782	1251.138	1259.2665	1296.3905	1329.2592	1334.7554	1339.8745	1378.5912	1390.6361	1463.0781	1486.3637	1498.1582	1531.085	2990.7914	3039.3079	3046.587	3061.5969	3063.0046	3106.3902	3128.0895	3132.0917	3182.1577	3197.3407	3467.5283
C1C2NC2C11CCCO1	C1[C@H]2N[C@H]2[C@]21CCCO2	
InChI=1S/C7H11NO/c1-2-7(9-3-1)4-5-6(7)8-5/h5-6,8H,1-4H2	InChI=1S/C7H11NO/c1-2-7(9-3-1)4-5-6(7)8-5/h5-6,8H,1-4H2/t5-,6-,7-/m1/s1
