21
gdb 8882	3.71296	1.08191	1.00449	3.3068	76.57	-0.2388	0.0394	0.2782	1305.3584	0.187116	-366.308729	-366.298282	-366.297338	-366.345178	36.052	
C	 0.3829900228	 1.4894047039	-0.0534200923	-0.3961
C	 0.3267288375	-0.0333813292	 0.0948439582	-0.153049
C	 0.4888321038	-0.5428312999	 1.5445852861	-0.084129
C	-0.6482422878	-0.0867763179	 2.4710440348	-0.386892
C	 0.5206516803	-2.0732115403	 1.5124061764	 0.418987
O	-0.4603746499	-2.7292444518	 1.202605989	-0.392853
N	 1.7203474639	-2.6408068289	 1.8347289987	-0.31816
C	 1.9331458296	-4.074657362	 1.833768556	-0.333044
H	 1.3174771161	 1.8958889785	 0.3506679906	 0.109327
H	 0.3272780704	 1.7755625506	-1.1083767815	 0.115349
H	-0.4452270642	 1.983674267	 0.4627388257	 0.121889
H	-0.6198868118	-0.4214071913	-0.2969162544	 0.121489
H	 1.1179034879	-0.480735631	-0.5203439255	 0.09347
H	 1.4430101579	-0.1646764862	 1.938176453	 0.05571
H	-0.4885392891	-0.4437800601	 3.4935334725	 0.112933
H	-0.7217211644	 1.0030849549	 2.5065707574	 0.111783
H	-1.5986050301	-0.4959473719	 2.1184132857	 0.141978
H	 2.4844193445	-2.0372035426	 2.0871093955	 0.243146
H	 2.2194859035	-4.4378266926	 2.8273288786	 0.123193
H	 0.9901659882	-4.5389399218	 1.542582324	 0.171848
H	 2.7111929114	-4.3642863672	 1.1182935114	 0.123125
27.7972	75.1377	81.7339	120.567	197.3015	216.4606	228.4968	272.2692	290.2192	341.6248	353.7352	471.1137	493.3244	692.9684	759.8083	781.9598	843.1275	880.8895	969.9695	986.2414	1038.3413	1064.7672	1099.9187	1130.3327	1155.1209	1170.9742	1193.9703	1221.2282	1285.9367	1338.6861	1358.4271	1389.1627	1404.6493	1412.9466	1435.695	1486.1403	1491.1314	1492.9234	1499.7394	1500.2964	1507.1158	1512.4408	1556.7243	1771.5759	3000.9125	3025.1179	3025.3021	3032.1495	3044.4205	3072.1943	3076.1697	3098.6541	3106.8699	3113.0081	3130.7288	3152.2435	3653.8128
CCC(C)C(=O)NC	CC[C@@H](C)C(=O)NC	
InChI=1S/C6H13NO/c1-4-5(2)6(8)7-3/h5H,4H2,1-3H3,(H,7,8)	InChI=1S/C6H13NO/c1-4-5(2)6(8)7-3/h5H,4H2,1-3H3,(H,7,8)/t5-/m1/s1
