13
gdb 132646	3.21908	1.41258	0.98224	2.6929	66.16	-0.2119	-0.0338	0.178	1072.2695	0.090301	-494.0978	-494.090552	-494.089608	-494.129304	28.257	
N	-0.0643295155	 1.3815110894	 0.1606983125	-0.56527
C	-0.0337586868	 0.0188452475	 0.0487297442	 0.313047
N	-1.1683288465	-0.6693119154	 0.0737165757	-0.366243
C	-1.0708259853	-1.9876567374	 0.0151783707	 0.289183
F	-2.2178140819	-2.6615225218	 0.0431937845	-0.073333
C	 0.1240839828	-2.6712345899	-0.0787450883	-0.186999
N	 1.2770985622	-1.974153832	-0.1168695914	-0.31858
C	 1.204986525	-0.6707283228	-0.0539056956	 0.379481
O	 2.3343953132	 0.0819029888	-0.0949051752	-0.436159
H	 0.755303501	 1.884022167	-0.1378825874	 0.272506
H	-0.9559001958	 1.8195272248	-0.0087889431	 0.265202
H	 0.1683668762	-3.7519828556	-0.1280388046	 0.124429
H	 3.0734880814	-0.5355586026	-0.1768619519	 0.302735
135.46	238.9701	296.1771	356.8433	397.7637	421.6612	449.7795	461.0906	503.387	529.8616	545.6051	603.6825	680.9184	736.9068	802.3378	809.0903	865.4121	1011.4562	1126.7637	1150.7381	1260.7067	1299.7687	1340.3602	1405.6042	1490.9815	1519.6657	1603.8636	1631.2889	1660.4856	3207.7777	3594.1281	3718.9833	3780.1145
NC1=NC(F)=CN=C1O	Nc1nc(F)cnc1O	
InChI=1S/C4H4FN3O/c5-2-1-7-4(9)3(6)8-2/h1H,(H2,6,8)(H,7,9)	InChI=1S/C4H4FN3O/c5-2-1-7-4(9)3(6)8-2/h1H,(H2,6,8)(H,7,9)
