17
gdb 85035	2.49635	1.58195	1.01678	2.6347	71.52	-0.2283	-0.0452	0.1831	1137.7897	0.135245	-455.169166	-455.160137	-455.159193	-455.203196	32.372	
C	-0.0273636386	 1.4054639162	 0.0430473475	-0.337972
N	 0.0192057623	-0.0360461903	 0.1401377727	-0.073432
C	-1.2012183417	-0.8242982722	 0.0819590314	-0.274306
C	-0.681420793	-2.2281115837	-0.2089328977	 0.344787
O	-1.2771225183	-3.1509963829	-0.701145234	-0.31089
C	 0.8055048678	-2.2279687265	 0.0991103923	-0.035124
O	 1.5478968405	-3.1528925077	-0.63151338	-0.428724
C	 1.1654525098	-0.7598646103	-0.1345239337	 0.32855
N	 2.2775964981	-0.2478695518	-0.4721893311	-0.560767
H	 0.9926326262	 1.7841505941	 0.1125894832	 0.173291
H	-0.4567740948	 1.7356204272	-0.913965561	 0.122079
H	-0.6319410423	 1.82395413	 0.8554821652	 0.121848
H	-1.7731144393	-0.7975944927	 1.0215884421	 0.136177
H	-1.8778283034	-0.504562888	-0.7235148426	 0.137865
H	 0.9071874845	-2.4082873268	 1.1862000871	 0.123235
H	 0.9094007981	-3.7510195375	-1.0460262487	 0.300776
H	 2.9741088039	-0.9830884271	-0.5846661428	 0.232606
83.1718	100.9935	117.2687	179.5279	241.449	281.0067	306.9654	307.8799	398.5931	510.4227	539.4831	590.5294	630.8106	722.2577	789.9602	827.5329	870.6543	970.3542	995.2765	1067.2007	1109.7481	1151.3221	1166.8677	1195.2522	1206.5565	1247.0339	1287.5695	1311.6151	1363.0725	1388.3294	1430.8387	1456.02	1487.1174	1498.3224	1523.4371	1746.6634	1859.0589	2932.4711	2991.5349	3002.004	3022.1487	3064.0983	3153.7484	3501.9509	3737.7875
CN1CC(=O)C(O)C1=N	CN1CC(=O)[C@@H](O)[C]1[NH]	
InChI=1S/C5H8N2O2/c1-7-2-3(8)4(9)5(7)6/h4,6,9H,2H2,1H3	InChI=1S/C5H8N2O2/c1-7-2-3(8)4(9)5(7)6/h4,6,9H,2H2,1H3/t4-/m1/s1
