17
gdb 70403	2.51094	1.51773	1.33408	0.8116	74.36	-0.247	0.0337	0.2807	1035.0099	0.133028	-421.750554	-421.741683	-421.740738	-421.78343	34.487	
O	-0.0514510598	 1.4232461464	-0.0553734701	-0.457434
C	-0.0177892074	 0.0476888522	 0.0197008509	 0.390085
C	-0.2596234645	-0.8415153959	-1.1696569982	-0.355436
C	-1.1917868153	-0.9159923373	 0.0179688339	-0.086249
C	-0.5350946647	-1.7638008285	 1.1095277884	-0.292209
C	 0.6778207087	-0.7423254939	 1.1456924148	 0.11121
O	 1.9505043443	-1.2303596799	 0.7497172155	-0.473913
C	 0.7614037313	-0.0191213638	 2.4084786439	 0.299747
C	 0.8647950916	 0.537767651	 3.4690263583	-0.460727
H	 0.7311192004	 1.7189419247	-0.5344099847	 0.291486
H	-0.6542522144	-0.3024481678	-2.0248964854	 0.114434
H	 0.4065067171	-1.6660769427	-1.4060578742	 0.121883
H	-2.247246443	-0.6922249487	-0.0598857309	 0.096222
H	-1.0825093579	-1.7898150897	 2.0524098371	 0.117452
H	-0.2439794045	-2.7770980246	 0.8171275647	 0.102093
H	 2.3894586131	-1.5821526866	 1.5318545604	 0.283488
H	 0.9484555948	 1.0462092152	 4.3977535555	 0.197871
113.0488	127.0041	198.9357	256.8523	280.0366	287.483	337.5762	382.539	430.3154	476.5133	524.6263	539.7563	621.4384	657.7491	664.3167	678.0865	801.0428	863.1004	894.4727	909.1024	961.2022	975.3988	1020.3066	1038.2386	1075.1096	1084.9321	1151.8918	1201.4335	1212.6678	1244.4766	1271.8876	1310.4714	1367.5025	1405.7899	1468.9269	1501.4042	2231.8049	3056.3077	3119.6004	3129.9918	3204.139	3214.3715	3500.8639	3790.9522	3808.7793
OC12CC1CC2(O)C#C	O[C@]12C[C@H]1C[C@]2(O)C#C	
InChI=1S/C7H8O2/c1-2-6(8)3-5-4-7(5,6)9/h1,5,8-9H,3-4H2	InChI=1S/C7H8O2/c1-2-6(8)3-5-4-7(5,6)9/h1,5,8-9H,3-4H2/t5-,6-,7-/m1/s1
