19
gdb 42408	5.00033	0.86782	0.79666	2.5812	77.86	-0.2372	0.0363	0.2735	1473.8372	0.159406	-419.196671	-419.187582	-419.186638	-419.232357	32.73	
O	 0.0023621823	 0.3947842218	-0.4690528797	-0.380465
C	 0.063555202	 1.5856789031	-0.2426963323	 0.447119
N	 1.195613005	 2.2483411887	 0.1268096384	-0.337123
C	 2.4231683426	 1.5867585094	 0.4402170528	 0.056946
C	 3.1968318898	 0.923375241	-0.6660109698	-0.236
C	 3.7037618558	 2.2055763292	-0.0574232254	-0.290185
N	-1.034560798	 2.5021643261	-0.3638337183	-0.176113
C	-2.0191246705	 2.4514047061	 0.7381687867	-0.234166
C	-2.3372599554	 1.8875034498	-0.596068808	-0.204542
H	 1.1056389222	 3.2370420506	 0.2984986529	 0.25108
H	 2.451810196	 1.1023201838	 1.4139491297	 0.099301
H	 3.7077109282	-0.0035317386	-0.4337771949	 0.119908
H	 2.7662322608	 0.9673519833	-1.6583963363	 0.130897
H	 3.6210781697	 3.1098243705	-0.6508051545	 0.116706
H	 4.5688154003	 2.1725581415	 0.5949323762	 0.117571
H	-1.8289939709	 1.7439086769	 1.5413367324	 0.131452
H	-2.4142248003	 3.4136992632	 1.0498454008	 0.121139
H	-2.9798632709	 2.4353517947	-1.2780426967	 0.118752
H	-2.3427618188	 0.8064982988	-0.693282674	 0.147723
32.715	44.7015	77.8484	140.8524	233.617	288.1938	366.3508	389.3334	490.5426	517.6336	632.3171	763.7303	786.3977	810.3751	836.7008	843.3584	867.0775	894.0443	948.8951	1019.7622	1033.2116	1046.4929	1063.7076	1078.3122	1112.7213	1127.0976	1138.0107	1181.766	1182.9996	1189.8656	1193.1629	1220.4822	1272.2175	1314.2043	1403.9734	1463.2192	1482.8999	1498.6941	1504.5817	1522.8745	1793.973	3109.5869	3119.827	3124.9555	3137.3656	3152.9391	3197.5071	3221.1353	3221.2709	3243.7699	3633.9877
O=C(NC1CC1)N1CC1	O=C(NC1CC1)N1CC1	
InChI=1S/C6H10N2O/c9-6(8-3-4-8)7-5-1-2-5/h5H,1-4H2,(H,7,9)	InChI=1S/C6H10N2O/c9-6(8-3-4-8)7-5-1-2-5/h5H,1-4H2,(H,7,9)
