19
gdb 82228	2.37271	2.05197	1.47986	0.7674	72.97	-0.2354	0.064	0.2994	944.2223	0.161841	-422.991602	-422.984475	-422.983531	-423.022757	29.625	
O	-0.0660277642	 1.4558131027	-0.0334184159	-0.432226
C	 0.0089683584	 0.0328858213	-0.0417913529	 0.078825
C	-1.3976437209	-0.553689763	 0.010475222	-0.019398
C	-2.4846593504	-0.1360796614	-0.9478641778	-0.297637
C	-1.7782938047	-1.4535310036	-1.1501052548	-0.034608
C	-0.6477513236	-1.6112847942	-2.1502989823	 0.075937
C	-0.0038983611	-0.2761503105	-2.5830617163	-0.25736
C	 0.7778863332	-0.4841366217	-1.2790230307	 0.059171
O	 0.573502081	-1.917409993	-1.3878108911	-0.298526
H	 0.8295845414	 1.8005373859	 0.0510612134	 0.281865
H	 0.5479340742	-0.3292882038	 0.8465034485	 0.071644
H	-1.7269451039	-0.8495909699	 1.0001272143	 0.089005
H	-3.5022819727	-0.1743095461	-0.5738705655	 0.110032
H	-2.3016797219	 0.6861512708	-1.6269841168	 0.127167
H	-2.3293631512	-2.3613909034	-0.9275105399	 0.087147
H	-0.8469064574	-2.3697810625	-2.9102303776	 0.076378
H	 0.6343652673	-0.4166651563	-3.4567199043	 0.106908
H	-0.6093291546	 0.6209093481	-2.7013708784	 0.11258
H	 1.8387120812	-0.212778349	-1.238813384	 0.063095
140.3515	208.0797	291.799	343.3917	386.7292	424.9553	466.9111	496.5192	616.6801	657.3575	735.4195	797.7756	835.0587	875.8691	877.3266	914.2811	931.374	968.6325	983.4452	989.1425	1026.1923	1063.3773	1078.9229	1086.0985	1094.6913	1125.5144	1134.7947	1141.7186	1209.3748	1222.651	1248.8211	1262.0022	1300.3384	1316.74	1348.6054	1363.1799	1371.6063	1411.0254	1434.8339	1485.1483	1509.7692	2985.4184	3045.54	3083.9735	3094.7186	3142.0988	3152.5522	3156.8306	3167.7628	3231.2204	3803.31
OC1C2CC2C2CC1O2	O[C@H]1[C@H]2C[C@H]2[C@H]2C[C@@H]1O2	
InChI=1S/C7H10O2/c8-7-4-1-3(4)5-2-6(7)9-5/h3-8H,1-2H2	InChI=1S/C7H10O2/c8-7-4-1-3(4)5-2-6(7)9-5/h3-8H,1-2H2/t3-,4+,5-,6+,7+/m1/s1
