22
gdb 85977	2.88211	1.23152	1.07148	2.0606	81.7	-0.2391	0.0781	0.3172	1251.8501	0.193516	-404.318618	-404.309191	-404.308247	-404.352747	35.821	
C	-0.2910801726	 1.1301875716	 1.0748567084	-0.400415
C	 0.4147481251	-0.1062164416	 0.5549401536	 0.162724
C	 0.6044294756	-0.2603315319	-0.9677220671	-0.352025
C	 2.1250632911	-0.2299922578	-0.6560400753	 0.392907
C	 2.9037836019	 0.9465379247	-1.2268322397	-0.433633
O	 1.8533302072	-0.0509414359	 0.7643971837	-0.344282
C	 2.8520523137	-1.5393433599	-0.9041831087	-0.031645
C	 3.9154414452	-1.9894573316	 0.022573096	-0.243605
N	 2.6191541766	-2.697611515	-0.0337391104	-0.334722
H	 0.0915718923	 2.034544711	 0.591821841	 0.119737
H	-1.3676607917	 1.0619211947	 0.8828386361	 0.1178
H	-0.1424615624	 1.2297091498	 2.1547303298	 0.128009
H	-0.0018716881	-1.0020736693	 1.0350289221	 0.075631
H	 0.2369853728	-1.1929560393	-1.3980903419	 0.117414
H	 0.2429682354	 0.5830145135	-1.5604953418	 0.103553
H	 2.3652330386	 1.8848781683	-1.0679758639	 0.115993
H	 3.8832956496	 1.0229440265	-0.7455356921	 0.128227
H	 3.0603970192	 0.8162383264	-2.3034875183	 0.117702
H	 2.9389810904	-1.7923293428	-1.9601944074	 0.087364
H	 4.7672853146	-2.5501383727	-0.3509768644	 0.113655
H	 4.1110676994	-1.3703974526	 0.8935943656	 0.123232
H	 2.0730946764	-2.3784560261	 0.7655234645	 0.236379
70.6362	96.8612	173.9618	212.2787	219.3825	232.0063	290.8765	357.9076	361.5258	418.9886	476.1115	550.0594	630.8451	768.1488	836.0138	865.6175	882.9429	900.4898	910.0804	926.7953	942.8212	984.4683	995.8848	1023.0799	1061.4221	1102.6411	1111.8883	1138.8659	1159.1353	1191.6265	1194.3218	1228.399	1254.985	1269.9877	1287.2845	1305.7228	1322.5822	1390.4801	1402.462	1409.8222	1413.6471	1479.5199	1484.3153	1488.0352	1490.0671	1497.6642	1503.001	3004.5581	3033.3237	3034.5601	3072.2315	3104.8562	3105.6444	3111.961	3113.0343	3116.1634	3117.8213	3132.0021	3201.989	3479.8872
CC1CC(C)(O1)C1CN1	C[C@H]1C[C@@](C)(O1)[C@H]1CN1	
InChI=1S/C7H13NO/c1-5-3-7(2,9-5)6-4-8-6/h5-6,8H,3-4H2,1-2H3	InChI=1S/C7H13NO/c1-5-3-7(2,9-5)6-4-8-6/h5-6,8H,3-4H2,1-2H3/t5-,6+,7+/m0/s1
