17
gdb 12247	3.26624	1.55102	1.18035	3.1265	64.54	-0.2453	0.0045	0.2498	1039.4635	0.142167	-401.024537	-401.016082	-401.015138	-401.057731	30.236	
C	 0.1875467989	 1.5343385905	 0.0438098346	-0.388529
C	 0.1086483979	 0.0048148138	 0.0307938734	-0.18362
C	 0.4617824115	-0.5845286937	-1.3194504828	 0.139548
O	 1.8816224928	-0.3752619008	-1.6617244074	-0.256694
C	 2.153038348	-1.7202711966	-1.6362063044	 0.415892
O	 3.2122405416	-2.2535893728	-1.7308674913	-0.32701
C	 0.6764151372	-2.1198982273	-1.4179167347	-0.184373
N	 0.2686643404	-2.9623342995	-0.3198825821	-0.512661
H	 1.1935737573	 1.8717917715	-0.2210250631	 0.139831
H	-0.513781218	 1.9727198728	-0.6744711381	 0.117764
H	-0.0560376158	 1.9303973625	 1.0336564175	 0.118087
H	 0.781786928	-0.407604636	 0.7923370032	 0.097877
H	-0.9005843405	-0.336421925	 0.289346784	 0.119815
H	-0.159414667	-0.1583879133	-2.113226344	 0.092893
H	 0.2564068232	-2.5199397092	-2.3450977769	 0.120752
H	 0.3328033736	-3.939615748	-0.5813301021	 0.247492
H	 0.8700101009	-2.8359148489	 0.4873312542	 0.242936
83.4021	105.2085	164.7999	192.9311	229.1404	241.6831	300.5851	426.8864	463.7143	573.0523	697.6751	744.7072	792.5683	813.4171	840.3911	892.7495	933.4732	985.4114	1057.2251	1085.1347	1114.8734	1131.3833	1197.8425	1208.6713	1236.187	1277.1123	1307.7568	1348.5731	1409.5522	1414.9918	1428.4947	1472.2131	1498.6102	1508.1849	1669.3883	1927.8256	3032.0562	3039.0971	3060.3123	3074.6654	3083.0081	3107.8395	3120.9147	3516.042	3594.2374
CCC1OC(=O)C1N	CC[C@H]1OC(=O)[C@H]1N	
InChI=1S/C5H9NO2/c1-2-3-4(6)5(7)8-3/h3-4H,2,6H2,1H3	InChI=1S/C5H9NO2/c1-2-3-4(6)5(7)8-3/h3-4H,2,6H2,1H3/t3-,4+/m1/s1
