18
gdb 98335	3.19018	0.93046	0.84221	4.6205	74.62	-0.2534	0.0201	0.2735	1421.2385	0.146552	-435.308523	-435.298017	-435.297073	-435.345274	35.335	
C	 0.038926455	 1.4543538828	 0.1544033863	-0.318119
N	-0.0276546833	 0.0015246938	 0.1603232206	-0.373234
C	-1.2585551231	-0.6084465361	 0.1224353592	 0.518758
O	-2.3055457945	 0.0159551901	 0.1978968404	-0.41792
N	-1.2328334082	-1.9989842224	 0.0474070015	-0.130025
C	-0.0161972408	-2.7905610204	 0.0153173763	-0.361458
C	-2.4918121651	-2.6637783376	-0.2139647394	-0.305891
C	-2.5662033646	-3.2293416211	-1.5733983163	 0.260236
N	-2.5917724107	-3.6841343856	-2.6353389794	-0.3089
H	-0.1347535042	 1.8821625479	-0.8411223165	 0.129571
H	-0.7276330335	 1.8417076563	 0.8254610717	 0.163755
H	 1.0232555694	 1.7681740339	 0.5102524655	 0.121954
H	 0.7576163393	-0.4854521687	-0.2374772158	 0.247937
H	 0.7167645862	-2.3827949803	 0.7159785575	 0.143956
H	-0.2447315363	-3.8099096307	 0.3386818761	 0.143204
H	 0.4328660917	-2.8539043337	-0.9862292218	 0.139322
H	-2.6605587343	-3.475348426	 0.5050664351	 0.147578
H	-3.280097433	-1.9183722921	-0.083094281	 0.199274
41.4141	75.0856	85.1121	114.5893	145.1134	165.7387	243.0997	255.1399	330.0726	363.9941	387.0906	442.3146	481.9243	584.2213	668.2573	764.3679	847.159	907.8834	960.7939	1034.8232	1101.4013	1146.2201	1151.4144	1172.5306	1202.394	1254.8622	1306.7571	1367.243	1385.2369	1445.9233	1458.1138	1469.0576	1485.265	1499.2656	1507.344	1521.4594	1553.7005	1764.3166	2357.0048	3002.2644	3024.6313	3030.4719	3082.5128	3100.9756	3114.1967	3118.7145	3157.3604	3649.9674
CNC(=O)N(C)CC#N	CNC(=O)N(C)CC#N	
InChI=1S/C5H9N3O/c1-7-5(9)8(2)4-3-6/h4H2,1-2H3,(H,7,9)	InChI=1S/C5H9N3O/c1-7-5(9)8(2)4-3-6/h4H2,1-2H3,(H,7,9)
