15
gdb 131731	4.80938	1.02083	0.84653	4.7646	72.46	-0.2331	-0.0586	0.1745	1277.3215	0.113715	-453.972705	-453.964693	-453.963749	-454.006081	29.119	
O	 0.03305704	 1.448317247	 0.0104711664	-0.394317
C	 0.0143024669	 0.044107707	 0.0011134822	-0.155034
C	-1.4076078431	-0.46567272	 0.0120757767	 0.305724
N	-2.3859254651	 0.3919824125	 0.0214891638	-0.223028
N	-3.6277034936	-0.1119785976	 0.0305069859	-0.266595
C	-4.0396388378	-1.4494993035	 0.0306938633	 0.422609
O	-5.2224887495	-1.7422936906	 0.0407072824	-0.392329
C	-2.9063079745	-2.363945515	 0.0205780067	-0.20235
C	-1.6419756474	-1.8811823936	 0.0115108666	-0.119423
H	 0.9520626551	 1.7307930878	-0.0020983717	 0.294037
H	 0.5192016861	-0.3695824457	-0.890183524	 0.105592
H	 0.5369888449	-0.3816770592	 0.8763265644	 0.105413
H	-4.3661006497	 0.579855683	 0.0381548807	 0.274934
H	-3.1327359389	-3.4233174898	 0.0207537936	 0.130924
H	-0.7897998435	-2.5558410924	 0.0038207529	 0.113842
42.9552	112.4586	192.6867	224.7499	295.4748	381.6594	388.1758	462.3305	517.6417	559.6141	626.2796	738.9126	754.1247	785.0445	828.3271	864.1185	1000.4364	1013.4786	1038.8945	1109.1315	1142.6262	1221.3345	1222.3565	1242.5969	1255.0924	1296.1573	1427.2626	1446.0146	1473.9866	1513.6461	1582.786	1663.9279	1789.6122	2940.2245	2954.4786	3163.345	3215.6851	3590.6463	3836.9968
OCC1=NNC(=O)C=C1	OCc1n[nH]c(=O)cc1	
InChI=1S/C5H6N2O2/c8-3-4-1-2-5(9)7-6-4/h1-2,8H,3H2,(H,7,9)	InChI=1S/C5H6N2O2/c8-3-4-1-2-5(9)7-6-4/h1-2,8H,3H2,(H,7,9)
