17
gdb 130073	5.49711	1.00805	0.91501	1.2296	77.66	-0.2052	0.0075	0.2127	1281.4671	0.138371	-414.175369	-414.167376	-414.166432	-414.208958	30.002	
N	-0.1073144363	 1.3377274196	-0.0769356638	-0.593464
C	 0.0200909339	-0.0458930545	 0.003605859	 0.321931
N	-1.0394439875	-0.8577980868	-0.0571281582	-0.313622
N	-0.5118342461	-2.0739496661	 0.1331940224	 0.122308
N	 0.7955756335	-2.1100649242	 0.3006882515	-0.230901
C	 1.1675271	-0.8276236585	 0.2264666031	-0.117703
C	-1.3409234032	-3.2452970807	 0.1484137065	 0.103325
C	-0.8204312656	-4.5369226552	-0.4178619408	-0.278699
C	-1.0100869668	-4.3834106153	 1.073225175	-0.278166
H	 0.6532830975	 1.7836971053	-0.5709951966	 0.249697
H	-0.9971148882	 1.6121602637	-0.472314972	 0.254474
H	 2.1998366312	-0.536366489	 0.3342382015	 0.113833
H	-2.3721693122	-2.9634603237	-0.011413524	 0.122601
H	-1.5101011933	-5.1578963219	-0.9783719113	 0.119732
H	 0.1982591869	-4.5229906546	-0.7864528319	 0.141824
H	-0.1146588643	-4.2696166746	 1.6723801044	 0.14264
H	-1.8328494192	-4.8965377635	 1.5581380651	 0.120191
23.7406	138.7636	183.0902	234.5561	315.9125	330.5106	421.8217	475.6014	635.7254	673.0581	679.493	732.6884	768.1147	782.0341	813.5061	827.2216	916.2576	946.9631	1012.7621	1046.5402	1067.0257	1083.4821	1096.8508	1122.6727	1123.2168	1200.786	1215.9706	1225.9365	1287.7783	1365.8843	1420.2255	1443.0216	1451.8401	1488.3543	1504.159	1585.4223	1650.3236	3142.3969	3144.239	3220.0123	3231.1886	3244.9787	3268.8241	3549.8511	3644.9481
NC1=NN(N=C1)C1CC1	Nc1nn(nc1)C1CC1	
InChI=1S/C5H8N4/c6-5-3-7-9(8-5)4-1-2-4/h3-4H,1-2H2,(H2,6,8)	InChI=1S/C5H8N4/c6-5-3-7-9(8-5)4-1-2-4/h3-4H,1-2H2,(H2,6,8)
