20
gdb 102918	2.26869	0.92702	0.71191	3.8424	83.36	-0.2431	0.024	0.2671	1613.2955	0.168594	-403.143615	-403.13309	-403.132146	-403.180419	36.958	
C	 0.1559937823	 1.5613450303	 0.0981522916	-0.37204
C	-0.0391342395	 0.0512501237	-0.0673414941	-0.172035
N	 0.6359900775	-0.5044234346	-1.2327056716	-0.022355
C	 2.0785397392	-0.708579676	-1.2072177184	-0.175819
C	 2.4565605363	-2.1592251129	-0.8255630056	-0.349826
C	 3.8982948144	-2.3381951895	-0.7311456704	 0.294001
C	 5.0933997435	-2.4439425549	-0.6584069915	-0.437571
C	-0.0551751725	-0.8834284081	-2.3435673125	 0.140476
O	 0.4415743925	-1.3773082285	-3.3357336507	-0.346945
H	 1.213108788	 1.822347087	 0.20574447	 0.129471
H	-0.2388978756	 2.0993302045	-0.7686528474	 0.129672
H	-0.3672708781	 1.9139309644	 0.9924923332	 0.122938
H	 0.3093312798	-0.4748372281	 0.8304521015	 0.114733
H	-1.1062001465	-0.1746880936	-0.164135941	 0.121126
H	 2.4760267308	-0.4893955577	-2.2003096036	 0.149826
H	 2.52298821	-0.0080515642	-0.4963312968	 0.117215
H	 1.9842929604	-2.4227011358	 0.1293732934	 0.125843
H	 2.0390363952	-2.8284450346	-1.5854996311	 0.161212
H	 6.1472748771	-2.5573831675	-0.5973060646	 0.196655
H	-1.1419139751	-0.6887438338	-2.2457084404	 0.073421
47.2101	68.2331	75.8376	98.3928	167.2032	218.1706	248.2611	308.404	333.5147	357.2688	410.6206	479.6765	511.744	621.6777	644.0972	647.5438	760.0338	792.1979	885.8884	967.2605	975.1424	1019.2391	1033.2719	1054.2901	1098.2477	1121.2907	1179.8856	1273.0545	1288.8992	1304.0169	1340.8604	1387.9587	1404.7645	1411.5045	1429.8113	1453.5028	1469.8502	1479.251	1491.345	1491.8888	1506.1886	1786.4763	2239.5742	2931.5227	3025.4905	3028.5141	3041.1397	3070.9612	3074.2099	3078.2303	3113.7809	3119.6711	3129.7895	3507.2382
CCN(CCC#C)C=O	CCN(CCC#C)C=O	
InChI=1S/C7H11NO/c1-3-5-6-8(4-2)7-9/h1,7H,4-6H2,2H3	InChI=1S/C7H11NO/c1-3-5-6-8(4-2)7-9/h1,7H,4-6H2,2H3
