16
gdb 66765	2.56198	2.32302	1.85349	2.0442	70.93	-0.223	-0.0023	0.2207	809.7478	0.126016	-400.680377	-400.674139	-400.673195	-400.710465	26.628	
O	-0.0806895065	 1.4137128938	-0.0197298127	-0.480237
C	-0.0065490933	 0.0413268502	 0.0048571977	 0.378241
C	-1.231579042	-0.9059254441	 0.1488684542	-0.119469
C	-0.4797959558	-1.8751136116	-0.6694891505	-0.038777
C	 0.5484184572	-0.821564781	-1.1992376698	-0.163759
C	 1.9644728613	-1.1502108099	-0.845641532	-0.099985
C	 2.0801448383	-1.1417493305	 0.4942020286	-0.09016
C	 0.748493292	-0.8015294901	 1.0729965458	-0.087694
N	-0.3367745794	-1.8935453395	 0.8141214808	-0.15057
H	 0.8117110467	 1.7642519164	-0.1312182527	 0.288684
H	-2.2744640296	-0.7619450384	 0.3925879378	 0.103279
H	-0.7920567234	-2.7915047441	-1.1528849277	 0.100985
H	 0.3211313367	-0.4500709759	-2.1981597172	 0.076693
H	 2.7355368418	-1.4193520619	-1.5576489668	 0.102812
H	 2.9583878484	-1.4060291072	 1.069928162	 0.102078
H	 0.6850907577	-0.4912432562	 2.1149076225	 0.077879
242.5424	255.4855	356.8499	406.8844	410.3542	560.9548	618.2601	703.261	723.9432	739.2112	788.9422	813.9088	825.9568	860.598	871.2208	915.4443	951.7518	966.9852	975.66	989.5912	1006.863	1015.5395	1073.3986	1120.4838	1142.0219	1154.9789	1181.4511	1202.2187	1242.8395	1287.1195	1323.798	1325.8513	1370.8427	1400.1534	1618.5772	3123.0284	3130.3061	3194.4902	3197.245	3219.1501	3222.3331	3783.9385
OC12C3C4C1C=CC2N34	O[C@@]12[C@H]3[C@H]4[C@@H]1C=C[C@@H]2N34	
InChI=1S/C7H7NO/c9-7-3-1-2-4(7)8-5(3)6(7)8/h1-6,9H	InChI=1S/C7H7NO/c9-7-3-1-2-4(7)8-5(3)6(7)8/h1-6,9H/t3-,4-,5+,6+,7-,8?/m0/s1
