18
gdb 123862	3.48727	1.55757	1.12557	5.3563	77.08	-0.241	0.0088	0.2498	1061.1125	0.152562	-398.15611	-398.149216	-398.148272	-398.187488	27.214	
C	-0.0261754277	 1.5300848715	-0.0499476634	-0.219016
C	 1.3916731981	 2.1189217608	-0.0064164004	-0.207852
C	 2.0793726473	 1.7821273464	 1.3295206895	-0.319485
C	 1.8813663897	 0.3413992975	 1.6899952555	 0.339102
C	 2.4652259969	-0.5331088468	 2.5812849797	-0.182351
N	 1.8332388185	-1.7347080745	 2.5033504933	-0.194349
N	 0.885919372	-1.6598006572	 1.6094257753	-0.164789
N	 0.9036209092	-0.4050919363	 1.1151879251	 0.003216
C	 0.0161918696	 0.0017285612	 0.0345922071	-0.1425
H	-0.6164816786	 1.9286252243	 0.7844159542	 0.115513
H	-0.5398550772	 1.8166341879	-0.9724305079	 0.113075
H	 1.9794045687	 1.7105433354	-0.8382335856	 0.11119
H	 1.3596043823	 3.2039033833	-0.1425602251	 0.107305
H	 3.1480949624	 2.0146657538	 1.287055938	 0.125133
H	 1.6596094903	 2.4155799768	 2.1227968759	 0.126552
H	 3.2839393424	-0.3657158632	 3.2628152563	 0.117479
H	-0.9688945904	-0.4295963585	 0.2263050095	 0.140626
H	 0.3885767164	-0.4231906224	-0.9053894869	 0.13115
104.4244	186.9529	283.0116	315.3752	374.3824	445.6658	497.8263	654.2891	683.598	712.0816	718.9499	825.9991	842.321	867.1426	932.9328	953.2376	976.5705	1003.1238	1069.7484	1114.9982	1132.8007	1153.1869	1181.1068	1199.9058	1241.3842	1270.4789	1287.4438	1304.275	1321.8062	1362.3521	1370.1582	1384.3254	1393.7105	1469.229	1489.9636	1491.4893	1497.9972	1520.4863	1583.336	3015.9669	3030.3391	3034.6613	3040.7743	3075.3995	3087.5151	3091.3381	3108.2661	3264.752
C1CCC2=CN=NN2C1	C1CCc2cnnn2C1	
InChI=1S/C6H9N3/c1-2-4-9-6(3-1)5-7-8-9/h5H,1-4H2	InChI=1S/C6H9N3/c1-2-4-9-6(3-1)5-7-8-9/h5H,1-4H2
