19
gdb 63394	3.18769	1.14975	0.98376	3.1684	72.68	-0.2628	-0.0301	0.2327	1238.6967	0.156135	-460.167655	-460.158336	-460.157392	-460.201205	35.875	
C	-0.8225546689	 1.3203111055	-0.1444851112	-0.452133
C	 0.114678474	 0.1385523776	 0.0370469458	 0.396971
O	-0.6041035566	-1.095528352	 0.0124393715	-0.475209
C	 1.3934209565	 0.0700577254	-0.8494074481	-0.33548
C	 2.2168831052	-0.3922933318	 0.4013039427	 0.336296
O	 3.4426791467	 0.2344321097	 0.6023072045	-0.484512
C	 1.0238901664	 0.0990505499	 1.2895501461	-0.304338
C	 2.3890824895	-1.8931943315	 0.4525589074	 0.103396
O	 3.4738703039	-2.3955599093	 0.6384645021	-0.287875
H	-0.2824108363	 2.2689225351	-0.0736334567	 0.12143
H	-1.3068595074	 1.286278901	-1.1286891898	 0.109296
H	-1.6059127857	 1.3053216143	 0.619655795	 0.129706
H	-1.0382869897	-1.1670518353	-0.8450819949	 0.277684
H	 1.355870726	-0.5890940125	-1.7217449181	 0.098427
H	 1.751806932	 1.0565002959	-1.1525751818	 0.120376
H	 4.0867959009	-0.4837787406	 0.7194448666	 0.289387
H	 1.2592137183	 1.0957839723	 1.6673169603	 0.120791
H	 0.6819439164	-0.5391542764	 2.107269766	 0.115431
H	 1.4721989987	-2.4928394172	 0.3116595925	 0.120356
101.2541	102.7128	233.7995	242.5961	272.9258	295.818	322.8219	352.1025	366.6599	409.7892	428.4444	457.7526	517.565	533.2772	675.802	804.9689	836.8212	842.9521	908.4114	933.8386	936.7428	937.4978	981.58	1069.1682	1087.2896	1094.788	1134.6741	1191.6135	1222.1321	1261.799	1269.3903	1314.1381	1372.5593	1382.6189	1409.7797	1442.7298	1452.1758	1478.3299	1490.0842	1492.7353	1799.9723	2989.3046	3023.7061	3055.498	3073.2708	3091.2453	3115.2813	3123.2888	3138.7304	3665.5222	3797.3088
CC1(O)CC(O)(C1)C=O	C[C@@]1(O)C[C@@](O)(C1)C=O	
InChI=1S/C6H10O3/c1-5(8)2-6(9,3-5)4-7/h4,8-9H,2-3H2,1H3	InChI=1S/C6H10O3/c1-5(8)2-6(9,3-5)4-7/h4,8-9H,2-3H2,1H3/t5-,6-
