15
gdb 20152	4.23536	2.39389	2.06622	1.8281	61.45	-0.2313	0.0666	0.2979	686.5635	0.120987	-362.592992	-362.58731	-362.586366	-362.622453	23.561	
O	 0.0588161895	 1.4205793302	 0.0182805367	-0.433733
C	 0.0328627395	 0.0067267026	 0.0188260245	 0.132895
C	-1.3400689782	-0.6223924153	-0.1341468683	-0.123443
C	-1.6774874509	-0.7976766811	-1.6153155931	-0.125445
C	-1.197425166	-1.9598177348	-0.7937198784	-0.019924
N	 0.1606575887	-1.98048803	-1.4874332572	-0.162213
C	-0.2953897573	-0.8012448577	-2.2928790022	-0.056143
C	 0.6943037576	-0.6226089698	-1.1951589835	-0.095631
H	-0.3820012431	 1.7136678197	-0.7879331046	 0.282508
H	 0.5184064811	-0.2973031047	 0.9513824262	 0.101007
H	-2.1342951212	-0.4461157437	 0.5795592901	 0.099471
H	-2.6397195928	-0.5976371204	-2.063320612	 0.098154
H	-1.663450811	-2.8880025428	-0.4931112662	 0.10272
H	-0.0875147874	-0.7229445457	-3.3532983282	 0.098919
H	 1.7500088414	-0.4827282564	-1.3968905738	 0.100858
185.9632	280.3199	358.8628	537.8137	581.6906	694.6191	742.1385	756.1895	774.7925	787.9961	844.221	851.8631	906.0857	931.0437	968.1946	983.0627	1003.7007	1026.943	1044.4931	1057.7736	1061.5312	1076.0229	1111.5463	1166.8957	1231.5791	1249.7776	1271.3163	1276.6131	1303.1677	1355.938	1377.7675	1431.2965	3074.3492	3178.6191	3191.0983	3203.4961	3209.6495	3226.0615	3792.4677
OC1C2C3C2N2C3C12	O[C@H]1[C@H]2[C@@H]3[C@H]2N2[C@@H]3[C@@H]12	
InChI=1S/C6H7NO/c8-6-2-1-3(2)7-4(1)5(6)7/h1-6,8H	InChI=1S/C6H7NO/c8-6-2-1-3(2)7-4(1)5(6)7/h1-6,8H/t1-,2+,3-,4+,5+,6+,7?/m1/s1
