16
gdb 26777	3.60139	1.12802	0.866	3.6911	86.7	-0.193	-0.0061	0.1869	1294.1648	0.124058	-396.941094	-396.931961	-396.931016	-396.974942	33.394	
C	-0.0930919938	 1.5266930472	 0.0449115509	-0.50765
C	-0.0434233474	 0.0337225529	-0.0050704424	 0.230276
C	 0.0379877357	-0.7812774246	-1.1184480174	 0.218768
N	 0.0446316826	-0.5402507509	-2.5008670625	-0.621652
N	 0.0460429455	-2.0656864926	-0.6355775251	-0.325757
C	-0.0249393836	-1.9918752911	 0.7366082345	 0.168401
N	-0.0875061945	-0.7322330317	 1.1327080286	-0.351245
C	-0.0136093845	-3.1459944967	 1.5490201451	 0.263371
C	-0.007001067	-4.1513630532	 2.2125802308	-0.415112
H	 0.2290915994	 1.968323468	-0.9041575594	 0.10206
H	-1.1025094694	 1.8972302028	 0.2596959167	 0.133549
H	 0.5645046601	 1.9041914583	 0.8333405269	 0.14182
H	-0.2224730211	 0.4144761548	-2.7043200773	 0.252592
H	 0.9492768727	-0.7138727558	-2.9295172198	 0.248945
H	 0.0371627273	-2.9047264644	-1.1915981618	 0.269381
H	-0.0006802921	-5.027106253	 2.8127567623	 0.192253
82.6965	123.5976	139.3263	156.8381	234.0611	263.1179	311.2157	399.0961	465.9101	520.2894	540.4545	546.6428	588.1096	646.7973	681.0581	682.7521	726.2403	774.474	821.4254	999.3183	1035.3372	1061.4868	1120.5726	1208.2438	1234.8643	1309.1043	1403.63	1415.7085	1473.6161	1478.7437	1496.0884	1519.6026	1622.6086	1659.5287	2229.6661	3026.6646	3081.9224	3107.9848	3494.5875	3503.158	3605.7798	3663.0261
CC1=C(N)NC(=N1)C#C	Cc1c(N)[nH]c(n1)C#C	
InChI=1S/C6H7N3/c1-3-5-8-4(2)6(7)9-5/h1H,7H2,2H3,(H,8,9)	InChI=1S/C6H7N3/c1-3-5-8-4(2)6(7)9-5/h1H,7H2,2H3,(H,8,9)
