18
gdb 63994	3.49942	1.09656	1.02603	1.7773	81.52	-0.2438	-0.026	0.2177	1244.4401	0.14558	-401.943235	-401.934141	-401.933197	-401.977307	34.012	
C	-0.2271533043	 1.6020059133	-0.1263180892	-0.426841
C	 0.0366253118	 0.1028616321	-0.0288044052	 0.340282
C	-1.2431465832	-0.702384725	 0.171968973	-0.426795
C	 0.9280431867	-0.4402820398	-1.1882465663	-0.228636
N	 2.1677813533	-0.9063417165	-0.5615363874	-0.327319
C	 2.0325857126	-0.6852129689	 0.6868251758	 0.251855
O	 0.8857239133	-0.1195452302	 1.1453288802	-0.280918
C	 3.0075646088	-0.9862968719	 1.6825951518	 0.261685
C	 3.8220852294	-1.2358082925	 2.5294569228	-0.353995
H	 0.7130341759	 2.1516303661	-0.2276026747	 0.128224
H	-0.8484506726	 1.8196475478	-1.0012281291	 0.121009
H	-0.7467052438	 1.9660927256	 0.7646093712	 0.127834
H	-1.9059865118	-0.5787026123	-0.6906968946	 0.121001
H	-1.0144695887	-1.7665558864	 0.2794280272	 0.128223
H	-1.7769516843	-0.3709193881	 1.0671937433	 0.127833
H	 0.4493920673	-1.2687205032	-1.7234367472	 0.115749
H	 1.1564406252	 0.3335892934	-1.9304166951	 0.115743
H	 4.5480341544	-1.4599096436	 3.2719814936	 0.205067
38.0457	141.5343	147.2876	221.0871	260.7366	301.4752	320.9781	374.113	384.7494	468.4743	542.8521	561.194	643.0126	651.838	668.4024	722.7898	820.7808	883.425	926.0637	949.9652	963.6956	993.0125	1029.686	1032.8307	1169.3393	1171.2374	1250.2691	1272.8245	1287.9226	1355.1742	1401.4247	1417.6972	1476.3197	1483.9376	1494.022	1496.3751	1508.0692	1686.0499	2251.7835	3028.001	3036.5376	3041.8412	3059.5609	3109.7635	3114.6986	3118.2503	3121.3073	3501.6509
CC1(C)CN=C(O1)C#C	CC1(C)CN=C(O1)C#C	
InChI=1S/C7H9NO/c1-4-6-8-5-7(2,3)9-6/h1H,5H2,2-3H3	InChI=1S/C7H9NO/c1-4-6-8-5-7(2,3)9-6/h1H,5H2,2-3H3
