25
gdb 102567	1.75078	1.16652	0.86133	1.3447	89.47	-0.2559	0.0772	0.333	1526.7394	0.227318	-389.474326	-389.463111	-389.462167	-389.511633	40.907	
C	-1.4955820691	-0.5201022041	 2.2859112953	-0.393645
C	-1.1094188962	-1.7676219443	 1.4804797416	-0.191412
C	 0.0487641123	-1.5619376566	 0.4841737715	 0.020806
C	 1.3585235164	-1.284694691	 1.2321782492	-0.093369
O	 2.3545368854	-0.9317459848	 0.2798523564	-0.420396
C	 0.279456363	-2.7272454149	-0.4907563202	-0.004847
C	-0.5863475524	-3.9665097516	-0.5823025001	-0.314792
C	-0.554807018	-2.9838530933	-1.7272394601	 0.010929
C	-1.7638337961	-2.1476681026	-2.0858863301	-0.413135
H	-0.6999368056	-0.1934057705	 2.9618380138	 0.117767
H	-1.7304887672	 0.3195621545	 1.6220564297	 0.116868
H	-2.3812772101	-0.715352708	 2.8987778657	 0.111155
H	-0.8567453565	-2.590187953	 2.1628247309	 0.095423
H	-1.9958321	-2.1024894801	 0.9334273693	 0.101359
H	-0.1644789356	-0.6559262459	-0.1015603222	 0.079872
H	 1.2188021802	-0.4711976989	 1.9574283385	 0.083781
H	 1.6504242314	-2.1870227234	 1.7953202725	 0.083812
H	 3.1894460576	-0.8274040563	 0.7447395141	 0.285535
H	 1.3379860174	-2.9054737789	-0.6484361648	 0.094362
H	-0.0990854977	-4.929130189	-0.6989887103	 0.1012
H	-1.4942050833	-4.0091021267	 0.0100596741	 0.104758
H	 0.0169227147	-3.2998647738	-2.5968182012	 0.077028
H	-2.3472259951	-1.8617594964	-1.206186352	 0.116629
H	-1.4696128725	-1.2243439692	-2.5982944778	 0.116901
H	-2.433911373	-2.6977200108	-2.7562266239	 0.113407
22.3137	70.9088	121.3605	160.4364	169.5767	202.2914	223.9869	242.8621	262.6219	307.2542	342.7927	374.7674	476.3344	505.0648	539.0154	744.0882	768.9124	797.7044	855.5808	883.9041	913.8373	949.7497	967.4952	1005.5369	1031.0542	1058.983	1070.2308	1083.1557	1113.4279	1125.9226	1129.8787	1156.9029	1177.7793	1200.2708	1244.1505	1256.0379	1268.5194	1294.7886	1329.1619	1341.5502	1383.1235	1395.9186	1411.7893	1419.7576	1424.8547	1454.2853	1486.7283	1491.9949	1494.6518	1500.9298	1505.7822	1511.2128	1519.475	2961.3978	2997.3564	3016.9563	3026.1488	3028.3129	3035.1175	3070.7037	3082.5524	3098.3568	3104.2723	3109.5901	3127.4495	3129.8022	3159.4727	3208.7842	3833.9647
CCC(CO)C1CC1C	CC[C@@H](CO)[C@H]1C[C@H]1C	
InChI=1S/C8H16O/c1-3-7(5-9)8-4-6(8)2/h6-9H,3-5H2,1-2H3	InChI=1S/C8H16O/c1-3-7(5-9)8-4-6(8)2/h6-9H,3-5H2,1-2H3/t6-,7+,8+/m1/s1
