19
gdb 63194	3.27005	1.55816	1.46957	3.4101	81.02	-0.221	-0.0498	0.1713	988.8593	0.15802	-381.938988	-381.931118	-381.930174	-381.970638	32.11	
C	 0.0107111702	 1.5355495488	-0.0660018039	-0.401452
C	-0.0145820807	 0.0074715229	 0.0019129316	 0.270024
C	-1.4451301445	-0.53507548	-0.0488133964	-0.419171
N	 0.877713142	-0.4611991922	-1.1216939204	-0.185249
C	 1.5905003238	-1.3790345179	-0.6088373086	 0.116671
N	 2.9876472294	-1.0258544914	-0.2818354028	-0.343258
C	 2.3109519059	-0.9730556492	 1.1291661435	-0.040297
C	 1.2229776762	-1.9196551204	 0.8182425617	-0.176201
C	 0.7735673908	-0.5610214127	 1.2195282244	-0.066673
H	 1.0404632523	 1.8977995676	-0.1016436471	 0.133631
H	-0.5098088428	 1.8932047454	-0.9587006483	 0.122371
H	-0.4824535287	 1.9559827925	 0.8183540282	 0.10437
H	-1.9165708499	-0.2430106585	-0.991803939	 0.128877
H	-1.4549298874	-1.6268256077	 0.0154332026	 0.117785
H	-2.0507607755	-0.1367195489	 0.7724689436	 0.112596
H	 3.5572514864	-1.8759372841	-0.1969649595	 0.222429
H	 2.9617642731	-0.9025231767	 1.9955170782	 0.111912
H	 0.9728949535	-2.9133149189	 1.1649039641	 0.103572
H	 0.4367433859	-0.3539305385	 2.2339313283	 0.088064
136.8316	212.1079	227.146	248.0416	316.8634	355.5653	418.8337	469.5467	553.8371	580.4914	636.4542	683.405	759.4937	769.4536	785.3104	808.2881	857.4374	893.9432	939.3239	946.9209	956.7421	998.642	1020.8619	1045.1563	1060.5512	1113.9048	1144.4048	1179.9875	1187.2713	1201.7628	1212.9807	1247.5398	1292.2735	1351.0608	1391.9818	1411.0191	1473.0893	1481.3302	1493.0196	1503.0943	1615.3476	3030.8133	3036.2703	3102.5121	3107.7184	3116.3939	3130.8874	3133.424	3161.2147	3199.2683	3363.0694
CC1(C)N=C2NC3C2C13	CC1(C)[N][C]2N[C@@H]3[C@H]2[C@H]13	
InChI=1S/C7H10N2/c1-7(2)4-3-5(4)8-6(3)9-7/h3-5H,1-2H3,(H,8,9)	InChI=1S/C7H10N2/c1-7(2)4-3-5(4)8-6(3)9-7/h3-5H,1-2H3,(H,8,9)/t3-,4+,5-/m1/s1
