20
gdb 109622	2.00553	1.32491	1.02385	5.6834	81.37	-0.2317	0.0321	0.2638	1280.837	0.170451	-399.313692	-399.303453	-399.302508	-399.348712	37.221	
C	 0.5499058246	-0.5487527919	-1.5008626592	-0.325833
N	-0.1575142815	-1.7975488546	-1.218760838	-0.291245
C	-1.4704198291	-1.6040751628	-0.6838691859	-0.041185
C	-2.225455943	-2.7760767134	-0.1175569821	-0.087636
C	-1.6945734732	-4.1901653886	-0.1659107335	-0.428612
C	-1.60592276	-1.7416568205	 0.8425251584	 0.127829
N	-0.4067371719	-1.9974879429	 1.5910751895	-0.570279
C	-2.5347062034	-0.8447987139	 1.4916952478	 0.284386
N	-3.3051199309	-0.1441829193	 1.9964256753	-0.353512
H	 1.5243752815	-0.774776305	-1.9417879778	 0.124086
H	 0.0032424115	 0.1215401602	-2.184011286	 0.110364
H	 0.716699221	-0.0093986269	-0.563655773	 0.148117
H	-0.1959118438	-2.3818807742	-2.0463445385	 0.231838
H	-2.0726177321	-0.8091920493	-1.1292400696	 0.097405
H	-3.3039893923	-2.6974983078	-0.2201611522	 0.109514
H	-0.6128682024	-4.2248761372	-0.0251758614	 0.125874
H	-2.1616439856	-4.8040954227	 0.6112351686	 0.129484
H	-1.9221277202	-4.6557775307	-1.1310941216	 0.124554
H	-0.5257827728	-2.7728089486	 2.2343898305	 0.237633
H	 0.3351678338	-2.2286613601	 0.9359945786	 0.247217
83.1177	109.1102	142.883	161.9071	169.3448	201.2449	231.1136	293.2336	323.5205	340.5698	439.517	489.1265	560.6408	575.1772	586.4371	687.0293	741.0531	824.0967	858.1012	865.3224	981.7244	1020.2896	1033.6384	1053.7101	1120.2435	1139.4585	1141.684	1178.2509	1213.4129	1239.8921	1296.1343	1316.4987	1373.7795	1415.682	1432.9805	1460.21	1466.063	1492.4846	1493.5441	1504.3007	1517.7652	1643.3038	2346.4758	2974.0239	3038.6649	3071.5559	3077.5531	3093.73	3120.3433	3131.8241	3155.822	3488.1443	3529.1697	3574.415
CNC1C(C)C1(N)C#N	CN[C@H]1[C@@H](C)[C@]1(N)C#N	
InChI=1S/C6H11N3/c1-4-5(9-2)6(4,8)3-7/h4-5,9H,8H2,1-2H3	InChI=1S/C6H11N3/c1-4-5(9-2)6(4,8)3-7/h4-5,9H,8H2,1-2H3/t4-,5+,6-/m1/s1
