15
gdb 7897	3.50659	1.77214	1.23928	5.9515	63.02	-0.2343	-0.0616	0.1726	945.1061	0.119209	-399.859868	-399.852386	-399.851442	-399.892037	27.462	
C	-0.1638670612	 1.5660330262	 0.0141452157	-0.398211
C	 0.055812325	 0.0555894847	-0.0062460919	 0.044234
C	 0.8255615236	-0.4588882801	-1.2434675104	-0.348617
C	 1.8379882984	-1.4621598257	-0.7062805842	 0.312186
O	 2.5030146139	-2.2422271436	-1.3275909835	-0.277761
C	 1.8705696665	-1.3001432163	 0.8322402484	 0.305749
O	 2.6103905685	-1.8559684877	 1.6087683035	-0.351
N	 0.8894817337	-0.3923900207	 1.1101639763	-0.316524
H	 0.7918582801	 2.0968024157	-0.0398855213	 0.130676
H	-0.7811963735	 1.8705113876	-0.8366360653	 0.130469
H	-0.678693608	 1.8782909476	 0.9289668291	 0.122165
H	-0.9224555192	-0.4424883801	 0.0456065983	 0.098446
H	 0.1838862815	-0.9063831997	-2.0048533079	 0.144376
H	 1.3806942726	 0.357632315	-1.7209101957	 0.146311
H	 0.6699079682	-0.157597993	 2.0667867789	 0.257501
63.2479	113.7601	251.279	302.603	318.62	372.6748	437.3063	527.0999	571.7716	627.1236	637.3198	700.2704	734.5378	875.3329	915.3036	972.3923	1047.4686	1086.7025	1096.9874	1165.6867	1207.485	1259.9654	1281.9534	1335.7619	1387.6674	1411.4601	1429.9131	1452.2816	1492.6936	1497.7697	1840.8953	1867.7485	2998.8615	3034.3619	3048.5297	3105.2719	3116.0588	3119.8871	3620.6241
CC1CC(=O)C(=O)N1	C[C@H]1CC(=O)C(=O)N1	
InChI=1S/C5H7NO2/c1-3-2-4(7)5(8)6-3/h3H,2H2,1H3,(H,6,8)	InChI=1S/C5H7NO2/c1-3-2-4(7)5(8)6-3/h3H,2H2,1H3,(H,6,8)/t3-/m0/s1
