20
gdb 11042	4.03057	1.68222	1.42542	1.4852	74.89	-0.2466	0.093	0.3396	964.1023	0.177367	-349.011212	-349.003272	-349.002327	-349.042872	30.977	
C	 0.055197444	 1.5636369266	-0.042817852	-0.398024
C	 0.0497649988	 0.0465588527	 0.0605834483	 0.132069
O	 0.7294104284	-0.488455466	-1.0804529756	-0.269999
C	 1.1883157958	-1.7940192133	-0.7555444867	-0.136309
C	 1.5047339703	-1.77771931	 0.7351706564	 0.3296
C	 1.5932633939	-3.0914304831	 1.470066994	-0.488562
C	 2.2833196465	-0.5645204089	 1.1820752997	-0.332922
C	 0.774043792	-0.5610463235	 1.2537663143	-0.099118
H	 1.0772784673	 1.9508028931	-0.0059013209	 0.121087
H	-0.4021427237	 1.8822064044	-0.9838668603	 0.123671
H	-0.5140933342	 2.0030024057	 0.7822927267	 0.11171
H	-0.9951786331	-0.3118314765	 0.0707818302	 0.061623
H	 0.412468609	-2.5524272984	-0.9596974079	 0.083389
H	 2.0511945749	-2.0078978215	-1.3965237734	 0.102784
H	 2.4400323352	-3.6915265209	 1.1159464609	 0.119563
H	 1.7296674042	-2.9351887039	 2.5445515059	 0.117738
H	 0.6837499543	-3.6879254229	 1.331209739	 0.116173
H	 2.8228609397	-0.6409832522	 2.1200533741	 0.105219
H	 2.766322002	 0.0505892516	 0.4291721129	 0.118836
H	 0.2790255049	-0.5644752531	 2.2185607545	 0.081473
142.7313	204.4601	206.1056	233.0997	237.4371	342.7503	373.4482	386.2636	517.288	569.954	659.1093	732.7226	813.6518	861.9346	884.496	930.6203	946.8652	964.6685	1019.1926	1034.8159	1047.5815	1068.8793	1076.4952	1120.1774	1124.7481	1141.97	1163.0459	1241.6067	1269.4803	1299.9444	1346.9681	1352.9795	1384.8972	1409.9198	1412.5994	1424.882	1482.935	1486.9269	1489.2436	1496.2991	1502.7755	1515.834	2938.1677	2953.6854	3021.1632	3041.9631	3056.603	3077.8489	3099.6502	3114.4544	3120.546	3125.3624	3171.4207	3212.4149
CC1OCC2(C)CC12	C[C@H]1OC[C@@]2(C)C[C@@H]12	
InChI=1S/C7H12O/c1-5-6-3-7(6,2)4-8-5/h5-6H,3-4H2,1-2H3	InChI=1S/C7H12O/c1-5-6-3-7(6,2)4-8-5/h5-6H,3-4H2,1-2H3/t5-,6+,7-/m1/s1
