14
gdb 35023	2.83281	1.33908	1.09384	4.0499	72.59	-0.2618	-0.0166	0.2452	1082.2519	0.102224	-395.70185	-395.694188	-395.693243	-395.734281	28.173	
N	 0.024511097	-1.1338126437	 0.0091423796	-0.330398
C	 0.0311295992	 0.0212582453	 0.0490731646	 0.327459
C	 0.0417481601	 1.460189846	 0.0783172604	-0.241323
C	 0.5188995838	 2.2486378278	 1.2669427479	-0.052183
N	 1.5311922835	 1.4867855128	 1.9888256671	-0.31335
C	 2.4529180861	 1.5714351626	 0.8073431542	-0.235134
C	 1.3519584577	 2.2541869917	-0.0254613444	 0.155626
C	 1.5474646164	 3.2405095119	-1.0311892948	 0.194422
N	 1.7111825981	 4.0546197673	-1.8379085336	-0.3375
H	-0.7701198765	 1.9294618572	-0.4687565643	 0.161233
H	-0.0843098906	 3.0281143494	 1.7160656615	 0.136507
H	 1.8960299129	 1.998254415	 2.7836135943	 0.245386
H	 3.2940366816	 2.2487017787	 0.9696687997	 0.139988
H	 2.8111097605	 0.603249058	 0.4486797077	 0.149269
105.826	134.5932	172.3028	196.1662	323.994	380.8558	492.3671	501.5314	548.0527	602.8936	627.3499	750.774	792.3771	830.3479	898.6013	957.1987	983.455	1012.9628	1036.8807	1049.6827	1094.9488	1149.7263	1202.7635	1251.2362	1269.1495	1354.1052	1363.1488	1450.6884	1504.9734	2345.9516	2362.9023	3067.6524	3126.835	3171.9502	3200.5941	3556.1863
N#CC1C2NCC12C#N	N#C[C@H]1[C@H]2NC[C@@]12C#N	
InChI=1S/C6H5N3/c7-1-4-5-6(4,2-8)3-9-5/h4-5,9H,3H2	InChI=1S/C6H5N3/c7-1-4-5-6(4,2-8)3-9-5/h4-5,9H,3H2/t4-,5+,6-/m0/s1
