17
gdb 12201	3.93261	1.4807	1.26031	3.8496	69.24	-0.2486	0.0159	0.2645	992.1144	0.143234	-360.029503	-360.021209	-360.020265	-360.062257	30.434	
C	 0.0893466947	 1.5652682271	-0.1142861007	-0.388452
C	 0.0998398747	 0.0573175135	 0.0458095056	 0.053725
N	 1.0745774394	-0.675918315	-0.8031099527	-0.318801
C	 1.3250110142	-1.6585869569	 0.2673910877	-0.160753
C	 2.7143551525	-2.0740144906	 0.4338493879	 0.291136
N	 3.8137657823	-2.3821065068	 0.6166267247	-0.327548
C	 0.7601169822	-0.5942924062	 1.3016352972	 0.001077
N	 1.6951776978	 0.2529550168	 1.9937846552	-0.49692
H	 1.0853097505	 1.9898148495	 0.0273783617	 0.124808
H	-0.2568407984	 1.8354786922	-1.1177092854	 0.115571
H	-0.5870219802	 2.0240540559	 0.613413475	 0.124223
H	-0.9249107722	-0.3318788659	-0.061014478	 0.069071
H	 0.7262995745	-1.0588113009	-1.6757480644	 0.225491
H	 0.6878145224	-2.5539964133	 0.2339268194	 0.104212
H	 0.0647716852	-1.0201564008	 2.0265667963	 0.092691
H	 2.1492231503	-0.2541695507	 2.7468098802	 0.243027
H	 2.4311524101	 0.5685319521	 1.3689449704	 0.247442
67.12	130.6938	179.3656	234.2566	252.8738	294.7372	366.2319	382.2709	486.659	565.7156	590.2255	689.3169	758.2544	817.6428	864.9558	881.6086	967.8566	979.6112	1019.1105	1066.4607	1097.1073	1117.02	1144.0655	1196.9739	1221.9394	1253.2397	1313.9082	1345.1669	1379.6977	1402.7589	1420.7529	1433.1069	1484.754	1490.9043	1662.6153	2350.6798	2972.3601	2998.023	3042.4149	3101.1205	3107.1984	3134.6117	3501.6588	3526.0958	3579.3167
CC1NC(C#N)C1N	C[C@H]1N[C@@H](C#N)[C@H]1N	
InChI=1S/C5H9N3/c1-3-5(7)4(2-6)8-3/h3-5,8H,7H2,1H3	InChI=1S/C5H9N3/c1-3-5(7)4(2-6)8-3/h3-5,8H,7H2,1H3/t3-,4+,5+/m1/s1
