16
gdb 43150	2.42448	2.16816	1.71098	1.4401	67.03	-0.2279	-0.0345	0.1934	851.8973	0.126682	-437.854241	-437.847802	-437.846858	-437.884869	26.155	
O	 0.0057527112	 0.0095528589	 0.1276629488	-0.324189
C	-0.0112440629	 1.202410106	 0.0426011334	 0.405749
C	-1.1548783634	 2.2299089278	-0.014505182	-0.007494
O	-0.8305272477	 3.0107081741	 1.149494116	-0.291635
C	 0.6259406565	 3.1035323474	 1.1996843113	-0.070595
C	 1.0958068679	 2.2685675761	-0.00043766	-0.126263
N	 0.7491057651	 3.0970583218	-1.1890526076	-0.106416
C	 0.0670806413	 2.3789328886	-2.2811986266	-0.273418
C	-0.7504855231	 3.0448070897	-1.2324059315	-0.039386
H	-2.1766750437	 1.8662421857	 0.0592156647	 0.104946
H	 0.9286246041	 4.1511338057	 1.1060614216	 0.123291
H	 0.9756569223	 2.6968259473	 2.1544356299	 0.119289
H	 2.1299831861	 1.9316214922	 0.0090154503	 0.101919
H	 0.1688771878	 2.8651810934	-3.2458128864	 0.130774
H	 0.1071306767	 1.2925796459	-2.3216589741	 0.140594
H	-1.2619407082	 3.9832793194	-1.4228594579	 0.112832
147.8371	241.8468	324.646	332.6136	460.0849	506.9472	563.3088	630.3039	727.9491	749.0111	802.397	820.1769	866.1764	887.2476	935.1584	947.9272	1000.5101	1024.1147	1049.1228	1057.8208	1089.1961	1113.2791	1144.0453	1152.0747	1180.7152	1232.3762	1238.701	1248.3758	1273.4687	1288.9425	1362.7405	1372.7429	1509.402	1511.4942	1897.7172	3039.026	3090.4266	3112.3091	3150.9065	3156.5305	3164.2311	3203.0548
O=C1C2OCC1N1CC21	O=C1[C@H]2OC[C@@H]1N1C[C@@H]21	
InChI=1S/C6H7NO2/c8-5-4-2-9-6(5)3-1-7(3)4/h3-4,6H,1-2H2	InChI=1S/C6H7NO2/c8-5-4-2-9-6(5)3-1-7(3)4/h3-4,6H,1-2H2/t3-,4-,6-,7?/m0/s1
