18
gdb 93878	2.18633	1.69402	1.1477	4.2385	71.76	-0.27	0.0259	0.2959	1091.6576	0.147893	-439.10283	-439.094109	-439.093164	-439.136685	32.423	
C	 0.2683018647	 1.5311196864	-0.1984090989	-0.408222
C	 0.1058506347	 0.0352454682	-0.0087948231	 0.12703
O	 0.7059626497	-0.6466992746	-1.1099325856	-0.262841
C	 0.9799657255	-1.9671924603	-0.6643044212	-0.127907
C	 1.676531381	-1.7372957767	 0.6788767315	 0.138545
O	 3.0139942869	-1.3372571365	 0.5056660977	-0.416048
C	 0.769110887	-0.6059147044	 1.2757264633	-0.260901
C	 1.5015419233	 0.3291691037	 2.117678503	 0.299597
N	 2.0559275672	 1.0897822553	 2.788460233	-0.333424
H	 1.3233044577	 1.8174670273	-0.19672858	 0.136883
H	-0.174245447	 1.8280160553	-1.1526655574	 0.131984
H	-0.2333861502	 2.077528323	 0.6044481976	 0.137071
H	-0.9644774864	-0.2201015171	 0.019607984	 0.085812
H	 0.0527356861	-2.5519605973	-0.5475615306	 0.096178
H	 1.6293076832	-2.4562115315	-1.3926650876	 0.128544
H	 1.6969229656	-2.6175317807	 1.3244143968	 0.105972
H	 3.0279406474	-0.6534389489	-0.1757120014	 0.291874
H	-0.0129123266	-1.0618055512	 1.890718189	 0.129852
36.8009	149.175	177.6273	193.8243	239.7602	332.8193	363.4733	405.257	429.1631	459.8009	498.873	603.8453	700.3432	752.3616	809.6415	863.4358	887.7628	904.466	990.8246	1020.5666	1066.5454	1085.8956	1122.7524	1128.0915	1163.2663	1213.9216	1251.7317	1261.6198	1313.4647	1327.8894	1352.8422	1378.2896	1389.0669	1420.9103	1436.2509	1481.9156	1494.9377	1503.4791	2358.8	2974.804	2981.342	3052.2814	3065.0605	3105.4137	3121.4399	3130.4278	3131.125	3783.9388
CC1OCC(O)C1C#N	C[C@H]1OC[C@@H](O)[C@H]1C#N	
InChI=1S/C6H9NO2/c1-4-5(2-7)6(8)3-9-4/h4-6,8H,3H2,1H3	InChI=1S/C6H9NO2/c1-4-5(2-7)6(8)3-9-4/h4-6,8H,3H2,1H3/t4-,5+,6-/m1/s1
