16
gdb 127942	2.50878	1.64153	0.99851	2.2211	79.76	-0.1984	-0.0358	0.1626	1137.9757	0.125804	-434.072408	-434.064414	-434.06347	-434.10482	30.346	
C	 0.0024216569	 1.3806136396	-0.1921758601	-0.342431
N	 0.0255072776	-0.0666781222	-0.2143126848	-0.312866
C	-1.060934555	-0.6831590308	 0.0707074622	 0.361432
N	-2.2775011264	-0.0836289932	 0.4042128553	-0.323852
N	-3.4582127099	-0.6686480327	 0.715012998	-0.206988
C	-3.4594281967	-1.9661907166	 0.7009502968	 0.012202
C	-2.3133630111	-2.7594052111	 0.3842400947	-0.268932
C	-1.1403063216	-2.145756864	 0.0758748544	 0.348748
O	 0.0040240978	-2.7718897606	-0.2384831862	-0.394841
H	 0.9920636855	 1.7631310363	-0.4540384146	 0.126721
H	-0.7145717336	 1.8097696531	-0.9144165461	 0.104953
H	-0.2533759746	 1.7908466575	 0.8008799177	 0.10496
H	-2.3162097778	 0.9220546048	 0.4258856737	 0.270122
H	-4.4034863815	-2.4381118693	 0.9494055152	 0.121828
H	-2.3901422841	-3.8425653828	 0.3928688087	 0.095465
H	-0.1405887857	-3.7252563779	-0.210105605	 0.303478
106.9423	197.1823	207.3796	213.976	252.5621	339.9048	449.9982	507.4927	512.455	551.9489	553.6889	592.8053	648.5693	759.8843	763.3855	844.2912	899.7238	918.9407	1043.2321	1064.3765	1104.5775	1131.7557	1175.1473	1197.7442	1277.2965	1331.7931	1391.4573	1425.1093	1452.2504	1479.7357	1506.5756	1513.764	1608.0881	1664.2044	1705.8456	2935.8421	2974.2435	3096.9785	3168.5012	3197.2298	3654.7567	3799.8871
CN=C1NN=CC=C1O	C[N]C1=C(CC=NN1)O	
InChI=1S/C5H7N3O/c1-6-5-4(9)2-3-7-8-5/h2-3H,1H3,(H,6,8)(H,7,9)	InChI=1S/C5H8N3O/c1-6-5-4(9)2-3-7-8-5/h3,8-9H,2H2,1H3
