19
gdb 88121	2.48353	1.548	1.15385	1.9673	77.28	-0.234	-0.0208	0.2133	1125.2072	0.158519	-423.044092	-423.035483	-423.034539	-423.077425	32.415	
C	 0.1489534367	 1.5431749778	 0.221155552	-0.409294
C	 0.0196572962	 0.041672298	 0.1259156661	-0.060417
C	 1.1560909714	-0.7973848935	-0.3965542884	-0.349697
C	 0.837653164	-0.8429664537	 1.068088859	 0.318113
O	 1.7377787421	-0.2760834451	 1.9824543189	-0.298675
C	 1.2752742276	-0.6187287323	 3.2973775495	-0.105858
C	 0.6687156616	-2.0201319117	 3.163510608	-0.339202
C	 0.1819427146	-2.0198296519	 1.7108126757	 0.334792
O	-0.584695295	-2.7897567572	 1.1870008825	-0.331036
H	 1.1446617342	 1.8250342858	 0.5731199087	 0.133786
H	-0.018015504	 2.0116669646	-0.7546271936	 0.122146
H	-0.5830545853	 1.9597591887	 0.9210990572	 0.118761
H	-0.975142167	-0.3442135455	-0.0814721825	 0.107285
H	 0.9280064551	-1.6877677304	-0.9729139215	 0.133433
H	 2.0774863896	-0.2870405345	-0.6578527728	 0.127267
H	 2.134004844	-0.5631518032	 3.9687359816	 0.118866
H	 0.517835545	 0.1044166589	 3.6342335005	 0.104248
H	 1.4337808295	-2.798488279	 3.2663454721	 0.141258
H	-0.1415176602	-2.2430438259	 3.8596846871	 0.134223
83.4095	138.6633	157.5	167.1516	219.7757	271.0201	374.7625	446.3279	522.7417	539.282	585.9247	667.3537	698.9087	780.5961	831.7019	872.8771	880.4843	914.2969	966.179	994.3646	1006.8062	1060.2444	1073.4834	1094.4275	1115.9002	1141.1954	1188.9215	1194.1878	1238.9896	1264.4294	1289.1067	1299.0656	1387.7564	1396.7512	1420.4736	1450.197	1464.1014	1492.057	1500.5161	1517.4241	1837.9502	2996.6083	3035.054	3051.9645	3094.1909	3111.2645	3117.9754	3127.2731	3128.3843	3147.7669	3223.9718
CC1CC11OCCC1=O	C[C@H]1C[C@]21OCCC2=O	
InChI=1S/C7H10O2/c1-5-4-7(5)6(8)2-3-9-7/h5H,2-4H2,1H3	InChI=1S/C7H10O2/c1-5-4-7(5)6(8)2-3-9-7/h5H,2-4H2,1H3/t5-,7+/m0/s1
