22
gdb 78667	2.59096	1.57367	1.19928	1.6744	86.11	-0.2164	0.0915	0.308	1152.6329	0.193592	-367.151175	-367.142266	-367.141322	-367.183952	35.126	
C	-0.0835603502	 1.4810916495	 0.0153726366	-0.397628
C	 0.0122250575	-0.0346648733	-0.0363740222	 0.047389
C	 0.8189867309	-0.5960453386	-1.1979281584	-0.133463
C	 2.0400725765	-0.5596684249	-0.3227020074	-0.080499
N	 1.1001410408	-0.5368303977	 0.904925171	-0.19603
C	 1.0187057221	-2.0538135857	 0.7525630054	 0.019513
C	-0.2659004812	-2.7686551409	 1.1407860932	-0.42991
C	 1.4815214948	-1.9009472151	-0.6936467548	 0.306144
C	 2.0338733748	-2.9428028511	-1.6211563307	-0.513222
H	 0.891475476	 1.944422639	-0.1648500788	 0.11679
H	-0.7835454463	 1.8517391681	-0.7415036758	 0.106884
H	-0.437750292	 1.8026433955	 0.9994090779	 0.121
H	-0.9731502663	-0.4687343726	 0.1646893913	 0.061815
H	 0.7483879413	-0.3838824815	-2.2589087334	 0.081426
H	 3.0173781041	-0.1023720336	-0.3860697984	 0.091755
H	 1.8449663828	-2.4539664036	 1.3530289326	 0.072943
H	-1.0940776501	-2.5616116367	 0.4586811714	 0.11986
H	-0.1027541468	-3.8516977687	 1.1404365671	 0.115676
H	-0.5698717703	-2.477163762	 2.1523081357	 0.126831
H	 1.251066659	-3.6292219701	-1.9641824801	 0.122338
H	 2.4840708185	-2.4879168683	-2.5100543349	 0.120397
H	 2.8087644541	-3.5401104277	-1.1268289273	 0.119992
168.6724	185.0746	192.7938	215.8252	219.5177	236.1136	259.1051	338.7598	379.3917	506.3487	568.0277	626.6512	715.0369	773.9098	796.1339	832.3579	839.0538	880.468	897.0688	908.8124	926.3927	1007.3133	1021.1684	1047.2362	1072.3613	1086.0936	1108.1251	1122.3228	1138.2515	1150.3067	1159.4326	1223.6866	1241.9081	1280.6825	1303.7426	1375.055	1393.0008	1401.3269	1410.1378	1414.9971	1438.8208	1488.1172	1488.3107	1489.6553	1493.1629	1499.6875	1503.2233	3021.5998	3025.133	3033.0045	3034.3408	3047.3519	3081.7501	3091.2312	3098.3372	3102.2388	3112.8003	3117.4293	3174.5529	3213.5565
CC1C2C3N1C(C)C23C	C[C@H]1[C@H]2[C@H]3N1[C@@H](C)[C@@]23C	
InChI=1S/C8H13N/c1-4-6-7-8(6,3)5(2)9(4)7/h4-7H,1-3H3	InChI=1S/C8H13N/c1-4-6-7-8(6,3)5(2)9(4)7/h4-7H,1-3H3/t4-,5-,6-,7+,8-/m0/s1
