23
gdb 112024	3.2875	1.18064	0.98302	0.1994	90.83	-0.2319	0.0251	0.257	1312.4782	0.207613	-351.161823	-351.153225	-351.15228	-351.195062	33.849	
C	-0.3633380434	 1.8385523557	 0.7383164648	-0.3857
C	-0.0708571908	 0.3528731058	 0.5025736884	-0.179567
C	-1.2744637209	-0.4306657489	-0.051626783	-0.024136
C	-1.6659773594	-0.1032144548	-1.4828247561	-0.068972
C	-1.9527968804	-1.1861669593	-2.2065123783	-0.090046
C	-1.7984596432	-2.4646534793	-1.4248215045	-0.060153
C	-0.5428513089	-3.3193942834	-1.7642610406	-0.225771
C	 0.2447299804	-2.5470182623	-0.6696454349	-0.221758
C	-1.0968823123	-1.9656603262	-0.1178922553	-0.030276
H	 0.508708098	 2.3509802348	 1.1566883027	 0.110651
H	-0.6305601391	 2.3520207359	-0.1912331067	 0.116575
H	-1.1953883874	 1.9714478676	 1.4390215011	 0.113205
H	 0.7827456895	 0.2540371536	-0.1779673036	 0.09731
H	 0.2374821794	-0.1062346569	 1.450753387	 0.092739
H	-2.128063024	-0.201370516	 0.6077795351	 0.07063
H	-1.7242525161	 0.916153452	-1.8507478387	 0.087494
H	-2.2705773056	-1.1742172169	-3.244737668	 0.086352
H	-2.7411715553	-3.0170240149	-1.3415299633	 0.066044
H	-0.6857375212	-4.3742196481	-1.5131602881	 0.095444
H	-0.1622649444	-3.2558221575	-2.7875733426	 0.092641
H	 0.8319427919	-3.151482729	 0.0254851929	 0.094469
H	 0.8988400499	-1.7814069936	-1.0912980715	 0.103471
H	-1.4148493065	-2.4655846182	 0.7995958431	 0.059355
92.1452	105.3848	167.5711	202.145	243.8872	295.9468	349.7999	426.4175	518.4912	660.0625	678.2466	749.467	759.5003	764.2577	808.9882	853.5827	873.7337	895.2203	937.9928	956.2182	960.626	978.4356	1015.1649	1035.5358	1050.5563	1073.4098	1098.8361	1127.5459	1150.4431	1154.4178	1186.1193	1225.0593	1245.9535	1266.2264	1269.4769	1277.5127	1292.1742	1308.1898	1328.3999	1346.9194	1377.1779	1387.8723	1413.1405	1476.966	1486.0075	1495.1576	1500.8367	1507.2438	1673.1463	2957.0585	3020.9698	3030.8586	3034.4788	3051.2579	3058.1072	3068.9445	3080.8606	3096.6411	3098.0438	3101.5242	3124.0232	3167.3163	3193.8934
CCC1C=CC2CCC12	CC[C@H]1C=C[C@H]2CC[C@@H]12	
InChI=1S/C9H14/c1-2-7-3-4-8-5-6-9(7)8/h3-4,7-9H,2,5-6H2,1H3	InChI=1S/C9H14/c1-2-7-3-4-8-5-6-9(7)8/h3-4,7-9H,2,5-6H2,1H3/t7-,8-,9-/m0/s1
