19
gdb 50588	2.96504	1.34615	1.16869	5.0905	76.46	-0.2358	0.0362	0.272	1111.5433	0.162675	-419.218853	-419.211103	-419.210159	-419.251617	29.88	
O	-0.0948440682	 0.0314123984	-0.1987922045	-0.347528
C	-0.0015837699	 1.2381832847	-0.1156907929	 0.161057
N	 1.1528123462	 1.9283329438	 0.1030483303	-0.032608
C	 2.4352589151	 1.2407612697	 0.1484492043	-0.182414
C	 3.2633679448	 1.5305841689	-1.1151218952	-0.207066
C	 3.192180865	 2.9979276494	-1.5237749371	-0.028299
N	 1.9932737908	 3.3990106977	-2.2860507231	-0.324712
C	 2.1744950656	 3.9085199734	-0.9243897449	-0.030298
C	 1.2053669964	 3.3760095292	 0.1172068621	-0.189003
H	-0.8734738965	 1.9170311756	-0.1961509708	 0.069671
H	 2.9786583958	 1.5821071784	 1.0399951653	 0.101079
H	 2.2294709216	 0.1752972354	 0.2549256165	 0.146983
H	 4.3046728051	 1.2450310122	-0.9326164351	 0.099398
H	 2.8945377335	 0.9178225316	-1.9433360804	 0.13089
H	 4.134545431	 3.4518480788	-1.8211383097	 0.087954
H	 2.2250856432	 4.1155775016	-2.9681095826	 0.233128
H	 2.4410057349	 4.9554361109	-0.7927627819	 0.085926
H	 0.1985492565	 3.76671375	-0.065107401	 0.120853
H	 1.525188509	 3.7309203805	 1.1089960409	 0.104988
49.9966	124.0037	262.5095	297.4234	335.5551	371.3409	386.9238	453.9206	522.6972	628.5413	729.7108	776.7531	796.0116	829.9581	875.1246	915.681	959.0399	978.363	1017.7189	1029.1277	1056.0918	1078.758	1119.4245	1166.3265	1178.6377	1206.9966	1243.873	1255.1852	1271.4544	1306.4644	1359.6038	1366.6202	1396.0149	1409.3318	1433.9521	1458.046	1465.	1477.2903	1483.0183	1490.5533	1793.6523	2935.4622	2987.5427	3013.1812	3047.3364	3070.06	3093.3018	3122.7007	3134.5443	3135.177	3510.0552
O=CN1CCC2NC2C1	O=CN1CC[C@H]2N[C@H]2C1	
InChI=1S/C6H10N2O/c9-4-8-2-1-5-6(3-8)7-5/h4-7H,1-3H2	InChI=1S/C6H10N2O/c9-4-8-2-1-5-6(3-8)7-5/h4-7H,1-3H2/t5-,6+/m1/s1
