23
gdb 108419	2.54764	1.48926	1.16451	0.1433	89.71	-0.2329	0.0285	0.2615	1181.8441	0.207189	-351.166429	-351.157841	-351.156897	-351.199346	34.236	
C	 0.0153101107	 1.5314243363	 0.3206638235	-0.386435
C	-0.0522378817	 0.0078569756	 0.162095261	-0.267808
C	-1.4476096329	-0.5264091001	-0.1565291713	 0.386536
C	-2.4469881564	-0.4778993019	 1.0483094769	-0.269265
C	-2.3352762009	-2.0174333031	 1.2177808485	-0.22179
C	-1.593845612	-2.0938158221	-0.1496751462	-0.103687
C	-2.4618948664	-2.3661533902	-1.3455841167	-0.08098
C	-2.7069994282	-1.2693736189	-2.0634079511	-0.06821
C	-2.0290889752	-0.0390106142	-1.5060155223	-0.330013
H	 1.0303835613	 1.8557863967	 0.570076996	 0.110561
H	-0.2790698668	 2.0436736355	-0.6011969935	 0.117672
H	-0.6490743704	 1.8795538984	 1.1187340466	 0.116443
H	 0.6358201618	-0.3069678985	-0.6344941186	 0.091951
H	 0.3128991781	-0.4670525678	 1.08275347	 0.089707
H	-2.1289880175	 0.1218227694	 1.9054556276	 0.09372
H	-3.4475139215	-0.1492387429	 0.7554641432	 0.097813
H	-1.6976197752	-2.3082607248	 2.057153185	 0.095763
H	-3.2746274151	-2.5715339056	 1.291195601	 0.093486
H	-0.6743751126	-2.6911851236	-0.1508268842	 0.062035
H	-2.8407228536	-3.357226144	-1.5757956377	 0.087705
H	-3.3084564775	-1.2395535034	-2.9663989521	 0.087773
H	-2.7253935261	 0.7998106401	-1.3753034429	 0.099831
H	-1.2458392022	 0.3207047993	-2.1899977026	 0.097192
97.991	129.4012	176.6526	224.3838	246.0915	332.2153	344.7799	402.0865	466.8317	592.0913	642.0557	730.4371	747.5955	777.2398	790.6604	840.8983	870.7458	916.3174	940.6455	954.0742	959.1666	975.7466	1007.0581	1010.2953	1028.4818	1043.0566	1097.2175	1119.8737	1127.2206	1150.3949	1194.5066	1214.8013	1228.57	1266.7823	1268.7937	1271.8302	1300.4849	1322.0575	1341.6017	1364.1609	1376.3147	1411.1095	1473.2314	1478.9819	1485.8227	1495.4231	1501.3996	1506.9065	1680.0997	2992.9319	3006.1564	3028.9362	3031.2392	3035.518	3038.5187	3051.3562	3058.7494	3094.4729	3102.523	3103.6892	3113.652	3168.4569	3194.4708
CCC12CCC1C=CC2	CC[C@]12CC[C@H]1C=CC2	
InChI=1S/C9H14/c1-2-9-6-3-4-8(9)5-7-9/h3-4,8H,2,5-7H2,1H3	InChI=1S/C9H14/c1-2-9-6-3-4-8(9)5-7-9/h3-4,8H,2,5-7H2,1H3/t8-,9+/m1/s1
