21
gdb 68472	2.78062	1.65551	1.27071	1.2303	83.4	-0.2339	0.0149	0.2489	1068.1508	0.183782	-387.07747	-387.069522	-387.068577	-387.109252	32.576	
C	 0.0032499214	 1.6457178957	-0.0195572518	-0.484717
C	 0.0116127173	 0.1245628256	 0.0620428269	 0.28788
C	 1.0167202332	-0.641740619	-0.8664342583	-0.254927
C	 1.2858578291	-1.6218604299	 0.3073899348	 0.127054
C	 0.7612013995	-0.5255716501	 1.2721207531	-0.294697
O	 0.5335427619	-2.8193659174	 0.2247706818	-0.271525
C	-0.8226131363	-2.8295727357	 0.6383572421	-0.127889
C	-1.7256770248	-1.7143194036	 0.1617537767	-0.095188
C	-1.3811534523	-0.4484420754	-0.0733768454	-0.088953
H	 1.0155737817	 2.0504949116	 0.0800552177	 0.108562
H	-0.4011037053	 1.9867506432	-0.9798532394	 0.116244
H	-0.6138409915	 2.0831150562	 0.7739488774	 0.116176
H	 0.6230870214	-1.0816281444	-1.7845578398	 0.10147
H	 1.8990420887	-0.0338391446	-1.093785536	 0.089694
H	 2.3209745439	-1.9440955646	 0.4473924155	 0.077395
H	 1.5876591258	 0.1060682127	 1.6114132389	 0.097325
H	 0.171182429	-0.8261860444	 2.1404203657	 0.104035
H	-1.2119437365	-3.7830172738	 0.2652453269	 0.114523
H	-0.8837668855	-2.8887078724	 1.7393167002	 0.104336
H	-2.7667437846	-2.0057916236	 0.0394990179	 0.091543
H	-2.1521417961	 0.2433868839	-0.4064551647	 0.081659
149.239	199.3891	243.5688	272.7202	307.9728	354.8611	391.1487	421.7627	474.9575	538.26	634.9449	696.7097	748.7597	802.4703	813.8614	865.7942	893.1252	907.123	924.1463	980.6171	988.5517	997.5184	1010.4086	1031.2141	1082.6164	1111.8076	1134.751	1183.5357	1208.7944	1222.1453	1255.1973	1268.2947	1283.2978	1286.9207	1299.0946	1382.0845	1408.1436	1413.1046	1417.8219	1461.2336	1482.705	1492.0147	1495.3652	1502.2288	1717.352	2946.6555	3020.7931	3044.4231	3055.5998	3060.3236	3074.0358	3085.7559	3095.682	3116.2565	3121.065	3134.3245	3158.3868
CC12CC(C1)OCC=C2	C[C@@]12C[C@@H](C1)OCC=C2	
InChI=1S/C8H12O/c1-8-3-2-4-9-7(5-8)6-8/h2-3,7H,4-6H2,1H3	InChI=1S/C8H12O/c1-8-3-2-4-9-7(5-8)6-8/h2-3,7H,4-6H2,1H3/t7-,8+
