15
gdb 26520	3.93038	1.54183	1.28084	3.1585	71.01	-0.2217	-0.0028	0.2189	956.4467	0.114487	-416.765751	-416.759075	-416.758131	-416.796598	26.758	
O	 0.060743534	 1.445983134	-0.0928505634	-0.444396
C	 0.0104914876	 0.087235253	 0.0456275824	 0.315441
C	-0.2100044556	-0.7944724932	-1.1602326614	-0.305435
C	-1.1655839284	-0.9054892418	 0.0152100577	-0.123611
N	-0.5202442894	-1.6278370958	 1.1290833079	 0.017898
C	-0.0785073043	-2.8595848438	 1.5623243259	-0.162593
C	 1.226485979	-2.6340808329	 1.9544733106	-0.076659
N	 1.6560430863	-1.3533204261	 1.6381761582	-0.323079
C	 0.5728176739	-0.7950615925	 1.1559415706	 0.164788
H	-0.1520641029	 1.8470609519	 0.7581628958	 0.297471
H	-0.6118104949	-0.2730721767	-2.0258904728	 0.133177
H	 0.4690413968	-1.6103838775	-1.3875006364	 0.140907
H	-2.2342413203	-0.7463535878	-0.0198683062	 0.124229
H	-0.714956397	-3.7231777614	 1.6622625779	 0.130522
H	 1.8777866151	-3.3213748696	 2.4756939831	 0.111341
149.9041	211.8226	271.3418	379.6456	410.2118	478.1616	529.2556	616.9926	641.0788	730.6636	748.9977	763.6004	843.1695	861.6893	884.7322	922.2712	959.1317	977.6743	1031.3109	1045.2667	1093.1794	1100.2769	1139.8887	1175.782	1232.1858	1236.7587	1313.4962	1336.0507	1392.0556	1426.6347	1460.9522	1488.5646	1553.9345	3116.9318	3208.3587	3218.6805	3236.4796	3277.2489	3789.7953
OC12CC1N1C=CN=C21	O[C@]12C[C@H]1N1C=C[N][C]21	
InChI=1S/C6H6N2O/c9-6-3-4(6)8-2-1-7-5(6)8/h1-2,4,9H,3H2	InChI=1S/C6H6N2O/c9-6-3-4(6)8-2-1-7-5(6)8/h1-2,4,9H,3H2/t4-,6-/m1/s1
