16
gdb 74191	2.54799	1.68893	1.10363	6.7767	73.96	-0.2245	-0.017	0.2075	1061.3512	0.125959	-437.922011	-437.914509	-437.913565	-437.95386	29.653	
N	 0.0889758531	 1.3564912002	 0.1806207336	-0.573483
C	 0.0062891616	-0.0023521358	 0.018887347	 0.389061
C	-1.160736741	-0.6889264971	-0.0321058224	-0.36036
C	-1.2463907787	-2.1399690625	-0.0079018986	 0.419138
O	-2.2754769589	-2.7671591322	-0.027011949	-0.356619
O	-0.0648275611	-2.8562262306	 0.0736710955	-0.247559
C	 1.1789965634	-2.2346396598	-0.0381412234	 0.132274
C	 1.6039012332	-1.5465772725	-1.2950133245	-0.327071
C	 1.2906510644	-0.7281292045	-0.0399680565	-0.181531
H	 0.913491904	 1.8195193469	-0.1675028629	 0.259904
H	-0.7620320575	 1.8893601075	 0.0863421438	 0.261823
H	-2.1176681347	-0.1807569265	-0.0340903756	 0.097139
H	 1.9229221777	-2.7992753345	 0.5122771765	 0.118347
H	 2.6418960947	-1.6307245715	-1.5968576218	 0.12529
H	 0.8846122591	-1.4853999292	-2.1036749174	 0.1396
H	 2.1189825007	-0.2706937776	 0.491956426	 0.104046
111.0109	168.3557	230.6157	333.5006	390.1455	413.0252	478.8206	497.0486	507.7602	538.5056	656.9711	709.2735	731.8884	776.4296	813.5575	850.365	856.5807	905.7033	981.0262	1034.3644	1050.7928	1093.2606	1102.7758	1125.9309	1174.1174	1219.6889	1246.1985	1278.2302	1339.8688	1412.453	1462.2993	1474.6958	1642.0995	1686.2759	1817.2963	3138.2017	3155.3535	3177.0316	3200.6919	3234.7816	3580.3377	3692.1853
NC1=CC(=O)OC2CC12	NC1=CC(=O)O[C@H]2C[C@@H]12	
InChI=1S/C6H7NO2/c7-4-2-6(8)9-5-1-3(4)5/h2-3,5H,1,7H2	InChI=1S/C6H7NO2/c7-4-2-6(8)9-5-1-3(4)5/h2-3,5H,1,7H2/t3-,5-/m0/s1
