20
gdb 116254	2.14168	1.44876	1.05022	4.8482	78.72	-0.2631	0.0326	0.2956	1225.8094	0.171685	-403.168789	-403.159502	-403.158557	-403.203634	33.289	
C	 0.0863006212	 1.4599867831	-0.053013924	-0.241135
O	-0.2349530804	 0.0943971841	-0.2049326811	-0.241671
C	 0.5264632194	-0.5725121944	-1.1757101447	 0.156213
C	 2.0122053417	-0.8173191291	-0.8204688526	-0.241133
C	 2.3996735643	-2.1444343059	-1.5310078849	-0.211601
C	 1.1039747645	-2.6658234626	-2.2037012957	-0.222299
C	-0.044029245	-1.9899157887	-1.4183569974	-0.206224
C	-0.311512152	-2.6865395151	-0.1573112047	 0.294921
N	-0.5047925009	-3.273805193	 0.8192134899	-0.33515
H	 1.1076922445	 1.6074938497	 0.3252354238	 0.113717
H	-0.0149968811	 2.0066828839	-1.0038589456	 0.104796
H	-0.6185233506	 1.8752758215	 0.6704250635	 0.136249
H	 0.461730516	-0.0325683893	-2.1363280444	 0.071338
H	 2.6472733078	 0.019027374	-1.1210345415	 0.103256
H	 2.0901512275	-0.9173703599	 0.2663279436	 0.129382
H	 3.1947663709	-2.0049987283	-2.2671969837	 0.106493
H	 2.767229403	-2.8703129442	-0.8017203012	 0.125771
H	 1.0452226271	-2.3311440653	-3.244483786	 0.109764
H	 1.0263029303	-3.7543213971	-2.2041159631	 0.12407
H	-0.9774856582	-1.9497213234	-1.9866480201	 0.123241
62.1354	90.1573	101.4448	133.75	191.8421	225.4817	281.5957	397.1977	429.0966	472.0426	547.6593	666.7051	692.5548	803.2409	814.051	855.4412	893.6056	953.8263	986.1627	1009.5586	1033.4411	1063.6685	1117.3726	1168.0432	1174.4301	1186.2104	1195.4941	1223.5286	1238.7305	1276.9462	1288.1305	1320.0029	1336.7447	1345.041	1374.4294	1393.8153	1480.0726	1486.6665	1491.3981	1494.8069	1508.6659	1513.9839	2356.7655	2950.6305	2978.6158	3032.9894	3054.2082	3059.3316	3071.1722	3079.6956	3096.8554	3114.1708	3122.8628	3124.3443
COC1CCCC1C#N	CO[C@H]1CCC[C@H]1C#N	
InChI=1S/C7H11NO/c1-9-7-4-2-3-6(7)5-8/h6-7H,2-4H2,1H3	InChI=1S/C7H11NO/c1-9-7-4-2-3-6(7)5-8/h6-7H,2-4H2,1H3/t6-,7-/m0/s1
