19
gdb 111944	2.87511	1.22518	0.93219	3.4697	77.8	-0.2348	-0.0416	0.1932	1254.3812	0.159086	-423.057971	-423.048922	-423.047978	-423.09215	33.455	
C	-0.254889344	 1.5714526026	 0.1380019386	-0.407087
C	 0.0644294246	 0.0795918739	 0.0138476323	-0.130254
C	 0.8143776499	-0.4293076235	-1.2476874335	-0.064263
C	 1.4664510067	 0.6542914932	-2.1168682242	-0.087748
O	 2.0976161141	-0.011114941	-3.2012822669	-0.423409
C	 1.8569206291	-1.3711267088	-0.687766189	-0.041062
C	 1.9146612543	-1.3678395989	 0.64869857	-0.190162
C	 0.9091200498	-0.4338443227	 1.1995923683	 0.380426
O	 0.7520012836	-0.1164301643	 2.3567474097	-0.342928
H	 0.6403880511	 2.1920584338	 0.0344523852	 0.119467
H	-0.9843482726	 1.8946490747	-0.6102654577	 0.113194
H	-0.669423056	 1.759810585	 1.1316470672	 0.14173
H	-0.882779777	-0.4718020265	 0.0847516009	 0.110759
H	 0.1411791054	-0.9812472884	-1.9159466378	 0.096444
H	 0.6985023667	 1.3563959092	-2.4730201514	 0.095903
H	 2.1947341741	 1.2260267254	-1.5219523589	 0.095104
H	 2.5367770688	 0.6476834539	-3.7467988843	 0.290688
H	 2.4943751009	-1.9460670367	-1.3490333788	 0.129078
H	 2.5954468004	-1.9283271208	 1.2766714503	 0.11412
42.464	127.2933	188.7077	225.516	236.0421	251.8939	268.6881	312.6981	404.1278	468.0326	535.5675	650.6918	699.678	740.3698	768.6164	819.4014	852.8618	942.0155	995.1338	1008.1601	1045.214	1056.8405	1086.4564	1101.3037	1121.2877	1160.4161	1191.1844	1228.1773	1246.3091	1265.8527	1322.6287	1332.9545	1343.8512	1364.0949	1405.5751	1449.726	1497.227	1502.3108	1525.9407	1647.6954	1809.8907	2979.8787	3009.8922	3018.988	3035.159	3042.6629	3110.4002	3123.4177	3205.1205	3228.8828	3833.2325
CC1C(CO)C=CC1=O	C[C@H]1[C@@H](CO)C=CC1=O	
InChI=1S/C7H10O2/c1-5-6(4-8)2-3-7(5)9/h2-3,5-6,8H,4H2,1H3	InChI=1S/C7H10O2/c1-5-6(4-8)2-3-7(5)9/h2-3,5-6,8H,4H2,1H3/t5-,6+/m0/s1
