19
gdb 50985	1.76431	1.40527	0.90517	2.8815	81.12	-0.247	-0.0236	0.2234	1324.7421	0.155827	-385.851971	-385.842189	-385.841244	-385.88773	35.456	
O	-1.0398233392	 0.853556446	 0.5905570411	-0.23761
C	-0.3966519851	 1.8372224075	 0.3311929716	 0.161233
C	 1.0586627989	 1.8379228281	-0.0970147844	-0.356339
C	 1.3145146319	 2.732885213	-1.3003189894	 0.362181
C	 0.6849198716	 2.2420335014	-2.6074628611	-0.439264
C	 1.2404415288	 0.972691737	-3.0691631644	 0.322558
C	 1.7116634006	-0.0722715108	-3.4304034284	-0.451062
C	 1.3829400315	 4.2287339387	-1.0843849258	-0.320245
C	 2.6366368815	 3.4490289235	-1.399311277	-0.305058
H	-0.8512763841	 2.853565247	 0.4018573499	 0.073691
H	 1.6396411333	 2.2107001148	 0.7583839305	 0.117488
H	 1.369034438	 0.8067750141	-0.2896321406	 0.13702
H	-0.4017193926	 2.1373581258	-2.4822404423	 0.138073
H	 0.8268498902	 3.0043413825	-3.3831131198	 0.128844
H	 2.1185223884	-0.9969528128	-3.7574221527	 0.199056
H	 0.9749595334	 4.8779220419	-1.8518624204	 0.116768
H	 1.2573432908	 4.607511447	-0.0755415447	 0.115126
H	 3.3615751994	 3.2984580821	-0.6069511312	 0.11585
H	 3.0760954126	 3.5628495432	-2.3842978308	 0.121687
45.0292	50.5424	103.8375	137.7788	197.8139	307.3666	316.4194	332.8508	356.0094	427.8845	478.7018	550.8936	622.9308	645.5952	730.9948	776.3815	805.1827	882.1299	914.8197	926.4395	975.2216	987.305	993.1658	1044.1692	1064.7652	1077.6422	1089.6686	1186.2659	1202.4952	1207.0897	1292.5918	1317.8606	1338.8513	1378.9358	1422.9631	1453.5942	1464.3886	1475.4714	1507.2052	1834.8414	2238.154	2854.8701	3013.0355	3017.6651	3051.7832	3098.4198	3129.8876	3135.8812	3208.0553	3222.6922	3505.815
O=CCC1(CC#C)CC1	O=CCC1(CC#C)CC1	
InChI=1S/C8H10O/c1-2-3-8(4-5-8)6-7-9/h1,7H,3-6H2	InChI=1S/C8H10O/c1-2-3-8(4-5-8)6-7-9/h1,7H,3-6H2
