14
gdb 124247	2.78514	1.56732	1.00975	1.6509	69.35	-0.2367	-0.078	0.1588	1092.3853	0.09969	-470.008565	-470.000235	-469.999291	-470.041871	29.893	
C	-0.01900916	 1.5243312148	-0.0076325717	-0.486917
C	-0.0397365734	 0.0154617083	 0.0458415523	 0.307021
O	-0.0567418061	-0.6170981687	 1.0949038057	-0.343514
C	-0.0324676411	-0.7241419237	-1.2047684173	 0.234506
C	-0.0335768794	-2.0854761223	-1.4060310809	 0.272905
N	-0.1267147474	-3.093676594	-0.5079486541	-0.592676
N	 0.0283850432	-2.2873573616	-2.7674979161	-0.188464
N	 0.0602882516	-1.1684806153	-3.3663339467	 0.001005
O	 0.0197210663	-0.1430432723	-2.4301230435	-0.216962
H	 0.8687467207	 1.8750354437	-0.5447177677	 0.153647
H	-0.8891760973	 1.8976773615	-0.5581265877	 0.154043
H	-0.0217877177	 1.9213384581	 1.0076545483	 0.146868
H	 0.0179473073	-2.8244456223	 0.4546943491	 0.285475
H	 0.175417903	-4.0083873862	-0.8006445997	 0.273062
79.7794	105.7507	159.8464	172.7723	301.655	334.2915	372.7602	430.1678	492.3078	531.468	573.1572	641.4983	670.9835	743.487	766.8781	820.6768	955.6803	1008.2545	1043.4584	1064.7112	1124.2016	1244.0677	1305.411	1385.3695	1428.6	1459.6121	1470.0809	1491.9904	1578.2377	1677.2303	1740.2831	3043.2973	3104.6836	3159.591	3570.9915	3705.7305
CC(=O)C1=C(N)N=NO1	CC(=O)c1c(N)nno1	
InChI=1S/C4H5N3O2/c1-2(8)3-4(5)6-7-9-3/h5H2,1H3	InChI=1S/C4H5N3O2/c1-2(8)3-4(5)6-7-9-3/h5H2,1H3
