19
gdb 40965	3.39357	1.33217	1.19202	3.2876	70.85	-0.2367	0.0757	0.3124	1096.2518	0.160789	-460.13936	-460.131619	-460.130675	-460.171908	29.625	
C	 0.0133458033	 1.3622385642	-0.3585209006	-0.065253
C	 1.4659120854	 1.5087203309	 0.1365223975	-0.35447
C	 1.2424509309	 0.1154083872	 0.7626061416	 0.406745
C	 2.1024143421	-1.0155471229	 0.1992741841	-0.129372
O	 1.7883193188	-2.2586159737	 0.8043955372	-0.23284
C	 1.8998845258	-2.1860381026	 2.1997640136	 0.021197
O	 1.0186147928	-1.2541002265	 2.7651152445	-0.23284
C	 1.2819655117	 0.0552066737	 2.2892899002	-0.129369
O	-0.1175650135	 0.0642948046	 0.25491254	-0.315202
H	-0.7033665382	 2.0839754291	 0.0511457792	 0.106193
H	-0.1156280646	 1.3168795286	-1.4465058392	 0.106196
H	 2.2309537115	 1.5482433983	-0.6421840773	 0.11272
H	 1.6443176267	 2.3140681207	 0.852635794	 0.112718
H	 1.9255692876	-1.1297894564	-0.8729604973	 0.116192
H	 3.1674507906	-0.7666272506	 0.3588280785	 0.0846
H	 1.6278067448	-3.1662026101	 2.5951134022	 0.121506
H	 2.9426650592	-1.9331761103	 2.4795738219	 0.070488
H	 2.2743961461	 0.398876051	 2.6338088423	 0.084599
H	 0.516894759	 0.7086609549	 2.7155262177	 0.116192
79.7816	117.7249	197.0792	269.9399	312.3411	413.1494	428.6423	440.496	504.368	629.7512	767.4899	780.556	862.9821	894.3649	943.2076	948.3216	966.1095	990.2279	1003.2735	1024.9826	1071.7097	1105.2581	1130.1876	1161.2896	1202.4051	1206.5436	1217.6603	1236.5504	1264.9209	1299.9858	1316.324	1338.0727	1356.0641	1371.0442	1419.121	1441.5885	1476.5989	1480.3422	1488.1678	1507.8134	1532.9683	2900.4942	2941.1582	2952.7907	3019.3968	3057.587	3067.5806	3098.9134	3100.8918	3118.864	3121.0544
C1CC2(COCOC2)O1	C1CC2(COCOC2)O1	
InChI=1S/C6H10O3/c1-2-9-6(1)3-7-5-8-4-6/h1-5H2	InChI=1S/C6H10O3/c1-2-9-6(1)3-7-5-8-4-6/h1-5H2
