19
gdb 75283	2.71118	1.76045	1.30394	2.0468	81.37	-0.2266	0.008	0.2347	1025.8504	0.159708	-385.801688	-385.794284	-385.79334	-385.833115	30.282	
C	 0.0513300146	 1.4565724305	 0.1155744194	-0.506522
C	-0.0716080461	-0.0278422722	 0.0072911293	 0.148745
C	-0.0967708503	-0.7936765392	-1.1018014459	-0.135229
C	-0.1603438407	-2.3118235672	-0.8380107303	-0.351594
C	-0.6549834969	-2.2911159439	 0.6199847429	 0.011572
C	-0.0457712271	-2.5467909994	 2.0417967515	-0.016722
C	 1.2219954583	-1.7746840714	 1.6715157666	-0.265849
C	-0.0325633957	-1.0071464627	 1.1369111561	 0.396562
O	-0.6729277423	-1.2435470596	 2.4656738871	-0.38018
H	 0.9637420312	 1.7368420033	 0.6564012309	 0.132741
H	 0.076017626	 1.9309050002	-0.8691709487	 0.125548
H	-0.7878082251	 1.8802657965	 0.6795871024	 0.140759
H	-0.0098813334	-0.3952706082	-2.1083710711	 0.09347
H	-0.8351513692	-2.8324801551	-1.5245192557	 0.107466
H	 0.8321420613	-2.7608450916	-0.9679485553	 0.116859
H	-1.7454222544	-2.2510683645	 0.6687400058	 0.087609
H	-0.1868276931	-3.3794687886	 2.7319336412	 0.09147
H	 1.7361970343	-1.2991611642	 2.5066694186	 0.105371
H	 1.9078019085	-2.2100479925	 0.9411431652	 0.097924
168.3993	175.5671	229.968	272.4529	323.749	445.7656	539.4585	545.7814	566.5029	583.4005	675.165	704.6505	808.0045	830.2956	876.6398	905.3889	915.0995	949.8311	970.7718	997.2198	1021.9875	1057.4524	1064.7006	1071.0704	1113.4838	1127.0953	1150.2148	1164.2659	1190.3955	1207.276	1239.4707	1261.4307	1287.7684	1350.3869	1383.8596	1414.2594	1473.1303	1476.9509	1489.2498	1499.8573	1656.7439	3024.1708	3033.0513	3068.443	3072.6069	3074.4154	3092.4908	3111.7168	3112.9609	3150.2686	3178.2413
CC1=CCC2C3CC12O3	CC1=CC[C@H]2[C@H]3C[C@@]12O3	
InChI=1S/C8H10O/c1-5-2-3-6-7-4-8(5,6)9-7/h2,6-7H,3-4H2,1H3	InChI=1S/C8H10O/c1-5-2-3-6-7-4-8(5,6)9-7/h2,6-7H,3-4H2,1H3/t6-,7+,8+/m0/s1
