20
gdb 65395	3.42445	0.91685	0.90075	3.4556	81.68	-0.2407	-0.0252	0.2155	1394.8146	0.16958	-403.119761	-403.110473	-403.109529	-403.154241	34.646	
C	-0.035908084	 1.64705587	 0.1185716207	-0.476418
C	 0.0135577173	 0.1358583179	-0.0068876251	 0.326864
N	 0.9887432587	-0.3745946229	-0.9718034534	-0.368767
C	 1.2329964431	-0.6267989277	 0.4657665646	-0.166973
C	 2.4255159506	 0.0366845735	 1.0593773385	 0.166119
O	 2.9440935665	-0.3229724857	 2.0876891329	-0.262259
C	-1.2869198103	-0.6146156657	 0.1136702521	-0.040152
C	-2.4750689191	-0.0908952968	 0.8824526321	-0.272466
C	-2.5383399324	-0.1811902355	-0.6195389071	-0.280477
H	 0.9212336062	 2.0844960854	-0.1675795398	 0.135093
H	-0.7970494691	 2.0696352878	-0.5451032236	 0.125692
H	-0.2680270668	 1.9546146828	 1.1424406669	 0.130911
H	 0.6484708883	-1.2235955002	-1.4176581662	 0.236849
H	 1.0442820309	-1.6168747879	 0.8744985849	 0.099888
H	 2.8165746659	 0.8969603167	 0.4744182655	 0.083644
H	-1.1430347152	-1.6911397825	 0.1677475802	 0.082716
H	-3.047171079	-0.7975027416	 1.4728945874	 0.118807
H	-2.4043698494	 0.8971034119	 1.322365466	 0.120847
H	-2.5135165475	 0.7439377761	-1.1841618294	 0.122082
H	-3.1498607847	-0.9551275458	-1.0696015174	 0.118001
52.6183	96.4356	136.9442	187.1163	239.0258	289.7678	290.0923	350.9816	411.9516	443.4104	496.7423	547.3486	665.5473	782.9981	797.9449	835.9965	867.3146	917.9045	952.0651	970.9255	1000.3021	1034.6986	1061.6823	1063.0306	1079.2156	1084.533	1099.8738	1131.6794	1145.7526	1199.0946	1219.0505	1229.2183	1260.9957	1352.1163	1366.5223	1410.9674	1420.2027	1446.9361	1467.5978	1495.9655	1503.0991	1511.2651	1816.6475	2901.3706	3047.235	3108.6934	3129.6672	3139.8913	3142.2804	3142.6748	3145.0933	3217.5201	3232.2313	3496.578
CC1(NC1C=O)C1CC1	C[C@]1(N[C@H]1C=O)C1CC1	
InChI=1S/C7H11NO/c1-7(5-2-3-5)6(4-9)8-7/h4-6,8H,2-3H2,1H3	InChI=1S/C7H11NO/c1-7(5-2-3-5)6(4-9)8-7/h4-6,8H,2-3H2,1H3/t6-,7-/m0/s1
