20
gdb 103204	2.95742	1.60744	1.32437	1.5661	77.5	-0.2429	0.0714	0.3144	1039.2133	0.170641	-403.081688	-403.073338	-403.072394	-403.114448	32.327	
C	-0.1395003337	 1.3757038413	 0.0148359773	-0.255395
O	 0.012632787	-0.0289488524	-0.0059255761	-0.296914
C	 0.6432362977	-0.5608989623	-1.1533478603	 0.454336
C	 2.0743778625	-0.0590943028	-1.3391086416	-0.464979
C	 0.5473699024	-2.0701708402	-1.2449518758	-0.107032
C	-0.7617925225	-2.4360115393	-1.857687867	-0.041645
C	-1.5441767246	-1.1675987457	-2.1487744868	-0.247792
C	-0.1598480527	-0.5882584978	-2.48762208	-0.079967
N	 0.384819927	-2.0320135147	-2.7449168125	-0.17
H	 0.8164774493	 1.9026112064	 0.1378114409	 0.112465
H	-0.6272769035	 1.7518713946	-0.8969596758	 0.106528
H	-0.7763974047	 1.6112470898	 0.8709695077	 0.128374
H	 2.6593125276	-0.2404301538	-0.4317924481	 0.121621
H	 2.5485589424	-0.5823184291	-2.1728889976	 0.143335
H	 2.1013246008	 1.0128991301	-1.5557155793	 0.1153
H	 1.1945540476	-2.7996049449	-0.7704023648	 0.091032
H	-1.1227410285	-3.4584716787	-1.8459131677	 0.096387
H	-2.1555096628	-1.28469399	-3.0469720779	 0.107442
H	-2.1209550704	-0.6993082681	-1.3476432437	 0.109927
H	-0.0192666807	 0.1749924976	-3.2513384207	 0.076977
74.3121	161.6492	186.7563	222.3148	253.9546	314.0247	359.0211	399.8579	504.9172	550.9664	627.6738	763.0035	784.7384	811.4824	827.4144	876.0567	930.5145	951.467	953.6528	986.9682	1021.6846	1043.6898	1055.7459	1092.2796	1117.226	1127.8549	1172.5197	1178.473	1181.2481	1193.9349	1229.7937	1239.4399	1251.1077	1274.6704	1365.0701	1382.9672	1400.9113	1474.9115	1482.8832	1486.4526	1491.5201	1504.5002	1510.0636	2985.9063	3037.0783	3044.2904	3061.8891	3108.2989	3112.7244	3117.8821	3127.9079	3129.834	3172.4883	3184.6664
COC1(C)C2C3CC1N23	CO[C@@]1(C)[C@H]2[C@H]3C[C@@H]1N23	
InChI=1S/C7H11NO/c1-7(9-2)5-3-4-6(7)8(4)5/h4-6H,3H2,1-2H3	InChI=1S/C7H11NO/c1-7(9-2)5-3-4-6(7)8(4)5/h4-6H,3H2,1-2H3/t4-,5+,6-,7-,8?/m1/s1
