17
gdb 8908	3.73955	1.17062	1.06193	3.9493	64.6	-0.2799	0.01	0.2899	1131.769	0.139996	-401.001805	-400.992276	-400.991331	-401.036126	33.288	
C	 0.0730453341	 1.5754715078	-0.038391153	-0.423834
C	 0.0152232174	 0.0462150533	 0.0449528331	 0.019676
C	 0.7587323602	-0.4860127987	 1.2736107613	-0.089903
O	 2.1155413428	-0.0895360438	 1.1603520234	-0.422857
C	-1.4321252827	-0.4972865125	 0.0511693867	-0.030337
O	-2.1974719475	-0.0687382888	 1.1649603305	-0.41573
C	-2.1208175147	-0.1778279312	-1.2172694482	 0.262563
N	-2.6607767456	 0.1003316247	-2.2004192076	-0.321251
H	 1.113856854	 1.9025078307	-0.0424619929	 0.150173
H	-0.4130657043	 1.9459513204	-0.9456177384	 0.13769
H	-0.409294744	 2.0405698044	 0.8298602874	 0.107595
H	 0.5073306156	-0.372764823	-0.8420726896	 0.107196
H	 0.2921818459	-0.0857125675	 2.1851745486	 0.103693
H	 0.6683517159	-1.5841305824	 1.3115401888	 0.087084
H	 2.5680053481	-0.3225909731	 1.9758934858	 0.291562
H	-1.3979812095	-1.5897219571	 0.1364004026	 0.137371
H	-2.3566731156	 0.8778507269	 1.0776638214	 0.299309
70.005	93.281	135.3573	209.9539	222.4945	237.3509	250.2294	292.7385	326.166	356.2414	418.7597	495.2753	593.5677	680.5164	820.9644	887.5581	933.9547	976.5857	1005.8516	1085.2739	1103.3448	1115.7646	1175.1027	1233.6187	1267.8074	1270.6865	1302.4859	1344.3567	1377.2514	1406.4292	1422.0407	1460.1634	1492.7128	1511.4291	1523.7035	2353.8945	2965.2655	3014.3351	3031.8624	3041.081	3053.6337	3102.9121	3142.5448	3810.0044	3836.6242
CC(CO)C(O)C#N	C[C@@H](CO)[C@@H](O)C#N	
InChI=1S/C5H9NO2/c1-4(3-7)5(8)2-6/h4-5,7-8H,3H2,1H3	InChI=1S/C5H9NO2/c1-4(3-7)5(8)2-6/h4-5,7-8H,3H2,1H3/t4-,5-/m0/s1
