21
gdb 93975	4.17056	0.93452	0.79131	3.5226	87.97	-0.2455	-0.0472	0.1982	1462.9462	0.183129	-387.138325	-387.129478	-387.128534	-387.17182	33.738	
C	 0.0201531288	 1.5813464993	 0.021775675	-0.404497
C	 0.0175902693	 0.0510673772	-0.0068912175	 0.03353
C	 0.6835250158	-0.5098350189	-1.2734909937	-0.2063
C	 0.5691464574	-2.0381917414	-1.3444568285	-0.313683
C	 0.9212915305	-2.686466711	-0.0294886908	 0.225394
C	 1.2150342207	-4.1294427082	-0.0116757271	 0.090592
O	 1.1989684545	-4.846134173	-0.9877609045	-0.278769
C	 0.9837779511	-2.0029420754	 1.1234972049	-0.132217
C	 0.6970214511	-0.5360960074	 1.2440668381	-0.253699
H	 1.0440466096	 1.9722861884	-0.0132616511	 0.114161
H	-0.5223650106	 1.9934136458	-0.8352393104	 0.11458
H	-0.4511201712	 1.9657332407	 0.9328977012	 0.11149
H	-1.0274501445	-0.2912676598	-0.0040212317	 0.077297
H	 0.2359845993	-0.0585063013	-2.1658906114	 0.095618
H	 1.7437412742	-0.2207860301	-1.2755473336	 0.096763
H	-0.4512499934	-2.3321945474	-1.6265948049	 0.117585
H	 1.211968775	-2.4508677827	-2.1289013118	 0.124098
H	 1.4627644893	-4.5357122788	 0.995973262	 0.062332
H	 1.2655678275	-2.5330074241	 2.032892696	 0.096773
H	 1.6443283404	-0.0074583495	 1.4386794233	 0.116728
H	 0.0824895051	-0.3525674325	 2.1354561863	 0.112224
71.7142	148.8156	185.6624	206.7224	244.1604	308.2189	317.6501	367.0274	410.4991	449.0912	518.0231	586.5677	711.1852	770.3093	798.9287	818.7752	916.9637	921.6136	957.9609	967.6722	1031.6384	1037.0496	1040.7431	1097.0643	1115.3273	1155.0114	1171.2636	1192.3077	1249.731	1274.7739	1325.2228	1329.8433	1337.5725	1376.7693	1396.1869	1403.1463	1412.9105	1432.362	1460.9513	1475.9361	1492.7103	1498.482	1501.0484	1704.6555	1788.2787	2865.9667	2982.6392	2998.3454	3014.0002	3020.5465	3025.7198	3034.3139	3066.2286	3075.1016	3090.6821	3099.5146	3132.856
CC1CCC(C=O)=CC1	C[C@H]1CCC(=CC1)C=O	
InChI=1S/C8H12O/c1-7-2-4-8(6-9)5-3-7/h4,6-7H,2-3,5H2,1H3	InChI=1S/C8H12O/c1-7-2-4-8(6-9)5-3-7/h4,6-7H,2-3,5H2,1H3/t7-/m1/s1
