15
gdb 51993	6.39744	0.61687	0.58865	0.9748	67.58	-0.2637	-0.0423	0.2214	1786.8047	0.11037	-491.126226	-491.116689	-491.115745	-491.162655	31.573	
N	-0.2234696495	 1.260241928	 0.1809487044	-0.425838
C	-0.1064614401	 0.0119894615	 0.2706286838	 0.121436
O	-1.1231768672	-0.7635735386	-0.2267494673	-0.232263
C	-0.9810542367	-2.129530801	-0.1246199008	 0.548383
O	-0.0341454852	-2.6957239967	 0.3648652735	-0.394014
N	-2.0785708282	-2.717859734	-0.6639846423	-0.37398
C	-2.2214015893	-4.1534770002	-0.7378010051	-0.248779
C	-3.3085902728	-4.6859065072	 0.1897141743	 0.15309
O	-3.9592090285	-5.6682660347	-0.041520717	-0.222981
H	 0.5947514179	 1.7125239067	 0.5856320866	 0.241057
H	 0.7033055466	-0.5811602919	 0.6959616224	 0.147755
H	-2.7786758374	-2.1133825007	-1.0631908387	 0.27191
H	-2.4226826014	-4.4934585526	-1.7584044146	 0.1435
H	-1.2662224708	-4.5851990705	-0.4159368403	 0.180052
H	-3.4440888175	-4.0854041781	 1.118124311	 0.09067
38.9852	52.8503	82.9137	127.0244	134.6571	182.5238	303.3716	339.275	391.8972	498.8297	510.5601	587.8031	715.1116	771.9147	802.6746	848.8092	965.0015	1029.0069	1044.6906	1070.3067	1115.4565	1164.6851	1236.6524	1263.4315	1279.9868	1339.5097	1388.0687	1409.7575	1444.5872	1541.3706	1752.4492	1837.0492	1844.9756	2880.7339	3048.612	3102.0894	3140.6619	3512.6005	3646.0037
N=COC(=O)NCC=O	[NH][CH]OC(=O)NCC=O	
InChI=1S/C4H6N2O3/c5-3-9-4(8)6-1-2-7/h2-3,5H,1H2,(H,6,8)	InChI=1S/C4H6N2O3/c5-3-9-4(8)6-1-2-7/h2-3,5H,1H2,(H,6,8)
