13
gdb 132917	3.22522	1.41821	0.98621	6.6873	65.42	-0.2129	-0.0521	0.1608	1077.5946	0.090493	-494.094485	-494.086994	-494.086049	-494.126594	28.059	
N	-0.0031379052	 1.4661591533	 0.1578752179	-0.601743
C	-0.0544022398	 0.0699300055	 0.0442791527	 0.0967
C	-1.1847545773	-0.6905442288	 0.0376592156	-0.015849
N	-1.0907015764	-2.0513573945	-0.0036629639	-0.34835
C	 0.1176291187	-2.7726823044	-0.0358633782	 0.444038
O	 0.1104268133	-3.9827020615	-0.0647783969	-0.383913
N	 1.2608993717	-1.9812027253	-0.0361308787	-0.377347
C	 1.1478449443	-0.7075171112	 0.0012797419	 0.335365
F	 2.2728188054	 0.0111028736	-0.0113426936	-0.071202
H	 0.8740559038	 1.8430759054	-0.1738056734	 0.261078
H	-0.7808918429	 1.9428155358	-0.2781731066	 0.251426
H	-2.1827690775	-0.2704392481	 0.0657621705	 0.138089
H	-1.9246379582	-2.6197203997	-0.0103060873	 0.271706
96.5722	172.3259	221.4169	300.1438	347.3663	391.3308	409.8434	495.6045	542.3658	604.2015	635.6446	691.9488	751.0543	754.7865	783.481	821.1213	881.957	965.3337	1091.6967	1167.5299	1202.686	1257.3561	1371.1449	1428.2909	1498.3665	1608.073	1645.7709	1728.4952	1819.7567	3208.9162	3551.8319	3627.0693	3648.4778
NC1=CNC(=O)N=C1F	Nc1c[nH]c(=O)nc1F	
InChI=1S/C4H4FN3O/c5-3-2(6)1-7-4(9)8-3/h1H,6H2,(H,7,8,9)	InChI=1S/C4H4FN3O/c5-3-2(6)1-7-4(9)8-3/h1H,6H2,(H,7,8,9)
