18
gdb 59689	2.17988	1.42006	0.98798	5.5454	71.79	-0.2793	0.0028	0.2821	1216.6392	0.146201	-439.069355	-439.059947	-439.059003	-439.104124	33.582	
C	-0.0035206974	 1.5590524812	-0.0493699288	-0.417391
C	 0.0228428505	 0.0345082522	 0.0566408841	 0.11031
O	 0.7368869553	-0.4082882444	 1.204576898	-0.427168
C	-1.3804837816	-0.5614407775	 0.0520255112	-0.054982
C	-2.2362246115	-0.4945164627	-1.2311061479	-0.09713
O	-2.4741010408	-1.9214075345	-1.1966068226	-0.270098
C	-1.5497935115	-2.1028946454	-0.106167549	-0.030499
C	-0.360910983	-2.8603795493	-0.5174278472	 0.303138
N	 0.5608322645	-3.4661669936	-0.861858486	-0.331229
H	 1.0160174749	 1.9520792593	-0.028789346	 0.137363
H	-0.481963624	 1.8893551197	-0.9771535417	 0.125743
H	-0.5591870445	 1.9997215827	 0.7883596613	 0.109914
H	 0.584406511	-0.3770456005	-0.7903083059	 0.11504
H	 0.3691734875	 0.0391423107	 1.9753291955	 0.279173
H	-1.9286130979	-0.2100455205	 0.931958267	 0.086527
H	-3.169512634	 0.0737349114	-1.1764384114	 0.117386
H	-1.6837707459	-0.2000172338	-2.1328536778	 0.115321
H	-2.0172148314	-2.618278495	 0.739673507	 0.128582
57.2841	95.3961	107.3203	185.0075	223.0897	245.6356	295.1807	321.9379	350.1551	421.396	476.4703	557.1527	603.4433	759.9615	822.0333	892.4761	918.7024	974.4705	977.028	1023.6134	1042.7661	1071.0889	1085.0171	1123.1962	1162.2839	1184.4953	1227.4943	1262.1237	1274.7069	1327.1264	1351.4901	1357.6672	1404.9253	1406.6873	1419.2949	1490.0833	1495.5348	1524.3421	2356.0369	3019.3117	3023.9948	3043.8524	3052.5673	3063.4553	3084.9885	3095.2745	3123.6477	3793.4061
CC(O)C1COC1C#N	C[C@@H](O)[C@H]1CO[C@H]1C#N	
InChI=1S/C6H9NO2/c1-4(8)5-3-9-6(5)2-7/h4-6,8H,3H2,1H3	InChI=1S/C6H9NO2/c1-4(8)5-3-9-6(5)2-7/h4-6,8H,3H2,1H3/t4-,5-,6+/m1/s1
