21
gdb 83685	2.08669	1.78338	1.39096	2.4235	81.84	-0.2425	-0.023	0.2196	1062.827	0.182372	-387.07313	-387.064333	-387.063389	-387.106992	33.156	
C	 0.0415634968	 1.6811511442	-0.1933174951	-0.419743
C	 0.1126564147	 0.1664270819	-0.0525666272	 0.024819
C	 0.496474507	-0.7308896128	-1.2549323003	-0.030718
C	 1.7548466108	-0.3203855881	-2.079860029	-0.232467
C	 2.6073112217	-1.3647747648	-1.3016481956	-0.223117
C	 1.4224117159	-1.602500255	-0.3363342758	-0.035724
C	 1.2085901195	-0.5386917022	 0.8237367659	-0.123159
C	 2.4654765857	 0.1778673289	 1.2236041921	 0.14531
O	 2.9176239755	 1.1705987254	 0.7037209564	-0.257257
H	 0.9813468273	 2.1106460991	-0.5405093962	 0.147262
H	-0.7532176674	 1.9533413941	-0.8974622218	 0.10651
H	-0.1949627107	 2.1502062561	 0.7681823783	 0.110812
H	-0.8535912596	-0.1883704096	 0.3250913329	 0.076526
H	-0.3249179626	-1.1584519424	-1.8325775838	 0.061388
H	 1.6746669708	-0.4970882495	-3.1545099516	 0.09797
H	 2.0726678278	 0.712017155	-1.9241589662	 0.122323
H	 2.8083396363	-2.2604101552	-1.8960424446	 0.098936
H	 3.5529818869	-1.0178839227	-0.8786370414	 0.108364
H	 1.1959891086	-2.6284033192	-0.0444211137	 0.069347
H	 0.8014295382	-1.0094927844	 1.7240792908	 0.079008
H	 3.0199816267	-0.3149744689	 2.0572866259	 0.073609
59.2861	72.539	180.1331	218.694	226.7187	234.5292	335.1995	386.5869	486.1763	579.362	695.6975	716.6978	736.1597	772.7026	841.3481	853.2424	867.4447	931.4741	954.4619	986.0091	1001.9642	1015.1931	1055.8125	1087.1815	1105.3501	1137.4535	1147.3808	1174.6645	1203.9424	1215.525	1231.5338	1264.7837	1272.5381	1286.0397	1299.0708	1331.5419	1359.616	1374.5129	1411.3364	1433.8276	1474.3767	1487.0972	1494.0252	1506.1687	1809.3217	2845.7108	3021.9757	3033.4437	3054.542	3056.6283	3071.4239	3084.2779	3087.5828	3099.9119	3105.1026	3128.5225	3148.2153
CC1C2CCC2C1C=O	C[C@H]1[C@H]2CC[C@H]2[C@H]1C=O	
InChI=1S/C8H12O/c1-5-6-2-3-7(6)8(5)4-9/h4-8H,2-3H2,1H3	InChI=1S/C8H12O/c1-5-6-2-3-7(6)8(5)4-9/h4-8H,2-3H2,1H3/t5-,6+,7+,8-/m0/s1
