16
gdb 40045	3.63992	1.48562	1.25485	1.6691	68.06	-0.2494	0.0116	0.261	984.9683	0.125524	-437.860823	-437.853936	-437.852992	-437.892499	26.747	
C	-0.3304530742	 1.4109093253	 0.0438906188	-0.256577
O	 1.0104981908	 0.9066832586	-0.0868741967	-0.268062
C	-0.0450122884	-0.0215783892	 0.0322814801	 0.446496
C	-0.1198518224	-1.076716926	 1.1515158986	-0.347604
C	-0.510001401	-2.1334933467	 0.0892994079	 0.076688
O	-1.9112105662	-2.4825335788	 0.0807095652	-0.227703
C	-2.4685420795	-1.723434585	-0.8987103507	 0.114101
N	-1.7510432076	-0.9364268449	-1.5893375613	-0.257055
C	-0.3936750559	-1.0641116914	-1.0476920314	-0.121395
H	-0.5479696163	 1.9096680795	 0.9873563338	 0.11705
H	-0.7421132319	 1.8813746591	-0.8466102188	 0.133313
H	 0.8508300621	-1.2655483751	 1.6175304384	 0.12716
H	-0.8688952323	-0.9136749633	 1.9299022497	 0.121409
H	 0.0718410218	-3.0541094381	 0.0576646556	 0.100433
H	-3.536428927	-1.8684422347	-1.018764541	 0.145206
H	 0.352316358	-1.1874808491	-1.8352351082	 0.096539
63.4374	196.4307	286.6775	323.9662	356.4062	456.7823	509.9422	598.3898	738.0024	784.9762	830.937	860.2379	879.2409	892.4034	915.2829	943.279	969.9216	1001.4952	1022.9775	1082.7529	1107.4274	1122.7003	1148.5897	1155.9768	1167.7613	1208.9277	1254.4563	1264.1997	1280.1898	1320.2089	1357.9695	1428.5231	1458.8442	1533.4817	1683.9639	3066.0371	3088.5594	3095.1815	3116.6087	3126.5346	3181.1727	3217.9937
C1OC11CC2OC=NC12	C1O[C@]21C[C@H]1OC=N[C@@H]21	
InChI=1S/C6H7NO2/c1-4-5(7-3-8-4)6(1)2-9-6/h3-5H,1-2H2	InChI=1S/C6H7NO2/c1-4-5(7-3-8-4)6(1)2-9-6/h3-5H,1-2H2/t4-,5-,6+/m1/s1
