16
gdb 17027	6.92296	1.32313	1.27803	3.9012	70.63	-0.2369	0.0206	0.2576	966.2433	0.13118	-342.716437	-342.709398	-342.708454	-342.747481	26.904	
N	-0.6380242704	-1.1367923841	 0.1818450489	-0.337897
C	-0.3878995	-0.0078365064	 0.1820027518	 0.267333
C	-0.0898012333	 1.4114283589	 0.160618521	-0.123805
C	-0.050119111	 2.2175968036	 1.499951648	-0.013557
C	 1.2512391879	 1.4561064557	 1.8816884222	-0.271063
C	 1.3763176057	 1.9013811828	 0.3967105691	-0.013527
N	 0.7384376501	 3.245271345	 0.7058417045	-0.113007
C	 1.5202599401	 4.2410154187	 1.4310888827	-0.334349
H	-0.6024560396	 1.9290373478	-0.6505802931	 0.129512
H	-0.9041075577	 2.4910317843	 2.1204755146	 0.099728
H	 1.9133403941	 1.9351014395	 2.6004303215	 0.113567
H	 1.1694025075	 0.3861286764	 2.0825887261	 0.13374
H	 2.2154201709	 1.7995255676	-0.2922386056	 0.099718
H	 2.2132365238	 4.7103563164	 0.7255958217	 0.129819
H	 0.8363240999	 5.0174877204	 1.7882115946	 0.129829
H	 2.1041491922	 3.8823056833	 2.2913832719	 0.103959
143.6302	155.7469	181.7907	316.6233	341.7029	471.0419	500.9945	549.9151	606.7896	736.1727	762.5412	804.5642	898.4313	904.0373	909.4424	1002.418	1024.9209	1054.5041	1081.2626	1108.6937	1137.7584	1149.9418	1185.4559	1186.9403	1195.3627	1212.8806	1250.7409	1277.1036	1341.5668	1446.5473	1484.0113	1499.7577	1533.7405	2355.2472	2993.6753	3070.9725	3087.8874	3104.3801	3113.9264	3114.9762	3124.1293	3158.9856
N#CC1C2CC1N2C	N#C[C@H]1[C@H]2C[C@@H]1N2C	
InChI=1S/C6H8N2/c1-8-5-2-6(8)4(5)3-7/h4-6H,2H2,1H3	InChI=1S/C6H8N2/c1-8-5-2-6(8)4(5)3-7/h4-6H,2H2,1H3/t4-,5+,6-
