15
gdb 44991	3.78302	1.19503	1.03072	2.4236	70.75	-0.2626	-0.0355	0.2272	1117.6963	0.113421	-416.828093	-416.820588	-416.819644	-416.860412	28.416	
O	-0.0484744261	 0.446916673	 1.0856788877	-0.288983
C	-0.0498227419	 1.3472593136	 0.2938676983	 0.394601
C	-1.3053798981	 2.0500029589	-0.2576692125	-0.324308
C	-0.7893066453	 3.2771248636	-0.9689322925	-0.085801
N	 0.0246018333	 4.1369893952	-0.1032406375	-0.355976
C	 0.7160560282	 3.2146500885	-1.0372487037	 0.197287
C	 1.2115576617	 1.960031443	-0.3468198268	-0.381293
C	 1.4249852049	 3.7582054481	-2.1608637212	 0.196143
N	 2.0062980598	 4.2021103664	-3.0574768397	-0.333065
H	-1.8162756132	 1.3689888014	-0.9487001519	 0.142167
H	-1.9942030923	 2.2783413363	 0.5593106533	 0.152591
H	-1.3491083179	 3.7230047232	-1.783420875	 0.12247
H	 0.0532810288	 5.0862250924	-0.4688683794	 0.256404
H	 1.9659761514	 2.1578303214	 0.4176563807	 0.156901
H	 1.6318209265	 1.2446759851	-1.0626094697	 0.150863
75.3415	146.4943	165.1392	326.6396	391.5638	436.467	471.4424	488.9889	565.2696	580.6176	644.678	703.4319	770.7326	809.3215	838.4245	912.103	963.3597	1008.9066	1068.2314	1082.5056	1106.3602	1142.0923	1175.2399	1213.3642	1226.3765	1274.7654	1305.024	1341.7645	1414.0283	1440.8212	1447.9159	1862.6032	2350.606	3051.9347	3060.0796	3112.3852	3120.6265	3181.3004	3509.258
O=C1CC2NC2(C1)C#N	O=C1C[C@H]2N[C@]2(C1)C#N	
InChI=1S/C6H6N2O/c7-3-6-2-4(9)1-5(6)8-6/h5,8H,1-2H2	InChI=1S/C6H6N2O/c7-3-6-2-4(9)1-5(6)8-6/h5,8H,1-2H2/t5-,6-/m1/s1
