12
gdb 28269	5.14754	1.33258	1.07223	0.3949	56.19	-0.1898	0.0101	0.1999	1006.7665	0.078728	-509.736156	-509.729482	-509.728538	-509.76728	24.918	
O	-0.114711291	 1.2275614926	 0.1500622788	-0.382866
C	 0.0632944407	-0.079695975	 0.0094775002	 0.450902
N	 1.1860903978	-0.7442394248	-0.0284635522	-0.455307
C	 0.7212569208	-2.0416779741	-0.0146008373	 0.265353
C	-0.6093896878	-2.0812522645	 0.0425266974	 0.2447
O	-1.1374180443	-3.2547229926	-0.4182862218	-0.268152
C	 0.0504911496	-4.0873572461	-0.295204497	 0.012442
O	 1.227239119	-3.2534728308	-0.4076851794	-0.264497
O	-1.0961834337	-0.8024592253	 0.0069247357	-0.200321
H	 0.7631362825	 1.6269291407	 0.20793921	 0.329426
H	 0.0421353928	-4.5416511621	 0.7056424495	 0.121378
H	 0.0497945035	-4.8300809779	-1.0917971939	 0.146942
128.6689	246.6681	272.3368	311.6199	333.3697	406.3836	553.1375	582.329	596.925	714.6429	735.1156	765.7807	864.4256	869.8283	964.3891	1041.3173	1125.526	1141.9062	1182.2538	1245.9535	1332.0503	1393.8298	1448.9185	1474.332	1513.0267	1631.0363	1723.1035	3003.9949	3149.6156	3805.2589
OC1=NC2=C(OCO2)O1	Oc1nc2c(OCO2)o1	
InChI=1S/C4H3NO4/c6-4-5-2-3(9-4)8-1-7-2/h1H2,(H,5,6)	InChI=1S/C4H3NO4/c6-4-5-2-3(9-4)8-1-7-2/h1H2,(H,5,6)
