20
gdb 85436	2.4981	1.42434	1.11785	3.5964	78.45	-0.2348	-0.0164	0.2184	1157.545	0.171008	-403.15978	-403.151213	-403.150269	-403.193071	33.173	
C	 0.2658335405	 1.7470069702	-0.0604357413	-0.393727
C	 0.0437128137	 0.2344263732	 0.0829324405	-0.085157
C	 0.644100015	-0.5476050023	-1.1024683073	-0.329074
C	 2.0934842202	-0.8451760581	-0.6932407652	 0.403963
O	 2.9815548804	-1.1715313052	-1.4355779079	-0.310598
C	 2.2141418365	-0.6503793847	 0.8246902498	-0.388969
C	 0.7959307229	-0.3571685631	 1.2848554012	 0.347253
C	 0.4168109018	-0.0617787553	 2.6820409519	-0.304568
N	 0.1634831169	-1.4022378132	 2.112573141	-0.359611
H	 1.3280155794	 1.9877199126	-0.1819128931	 0.123504
H	-0.2601975675	 2.1341522149	-0.9389665127	 0.11974
H	-0.0982346819	 2.2871723424	 0.8184931569	 0.11913
H	-1.031208157	 0.0462125898	 0.1860605019	 0.069087
H	 0.1433245597	-1.5166385348	-1.2269529667	 0.132655
H	 0.6030028179	-0.0331045308	-2.0654304311	 0.124167
H	 2.636624794	-1.5371093918	 1.3025806212	 0.144998
H	 2.8992378014	 0.1855353057	 1.0120261577	 0.132514
H	 1.1745411919	-0.0312079862	 3.460607267	 0.119785
H	-0.4313571613	 0.5967298829	 2.8561466735	 0.10918
H	-0.8235123144	-1.4858915763	 1.8769892328	 0.225729
64.9016	108.3528	213.1609	227.3577	278.6194	319.5426	369.8392	458.1044	460.2562	493.1579	518.5362	633.2452	732.2252	761.8379	807.2849	841.5822	895.7227	920.534	942.5369	953.9876	978.0902	1021.2095	1061.1136	1084.9623	1097.6096	1130.8302	1142.1743	1184.777	1211.891	1242.9409	1247.25	1271.1316	1303.3624	1322.9764	1349.4478	1410.5193	1412.1098	1439.5155	1452.2674	1495.6302	1497.5585	1514.6245	1850.1531	3028.4107	3032.6716	3040.9417	3044.1706	3098.8434	3100.6495	3107.3014	3110.3377	3113.6588	3183.7636	3479.9554
CC1CC(=O)CC11CN1	C[C@H]1CC(=O)C[C@]21CN2	
InChI=1S/C7H11NO/c1-5-2-6(9)3-7(5)4-8-7/h5,8H,2-4H2,1H3	InChI=1S/C7H11NO/c1-5-2-6(9)3-7(5)4-8-7/h5,8H,2-4H2,1H3/t5-,7+/m0/s1
