22
gdb 7179	5.81288	0.75235	0.70236	2.8442	79.88	-0.2471	-0.0191	0.228	1643.7668	0.197328	-350.228652	-350.218271	-350.217327	-350.265032	36.058	
C	 0.1309411141	 1.6165158157	 0.0591105494	-0.378755
C	-0.0185022408	 0.0929065669	 0.0095555583	-0.179309
C	 0.6171362926	-0.5212554119	-1.2437779692	-0.160384
C	 0.5973234693	-2.0597857419	-1.2996809759	 0.011932
C	-0.8274736586	-2.6330403277	-1.3366424143	-0.391884
C	 1.4157956528	-2.5607329867	-2.5103031469	-0.276834
C	 1.6637375669	-4.0503321368	-2.4659190155	 0.158681
O	 1.3989421363	-4.8303217961	-3.3441721971	-0.242258
H	 1.1861713563	 1.9116044918	 0.0569075474	 0.114058
H	-0.3448635858	 2.0892942744	-0.8073171946	 0.115438
H	-0.3298062941	 2.0335213044	 0.9599009284	 0.112896
H	 0.4431886614	-0.3495851053	 0.902618976	 0.094495
H	-1.0826806131	-0.1655510178	 0.0567086203	 0.101787
H	 0.1159109674	-0.1242000442	-2.138289214	 0.094496
H	 1.6603495652	-0.1826748617	-1.3077277906	 0.089048
H	 1.0928233354	-2.4317368862	-0.3896834399	 0.075076
H	-0.8184311845	-3.7254639066	-1.4075921719	 0.124899
H	-1.3939721993	-2.3658214027	-0.4408436171	 0.119963
H	-1.3750747728	-2.253432279	-2.2074864905	 0.119279
H	 0.9250178523	-2.3130793244	-3.4571827697	 0.116856
H	 2.4017468962	-2.0729565366	-2.501127476	 0.11321
H	 2.1348852227	-4.4009649477	-1.5154886465	 0.067311
52.471	58.1191	71.7221	114.1013	145.5185	235.0929	246.3968	263.3311	305.3883	343.1607	412.4658	486.3429	534.8	743.0647	779.0423	846.6737	874.2433	910.4589	940.6757	973.252	1016.4022	1032.5456	1053.4396	1079.8852	1150.5478	1159.8415	1181.799	1227.9066	1260.8877	1280.0879	1319.2496	1328.1195	1368.019	1374.4769	1395.6909	1411.6923	1420.1256	1430.1333	1459.6952	1480.5914	1493.4114	1498.3874	1499.3135	1505.1116	1511.0769	1834.5551	2837.2734	2986.773	3000.4597	3008.3377	3018.2196	3029.5193	3032.4942	3033.7237	3061.7368	3088.1647	3096.349	3096.8727	3102.9482	3114.8968
CCCC(C)CC=O	CCC[C@@H](C)CC=O	
InChI=1S/C7H14O/c1-3-4-7(2)5-6-8/h6-7H,3-5H2,1-2H3	InChI=1S/C7H14O/c1-3-4-7(2)5-6-8/h6-7H,3-5H2,1-2H3/t7-/m1/s1
