21
gdb 119036	2.54996	1.00262	0.81735	1.3076	75.27	-0.2575	0.0746	0.332	1471.4613	0.179947	-461.335915	-461.325302	-461.324358	-461.371936	38.042	
C	 2.2523843665	 0.9022056239	-0.373507537	-0.430302
C	 1.3797519896	-0.2911662909	-0.0803501718	 0.036497
O	 1.8782610826	-1.2668387477	 0.8454589583	-0.30868
C	 0.6536111036	-0.5668484229	 1.1781262757	 0.333571
C	 0.8210300812	 0.320744878	 2.4043704602	-0.142265
O	 1.3437827255	-0.4228831823	 3.4943595478	-0.414518
C	-0.5933866939	-1.4292866758	 1.1271039709	-0.25279
C	-0.7125695415	-2.4257560437	 2.2791351665	-0.083299
O	-1.8958161619	-3.1794993289	 2.0463336351	-0.422998
H	 2.723067309	 1.3028259181	 0.5257817055	 0.130258
H	 3.0486517118	 0.6141244177	-1.0678759816	 0.132766
H	 1.6669977559	 1.6964594365	-0.8493303527	 0.126636
H	 0.942630524	-0.7409600153	-0.9750653382	 0.089437
H	 1.4594159879	 1.1848938798	 2.180483278	 0.093201
H	-0.1524226788	 0.7051705513	 2.7251034077	 0.112151
H	 2.1147324118	-0.8872183699	 3.1447910619	 0.29405
H	-1.4806433462	-0.7838421637	 1.1242665056	 0.106662
H	-0.6053079146	-1.9942107951	 0.1893126466	 0.110869
H	 0.1789801381	-3.070643779	 2.2918994175	 0.095641
H	-0.7499168916	-1.9020031471	 3.24296331	 0.107711
H	-1.9991789787	-3.8011497433	 2.772393204	 0.2854
69.6964	80.962	108.2686	133.5661	152.7673	230.3928	260.059	271.4144	297.7295	326.1183	366.0148	460.7546	482.7389	537.561	569.6538	729.598	798.5641	838.9352	917.6321	956.9761	971.1879	999.5595	1044.8226	1066.2189	1080.7857	1097.0597	1120.4815	1167.335	1203.121	1227.8029	1245.4335	1281.3161	1313.52	1337.3137	1356.1351	1386.6278	1407.2198	1435.4151	1461.9884	1462.2066	1479.8706	1489.1266	1502.162	1513.8051	1525.1391	2991.3976	3019.6972	3034.711	3037.8187	3040.6717	3078.0791	3080.7977	3087.9909	3100.7502	3137.1481	3780.9418	3832.4
CC1OC1(CO)CCO	C[C@H]1O[C@]1(CO)CCO	
InChI=1S/C6H12O3/c1-5-6(4-8,9-5)2-3-7/h5,7-8H,2-4H2,1H3	InChI=1S/C6H12O3/c1-5-6(4-8,9-5)2-3-7/h5,7-8H,2-4H2,1H3/t5-,6+/m1/s1
