19
gdb 59819	3.66526	0.67098	0.60003	3.1849	81.83	-0.2675	-0.0028	0.2647	1863.6737	0.156353	-419.214751	-419.204337	-419.203393	-419.251916	35.948	
C	 0.3330814902	 1.2948377488	-0.207333269	-0.369124
C	-0.1105824069	-0.150194551	 0.0462809477	 0.053448
C	 0.2736606556	-0.6197393097	 1.4537982645	-0.370007
N	-1.5611024761	-0.2294047846	-0.0957476219	-0.199086
C	-2.0275413381	-0.9849435002	-0.9775605213	 0.12155
O	-3.3786163425	-1.0737746565	-1.151730461	-0.194031
C	-3.8142697146	-1.981049827	-2.1449985311	-0.21281
C	-3.701506291	-3.3881374521	-1.7250872155	 0.260026
N	-3.6032272694	-4.4923129151	-1.4011065345	-0.287156
H	 1.4171553964	 1.3893677733	-0.0897221405	 0.112224
H	 0.0670944665	 1.6141605267	-1.2193489561	 0.11176
H	-0.1553860763	 1.9711897917	 0.5006565763	 0.128733
H	 0.3918694958	-0.8041980526	-0.6890969809	 0.060907
H	-0.2160844813	 0.00343951	 2.2081814879	 0.128307
H	-0.0352179831	-1.6561083347	 1.6175443307	 0.118868
H	 1.3569236242	-0.5553739634	 1.596742986	 0.111518
H	-1.4403728864	-1.6110399582	-1.6660952877	 0.09071
H	-4.8648329202	-1.7469813514	-2.3331208138	 0.176716
H	-3.2648403627	-1.848485694	-3.0865125797	 0.157449
27.4617	43.7532	92.1622	157.9992	203.9745	220.6432	252.0775	260.898	307.4949	366.4693	376.5318	464.344	479.9151	530.2518	643.9399	852.669	910.8659	931.4701	956.0185	967.6179	972.1455	1008.0585	1072.2126	1135.2864	1160.3035	1182.3856	1208.0036	1304.9434	1354.0804	1365.8825	1391.5816	1395.2191	1414.4966	1422.9515	1474.9576	1481.0299	1487.2574	1494.2439	1510.7757	1779.7766	2364.162	2931.7757	3002.5864	3028.6906	3035.6904	3039.9145	3109.5848	3110.7493	3112.7186	3114.7656	3118.4546
CC(C)N=COCC#N	CC(C)N=COCC#N	
InChI=1S/C6H10N2O/c1-6(2)8-5-9-4-3-7/h5-6H,4H2,1-2H3	InChI=1S/C6H10N2O/c1-6(2)8-5-9-4-3-7/h5-6H,4H2,1-2H3
