21
gdb 112165	2.32814	1.19639	1.03308	2.8851	79.02	-0.2331	-0.0149	0.2182	1281.9192	0.179585	-424.235874	-424.225609	-424.224665	-424.271104	37.622	
C	-0.435030126	 1.5408149954	 0.026314232	-0.448398
C	-0.0768837084	 0.0569036725	-0.0478400682	 0.167733
C	-1.2617071892	-0.810606393	 0.4072559918	-0.431051
C	 0.6028402497	-0.5253411202	-1.348744201	-0.024184
C	 1.109211392	 0.4836328295	-2.3643386762	-0.102275
O	 1.8183880653	-0.2431537626	-3.3577938825	-0.420913
C	 1.7403733768	-1.1558401488	-0.4862645841	-0.357229
C	 1.2054705639	-0.3568733295	 0.708655352	 0.380776
O	 1.6352901205	-0.0807077231	 1.7922810961	-0.309257
H	 0.3879289744	 2.185773521	-0.2933849911	 0.118702
H	-1.309324144	 1.7690038222	-0.5930867329	 0.116001
H	-0.675518781	 1.808145485	 1.05996799	 0.133191
H	-2.1221935773	-0.6526534441	-0.2523317068	 0.119516
H	-1.0170084295	-1.8775878857	 0.3883272869	 0.118583
H	-1.5587475582	-0.5509959333	 1.4281598328	 0.129969
H	-0.018535036	-1.2571508263	-1.8707258775	 0.079104
H	 0.2641181093	 1.0383655274	-2.8015155475	 0.09012
H	 1.7663309083	 1.2205488381	-1.8741853933	 0.086771
H	 2.1815039623	 0.3846220415	-3.9894521665	 0.287852
H	 1.657354452	-2.2371931573	-0.3419218631	 0.130219
H	 2.7655717049	-0.9313873086	-0.791502081	 0.134772
47.4501	113.6754	162.575	171.2933	195.2677	230.9536	267.7525	275.0235	304.4395	322.5504	408.6845	435.622	504.8499	540.3821	652.4985	720.9531	818.6558	859.7841	893.5179	950.7901	968.7105	991.8481	1019.8928	1054.8087	1076.056	1079.2412	1148.5041	1166.8572	1183.2071	1226.1503	1241.7358	1254.4469	1273.6813	1295.7708	1361.4728	1395.4079	1416.6722	1440.4001	1461.4918	1481.5758	1485.5366	1501.3619	1505.8144	1522.7702	1882.4246	2961.7455	2993.0113	3026.9316	3034.1627	3061.8225	3078.8706	3095.936	3101.2387	3106.6912	3112.0378	3115.9296	3827.8302
CC1(C)C(CO)CC1=O	CC1(C)[C@@H](CO)CC1=O	
InChI=1S/C7H12O2/c1-7(2)5(4-8)3-6(7)9/h5,8H,3-4H2,1-2H3	InChI=1S/C7H12O2/c1-7(2)5(4-8)3-6(7)9/h5,8H,3-4H2,1-2H3/t5-/m1/s1
