20
gdb 55921	3.9955	0.93667	0.88415	3.0166	79.67	-0.2192	-0.01	0.2091	1380.2573	0.169231	-403.11504	-403.105891	-403.104947	-403.150357	33.432	
C	 0.549761554	 0.341897891	-0.7047773329	-0.462709
C	-0.2738625173	 0.4174067645	 0.5652959349	 0.373897
O	 0.0148359309	 1.1474342651	 1.4848203565	-0.295159
C	-1.5344316624	-0.4519964008	 0.6307546154	-0.258786
N	-1.3906827936	-1.7248317146	-0.0484223736	-0.089143
C	-0.6904511287	-2.8508352168	 0.6435637622	-0.187989
C	-1.8953519067	-3.7564374014	 0.3793770572	-0.06912
C	-3.123150223	-3.1553003673	 1.0165563167	-0.293927
C	-2.5765441023	-2.5559924361	-0.2536623844	 0.001627
H	 1.3024670006	 1.1312639717	-0.6981481762	 0.133417
H	 1.0397321357	-0.6348826677	-0.7742225726	 0.14774
H	-0.0899052373	 0.424024663	-1.5890325669	 0.136366
H	-1.8307120989	-0.5189834879	 1.6898509013	 0.104989
H	-2.323257167	 0.112340985	 0.1119255695	 0.12467
H	 0.2266881481	-3.1416095947	 0.1210754544	 0.108481
H	-0.4559143407	-2.6686810284	 1.7013165182	 0.105444
H	-1.8506352953	-4.7772132188	 0.0259228094	 0.096878
H	-4.0349488756	-3.7315692421	 0.8935119715	 0.115808
H	-3.0505141023	-2.6286390506	 1.96452789	 0.112876
H	-3.1562039485	-2.4722079632	-1.1670393805	 0.094642
38.1008	55.3346	107.7718	118.8671	206.1227	310.0118	385.6843	417.5125	460.931	501.271	549.1905	705.2791	782.9644	786.7699	802.2406	849.7428	881.6673	928.0554	960.2977	972.275	1003.8938	1017.8746	1052.0045	1064.4319	1073.157	1103.0199	1128.6775	1155.4837	1186.2912	1221.9629	1245.1448	1266.177	1278.2525	1311.5136	1347.5338	1369.613	1382.2446	1451.1006	1458.87	1469.4047	1479.6934	1509.8215	1815.1807	2974.1089	3008.3458	3029.5332	3045.918	3065.7416	3107.4661	3114.1772	3153.4379	3160.6534	3200.6477	3212.5681
CC(=O)CN1CC2CC12	CC(=O)CN1C[C@H]2C[C@@H]12	
InChI=1S/C7H11NO/c1-5(9)3-8-4-6-2-7(6)8/h6-7H,2-4H2,1H3	InChI=1S/C7H11NO/c1-5(9)3-8-4-6-2-7(6)8/h6-7H,2-4H2,1H3/t6-,7-/m1/s1
