16
gdb 15402	4.59898	1.13182	1.0116	2.854	66.63	-0.2652	0.0033	0.2685	1138.6831	0.130304	-379.893637	-379.88546	-379.884516	-379.926887	29.144	
O	 0.3298930034	 1.2649655583	-0.3428596411	-0.418513
C	 0.086014561	-0.0799526171	 0.0081745587	-0.052279
C	-1.3979844078	-0.3377243681	 0.2591239445	-0.161779
N	-2.1310904355	-0.0024636004	-0.9673056013	-0.092935
C	-2.4697493498	-1.0820236799	-1.8757504793	-0.239461
C	-3.5400056905	-0.3894568625	-1.0821812309	-0.144513
C	-4.1940403826	-1.1102393407	-0.0159365067	 0.287022
N	-4.7289975965	-1.6637699555	 0.8473749236	-0.330571
H	-0.3345418354	 1.49085454	-1.0056680554	 0.289127
H	 0.4502351896	-0.7745718315	-0.7683184475	 0.086101
H	 0.6523088139	-0.2857366989	 0.9222355615	 0.114906
H	-1.564576058	-1.3764505894	 0.5828490537	 0.109417
H	-1.7542576789	 0.3283817	 1.0513786439	 0.130771
H	-2.3837672317	-0.8697251072	-2.9371583259	 0.138674
H	-2.2232020384	-2.0998407241	-1.5796035976	 0.139986
H	-4.1767747829	 0.3435787769	-1.56965059	 0.144048
58.3836	106.9302	139.8214	199.6543	245.628	336.348	404.8693	439.64	503.5609	557.0844	646.6794	730.6826	806.3041	891.4757	909.8793	948.6199	1027.2839	1030.9215	1094.2013	1112.968	1120.0252	1130.9047	1163.5978	1227.7805	1281.6371	1314.6891	1368.3818	1380.7048	1383.5563	1438.5442	1479.3911	1506.7008	1508.2962	2352.7908	2958.7954	2993.1459	3076.471	3087.6457	3105.1126	3149.8072	3199.7303	3778.1582
OCCN1CC1C#N	OCCN1C[C@H]1C#N	
InChI=1S/C5H8N2O/c6-3-5-4-7(5)1-2-8/h5,8H,1-2,4H2	InChI=1S/C5H8N2O/c6-3-5-4-7(5)1-2-8/h5,8H,1-2,4H2/t5-,7?/m1/s1
