23
gdb 88600	2.67082	1.08323	0.91559	2.572	87.23	-0.2102	0.0693	0.2796	1412.5216	0.204492	-384.412532	-384.40213	-384.401186	-384.448845	38.026	
C	-0.4868935992	 1.8520991024	 0.4400623119	-0.390907
C	 0.2111179038	 0.672263873	-0.1943366245	-0.002104
N	 1.5412584147	 0.903672979	-0.7774452926	-0.343964
C	 1.4110286269	-0.0065749907	 0.3802456052	-0.039403
C	 2.0785096098	 0.4412722033	 1.644366474	-0.009231
C	 1.9443948388	-0.3106277842	 2.9349812751	-0.006388
C	 1.1116660032	-1.5692605596	 3.0737660774	-0.413611
N	 3.2284199386	-0.2560486056	 2.2338564406	-0.112368
C	 3.7915027242	-1.4416831103	 1.6088752105	-0.31383
H	 0.2201700502	 2.5057796611	 0.9541728413	 0.130309
H	-0.9973165213	 2.4487127588	-0.3236985578	 0.118645
H	-1.2387750577	 1.5167241572	 1.162742846	 0.114908
H	-0.4573426564	 0.0159115635	-0.7522342556	 0.078022
H	 1.658512272	 0.3756483121	-1.6377013014	 0.228576
H	 1.4780303427	-1.0697113243	 0.1669879247	 0.078327
H	 2.177712496	 1.5235741324	 1.6942512142	 0.093911
H	 1.948794697	 0.285855042	 3.8482647474	 0.084635
H	 1.0128875281	-2.1333322496	 2.1447281365	 0.116783
H	 1.5407027708	-2.2373399181	 3.8289707063	 0.121538
H	 0.1013857205	-1.3060890847	 3.4047869272	 0.123104
H	 3.0715346721	-2.1747740145	 1.2166174569	 0.095556
H	 4.4366294389	-1.1294529999	 0.7813305562	 0.126313
H	 4.4173397162	-1.9581428334	 2.3443309705	 0.121176
19.6072	107.6612	145.9646	157.6522	173.8084	184.7745	223.4317	266.9974	321.4025	406.1307	430.2379	481.893	497.1783	592.9402	726.2242	775.0467	783.122	856.1567	878.2644	943.2112	982.0992	997.1654	1010.3238	1047.5039	1054.623	1092.8478	1126.8549	1140.2911	1156.0535	1161.6764	1170.8728	1194.4681	1227.2834	1258.5589	1275.0489	1330.2426	1350.458	1400.8806	1407.8761	1415.5942	1440.5787	1455.1602	1476.9691	1484.4921	1489.6349	1495.1645	1501.8338	1505.6857	1512.2602	2988.5379	3036.6217	3036.9161	3062.8585	3085.0586	3091.6256	3094.3333	3095.3741	3097.8422	3121.0565	3128.1225	3137.4757	3146.4218	3505.2285
CC1NC1C1C(C)N1C	C[C@H]1N[C@H]1[C@H]1[C@@H](C)N1C	
InChI=1S/C7H14N2/c1-4-6(8-4)7-5(2)9(7)3/h4-8H,1-3H3	InChI=1S/C7H14N2/c1-4-6(8-4)7-5(2)9(7)3/h4-8H,1-3H3/t4-,5-,6-,7-,9?/m1/s1
