19
gdb 58549	2.05103	1.51886	1.35703	0.8053	71.15	-0.2431	-0.0329	0.2102	1089.8958	0.155742	-460.167296	-460.157306	-460.156362	-460.202216	36.612	
C	 0.1840575009	 1.4581119509	 0.2199645838	-0.433022
C	 0.0125692355	-0.0524636992	 0.0981640168	 0.081296
O	 0.5752567177	-0.7448950057	 1.2118741672	-0.437405
C	-1.4628068291	-0.4597954781	-0.1250247488	 0.303389
O	-1.949857653	 0.17331872	-1.2884824476	-0.484976
C	-1.7141547498	-2.0001156975	-0.0015481417	-0.279548
C	-2.301026583	-1.8042217635	 1.4324417597	-0.330344
C	-2.3796789558	-0.3145368947	 1.107705829	 0.326271
O	-3.0692421366	 0.6025704696	 1.4638425735	-0.321493
H	 1.241764099	 1.7067636575	 0.3438890583	 0.12423
H	-0.1914926881	 1.9582679329	-0.6746980441	 0.138299
H	-0.3719028869	 1.8471411209	 1.0822215262	 0.124297
H	 0.5620861229	-0.4112437691	-0.7814793933	 0.101059
H	 0.4703598209	-0.1889342502	 1.9910511891	 0.287153
H	-2.617911994	 0.810818972	-1.0074020934	 0.29519
H	-2.4638445749	-2.3218295629	-0.7257258425	 0.118145
H	-0.8259339432	-2.6276313255	-0.0671838843	 0.121608
H	-3.2451550613	-2.2881767866	 1.6914798967	 0.127617
H	-1.5573062413	-2.0090657507	 2.2071163354	 0.138235
44.8754	93.9427	160.0547	209.9809	223.9582	243.6009	246.7937	280.8461	333.2651	401.3977	423.6132	445.9168	533.9405	555.759	677.0399	733.5277	749.1445	863.8472	908.9419	921.2229	955.3827	1034.4403	1050.348	1073.2004	1088.508	1129.953	1177.0624	1184.4577	1202.3921	1228.0234	1268.6574	1298.1825	1332.5171	1383.5315	1396.9517	1408.9821	1430.5992	1471.2827	1490.0631	1500.6785	1864.7153	3027.7395	3035.2768	3069.8634	3089.5958	3105.2039	3127.8551	3138.4079	3156.7101	3779.1112	3811.5962
CC(O)C1(O)CCC1=O	C[C@@H](O)[C@@]1(O)CCC1=O	
InChI=1S/C6H10O3/c1-4(7)6(9)3-2-5(6)8/h4,7,9H,2-3H2,1H3	InChI=1S/C6H10O3/c1-4(7)6(9)3-2-5(6)8/h4,7,9H,2-3H2,1H3/t4-,6+/m1/s1
