22
gdb 118432	2.18091	0.98016	0.76589	3.7764	80.15	-0.2365	0.0284	0.2649	1595.8737	0.191252	-441.515054	-441.503492	-441.502548	-441.5529	39.871	
C	-0.0239231945	 1.6513877898	 0.0818765744	-0.383219
C	 0.0080301693	 0.1255879095	-0.0363127228	-0.169134
C	-1.3859764019	-0.5033660098	 0.0561661856	-0.179091
C	-1.3656597867	-2.0364697692	-0.0228350532	 0.022838
O	-0.6228952027	-2.5034587527	 1.0704809422	-0.226396
C	-0.3668018086	-3.8935414666	 1.0606752434	-0.243239
C	-2.8126495935	-2.5807232915	-0.0056408497	 0.363666
N	-3.4276721932	-2.5780778969	-1.2259270665	-0.52003
O	-3.3600366517	-2.966415582	 1.0061755577	-0.355245
H	 0.9826681262	 2.075738816	 0.0152065981	 0.112527
H	-0.6281342442	 2.1022742848	-0.7138155122	 0.109025
H	-0.4541526003	 1.9645740087	 1.0394618746	 0.11872
H	 0.4712228034	-0.1605772789	-0.9905466391	 0.085873
H	 0.6367671377	-0.3002504528	 0.7513427103	 0.121707
H	-1.8621241618	-0.2287213333	 1.0050437059	 0.122546
H	-2.0279355314	-0.1152450588	-0.7445799728	 0.08727
H	-0.8854966191	-2.3499237612	-0.9696234822	 0.056315
H	 0.2720153862	-4.103082051	 1.9216619942	 0.12707
H	-1.2908151184	-4.4761552591	 1.1510942022	 0.132752
H	 0.1648046962	-4.1967167231	 0.1444584144	 0.095789
H	-2.98368329	-2.2188775299	-2.0527091376	 0.25855
H	-4.4030539811	-2.8243382221	-1.2705198671	 0.261707
38.7139	84.0978	94.6835	107.0004	126.3813	142.0806	188.2472	240.6356	247.319	286.4233	313.0242	331.5127	457.7795	508.1498	570.0711	650.1894	738.8536	747.1522	830.2493	866.0003	918.1784	976.8247	1031.9038	1060.7121	1081.9123	1122.5388	1148.0681	1171.171	1180.0345	1233.0384	1252.3327	1282.6077	1307.2458	1331.3567	1351.297	1393.0879	1400.5134	1414.5012	1474.9358	1480.8938	1485.4458	1494.3649	1499.9943	1510.6923	1511.7547	1614.3047	1805.7917	2917.9464	2978.8258	3016.6222	3026.6639	3030.0919	3064.5377	3068.1755	3081.1608	3102.4989	3103.0033	3121.0791	3599.801	3735.5242
CCCC(OC)C(N)=O	CCC[C@@H](OC)C(=O)N	
InChI=1S/C6H13NO2/c1-3-4-5(9-2)6(7)8/h5H,3-4H2,1-2H3,(H2,7,8)	InChI=1S/C6H13NO2/c1-3-4-5(9-2)6(7)8/h5H,3-4H2,1-2H3,(H2,7,8)/t5-/m1/s1
