20
gdb 65932	2.11177	1.60852	1.32187	1.5047	84.94	-0.2394	0.0398	0.2792	1101.107	0.169584	-365.944909	-365.935783	-365.934839	-365.978331	35.42	
C	-0.1002999485	 1.5537655454	 0.0574702114	-0.441399
C	-0.0138320072	 0.019896924	 0.009691723	 0.05566
C	 1.1700899851	-0.4882538785	-0.8951115359	-0.262706
C	 2.0305630058	-0.7484296057	 0.3747044572	-0.297084
C	 0.7678956429	-0.5783600848	 1.2212181466	 0.328938
C	 0.5517473545	-0.3057540554	 2.6558956042	-0.31164
N	 0.2700428916	-1.6389485685	 2.0833024298	-0.362998
C	-1.3158073544	-0.5755655441	-0.2309407682	 0.26947
C	-2.3947102782	-1.0873665031	-0.3845384241	-0.445796
H	 0.8847281951	 1.9848789314	 0.2613098177	 0.117869
H	-0.4589827017	 1.9486462689	-0.8979965933	 0.124897
H	-0.7875428483	 1.8838484944	 0.8416252678	 0.124334
H	 0.9125734374	-1.4066547815	-1.4242074095	 0.11801
H	 1.5468861847	 0.2445738732	-1.6117628101	 0.103083
H	 2.5023054433	-1.7295597797	 0.449849822	 0.117264
H	 2.7844077337	 0.023214198	 0.5545014378	 0.104776
H	 1.3952169403	-0.2694382464	 3.3410916419	 0.116738
H	-0.2855210197	 0.3301215671	 2.9357791204	 0.111357
H	-0.7323766325	-1.7547120235	 1.9372560917	 0.233351
H	-3.345228824	-1.5327017711	-0.5467978108	 0.195875
74.8682	129.0739	174.9073	216.8289	248.6517	301.2715	309.5017	365.8448	434.8569	491.683	548.6082	586.5758	620.3176	622.8112	640.5184	747.36	846.8414	880.7362	886.4092	925.8504	938.8204	950.3945	970.6761	990.3418	1062.1119	1102.7707	1128.584	1142.5517	1172.4198	1209.1073	1239.9071	1249.125	1253.4878	1277.6908	1302.9886	1404.447	1408.6329	1473.4889	1485.6775	1491.9871	1495.5819	1514.829	2222.7211	3036.0374	3062.2442	3074.407	3097.1927	3109.5668	3114.0676	3118.7727	3138.0712	3179.9757	3468.0837	3498.3965
CC1(CCC11CN1)C#C	C[C@]1(CC[C@]21CN2)C#C	
InChI=1S/C8H11N/c1-3-7(2)4-5-8(7)6-9-8/h1,9H,4-6H2,2H3	InChI=1S/C8H11N/c1-3-7(2)4-5-8(7)6-9-8/h1,9H,4-6H2,2H3/t7-,8-/m1/s1
