18
gdb 77232	2.47672	1.13456	0.93289	3.9098	75.2	-0.2481	-0.0397	0.2084	1296.8874	0.145891	-439.106472	-439.097121	-439.096177	-439.141877	32.399	
C	-0.2966001925	 1.3924977568	-0.1063628018	-0.407637
C	 0.10276264	-0.0743180482	-0.0702444409	 0.0336
C	 1.027233447	-0.5898855279	-1.2090227621	-0.135599
C	 2.0863617201	-0.97607602	-0.1169909713	-0.189346
N	 1.1780293243	-0.4204979842	 0.8829332036	-0.049801
C	 1.1582411377	-0.6909288531	 2.2104127638	 0.129388
O	 2.0546661138	-1.250180454	 2.8073977731	-0.326538
C	 0.5203487757	-1.7535810092	-2.0206554874	 0.146847
O	-0.5636780036	-2.2617122138	-1.8885684821	-0.234189
H	 0.5783653002	 2.0366675791	-0.2386533331	 0.122541
H	-0.9927122684	 1.5722022019	-0.9324138909	 0.130362
H	-0.7970802362	 1.684677994	 0.8219300996	 0.13069
H	-0.7788331001	-0.7148054426	 0.0409444849	 0.117308
H	 1.3903094792	 0.1897037765	-1.8857648254	 0.104538
H	 2.2645571559	-2.0495719586	 0.0098440792	 0.135732
H	 3.0495026437	-0.4636754188	-0.1887529191	 0.131099
H	 0.230633449	-0.3254327952	 2.6965393842	 0.072877
H	 1.2480786941	-2.1424900624	-2.7684639645	 0.088129
37.7592	80.559	110.635	168.4853	196.0217	239.0371	247.339	323.4676	354.6379	429.4401	550.9906	649.0828	740.7776	799.7175	868.8644	907.3024	927.7633	1012.045	1033.424	1044.5136	1102.1385	1107.9749	1135.6788	1158.196	1181.9335	1227.7929	1251.1005	1304.0492	1348.1688	1385.2392	1398.4529	1410.1328	1424.1734	1438.5491	1488.4517	1495.8968	1518.2571	1789.9795	1826.5397	2878.9972	2927.1947	3035.2537	3043.1721	3055.4696	3067.8935	3094.0784	3108.9837	3113.1194
CC1C(CN1C=O)C=O	C[C@H]1[C@@H](CN1C=O)C=O	
InChI=1S/C6H9NO2/c1-5-6(3-8)2-7(5)4-9/h3-6H,2H2,1H3	InChI=1S/C6H9NO2/c1-5-6(3-8)2-7(5)4-9/h3-6H,2H2,1H3/t5-,6-/m0/s1
