13
gdb 50802	4.178	0.95454	0.77702	3.9909	70.35	-0.2567	-0.1084	0.1484	1341.7761	0.087208	-452.741386	-452.732544	-452.7316	-452.77591	30.504	
N	 0.0777942147	 1.4832273334	 0.0087567927	-0.474002
C	 0.0390149353	 0.2125742261	 0.0021124183	 0.300826
N	-1.118077001	-0.5476794245	 0.0088423984	-0.34488
C	-2.4396971412	-0.1280347164	 0.0245375274	 0.165041
O	-2.8319084942	 1.0062319306	 0.0351218923	-0.256393
C	 1.2670208203	-0.6931562256	-0.0145803426	 0.210609
O	 1.1604499558	-1.9021581044	-0.0203903437	-0.306846
C	 2.5501868249	-0.0267377372	-0.0229217244	 0.24421
C	 3.6356814397	 0.4936070159	-0.030141003	-0.367062
H	 1.0506679781	 1.7956266562	 0.001302741	 0.236742
H	-0.9437657957	-1.5453224602	 0.0015519339	 0.272204
H	-3.1121464968	-1.0093970735	 0.0260152352	 0.088212
H	 4.5973730502	 0.9487258995	-0.0361264055	 0.231338
46.8322	84.216	124.4476	205.8007	228.0862	251.8674	276.8194	390.3437	476.7644	503.0144	598.7271	674.6903	694.7334	704.586	718.9691	808.7696	905.5012	935.5785	965.9813	1027.3733	1169.6706	1186.0895	1324.8051	1444.887	1554.3704	1708.8459	1749.2709	1846.6525	2214.5026	2932.8869	3465.4166	3487.492	3572.0625
N=C(NC=O)C(=O)C#C	N=C(NC=O)C(=O)C#C	
InChI=1S/C5H4N2O2/c1-2-4(9)5(6)7-3-8/h1,3H,(H2,6,7,8)	InChI=1S/C5H4N2O2/c1-2-4(9)5(6)7-3-8/h1,3H,(H2,6,7,8)
