15
gdb 125037	2.34881	1.90646	1.05977	3.226	72.91	-0.2297	-0.0602	0.1694	1057.4418	0.113722	-450.151616	-450.143475	-450.14253	-450.184196	30.395	
C	-0.0041330724	 1.555030796	 0.0285629733	-0.528205
C	 0.0068569757	 0.055099462	 0.013648009	 0.053698
C	-1.1364172414	-0.7096405643	 0.0523817051	 0.364033
N	-2.3935111329	-0.1815297169	 0.1380941939	-0.553913
N	-1.1476054006	-2.0994071827	 0.04546673	-0.279774
N	-0.0466779734	-2.7359591026	 0.0068567167	-0.040597
N	 1.0874285847	-2.043563785	-0.0269841823	-0.279001
C	 1.2630845655	-0.6394826254	-0.031822718	 0.419346
O	 2.3900673085	-0.1752163516	-0.070504416	-0.39807
H	 1.0232785695	 1.9216531294	 0.0407219519	 0.16757
H	-0.5024499419	 1.9698479163	-0.8581444173	 0.125829
H	-0.5267364095	 1.9452469774	 0.9106312392	 0.133874
H	-2.5381031626	 0.7741748755	-0.1398207487	 0.265683
H	-3.1490128431	-0.823949683	-0.0416979858	 0.269809
H	 1.924940934	-2.6109772253	-0.058406341	 0.279719
109.117	135.9789	185.6493	261.1643	271.8701	347.1041	381.1077	483.0139	498.8185	525.5855	538.1135	574.3638	682.1489	691.7113	754.3691	793.0552	909.6822	945.6004	1033.439	1055.1344	1125.3223	1165.5392	1226.0011	1298.6213	1377.688	1399.1654	1434.7016	1492.0551	1495.0065	1540.0474	1616.3732	1657.9689	1783.4546	3010.8001	3059.2181	3142.3963	3595.4589	3599.4451	3722.0737
CC1=C(N)N=NNC1=O	C[C]1C(=N[N]NC1=O)N	
InChI=1S/C4H6N4O/c1-2-3(5)6-8-7-4(2)9/h1H3,(H3,5,6,7,9)	InChI=1S/C4H6N4O/c1-2-3(5)6-8-7-4(2)9/h1H3,(H3,5,6,7,9)
