19
gdb 121678	6.99516	0.5816	0.54708	3.574	80.21	-0.2485	-0.0164	0.2321	2010.1422	0.154097	-422.994996	-422.984169	-422.983225	-423.032671	36.925	
C	-0.0475600189	 1.4551742603	 0.1183536512	-0.385113
C	-0.0886844937	-0.0533661974	-0.0501079409	-0.030171
O	 0.7322314052	-0.402054593	-1.1504805284	-0.222635
C	 0.7660614543	-1.769806929	-1.4010036348	-0.156067
C	 1.6338149159	-2.0672223089	-2.6207698974	 0.358396
O	 2.0714684393	-1.2144737168	-3.3416212985	-0.254568
C	 1.9015194681	-3.5724503357	-2.8254306118	-0.48324
C	 2.3652728584	-3.9223995065	-4.1559374013	 0.318961
C	 2.7429846195	-4.2155934306	-5.2569943294	-0.421041
H	 0.9762315807	 1.7918050293	 0.3026980005	 0.132217
H	-0.4134749251	 1.9505844075	-0.7849743666	 0.133972
H	-0.6730821076	 1.7600816419	 0.9624996608	 0.115503
H	 0.2682860013	-0.5577104566	 0.8639758403	 0.087304
H	-1.1219387698	-0.3980700595	-0.2253776042	 0.088489
H	 1.1554542842	-2.3428611572	-0.5380367586	 0.10286
H	-0.242844985	-2.1792020991	-1.603729559	 0.110181
H	 2.6494255965	-3.8609718308	-2.0719074833	 0.160561
H	 0.9961824899	-4.1368761495	-2.5651996908	 0.144329
H	 3.0778869968	-4.4671013284	-6.2326529579	 0.200063
29.1619	55.2409	73.9616	94.6058	138.3534	162.5292	243.5945	279.2541	319.7574	323.5516	392.7715	463.5487	483.2139	626.4317	643.2899	707.3764	809.5563	824.2901	865.6095	924.7348	957.2455	1029.3994	1046.4852	1078.1327	1153.5983	1185.707	1196.3243	1211.8604	1269.212	1296.9995	1329.7218	1382.596	1405.835	1436.6039	1442.4116	1482.9012	1486.3797	1499.8517	1531.6074	1851.6705	2250.8765	2921.661	2940.6909	2955.792	2980.1738	3008.8836	3042.4922	3047.9618	3122.4828	3127.0992	3507.3339
CCOCC(=O)CC#C	CCOCC(=O)CC#C	
InChI=1S/C7H10O2/c1-3-5-7(8)6-9-4-2/h1H,4-6H2,2H3	InChI=1S/C7H10O2/c1-3-5-7(8)6-9-4-2/h1H,4-6H2,2H3
