17
gdb 42916	2.91865	1.34064	1.01645	0.9778	73.77	-0.242	-0.0298	0.2122	1158.3567	0.136633	-417.939601	-417.931827	-417.930883	-417.972746	29.165	
O	-0.1549220507	 0.0514754554	-0.1709978592	-0.305486
C	-0.1089976509	 1.2319954535	 0.0119125805	 0.396619
C	-1.0918587655	 2.3594359895	-0.0899458919	-0.161443
C	-0.9074717265	 3.2610223436	 1.0867487822	-0.240328
N	 0.0394832734	 3.3857432942	-0.0131150321	-0.124602
C	 1.0482950338	 2.2624439653	 0.1615250882	-0.118277
C	 1.9687353917	 2.3022488764	 1.342996731	 0.014003
C	 3.3327970512	 1.7250572945	 1.2143913399	-0.241447
N	 3.1542947693	 3.1787346363	 1.3210790498	-0.313584
H	-1.9324076278	 2.4425954237	-0.7685967315	 0.126685
H	-1.5987108287	 4.0946567194	 1.1630074702	 0.141105
H	-0.5917839765	 2.8507095265	 2.0417183354	 0.131596
H	 1.6381514035	 2.2150274103	-0.7628976499	 0.110717
H	 1.4960658473	 2.2557558878	 2.3203667497	 0.097993
H	 3.7979346173	 1.253817713	 2.0748340141	 0.127784
H	 3.6143797109	 1.294778447	 0.2567165673	 0.120529
H	 3.2444762882	 3.6136928235	 0.4053881162	 0.238136
45.6633	132.5076	158.9732	229.8079	299.2227	360.2041	497.9708	524.022	617.271	700.8446	742.8904	809.4063	829.0974	865.6617	881.1848	933.0666	951.0772	966.0863	1021.3724	1040.647	1067.3975	1095.1228	1113.701	1130.3819	1135.0663	1163.6895	1195.2416	1216.1091	1234.7391	1249.249	1289.2553	1305.431	1324.0669	1432.7321	1504.9136	1512.8649	1893.7276	3035.7006	3112.9673	3119.3161	3141.5524	3193.3488	3199.2774	3207.8599	3494.2586
O=C1C2CN2C1C1CN1	O=C1[C@H]2CN2[C@H]1[C@H]1CN1	
InChI=1S/C6H8N2O/c9-6-4-2-8(4)5(6)3-1-7-3/h3-5,7H,1-2H2	InChI=1S/C6H8N2O/c9-6-4-2-8(4)5(6)3-1-7-3/h3-5,7H,1-2H2/t3-,4-,5+,8?/m1/s1
