20
gdb 23008	2.52098	1.13933	0.96858	1.1346	79.42	-0.2394	-0.0052	0.2342	1309.0784	0.169587	-440.224455	-440.214663	-440.213718	-440.259181	36.564	
C	 1.3719610815	 1.0995345142	-0.4948417037	-0.430016
C	 0.3148215811	 0.1131598333	-0.0463037457	 0.018228
C	 0.6438688795	-1.2684007979	 0.4419850709	-0.322844
C	 0.0865332849	-0.2530516165	 1.4203449178	-0.085753
C	 0.878547034	 0.3300162375	 2.5342274172	 0.343915
C	 2.3861244619	 0.1818633489	 2.6727455729	-0.163494
O	 3.0666455432	 1.4213688778	 2.5702885108	-0.414819
N	 0.1871115635	 0.9713522845	 3.4042381912	-0.182429
O	 1.0129451288	 1.5008853295	 4.428083409	-0.417081
H	 2.2381043793	 1.1295876373	 0.169624326	 0.151794
H	 1.7218880058	 0.8588876013	-1.504967881	 0.11523
H	 0.9589646025	 2.113751933	-0.5206959552	 0.12162
H	-0.6118975675	 0.1871203928	-0.6100555714	 0.091443
H	 0.001276353	-2.0956017754	 0.1604697611	 0.115778
H	 1.6908387733	-1.538795316	 0.5222878903	 0.119892
H	-0.9561821627	-0.3719811632	 1.6941556741	 0.100715
H	 2.5848815089	-0.3049491378	 3.6390787833	 0.119067
H	 2.7945889151	-0.4590380112	 1.8914682845	 0.109404
H	 2.7000968808	 1.9765539257	 3.269809987	 0.298626
H	 0.3732347031	 1.9421130522	 4.9957016308	 0.310725
53.4409	106.0028	165.2845	174.9591	222.1811	252.5389	301.3194	329.1428	348.232	422.9036	440.2115	474.825	522.5241	594.1802	645.9897	760.2211	829.3002	861.0856	874.0328	923.9452	940.1245	978.8742	1033.029	1067.9424	1078.6841	1079.0614	1108.4784	1150.3757	1197.7667	1203.8084	1237.4096	1297.1711	1340.7862	1373.2952	1400.7522	1424.5805	1433.0034	1451.5683	1488.5806	1490.6722	1506.0647	1511.9237	1694.5006	2998.8086	3035.3337	3090.0446	3124.1578	3125.7915	3136.8399	3141.7985	3166.8345	3217.524	3780.6958	3831.6033
CC1CC1C(CO)=NO	C[C@H]1C[C@H]1C(=NO)CO	
InChI=1S/C6H11NO2/c1-4-2-5(4)6(3-8)7-9/h4-5,8-9H,2-3H2,1H3	InChI=1S/C6H11NO2/c1-4-2-5(4)6(3-8)7-9/h4-5,8-9H,2-3H2,1H3/t4-,5+/m0/s1
