17
gdb 7213	3.74785	1.15084	0.91743	3.898	73.72	-0.2349	0.0341	0.2691	1261.0824	0.139899	-363.883071	-363.873155	-363.872211	-363.919344	33.827	
C	 0.6875696867	 1.1682130242	 0.5239424248	-0.500531
C	 0.2948831964	-0.2010033705	 0.2178489166	 0.071842
C	-0.0430511949	-1.3334917164	-0.0214981337	 0.073232
C	-0.4705703926	-2.6988225909	-0.3172533174	-0.297864
C	-1.9467347039	-2.7680535634	-0.7625079374	-0.379792
C	 0.4116372445	-3.4451721554	-1.3521780024	 0.440293
N	 1.5363378919	-2.799850173	-1.7472703279	-0.536157
O	 0.0969802176	-4.5514217277	-1.7460676491	-0.371693
H	 1.6266974897	 1.199080832	 1.0872351269	 0.149628
H	 0.8266031404	 1.7588910375	-0.3881967873	 0.149059
H	-0.0762698566	 1.6700780059	 1.127973463	 0.154273
H	-0.371243922	-3.3004283408	 0.5971704248	 0.133893
H	-2.1955380649	-3.802286395	-1.0051914867	 0.146887
H	-2.6022510448	-2.4084526704	 0.0339686435	 0.118963
H	-2.1109315314	-2.1487960658	-1.6488154085	 0.124275
H	 1.7365081317	-1.8671859512	-1.4283007951	 0.264336
H	 2.1356597421	-3.2477753591	-2.4200170041	 0.259356
28.4166	36.2818	97.4011	136.3888	228.1253	259.7884	264.3687	295.5735	320.5139	405.6319	455.3723	506.212	555.0708	619.0299	712.7462	773.0515	815.6085	990.048	1051.6038	1055.1901	1072.7602	1086.8522	1105.0131	1185.4522	1281.2114	1321.9589	1345.6282	1398.4146	1415.4332	1478.5974	1478.8393	1493.0434	1500.634	1600.8697	1797.7481	2360.038	3014.0685	3027.9033	3052.8812	3088.687	3089.8161	3125.5413	3150.1333	3596.0565	3734.4314
CC#CC(C)C(N)=O	CC#C[C@@H](C)C(=O)N	
InChI=1S/C6H9NO/c1-3-4-5(2)6(7)8/h5H,1-2H3,(H2,7,8)	InChI=1S/C6H9NO/c1-3-4-5(2)6(7)8/h5H,1-2H3,(H2,7,8)/t5-/m1/s1
