20
gdb 81692	2.54046	1.55592	1.42498	2.3732	74.95	-0.1943	0.0619	0.2562	1039.4513	0.171914	-440.249107	-440.240832	-440.239887	-440.281711	32.078	
C	-0.1245811918	 1.4654512249	 0.1929044527	-0.313518
N	-0.0714368564	 0.0259335348	 0.1209211473	-0.047122
C	-1.3495617946	-0.611053051	-0.1697517107	-0.146929
C	-1.2685533752	-2.1004840268	 0.1566121329	 0.010393
O	 0.0771842962	-2.5931488715	-0.087276289	-0.283684
C	 0.4418482939	-2.0894231289	 1.2285867561	 0.034715
C	 0.7643247506	-0.5988541004	 1.140526864	-0.156332
C	-1.0146556839	-2.3033374451	 1.6722494518	 0.108884
O	-1.5163994416	-1.3950556673	 2.6159252568	-0.418975
H	 0.891812744	 1.8739309168	 0.2301025235	 0.113998
H	-0.6129667485	 1.8651797064	-0.7033146867	 0.112873
H	-0.6739602995	 1.8468909947	 1.0757272737	 0.092675
H	-2.1871387203	-0.1875762456	 0.4167289147	 0.076032
H	-1.5872388406	-0.4608765608	-1.2317200245	 0.097354
H	-2.0329411253	-2.6924927389	-0.3536223775	 0.073323
H	 1.2391354271	-2.6691744813	 1.6994014195	 0.079188
H	 1.8191997845	-0.45502818	 0.8692664795	 0.09764
H	 0.6204579821	-0.1639041205	 2.1459181261	 0.096803
H	-1.1858515518	-3.3462258872	 1.961455972	 0.081455
H	-2.3961282588	-1.6774993923	 2.8828802078	 0.291228
79.6138	217.7883	223.5035	232.4208	266.5045	280.7938	342.1333	406.6652	410.7202	561.2306	614.4218	620.5851	783.8399	835.1274	851.7458	891.1164	903.1861	995.2083	1005.4895	1021.959	1051.2557	1068.9875	1099.0335	1142.5442	1161.7791	1174.1496	1201.5059	1222.7819	1226.6164	1253.1758	1276.4685	1300.7444	1328.1676	1343.1531	1370.7133	1390.1606	1406.2331	1439.8217	1463.855	1482.8623	1498.6009	1512.9441	1519.9468	2915.7352	2923.7788	2948.0099	3012.3193	3015.3507	3041.0186	3042.9229	3078.0886	3085.6055	3088.2452	3830.7362
CN1CC2OC(C1)C2O	CN1C[C@H]2O[C@@H](C1)[C@H]2O	
InChI=1S/C6H11NO2/c1-7-2-4-6(8)5(3-7)9-4/h4-6,8H,2-3H2,1H3	InChI=1S/C6H11NO2/c1-7-2-4-6(8)5(3-7)9-4/h4-6,8H,2-3H2,1H3/t4-,5+,6+
