20
gdb 120835	3.17774	0.71814	0.62987	4.5169	78.72	-0.2576	0.0211	0.2787	1779.8609	0.169179	-440.255245	-440.245082	-440.244138	-440.291853	35.51	
O	-0.0855059882	 1.3993430555	 0.0620286009	-0.418876
C	-0.1476891689	 0.0219101391	 0.3950520717	-0.065214
C	-1.2653677385	-0.6045199568	-0.4322695394	-0.196053
C	-1.3917495913	-2.0932095226	-0.1896499129	-0.04262
C	-2.1721073773	-2.6212852382	 1.001748508	-0.325043
C	-2.6920200178	-2.8062496007	-0.4008266758	 0.087733
O	-3.7764293523	-2.0251910911	-0.8413633346	-0.184199
C	-4.9979840422	-2.4128659165	-0.4118573623	 0.128996
N	-6.0267667195	-1.8068565253	-0.8183824549	-0.436247
H	 0.6073544172	 1.8066535154	 0.5896688814	 0.285652
H	 0.8071942471	-0.4853836482	 0.1766975141	 0.080195
H	-0.3532530766	-0.1239201981	 1.4678568488	 0.086022
H	-2.208006593	-0.1000916501	-0.2026506678	 0.125644
H	-1.0620608838	-0.4148783409	-1.4926970284	 0.114274
H	-0.5140764205	-2.6719620678	-0.4677574759	 0.091743
H	-1.8080057375	-3.48787894	 1.5424285158	 0.116998
H	-2.6846880527	-1.8851666654	 1.6125347153	 0.127879
H	-2.6707962462	-3.7999184008	-0.8423326429	 0.104479
H	-4.963584357	-3.2586092663	 0.2872824924	 0.089508
H	-6.8582285312	-2.216817241	-0.3978368033	 0.229129
51.4148	81.9133	87.722	99.8431	120.6676	193.1686	256.7106	278.0515	317.5175	421.9676	473.5766	568.3189	617.2846	781.269	802.1182	823.4177	839.4887	922.3552	949.4554	1001.8198	1035.2832	1043.6937	1049.5755	1065.2486	1084.9459	1103.3627	1138.8126	1180.1515	1185.1963	1238.4416	1243.484	1251.749	1289.8822	1308.3333	1325.6858	1381.887	1416.8432	1422.5162	1463.5917	1482.0026	1496.179	1528.0321	1746.96	2956.5979	2984.9008	3035.4005	3047.3288	3100.6938	3125.5428	3132.0822	3139.2563	3221.3	3516.8573	3831.0198
OCCC1CC1OC=N	OCC[C@H]1C[C@H]1O[CH][NH]	
InChI=1S/C6H11NO2/c7-4-9-6-3-5(6)1-2-8/h4-8H,1-3H2	InChI=1S/C6H11NO2/c7-4-9-6-3-5(6)1-2-8/h4-8H,1-3H2/t5-,6+/m0/s1
