20
gdb 112483	2.36138	1.1617	0.86241	1.0085	78.56	-0.2505	0.026	0.2765	1395.2367	0.169485	-440.280549	-440.270464	-440.26952	-440.31621	35.62	
C	 0.2677682873	 1.4351530214	-0.253603129	-0.338952
N	 0.4529398035	 0.0007714132	-0.0849624506	-0.328779
C	 0.584360616	-0.7260572714	-1.0920125164	 0.470778
O	 0.5902711355	-0.405418109	-2.4465660893	-0.301047
C	 0.8919516423	-1.7991915714	-2.8101447178	 0.099069
C	 2.2164203376	-1.8546644298	-3.5463389768	-0.070238
O	 2.1425628132	-1.1290831123	-4.7583903157	-0.419483
C	 0.8051393669	-2.209319374	-1.3136923708	-0.184952
C	 1.9805575643	-2.8668246297	-0.5986873102	-0.410862
H	 1.0165039784	 1.9644914158	 0.3454054343	 0.127259
H	 0.3393534923	 1.7778601246	-1.2925675956	 0.122064
H	-0.7144578284	 1.719375649	 0.1403186959	 0.129535
H	 0.0933750571	-2.187229401	-3.4492424916	 0.098453
H	 3.0227742413	-1.4762682884	-2.9005651166	 0.094279
H	 2.4545177953	-2.8911554178	-3.8091491234	 0.116027
H	 1.8650462908	-0.2351421902	-4.5255875538	 0.293897
H	-0.1112634334	-2.7734414633	-1.1147159169	 0.110104
H	 2.9153738035	-2.3233656661	-0.7576815183	 0.127718
H	 1.7880172545	-2.8822297118	 0.4774640416	 0.143469
H	 2.1195322619	-3.8993336778	-0.9337976392	 0.121661
65.1803	84.2772	105.5425	146.7666	173.5377	188.2577	230.4259	268.7433	329.487	424.0955	459.9487	469.5953	566.0271	657.4686	730.1813	804.4907	851.8516	913.877	996.8406	1012.0808	1032.2871	1074.2627	1087.7797	1112.5337	1132.841	1153.8763	1154.0337	1192.2984	1218.6121	1243.6974	1303.2625	1340.778	1367.0757	1401.5259	1415.5954	1434.226	1440.1012	1491.5659	1494.2702	1497.6809	1498.4465	1503.1887	1848.7415	2995.1271	3016.9119	3046.3525	3059.5723	3070.5193	3082.3503	3082.7907	3087.3915	3116.2565	3124.9876	3795.6675
CN=C1OC(CO)C1C	CN=C1O[C@@H](CO)[C@H]1C	
InChI=1S/C6H11NO2/c1-4-5(3-8)9-6(4)7-2/h4-5,8H,3H2,1-2H3	InChI=1S/C6H11NO2/c1-4-5(3-8)9-6(4)7-2/h4-5,8H,3H2,1-2H3/t4-,5+/m1/s1
