18
gdb 127375	3.76389	1.12352	1.08122	1.5159	78.57	-0.2321	0.0131	0.2452	1181.342	0.149862	-398.114672	-398.106599	-398.105655	-398.148244	30.18	
C	-0.4634911358	 1.3871973948	-0.0354871998	-0.317067
N	-0.099625479	-0.0217276086	 0.0472454112	-0.07615
C	 1.2629197929	-0.3687760165	-0.3201063989	-0.263272
C	 0.8391397496	-0.4404301172	 1.1107032983	-0.114564
C	 1.3583996016	 0.4911777202	 2.1356549444	 0.375449
C	 0.8904553485	 0.7745194529	 3.4078211313	-0.306256
C	 1.7883997969	 1.7292056108	 3.9247801709	-0.002266
N	 2.7518524652	 2.0260295614	 3.0559351767	-0.228517
N	 2.4660117181	 1.2680465956	 1.9814854111	-0.250855
H	 0.360421238	 2.08152549	 0.1897455026	 0.108946
H	-0.8202338477	 1.5919718216	-1.0494746617	 0.12574
H	-1.2800558988	 1.5903524253	 0.6634980891	 0.130677
H	 1.3949565972	-1.2812273319	-0.8956140336	 0.122608
H	 1.9267841983	 0.4440879114	-0.6161789016	 0.099394
H	 0.5845896892	-1.4191831993	 1.5106439898	 0.108199
H	 0.0201998655	 0.3496058643	 3.8816538038	 0.106576
H	 1.7742938639	 2.2116455921	 4.8911624759	 0.112474
H	 3.0939661866	 1.2797281631	 1.1958356006	 0.268886
32.4992	110.537	179.1327	218.5997	285.0244	362.6947	433.6347	494.8215	533.1422	631.2084	690.4006	725.0111	773.8515	818.4758	864.875	898.4387	937.7073	966.6551	1034.7305	1035.4724	1063.3962	1096.131	1132.6443	1135.002	1142.0316	1166.3829	1207.4939	1242.1906	1294.7788	1325.203	1334.0455	1391.2078	1444.3713	1451.7845	1488.3585	1491.2032	1495.87	1510.1714	1599.5633	2986.4361	3076.4158	3082.2833	3111.5599	3128.9018	3170.6521	3244.2626	3268.4315	3674.2926
CN1CC1C1=CC=NN1	CN1C[C@H]1c1ccn[nH]1	
InChI=1S/C6H9N3/c1-9-4-6(9)5-2-3-7-8-5/h2-3,6H,4H2,1H3,(H,7,8)	InChI=1S/C6H9N3/c1-9-4-6(9)5-2-3-7-8-5/h2-3,6H,4H2,1H3,(H,7,8)/t6-,9?/m0/s1
