17
gdb 30022	3.20415	1.56639	1.07339	4.1951	75.21	-0.2116	0.026	0.2376	1087.9381	0.138523	-418.027399	-418.019559	-418.018615	-418.060266	28.291	
C	-0.0073038959	 1.4637251526	 0.0168821348	-0.34774
N	-0.0102108193	 0.0153861663	 0.0417303904	-0.120577
C	-0.0203898719	-0.8260031422	-1.0502179904	-0.029717
N	-0.020735034	-2.1034121737	-0.7234740787	-0.356553
C	-0.0102472567	-2.0840510897	 0.6450531102	 0.228017
C	-0.0036960278	-0.8168991698	 1.1318285577	 0.241213
C	 0.0068791701	-0.8002057686	 2.6202116318	-0.168682
O	 0.0081496549	-2.2000618467	 2.9486222664	-0.28448
C	-0.0044721641	-3.0532779914	 1.7812856979	-0.173008
H	 0.8870972573	 1.8628360679	 0.5054479558	 0.146686
H	-0.0148062736	 1.799721482	-1.0217028903	 0.148977
H	-0.8921744218	 1.8666118916	 0.5194971824	 0.146678
H	-0.0269815582	-0.4300359164	-2.0557833528	 0.126166
H	 0.8975956683	-0.323432583	 3.0581098614	 0.107741
H	-0.8768830563	-0.3216025952	 3.0702017565	 0.107628
H	-0.8943676989	-3.696862247	 1.818156247	 0.113757
H	 0.8811652778	-3.7032412768	 1.8043100203	 0.113893
95.3429	105.8191	149.6051	194.4958	241.7098	281.6172	496.7037	591.6175	625.3062	638.3451	685.6596	786.4115	793.4101	857.8271	883.7627	1020.9502	1040.6057	1067.7727	1069.4192	1086.8018	1151.3337	1151.9859	1209.1608	1223.3354	1255.4372	1318.0235	1348.1396	1375.8958	1427.7995	1459.5542	1464.3026	1482.9813	1515.6744	1522.0814	1531.0558	1541.8732	1615.0509	2971.2142	2986.9416	2999.2721	3023.4541	3038.9965	3099.2891	3137.0949	3241.2877
CN1C=NC2=C1COC2	Cn1cnc2c1COC2	
InChI=1S/C6H8N2O/c1-8-4-7-5-2-9-3-6(5)8/h4H,2-3H2,1H3	InChI=1S/C6H8N2O/c1-8-4-7-5-2-9-3-6(5)8/h4H,2-3H2,1H3
