17
gdb 76727	3.36486	0.92903	0.83552	4.619	65.64	-0.253	0.0135	0.2666	1363.8828	0.133793	-496.085053	-496.075615	-496.074671	-496.120657	33.27	
O	-0.6107840057	 1.3258048474	-0.2711323805	-0.422416
C	-0.4139534186	-0.0691802615	-0.2351180272	 0.017426
C	-0.4172646959	-0.6750823688	 1.1477626285	 0.078474
O	-0.5406060984	 0.1987340309	 2.2267255157	-0.426918
C	-1.5991997083	-0.8928831545	 0.213690933	-0.107002
C	-2.935192418	-0.2612907029	 0.509355687	-0.101915
O	-3.7712853271	-0.2376992984	-0.6614141126	-0.185489
C	-3.7209129166	 0.8629217826	-1.4380264771	 0.162151
O	-4.3570009353	 0.9643552325	-2.4449000515	-0.280473
H	 0.2469664558	 1.7461382822	-0.3954636623	 0.304577
H	 0.2276896465	-0.4618157849	-1.0194807574	 0.106918
H	 0.2246488499	-1.521241081	 1.3732629213	 0.110372
H	-0.5451937161	 1.0913783216	 1.8531291287	 0.286597
H	-1.6724926501	-1.8769378958	-0.2404371786	 0.109517
H	-3.4840139001	-0.8576061716	 1.2417160511	 0.133601
H	-2.8219141537	 0.7477734481	 0.9130193165	 0.120715
H	-3.0406129982	 1.6390076441	-1.0431067944	 0.093864
30.928	72.1701	120.5309	158.5715	201.0993	262.9737	290.4611	320.0059	364.7842	488.3979	522.5573	583.286	650.0346	692.8861	778.6705	790.3938	917.0916	961.9655	1029.0416	1045.9726	1051.5886	1071.9356	1119.0462	1124.5541	1153.999	1179.1809	1231.8357	1259.3168	1303.4552	1329.558	1360.1046	1408.4086	1412.0868	1440.0462	1469.9233	1497.1616	1860.8966	2986.1196	3072.1412	3118.3188	3136.6528	3150.9236	3161.7351	3735.2364	3812.2089
OC1C(O)C1COC=O	O[C@H]1[C@@H](O)[C@H]1COC=O	
InChI=1S/C5H8O4/c6-2-9-1-3-4(7)5(3)8/h2-5,7-8H,1H2	InChI=1S/C5H8O4/c6-2-9-1-3-4(7)5(3)8/h2-5,7-8H,1H2/t3-,4+,5-
