21
gdb 121156	2.96222	1.01415	0.83296	2.1441	80.11	-0.2517	0.0682	0.32	1458.4373	0.180723	-424.189191	-424.179718	-424.178774	-424.224286	34.648	
C	-0.3740802388	 1.3647107038	-0.0857847729	-0.386079
C	 0.1990855044	-0.0416474784	-0.1141388957	-0.03825
O	 0.3078961123	-0.5088173988	 1.2200052873	-0.257053
C	 0.7792325403	-1.8194939585	 1.3299822946	 0.072924
C	 2.3166916311	-2.1008897491	 1.2538759219	-0.262488
C	 2.1738846359	-3.0371624357	 2.4924631953	-0.326603
C	 0.8183439228	-2.3752002166	 2.7495817338	 0.421342
C	 0.3188343552	-1.7202070758	 3.9565570149	-0.253992
O	-0.2759068084	-2.9274014493	 3.4477253691	-0.278136
H	 0.2789492761	 2.0341056086	 0.4814079163	 0.12623
H	-0.4739901067	 1.7564031863	-1.1024429515	 0.115471
H	-1.3603650733	 1.366724946	 0.3868048368	 0.128381
H	-0.4523570563	-0.715647263	-0.6948802615	 0.090187
H	 1.1868498134	-0.0460955509	-0.6022051521	 0.090915
H	 0.2215215651	-2.4954951404	 0.6617099759	 0.073653
H	 2.7046891126	-2.5426677997	 0.3350384767	 0.102193
H	 2.8780055662	-1.1937718856	 1.490779227	 0.11311
H	 2.0616525774	-4.0880071249	 2.210940826	 0.11711
H	 2.929579744	-2.9590971904	 3.2762595748	 0.110575
H	 0.8636491769	-1.8295074194	 4.8935497877	 0.111522
H	-0.29207432	-0.8254805683	 3.8607006857	 0.128986
61.3704	74.9888	109.5293	127.034	239.3816	260.6479	285.5614	338.3102	357.3082	475.4393	536.2766	561.3102	742.1279	800.6119	821.1179	855.8816	893.0468	897.2896	909.3458	955.9423	967.436	1062.3352	1088.0802	1098.2209	1130.5749	1151.5238	1153.892	1161.187	1183.9191	1191.9805	1209.3955	1235.7574	1265.9359	1282.3703	1295.4289	1371.747	1403.8456	1429.6288	1446.3968	1474.6259	1483.2056	1494.5388	1499.6933	1528.5857	1535.4767	2962.708	2976.4182	2992.737	3045.1104	3065.071	3072.7847	3087.7535	3117.1409	3119.5652	3121.8996	3135.474	3183.1665
CCOC1CCC11CO1	CCO[C@H]1CC[C@]21CO2	
InChI=1S/C7H12O2/c1-2-8-6-3-4-7(6)5-9-7/h6H,2-5H2,1H3	InChI=1S/C7H12O2/c1-2-8-6-3-4-7(6)5-9-7/h6H,2-5H2,1H3/t6-,7+/m0/s1
