17
gdb 10548	2.62838	1.8497	1.30267	1.3514	70.81	-0.2464	0.0331	0.2795	981.9382	0.140324	-363.780422	-363.771663	-363.770719	-363.814146	31.498	
C	 0.0075973981	 0.6726959061	 0.3799474966	-0.242695
O	 0.8963583091	 0.4703767515	-0.7042459666	-0.227389
C	 0.4674060879	-0.4988714791	-1.6359496371	-0.170528
C	 0.5380481544	-1.9356259657	-1.0962621596	 0.08765
C	 1.5553531372	-2.8545500391	-1.7037714536	-0.262317
N	 1.7810430688	-2.2981539233	-0.3723545997	-0.326244
C	-0.6851697312	-2.4836958372	-0.5645543126	 0.319274
C	-1.7297080506	-2.9198119666	-0.1581972189	-0.450183
H	-0.9993523281	 0.9393962439	 0.025772744	 0.109158
H	-0.0732726311	-0.2150167044	 1.01967822	 0.134812
H	 0.4100613687	 1.5012624045	 0.9673717664	 0.127383
H	-0.5547169884	-0.2879007085	-1.9822447429	 0.105913
H	 1.1480226982	-0.3958322258	-2.4866783529	 0.108489
H	 1.3540681786	-3.9212749267	-1.7239604764	 0.130305
H	 2.1265136284	-2.477251188	-2.5487882745	 0.116286
H	 2.4025872885	-1.4917144243	-0.4132096702	 0.244211
H	-2.6426978085	-3.3145187072	 0.2135851179	 0.195873
44.3658	100.1683	169.7454	180.5756	221.297	272.6254	328.0097	403.5702	468.5083	549.5449	577.7839	608.1273	649.3828	715.4738	872.0785	899.9645	914.2439	955.7507	982.0849	1023.1968	1094.71	1138.2077	1145.4373	1182.2242	1216.8502	1258.9075	1285.1139	1304.5547	1384.9045	1397.2246	1473.6673	1485.9757	1492.8864	1506.7938	1510.1221	2235.4461	2991.142	3003.9238	3057.3904	3081.3867	3106.1875	3119.5568	3198.9999	3484.5025	3502.6277
COCC1(CN1)C#C	COC[C@]1(CN1)C#C	
InChI=1S/C6H9NO/c1-3-6(4-7-6)5-8-2/h1,7H,4-5H2,2H3	InChI=1S/C6H9NO/c1-3-6(4-7-6)5-8-2/h1,7H,4-5H2,2H3/t6-/m1/s1
