25
gdb 119770	4.42007	0.7115	0.64998	0.3086	97.17	-0.2237	0.0333	0.2571	1870.1138	0.229	-352.388778	-352.37848	-352.377536	-352.424609	38.27	
C	-0.1692231122	 1.5971159989	 0.0816781322	-0.378091
C	-0.1626440175	 0.0667935115	 0.1090650908	-0.157914
C	 0.8521170872	-0.505629539	 1.1179436635	-0.297108
C	 0.8770998011	-2.0044357374	 1.1694013845	 0.333239
C	 1.8916103194	-2.8051470977	 0.8347029577	-0.180079
C	 1.5662565761	-4.2760885788	 0.9738767428	 0.00666
C	 2.6753678412	-5.1181970903	 1.6141189923	-0.39469
C	 0.2500687642	-4.2397154906	 1.7968931565	-0.219106
C	-0.3318151497	-2.8218287011	 1.5909060281	-0.302874
H	 0.8147795937	 1.9927348535	-0.1939969951	 0.11382
H	-0.8964552378	 1.9806513183	-0.6408361439	 0.110678
H	-0.4260922236	 2.009005815	 1.064111911	 0.11321
H	-1.1672685162	-0.2989530947	 0.3541226902	 0.099751
H	 0.0700954393	-0.323198314	-0.8895313841	 0.09897
H	 1.853535816	-0.1300702326	 0.8741345608	 0.095148
H	 0.6057356138	-0.1103036537	 2.1151791103	 0.095889
H	 2.8541333444	-2.4584934401	 0.4690795451	 0.075526
H	 1.365748976	-4.6945574502	-0.025728441	 0.071692
H	 2.9281305531	-4.7368898128	 2.6099001623	 0.11222
H	 2.3646106029	-6.1631977497	 1.7221113544	 0.109639
H	 3.5878979461	-5.104236425	 1.008189154	 0.10874
H	-0.4469057625	-5.0356202334	 1.5197884362	 0.090683
H	 0.4953715148	-4.3800922406	 2.8561925898	 0.097166
H	-0.8164002718	-2.4262769568	 2.4922921882	 0.094363
H	-1.0995845582	-2.8097602588	 0.8041081334	 0.102466
55.4796	80.0079	99.8065	117.5044	212.9289	240.0575	245.9025	282.6996	306.9361	371.396	473.5559	494.7892	600.4272	665.749	746.7649	812.1232	843.592	857.6387	873.0201	900.9782	923.2398	932.613	968.2879	997.8066	1036.8156	1048.9324	1088.4898	1098.4855	1121.0598	1128.5544	1179.5297	1202.6454	1246.2003	1250.314	1287.1306	1308.6347	1310.0871	1319.83	1325.7351	1347.141	1372.4908	1385.3142	1407.471	1411.0293	1477.8558	1482.8078	1492.6912	1496.5986	1497.8183	1499.1424	1500.6584	1509.865	1715.7405	2965.1226	2991.6648	3003.3285	3023.6196	3026.2405	3028.6371	3031.2558	3042.7812	3046.3521	3064.4032	3088.8126	3093.1834	3095.2576	3096.5327	3100.9481	3168.9423
CCCC1=CC(C)CC1	CCCC1=C[C@@H](C)CC1	
InChI=1S/C9H16/c1-3-4-9-6-5-8(2)7-9/h7-8H,3-6H2,1-2H3	InChI=1S/C9H16/c1-3-4-9-6-5-8(2)7-9/h7-8H,3-6H2,1-2H3/t8-/m0/s1
