18
gdb 52818	2.99939	1.0681	0.90744	3.3313	80.68	-0.2326	0.0339	0.2666	1346.1776	0.145795	-401.86865	-401.859375	-401.85843	-401.903862	33.723	
C	 0.0140303632	 1.5165721055	-0.0323041656	-0.500301
C	 0.0257784887	 0.0618882161	 0.0149883604	 0.022676
C	 0.0377043328	-1.142519425	 0.0614099958	 0.057955
C	 0.0531358817	-2.5996678761	 0.0873100923	 0.242085
O	 1.037206312	-3.1272678637	-0.7901652449	-0.466223
C	 0.1827634636	-3.3420099498	 1.4516089375	-0.206193
N	-1.0969418614	-4.102105824	 1.2447079417	-0.125168
C	-2.1519139761	-3.076403761	 1.1458301882	-0.246453
C	-1.3051706729	-3.3215361919	-0.0354118141	-0.096051
H	 0.9494029433	 1.9064416467	-0.4483927848	 0.153268
H	-0.8079163725	 1.8890576516	-0.6533893211	 0.15131
H	-0.1060457419	 1.9438136416	 0.9693106527	 0.153183
H	 0.9788767892	-2.6381451772	-1.6182219386	 0.281498
H	 1.0381372332	-4.0182162485	 1.4297168791	 0.131707
H	 0.2009619227	-2.7284068353	 2.3564075594	 0.106631
H	-3.1535081054	-3.4955709983	 1.1423294371	 0.122838
H	-2.0464858951	-2.1469762753	 1.7017893633	 0.118413
H	-1.656192825	-3.7889881253	-0.9502253284	 0.098826
26.3947	83.7795	107.989	183.2754	266.4737	276.4651	331.0515	361.1152	414.7379	461.1706	508.6791	536.5557	598.1463	753.1773	791.5179	822.6332	920.8223	948.7866	968.7576	1005.9837	1047.0889	1052.3186	1052.9968	1060.5816	1098.5575	1110.9935	1148.5057	1192.2775	1221.5133	1249.0427	1282.026	1339.1081	1378.42	1414.0115	1476.6085	1477.3717	1479.2661	1504.0534	2360.4191	3028.6857	3062.7467	3090.43	3091.2415	3104.4359	3139.0447	3161.1072	3197.789	3808.6276
CC#CC1(O)CN2CC12	CC#C[C@@]1(O)CN2C[C@@H]12	
InChI=1S/C7H9NO/c1-2-3-7(9)5-8-4-6(7)8/h6,9H,4-5H2,1H3	InChI=1S/C7H9NO/c1-2-3-7(9)5-8-4-6(7)8/h6,9H,4-5H2,1H3/t6-,7+,8?/m0/s1
