17
gdb 102428	3.92709	0.6589	0.57808	3.0443	87.76	-0.2428	-0.0163	0.2265	1827.9543	0.133384	-421.761561	-421.751488	-421.750543	-421.796984	36.154	
O	 0.1333159039	 1.4167045305	 0.1960222153	-0.421394
C	 0.0715338025	 0.0268593544	-0.0061535469	-0.050485
C	-1.3874166704	-0.5121508074	-0.0077587074	-0.254886
C	-2.1522967074	-0.0982032704	-1.2794304298	-0.082582
O	-2.1547571616	 1.3264806727	-1.3541750551	-0.422785
C	-1.4088979744	-1.9611862256	 0.1213247107	 0.37054
C	-1.3950559594	-3.1683465588	 0.2133995271	-0.211012
C	-1.3862670597	-4.5250313734	 0.3181037963	 0.289804
C	-1.3779327101	-5.7290519409	 0.4104018953	-0.560855
H	-0.4789094284	 1.8129058143	-0.4384287151	 0.29139
H	 0.5569625593	-0.2836849986	-0.9470213988	 0.089282
H	 0.6226450793	-0.4418146827	 0.814150432	 0.119431
H	-1.8941607035	-0.0598045512	 0.8557203404	 0.129733
H	-1.6537954573	-0.539254317	-2.1544483032	 0.10941
H	-3.1776370338	-0.4890549547	-1.2388996512	 0.113289
H	-2.5146938612	 1.5900401653	-2.2059311141	 0.299194
H	-1.370625568	-6.7874767467	 0.4926354945	 0.191928
68.3695	77.8173	113.1174	181.5477	217.4136	228.1787	253.6048	319.4801	378.6215	402.2558	465.4096	474.17	536.8553	542.9599	559.1929	596.168	603.7194	816.9438	854.7769	917.2878	1052.4495	1059.2705	1097.2108	1111.368	1180.9505	1212.8349	1238.6695	1284.3615	1296.9006	1333.0372	1383.0133	1452.9688	1464.4701	1506.3871	1521.8738	2181.3089	2360.5834	2961.377	2997.6476	3021.3627	3043.8912	3085.5376	3505.4084	3750.8464	3837.3789
OCC(CO)C#CC#C	OCC(CO)C#CC#C	
InChI=1S/C7H8O2/c1-2-3-4-7(5-8)6-9/h1,7-9H,5-6H2	InChI=1S/C7H8O2/c1-2-3-4-7(5-8)6-9/h1,7-9H,5-6H2
