21
gdb 110588	3.08113	1.34867	1.10957	0.8229	83.91	-0.2438	0.0968	0.3406	1188.757	0.181717	-387.011464	-387.002838	-387.001894	-387.044668	33.078	
C	 0.0279274594	 1.3523681098	-0.2766931366	-0.236252
O	-0.0635245524	 0.1071316121	 0.3773928779	-0.260521
C	-1.3097751042	-0.5189912265	 0.216264585	 0.095857
C	-1.5685823062	-1.3571712333	-1.0514990899	-0.093373
C	-0.6558302306	-2.5260641579	-0.5437721833	-0.072168
C	-1.7615475218	-3.5758061914	-0.7677862067	-0.273919
C	-2.5124370016	-2.3281648299	-0.2620863931	-0.08828
C	-1.3626980627	-1.9553822555	 0.7492543103	 0.319486
C	-1.1886370656	-2.4241639098	 2.16660882	-0.530292
H	 1.015312328	 1.7660503072	-0.0570393898	 0.124802
H	-0.0802812167	 1.2559471156	-1.3675175683	 0.105545
H	-0.7390588891	 2.056707787	 0.0827222899	 0.102469
H	-2.1268083089	 0.1543404991	 0.5269637275	 0.05057
H	-1.6997319808	-1.046784447	-2.0888639984	 0.065994
H	 0.4193796557	-2.6124446061	-0.6962861427	 0.075847
H	-1.9522869136	-3.8767649911	-1.8030413624	 0.089525
H	-1.7579740333	-4.4526849075	-0.1121246359	 0.090756
H	-3.581361443	-2.1846222026	-0.093380791	 0.065672
H	-1.2514966114	-3.5155273439	 2.2373377631	 0.11898
H	-0.2133538167	-2.1149413786	 2.5565247767	 0.13226
H	-1.9599587146	-2.0006825196	 2.8198522175	 0.11704
77.7637	155.1174	165.6984	209.4741	230.9338	254.1767	322.339	363.1119	513.3141	544.1602	643.3249	729.738	789.7585	857.9157	864.061	869.5656	909.4135	935.6243	953.4038	983.8337	1016.2445	1021.1098	1058.1556	1079.1431	1127.4773	1148.6854	1150.3973	1159.4489	1167.4141	1171.527	1184.1037	1213.6047	1229.8744	1238.6788	1266.9355	1297.2877	1337.4763	1402.8071	1418.206	1483.2766	1484.8653	1488.715	1493.6696	1509.0508	1512.4641	2958.5152	2974.8963	3020.7651	3027.1532	3036.274	3089.7469	3091.9584	3092.2467	3100.292	3105.6127	3111.6173	3122.2557
COC1C2C3CC2C13C	CO[C@H]1[C@H]2[C@@H]3C[C@H]2[C@]13C	
InChI=1S/C8H12O/c1-8-4-3-5(8)6(4)7(8)9-2/h4-7H,3H2,1-2H3	InChI=1S/C8H12O/c1-8-4-3-5(8)6(4)7(8)9-2/h4-7H,3H2,1-2H3/t4-,5+,6-,7-,8+/m0/s1
