15
gdb 54482	3.35381	1.50636	1.1874	3.1158	65.52	-0.251	-0.0007	0.2503	1002.8748	0.113523	-453.976019	-453.968351	-453.967407	-454.008321	28.982	
N	 0.0593620123	 0.972324377	-0.7900682004	-0.542733
C	-0.0390917738	 0.0587148314	 0.2092865296	 0.331198
O	 0.796776402	-0.1028651061	 1.0801263838	-0.377541
C	-1.2717617469	-0.7840775127	 0.1681812722	 0.301278
C	-1.8150114259	-1.4508037647	 1.4001536103	-0.335139
C	-1.286165571	-2.317392063	 0.2897904776	-0.048435
N	-2.2412662761	-2.7654010791	-0.6936345874	-0.24649
C	-2.7049382672	-1.7192766784	-1.2438938792	 0.085059
O	-2.2143766074	-0.5021376298	-0.8635851362	-0.268762
H	 0.8753522039	 1.5593083019	-0.8273869364	 0.266447
H	-0.661040283	 1.0609859849	-1.4852037731	 0.27174
H	-1.1759279546	-1.3466945144	 2.268841814	 0.156932
H	-2.8856201899	-1.4203401951	 1.5708420221	 0.128087
H	-0.3939955749	-2.9131865372	 0.4341008157	 0.128202
H	-3.4686395174	-1.6797782448	-2.0104094525	 0.150157
77.6646	162.3331	201.1958	217.155	357.2879	389.8412	442.2508	486.3091	584.1599	610.034	653.4067	727.1311	745.7021	825.5368	873.1107	916.6047	930.7167	952.8495	1026.125	1044.6863	1072.2425	1089.2439	1110.2229	1122.2069	1199.897	1238.7585	1323.9675	1338.0084	1418.1222	1450.4468	1605.2222	1670.7918	1789.8927	3139.1658	3200.836	3235.6729	3244.0647	3609.332	3748.7431
NC(=O)C12CC1N=CO2	NC(=O)[C@]12C[C@H]1N=CO2	
InChI=1S/C5H6N2O2/c6-4(8)5-1-3(5)7-2-9-5/h2-3H,1H2,(H2,6,8)	InChI=1S/C5H6N2O2/c6-4(8)5-1-3(5)7-2-9-5/h2-3H,1H2,(H2,6,8)/t3-,5+/m1/s1
