14
gdb 129937	3.29393	1.17204	0.88039	5.2822	66.45	-0.2105	-0.0021	0.2084	1221.8689	0.101822	-470.032469	-470.024152	-470.023208	-470.065999	29.532	
N	 0.1132012067	 1.3941158691	 0.2420166207	-0.620837
C	 0.0175175603	 0.0120474383	 0.0363283066	 0.10035
C	-1.0778462359	-0.8277697418	 0.1187878238	-0.085473
N	-0.6120931511	-2.0932513113	-0.0815740896	-0.196916
N	 0.7119146905	-2.1449901101	-0.3008328118	-0.29942
C	 1.0856334985	-0.8764254328	-0.2216167085	 0.390951
O	 2.3796195083	-0.4692994342	-0.4101995104	-0.230751
C	 3.3782345078	-1.2187128952	 0.1498404013	 0.163754
O	 4.5254188808	-0.9653843324	-0.0410462896	-0.261386
H	 0.9931163812	 1.7577874756	-0.1019239138	 0.257823
H	-0.6491593527	 1.9150597909	-0.1713845504	 0.248683
H	-2.1201457602	-0.6252501081	 0.3041371516	 0.134951
H	-1.1431274508	-2.9450485219	-0.1189399472	 0.281207
H	 2.9823499066	-2.0400660463	 0.7666219774	 0.117063
64.6794	125.3691	160.7286	177.9595	266.4843	289.1773	364.2223	435.2969	488.1316	531.9354	645.7806	690.4285	713.863	740.7168	787.3393	875.3623	951.9904	1039.7681	1069.7866	1100.0603	1122.7325	1225.0267	1274.0935	1345.6148	1407.5416	1433.4931	1484.6772	1542.5268	1643.3463	1661.9109	1874.5891	3034.1703	3268.1217	3538.4084	3627.2422	3692.1266
NC1=CNN=C1OC=O	Nc1c[nH]nc1OC=O	
InChI=1S/C4H5N3O2/c5-3-1-6-7-4(3)9-2-8/h1-2H,5H2,(H,6,7)	InChI=1S/C4H5N3O2/c5-3-1-6-7-4(3)9-2-8/h1-2H,5H2,(H,6,7)
