19
gdb 120175	5.05283	0.78566	0.76162	3.0665	77.01	-0.2574	-0.0116	0.2458	1547.1531	0.157578	-422.969454	-422.960636	-422.959691	-423.003621	32.474	
C	-0.0635145268	 1.5663297815	 0.0217575967	-0.380353
C	-0.0840710066	 0.03879054	-0.0775728133	-0.166327
C	 0.8545120301	-0.4973373457	-1.1667611639	-0.219103
C	 0.8711008289	-2.0181138508	-1.2391293614	 0.008295
C	-0.3129620064	-2.733132615	-1.9602392064	-0.089571
O	 0.2344339211	-2.2654160313	-3.2624516903	-0.300831
C	 1.4570974584	-2.6803367556	-2.52071974	-0.105957
C	 0.6283745555	-3.9479421477	-2.1801429658	 0.479281
O	 0.6549178014	-5.1325214978	-2.2078107563	-0.308952
H	 0.941058849	 1.933534045	 0.2591875288	 0.11597
H	-0.3686571288	 2.0279324109	-0.9236865836	 0.118943
H	-0.7419523412	 1.9238492328	 0.802242554	 0.11487
H	 0.1938948726	-0.3962076318	 0.891678059	 0.096861
H	-1.1077247511	-0.3012872081	-0.280728255	 0.099387
H	 0.5664830988	-0.0946956528	-2.1427034448	 0.120526
H	 1.8763682906	-0.147739983	-0.9677529267	 0.098969
H	 1.1822516054	-2.4769214017	-0.293023669	 0.089535
H	-1.3872063725	-2.6557638793	-1.8068263471	 0.114588
H	 2.4181800413	-2.5370653895	-3.010479255	 0.11387
77.8507	89.9702	104.8308	164.713	244.8074	279.3219	324.9714	374.3938	483.7327	574.2196	689.2478	733.9299	773.2552	783.5538	795.8811	833.7549	883.6381	902.9182	942.7456	973.9988	1042.1256	1058.2816	1077.743	1107.1579	1120.144	1144.6995	1149.2013	1191.1478	1199.0988	1253.9038	1262.2213	1307.8338	1331.4485	1384.3876	1405.5977	1415.3953	1484.0562	1493.7541	1499.772	1510.78	1939.0213	3014.3294	3023.2423	3031.8949	3044.3558	3046.4997	3089.1641	3100.0211	3105.4981	3149.6067	3154.4967
CCCC1C2OC1C2=O	CCC[C@H]1[C@H]2O[C@@H]1C2=O	
InChI=1S/C7H10O2/c1-2-3-4-6-5(8)7(4)9-6/h4,6-7H,2-3H2,1H3	InChI=1S/C7H10O2/c1-2-3-4-6-5(8)7(4)9-6/h4,6-7H,2-3H2,1H3/t4-,6+,7-
