14
gdb 124412	3.3704	1.20308	1.09282	4.9104	68.35	-0.2979	-0.0476	0.2503	1115.655	0.099771	-428.956819	-428.948691	-428.947746	-428.990657	28.566	
C	-0.0079632423	 1.5582445768	 0.0067807491	-0.394169
C	 0.0557319368	 0.0233125963	-0.0149947034	-0.14193
C	 0.6955003355	-0.4974734892	-1.2188744007	 0.355349
C	 1.2048514444	-0.9000599741	-2.2278301997	-0.446783
N	 0.7402205742	-0.4752897579	 1.1942801381	 0.170292
N	 1.9812356506	-0.1733103777	 1.535721215	-0.112081
N	 2.1833715467	-0.7958397013	 2.6569923353	-0.076832
N	 1.0659010995	-1.4706938088	 2.9919254662	-0.085681
N	 0.1636967289	-1.2726246227	 2.0807335564	-0.108367
H	 0.9979964269	 1.9801706419	-0.0217391693	 0.165557
H	-0.561634027	 1.90415481	-0.868453803	 0.148395
H	-0.5182637262	 1.8999905126	 0.9106156383	 0.143019
H	-0.9523855531	-0.392268126	 0.0746745016	 0.163146
H	 1.6603430453	-1.2649717698	-3.1159660539	 0.220084
33.5414	101.9346	184.3982	188.4637	232.0206	316.3258	392.0918	466.2301	545.0209	648.3465	690.4211	711.3083	753.025	767.2059	876.3635	974.5391	1006.63	1082.4352	1094.414	1121.5341	1142.1639	1173.164	1251.7663	1320.5255	1338.2131	1370.737	1410.4637	1430.4209	1486.4684	1495.804	2251.4038	3060.3366	3080.0183	3141.981	3154.6606	3499.8859
CC(C#C)N1N=NN=N1	C[C@@H](C#C)n1nnnn1	
InChI=1S/C4H5N5/c1-3-4(2)9-7-5-6-8-9/h1,4H,2H3	InChI=1S/C4H5N5/c1-3-4(2)9-7-5-6-8-9/h1,4H,2H3/t4-/m0/s1
