18
gdb 60914	3.88367	1.02353	0.8226	2.4707	79.23	-0.2234	-0.0096	0.2138	1350.5414	0.147789	-439.109862	-439.101042	-439.100098	-439.14389	31.476	
C	-0.0530865786	 1.451373526	-0.0051138761	-0.358084
N	-0.0037795291	-0.0057517998	-0.0041401818	-0.163304
C	 0.0043721337	-0.6700169724	 1.203866886	 0.145634
O	-0.0267503529	-0.13141796	 2.2871644808	-0.330678
C	 0.0335576608	-0.676580048	-1.2216710269	 0.396599
C	 0.0305245695	-0.1457895596	-2.4479045951	-0.262704
C	 0.0796529048	-1.2421427472	-3.4687814321	-0.100021
O	 0.1115659524	-2.4574901093	-2.7194392043	-0.265871
C	 0.0856092697	-2.1867476058	-1.3299079643	-0.161391
H	 0.8300937974	 1.8601570667	-0.5063744962	 0.137475
H	-0.9489492348	 1.7998407581	-0.5288994632	 0.137472
H	-0.0773807075	 1.7821639536	 1.0316225326	 0.173664
H	 0.0428604189	-1.7647760735	 1.0842910637	 0.102335
H	-0.0015633656	 0.9023061094	-2.7062357165	 0.103864
H	-0.7983588381	-1.2444364659	-4.1339951471	 0.108162
H	 0.9715020217	-1.1849189752	-4.1127849626	 0.108169
H	 0.9813336391	-2.6086448455	-0.8469283681	 0.114341
H	-0.7912273314	-2.6681492115	-0.8683779588	 0.114338
74.8046	111.6945	127.181	184.9865	194.1731	276.282	329.6851	345.1174	431.8754	467.3269	510.8621	757.0632	794.3419	796.2844	889.416	928.2407	981.3328	998.3885	1010.7723	1029.1156	1065.9216	1124.9352	1149.1817	1158.1587	1177.613	1237.3981	1260.7973	1342.0809	1359.6302	1395.2147	1402.27	1442.7883	1456.9939	1496.029	1513.4077	1523.0118	1535.1458	1714.8703	1798.78	2967.0298	2975.3269	2986.4626	2989.4434	3008.7446	3038.6673	3096.8018	3174.6243	3241.6527
CN(C=O)C1=CCOC1	CN(C=O)C1=CCOC1	
InChI=1S/C6H9NO2/c1-7(5-8)6-2-3-9-4-6/h2,5H,3-4H2,1H3	InChI=1S/C6H9NO2/c1-7(5-8)6-2-3-9-4-6/h2,5H,3-4H2,1H3
