19
gdb 67243	3.00775	1.55756	1.29742	1.755	79.71	-0.2399	0.0978	0.3377	1046.1424	0.159284	-385.818223	-385.810603	-385.809659	-385.849974	30.617	
C	-0.0782491098	 1.5493659178	-0.0278533655	-0.53014
C	 0.0142143855	 0.0609837242	 0.0130615411	 0.362189
C	 0.0289182356	-1.0143523984	-1.0425299474	-0.128035
C	 1.2897934976	-1.6614932141	-0.467871951	-0.235402
C	 0.9164017745	-0.9505856284	 0.8620417923	-0.218673
C	-0.390004306	-1.638534995	 1.2741169713	 0.521941
C	-0.6676547343	-2.8087153098	 2.1026558173	-0.295284
O	-0.9388767963	-1.4679870683	 2.5684421042	-0.30184
C	-1.0465825129	-1.0276903454	 0.0646316992	-0.220982
H	 0.8725099348	 2.0054918246	-0.3275395912	 0.120896
H	-0.8400391302	 1.8684155314	-0.7476870427	 0.123186
H	-0.3529347857	 1.9595697531	 0.9503942933	 0.131653
H	-0.2646234685	-0.9238554284	-2.0815658051	 0.085988
H	 1.3639136431	-2.7549594474	-0.4453657983	 0.089946
H	 2.192640828	-1.2406043815	-0.9191957327	 0.100006
H	 1.659682133	-0.6902550051	 1.6124876868	 0.079907
H	-1.5502149331	-3.4179410487	 1.9111754889	 0.112142
H	 0.1440137374	-3.3212571511	 2.6184146186	 0.110617
H	-2.1019904827	-0.9448649996	-0.1602003989	 0.091885
116.2117	211.2715	229.3486	250.1982	308.4232	338.2671	462.7516	488.5023	572.4037	636.3836	726.6983	784.2625	838.5623	862.6015	872.1936	893.2007	904.5538	934.6491	980.4229	995.9241	1003.6772	1019.9035	1075.4392	1093.8955	1114.8055	1121.94	1148.9779	1149.8163	1157.1179	1191.4905	1199.093	1227.0251	1280.1556	1286.293	1410.6343	1454.0844	1456.3034	1483.641	1497.2772	1501.1937	1543.5376	3021.477	3032.3729	3077.0463	3082.0031	3091.8783	3093.672	3145.1486	3161.9051	3184.3817	3204.781
CC12C3CC1C1(CO1)C23	C[C@@]12[C@H]3C[C@@H]1[C@]1(CO1)[C@@H]23	
InChI=1S/C8H10O/c1-7-4-2-5(7)8(3-9-8)6(4)7/h4-6H,2-3H2,1H3	InChI=1S/C8H10O/c1-7-4-2-5(7)8(3-9-8)6(4)7/h4-6H,2-3H2,1H3/t4-,5-,6+,7+,8+/m0/s1
