21
gdb 95021	2.56572	1.80027	1.41965	1.5154	80.68	-0.2283	0.0831	0.3114	1014.5222	0.184858	-387.066871	-387.0593	-387.058356	-387.09849	31.041	
C	-0.1227547955	 1.5573686624	-0.1060562426	-0.408308
C	 0.0077003378	 0.0498382236	 0.0278519878	 0.124423
O	 0.6763338612	-0.4675467304	-1.1322006811	-0.267168
C	 1.1649962846	-1.773101212	-0.822384962	-0.110164
C	 1.5592422423	-1.7399235428	 0.6594619713	-0.039155
C	 2.9056161535	-1.1120010027	 1.0774630567	-0.064425
C	 3.135227602	 0.2228331498	 0.4257534764	-0.290473
C	 2.1835913157	 0.1366775149	 1.592355334	-0.066702
C	 0.818754671	-0.4813867078	 1.2179706249	-0.041989
H	 0.8581913293	 2.0390083251	-0.0920826227	 0.129908
H	-0.6230325458	 1.8137173259	-1.0440010058	 0.124141
H	-0.7176342181	 1.9591864703	 0.7203893232	 0.1114
H	-1.0017804657	-0.3973465776	 0.0790839063	 0.059032
H	 0.3773037926	-2.5248801442	-0.9937923386	 0.086215
H	 1.9972230519	-1.9821505717	-1.5011018649	 0.107835
H	 1.3433383106	-2.6750326184	 1.1779795754	 0.071468
H	 3.7145595503	-1.6626020636	 1.5424078059	 0.081909
H	 4.0905836923	 0.6773742125	 0.6711485044	 0.105269
H	 2.7832835911	 0.4277045313	-0.5775034545	 0.135455
H	 2.3668359792	 0.6907083381	 2.5051701744	 0.081926
H	 0.1976093498	-0.6720919227	 2.0948763616	 0.069403
142.5219	203.3029	214.2452	235.3469	302.1301	391.1305	460.7324	529.4375	614.5377	715.6928	752.4319	763.1545	780.434	819.242	859.5615	907.3044	925.6517	934.4451	974.3745	997.8409	1013.1145	1044.6151	1055.4929	1069.5595	1075.4782	1100.1831	1123.5126	1124.4016	1161.4624	1173.8809	1189.282	1237.6385	1253.3294	1292.7769	1317.1802	1324.6309	1350.1278	1363.5263	1384.9557	1391.4315	1412.6374	1488.3145	1490.896	1497.7152	1507.0924	2928.6671	2968.4123	3045.7016	3081.8132	3090.112	3102.8056	3114.3486	3129.0649	3133.6766	3172.9043	3183.918	3224.9807
CC1OCC2C3CC3C12	C[C@H]1OC[C@H]2[C@H]3C[C@H]3[C@@H]12	
InChI=1S/C8H12O/c1-4-8-6-2-5(6)7(8)3-9-4/h4-8H,2-3H2,1H3	InChI=1S/C8H12O/c1-4-8-6-2-5(6)7(8)3-9-4/h4-8H,2-3H2,1H3/t4-,5+,6-,7+,8-/m1/s1
