24
gdb 76640	2.83088	1.06635	0.90535	1.3349	90.3	-0.21	0.0759	0.2859	1426.6788	0.216982	-368.371055	-368.361061	-368.360116	-368.406475	37.155	
C	 0.0741118531	 1.7563618764	 0.3092410531	-0.416918
C	-0.0177878324	 0.2673143994	 0.0462182024	-0.006091
C	 0.4775514575	-0.3834097811	-1.2115088768	-0.034262
C	 1.1119382447	 0.3718172606	-2.3500503734	 0.048207
C	 1.9843676735	-0.4206513434	-3.3713487233	-0.231262
C	 1.3527918252	 0.4227823181	-4.5105575998	-0.210132
C	 0.1980303752	 0.7909380956	-3.5408938006	-0.236027
N	 1.1336587716	-0.6375904058	 0.0769623872	-0.112968
C	 2.4705815954	-0.1301727115	 0.3444995464	-0.312557
H	 0.9057516407	 2.2412356831	-0.2046342588	 0.119685
H	-0.8480085896	 2.2474894297	-0.019833551	 0.122263
H	 0.184510616	 1.9526516711	 1.3817501968	 0.121235
H	-0.900500151	-0.1785258526	 0.5069346933	 0.082508
H	-0.0829203594	-1.2520930286	-1.5654981559	 0.074626
H	 1.6687987284	 1.2432982831	-1.9984449346	 0.064323
H	 3.0695661897	-0.3908921076	-3.245428818	 0.094907
H	 1.6699886254	-1.4682207516	-3.4237402793	 0.101247
H	 1.966502473	 1.2939358526	-4.7580386533	 0.100468
H	 1.0925623855	-0.0905995013	-5.4390427644	 0.096112
H	-0.6488834617	 0.104594897	-3.6459321906	 0.099933
H	-0.1832710267	 1.8150154906	-3.552823923	 0.094831
H	 2.7037183107	 0.8627453063	-0.0654177719	 0.097583
H	 2.6171080879	-0.0851129908	 1.4288962669	 0.119529
H	 3.2012967872	-0.8380641392	-0.0604977212	 0.122758
43.4947	106.972	119.0564	153.2014	160.6967	206.3648	265.4951	277.2041	360.4087	454.9204	480.1902	545.3008	651.2992	727.3353	777.5906	783.4923	793.44	895.699	928.4253	933.8188	949.4849	981.6477	1004.4383	1037.9478	1048.8399	1090.4658	1122.91	1138.6582	1156.2104	1170.2752	1189.9097	1202.0559	1213.288	1241.2617	1255.4816	1257.3076	1273.1464	1284.6892	1321.9891	1352.3175	1397.7426	1415.0733	1441.462	1460.3207	1478.2993	1485.7602	1487.117	1492.9856	1505.3963	1506.2775	1511.5588	2995.1107	3036.1498	3045.7168	3049.2652	3056.8143	3061.7394	3063.0648	3078.0391	3085.4966	3090.0174	3094.326	3098.3104	3100.9299	3117.5187	3133.0762
CC1C(C2CCC2)N1C	C[C@H]1[C@@H](C2CCC2)N1C	
InChI=1S/C8H15N/c1-6-8(9(6)2)7-4-3-5-7/h6-8H,3-5H2,1-2H3	InChI=1S/C8H15N/c1-6-8(9(6)2)7-4-3-5-7/h6-8H,3-5H2,1-2H3/t6-,8-,9?/m0/s1
