13
gdb 30485	4.05794	1.24072	0.9558	5.017	65.02	-0.285	-0.0749	0.2101	1145.2205	0.088552	-489.925331	-489.917371	-489.916427	-489.9592	27.152	
C	-0.3294389616	 1.4670444342	-0.1281093777	-0.336578
N	-0.1750816457	 0.0257926566	-0.1366458857	-0.305845
C	 0.6904709496	-0.5420796244	-0.8236248554	 0.514568
O	 1.5924095555	 0.1341588049	-1.6470747025	-0.210539
C	 2.4895846445	-0.5805228078	-2.3451279262	 0.146597
N	 2.6333608916	-1.8428215472	-2.3572642672	-0.322314
C	 1.7671317905	-2.5950009457	-1.5589552548	 0.46114
O	 1.7795533682	-3.7788290037	-1.4662074166	-0.293934
O	 0.8130907921	-1.8910077957	-0.8140440611	-0.237867
H	 0.3751011259	 2.0056371009	-0.7707752183	 0.125782
H	-1.3502006711	 1.7116513145	-0.4391887457	 0.144493
H	-0.215236485	 1.8252202622	 0.9001129096	 0.144488
H	 3.1251980453	 0.0699549313	-2.9401259983	 0.170009
54.3095	78.9504	91.2475	213.724	239.0781	400.7809	408.58	511.0424	563.2393	638.551	699.2736	754.6398	793.4127	899.6374	926.9986	966.1138	1002.5634	1120.0217	1138.4418	1151.222	1243.6477	1270.0668	1412.7394	1446.4524	1493.0609	1500.9222	1696.8698	1833.5995	1907.6845	3027.9377	3095.5506	3099.6317	3189.9749
CN=C1OC=NC(=O)O1	CN=c1ocnc(=O)o1	
InChI=1S/C4H4N2O3/c1-5-4-8-2-6-3(7)9-4/h2H,1H3	InChI=1S/C4H4N2O3/c1-5-4-8-2-6-3(7)9-4/h2H,1H3
