15
gdb 24934	4.67557	1.27125	1.012	2.3233	71.69	-0.2226	-0.025	0.1976	1092.6505	0.114323	-420.679543	-420.672749	-420.671805	-420.711039	26.426	
O	-0.0411718794	 0.0635812802	 0.0054902154	-0.28985
C	-0.026277666	 1.2623470903	 0.0106897699	 0.405013
C	-1.3004976419	 2.1633106497	 0.0329877355	-0.471514
C	-0.662386785	 3.5013275519	 0.0307773642	 0.323936
C	 0.6935289351	 3.525449368	 0.0121932251	 0.240853
C	 1.2586367168	 2.140215535	-0.0024053981	-0.469263
C	 1.0644572981	 4.909178363	 0.0139679113	-0.358554
C	-0.1120646232	 5.596302096	 0.0338845879	-0.011611
O	-1.1880525913	 4.7453889344	 0.04426322	-0.198156
H	-1.9249160653	 1.940518165	-0.8411182222	 0.145786
H	-1.9002855969	 1.9317396186	 0.9219415948	 0.14581
H	 1.8770426075	 1.8843850155	 0.8668961457	 0.140407
H	 1.853165804	 1.8930840159	-0.8906650093	 0.140378
H	 2.051548185	 5.3440319533	 0.0024698235	 0.1178
H	-0.3562474876	 6.6452942831	 0.0426470864	 0.138964
74.4237	212.6374	248.0723	343.8508	486.0177	504.5781	523.4686	614.1318	646.2451	711.0567	734.633	735.4618	799.6634	824.4333	858.7691	924.0881	994.6347	1034.568	1050.5308	1128.6086	1140.3306	1167.1565	1173.2684	1220.5881	1231.4876	1290.2786	1364.6433	1449.6135	1464.6733	1479.9007	1520.6259	1643.5938	1860.9675	3028.3217	3031.9348	3059.2079	3060.1803	3256.1252	3289.1144
O=C1CC2=C(C1)C=CO2	O=C1Cc2c(C1)cco2	
InChI=1S/C7H6O2/c8-6-3-5-1-2-9-7(5)4-6/h1-2H,3-4H2	InChI=1S/C7H6O2/c8-6-3-5-1-2-9-7(5)4-6/h1-2H,3-4H2
