17
gdb 110343	2.91834	1.24785	1.08785	2.938	69.58	-0.2397	-0.0165	0.2232	1159.9069	0.133897	-458.927775	-458.918887	-458.917943	-458.961925	32.026	
C	 0.1488638528	 0.9825293723	 0.3601269459	-0.243258
O	-0.1654127313	-0.0532625455	-0.5548125528	-0.236712
C	-1.3694886949	-0.6831505226	-0.2740400632	 0.120689
C	-1.5956568011	-2.0578434198	-0.7376645604	-0.148344
C	-1.5114643396	-1.736836916	 0.8191657359	-0.255653
C	-0.3251997912	-2.6329476952	 0.8533808517	 0.38887
O	 0.2066275351	-3.2647103928	 1.7277542762	-0.341321
C	-0.2802488877	-2.8524133481	-0.6842798499	 0.044344
O	-0.4501330205	-4.2171135306	-0.9887171478	-0.449366
H	 1.0994317817	 1.4125249517	 0.0394064985	 0.13709
H	-0.6206039083	 1.7684441781	 0.3547564574	 0.111808
H	 0.2508807341	 0.5975165133	 1.3838232067	 0.124112
H	-2.2365299745	-0.0194321646	-0.3119179455	 0.105594
H	-2.469737168	-2.3842881041	-1.2847658898	 0.125441
H	-2.2846801386	-1.6742200491	 1.5756888052	 0.113554
H	 0.5501129777	-2.4050368365	-1.2396256823	 0.104733
H	 0.0614117643	-4.7127156603	-0.3370372656	 0.298417
59.1749	87.8712	153.8598	184.2335	224.1912	271.2375	291.7173	355.3911	425.2781	526.2423	593.3973	667.618	699.0357	778.9039	855.3676	902.5876	919.8009	943.1884	971.2005	1035.4259	1071.3044	1087.3811	1132.3327	1139.6918	1179.7552	1187.2125	1193.1746	1248.6404	1277.4848	1315.6236	1351.5609	1382.111	1424.3587	1486.9552	1487.4301	1507.1481	1859.4075	2991.3969	3048.5297	3056.1109	3080.4382	3131.8561	3190.2041	3217.5066	3780.4705
COC1C2C1C(=O)C2O	CO[C@H]1[C@@H]2[C@H]1C(=O)[C@H]2O	
InChI=1S/C6H8O3/c1-9-6-2-3(6)5(8)4(2)7/h2-4,6-7H,1H3	InChI=1S/C6H8O3/c1-9-6-2-3(6)5(8)4(2)7/h2-4,6-7H,1H3/t2-,3+,4+,6+/m1/s1
