17
gdb 51371	4.02572	1.09973	1.03797	3.9419	73.9	-0.2331	0.0194	0.2526	1173.6492	0.136695	-417.925152	-417.917494	-417.91655	-417.958053	29.272	
O	 0.2424220937	 0.5099173743	 1.797571549	-0.312229
C	 0.0578337579	 1.3953772235	 0.9927348724	 0.143273
N	 1.0368516361	 1.9748559695	 0.2373437658	-0.304991
C	 2.3694048393	 1.4344903906	 0.2089318609	 0.06345
C	 3.4789927139	 1.8744272393	-0.6823447589	-0.169993
C	 3.779927529	 3.387976848	-0.6383557867	-0.046946
C	 2.9881996734	 4.2135976415	 0.3073910464	-0.255809
N	 4.0742106833	 3.3640643622	 0.8331883086	-0.133405
C	 3.664278069	 1.9107377507	 0.8364128753	-0.03054
H	-0.9370502076	 1.838186608	 0.7874202772	 0.07819
H	 0.753309379	 2.5836008154	-0.5148408193	 0.255642
H	 2.3369397404	 0.3508033582	 0.3111143209	 0.13284
H	 3.9346607662	 1.2290074221	-1.4227989148	 0.102884
H	 4.4917277932	 3.8318706898	-1.3267390667	 0.107103
H	 3.2557411638	 5.2666097713	 0.3491926189	 0.126139
H	 1.9620980905	 3.9981731854	 0.564877101	 0.130414
H	 4.223513899	 1.2579889302	 1.49474553	 0.11398
41.9876	133.8257	217.182	233.5727	310.3368	407.8183	522.7836	548.4527	638.1975	684.5477	706.6485	734.1954	754.1935	828.4235	885.2883	905.5733	960.1759	1003.1317	1017.2331	1024.8586	1029.3553	1058.7457	1070.2953	1099.4993	1131.8976	1147.0881	1168.724	1224.5484	1257.9499	1278.1301	1332.6132	1362.5289	1428.2379	1432.7144	1497.2708	1502.4517	1809.1441	2936.7635	3127.1694	3129.6121	3162.0458	3186.1227	3196.9818	3252.7997	3621.0189
O=CNC1C2C3CN3C12	O=CN[C@H]1[C@H]2[C@H]3CN3[C@@H]12	
InChI=1S/C6H8N2O/c9-2-7-5-4-3-1-8(3)6(4)5/h2-6H,1H2,(H,7,9)	InChI=1S/C6H8N2O/c9-2-7-5-4-3-1-8(3)6(4)5/h2-6H,1H2,(H,7,9)/t3-,4-,5+,6-,8?/m1/s1
