20
gdb 103222	3.50701	1.39134	1.18933	1.3709	79.45	-0.2319	0.0768	0.3087	1109.0795	0.169835	-403.036833	-403.028463	-403.027519	-403.069662	32.35	
C	-0.1877907196	 1.3637461137	 0.0032363122	-0.251543
O	 0.2144149656	 0.0114936956	-0.0697723328	-0.298096
C	 0.7980174888	-0.5120557583	 1.1031984692	 0.448062
C	 2.1472366243	 0.1006902832	 1.4424908895	-0.476878
C	-0.1777321856	-0.8290024858	 2.260536011	-0.081941
C	-0.8484261698	-2.015458631	 1.5028989579	-0.068752
C	-0.558011708	-2.9123864183	 2.7000131891	-0.186743
N	 0.6945527766	-2.039582755	 2.7022133506	-0.175215
C	 0.6680100441	-2.038898977	 1.1469515061	-0.071071
H	 0.6639090237	 2.0527916411	 0.086459895	 0.111688
H	-0.7219090368	 1.584911561	-0.9240199483	 0.12803
H	-0.8655175058	 1.5460134497	 0.8503585626	 0.105756
H	 2.0548409652	 1.1554451364	 1.7197862446	 0.114455
H	 2.5937703624	-0.4326442874	 2.284265916	 0.149038
H	 2.8173318646	 0.0341844666	 0.5794091672	 0.121036
H	-0.6252588588	-0.1798380472	 3.0164155813	 0.076057
H	-1.6993093278	-1.9855270577	 0.8188655157	 0.076154
H	-1.1705326523	-2.7933101763	 3.6001185539	 0.099489
H	-0.3482998024	-3.971761657	 2.5175000695	 0.100596
H	 1.2136512016	-2.7982764064	 0.5833027197	 0.079877
72.8849	165.0563	197.3168	217.1597	242.2076	294.2049	364.12	386.1647	510.2939	568.0093	632.5041	734.5026	803.6964	843.9364	850.2081	885.1744	903.6142	908.0529	940.9666	1025.0654	1030.15	1071.8545	1089.5408	1097.6097	1102.5778	1150.797	1158.6388	1171.6815	1179.699	1185.5058	1194.9012	1214.045	1240.8113	1274.7995	1279.7962	1353.5107	1399.6972	1476.418	1486.5118	1490.5911	1503.9063	1510.6094	1521.3974	2987.685	3033.5312	3037.2366	3044.3852	3078.8517	3090.2676	3091.5713	3101.6417	3104.5497	3113.6935	3135.3788
COC1(C)C2C3CN2C13	CO[C@@]1(C)[C@H]2[C@@H]3CN2[C@H]13	
InChI=1S/C7H11NO/c1-7(9-2)5-4-3-8(5)6(4)7/h4-6H,3H2,1-2H3	InChI=1S/C7H11NO/c1-7(9-2)5-4-3-8(5)6(4)7/h4-6H,3H2,1-2H3/t4-,5+,6-,7-
