18
gdb 50320	3.60675	1.25714	1.07129	3.9352	80.85	-0.2109	-0.005	0.2059	1139.7581	0.150212	-401.976481	-401.968967	-401.968023	-402.008593	29.373	
O	-0.1148189448	-0.077845514	-0.462018135	-0.328618
C	-0.0724636831	 1.1124544879	-0.2426506926	 0.148876
N	 1.0521391503	 1.8082204066	 0.1277138413	-0.08437
C	 1.0225040669	 3.2683711093	 0.2271156523	-0.189494
C	 1.9742887049	 3.8029637103	 1.2808290724	-0.040252
C	 2.1490618254	 3.14798874	 2.6181667544	-0.289657
C	 3.2282377558	 3.0009083855	 1.54574995	-0.074675
C	 3.3349283724	 1.7004817281	 0.8440619281	-0.132133
C	 2.2886164845	 1.1474526198	 0.2237329357	-0.002054
H	-0.9567707359	 1.7745473512	-0.3136980659	 0.075451
H	 1.306829212	 3.7071896842	-0.7404306018	 0.11848
H	-0.0090380844	 3.5724542897	 0.4338151661	 0.121305
H	 2.0778514592	 4.8836239012	 1.2462687461	 0.094749
H	 2.3571915345	 3.7846731927	 3.4711932498	 0.117197
H	 1.5668730718	 2.2613908464	 2.8437988604	 0.130641
H	 4.1539676651	 3.5424657142	 1.7070473009	 0.090252
H	 4.2732884454	 1.1598050801	 0.8792791426	 0.101103
H	 2.29325918	 0.1643025466	-0.2272913349	 0.143198
73.4106	208.8549	235.1549	266.6162	328.9867	336.1619	445.0655	536.9085	598.6968	651.9339	742.9421	777.7166	809.9676	822.9916	865.264	868.6918	957.3714	973.987	1007.2421	1021.828	1053.8045	1065.0924	1082.4179	1117.4034	1128.6133	1174.385	1214.3634	1246.0996	1308.2682	1342.2222	1362.6477	1392.2469	1419.6699	1436.2784	1449.0257	1488.3976	1505.4449	1709.7921	1795.2491	2946.5858	2995.5003	3065.142	3134.3181	3148.9695	3165.3798	3198.592	3224.9489	3234.6585
O=CN1CC2CC2C=C1	O=CN1C[C@H]2C[C@H]2C=C1	
InChI=1S/C7H9NO/c9-5-8-2-1-6-3-7(6)4-8/h1-2,5-7H,3-4H2	InChI=1S/C7H9NO/c9-5-8-2-1-6-3-7(6)4-8/h1-2,5-7H,3-4H2/t6-,7-/m1/s1
