17
gdb 15948	3.63362	1.82953	1.49125	2.5069	63.66	-0.2267	0.057	0.2837	877.7505	0.143006	-400.938844	-400.931435	-400.930491	-400.970696	27.936	
O	-0.0031475158	 1.4484082622	-0.125751292	-0.418829
C	 0.0779291463	 0.050890344	 0.0931949767	-0.15217
C	-1.3023864571	-0.5558377866	 0.0600422231	 0.431677
C	-2.2770243766	-0.4282558294	 1.2515936739	-0.212342
N	-2.769778415	-1.8183014054	 0.9972674129	-0.322975
C	-1.7254517299	-2.0452882541	-0.0332624006	-0.129979
C	-2.2282451269	-1.6822832116	-1.4385453419	-0.065629
O	-1.9435223725	-0.2736539198	-1.2131538377	-0.34748
H	-0.5157560811	 1.5578955901	-0.9366188545	 0.29703
H	 0.7115794793	-0.4412444303	-0.6624996571	 0.087094
H	 0.5466510892	-0.0945811827	 1.0721737859	 0.105614
H	-1.7570614831	-0.3015746552	 2.2094607233	 0.098468
H	-3.0474713738	 0.3416410013	 1.1539590945	 0.117002
H	-2.674756528	-2.4273946881	 1.8005336478	 0.222684
H	-1.0699220671	-2.9082344302	 0.0946408061	 0.077075
H	-1.6250141648	-2.0783425798	-2.2655053365	 0.09863
H	-3.2913232629	-1.8669661744	-1.6197879938	 0.114131
79.8667	140.2085	173.348	307.8615	351.7227	393.5175	436.7329	467.4303	660.3213	696.4911	738.5201	849.7067	897.0184	915.3137	930.8688	985.6454	998.7283	1039.5386	1047.9967	1060.2533	1091.2968	1129.363	1148.32	1154.8366	1176.6913	1249.2747	1255.6211	1300.896	1333.7687	1364.3211	1374.2631	1395.1989	1437.7079	1491.1363	1500.5059	1504.5396	2973.0953	3016.0688	3021.3751	3073.5198	3088.769	3090.6435	3097.2171	3551.3956	3781.5582
OCC12CNC1CO2	OC[C@]12CN[C@H]1CO2	
InChI=1S/C5H9NO2/c7-3-5-2-6-4(5)1-8-5/h4,6-7H,1-3H2	InChI=1S/C5H9NO2/c7-3-5-2-6-4(5)1-8-5/h4,6-7H,1-3H2/t4-,5+/m0/s1
