16
gdb 84629	2.33209	1.88114	1.53194	2.8943	68.84	-0.2349	-0.0288	0.2061	921.1094	0.125932	-437.868541	-437.861309	-437.860364	-437.900077	28.582	
O	 0.0770828239	 1.3948678187	-0.1454672785	-0.428377
C	 0.026283099	-0.0199226095	-0.0322616564	 0.082727
C	 0.7183704701	-0.5125576716	 1.2296213099	-0.121031
C	 0.030857101	-1.2028082928	 2.1449977824	-0.067298
C	-1.4116969173	-1.5621659144	 1.8144068192	-0.167849
N	-1.5426475415	-1.9673355647	 0.3787361596	-0.312631
C	-1.4393789773	-0.5317197775	-0.0269550825	-0.156301
C	-2.0357062362	-0.2210202908	 1.360669196	 0.450419
O	-2.6792183369	 0.6538491357	 1.8518756709	-0.316235
H	-0.3724897688	 1.7729525659	 0.6204744559	 0.29453
H	 0.5432090577	-0.3814892371	-0.9305675639	 0.097934
H	 1.7595148115	-0.2371621159	 1.3669506072	 0.113196
H	 0.4562711661	-1.5016351612	 3.097676051	 0.111911
H	-1.9074297242	-2.1981799827	 2.5482413731	 0.096591
H	-0.7461831752	-2.5214818819	 0.0673489767	 0.219155
H	-1.9801663419	-0.2349910201	-0.9282166408	 0.103258
110.8017	155.9925	288.0886	352.6678	380.9728	408.3085	455.8609	500.77	581.7721	600.4829	688.5527	751.6953	802.6551	857.1886	878.4781	940.9728	972.3303	982.025	1003.2682	1038.1655	1052.572	1070.2177	1111.7014	1125.6889	1177.9291	1234.9161	1241.7619	1280.5059	1297.2938	1325.5006	1361.3209	1380.4557	1427.2198	1672.6783	1914.603	3024.2095	3095.851	3112.8829	3170.9545	3193.0687	3471.5957	3783.9515
OC1C=CC2NC1C2=O	O[C@H]1C=C[C@@H]2N[C@H]1C2=O	
InChI=1S/C6H7NO2/c8-4-2-1-3-6(9)5(4)7-3/h1-5,7-8H	InChI=1S/C6H7NO2/c8-4-2-1-3-6(9)5(4)7-3/h1-5,7-8H/t3-,4-,5+/m0/s1
