20
gdb 13458	3.38145	1.26332	1.16024	1.8956	72.05	-0.2258	0.0682	0.2941	1161.4326	0.174855	-386.113758	-386.104184	-386.10324	-386.148511	34.067	
C	 0.2099287783	 1.4664017536	-0.0301758891	-0.388921
C	 0.3850208382	-0.0411907274	 0.0070202162	-0.045747
O	 0.3610547556	-0.5299366089	-1.3337086133	-0.265901
C	 0.5272775271	-1.9185017467	-1.4083299827	 0.054209
C	 0.8413196294	-2.490198275	-2.7717308235	-0.108806
C	 0.8546962564	-1.6307248979	-4.0159099658	-0.393723
C	 1.9334421379	-2.3820300066	-1.7181122326	 0.089238
O	 2.9193483375	-1.4003933178	-1.8316547323	-0.432396
H	 1.0274441056	 1.9406730937	-0.5813702043	 0.124621
H	-0.7313065622	 1.73112579	-0.5198711409	 0.13151
H	 0.2001044422	 1.8713907147	 0.9859900923	 0.120472
H	 1.3316488592	-0.3191078194	 0.4932799781	 0.104879
H	-0.4283727387	-0.5124492824	 0.5803917247	 0.097169
H	-0.1104334969	-2.4808743275	-0.72641405	 0.083352
H	 0.4531102255	-3.4949834397	-2.9218064557	 0.085785
H	 1.3189095578	-0.6607672004	-3.8315164134	 0.120361
H	 1.4200299695	-2.1235762128	-4.8133081914	 0.119064
H	-0.1612417697	-1.4498726652	-4.3813781804	 0.117572
H	 2.3245286495	-3.2887135663	-1.2670669262	 0.096631
H	 2.4605128476	-0.551816018	-1.7709056196	 0.290631
71.3549	80.7449	106.7761	117.6556	201.0342	231.5558	258.8016	293.9714	399.8322	452.5645	505.6843	611.4203	671.9382	736.8283	800.983	823.0997	878.6348	918.9235	981.1956	1016.1943	1062.1806	1091.5418	1112.0352	1137.1412	1145.0672	1156.8485	1181.7265	1188.4437	1240.3293	1296.3502	1323.0133	1348.8838	1380.4308	1405.6485	1419.3996	1432.9972	1464.3562	1483.5397	1488.3318	1499.2959	1503.5455	1528.4957	2981.9461	3016.7592	3042.6346	3045.0825	3096.684	3099.6951	3117.6739	3123.4335	3127.057	3141.7562	3157.7333	3753.311
CCOC1C(C)C1O	CCO[C@H]1[C@@H](C)[C@H]1O	
InChI=1S/C6H12O2/c1-3-8-6-4(2)5(6)7/h4-7H,3H2,1-2H3	InChI=1S/C6H12O2/c1-3-8-6-4(2)5(6)7/h4-7H,3H2,1-2H3/t4-,5+,6-/m0/s1
