19
gdb 120992	3.71328	1.01607	0.91122	0.4553	71.95	-0.2485	0.0536	0.3021	1336.4024	0.158479	-460.098306	-460.089659	-460.088715	-460.132635	31.104	
C	 0.4639313417	 1.3364576921	-0.3183297314	-0.22371
O	 0.6112850997	-0.06122229	-0.237845217	-0.239442
C	-0.2038961951	-0.7533147492	-1.1574934985	-0.080706
C	 0.1091184454	-2.2277077324	-1.0148491432	 0.096844
O	-0.808406553	-3.0715983117	-1.7673650235	-0.321288
C	 0.276147739	-3.7552497735	-2.4233201913	 0.069575
C	 0.6899658299	-3.0916474522	-3.7427473007	-0.092856
O	 1.5773836067	-2.180271955	-3.0394105485	-0.290508
C	 1.3136439046	-2.8179915193	-1.776359296	 0.051272
H	 0.7341056038	 1.7185172192	-1.3149503929	 0.109384
H	-0.5687559654	 1.6508900657	-0.098346646	 0.104081
H	 1.1330223361	 1.778878775	 0.4237068658	 0.126761
H	-1.2746690845	-0.5919848507	-0.9473532195	 0.094115
H	-0.0049665261	-0.4284665399	-2.1894032271	 0.105113
H	 0.1075960132	-2.5056184127	 0.047601767	 0.087923
H	 0.2098777209	-4.8415332453	-2.3497364894	 0.091333
H	 1.2532821016	-3.7340273079	-4.4314424676	 0.105827
H	-0.1142685416	-2.5759833953	-4.2777192484	 0.114992
H	 2.2200008232	-3.081659037	-1.2307762817	 0.091291
56.8335	88.5989	102.7281	187.6802	222.5934	267.1154	368.1854	392.4787	420.1242	586.5201	703.1538	804.8206	813.298	896.7201	949.4026	951.5129	977.3351	1003.3288	1025.204	1040.704	1073.124	1091.4142	1134.1758	1164.0076	1170.2779	1184.9419	1197.4995	1223.6211	1228.9743	1249.1104	1280.7813	1300.8013	1335.5776	1356.0093	1364.0148	1428.3379	1479.8498	1485.6715	1499.4414	1502.2425	1523.352	2964.5691	2975.3271	3013.9216	3018.0881	3018.8939	3029.0726	3083.0917	3100.6382	3114.0813	3115.0991
COCC1OC2COC12	COC[C@H]1O[C@H]2CO[C@@H]12	
InChI=1S/C6H10O3/c1-7-2-4-6-5(9-4)3-8-6/h4-6H,2-3H2,1H3	InChI=1S/C6H10O3/c1-7-2-4-6-5(9-4)3-8-6/h4-6H,2-3H2,1H3/t4-,5+,6+/m1/s1
