16
gdb 78126	2.94487	1.32932	1.0988	2.2722	77.08	-0.2312	-0.0317	0.1995	1123.6567	0.121964	-400.673631	-400.665116	-400.664172	-400.706889	31.583	
C	-0.0975165783	 1.5480149126	 0.0222841473	-0.324437
N	 0.0861567576	 0.1030875279	-0.0797265385	-0.079866
C	 0.6400943486	-0.566394493	-1.2128853284	-0.036981
C	 1.3688506387	-0.557312699	 0.131316388	-0.174026
C	 2.4978882924	 0.2133258496	-0.5165611071	 0.408715
O	 3.6007314745	 0.5184475108	-0.1806054084	-0.29271
C	 1.7528270642	 0.2615256625	-1.9147258058	-0.364354
C	 2.4824348906	-0.4333863882	-2.9506048007	 0.304104
C	 3.087067083	-1.0369766938	-3.7965455294	-0.410847
H	 0.7168635945	 2.1594965301	-0.3875194875	 0.124763
H	-1.0249905803	 1.8131652391	-0.493436802	 0.135912
H	-0.2109551813	 1.8006381903	 1.0797047834	 0.138838
H	 0.1119907947	-1.3948153461	-1.6698319394	 0.124996
H	 1.4565405715	-1.3036348162	 0.9131565361	 0.119587
H	 1.4402061119	 1.2544899109	-2.2524312538	 0.125386
H	 3.6261287775	-1.5573490875	-4.5490666737	 0.20092
89.9718	125.1925	138.2282	154.088	266.3395	354.0617	381.1652	436.6985	487.3171	532.8946	621.4764	644.4829	655.8302	710.8115	736.8338	858.9141	899.5093	928.4327	960.3048	968.1359	1053.9495	1071.6121	1097.5461	1142.3697	1159.0907	1177.9478	1228.9338	1247.2761	1309.2198	1361.1098	1455.8612	1492.7878	1500.4695	1891.6256	2234.8324	3015.6131	3058.7691	3089.8151	3121.0433	3178.5135	3192.5574	3504.1835
CN1C2C1C(=O)C2C#C	CN1[C@@H]2[C@H]1C(=O)[C@H]2C#C	
InChI=1S/C7H7NO/c1-3-4-5-6(7(4)9)8(5)2/h1,4-6H,2H3	InChI=1S/C7H7NO/c1-3-4-5-6(7(4)9)8(5)2/h1,4-6H,2H3/t4-,5-,6-,8?/m0/s1
