18
gdb 69059	3.34651	1.06261	0.9409	3.253	75.29	-0.2345	0.0188	0.2534	1284.4878	0.145846	-439.041266	-439.032194	-439.03125	-439.075766	33.032	
O	-0.0363265729	 1.3741875697	 0.0397053452	-0.452313
C	-0.0761640803	-0.0021151975	 0.0820569489	 0.352719
C	-0.475020601	-0.9054682022	-1.0562157103	-0.417552
C	-1.1865239886	-1.0338038608	 0.2822113121	 0.346707
C	-0.3312605284	-1.8038886801	 1.2840859149	-0.294026
C	 0.8107375697	-0.7479593717	 1.0719465165	-0.262609
O	-2.5579974033	-0.8350902826	 0.4101712473	-0.226971
C	-3.3649191132	-1.7427197668	-0.1923497112	 0.104323
N	-4.6154307062	-1.6450486393	-0.0682672053	-0.437437
H	-0.6269955189	 1.6894070649	-0.6521133275	 0.29166
H	-1.0853378346	-0.4134362409	-1.810749873	 0.114822
H	 0.1764551989	-1.6867854507	-1.4470927717	 0.108742
H	-0.7445727442	-1.7643902812	 2.2937784229	 0.123057
H	-0.0954461816	-2.8427723688	 1.0303317499	 0.097424
H	 1.7612020611	-1.1191252317	 0.6777485494	 0.103223
H	 0.9967526069	-0.1586964075	 1.9716469425	 0.122729
H	-2.812260229	-2.5011028926	-0.7607349473	 0.094769
H	-5.0742158944	-2.3931091502	-0.5843562434	 0.230731
57.7856	95.4746	113.5526	144.718	218.1971	258.1325	362.9616	392.1648	434.8662	470.0942	588.2997	637.7654	708.7759	793.0361	821.4452	827.5034	892.616	929.8958	945.5955	975.2562	1020.0608	1048.8228	1059.7455	1077.8736	1116.1094	1136.27	1191.7706	1211.9277	1228.4216	1239.7293	1278.6301	1308.9156	1402.0564	1403.2829	1413.6721	1477.2134	1480.7038	1526.2762	1744.8746	3043.3527	3046.2905	3061.3686	3080.1475	3111.6092	3129.316	3174.5258	3516.3427	3821.647
OC12CC1(CC2)OC=N	O[C@]12C[C@]1(CC2)O[CH][NH]	
InChI=1S/C6H9NO2/c7-4-9-6-2-1-5(6,8)3-6/h4,7-8H,1-3H2	InChI=1S/C6H9NO2/c7-4-9-6-2-1-5(6,8)3-6/h4,7-8H,1-3H2/t5-,6+/m1/s1
