15
gdb 37405	2.95245	2.27353	1.82265	1.6671	61.72	-0.2507	0.0408	0.2914	775.6983	0.114647	-457.676463	-457.670918	-457.669974	-457.706118	23.726	
O	-0.0099358523	 1.4238730375	 0.0545565842	-0.232006
C	 1.2756407097	 0.8002401295	-0.0417743962	 0.047107
C	 0.0403207077	 0.0063538777	-0.0337048574	 0.063044
C	-0.1321277131	-0.7068143034	-1.3686653131	-0.025875
O	 1.0479456312	-1.5856412855	-1.4160351091	-0.29802
C	 1.7213863341	-0.5818761168	-2.1698276964	 0.06845
C	 1.9020029735	 0.8390552374	-1.4384555983	-0.014618
O	 0.9252272395	 1.411011872	-2.3454296188	-0.27081
C	 0.438307861	 0.1023289278	-2.6134322397	 0.076058
H	 1.9122497777	 0.8857464843	 0.8339913781	 0.105658
H	-0.2895387949	-0.5345538026	 0.8511615964	 0.10687
H	-1.0588022669	-1.2693754403	-1.4906624666	 0.084868
H	 2.5447621353	-0.9477695684	-2.7823286152	 0.101864
H	 2.8683507656	 1.3424632926	-1.4942306871	 0.084966
H	-0.089358278	-0.0005352319	-3.5615280506	 0.102445
279.028	322.5916	406.798	487.8993	565.4366	650.0809	704.4235	741.6039	757.9431	805.658	838.1147	860.1752	866.8804	916.9678	951.5981	977.1845	1003.0038	1034.0877	1041.1656	1046.9343	1081.0089	1111.431	1143.8061	1186.0581	1221.9468	1239.2456	1264.429	1297.3301	1307.9198	1322.7943	1342.5436	1364.5503	1444.6681	3100.8857	3102.1765	3117.1646	3129.4135	3131.4355	3157.8567
O1C2C1C1OC3C2OC13	O1[C@H]2[C@@H]1[C@@H]1O[C@@H]3[C@H]2O[C@H]13	
InChI=1S/C6H6O3/c7-1-2(7)4-6-5(9-4)3(1)8-6/h1-6H	InChI=1S/C6H6O3/c7-1-2(7)4-6-5(9-4)3(1)8-6/h1-6H/t1-,2+,3-,4-,5+,6+/m0/s1
