21
gdb 15834	2.97049	1.36195	1.05522	2.5179	75.37	-0.2353	0.0805	0.3158	1205.9768	0.187653	-366.234154	-366.224652	-366.223707	-366.26904	33.94	
C	 0.1249745194	 1.2510226433	-0.5206835702	-0.38569
C	 0.0272016952	-0.110407722	 0.1473049646	-0.037235
O	-1.1497435053	-0.7490494405	-0.3127856851	-0.263538
C	-1.3229445887	-2.0946079189	 0.1093372462	 0.104777
C	-1.8062421774	-2.1908936454	 1.5595951944	-0.397912
C	-2.3082091693	-2.7502354	-0.844736762	 0.010273
C	-3.4350858613	-1.9827976131	-1.4248755585	-0.233534
N	-2.2997329578	-2.4088030541	-2.2704820398	-0.333822
H	 1.0225682302	 1.7767402218	-0.18166591	 0.117324
H	 0.1746369943	 1.1451041616	-1.6082418385	 0.125721
H	-0.7480444961	 1.8624141612	-0.2753406625	 0.128232
H	 0.9082107759	-0.7265678495	-0.0966854005	 0.090168
H	 0.0060280071	 0.0056158439	 1.2415608457	 0.0934
H	-0.3561298723	-2.6203325392	 0.0177440406	 0.069592
H	-1.0726440087	-1.7779576091	 2.2577807453	 0.115776
H	-2.7476387677	-1.6470122716	 1.679776992	 0.127253
H	-1.9730246366	-3.237166843	 1.8354384602	 0.119001
H	-2.4500753011	-3.8107708398	-0.6447320856	 0.086906
H	-4.3784386694	-2.4776679777	-1.6376338931	 0.110372
H	-3.5093866236	-0.9306523292	-1.1689179133	 0.121003
H	-1.685986557	-1.6034892085	-2.3838990497	 0.231934
46.9298	90.9603	99.54	152.2559	213.7411	245.4637	259.7112	302.365	355.3701	446.6611	496.6387	592.41	772.3709	820.599	839.9797	878.3621	913.0524	955.6127	969.7378	986.0201	1056.3975	1081.6196	1112.4437	1114.341	1145.7671	1155.7581	1165.0195	1188.3702	1220.6558	1285.5806	1297.938	1313.7822	1356.0287	1367.3984	1402.5743	1403.9547	1421.5721	1437.5058	1484.4326	1491.2102	1496.0346	1499.5978	1500.8001	1529.7354	2945.7612	2969.2768	3002.2621	3041.2098	3044.5573	3109.5172	3114.9791	3119.2747	3120.4285	3121.2315	3124.6873	3205.6243	3484.916
CCOC(C)C1CN1	CCO[C@@H](C)[C@H]1CN1	
InChI=1S/C6H13NO/c1-3-8-5(2)6-4-7-6/h5-7H,3-4H2,1-2H3	InChI=1S/C6H13NO/c1-3-8-5(2)6-4-7-6/h5-7H,3-4H2,1-2H3/t5-,6+/m0/s1
