18
gdb 54724	2.97046	1.40459	1.37344	1.7514	74.81	-0.2305	-0.0202	0.2103	1034.1189	0.14613	-401.864062	-401.855901	-401.854957	-401.896963	31.192	
C	 1.2837424002	-0.6174603199	 0.6632220184	-0.469974
C	 0.1066082478	 0.1551681604	 0.1009325531	 0.321738
O	 0.1042858842	 1.3574628133	-0.0248492317	-0.299891
C	-1.1491271944	-0.6614180344	-0.1510670398	-0.083976
C	-2.0099382581	-0.8300998543	-1.3397477818	-0.053938
C	-1.3243646547	-1.0207096498	-2.7019431642	-0.06445
C	 0.1695917947	-0.92619627	-2.6187675551	-0.314238
C	-0.5343554883	-2.132917153	-2.054643406	-0.008458
N	-1.2766416927	-2.0141119873	-0.7307888725	-0.176424
H	 2.116442906	 0.0605823321	 0.8543988771	 0.140608
H	 0.9845506939	-1.108548735	 1.5967016671	 0.146718
H	 1.588556008	-1.4127241577	-0.0235151494	 0.153392
H	-1.7393380528	-0.6361287902	 0.7695805907	 0.129297
H	-3.0908012655	-0.7649630668	-1.2594814875	 0.105652
H	-1.875964474	-1.016212733	-3.6317139343	 0.101554
H	 0.6745259917	-1.1466397557	-3.5553422316	 0.121332
H	 0.6704652872	-0.1643876555	-2.0367882372	 0.143289
H	-0.3273162431	-3.1401209232	-2.3911831753	 0.107769
84.5357	116.2791	138.0226	178.6361	303.2482	363.071	443.5878	516.205	569.9025	635.0935	679.8266	708.3559	745.1633	757.5422	833.1744	894.5879	901.7801	934.0286	967.3133	1008.1199	1020.1337	1040.6736	1060.2186	1062.3588	1072.2692	1080.156	1105.0018	1167.0693	1197.8368	1257.4893	1273.6229	1337.2909	1349.66	1380.6891	1423.7168	1460.1013	1473.4516	1496.2535	1803.6328	3040.4988	3071.8132	3105.4859	3139.1593	3154.3235	3155.1484	3196.8906	3211.4544	3228.8649
CC(=O)C1C2C3CC3N12	CC(=O)[C@H]1[C@H]2[C@H]3C[C@H]3N12	
InChI=1S/C7H9NO/c1-3(9)6-7-4-2-5(4)8(6)7/h4-7H,2H2,1H3	InChI=1S/C7H9NO/c1-3(9)6-7-4-2-5(4)8(6)7/h4-7H,2H2,1H3/t4-,5+,6-,7+,8?/m0/s1
