20
gdb 17812	4.01423	1.44561	1.31625	1.3615	75.58	-0.2607	0.0768	0.3375	1026.7949	0.177518	-348.949651	-348.941769	-348.940825	-348.981985	30.658	
C	 0.03680576	 1.486112351	-0.1160990795	-0.405353
C	 0.0078765668	-0.0442596062	-0.1294702732	 0.063239
O	 0.7602405342	-0.5666541812	-1.2270263365	-0.439179
C	 0.656546465	-0.6234996004	 1.1171815406	 0.107456
C	-0.0700582188	-0.6615145509	 2.5000640253	-0.065145
C	-0.9279096632	-1.8519703015	 1.9756396547	-0.226313
C	 0.5256729623	-2.1341928676	 1.4917965613	-0.053151
C	 0.9865481953	-1.7250815656	 2.9218543368	-0.221006
H	 1.0670438924	 1.848423345	-0.0389387003	 0.122515
H	-0.4007891764	 1.8938387906	-1.035136803	 0.101339
H	-0.537007617	 1.8834356162	 0.7275723757	 0.118581
H	-1.0386965515	-0.3719871765	-0.2117649339	 0.062068
H	 0.4241473518	-0.1634545806	-2.0337921905	 0.278348
H	 1.6877634605	-0.2527494925	 1.1679901127	 0.062668
H	-0.4128368638	 0.1909281646	 3.0899865369	 0.06481
H	-1.3199871493	-2.5312388713	 2.7379126872	 0.087136
H	-1.6873288984	-1.6439875525	 1.2207947391	 0.092297
H	 0.8743983355	-2.9829675108	 0.9034416855	 0.075453
H	 2.0185452038	-1.378894722	 3.0272936465	 0.087951
H	 0.7007996706	-2.3958189178	 3.7365768144	 0.086289
56.1982	154.5006	228.1684	254.2415	285.6039	318.9527	441.858	483.7017	545.4189	572.8227	776.2372	807.0259	860.7047	883.9144	899.1049	902.373	905.7011	999.6073	1007.2722	1015.6481	1030.0751	1068.9062	1084.3156	1112.8358	1124.2979	1130.5258	1142.0932	1160.5135	1190.6709	1214.6969	1240.0388	1249.8103	1262.7346	1272.3809	1361.2255	1375.0994	1402.4284	1449.9342	1491.4638	1499.1478	1506.055	1541.2573	2990.1619	3024.5467	3031.3066	3047.7662	3059.4938	3089.0955	3091.1285	3110.3488	3113.5956	3114.1487	3126.057	3814.1051
CC(O)C1C2CC1C2	C[C@@H](O)[C@H]1[C@H]2C[C@@H]1C2	
InChI=1S/C7H12O/c1-4(8)7-5-2-6(7)3-5/h4-8H,2-3H2,1H3	InChI=1S/C7H12O/c1-4(8)7-5-2-6(7)3-5/h4-8H,2-3H2,1H3/t4-,5-,6+,7-/m1/s1
