20
gdb 90459	2.38488	1.51151	1.22119	1.4091	83.94	-0.2245	0.03	0.2545	1122.3616	0.171352	-365.964628	-365.956128	-365.955184	-365.997744	33.335	
C	-0.0346594943	 1.5600628918	 0.0152372187	-0.40894
C	 0.0242380724	 0.0341583831	-0.0125084654	 0.058793
C	 0.8533147566	-0.5616015651	-1.1797989601	-0.269306
C	 1.3669869984	-1.8823457695	-0.6222252333	-0.032957
C	 2.5853658896	-1.8704756215	 0.2525487848	-0.202478
C	 3.4278357233	-0.7144697298	 0.3447180282	 0.362417
C	 4.1515818703	 0.2431415312	 0.4389018704	-0.474764
N	 1.2163745651	-1.9115748762	 0.8417838094	-0.119683
C	 0.660388288	-0.599177058	 1.2481345637	-0.186849
H	 0.9724908858	 1.9852564803	 0.0887799698	 0.122379
H	-0.5024573941	 1.9575003202	-0.8915753852	 0.113716
H	-0.6152498373	 1.9205735812	 0.8711281022	 0.114513
H	-0.9975520663	-0.3568750794	-0.0979537683	 0.078127
H	 0.2500318347	-0.7138422756	-2.0782391427	 0.101337
H	 1.6809032754	 0.1047032435	-1.4465295981	 0.117006
H	 1.1288447742	-2.804715517	-1.1460603047	 0.093545
H	 3.1143178188	-2.8114220143	 0.3898292757	 0.113264
H	 4.7990933298	 1.0810920882	 0.5188015435	 0.201567
H	 1.4434596659	 0.0457869949	 1.6632701719	 0.11307
H	-0.0794904263	-0.7726346679	 2.0346845497	 0.105242
54.9243	150.2288	172.9251	242.2541	307.3125	337.4054	366.8537	416.2246	560.2029	566.6241	597.4614	601.7524	660.1545	684.4711	764.236	802.2401	838.6763	895.9584	902.6516	938.822	954.5757	1003.451	1021.0725	1084.1122	1101.7922	1123.9152	1151.415	1164.6617	1198.0491	1259.1126	1275.3933	1300.4505	1323.2431	1348.0529	1362.1078	1371.6553	1396.0826	1411.3523	1492.9745	1498.2589	1500.0506	1512.5986	2225.6983	3018.9343	3028.0818	3038.8654	3047.8791	3085.168	3095.484	3097.0265	3101.4284	3121.7504	3137.0443	3501.7735
CC1CC2C(C#C)N2C1	C[C@H]1C[C@H]2[C@@H](C#C)N2C1	
InChI=1S/C8H11N/c1-3-7-8-4-6(2)5-9(7)8/h1,6-8H,4-5H2,2H3	InChI=1S/C8H11N/c1-3-7-8-4-6(2)5-9(7)8/h1,6-8H,4-5H2,2H3/t6-,7+,8-,9?/m0/s1
