19
gdb 76666	2.85351	0.94059	0.90179	2.8409	73.88	-0.2221	0.0537	0.2758	1397.6904	0.158564	-456.362523	-456.352518	-456.351574	-456.398268	36.441	
C	-0.1125000706	 1.5238168007	 0.0002815298	-0.397108
C	 0.0372785205	 0.019507556	 0.0196845724	-0.069483
C	 1.3664440517	-0.6452498137	-0.2393679876	 0.034708
O	 2.4642478612	 0.2125732156	-0.427470158	-0.423412
C	 0.7626501755	-0.7016330092	 1.14611347	 0.003697
N	 1.4241145021	 0.0486734357	 2.1694144834	-0.346136
C	 1.331018371	-0.328351513	 3.4889782182	 0.450892
N	 2.181897662	 0.3869183505	 4.3312803733	-0.571102
O	 0.6035048226	-1.2171324983	 3.8912427922	-0.391806
H	 0.775936898	 2.0244832322	 0.3883648484	 0.119166
H	-0.2766886662	 1.8851469129	-1.0199399774	 0.120197
H	-0.9673364299	 1.8318555153	 0.6108882401	 0.120572
H	-0.8161734148	-0.5211186105	-0.3816623226	 0.092081
H	 1.3891858363	-1.5481608684	-0.8471735038	 0.092512
H	 3.2645296066	-0.2994672289	-0.2675483921	 0.294311
H	 0.3542008683	-1.630130908	 1.5251269209	 0.127714
H	 2.2269394545	 0.5811095758	 1.8693764035	 0.238998
H	 2.362277169	 1.3501153443	 4.0874654825	 0.24546
H	 1.9383243522	 0.2594440512	 5.3023339268	 0.258739
33.0301	86.7018	124.7287	142.9393	196.7628	232.9479	268.0059	327.4989	390.4782	431.1017	504.1984	527.026	574.6732	612.5949	617.2646	650.3662	739.2922	778.8038	814.4229	910.5252	972.8706	990.426	1050.7891	1087.9497	1097.72	1108.7426	1151.4786	1172.8289	1201.9002	1250.9407	1278.5772	1297.402	1367.909	1382.1008	1419.2156	1464.0154	1489.8101	1501.7207	1539.3077	1626.7927	1802.1339	3042.7163	3100.1699	3109.3389	3129.8219	3144.9337	3197.8756	3566.758	3609.4047	3679.5222	3802.9615
CC1C(O)C1NC(N)=O	C[C@H]1[C@@H](O)[C@H]1NC(=O)N	
InChI=1S/C5H10N2O2/c1-2-3(4(2)8)7-5(6)9/h2-4,8H,1H3,(H3,6,7,9)	InChI=1S/C5H10N2O2/c1-2-3(4(2)8)7-5(6)9/h2-4,8H,1H3,(H3,6,7,9)/t2-,3+,4-/m1/s1
