15
gdb 43205	2.55597	1.63567	1.23043	4.5836	69.72	-0.2658	-0.0318	0.2341	1008.6017	0.113855	-416.804982	-416.797535	-416.796591	-416.837358	27.477	
O	 0.0460606247	 0.0454198018	 0.4555830544	-0.293777
C	-0.0220571594	 1.1965456398	 0.1608072128	 0.391531
C	-1.1917594126	 2.2499249508	 0.0503268017	-0.325607
C	-2.1482996594	 2.2729690804	 1.134283603	 0.304574
N	-2.8830384908	 2.3076528399	 2.0264930354	-0.32379
C	-0.0278453058	 3.2861510056	 0.0513903862	 0.016902
C	 0.6379892395	 3.7015099152	 1.38997691	-0.262178
C	 1.7497229092	 2.6480228257	 1.0921914246	-0.184638
N	 0.9676867312	 2.1679723273	-0.1026888871	-0.140652
H	-1.7057867941	 2.2000341362	-0.9139289137	 0.158428
H	-0.0573917076	 4.0328019245	-0.7425171602	 0.106391
H	 0.9659504113	 4.740312027	 1.4404834218	 0.126674
H	 0.0327714621	 3.4778829459	 2.2715953073	 0.147289
H	 2.7080390823	 3.0716800009	 0.7868160409	 0.132571
H	 1.9169043293	 1.866166399	 1.835519203	 0.146283
84.6035	131.5793	164.564	219.5112	345.5898	400.7272	501.6641	559.984	630.2606	684.0638	735.2446	798.1172	848.0646	865.6185	892.0701	947.7482	997.5531	1005.4949	1064.4148	1086.4466	1110.7886	1164.7364	1190.7689	1217.5333	1236.8998	1264.3415	1299.5863	1307.8645	1341.8998	1483.2508	1509.2926	1906.6801	2356.0908	3077.5977	3079.9109	3081.1154	3109.588	3129.7189	3145.759
O=C1C(C#N)C2CCN12	O=C1[C@@H](C#N)[C@H]2CCN12	
InChI=1S/C6H6N2O/c7-3-4-5-1-2-8(5)6(4)9/h4-5H,1-2H2	InChI=1S/C6H6N2O/c7-3-4-5-1-2-8(5)6(4)9/h4-5H,1-2H2/t4-,5+/m0/s1
