18
gdb 34212	3.7981	1.38563	1.36154	2.0918	82.07	-0.2354	0.0419	0.2772	1012.703	0.150063	-364.779159	-364.772256	-364.771312	-364.810129	28.939	
C	-0.008492737	-1.1415243957	-0.0752587261	-0.319831
C	 0.0058843077	 0.0597583987	-0.0205896032	 0.078267
C	-0.0036572305	 1.4837974543	 0.0871799939	 0.243371
C	-1.0586121354	 2.2317827588	 0.9107699938	-0.292249
C	-0.5954454019	 3.6536605947	 0.5385725549	-0.073783
C	 0.9081045272	 3.5988772571	 0.8887869088	-0.237338
C	 1.2218027183	 2.3545069071	 0.0666781354	-0.082116
N	 0.3365731954	 2.3130809978	-1.1183283691	-0.158585
C	-0.5209185374	 3.5190260129	-0.993517201	-0.156634
H	-0.0161609233	-2.2012801928	-0.1368963636	 0.178601
H	-2.077601967	 2.0062385894	 0.5837148885	 0.110304
H	-0.9735794468	 2.0113752409	 1.9786525114	 0.108892
H	-1.1703641807	 4.4837935977	 0.9451504846	 0.073708
H	 1.4605783111	 4.4805732915	 0.5490187913	 0.105495
H	 1.0983532752	 3.4549046821	 1.9566912754	 0.106319
H	 2.2181013739	 1.9464458256	-0.0484486464	 0.10113
H	-1.4893983328	 3.3386153776	-1.4685115521	 0.108037
H	-0.0348425857	 4.3661654922	-1.4870703366	 0.106413
142.2174	157.1722	389.9808	419.3991	433.7066	506.8352	515.5085	551.4553	601.7829	650.9152	670.1111	690.3924	813.9914	836.7676	896.4009	911.2909	924.062	930.05	937.2478	954.8407	975.5907	1049.4036	1056.046	1080.9713	1140.3053	1153.5958	1167.3569	1210.3304	1220.0556	1251.8978	1275.2653	1293.5983	1305.1028	1323.6795	1389.7758	1483.3282	1488.9998	1515.6914	2242.1061	3050.5934	3054.094	3060.1276	3097.244	3103.7915	3107.9865	3136.8109	3197.5347	3504.456
C#CC12CC3CC1N2C3	C#C[C@@]12C[C@H]3C[C@@H]1N2C3	
InChI=1S/C8H9N/c1-2-8-4-6-3-7(8)9(8)5-6/h1,6-7H,3-5H2	InChI=1S/C8H9N/c1-2-8-4-6-3-7(8)9(8)5-6/h1,6-7H,3-5H2/t6-,7+,8-,9?/m1/s1
