14
gdb 12998	2.8183	2.7262	1.65721	3.2482	57.28	-0.2619	0.0005	0.2624	765.825	0.1077	-419.702062	-419.69532	-419.694376	-419.732806	25.602	
O	-0.0300276885	 1.4109240594	-0.0261899711	-0.466332
C	-0.057400652	 0.0314934579	-0.0115942488	 0.304172
C	-0.4114110966	-0.7785253395	-1.2398465177	-0.342978
C	-1.2936545192	-0.8269314581	-0.0150430369	-0.138726
C	-0.9957156524	-1.9636283757	 0.9475080298	-0.099514
O	 0.3990510597	-1.8390770644	 1.3167106696	-0.226505
C	 0.8931075507	-0.6381008645	 0.9304321944	 0.39089
O	 1.9327555107	-0.1813441649	 1.3200612238	-0.365752
H	 0.8533449974	 1.6575346002	 0.2837406018	 0.301518
H	-0.7777416374	-0.1826515925	-2.0682957778	 0.136166
H	 0.1785939895	-1.6480621013	-1.515208989	 0.128158
H	-2.2889328792	-0.4028295353	-0.0464244815	 0.1193
H	-1.5926452724	-1.8961867315	 1.8627095542	 0.130151
H	-1.1293334102	-2.9557384699	 0.5066303694	 0.129451
134.3527	206.433	267.3866	314.9609	328.9691	436.1599	500.8053	578.9719	698.1627	714.8239	783.6466	850.4551	863.1326	936.8485	944.0658	1003.0444	1046.3794	1057.2087	1074.5529	1122.5164	1132.6046	1206.3206	1238.336	1299.6087	1373.1775	1409.6971	1432.3944	1495.6579	1516.5175	1866.076	3049.9038	3097.1034	3122.9393	3202.6788	3223.5043	3745.5025
OC12CC1COC2=O	O[C@]12C[C@H]1COC2=O	
InChI=1S/C5H6O3/c6-4-5(7)1-3(5)2-8-4/h3,7H,1-2H2	InChI=1S/C5H6O3/c6-4-5(7)1-3(5)2-8-4/h3,7H,1-2H2/t3-,5+/m0/s1
