16
gdb 68101	3.2712	1.27142	1.07189	5.4192	76.34	-0.2619	-0.0122	0.2496	1132.1741	0.123858	-400.739673	-400.731481	-400.730537	-400.772381	30.473	
C	 0.0013643321	 1.4949537029	 0.0066177969	-0.512493
C	-0.0067774749	-0.0044295036	-0.0018002108	 0.163589
C	 0.5899221136	-0.9813328634	-1.0851835183	-0.293682
C	 0.0048339984	-1.9643495227	-0.0130168778	 0.073801
C	 0.610612722	-0.9934835111	 1.0587287473	-0.293682
C	 0.0312297746	-3.3957586272	-0.0213840972	 0.17009
N	 0.0361085627	-4.5524659719	-0.0279871381	-0.345419
C	-1.2000226106	-0.9699148734	 0.0042740345	 0.411371
O	-2.3860276715	-0.9766029257	 0.0155696198	-0.303298
H	 1.0234815036	 1.8859384868	-0.0005662823	 0.132741
H	-0.5202348044	 1.8896298646	-0.8707603495	 0.141542
H	-0.5039762073	 1.8796067601	 0.8978538123	 0.141548
H	 0.1305665664	-0.990926813	-2.0745159487	 0.131812
H	 1.6808558712	-0.9827224322	-1.1356637882	 0.125138
H	 1.7023175807	-0.9953142467	 1.0881174016	 0.125132
H	 0.1704408335	-1.0143455836	 2.0565724783	 0.131811
127.1892	137.4349	163.1755	204.6419	210.3279	311.1647	403.3089	512.9427	523.9944	538.9656	582.1717	670.5361	755.915	775.7104	804.2177	822.7356	937.186	963.0392	1010.9259	1033.7441	1051.4441	1114.3581	1131.1524	1139.9389	1168.0924	1192.7012	1287.9356	1375.8266	1422.3765	1486.8358	1488.2077	1493.7698	1535.6851	1930.4106	2351.1212	3040.1691	3072.4551	3073.4931	3110.4283	3112.057	3149.6341	3149.7784
CC12CC(C1)(C#N)C2=O	C[C@@]12C[C@](C1)(C#N)C2=O	
InChI=1S/C7H7NO/c1-6-2-7(3-6,4-8)5(6)9/h2-3H2,1H3	InChI=1S/C7H7NO/c1-6-2-7(3-6,4-8)5(6)9/h2-3H2,1H3/t6-,7+
