15
gdb 53885	4.41603	0.7632	0.65342	3.0369	64.62	-0.258	-0.0467	0.2114	1590.8293	0.109834	-491.115285	-491.105619	-491.104675	-491.1516	32.669	
N	 0.0044407017	 1.2627461639	-0.2337030262	-0.522953
C	 0.0316360944	-0.0871553007	-0.1519231468	 0.35546
O	 1.0266732429	-0.7788715945	-0.1784562482	-0.345915
C	-1.372752278	-0.686766413	-0.0167836463	 0.343582
N	-2.3918620559	 0.0683257935	 0.0075881834	-0.540339
O	-1.2976618617	-2.0274981399	 0.0610072635	-0.215697
C	-2.5029758091	-2.7601719879	 0.1911270644	-0.184809
C	-2.1348557209	-4.2362022095	 0.2581845746	 0.136302
O	-2.9584389568	-5.1023793051	 0.3682732606	-0.228525
H	 0.8712916651	 1.76360283	-0.3250635443	 0.267724
H	-0.87952322	 1.7436653318	-0.2017631768	 0.281495
H	-3.2779532541	-0.4250032522	 0.0998995539	 0.232936
H	-3.0459059857	-2.4818015032	 1.10507312	 0.14909
H	-3.169687692	-2.5930700322	-0.6662405989	 0.14912
H	-1.04448208	-4.434223301	 0.1964863671	 0.122528
42.8313	59.9988	76.9331	109.7394	139.3214	272.8187	290.257	322.4128	401.7271	468.266	499.5813	571.7234	640.2673	641.2875	740.75	823.8953	824.8611	869.6748	1021.1217	1061.9796	1095.9464	1112.391	1155.8204	1239.4683	1283.2783	1343.0326	1398.9257	1413.3203	1476.1433	1589.0796	1717.4934	1820.2996	1848.3059	2929.9593	3006.3206	3051.1738	3508.1517	3599.0417	3744.0997
NC(=O)C(=N)OCC=O	NC(=O)[C]([NH])OCC=O	
InChI=1S/C4H6N2O3/c5-3(8)4(6)9-2-1-7/h1,6H,2H2,(H2,5,8)	InChI=1S/C4H6N2O3/c5-3(8)4(6)9-2-1-7/h1,6H,2H2,(H2,5,8)
