19
gdb 40204	3.0649	1.53156	1.24448	0.9753	74.06	-0.2498	0.0709	0.3207	1041.323	0.1607	-423.001143	-422.993737	-422.992793	-423.033058	29.316	
C	 0.4220339906	 1.4185857966	 0.0214277969	-0.26426
O	 1.2375251834	 0.2612125616	 0.2309752427	-0.284697
C	-0.1702243741	 0.0794328854	 0.0101299053	 0.444447
C	-0.971279639	-0.5213468285	 1.1592473574	-0.295646
C	-1.091553617	-2.0093268745	 0.7670656975	-0.232734
C	-1.2171480027	-1.9837642963	-0.7556226064	 0.126814
O	-2.5203519581	-1.5268801631	-1.1996835594	-0.297024
C	-1.9516330434	-0.3567051692	-1.8213729223	-0.086598
C	-0.5512094398	-0.669507884	-1.2551850208	-0.149242
H	 0.2887052203	 2.0605235537	 0.891854948	 0.11261
H	 0.5924936059	 1.9472907367	-0.9163081825	 0.11041
H	-0.4773973762	-0.3543995153	 2.118528882	 0.112266
H	-1.9654132448	-0.0631255637	 1.2011162789	 0.117304
H	-0.1770603394	-2.5493290886	 1.0395669969	 0.11029
H	-1.9392592114	-2.5184390591	 1.2330732858	 0.11128
H	-0.9387115923	-2.9238643168	-1.2430343815	 0.074068
H	-2.0175582244	-0.4040446683	-2.9158500414	 0.10103
H	-2.4265258041	 0.5703252036	-1.4761052198	 0.100486
H	 0.2732695266	-0.7184178401	-1.9654236976	 0.089193
94.2211	160.235	217.9812	302.5433	356.209	371.0444	427.0732	552.1132	634.0657	721.9441	803.0441	827.9916	845.5788	873.684	892.1576	922.8469	945.3882	972.6928	1001.4654	1015.4855	1035.8598	1053.3449	1098.9449	1125.2973	1152.3811	1162.2185	1173.3454	1191.2577	1214.6147	1242.8492	1277.4079	1288.4444	1317.8713	1326.3667	1354.2662	1364.8542	1432.9122	1466.3567	1478.7933	1524.9406	1532.9939	3008.0998	3040.1006	3049.9693	3052.4069	3057.252	3074.8009	3103.7785	3117.5506	3123.895	3158.0158
C1OC11CCC2OCC12	C1O[C@]21CC[C@H]1OC[C@@H]21	
InChI=1S/C7H10O2/c1-2-7(4-9-7)5-3-8-6(1)5/h5-6H,1-4H2	InChI=1S/C7H10O2/c1-2-7(4-9-7)5-3-8-6(1)5/h5-6H,1-4H2/t5-,6-,7+/m1/s1
