13
gdb 133225	3.1084	1.4356	0.98822	7.3225	66.95	-0.2414	-0.0638	0.1777	1091.2131	0.088172	-494.009201	-494.00154	-494.000595	-494.041871	27.467	
C	-0.0129807526	 1.475598422	 0.0095696798	-0.331281
N	-0.0405503515	 0.0183981663	 0.0013844994	-0.00908
C	-1.2157891979	-0.6824524862	 0.0044818743	-0.071068
C	-1.1696271231	-2.0302068179	-0.0030976227	 0.102751
F	-2.2833576136	-2.7412776927	-0.000502337	-0.037108
C	 0.1103652018	-2.7210286069	-0.0142047407	 0.34628
O	 0.2472856156	-3.9236875275	-0.021700224	-0.343937
N	 1.2478332979	-1.8534419469	-0.0163818665	-0.258618
N	 1.1643241677	-0.5886231408	-0.0090279164	-0.045996
H	 1.0340543996	 1.7747489987	 0.0033847595	 0.179042
H	-0.515286532	 1.8731287683	-0.8771635877	 0.154357
H	-0.5017815132	 1.8629710693	 0.9082829995	 0.154385
H	-2.1400441886	-0.1178850358	 0.0129263424	 0.160272
78.4513	123.6072	182.4769	286.9311	335.1354	346.7	396.3053	468.9246	524.6663	577.9406	602.2717	722.2973	798.781	833.2213	895.2754	933.6791	1074.4197	1121.0547	1152.6127	1171.983	1306.6614	1365.6489	1428.7942	1449.7456	1485.6742	1499.3846	1510.0814	1693.1315	1793.3439	3046.435	3112.4735	3174.6257	3210.3246
CN1C=C(F)C(=O)N=N1	Cn1cc(F)c(=O)nn1	
InChI=1S/C4H4FN3O/c1-8-2-3(5)4(9)6-7-8/h2H,1H3	InChI=1S/C4H4FN3O/c1-8-2-3(5)4(9)6-7-8/h2H,1H3
