16
gdb 54565	3.15174	1.63199	1.23609	2.0575	69.05	-0.2451	0.0143	0.2594	991.2139	0.124169	-437.824665	-437.817039	-437.816095	-437.857193	29.245	
N	-0.1284271004	 1.2394341556	-0.4183677692	-0.537071
C	-0.012639077	-0.0152146671	 0.0833976144	 0.261517
O	 1.0172337276	-0.5163580447	 0.4949818958	-0.369194
C	-1.3090961524	-0.7694560222	 0.0904104002	 0.413968
O	-2.5355563066	-0.1457277343	-0.4050771424	-0.379641
C	-2.9350228925	-1.4905236823	 0.0140396387	 0.058935
C	-1.6346908254	-2.1854906951	-0.4937348214	-0.120017
C	-1.3833577398	-2.875209689	 0.8641055306	-0.27567
C	-2.0104234398	-1.5242333271	 1.2694086813	-0.120016
H	 0.6869641004	 1.8274898619	-0.4654200105	 0.26522
H	-1.020042223	 1.5798294641	-0.7380196499	 0.281896
H	-3.9789091701	-1.7794375994	-0.100070051	 0.101827
H	-1.4241650046	-2.5202662981	-1.5089026966	 0.092275
H	-1.9777081194	-3.7687415959	 1.0725279498	 0.097574
H	-0.3386639793	-3.0189779366	 1.1407344255	 0.1361
H	-2.2260936079	-1.10940504	 2.2534557347	 0.092299
49.4956	157.687	192.5974	262.2799	329.2336	414.883	495.0341	525.6408	597.3931	649.9069	703.0834	772.9083	781.6015	821.8013	862.9094	896.5689	910.3395	921.9973	1003.0393	1037.5535	1055.9717	1065.539	1101.8553	1108.5132	1151.5585	1168.8939	1177.6716	1215.2335	1244.5062	1253.891	1314.352	1417.8886	1508.0669	1609.4444	1794.669	3065.2074	3123.2288	3128.3626	3138.7565	3141.6007	3596.3491	3736.4297
NC(=O)C12OC3C1CC23	NC(=O)[C@@]12O[C@H]3[C@@H]1C[C@@H]23	
InChI=1S/C6H7NO2/c7-5(8)6-2-1-3(6)4(2)9-6/h2-4H,1H2,(H2,7,8)	InChI=1S/C6H7NO2/c7-5(8)6-2-1-3(6)4(2)9-6/h2-4H,1H2,(H2,7,8)/t2-,3+,4-,6+
