22
gdb 88368	2.05733	1.3677	1.21881	3.7415	85.82	-0.2787	0.0393	0.318	1220.161	0.19261	-367.225494	-367.215254	-367.21431	-367.260015	38.451	
C	-1.5130516944	-1.0941633895	 2.8228298153	-0.432848
C	-0.8597845931	-1.0239337639	 1.4580551372	-0.007807
C	-0.8783305516	 0.2403291285	 0.6295760679	-0.325045
C	 0.4331908444	-0.3011239393	 1.1426786343	 0.000284
C	 1.3421244279	 0.4483783771	 2.1282591283	 0.066017
C	 2.0924286635	-0.5554515211	 3.034106707	-0.402153
C	 2.3612260713	 1.2897030652	 1.3181319164	-0.400856
C	 0.5895172232	 1.3867456835	 2.9764581237	 0.28595
N	 0.0287601909	 2.1497500814	 3.6403616801	-0.366714
H	-1.4242394058	-0.1589764209	 3.3783742347	 0.152459
H	-2.5812821011	-1.3122145695	 2.7147910543	 0.119334
H	-1.077370365	-1.8939271887	 3.4325495127	 0.114529
H	-0.9781702287	-1.9415548969	 0.8858815769	 0.086144
H	-1.0897117383	 0.1827893249	-0.4325998305	 0.109977
H	-1.264432174	 1.1324949358	 1.1133197937	 0.135572
H	 1.0483771838	-0.8049865415	 0.4003875401	 0.086518
H	 2.6583461057	-1.252274221	 2.4081815686	 0.120674
H	 2.7932511878	-0.0399316662	 3.6966942712	 0.12955
H	 1.3954296642	-1.1315407455	 3.6461197773	 0.13869
H	 1.8478971228	 1.9938248705	 0.6588915778	 0.138211
H	 3.0205296041	 1.8533753154	 1.9835138941	 0.131173
H	 2.9758302823	 0.6239954516	 0.7045788189	 0.12034
72.915	144.4563	170.9892	192.6412	213.2078	232.3017	242.56	264.1224	320.0449	336.3966	358.8997	433.7574	509.149	590.8862	630.9797	655.6453	773.2217	829.7279	864.315	911.5687	942.5151	949.3991	955.3272	1033.5152	1052.7871	1084.0854	1091.8656	1126.4982	1155.2285	1162.0955	1199.3919	1204.2918	1238.5263	1291.925	1383.0433	1396.788	1411.6086	1424.6184	1428.7065	1481.2705	1484.4619	1495.811	1497.7519	1502.2008	1506.8735	1510.753	2347.3912	3033.4079	3042.0554	3046.1263	3085.4476	3114.8465	3116.867	3120.0416	3127.1064	3129.7847	3130.7326	3135.6571	3143.6909	3213.5573
CC1CC1C(C)(C)C#N	C[C@H]1C[C@H]1C(C)(C)C#N	
InChI=1S/C8H13N/c1-6-4-7(6)8(2,3)5-9/h6-7H,4H2,1-3H3	InChI=1S/C8H13N/c1-6-4-7(6)8(2,3)5-9/h6-7H,4H2,1-3H3/t6-,7+/m0/s1
