19
gdb 53227	3.38835	0.81817	0.74793	2.456	86.9	-0.2274	-0.0186	0.2088	1618.2708	0.156512	-385.882407	-385.872217	-385.871273	-385.919555	35.311	
C	 0.0189683551	 1.5847702153	 0.0140359952	-0.499507
C	 0.0110329155	 0.1294236888	 0.0085578222	 0.114618
C	 0.0058286882	-1.0751328259	-0.004433561	 0.052493
C	-0.0394206692	-2.5180956954	 0.004985181	-0.301654
C	 0.3175826688	-3.3191952193	 1.3078047697	-0.25678
C	-0.8932859859	-4.2745771593	 1.0733272662	-0.09048
C	-1.8043286696	-4.6676113764	 2.227346415	-0.409427
C	-1.4209482763	-3.2411367605	 0.0642403912	 0.390759
O	-2.5011996055	-2.9949717963	-0.379178464	-0.29208
H	 1.0383311834	 1.9795339868	-0.0616075383	 0.147026
H	-0.5546057497	 1.9849972467	-0.8292892228	 0.152424
H	-0.424092452	 1.9828451203	 0.9335828123	 0.148169
H	 0.5158721653	-2.9351625135	-0.846213761	 0.124473
H	 1.3088837885	-3.7721370679	 1.3323215072	 0.111572
H	 0.1784850491	-2.6997876619	 2.1964021266	 0.121274
H	-0.5688173266	-5.1659322273	 0.5202228384	 0.104662
H	-2.1326623297	-3.7847221248	 2.7849945202	 0.12532
H	-2.6975658723	-5.1778199422	 1.855093953	 0.136435
H	-1.2921878872	-5.3388185574	 2.9237383688	 0.120705
20.2323	49.7357	80.9931	138.0539	186.5528	198.0385	247.9773	300.886	335.1131	403.4105	459.6399	485.9747	573.9363	669.8266	737.5076	801.2298	873.7903	921.1097	938.6199	984.2094	1027.7991	1051.4235	1053.6557	1065.859	1131.5075	1146.22	1192.5525	1209.9565	1235.8055	1254.862	1317.8773	1355.3458	1408.1374	1414.8192	1477.5423	1478.3811	1489.2784	1494.6867	1496.0419	1894.6219	2368.7185	3017.6468	3026.5932	3027.2418	3037.963	3080.7266	3086.6443	3088.5671	3107.5891	3113.8965	3142.1287
CC#CC1CC(C)C1=O	CC#C[C@H]1C[C@@H](C)C1=O	
InChI=1S/C8H10O/c1-3-4-7-5-6(2)8(7)9/h6-7H,5H2,1-2H3	InChI=1S/C8H10O/c1-3-4-7-5-6(2)8(7)9/h6-7H,5H2,1-2H3/t6-,7+/m1/s1
