19
gdb 82164	2.85212	1.58209	1.2923	2.2318	73.43	-0.2488	0.0673	0.3161	1038.3824	0.159472	-423.000068	-422.992048	-422.991104	-423.032157	31.965	
C	 0.0260646278	 1.5481090568	 0.0325760996	-0.494346
C	 0.0517585362	 0.0388506029	 0.0159539603	 0.327061
C	-0.9046012127	-0.7887668232	 0.8395764473	-0.335734
C	 0.5737593366	-0.8130504275	 1.1574153321	-0.120005
C	 1.4645796201	-1.9379573983	 0.6024377556	 0.104621
O	 1.1341558216	-3.2476795851	 1.0261056682	-0.435922
C	 1.410614363	-1.7766967579	-0.9181009885	-0.006305
O	 0.0869630551	-1.9961643933	-1.4385917678	-0.267181
C	 0.5421124177	-0.6437545345	-1.2546380031	-0.027386
H	 1.000035589	 1.9707520229	-0.2413425008	 0.118595
H	-0.7177751567	 1.9429866675	-0.6694911969	 0.122363
H	-0.2273653969	 1.9218012489	 1.0291116637	 0.121392
H	-1.5371291674	-0.2566009785	 1.5427456973	 0.10798
H	-1.3689716344	-1.6479902344	 0.3723020077	 0.124716
H	 0.8855744971	-0.3525891867	 2.0887149395	 0.086143
H	 2.493658691	-1.7747745639	 0.9419001689	 0.089335
H	 0.2834351702	-3.459465061	 0.6239029391	 0.289126
H	 2.220120772	-2.1464310998	-1.542917244	 0.100365
H	 0.6414417309	-0.065370345	-2.1699256485	 0.095181
124.6573	178.9093	203.391	261.6377	299.7084	341.2938	373.1685	471.2285	515.4203	537.1726	595.3293	726.2493	738.506	797.6166	842.5962	864.6629	883.4176	939.1772	956.9965	972.0729	986.049	1048.879	1079.3702	1082.9856	1094.9801	1108.3987	1117.057	1125.6103	1236.1827	1261.6674	1277.2279	1286.3322	1307.6065	1338.9482	1396.2243	1417.7491	1427.6909	1432.8353	1486.812	1489.3355	1501.0477	3022.2286	3053.2399	3079.556	3104.0095	3136.4779	3139.0567	3151.2593	3164.0205	3229.0008	3794.8754
CC12CC1C(O)C1OC21	C[C@]12C[C@H]1[C@@H](O)[C@H]1O[C@@H]21	
InChI=1S/C7H10O2/c1-7-2-3(7)4(8)5-6(7)9-5/h3-6,8H,2H2,1H3	InChI=1S/C7H10O2/c1-7-2-3(7)4(8)5-6(7)9-5/h3-6,8H,2H2,1H3/t3-,4+,5+,6+,7-/m0/s1
