15
gdb 49495	2.60351	1.45192	1.11765	2.1782	71.23	-0.2717	-0.0586	0.2132	1072.543	0.112797	-416.73614	-416.72854	-416.727596	-416.768689	28.044	
O	-0.25136811	 0.0970677252	-0.3839736469	-0.229181
C	-0.0328961794	 1.1841059323	 0.0844455785	 0.129041
C	 1.2526738595	 1.9604565965	-0.0608735176	-0.083807
N	 2.455340495	 1.3093263439	-0.7578688545	-0.14529
C	 1.7152216642	 1.5934591192	-2.0832654048	-0.211127
C	 1.4903073449	 2.906421173	-1.2904205783	 0.180353
C	 2.9796833793	 2.7507019239	-0.9041146991	-0.198111
C	 0.758906488	 4.1000861382	-1.6604384074	 0.145724
N	 0.173189357	 5.0537954056	-1.9504470675	-0.330357
H	-0.7967074537	 1.7171422305	 0.6941554287	 0.099518
H	 1.5080592373	 2.406279206	 0.9075618721	 0.109151
H	 2.3827901036	 1.6533807203	-2.9443444402	 0.124981
H	 0.8675254691	 0.9375804463	-2.2630578431	 0.156006
H	 3.314297424	 3.2025713455	 0.0318679545	 0.125033
H	 3.715347341	 2.8643810337	-1.7020063243	 0.128066
82.6424	131.9781	176.9736	223.4596	288.0678	418.5637	513.5117	517.2909	545.455	608.5727	711.4821	791.5857	816.848	856.7172	906.0924	965.9664	993.7033	1008.5699	1066.5271	1084.7534	1103.617	1136.6937	1168.8542	1176.6733	1201.8593	1242.5689	1276.1629	1392.8506	1424.256	1515.0819	1552.375	1827.4463	2348.9913	2883.7468	3049.9584	3071.7604	3093.7884	3146.9625	3189.6837
O=CC1N2CC1(C2)C#N	O=C[C@H]1N2C[C@@]1(C2)C#N	
InChI=1S/C6H6N2O/c7-2-6-3-8(4-6)5(6)1-9/h1,5H,3-4H2	InChI=1S/C6H6N2O/c7-2-6-3-8(4-6)5(6)1-9/h1,5H,3-4H2/t5-/m1/s1
