18
gdb 50533	2.5937	1.30635	1.00775	2.538	72.14	-0.2514	-0.0358	0.2157	1194.0116	0.147487	-439.036809	-439.028228	-439.027284	-439.071222	30.625	
O	-0.0267361426	-0.0694148284	-0.3728492392	-0.250822
C	-0.020073178	 1.0811122314	-0.016362123	 0.15475
C	 1.210865329	 1.9529497542	-0.0223566827	-0.165171
C	 1.0225439014	 3.3755661047	-0.6029243181	-0.094156
O	 1.3006571407	 4.0015429568	 0.6666782331	-0.287778
C	 1.5501608994	 2.7254399332	 1.2972367126	 0.091654
C	 0.6891966864	 2.5121186514	 2.51863717	-0.017601
C	 0.4530104919	 3.6377518814	 3.4520076616	-0.246434
N	-0.640944304	 3.1299470925	 2.5988965089	-0.31741
H	-0.9488151661	 1.5786084878	 0.33941588	 0.100559
H	 2.0417304435	 1.3842129197	-0.4395804647	 0.103962
H	 1.7543027314	 3.6562656084	-1.3676945068	 0.122586
H	 0.0146645008	 3.6152123789	-0.9640499675	 0.114212
H	 2.6092613673	 2.6178286859	 1.5673262508	 0.097524
H	 0.7410083506	 1.5008972696	 2.9198327588	 0.105185
H	 0.3394430831	 3.4463828847	 4.5146913907	 0.122889
H	 0.8864395686	 4.6002977235	 3.1958290178	 0.130193
H	-0.7294498334	 3.7751903242	 1.8147311876	 0.235859
56.7729	72.1189	108.7702	155.5375	245.5009	297.891	317.2984	430.0782	475.1489	613.1122	750.0904	837.9119	856.7491	864.8007	879.8535	955.7008	963.6054	977.9542	1011.575	1035.7514	1077.8205	1091.0894	1126.9329	1138.8125	1149.7969	1176.7824	1188.1708	1229.3084	1266.241	1288.9503	1304.3653	1312.0266	1352.2511	1370.0613	1415.5233	1444.7776	1504.5496	1521.899	1825.9948	2898.7183	3012.3254	3022.1464	3072.8233	3116.3179	3119.6311	3122.5179	3206.5985	3476.6563
O=CC1COC1C1CN1	O=C[C@H]1CO[C@H]1[C@H]1CN1	
InChI=1S/C6H9NO2/c8-2-4-3-9-6(4)5-1-7-5/h2,4-7H,1,3H2	InChI=1S/C6H9NO2/c8-2-4-3-9-6(4)5-1-7-5/h2,4-7H,1,3H2/t4-,5+,6+/m0/s1
