20
gdb 116785	3.05737	0.84774	0.74732	3.8478	79.26	-0.237	0.0323	0.2693	1583.7645	0.168504	-440.249246	-440.238848	-440.237904	-440.286151	36.091	
C	-0.9359436635	 1.0919960056	-0.5628614318	-0.249583
O	-0.6268008011	-0.0022642052	 0.2881892608	-0.196406
C	-1.2242194692	-1.1718417046	-0.0344271244	 0.147751
N	-1.0099654116	-2.1962535235	 0.6606893818	-0.243578
C	-1.6732955215	-3.4490692894	 0.3356268066	-0.145566
C	-2.2404787973	-3.6167125784	-1.0642160176	-0.042241
C	-3.3320212237	-4.6457787155	-1.2925528607	-0.351165
C	-3.6369120867	-3.1742912568	-1.4022372694	 0.113651
O	-4.3563618342	-2.532575976	-0.3884785042	-0.417383
H	-0.3994762418	 1.9541724689	-0.1642203793	 0.141956
H	-0.603248196	 0.9103819481	-1.5929018491	 0.120711
H	-2.0111283534	 1.3102453313	-0.5665397004	 0.126998
H	-1.8759769644	-1.1137244557	-0.9150767754	 0.081042
H	-0.9470934898	-4.2524543853	 0.5128006558	 0.107443
H	-2.4752489215	-3.6005020166	 1.0681031872	 0.117101
H	-1.5069890433	-3.5097109614	-1.8597490474	 0.089617
H	-3.3142999439	-5.248319277	-2.1941493677	 0.111547
H	-3.7082222901	-5.1569115215	-0.411495578	 0.116657
H	-3.8073083531	-2.7717315897	-2.4014691681	 0.081942
H	-5.2665696541	-2.8440833876	-0.4230480287	 0.289505
37.2508	54.7602	91.8452	125.9611	144.6826	190.6166	269.3329	290.0045	297.4607	337.658	437.1887	467.7827	548.3659	636.8868	788.1399	818.8108	854.0649	929.6974	987.7679	1013.7229	1023.0388	1040.0755	1061.5259	1075.9449	1137.3769	1154.112	1173.5411	1177.3829	1178.3853	1234.7926	1268.9001	1286.0831	1303.1678	1351.9723	1399.5597	1413.4164	1422.1045	1473.1817	1485.6513	1491.1285	1494.1719	1502.3756	1779.6762	3006.9986	3023.5287	3043.6719	3055.1726	3069.525	3087.6482	3126.5505	3137.9658	3139.8553	3214.8936	3809.3591
COC=NCC1CC1O	COC=NC[C@H]1C[C@H]1O	
InChI=1S/C6H11NO2/c1-9-4-7-3-5-2-6(5)8/h4-6,8H,2-3H2,1H3	InChI=1S/C6H11NO2/c1-9-4-7-3-5-2-6(5)8/h4-6,8H,2-3H2,1H3/t5-,6-/m1/s1
