18
gdb 99501	2.48344	1.11622	0.814	3.7683	73.76	-0.2561	0.0105	0.2665	1402.1111	0.147212	-435.275175	-435.265002	-435.264058	-435.311106	35.196	
C	 0.7471293947	 1.3113691854	-0.1511928297	-0.231103
O	 0.7736386408	-0.1055313487	 0.0492401916	-0.24068
C	 0.2651402663	-0.5483185924	 1.2136230095	 0.414272
N	-0.2114831251	 0.2355810734	 2.0836128285	-0.538102
C	 0.3948639044	-2.0722312339	 1.2485078399	-0.224457
C	 1.8822695665	-2.5184068583	 1.2714081906	-0.162717
N	 1.9687998089	-3.9691635031	 1.1626773722	-0.516469
C	-0.3231719547	-2.6336960115	 2.3919131661	 0.284677
N	-0.8599599652	-3.0804547117	 3.3128560998	-0.332146
H	 1.3201880729	 1.8212190096	 0.6274809726	 0.142711
H	 1.1937568356	 1.477335376	-1.1319316582	 0.131524
H	-0.2803987517	 1.6829020028	-0.1255336963	 0.144957
H	-0.5556031436	-0.270948039	 2.8968075264	 0.246721
H	-0.0468288616	-2.4794740084	 0.3322338635	 0.156925
H	 2.3592887383	-2.0692763015	 0.3975824093	 0.135131
H	 2.3563844658	-2.0880347796	 2.1682434029	 0.105922
H	 2.9304231334	-4.247371283	 0.9991347805	 0.237714
H	 1.6830543741	-4.406931696	 2.033875141	 0.24512
44.2552	96.9336	118.1697	138.0718	176.0736	185.5808	244.5126	258.3694	301.5864	361.5402	406.8499	486.5251	558.7068	652.7471	743.2062	820.8468	851.2741	872.9513	932.9375	985.568	1044.9489	1050.988	1108.1888	1119.5392	1180.235	1184.1013	1217.6217	1230.2061	1307.4657	1347.5007	1379.5146	1413.3907	1476.9203	1476.9812	1498.9893	1511.4401	1661.9375	1736.7285	2359.1419	2972.1092	3050.8994	3063.2114	3109.3864	3126.3169	3156.6587	3500.1966	3516.2544	3580.9935
COC(=N)C(CN)C#N	CO[C]([NH])[C@@H](CN)C#N	
InChI=1S/C5H9N3O/c1-9-5(8)4(2-6)3-7/h4,8H,2,6H2,1H3	InChI=1S/C5H9N3O/c1-9-5(8)4(2-6)3-7/h4,8H,2,6H2,1H3/t4-/m0/s1
