21
gdb 59583	2.97014	1.24144	1.05299	1.0665	77.94	-0.2376	0.064	0.3016	1228.2827	0.181977	-424.191783	-424.182778	-424.181834	-424.225883	34.196	
C	-0.0993810015	 1.4611344403	-0.2065822146	-0.411715
C	-0.0275714583	-0.0504016028	-0.0062151182	 0.112451
O	 0.8008508962	-0.4195579446	 1.0932921331	-0.43282
C	-1.4152276449	-0.6569795502	 0.1726043139	 0.12608
O	-2.271015361	-0.4698636052	-0.9846327101	-0.318286
C	-2.6162485827	-1.8731223589	-1.0116152883	 0.128601
C	-1.7483072776	-2.6865808377	-1.9987290505	-0.23169
C	-0.7519279326	-3.0052020145	-0.8374881206	-0.236544
C	-1.6283521512	-2.1857652435	 0.1483769353	-0.101669
H	 0.9008882331	 1.8756081965	-0.3583810371	 0.120696
H	-0.7219510103	 1.7000384862	-1.0732361554	 0.141465
H	-0.5453091527	 1.9473089131	 0.6709352934	 0.102868
H	 0.4473998871	-0.5023514217	-0.8831220395	 0.091623
H	 0.487587764	 0.0585530216	 1.8693558327	 0.278746
H	-1.8824372501	-0.2009209208	 1.0626255792	 0.058175
H	-3.6977544835	-2.0318781251	-0.9943742988	 0.073031
H	-2.2453142264	-3.570352312	-2.4079198052	 0.099788
H	-1.3595004399	-2.0850643924	-2.8234438451	 0.108964
H	-0.7287122433	-4.0663874766	-0.5800392032	 0.104071
H	 0.2795190941	-2.6710238594	-0.9625895197	 0.113704
H	-1.9059135086	-2.6564129525	 1.0900128087	 0.072461
56.4829	77.7571	157.9898	231.7678	257.2978	275.7378	328.2182	385.7575	400.2525	468.9446	521.3964	675.4986	732.1902	777.9203	834.7494	854.9479	897.9924	925.6729	949.9914	955.5199	995.5774	1024.3297	1046.0282	1066.6273	1072.8573	1108.4963	1131.5964	1169.3283	1189.2007	1208.0929	1234.1623	1250.7129	1260.9863	1272.6683	1306.3834	1312.4267	1330.3246	1341.4563	1396.7477	1408.2989	1417.8257	1466.0244	1490.9011	1494.0192	1495.9066	2947.111	3023.0956	3057.8475	3060.6638	3071.2086	3075.6406	3099.8095	3111.1342	3120.6321	3127.9544	3130.235	3796.3486
CC(O)C1OC2CCC12	C[C@@H](O)[C@H]1O[C@H]2CC[C@@H]12	
InChI=1S/C7H12O2/c1-4(8)7-5-2-3-6(5)9-7/h4-8H,2-3H2,1H3	InChI=1S/C7H12O2/c1-4(8)7-5-2-3-6(5)9-7/h4-8H,2-3H2,1H3/t4-,5-,6+,7-/m1/s1
