21
gdb 110687	4.57394	1.04271	1.00127	1.2901	82.79	-0.2601	0.0779	0.338	1268.1252	0.184856	-387.048388	-387.040575	-387.039631	-387.080865	31.102	
O	-0.1053237228	 1.477664984	-0.2964626884	-0.422409
C	 0.0404799387	 0.113698991	 0.0861750281	-0.132562
C	-1.3298809953	-0.5262428951	-0.003805063	 0.052045
C	-1.9504770556	-0.9005671076	-1.3755899286	-0.058018
C	-1.0307673475	-2.164592943	-1.46477452	-0.004474
C	-1.7954902133	-3.2937949477	-2.1575419629	-0.240763
C	-3.2029964714	-3.0871830249	-1.5304562126	-0.246731
C	-2.9080031063	-1.8891087918	-0.6305096075	 0.004273
C	-1.4984253785	-2.0674306425	 0.0269143884	-0.089061
H	 0.7508658787	 1.9063765981	-0.2084828095	 0.284759
H	 0.7681995066	-0.3998017527	-0.5585096271	 0.08331
H	 0.4098216367	 0.03215481	 1.1222117534	 0.080514
H	-2.0151162135	 0.0169044841	 0.6577083475	 0.065298
H	-2.2162604767	-0.2253447675	-2.1910412797	 0.067376
H	 0.0251862983	-2.048861184	-1.7091828314	 0.058798
H	-1.7963667778	-3.1811711874	-3.2466319866	 0.09569
H	-1.371132205	-4.2776228026	-1.9317165547	 0.094113
H	-3.9706505661	-2.8618214564	-2.2777549665	 0.096294
H	-3.5457562848	-3.9574092484	-0.9612720469	 0.094796
H	-3.7161582208	-1.4746120419	-0.0240919387	 0.058261
H	-1.2424678736	-2.7528554938	 0.8391616666	 0.058493
71.1183	154.0089	227.1971	245.6995	279.7695	327.9328	437.1123	521.5417	674.0421	718.6131	746.1891	798.4064	817.8837	843.9973	889.2031	928.721	932.0307	955.924	975.3586	992.3303	1019.5675	1046.1183	1063.8112	1069.1892	1083.5506	1105.3458	1118.457	1131.4399	1170.0845	1202.5663	1217.0616	1235.5313	1247.914	1251.9699	1256.8791	1270.1627	1281.9266	1287.5389	1318.9645	1374.8439	1410.1031	1468.586	1487.9938	1508.9583	1520.3661	2960.7355	3004.0521	3038.1086	3039.8492	3048.2137	3070.6446	3072.0791	3089.7886	3090.8276	3098.3794	3115.7022	3828.1972
OCC1C2C3CCC2C13	OC[C@H]1[C@H]2[C@@H]3CC[C@H]2[C@H]13	
InChI=1S/C8H12O/c9-3-6-7-4-1-2-5(7)8(4)6/h4-9H,1-3H2	InChI=1S/C8H12O/c9-3-6-7-4-1-2-5(7)8(4)6/h4-9H,1-3H2/t4-,5+,6-,7-,8+
