18
gdb 18283	2.84558	2.21909	1.93533	1.7821	71.87	-0.228	0.0199	0.2479	810.5962	0.155909	-347.800146	-347.793101	-347.792157	-347.831065	28.038	
O	-0.2644336024	 1.5611803036	 0.2058872061	-0.429202
C	-0.08753728	 0.1819785461	 0.0669130583	 0.124722
C	-0.3564183393	-0.7918987165	 1.1885547801	-0.100215
C	-0.900926718	-0.2838762268	 2.5128376161	-0.27116
C	-2.2199495595	 0.434277041	 2.4120986091	-0.074024
C	-2.9956111288	 0.4442459308	 1.3259058596	-0.074025
C	-2.668992591	-0.2611476929	 0.036932411	-0.271161
C	-1.2441349537	-0.7804872239	-0.0545565261	-0.100214
H	-1.0388194953	 1.7175603388	 0.7602938857	 0.287331
H	 0.7822506902	-0.0015140126	-0.5558906712	 0.099092
H	 0.3406330361	-1.6197192958	 1.2821353164	 0.081502
H	-1.0209591806	-1.1315060173	 3.2023444694	 0.116495
H	-0.1629990933	 0.3752724888	 2.9921810452	 0.115978
H	-2.5511064815	 0.9547221851	 3.3078927566	 0.090453
H	-3.9458386432	 0.9726476721	 1.3547879839	 0.090452
H	-3.3674628446	-1.1013379086	-0.0835796049	 0.116495
H	-2.8771153039	 0.4101688974	-0.8085278825	 0.115978
H	-1.1135788511	-1.6010209294	-0.7542737729	 0.081502
129.9228	164.2483	222.2394	364.4965	391.8542	469.2085	471.8417	580.3735	600.0937	689.7515	734.9301	771.2117	832.0957	881.9484	921.6005	938.2005	980.6585	981.4774	1013.8934	1054.6973	1068.1414	1103.6964	1119.2509	1126.7064	1194.7945	1226.2159	1233.1683	1243.1544	1332.888	1344.7529	1358.7907	1366.7031	1400.2612	1422.4918	1464.1756	1473.2696	1484.3799	1720.3035	3001.5135	3001.9689	3021.2972	3021.8029	3134.661	3141.0095	3142.3139	3163.3235	3164.634	3765.5419
OC1C2CC=CCC12	O[C@H]1[C@H]2CC=CC[C@@H]12	
InChI=1S/C7H10O/c8-7-5-3-1-2-4-6(5)7/h1-2,5-8H,3-4H2	InChI=1S/C7H10O/c8-7-5-3-1-2-4-6(5)7/h1-2,5-8H,3-4H2/t5-,6+,7-
