19
gdb 83227	2.51745	1.58693	1.38513	0.8698	69.85	-0.2353	0.0691	0.3043	1020.9823	0.158184	-460.137717	-460.128933	-460.127989	-460.170666	34.004	
C	-0.0259430875	 1.542800728	-0.0652278038	-0.456603
C	 0.0020533972	 0.0150770069	-0.0073456387	 0.369488
O	-1.3243387834	-0.5133268341	 0.0976074826	-0.480722
C	 0.7563835005	-0.6176764875	-1.2080295443	-0.122089
O	 1.5203176968	-1.7319116407	-0.7256533889	-0.273291
C	 1.5618000172	-1.7050501267	 0.6800404514	 0.018425
C	 2.2523906637	-0.5027815372	 1.2640781098	 0.061627
O	 2.9898962142	 0.3374456957	 0.423855494	-0.427098
C	 0.7347726138	-0.5595056965	 1.195190215	-0.137295
H	 0.989790833	 1.9436782715	-0.0524678569	 0.148359
H	-0.5232756855	 1.8903162103	-0.9801713212	 0.102035
H	-0.5774558567	 1.9392358571	 0.7917797507	 0.123985
H	-1.8643824616	-0.0845829327	-0.5749150127	 0.274672
H	 0.0495143628	-0.9861855434	-1.9588436649	 0.101247
H	 1.4269259916	 0.1126491454	-1.6739773595	 0.095682
H	 1.6173320378	-2.6945903334	 1.1186740293	 0.102507
H	 2.6720841047	-0.5953653949	 2.264146392	 0.099008
H	 3.353661036	-0.2195269279	-0.2749701775	 0.298764
H	 0.1710783154	-0.6136969598	 2.1183453336	 0.101298
101.7784	136.7009	192.5132	256.3159	268.3336	284.1782	344.5334	361.3687	380.1577	429.4373	580.7109	600.5482	658.1073	727.0158	767.8023	788.3208	860.04	915.1474	942.0809	955.9595	986.8166	1027.2663	1057.7154	1073.8165	1100.9203	1108.3039	1131.5667	1176.9989	1206.6099	1220.792	1254.5724	1296.0062	1334.604	1348.6512	1370.7355	1402.2645	1408.5996	1427.8903	1494.2868	1501.6541	1507.1049	3022.4575	3032.4097	3078.2722	3098.2074	3119.7187	3137.6272	3177.8119	3191.9795	3781.6573	3806.4679
CC1(O)COC2C(O)C12	C[C@@]1(O)CO[C@H]2[C@@H](O)[C@@H]12	
InChI=1S/C6H10O3/c1-6(8)2-9-5-3(6)4(5)7/h3-5,7-8H,2H2,1H3	InChI=1S/C6H10O3/c1-6(8)2-9-5-3(6)4(5)7/h3-5,7-8H,2H2,1H3/t3-,4+,5-,6-/m1/s1
