19
gdb 90073	2.59281	1.73502	1.48822	0.7866	76.73	-0.2097	0.0617	0.2713	972.7138	0.158587	-422.895878	-422.887908	-422.886964	-422.927594	32.576	
O	 0.1548148551	 1.4458993418	-0.1412272314	-0.420278
C	 0.0835222678	 0.0491104001	 0.0083548803	 0.033708
C	 0.2426084232	-0.5448681917	 1.4913611046	-0.381611
C	-1.2907294885	-0.6757409609	 1.4976748568	 0.246913
C	-2.6429981029	-1.4525920669	 1.4838692138	-0.339978
C	-2.7951221853	-0.2422525382	 0.4308786521	-0.168033
C	-2.1365569906	 0.6401032211	 1.5078355914	-0.252312
C	-1.3556714852	-0.6146513133	-0.0418354363	 0.431926
O	-1.1956634959	-1.7659806894	-0.8412261583	-0.487857
H	 1.0800762519	 1.7039987483	-0.075806791	 0.287894
H	 0.7268300759	-0.4572576044	-0.7205750955	 0.091479
H	 0.7775689231	-1.4976636311	 1.4629212005	 0.113845
H	 0.6938253968	 0.1106319827	 2.2419238046	 0.096222
H	-2.6228888983	-2.4713964951	 1.0911213932	 0.090109
H	-3.2895939779	-1.3890438767	 2.3644197075	 0.096472
H	-3.6917278188	-0.0146547332	-0.1577044887	 0.064242
H	-2.7220292225	 0.798807093	 2.4169736735	 0.085099
H	-1.6528701867	 1.5531712315	 1.1698582096	 0.129674
H	-2.042293131	-2.2170550775	-0.9057960866	 0.282485
165.6919	222.4679	229.5272	245.6621	293.8141	362.4125	370.7879	452.3723	500.1155	543.8428	595.6216	637.8211	754.6763	757.4824	785.7493	861.1177	890.214	916.1103	928.5125	981.0204	999.8343	1037.5259	1039.3251	1062.9338	1107.2924	1123.8233	1138.6753	1166.4118	1190.0669	1193.5818	1202.5269	1217.1591	1228.8948	1268.4024	1272.0888	1300.8024	1346.0122	1426.5658	1462.8471	1501.8209	1539.6761	3031.6093	3033.3565	3051.2478	3054.4793	3070.2938	3115.7908	3117.739	3173.0182	3809.5937	3833.0379
OC1CC23CC(C2)C13O	O[C@H]1C[C@@]23C[C@@H](C2)[C@@]13O	
InChI=1S/C7H10O2/c8-5-3-6-1-4(2-6)7(5,6)9/h4-5,8-9H,1-3H2	InChI=1S/C7H10O2/c8-5-3-6-1-4(2-6)7(5,6)9/h4-5,8-9H,1-3H2/t4-,5-,6+,7+/m0/s1
