21
gdb 58340	2.1188	1.35106	1.01433	2.1101	82.36	-0.2469	-0.0133	0.2336	1283.9401	0.181159	-420.450272	-420.439883	-420.438939	-420.485658	37.844	
C	 1.0469207002	-1.2349113012	 0.1313476713	-0.388132
C	 0.0628464347	-0.0689005713	-0.0390075227	 0.032089
C	 0.4313984819	 0.8527291278	-1.2102360598	-0.388131
N	-1.3439630933	-0.5363983061	-0.1210271307	-0.116116
C	-1.7700375041	-1.3411731518	-1.1780032896	 0.091861
N	-0.99589166	-1.7162381093	-2.1168799568	-0.476274
C	-2.3158007838	-0.2067061463	 0.8380303172	 0.424572
C	-1.9004265528	 0.668192983	 2.0092437359	-0.51123
O	-3.4605863495	-0.6034478698	 0.7456308499	-0.352592
H	 2.0490602062	-0.8362641188	 0.3184544576	 0.112667
H	 0.7653068157	-1.8593890233	 0.9850535222	 0.110134
H	 1.0761004124	-1.8563439918	-0.763379473	 0.159638
H	 0.1152831911	 0.52983272	 0.8686005972	 0.095155
H	 0.438999468	 0.3047048281	-2.1521364741	 0.159639
H	-0.2788066714	 1.6817263993	-1.2906354028	 0.110136
H	 1.4268002969	 1.2741814357	-1.037709109	 0.112665
H	-2.8260943572	-1.5889934716	-1.0791596692	 0.146621
H	-1.5170373653	-2.2927995487	-2.7750588706	 0.228958
H	-1.5391104534	 1.6481082742	 1.6829364832	 0.148861
H	-2.7870889952	 0.8038607341	 2.6274565128	 0.150623
H	-1.1131545411	 0.2038411579	 2.6107697811	 0.148855
55.7028	71.6138	169.5408	208.9938	232.7647	235.2634	237.8848	250.3994	259.6703	337.4323	432.5068	450.7997	462.7835	521.5474	592.6203	636.9504	743.1737	836.4867	889.2574	930.237	953.1132	970.4273	1048.3934	1049.9289	1094.2576	1099.0688	1149.1396	1185.6035	1202.3306	1319.1956	1349.2846	1352.0314	1383.4678	1392.9259	1401.3799	1415.0077	1438.9058	1474.7755	1477.2203	1489.1875	1493.8303	1504.9394	1523.1071	1709.0916	1777.2533	3041.4954	3045.4252	3047.4622	3104.0097	3107.7175	3112.4553	3123.8007	3145.1609	3158.0422	3161.4479	3165.498	3497.5006
CC(C)N(C=N)C(C)=O	CC(C)N(C=N)C(=O)C	
InChI=1S/C6H12N2O/c1-5(2)8(4-7)6(3)9/h4-5,7H,1-3H3	InChI=1S/C6H12N2O/c1-5(2)8(4-7)6(3)9/h4-5,7H,1-3H3
