17
gdb 83898	2.56173	1.54223	1.23068	0.8503	75.43	-0.2382	0.027	0.2652	1065.6863	0.134304	-421.766694	-421.758215	-421.757271	-421.799723	31.764	
C	-0.0126469509	 1.5607392304	-0.069245622	-0.408159
C	 0.1256708925	 0.0584202819	-0.0594763497	-0.109114
C	 1.4581760412	-0.6429676756	-0.1686785315	-0.000916
O	 2.607700706	 0.131193422	 0.0701118145	-0.258853
C	 2.7651732231	 0.1417328472	 1.4799654655	 0.009796
O	 1.4632673787	 0.1084135853	 2.0337151466	-0.289072
C	 0.7030105163	-0.6941790823	 1.1445384489	 0.165771
C	 0.0865478366	-1.859109795	 1.6959847475	 0.27816
C	-0.4529428328	-2.8343813857	 2.1482091223	-0.412891
H	-0.0488898205	 1.931081411	-1.0987687485	 0.122652
H	-0.9344671087	 1.8664055921	 0.4347023405	 0.126122
H	 0.8266866759	 2.0399394704	 0.4350708128	 0.138019
H	-0.6831461125	-0.4879006688	-0.5392357461	 0.101364
H	 1.6039260426	-1.5115211717	-0.8018144442	 0.116408
H	 3.3465195979	-0.7366149731	 1.8062227119	 0.101367
H	 3.2579775144	 1.0697386237	 1.7805210406	 0.124831
H	-0.9241227798	-3.6952921319	 2.5536591809	 0.194516
113.0423	125.6666	154.2373	184.9296	204.381	295.8419	402.5881	476.2974	524.561	564.2543	573.7132	640.416	684.0554	720.9212	759.9276	817.3424	896.5251	944.0045	986.6195	1014.2647	1034.1487	1076.6963	1106.4768	1121.2052	1141.2362	1176.8106	1214.5488	1225.8612	1245.2809	1332.5141	1407.8489	1417.736	1430.9053	1488.6158	1496.6252	1535.0311	2235.7856	2967.1998	3045.62	3103.2292	3104.397	3137.2873	3152.067	3169.8275	3501.9655
CC1C2OCOC12C#C	C[C@H]1[C@H]2OCO[C@@]12C#C	
InChI=1S/C7H8O2/c1-3-7-5(2)6(7)8-4-9-7/h1,5-6H,4H2,2H3	InChI=1S/C7H8O2/c1-3-7-5(2)6(7)8-4-9-7/h1,5-6H,4H2,2H3/t5-,6+,7-/m0/s1
