18
gdb 46410	3.99117	0.83542	0.72647	3.1429	79.53	-0.2254	-0.0255	0.1999	1536.0733	0.145452	-401.902002	-401.892657	-401.891713	-401.937081	33.781	
O	 0.2317066644	 0.0566126274	-0.0808389	-0.295356
C	 0.0731290186	 1.2393237309	 0.0145974132	 0.415518
C	-1.1349666356	 2.1420954263	 0.3049137866	-0.339394
C	-0.1179298387	 3.2607734983	 0.6882848103	-0.265483
C	 1.0446369473	 2.4410788435	 0.0528857833	-0.0507
N	 2.2485668985	 2.2698208283	 0.8377589243	-0.311621
C	 3.232026504	 1.3938255767	 0.1832911664	-0.290244
C	 4.4782991473	 1.3416614656	 0.9378426345	 0.274921
C	 5.5116378916	 1.3232711233	 1.5503629149	-0.421805
H	-1.7071175835	 2.3612154321	-0.6024015178	 0.134846
H	-1.824632225	 1.7853659892	 1.0728337442	 0.13657
H	-0.297199587	 4.2504210165	 0.2675731001	 0.109632
H	 0.0144678028	 3.3385975982	 1.769214205	 0.126812
H	 1.2276588026	 2.7732427776	-0.9896342613	 0.077201
H	 2.67575474	 3.1748420551	 1.0117751708	 0.226386
H	 2.7916954342	 0.3934081025	 0.1107234219	 0.168057
H	 3.4544248826	 1.7095296208	-0.8542651997	 0.107741
H	 6.4229390859	 1.2914704577	 2.0943677235	 0.196919
53.996	77.004	100.5875	134.3248	196.5214	276.9605	343.3461	361.795	428.2726	524.3546	553.7033	610.2547	663.0873	679.446	740.2385	754.4312	797.6397	917.0258	935.614	976.3281	993.2986	1033.4088	1049.0793	1089.078	1123.5462	1176.6607	1195.7224	1225.0496	1233.0301	1259.0553	1272.5382	1355.6371	1379.575	1441.7658	1477.1134	1488.3132	1501.8912	1887.2942	2244.3865	2888.4719	2915.2671	3061.328	3068.4656	3083.0483	3119.743	3144.5545	3506.7549	3506.903
O=C1CCC1NCC#C	O=C1CC[C@H]1NCC#C	
InChI=1S/C7H9NO/c1-2-5-8-6-3-4-7(6)9/h1,6,8H,3-5H2	InChI=1S/C7H9NO/c1-2-5-8-6-3-4-7(6)9/h1,6,8H,3-5H2/t6-/m1/s1
