14
gdb 97870	4.45005	0.4841	0.44908	5.2045	84.58	-0.2682	-0.0434	0.2249	2269.8069	0.098748	-399.490971	-399.481107	-399.480163	-399.528309	32.592	
O	 0.1093807114	 1.0363193744	 0.9287558538	-0.40717
C	-0.0358583175	 0.1844955073	-0.1985882361	-0.21254
C	-1.3736834833	-0.3954802133	-0.2001964089	 0.124636
C	-2.4717786138	-0.8832497993	-0.2163842608	 0.071394
C	-3.8114458253	-1.4694231881	-0.2260400542	-0.51564
C	-3.8123707476	-2.9127759648	 0.0030531944	 0.135165
C	-3.8184545552	-4.1051397485	 0.1885977854	 0.019559
C	-3.8254674809	-5.4544907663	 0.3979724815	 0.216671
N	-3.8331057253	-6.6024274969	 0.574979979	-0.335088
H	 1.0062652119	 1.3857426459	 0.9120181075	 0.293931
H	 0.1159337649	 0.7347551459	-1.1414335405	 0.121933
H	 0.7025836966	-0.63339717	-0.1846346485	 0.12586
H	-4.4320722298	-0.988034846	 0.5428013711	 0.183247
H	-4.310443976	-1.2625486502	-1.1832087138	 0.178044
16.2478	48.8291	123.2598	146.4419	151.981	217.7368	246.7751	316.7404	352.0447	373.7334	469.5421	554.1416	577.2778	581.3415	731.8683	774.7577	922.7079	1026.0692	1052.8147	1133.0763	1174.0452	1226.2655	1247.7577	1257.4991	1336.434	1440.2489	1461.1944	1501.7508	2271.2119	2384.55	2408.9238	2966.7585	2986.693	3008.9403	3035.744	3819.772
OCC#CCC#CC#N	OCC#CCC#CC#N	
InChI=1S/C7H5NO/c8-6-4-2-1-3-5-7-9/h9H,1,7H2	InChI=1S/C7H5NO/c8-6-4-2-1-3-5-7-9/h9H,1,7H2
