17
gdb 42981	2.84118	1.70775	1.2913	2.2699	73.05	-0.244	-0.0352	0.2088	987.7784	0.137973	-417.978711	-417.971468	-417.970523	-418.010367	28.448	
O	 0.1081634584	 0.1205006788	 0.34276133	-0.352145
C	 0.0256998465	 1.309669036	 0.1406914099	 0.380816
C	-1.1955470361	 2.1130610208	-0.1571142329	-0.148959
C	-1.3483087693	 3.3405395391	 0.6910360571	-0.240704
N	-0.7886685839	 3.4552125603	-0.6436230407	-0.101382
C	 0.7001468045	 3.5067085249	-0.6508634545	-0.257262
C	 1.2003750354	 2.2544968683	 0.0517635593	 0.209376
C	 2.2577282415	 2.1514395503	 1.1033740986	-0.277894
N	 2.5120036037	 1.6786473877	-0.2541976679	-0.351758
H	-2.0565674672	 1.6314876725	-0.606181236	 0.121255
H	-2.3444812077	 3.7546913144	 0.8151162508	 0.134189
H	-0.6936474636	 3.453494306	 1.5529870648	 0.127054
H	 1.0325716891	 3.5067942413	-1.6932632088	 0.133052
H	 1.0330152523	 4.4392549251	-0.1866973249	 0.118767
H	 2.7951553198	 3.0522062529	 1.388709507	 0.12661
H	 2.1106401087	 1.419298015	 1.8934034298	 0.131657
H	 2.3995686079	 0.6629554266	-0.2759778815	 0.247328
93.935	209.2979	254.3555	266.0204	359.5883	378.2765	448.5575	570.1405	616.8742	699.1262	769.1495	773.4823	833.2476	865.7283	895.9989	934.1778	968.0376	988.0384	1005.8169	1041.2746	1079.1307	1099.9776	1108.1597	1125.8652	1157.8017	1181.0114	1223.9414	1260.3708	1281.56	1306.8521	1319.7685	1346.1075	1400.9907	1494.0776	1498.7148	1504.8791	1822.6843	3055.2699	3100.5857	3102.8479	3103.4137	3183.6856	3195.6371	3196.1834	3442.676
O=C1C2CN2CC11CN1	O=C1[C@H]2CN2C[C@]21CN2	
InChI=1S/C6H8N2O/c9-5-4-1-8(4)3-6(5)2-7-6/h4,7H,1-3H2	InChI=1S/C6H8N2O/c9-5-4-1-8(4)3-6(5)2-7-6/h4,7H,1-3H2/t4-,6+,8?/m1/s1
