20
gdb 20182	3.13331	2.49043	1.88441	0.1666	76.91	-0.2432	0.0863	0.3294	807.4718	0.181605	-311.856953	-311.850708	-311.849764	-311.886853	26.661	
C	 0.0148758995	 1.5940078243	-0.0648843674	-0.24737
C	 1.5440559988	 1.5870366293	-0.1160537383	-0.068701
C	 2.2026928679	 0.7576288945	 0.9685082407	-0.002846
C	 1.7534493874	 0.5325336832	 2.4055213999	-0.219952
C	 0.2431035475	 0.2811418376	 2.5825227088	-0.201858
C	-0.364934353	-0.5413693675	 1.4347551562	-0.20391
C	 0.0283711878	 0.0300588873	 0.0683227836	-0.008142
C	 1.5530431549	 0.0556965878	-0.1853500275	-0.081799
H	-0.4753621837	 2.1807353137	 0.7176115489	 0.090053
H	-0.4059862933	 1.8946441268	-1.0281220862	 0.096339
H	 2.1389107224	 2.2844009836	-0.6956181044	 0.076427
H	 3.2865041283	 0.8027112222	 0.8731658568	 0.07803
H	 2.3046554373	-0.3437159448	 2.7746142569	 0.094518
H	 2.0648850827	 1.3727925368	 3.0384673833	 0.092109
H	 0.0685403791	-0.2218849193	 3.5398444598	 0.08703
H	-0.2819316048	 1.2398375746	 2.6497051623	 0.102089
H	-0.0226510123	-1.5838183475	 1.4927498531	 0.09114
H	-1.4564249999	-0.5638565431	 1.5409912685	 0.088085
H	-0.5317066294	-0.4572497225	-0.7326970762	 0.065099
H	 2.0867273128	-0.6012060371	-0.8621899588	 0.073658
177.8133	277.1343	352.6546	371.2963	473.0729	528.399	652.8075	697.6176	730.4936	781.3159	808.1765	843.7813	861.6576	911.1159	925.8718	949.4061	974.6549	1006.161	1026.5774	1033.9274	1059.6962	1070.8704	1103.0454	1106.6181	1152.3464	1166.316	1191.8254	1219.4615	1246.674	1264.1581	1287.6932	1314.3567	1334.1992	1342.3359	1372.4693	1377.8772	1388.6232	1446.3424	1481.5926	1486.3504	1495.0501	1516.6201	3005.3166	3010.4856	3034.3634	3044.6086	3049.2324	3052.1995	3074.3748	3079.7238	3097.2808	3118.5963	3163.1789	3177.4528
C1C2C3CCCC1C23	C1[C@H]2[C@H]3CCC[C@@H]1[C@@H]23	
InChI=1S/C8H12/c1-2-5-4-7-6(3-1)8(5)7/h5-8H,1-4H2	InChI=1S/C8H12/c1-2-5-4-7-6(3-1)8(5)7/h5-8H,1-4H2/t5-,6+,7-,8+/m0/s1
