18
gdb 11047	3.49476	2.34748	1.97878	0.0468	74.96	-0.218	-0.0017	0.2163	776.0562	0.155632	-310.662179	-310.655737	-310.654793	-310.692046	27.422	
C	-0.0254066029	 1.5261304513	 0.0164927835	-0.503158
C	 0.0022135279	 0.0075959739	 0.0094523243	 0.25738
C	 0.7093821091	-0.7219372919	-1.1801839743	-0.217227
C	 0.3910269533	-2.1315858471	-0.5985914406	-0.120699
C	 1.0117501161	-1.9383918141	 0.8009041304	-0.086333
C	 0.77584249	-0.6784138746	 1.1612190706	-0.100574
C	-1.1371519617	-1.9716901143	-0.4559806433	-0.086331
C	-1.3646926784	-0.7115341437	-0.0909392964	-0.100575
H	 0.9883643276	 1.9402019106	 0.0258559687	 0.115549
H	-0.5400647337	 1.9165484298	-0.8678004706	 0.115548
H	-0.5480703608	 1.9094227504	 0.9002662189	 0.114754
H	 0.2271550538	-0.5310905316	-2.1436911184	 0.088819
H	 1.7808909112	-0.5070122002	-1.2348437514	 0.088819
H	 0.7308320659	-3.0038424779	-1.1564421268	 0.057274
H	 1.4915729637	-2.7219239518	 1.3720676825	 0.095842
H	 1.0182824231	-0.1886996347	 2.0958715681	 0.092535
H	-1.851883529	-2.7737360799	-0.5835002325	 0.095844
H	-2.3093017552	-0.2401797542	 0.1492921373	 0.092534
208.3331	281.7685	284.5673	433.1826	462.7105	513.4992	543.1656	611.5767	686.0674	716.9921	759.6353	790.8009	811.9985	878.3889	883.7394	904.4773	908.5239	923.2308	940.4419	954.2981	1023.7145	1076.6334	1088.3894	1108.9602	1150.7823	1191.1333	1217.6579	1255.3134	1256.1251	1273.6598	1292.4731	1358.1789	1414.3644	1491.9343	1496.0402	1496.4873	1616.9456	1662.3808	3026.9749	3045.4694	3090.9607	3097.8455	3106.4597	3116.8805	3200.4326	3201.8536	3228.3158	3230.856
CC12CC(C=C1)C=C2	C[C@@]12C[C@@H](C=C1)C=C2	
InChI=1S/C8H10/c1-8-4-2-7(6-8)3-5-8/h2-5,7H,6H2,1H3	InChI=1S/C8H10/c1-8-4-2-7(6-8)3-5-8/h2-5,7H,6H2,1H3/t7-,8+
