16
gdb 62552	2.35055	1.47335	1.21104	3.0582	65.95	-0.2563	-0.0363	0.22	1072.906	0.121306	-475.047672	-475.038307	-475.037362	-475.082001	33.094	
C	-0.0562587405	 1.628197585	-0.0001697664	-0.446324
C	-0.0472831327	 0.1100328158	-0.013325479	 0.241764
O	-1.3410062061	-0.4251232523	 0.1800157211	-0.463942
C	 0.7220106755	-0.5836478956	-1.2038672596	-0.121432
N	 1.7280418485	-1.0114204195	-0.2296350312	-0.328671
C	 1.0195489801	-0.5952883576	 0.8724997502	 0.388313
O	 1.1298314703	-0.7695948925	 2.0561054824	-0.361042
C	-0.0399355993	-1.7094363766	-1.867878516	 0.172123
O	 0.2391539457	-2.8713535093	-1.7266829461	-0.250583
H	 0.9359589521	 2.0354598561	-0.2164139455	 0.128732
H	-0.7663893034	 2.0062117399	-0.7417252044	 0.132329
H	-0.3677646101	 1.985391559	 0.9860938272	 0.137898
H	-1.4210466311	-0.6590856996	 1.1128164866	 0.304532
H	 1.0948495115	 0.1080619197	-1.9699656962	 0.106476
H	 2.3514436469	-1.8038174429	-0.3082450553	 0.265112
H	-0.8717473075	-1.3774537896	-2.5239340676	 0.094715
69.6035	105.8235	143.8037	191.1257	222.506	239.439	260.738	268.6867	333.1339	437.9335	484.3427	581.7508	682.4552	725.9073	754.772	794.9217	816.1092	929.8555	977.4225	992.7553	1082.901	1103.309	1142.3616	1202.3351	1231.6635	1271.4965	1347.2799	1348.1616	1374.4649	1406.4516	1416.377	1483.146	1488.5561	1831.3861	1895.1435	2916.1522	3033.3458	3039.8161	3116.101	3118.346	3595.1499	3789.9603
CC1(O)C(NC1=O)C=O	C[C@@]1(O)[C@@H](NC1=O)C=O	
InChI=1S/C5H7NO3/c1-5(9)3(2-7)6-4(5)8/h2-3,9H,1H3,(H,6,8)	InChI=1S/C5H7NO3/c1-5(9)3(2-7)6-4(5)8/h2-3,9H,1H3,(H,6,8)/t3-,5+/m0/s1
