14
gdb 125022	2.42851	1.82993	1.05042	6.0997	71.33	-0.2442	-0.0759	0.1683	1056.1595	0.098742	-470.004968	-469.996215	-469.995271	-470.038424	31.095	
C	 0.0314922338	 1.5289542012	-0.0377600304	-0.508514
C	 0.0051099651	 0.029400891	-0.0546428517	 0.246909
C	-1.1329893175	-0.7280219066	 0.0271141384	 0.148359
N	-2.3824243637	-0.2560858796	 0.1330534158	-0.556843
C	-1.0680458198	-2.2272457908	 0.0029783511	 0.460606
O	-2.0956379194	-2.8735295209	 0.0777093985	-0.38339
O	 0.1265957287	-2.7642078554	-0.0999282322	-0.296906
N	 1.4399695063	-1.8085268797	-0.1933938154	-0.030312
N	 1.2058206253	-0.6284688585	-0.1595469753	-0.077796
H	 1.0603238605	 1.8832597271	-0.1162481401	 0.158091
H	-0.5380879207	 1.9534096077	-0.8742320699	 0.136735
H	-0.3957891998	 1.9311062389	 0.8895982328	 0.136689
H	-2.5940783355	 0.7247496066	 0.1644812022	 0.274373
H	-3.1159962433	-0.9486689308	 0.1844242063	 0.291999
101.154	122.2801	156.7117	158.957	249.0679	273.0178	280.5318	372.0628	489.817	517.9759	528.125	610.2535	617.0336	647.356	780.7403	810.3422	820.8221	919.0514	1012.0381	1062.3656	1193.3335	1262.0106	1303.1434	1395.9914	1441.387	1484.2704	1496.1795	1583.2455	1632.564	1716.3443	1769.4672	3017.8886	3063.9897	3141.6598	3575.7711	3735.5775
CC1=C(N)C(=O)ON=N1	Cc1c(N)c(=O)onn1	
InChI=1S/C4H5N3O2/c1-2-3(5)4(8)9-7-6-2/h5H2,1H3	InChI=1S/C4H5N3O2/c1-2-3(5)4(8)9-7-6-2/h5H2,1H3
