16
gdb 45051	2.55649	1.84205	1.27544	3.8658	68.76	-0.2435	-0.0352	0.2083	979.4658	0.124717	-437.860098	-437.852805	-437.851861	-437.892055	28.271	
O	 0.0351029522	 0.066819951	-0.3977112386	-0.303933
C	-0.0205999826	 1.2095974763	-0.0312071428	 0.338274
C	-1.2888566711	 1.9936259318	 0.3412603004	-0.332614
C	-0.786279165	 3.305146911	 0.9097466968	-0.046007
N	 0.0934568348	 3.1094972196	 2.0758539844	-0.341038
C	 0.6958659975	 3.3965846974	 0.754638051	-0.182831
C	 1.1835627625	 2.1439071941	 0.1013092881	 0.392509
C	 2.5505487285	 1.6163237539	 0.1240756587	-0.232615
O	 2.0292426186	 2.2404218541	-1.0499559535	-0.277487
H	-1.8756664548	 2.1487897112	-0.5723651825	 0.137808
H	-1.9028441284	 1.4182005974	 1.0389824243	 0.143332
H	-1.4074330573	 4.1925146438	 0.8579457543	 0.100049
H	 0.1105136944	 3.9518365039	 2.6453029299	 0.240079
H	 1.2118749809	 4.332370616	 0.5729376522	 0.106244
H	 3.3232394914	 2.174326949	 0.6503977213	 0.119813
H	 2.6897782186	 0.5397097496	 0.0505873162	 0.138416
70.8671	179.3826	257.7717	262.0144	354.6906	431.5489	482.424	561.3732	588.1037	673.9512	704.4754	822.4852	844.1871	852.9655	883.0837	897.6983	938.6531	980.8982	1018.7809	1049.2519	1061.9945	1122.7157	1130.1189	1150.0627	1168.2316	1184.5856	1218.9542	1260.2884	1300.0619	1334.403	1401.0497	1439.469	1453.6244	1515.3126	1853.5723	3047.7916	3090.2155	3105.6318	3171.098	3184.8401	3188.5398	3507.4256
O=C1CC2NC2C11CO1	O=C1C[C@H]2N[C@H]2[C@]21CO2	
InChI=1S/C6H7NO2/c8-4-1-3-5(7-3)6(4)2-9-6/h3,5,7H,1-2H2	InChI=1S/C6H7NO2/c8-4-1-3-5(7-3)6(4)2-9-6/h3,5,7H,1-2H2/t3-,5-,6-/m1/s1
