19
gdb 83386	2.73511	1.72227	1.54897	1.2191	74.27	-0.2459	0.0648	0.3107	949.8217	0.161338	-422.956691	-422.949508	-422.948564	-422.987769	29.722	
O	-0.1252492173	 1.4939569675	-0.0122629447	-0.447014
C	-0.0616416562	 0.0878620362	 0.0105427866	 0.128673
C	 0.1294422786	-0.653217346	 1.3527902871	-0.159364
C	-1.0139646801	 0.0200163104	 2.1906774443	-0.204506
C	-2.2032504321	 0.0921973865	 1.1357291959	-0.327909
C	-1.4574989995	-0.6362958962	 0.0304709081	 0.258233
C	-1.6044806993	-1.6086560956	-1.1400966059	-0.202724
O	-0.5149618769	-2.4091905035	-0.5722481166	-0.314994
C	-0.7251240018	-1.7854188112	 0.7340039403	 0.125583
H	 0.7714526555	 1.8366023555	-0.0706603306	 0.285857
H	 0.5784084692	-0.302944084	-0.7831508022	 0.087795
H	 1.0916644934	-0.7764492171	 1.8545217069	 0.057827
H	-1.280860207	-0.5745440656	 3.0688196234	 0.098255
H	-0.7106504131	 1.013695846	 2.5225300574	 0.11136
H	-3.0908691244	-0.446313648	 1.4767821131	 0.097579
H	-2.4759373149	 1.1214614438	 0.899025067	 0.118008
H	-2.5407865333	-2.1816270907	-1.1566132084	 0.104186
H	-1.3662704257	-1.2485807249	-2.1460892409	 0.108586
H	-1.2279050452	-2.476099703	 1.4185483195	 0.074568
200.4294	246.4988	267.9735	286.7464	298.7297	376.5323	439.4179	528.8567	611.4918	736.7576	762.3719	793.1409	835.0441	845.8895	859.2489	896.2359	920.9272	943.0347	963.3646	1005.5456	1007.7186	1066.3055	1097.0074	1119.9332	1144.3918	1160.7514	1162.29	1194.7851	1213.643	1246.0963	1254.8856	1266.4453	1283.5616	1301.6308	1317.6405	1332.2861	1363.1158	1429.1379	1477.8494	1506.26	1513.5263	3014.5553	3052.0092	3063.1439	3073.2818	3080.0136	3083.0498	3093.1066	3118.8201	3134.0479	3829.706
OC1C2CCC11COC21	O[C@H]1[C@H]2CC[C@]31CO[C@@H]23	
InChI=1S/C7H10O2/c8-5-4-1-2-7(5)3-9-6(4)7/h4-6,8H,1-3H2	InChI=1S/C7H10O2/c8-5-4-1-2-7(5)3-9-6(4)7/h4-6,8H,1-3H2/t4-,5+,6+,7-/m1/s1
