16
gdb 34574	4.3751	1.09594	0.99376	3.8511	76.6	-0.262	-0.054	0.208	1172.0578	0.126401	-400.757046	-400.749766	-400.748822	-400.78923	27.426	
N	 0.1182354287	-1.0823412671	 0.3152742119	-0.328048
C	 0.0499676438	 0.0651990867	 0.1730178695	 0.209682
C	 0.0094106087	 1.4755772702	-0.0148581759	 0.197318
C	-1.0830060691	 2.2414427425	 0.1198119226	-0.169672
C	-0.7724599751	 3.6918355024	-0.1264609565	 0.090643
O	-0.658720419	 4.464517116	 1.0936530974	-0.287788
C	 0.7857895891	 4.4365208816	 1.0159983613	-0.081907
C	 0.761826274	 3.7222906775	-0.354970455	-0.089482
C	 1.2496659659	 2.2644813776	-0.412723441	-0.335859
H	-2.0652736628	 1.8788475981	 0.3965672699	 0.129578
H	-1.4488874586	 4.1755623107	-0.8392413014	 0.091061
H	 1.20551668	 5.4481805394	 1.0236683453	 0.112873
H	 1.2327485818	 3.8561138524	 1.8336285778	 0.107649
H	 1.1192198126	 4.3311750392	-1.1843542926	 0.09256
H	 2.086262135	 2.0688888117	 0.2677554679	 0.130468
H	 1.5878700049	 1.9763058111	-1.4145250112	 0.130926
88.2858	131.6979	161.9607	292.4051	360.4602	451.2297	528.7016	569.7893	578.9541	672.0399	796.112	855.2346	865.2663	887.7143	906.885	941.6594	980.095	1011.9575	1017.7238	1075.5314	1086.4967	1138.8673	1159.7467	1197.8024	1230.3944	1266.5436	1280.9672	1314.6502	1333.2873	1335.459	1366.9409	1485.3089	1520.8474	1668.4707	2338.6904	3015.4284	3038.9627	3051.7455	3067.805	3071.5511	3121.3093	3218.4519
N#CC1=CC2OCC2C1	N#CC1=C[C@H]2OC[C@H]2C1	
InChI=1S/C7H7NO/c8-3-5-1-6-4-9-7(6)2-5/h2,6-7H,1,4H2	InChI=1S/C7H7NO/c8-3-5-1-6-4-9-7(6)2-5/h2,6-7H,1,4H2/t6-,7-/m1/s1
