16
gdb 61337	4.69122	0.57652	0.5703	1.8472	78.79	-0.2633	-0.0736	0.1897	1895.2453	0.121553	-437.878435	-437.868382	-437.867438	-437.915582	32.922	
C	-0.2886044738	 1.3747728107	 0.0603095647	-0.348429
N	 0.0427084368	-0.0352690959	-0.0565260234	-0.021745
C	-0.0093954555	-0.8605523935	 1.1350979213	-0.354796
C	-1.3558516727	-1.0365226496	 1.6811620864	 0.149934
C	-2.4608932793	-1.182837273	 2.1454965417	-0.001157
C	-3.7934086116	-1.3475044641	 2.6728373289	 0.025338
O	-4.0593084647	-1.9947115535	 3.6583889436	-0.222111
C	 0.3566466896	-0.5766086495	-1.2730220413	 0.16047
O	 0.4090511955	 0.0320249496	-2.3175329606	-0.329181
H	 0.4015940368	 1.8784455728	 0.7475507775	 0.128711
H	-0.2018032198	 1.8157493879	-0.932370114	 0.17503
H	-1.3105023376	 1.5053832202	 0.4326485965	 0.13735
H	 0.4107912748	-1.8445069449	 0.8943179861	 0.161227
H	 0.6338844981	-0.432718703	 1.9178262661	 0.154063
H	-4.5778887237	-0.8226222781	 2.0915921458	 0.106978
H	 0.571297417	-1.6609332162	-1.1942753192	 0.078317
35.692	45.406	71.4327	135.0916	161.319	181.1985	239.5299	316.8463	333.7448	370.3848	396.0149	464.1059	606.818	714.0611	830.094	873.4018	963.3815	1020.5873	1026.6227	1087.2451	1138.6977	1159.3417	1234.9325	1271.3973	1374.3566	1420.7364	1426.4405	1436.0643	1441.7423	1459.9434	1496.7192	1519.3689	1770.6691	1805.8079	2328.9561	2926.7877	2935.1311	3004.2833	3026.6274	3059.4281	3082.4329	3162.7557
CN(CC#CC=O)C=O	CN(CC#CC=O)C=O	
InChI=1S/C6H7NO2/c1-7(6-9)4-2-3-5-8/h5-6H,4H2,1H3	InChI=1S/C6H7NO2/c1-7(6-9)4-2-3-5-8/h5-6H,4H2,1H3
