17
gdb 11273	4.92205	1.25994	1.05485	4.6174	77.75	-0.259	-0.0394	0.2196	1110.2317	0.143406	-326.768656	-326.760928	-326.759984	-326.800809	28.577	
C	-0.0713467979	 1.5767657486	-0.0149495154	-0.401046
C	 0.0336018755	 0.0478186718	 0.0182210639	-0.007302
C	 0.791411993	-0.5665097668	-1.1905591615	-0.228218
C	 1.5547437663	-1.7944350298	-0.6394965287	-0.314908
C	 1.6307933119	-1.4910966884	 0.8481852397	 0.194625
C	 0.8016485307	-0.4985732599	 1.1972999922	-0.148655
C	 2.4568094134	-2.2304262118	 1.737794434	 0.198843
N	 3.1443342605	-2.8500849693	 2.4349697639	-0.336932
H	 0.9226137633	 2.036162006	-0.0368803117	 0.12271
H	-0.6164576913	 1.9083215636	-0.9043923934	 0.121992
H	-0.601515195	 1.9594157013	 0.8631817323	 0.11975
H	-0.989014236	-0.3592362712	 0.0631876487	 0.094209
H	 0.1256651402	-0.8207441108	-2.01862024	 0.107407
H	 1.511026929	 0.1696466429	-1.5654802431	 0.111028
H	 1.0073398268	-2.7314921554	-0.8029341421	 0.124471
H	 2.5417953756	-1.9251099704	-1.0924387924	 0.124876
H	 0.663065854	-0.1403831504	 2.2112917436	 0.117151
105.4105	127.2983	154.1137	232.2935	298.8723	343.3835	464.4004	528.479	559.5617	571.6343	614.892	813.2036	850.3258	902.6623	908.2982	931.8092	968.1757	996.8724	1042.9637	1105.3464	1125.6326	1167.1699	1202.5145	1239.6946	1273.9664	1309.1453	1319.7102	1330.9932	1364.8403	1411.2154	1485.1904	1496.6026	1498.7011	1502.3476	1675.4496	2336.005	2977.3247	3030.1864	3032.258	3047.7316	3083.831	3102.3344	3105.1387	3107.5112	3202.3819
CC1CCC(=C1)C#N	C[C@H]1CCC(=C1)C#N	
InChI=1S/C7H9N/c1-6-2-3-7(4-6)5-8/h4,6H,2-3H2,1H3	InChI=1S/C7H9N/c1-6-2-3-7(4-6)5-8/h4,6H,2-3H2,1H3/t6-/m0/s1
