18
gdb 126899	3.23774	1.03594	0.79933	5.4487	78.37	-0.2103	-0.0073	0.203	1431.8519	0.145827	-435.256429	-435.24671	-435.245766	-435.292137	33.844	
C	-0.1687073068	 1.4875956026	-0.0061649521	-0.402855
C	 0.1435093526	-0.0022314763	-0.087434482	-0.122073
N	 0.6406738386	-0.4890107275	 1.1974469846	-0.399198
C	 0.8134840275	-1.8120768022	 1.4483180652	 0.450702
C	 1.4780330755	-2.4552835131	 2.4801686108	 0.13813
C	 2.2503333103	-1.8986703471	 3.6286750928	-0.519591
N	 1.2837309821	-3.7864943263	 2.2616858016	-0.138466
N	 0.602141783	-4.0373199877	 1.2469378458	-0.063626
O	 0.2559377056	-2.6983509585	 0.6469477753	-0.246244
H	 0.7291150374	 2.0692370695	 0.2329994987	 0.119519
H	-0.547058867	 1.8464476071	-0.9667725228	 0.133152
H	-0.9218320761	 1.6891200923	 0.760939687	 0.134833
H	-0.7581039769	-0.5708034003	-0.3302879338	 0.142917
H	 0.8682166005	-0.1971046166	-0.8916921432	 0.115183
H	 1.2710932112	 0.1243284694	 1.6915311674	 0.251405
H	 1.6248057192	-1.300022033	 4.3023531233	 0.129725
H	 2.6723958658	-2.7210191776	 4.2100146912	 0.155035
H	 3.0835543776	-1.2634077348	 3.3016359401	 0.121453
51.5681	60.47	94.9793	117.843	235.508	255.3239	270.9937	314.184	332.5375	418.766	449.2175	562.8927	650.3401	664.9292	744.372	802.427	831.139	928.0361	971.905	999.538	1069.369	1073.8077	1142.967	1157.7323	1229.6719	1295.9826	1306.1062	1377.1231	1408.9673	1416.6688	1462.7296	1475.1991	1483.5735	1494.9981	1496.5304	1499.4367	1509.3065	1526.4871	1647.8336	2997.9127	3015.292	3036.8259	3058.3496	3087.2496	3110.5107	3127.3494	3130.6353	3615.1683
CCNC1=C(C)N=NO1	CCNc1c(C)nno1	
InChI=1S/C5H9N3O/c1-3-6-5-4(2)7-8-9-5/h6H,3H2,1-2H3	InChI=1S/C5H9N3O/c1-3-6-5-4(2)7-8-9-5/h6H,3H2,1-2H3
