19
gdb 84511	2.82956	1.71302	1.42609	1.5106	79.2	-0.2235	0.008	0.2315	993.0712	0.160228	-385.839229	-385.831752	-385.830808	-385.870676	30.403	
C	-0.1787694798	 1.5570521473	 0.0361355219	-0.395881
C	 0.0318396204	 0.037368005	-0.0107812326	-0.123981
C	 0.8513610944	-0.4467718163	-1.2136992448	-0.05768
C	 1.8665644939	-1.2606777587	-0.8873315947	-0.186466
C	 1.9529748867	-1.4291589232	 0.5891852625	 0.106408
C	 2.2470284693	-0.2080318305	 1.4560058015	-0.365995
C	 0.8350040546	-0.5651093476	 1.1340911374	 0.389654
O	 0.3299889848	-1.5990660031	 1.996349196	-0.331723
C	 1.3196151478	-2.5263210238	 1.4585630389	-0.137671
H	 0.7770620241	 2.0878900176	 0.0848772021	 0.117395
H	-0.7108959804	 1.9068463208	-0.8546011256	 0.112585
H	-0.7683864008	 1.8392700552	 0.9134377289	 0.124997
H	-0.9543663059	-0.4468842135	-0.0203286951	 0.100109
H	 0.6223547518	-0.1175718515	-2.2239745937	 0.093818
H	 2.5490185871	-1.7118580115	-1.6001159917	 0.09702
H	 2.594194284	-0.3532678319	 2.4745959327	 0.119502
H	 2.6808410746	 0.6355081607	 0.9316979748	 0.123422
H	 0.8359876136	-3.317439368	 0.8755175694	 0.11045
H	 1.9355389396	-2.970092077	 2.2494300222	 0.104037
141.9681	207.2271	232.4725	293.124	301.8974	397.2924	429.8953	537.7508	579.5403	634.7098	702.2743	759.4033	789.6996	818.6271	862.1463	898.4845	928.1704	936.4717	965.2206	980.0178	992.3247	1028.215	1059.893	1079.4071	1092.8847	1131.9439	1153.8504	1155.552	1182.6902	1260.5191	1292.0189	1319.9816	1347.2542	1368.286	1380.3654	1411.6079	1464.2174	1497.1785	1498.336	1512.7692	1636.5162	3013.5769	3023.8993	3035.5811	3077.3893	3103.3951	3111.8966	3126.1137	3162.0886	3189.8973	3225.7225
CC1C=CC23CC12OC3	C[C@H]1C=C[C@@]23C[C@@]12OC3	
InChI=1S/C8H10O/c1-6-2-3-7-4-8(6,7)9-5-7/h2-3,6H,4-5H2,1H3	InChI=1S/C8H10O/c1-6-2-3-7-4-8(6,7)9-5-7/h2-3,6H,4-5H2,1H3/t6-,7-,8+/m0/s1
