18
gdb 9804	3.48457	1.42835	1.37604	2.2508	68.24	-0.2642	-0.0373	0.2269	994.5048	0.151552	-384.93852	-384.929888	-384.928944	-384.97153	31.91	
C	-0.0654732522	 1.5233243972	 0.320214313	-0.473439
C	-0.0015688992	 0.0246890682	 0.0964707201	 0.357898
C	 1.2617190131	-0.5872010998	-0.4676472169	-0.313994
C	 0.8998404886	-0.7992291487	 0.9816596721	-0.307414
C	-1.3247728087	-0.6129270371	-0.3190596342	-0.011787
O	-2.3319209513	-0.3930074685	 0.6313609633	-0.437112
C	-1.7714695687	-0.0995423411	-1.6768599078	 0.137193
O	-2.8615596842	 0.391768447	-1.8468426694	-0.265842
H	 0.8953467927	 1.9063707409	 0.6756122025	 0.114846
H	-0.3166143655	 2.0627706596	-0.6011191902	 0.116935
H	-0.8281075826	 1.7606942292	 1.0670815257	 0.139908
H	 1.1780766723	-1.4345609473	-1.1410924564	 0.109852
H	 2.0826351717	 0.0811827326	-0.7030086849	 0.115768
H	 1.4776985979	-0.2753615189	 1.7350906774	 0.116246
H	 0.5599515004	-1.78291879	 1.2871112614	 0.119274
H	-1.1482112043	-1.6974630608	-0.4529323585	 0.085501
H	-3.0732327868	-0.0044009561	 0.139906906	 0.293685
H	-1.0415078834	-0.2047738162	-2.5042518331	 0.102484
78.4963	106.6151	197.4372	213.2014	267.9091	292.3358	326.1605	337.0197	441.8669	466.2931	513.4274	703.006	773.9141	790.2651	847.6396	874.7512	923.4825	956.2618	972.5878	1010.3818	1049.0318	1078.9584	1082.7113	1127.914	1157.3201	1189.3735	1240.7404	1299.6771	1321.4545	1374.5504	1389.9498	1415.5068	1436.5968	1471.0281	1488.7562	1501.2765	1510.6398	1810.6912	2921.1327	2942.6514	3028.2736	3093.2001	3118.6808	3128.068	3135.6306	3207.0889	3222.5709	3686.9664
CC1(CC1)C(O)C=O	CC1(CC1)[C@@H](O)C=O	
InChI=1S/C6H10O2/c1-6(2-3-6)5(8)4-7/h4-5,8H,2-3H2,1H3	InChI=1S/C6H10O2/c1-6(2-3-6)5(8)4-7/h4-5,8H,2-3H2,1H3/t5-/m0/s1
