17
gdb 25155	3.25412	1.34287	1.02921	3.1072	76.15	-0.1862	0.0263	0.2125	1150.2954	0.136787	-418.006745	-417.998833	-417.997888	-418.040385	30.049	
N	-0.1411476906	 1.277311962	-0.2085861489	-0.616865
C	-0.0432069506	 0.0181561083	-0.0793488225	 0.470337
O	 1.1080529044	-0.7415364273	-0.125335373	-0.224882
C	 0.7555964555	-2.0662141884	 0.0620594152	-0.058242
C	-0.5679361876	-2.1576220386	 0.2222091228	-0.123203
N	-1.0853866002	-0.8657015231	 0.1373054759	-0.109295
C	-2.4479217478	-0.4356750179	 0.242939724	 0.076442
C	-3.5744962896	-1.2696505875	-0.3018047002	-0.288743
C	-3.4047116197	-1.0991363699	 1.1946986856	-0.288555
H	 0.7707070041	 1.6981704633	-0.3590216731	 0.224627
H	 1.551546309	-2.7883835142	 0.0521548178	 0.149592
H	-1.1898342929	-3.0198433835	 0.3887294868	 0.150286
H	-2.4933866557	 0.6392889747	 0.1256850204	 0.148347
H	-4.3915176669	-0.7601522868	-0.799975439	 0.126751
H	-3.328176742	-2.2363718913	-0.7281577777	 0.118314
H	-3.0454764884	-1.9527837737	 1.7596920386	 0.118338
H	-4.1041012808	-0.4715364261	 1.7353052874	 0.126751
26.3499	102.4032	180.5079	225.9243	325.2029	412.048	529.0376	574.5656	595.23	663.6244	697.5522	738.0681	757.943	770.8117	788.1819	809.8631	895.4196	913.7217	940.2605	991.2751	1043.7332	1060.3172	1070.6485	1104.3914	1129.5929	1140.3766	1182.0721	1195.9761	1222.7833	1264.3519	1323.2513	1429.5922	1459.1746	1464.0388	1507.23	1661.0604	1768.8819	3134.1809	3137.5764	3208.0171	3214.0852	3229.7527	3285.0772	3315.8764	3552.5026
N=C1OC=CN1C1CC1	[NH][C@@H]1OC=CN1C1CC1	
InChI=1S/C6H8N2O/c7-6-8(3-4-9-6)5-1-2-5/h3-5,7H,1-2H2	InChI=1S/C6H9N2O/c7-6-8(3-4-9-6)5-1-2-5/h3-7H,1-2H2/t6-/m0/s1
