15
gdb 83863	2.36401	1.88198	1.38181	4.3506	61.	-0.2607	-0.0092	0.2515	936.5957	0.113405	-494.904534	-494.897251	-494.896307	-494.936462	27.812	
O	 0.0750652389	 1.3396419139	-0.1411624413	-0.408361
C	-0.024166168	-0.0318861975	-0.0326940709	 0.116298
C	-0.4466927537	-0.639445819	 1.2654319409	 0.00226
O	-0.8074502081	 0.3244738816	 2.2258335431	-0.248381
C	-2.1974775974	 0.3935597053	 2.3933172213	 0.001365
O	-2.857568799	 0.8246735527	 1.2100431878	-0.227874
C	-2.637051832	 0.0815443193	 0.0773646366	 0.448186
O	-3.4034646257	 0.1502752063	-0.8388622805	-0.322748
C	-1.3927275569	-0.7403496696	 0.0793603415	-0.291188
H	-0.1523919737	 1.7080188373	 0.7243554247	 0.299363
H	 0.7117525445	-0.5525978195	-0.6363991637	 0.124738
H	 0.0299015085	-1.5239985799	 1.6784953778	 0.115846
H	-2.598072949	-0.5818423	 2.7010777734	 0.117254
H	-2.3996883252	 1.1503932031	 3.1514439642	 0.141193
H	-1.4854482233	-1.6812575738	-0.4483007648	 0.13205
101.6215	125.1934	227.8176	332.2244	404.0871	413.911	449.2549	515.7903	563.639	631.3797	729.3287	768.5451	800.1956	808.3866	867.4798	937.1632	979.6261	1035.1862	1066.6185	1079.9188	1106.9902	1148.8357	1170.2604	1225.9863	1248.5676	1299.2177	1333.1303	1345.7092	1367.4172	1445.4309	1451.8047	1518.5495	1864.31	3016.2351	3139.1045	3144.5287	3171.5976	3199.1677	3744.906
OC1C2OCOC(=O)C12	O[C@H]1[C@H]2OCOC(=O)[C@@H]12	
InChI=1S/C5H6O4/c6-3-2-4(3)8-1-9-5(2)7/h2-4,6H,1H2	InChI=1S/C5H6O4/c6-3-2-4(3)8-1-9-5(2)7/h2-4,6H,1H2/t2-,3+,4-/m0/s1
