14
gdb 26555	2.43282	1.9107	1.07551	5.5127	68.77	-0.2098	-0.0327	0.1771	1025.4644	0.102971	-470.054512	-470.04673	-470.045786	-470.08663	29.332	
N	 0.069372961	 1.3754644519	 0.2837617701	-0.576662
C	-0.0276988444	 0.0171202361	 0.1131364824	 0.379136
C	-1.1870847934	-0.6742719025	-0.0261170666	 0.030401
N	-2.4266699323	 0.0071128096	-0.0808453434	-0.614626
C	-1.142678272	-2.1132499862	-0.2215132822	 0.352843
O	-2.1407040458	-2.777197081	-0.4372354676	-0.373933
N	 0.1463743381	-2.7122051612	-0.1640827929	-0.303156
C	 1.1575492291	-1.9716770612	 0.0163185066	 0.113152
O	 1.1740318328	-0.6171629528	 0.1557239173	-0.204707
H	 0.957491973	 1.772505525	 0.0098631338	 0.264713
H	-0.7329093099	 1.8647483907	-0.0947990752	 0.275017
H	-3.1304827191	-0.6739615185	-0.3576190498	 0.261118
H	-2.696796358	 0.3760566135	 0.8269564618	 0.246446
H	 2.1693533309	-2.3597466833	 0.0846606658	 0.150258
116.4365	185.5757	205.5455	270.9283	300.65	346.1764	410.5133	501.3528	523.7218	527.2035	577.2772	617.2977	706.4615	712.6807	797.7554	877.2916	907.5394	947.6561	979.8686	1026.4159	1142.0974	1222.285	1279.4756	1333.1064	1414.4807	1444.7553	1615.3546	1641.8289	1663.3189	1728.3634	1767.743	3191.0714	3476.1561	3535.9472	3552.5443	3652.3026
NC1=C(N)C(=O)N=CO1	Nc1c(N)c(=O)nco1	
InChI=1S/C4H5N3O2/c5-2-3(6)9-1-7-4(2)8/h1H,5-6H2	InChI=1S/C4H5N3O2/c5-2-3(6)9-1-7-4(2)8/h1H,5-6H2
