16
gdb 126784	2.63264	1.36212	0.95187	2.9788	67.39	-0.2085	0.0445	0.253	1204.9047	0.125104	-471.257192	-471.248585	-471.247641	-471.29106	31.295	
C	 0.2141573806	 1.5928818969	-0.0228352119	-0.375847
C	-0.0123385387	 0.0894759294	 0.1401424345	-0.142743
N	 0.6717901013	-0.4634278133	 1.2885221469	-0.081184
N	 2.066841516	-0.5328609357	 1.3299229336	-0.366891
C	 2.309095116	-1.0615703601	 2.4833754534	 0.505357
O	 3.5131908242	-1.3388275595	 2.9926003586	-0.412718
N	 1.1837994253	-1.3408134606	 3.1985525266	-0.423695
C	 0.0712271048	-0.9504431596	 2.4241933033	 0.478022
O	-1.1044778668	-1.035500519	 2.7095107863	-0.434279
H	 1.280292666	 1.8122016274	-0.1251835868	 0.135745
H	-0.3003805004	 1.9558175765	-0.9177925774	 0.118214
H	-0.1708044034	 2.140383929	 0.8423867121	 0.128653
H	-1.0702755274	-0.1354449517	 0.2979415312	 0.147198
H	 0.3207462225	-0.4472635806	-0.755407575	 0.118068
H	 4.169301041	-1.0687396815	 2.3361039214	 0.320674
H	 1.124110849	-1.7544919577	 4.1124374535	 0.285426
54.8166	84.866	193.2748	203.1712	292.726	317.3855	354.7604	409.5139	431.4229	450.2926	584.5156	632.2361	685.2554	690.5197	753.6234	794.4588	836.8355	970.2963	1040.6377	1064.3641	1102.237	1154.5147	1208.1985	1230.1334	1302.9186	1339.1382	1392.4663	1409.8041	1421.0967	1478.2197	1489.9677	1505.4755	1580.3031	1688.9876	1841.6136	3042.325	3044.4458	3106.5484	3117.6555	3131.1947	3692.3868	3789.6642
CCN1N=C(O)NC1=O	CCn1nc(O)[nH]c1=O	
InChI=1S/C4H7N3O2/c1-2-7-4(9)5-3(8)6-7/h2H2,1H3,(H2,5,6,8,9)	InChI=1S/C4H7N3O2/c1-2-7-4(9)5-3(8)6-7/h2H2,1H3,(H2,5,6,8,9)
