17
gdb 66956	2.8958	1.62775	1.22045	2.8499	76.26	-0.2553	0.0262	0.2814	1023.4372	0.136757	-380.822107	-380.814519	-380.813574	-380.85404	29.338	
C	-0.0136213807	 1.4981990571	 0.0870447052	-0.507225
C	-0.0457740421	 0.0048411213	 0.0632594043	 0.360849
C	 0.15891106	-1.0055582447	 1.1307002903	-0.096586
C	-0.4168706017	-2.074470344	 0.1278833573	-0.080138
C	 0.9928477952	-2.0822115264	-0.4780874398	-0.165874
N	 1.2555087208	-0.7448787889	 0.1485473637	-0.190823
C	-1.0773521052	-0.8951647265	-0.6586979851	-0.22997
C	-2.439336419	-0.6067648866	-0.2381598357	 0.270859
N	-3.5202431481	-0.3692550718	 0.0973725327	-0.330434
H	 0.7498486275	 1.8474206802	 0.7865603832	 0.141395
H	 0.2283328643	 1.8986746969	-0.9034731542	 0.130147
H	-0.9831686573	 1.9022093897	 0.3940841938	 0.144209
H	 0.2668522436	-0.9449915196	 2.2051177491	 0.111482
H	-0.99028822	-2.9709334487	 0.3506813566	 0.100638
H	 1.6570138434	-2.8156294351	-0.0150276172	 0.120669
H	 1.0949628667	-2.1231305268	-1.568869766	 0.104781
H	-1.0339989975	-0.9518706061	-1.7524701982	 0.116021
130.1454	139.0417	199.0067	254.5302	306.6766	393.4347	451.8984	498.7117	534.3964	642.051	745.6547	768.4499	813.805	840.272	913.8161	929.3662	941.6214	979.2228	993.4392	1025.5268	1048.1224	1072.8973	1093.1097	1149.2149	1161.9234	1170.83	1199.9366	1223.2101	1263.8234	1305.5762	1340.0457	1398.5848	1437.4432	1484.6117	1491.6939	1508.2334	2353.4465	3035.1366	3038.7675	3047.7734	3104.1246	3109.4755	3126.6578	3150.7283	3213.0557
CC12C3C(CN13)C2C#N	C[C@]12[C@H]3[C@H](CN13)[C@H]2C#N	
InChI=1S/C7H8N2/c1-7-5(2-8)4-3-9(7)6(4)7/h4-6H,3H2,1H3	InChI=1S/C7H8N2/c1-7-5(2-8)4-3-9(7)6(4)7/h4-6H,3H2,1H3/t4-,5-,6-,7+,9?/m1/s1
