17
gdb 75456	2.07598	1.64053	1.38512	4.4891	73.98	-0.2369	0.0001	0.2371	1035.558	0.138035	-414.214775	-414.206123	-414.205179	-414.247734	32.903	
N	-0.0001111245	 1.2879155979	 0.0731829531	-0.558819
C	-0.0610743437	-0.0674410991	-0.0150701745	 0.367326
N	-1.1163421748	-0.7803727467	-0.0872573462	-0.285531
C	-0.7321639097	-2.1944576009	-0.0618666637	-0.165153
C	 0.7778467401	-2.248297166	-0.3927196749	-0.27308
C	 1.2803587195	-0.8386690907	 0.0298412423	 0.039144
N	 2.2864214285	-0.1667322683	-0.8017320435	-0.564065
C	 1.7846452048	-0.8592168815	 1.413481133	 0.296393
N	 2.1843069745	-0.9113696818	 2.4966052636	-0.334888
H	 0.8701803587	 1.7098000737	-0.2133427324	 0.268941
H	-0.8476402802	 1.799382751	-0.1136322443	 0.263066
H	-0.9387109285	-2.6176082469	 0.9301581355	 0.119832
H	-1.3317553805	-2.7633348193	-0.7793661607	 0.109606
H	 1.3157090249	-3.0614833122	 0.0978711067	 0.121187
H	 0.9261296403	-2.3428723491	-1.4738795519	 0.105044
H	 3.2058613466	-0.5677645014	-0.6452857419	 0.250545
H	 2.057355064	-0.3107181487	-1.7815132804	 0.240451
86.3625	142.5056	197.9527	248.2149	252.2086	296.5929	351.4792	411.5433	470.8794	498.3963	514.4744	576.7611	631.1295	671.5235	703.4556	729.7089	823.4269	877.3511	929.9402	958.8234	988.7214	1048.3404	1083.5696	1151.6616	1169.1107	1198.5809	1238.7712	1309.1307	1329.7069	1332.274	1393.9053	1480.9565	1509.143	1609.582	1652.4888	1749.3603	2354.9147	3020.8021	3048.2591	3072.7432	3121.7256	3490.9953	3577.9099	3580.7657	3704.0448
NC1=NCCC1(N)C#N	N[C]1[N]CC[C@]1(N)C#N	
InChI=1S/C5H8N4/c6-3-5(8)1-2-9-4(5)7/h1-2,8H2,(H2,7,9)	InChI=1S/C5H8N4/c6-3-5(8)1-2-9-4(5)7/h1-2,8H2,(H2,7,9)/t5-/m0/s1
