14
gdb 26910	3.1595	1.42719	0.98529	6.5524	69.97	-0.2016	-0.0424	0.1592	1101.3218	0.101863	-470.06037	-470.052038	-470.051094	-470.093594	30.17	
N	-0.0119132334	 1.4619330544	 0.1946897825	-0.607768
C	-0.0343112028	 0.0512970747	 0.0666643311	 0.114242
C	-1.1894079419	-0.6902377795	 0.0513391503	 0.446384
O	-2.3935769804	-0.0860149112	 0.10446015	-0.418796
N	-1.1065398607	-2.0426261782	 0.0032150885	-0.441557
C	 0.1169903112	-2.7809239928	-0.078568753	 0.437382
O	 0.0548160294	-3.9895948838	-0.1425928299	-0.391532
N	 1.2609594904	-2.0168182573	-0.0680163123	-0.339005
C	 1.1567861649	-0.7137097962	 0.0170335157	 0.009836
H	 0.4933122912	 1.9056393233	-0.5643630319	 0.2493
H	-0.948424292	 1.8457242579	 0.2196402947	 0.252503
H	-3.1112353458	-0.728343729	 0.0803274193	 0.31102
H	-1.9353443581	-2.6219046399	 0.0143402508	 0.257193
H	 2.095877758	-0.1577026726	 0.0444168842	 0.120798
77.5227	108.7004	167.8539	200.371	289.1028	327.2592	366.0913	443.4829	475.6098	558.4687	565.5002	614.8711	703.2941	764.0251	791.7474	797.2682	831.7982	932.0239	1000.7804	1058.9341	1135.76	1181.0424	1278.5748	1323.0027	1371.1718	1440.3787	1480.3275	1584.1227	1653.9401	1720.0536	1811.6835	3113.6692	3518.6126	3592.7935	3611.8709	3820.9349
NC1=C(O)NC(=O)N=C1	Nc1c(O)[nH]c(=O)nc1	
InChI=1S/C4H5N3O2/c5-2-1-6-4(9)7-3(2)8/h1H,5H2,(H2,6,7,8,9)	InChI=1S/C4H5N3O2/c5-2-1-6-4(9)7-3(2)8/h1H,5H2,(H2,6,7,8,9)
