15
gdb 129824	4.701	1.00882	0.87982	3.7966	69.46	-0.2204	0.0044	0.2248	1268.4744	0.113022	-453.914985	-453.907162	-453.906218	-453.947753	29.102	
N	 0.0829405196	 1.1073478094	 0.7640909412	-0.595718
C	-0.0333942882	-0.1165342837	 0.1548523143	 0.494263
C	-0.6059265471	-1.3016213857	 0.5256384469	-0.456193
C	-0.4325666133	-2.1107281027	-0.6282848768	 0.426238
N	 0.1794104882	-1.4834108974	-1.606412193	-0.235407
O	 0.4448144962	-0.1960494174	-1.0946884527	-0.214709
C	-0.8477051031	-3.5160719108	-0.8213006665	-0.024757
C	-0.635641964	-4.5322728524	 0.2245244477	-0.177153
O	-1.9273230485	-3.9753410427	-0.0012601764	-0.229793
H	 0.8068792228	 1.6970849117	 0.3791573927	 0.268762
H	 0.0850537902	 1.0846895836	 1.7721447792	 0.267321
H	-1.1054592842	-1.5507849605	 1.4452167664	 0.120772
H	-0.8799985092	-3.8417684695	-1.8589989777	 0.114012
H	-0.5141162539	-5.5751393209	-0.064778714	 0.124069
H	-0.1553453756	-4.242421141	 1.1574932588	 0.118293
73.3677	141.094	153.9814	272.1441	288.6377	368.0236	446.1158	464.5156	561.304	624.4149	691.0323	729.1947	750.1495	763.6127	860.1403	903.5631	924.5445	988.936	1017.3105	1033.3978	1084.6283	1095.9737	1152.7496	1170.1337	1192.4598	1272.5239	1372.6977	1392.6135	1501.2106	1520.4797	1550.9877	1624.3537	1672.5346	3086.2505	3139.7438	3177.8775	3289.1207	3576.3255	3682.6705
NC1=CC(=NO1)C1CO1	Nc1cc(no1)[C@H]1CO1	
InChI=1S/C5H6N2O2/c6-5-1-3(7-9-5)4-2-8-4/h1,4H,2,6H2	InChI=1S/C5H6N2O2/c6-5-1-3(7-9-5)4-2-8-4/h1,4H,2,6H2/t4-/m1/s1
