19
gdb 98073	3.27431	0.94174	0.79538	2.0811	73.12	-0.253	-0.094	0.159	1481.8876	0.154943	-460.199383	-460.188697	-460.187753	-460.236242	37.11	
C	 0.0047484033	 1.4668416722	 0.1832684815	-0.385951
C	-0.1393261238	-0.0520367489	 0.2001529449	-0.275469
C	-1.5771252817	-0.5158476771	 0.2192903683	 0.301656
O	-2.5335943281	 0.224916589	 0.212985582	-0.284608
C	-1.8023617277	-2.0430717747	 0.2757728012	 0.262365
O	-0.8664646064	-2.7939829644	 0.4522505128	-0.312233
C	-3.2186934844	-2.5795299674	 0.1299764103	 0.070262
C	-3.7559491386	-2.3252394288	-1.2913699258	-0.412136
O	-3.2388452343	-3.9504326716	 0.4360410809	-0.439174
H	 1.0600068627	 1.7506025664	 0.1612764043	 0.118739
H	-0.4877756583	 1.8986243272	-0.6919559819	 0.133039
H	-0.4546914183	 1.914307995	 1.0684966951	 0.134031
H	 0.3441775166	-0.5191527301	-0.6688603889	 0.139288
H	 0.3661755076	-0.5070184941	 1.0614156026	 0.146248
H	-3.8529500808	-2.0302794877	 0.8406669929	 0.111861
H	-4.741577887	-2.789138575	-1.3733357045	 0.13925
H	-3.8473117438	-1.256148858	-1.4932135876	 0.139867
H	-3.1006731357	-2.7856827387	-2.037434613	 0.121325
H	-2.3125616814	-4.2225734532	 0.5195468948	 0.291639
36.3148	60.768	76.1467	143.7619	182.389	204.5072	238.1757	278.9104	317.0347	352.8328	371.2162	400.5524	471.3786	515.6418	662.4916	701.5566	771.6628	818.7982	879.5228	927.7181	1004.7862	1026.1875	1067.2754	1098.5234	1100.1479	1161.18	1206.9224	1261.5443	1288.0356	1337.1242	1377.1829	1390.6991	1417.3187	1428.2225	1436.1506	1493.7911	1494.6478	1496.6027	1498.0084	1783.447	1798.6606	3010.5043	3031.7358	3047.6492	3052.8771	3058.8968	3124.0431	3125.5553	3126.5428	3145.4349	3711.1925
CCC(=O)C(=O)C(C)O	CCC(=O)C(=O)[C@@H](C)O	
InChI=1S/C6H10O3/c1-3-5(8)6(9)4(2)7/h4,7H,3H2,1-2H3	InChI=1S/C6H10O3/c1-3-5(8)6(9)4(2)7/h4,7H,3H2,1-2H3/t4-/m1/s1
