19
gdb 124470	3.20408	1.17453	1.05231	1.4427	76.61	-0.2364	0.0214	0.2578	1207.1408	0.159491	-419.233197	-419.224179	-419.223235	-419.267	34.328	
C	-0.4519023076	 1.4245963216	-0.1213426689	-0.381999
C	 0.0233238525	-0.0248464661	 0.0473940638	 0.228412
C	 0.9242973221	-0.1570186185	 1.2850045741	-0.420659
O	-1.1789443582	-0.7838746567	 0.2405835814	-0.456609
C	 0.7309183141	-0.507756242	-1.1995153491	 0.190735
C	 0.1550732143	-1.197748721	-2.2497315424	-0.1406
N	 1.1377319602	-1.4122956514	-3.1575017058	-0.183368
N	 2.3278571748	-0.9112749962	-2.7803550258	-0.228182
C	 2.0838565383	-0.3618238786	-1.5935190562	-0.10668
H	 0.3967906023	 2.089643943	-0.3016694618	 0.115653
H	-1.1353992497	 1.4968474842	-0.9709068883	 0.121984
H	-0.9776182118	 1.7553409355	 0.7794242924	 0.11663
H	 0.3709549447	 0.1476417065	 2.1776572017	 0.12043
H	 1.2562904164	-1.1927392199	 1.4152074313	 0.109407
H	 1.8173453717	 0.4698683174	 1.2005777694	 0.118575
H	-0.9181159486	-1.7022079513	 0.373232644	 0.272677
H	-0.8570666848	-1.5346155812	-2.4028372095	 0.142965
H	 1.0695165325	-1.8947627276	-4.0373103979	 0.273661
H	 2.8895275868	 0.1205650322	-1.0594413423	 0.106967
42.2554	147.7197	188.129	229.8157	273.3479	324.6456	331.8271	356.4373	370.9058	468.1253	491.0082	522.518	608.1477	682.4514	708.8312	813.757	858.0497	887.3102	927.8558	952.4313	963.1096	996.4935	1015.1993	1057.1567	1116.2378	1160.3388	1182.7686	1200.6743	1256.0856	1322.8372	1361.8034	1380.3632	1394.5597	1409.854	1414.2178	1476.8132	1481.5076	1490.4802	1497.325	1506.8201	1601.1361	3033.103	3044.3595	3102.9518	3115.9355	3122.3527	3128.8691	3242.792	3273.2867	3675.69	3797.8073
CC(C)(O)C1=CNN=C1	CC(C)(O)c1c[nH]nc1	
InChI=1S/C6H10N2O/c1-6(2,9)5-3-7-8-4-5/h3-4,9H,1-2H3,(H,7,8)	InChI=1S/C6H10N2O/c1-6(2,9)5-3-7-8-4-5/h3-4,9H,1-2H3,(H,7,8)
