20
gdb 61981	3.62655	0.69008	0.6044	5.9284	80.48	-0.2564	-0.0213	0.2351	1822.7616	0.167905	-403.195407	-403.184614	-403.18367	-403.233178	37.08	
C	-0.1062739791	 1.62899299	-0.0124936249	-0.390724
C	-0.0333329953	 0.0891001012	 0.0254348473	-0.152143
C	 0.7267991531	-0.4691707864	 1.2516845266	-0.172037
C	 2.2093604038	-0.0977227308	 1.265225526	-0.322504
C	 2.9801462948	-0.7637473205	 2.4037350696	 0.378514
C	 4.448568664	-0.3970194289	 2.5207909617	-0.474039
O	 2.4484169034	-1.5368752399	 3.165646975	-0.282643
C	-1.3881785105	-0.4741536764	-0.0148063936	 0.267599
N	-2.4578053687	-0.9113763298	-0.0394961481	-0.321132
H	 0.8960187944	 2.0576927203	-0.0873290788	 0.124685
H	-0.6862492295	 1.9699232658	-0.8733457788	 0.140805
H	-0.5824101001	 2.0144762666	 0.8937255721	 0.13884
H	 0.4756043646	-0.2572436043	-0.8845461725	 0.123956
H	 0.2462136403	-0.112847486	 2.168618496	 0.128368
H	 0.6342776819	-1.5582068075	 1.2698397144	 0.137898
H	 2.6952370744	-0.3855356387	 0.3211216879	 0.12283
H	 2.3606453317	 0.9863298581	 1.3461677535	 0.124645
H	 4.9734075619	-0.5949439272	 1.5796450162	 0.138229
H	 4.5557096505	 0.6746942179	 2.7242551168	 0.141064
H	 4.9089951144	-0.9678851837	 3.3277072037	 0.14779
21.9631	68.5564	92.3304	98.422	126.1661	189.9632	214.6642	253.7747	289.5911	362.5821	411.3522	480.5906	543.3588	567.2232	611.4457	742.0718	794.4278	854.2768	904.0799	916.5224	956.4782	1003.6951	1056.6368	1090.4936	1119.3208	1147.2469	1178.8556	1217.0196	1284.7934	1309.9076	1341.1228	1350.9851	1384.8367	1395.3669	1414.7164	1453.3337	1466.2512	1477.8504	1486.4987	1496.1433	1503.547	1815.5053	2357.1554	3011.6144	3018.7202	3037.4462	3048.733	3053.574	3063.658	3097.4418	3108.6927	3126.143	3130.0635	3154.5166
CC(CCC(C)=O)C#N	C[C@@H](CCC(=O)C)C#N	
InChI=1S/C7H11NO/c1-6(5-8)3-4-7(2)9/h6H,3-4H2,1-2H3	InChI=1S/C7H11NO/c1-6(5-8)3-4-7(2)9/h6H,3-4H2,1-2H3/t6-/m0/s1
