19
gdb 38399	4.0659	1.31056	1.28949	1.4038	78.74	-0.2308	0.0794	0.3103	1058.4216	0.159786	-385.815015	-385.807832	-385.806888	-385.846441	29.592	
C	 0.0361266228	 1.431285248	 0.0997973453	-0.287307
C	 1.334192927	 0.6999963493	-0.0736835994	-0.041842
C	 1.7827568272	 0.1192542604	 1.2743790885	-0.310911
C	 0.4409038574	-0.6661722088	 1.3543670565	 0.461975
O	 0.5872760791	-2.117128835	 1.3379605507	-0.335613
C	-0.388031444	-2.236314983	 2.3768416436	 0.095034
C	 0.0958358168	-1.5881717782	 3.634119807	-0.304505
C	-0.5219121139	-0.7434815511	 2.5340232842	-0.203692
C	 0.0164873459	-0.0741863286	 0.014237591	-0.117594
H	-0.1893507429	 1.935850959	 1.0374793363	 0.106197
H	-0.3429463789	 1.9433877766	-0.7788007902	 0.113837
H	 1.9711435452	 0.853071687	-0.9355055114	 0.088
H	 2.608633036	-0.5894052214	 1.1861131764	 0.121259
H	 1.9987870932	 0.8343935472	 2.0753715078	 0.093895
H	-1.1117430286	-3.0394465005	 2.3067519074	 0.102298
H	-0.5348154351	-1.7206063502	 4.5082234118	 0.112216
H	 1.1627381827	-1.5445504239	 3.8347101793	 0.115821
H	-1.3929213747	-0.1184799495	 2.676602602	 0.098492
H	-0.531507235	-0.6129730375	-0.748475667	 0.092442
124.9728	147.3133	224.4094	370.7085	411.9773	454.9835	489.7777	512.7262	746.8493	757.9593	786.7614	801.8087	824.6818	884.3266	890.5599	933.8443	946.3148	956.6212	970.7952	977.4781	1004.917	1034.0652	1042.4684	1054.6262	1065.0722	1083.872	1086.1415	1121.9585	1125.9035	1132.8993	1171.5023	1200.7209	1233.2333	1245.5058	1292.3551	1325.4252	1345.1737	1363.945	1470.0356	1473.416	1492.5113	3044.4051	3101.4473	3114.7212	3119.0177	3183.2045	3187.3097	3190.9656	3201.5985	3203.8518	3210.9551
C1C2CC3(OC4CC34)C12	C1[C@H]2C[C@]3(O[C@H]4C[C@@H]34)[C@@H]12	
InChI=1S/C8H10O/c1-4-3-8(5(1)4)6-2-7(6)9-8/h4-7H,1-3H2	InChI=1S/C8H10O/c1-4-3-8(5(1)4)6-2-7(6)9-8/h4-7H,1-3H2/t4-,5-,6+,7-,8-/m0/s1
