22
gdb 115674	2.23512	1.20805	0.96985	3.3693	82.48	-0.2411	0.0291	0.2702	1347.2305	0.193689	-404.382652	-404.372283	-404.371339	-404.419002	37.213	
C	 0.2938628693	 1.4016492268	 0.5948091924	-0.392444
C	 0.1786273887	-0.0606349129	 0.1538872006	-0.175697
C	-1.2228801072	-0.6315342606	 0.372709568	 0.014955
C	-2.3087460497	-0.1259538224	-0.625301388	-0.228812
C	-2.2403380813	-1.4839559565	-1.3699969918	-0.228858
C	-1.4683820109	-2.093434159	-0.1757311248	-0.110312
C	-0.2422709118	-2.9225717294	-0.5150716177	 0.403991
N	 0.1711873787	-3.7728872031	 0.4717308864	-0.527428
O	 0.3529499423	-2.826246632	-1.5733879529	-0.36889
H	 1.3028230254	 1.7878348694	 0.4205467971	 0.11358
H	-0.4046973715	 2.0427537569	 0.0466181369	 0.117967
H	 0.0737257273	 1.5128952348	 1.6628114167	 0.109135
H	 0.4562598704	-0.1609225988	-0.9013362099	 0.120339
H	 0.9034741427	-0.6666524529	 0.7129926036	 0.092552
H	-1.4926108175	-0.5187624788	 1.4284896597	 0.060541
H	-3.2741923899	 0.0464144979	-0.1419939507	 0.095799
H	-2.0547790149	 0.7646623685	-1.2064192034	 0.098961
H	-3.1867940414	-1.9596185343	-1.6360749985	 0.094409
H	-1.5963752446	-1.4552296589	-2.251072554	 0.131752
H	-2.1236930202	-2.6471321043	 0.5041571879	 0.064674
H	-0.2939439361	-3.8321535099	 1.3599334363	 0.255861
H	 1.0208341119	-4.2944837008	 0.3309752862	 0.257924
45.8437	75.0109	90.3593	115.1157	127.1904	217.362	231.4711	274.0326	361.916	415.1502	420.7406	573.5899	615.5152	654.6873	757.0703	765.5905	793.2362	811.2543	880.4705	937.9966	945.6801	981.312	987.8392	1022.2623	1064.6502	1070.7206	1097.8954	1139.4803	1156.8141	1226.75	1235.3679	1255.797	1264.4578	1272.3705	1292.4966	1305.6957	1345.2867	1389.242	1405.4766	1411.8321	1482.6607	1486.1364	1499.2376	1501.3956	1507.8008	1614.3901	1784.4785	3023.229	3029.3238	3031.3934	3050.845	3056.4126	3068.7007	3072.4137	3096.0073	3100.8121	3103.6229	3132.6543	3602.1171	3741.0653
CCC1CCC1C(N)=O	CC[C@H]1CC[C@H]1C(=O)N	
InChI=1S/C7H13NO/c1-2-5-3-4-6(5)7(8)9/h5-6H,2-4H2,1H3,(H2,8,9)	InChI=1S/C7H13NO/c1-2-5-3-4-6(5)7(8)9/h5-6H,2-4H2,1H3,(H2,8,9)/t5-,6+/m0/s1
