19
gdb 43215	2.77469	1.78962	1.5838	3.1324	77.86	-0.2308	-0.0086	0.2222	933.6023	0.162671	-385.893789	-385.887129	-385.886185	-385.924568	27.989	
O	 0.0535687931	 0.0313397662	 0.1997784519	-0.331413
C	 0.0325595339	 1.2279691083	 0.1293038266	 0.435028
C	-1.087411438	 2.2741313846	-0.0452462866	-0.155188
C	-1.401336953	 2.8839955252	 1.334383937	-0.22179
C	-0.063895965	 3.1688823629	 2.0601850835	-0.222649
C	 1.0168371687	 3.4660336349	 1.0117533963	-0.022064
C	 0.4477032361	 4.414034151	-0.0818745007	-0.242482
C	-0.0196695891	 3.1491917448	-0.8195061812	-0.027711
C	 1.0833612308	 2.3019391545	-0.0723644415	-0.163306
H	-1.9815649119	 1.9662718503	-0.5898272768	 0.0839
H	-1.9754507891	 3.8064034488	 1.196662069	 0.107958
H	-2.0284708043	 2.2035947203	 1.917771938	 0.113234
H	-0.168377947	 4.0144732052	 2.7486768455	 0.099253
H	 0.236493453	 2.3018570596	 2.6596255792	 0.114641
H	 1.9726569698	 3.7327635813	 1.4659738774	 0.073612
H	-0.2901352692	 5.1632963446	 0.222997275	 0.09458
H	 1.2426341354	 4.9130971431	-0.6428907349	 0.103903
H	-0.1263684207	 3.1340922087	-1.9039001231	 0.078123
H	 2.0703934364	 2.0643735257	-0.4685525846	 0.082372
127.0213	261.6216	300.1349	370.6804	465.2163	485.9346	528.0047	592.4625	734.8128	762.7609	781.9011	808.9664	825.1282	855.8103	869.6576	916.5891	952.9207	973.9769	1016.8986	1035.7052	1052.2775	1056.11	1087.233	1093.9238	1104.9129	1138.8113	1187.4899	1208.3069	1218.755	1236.2858	1262.9137	1280.5365	1289.4673	1308.518	1323.5792	1354.8851	1369.4721	1482.2058	1491.0652	1508.3173	1875.9614	3034.3071	3040.9347	3047.1985	3072.6138	3088.2769	3091.9715	3098.0566	3099.2524	3112.2248	3122.3961
O=C1C2CCC3CC2C13	O=C1[C@H]2CC[C@@H]3C[C@H]2[C@H]13	
InChI=1S/C8H10O/c9-8-5-2-1-4-3-6(5)7(4)8/h4-7H,1-3H2	InChI=1S/C8H10O/c9-8-5-2-1-4-3-6(5)7(4)8/h4-7H,1-3H2/t4-,5+,6-,7-/m1/s1
