23
gdb 68189	2.92773	1.35204	1.29858	1.5525	84.89	-0.2385	0.0867	0.3252	1152.7354	0.205095	-388.291157	-388.282151	-388.281207	-388.323799	36.473	
C	 0.0137326159	 1.516327685	 0.1269628269	-0.495072
C	 0.0100823287	 0.0217217967	-0.0257759691	 0.422977
C	 0.9155726261	-0.7552036347	-1.0135321924	-0.282788
C	 0.7069638215	-1.8055368757	 0.0943725102	 0.047039
O	 0.6763318166	-0.7128272779	 1.0639727716	-0.332892
C	-0.795306313	-2.2042741556	 0.0098038906	 0.347101
C	-1.1290787048	-3.1055084333	-1.183504263	-0.457005
C	-1.2470987005	-2.8711828232	 1.3147415757	-0.445718
C	-1.3378400879	-0.7351021091	-0.1209354336	-0.31044
H	 1.0342762498	 1.8963009742	 0.2264222396	 0.125482
H	-0.450782861	 1.9891820267	-0.7447299133	 0.120473
H	-0.5531492178	 1.8127038233	 1.0157934568	 0.127383
H	 0.5644247656	-0.9477684979	-2.0296729824	 0.091707
H	 1.9346108511	-0.3654673297	-1.0133250685	 0.104208
H	 1.4332983643	-2.5858540899	 0.3280645332	 0.069383
H	-0.6167309337	-4.0713583869	-1.0999512824	 0.111393
H	-2.2045507355	-3.3105060168	-1.2233776838	 0.116
H	-0.8443240593	-2.6591955577	-2.140496276	 0.110173
H	-0.953020106	-2.2656133046	 2.1748814124	 0.131277
H	-2.3358111994	-2.9936765321	 1.3336964368	 0.106645
H	-0.800816757	-3.8669878252	 1.4237624867	 0.103238
H	-2.00528913	-0.4601854165	 0.7002574717	 0.098366
H	-1.8578675036	-0.5498685888	-1.0660110975	 0.091069
152.4811	194.3111	202.1253	234.3715	248.4822	271.3082	340.261	346.2412	400.186	437.3932	480.0051	547.8326	577.2267	663.577	772.2538	808.1547	818.7974	879.8653	891.2451	927.3645	931.9483	956.09	971.0284	985.2947	1010.6862	1041.1732	1049.7195	1076.0054	1155.5064	1190.1453	1205.3988	1216.9147	1233.7348	1246.1853	1258.9119	1291.4729	1312.1929	1350.688	1394.1405	1414.0798	1420.2957	1477.9291	1481.0873	1485.4954	1489.889	1492.9113	1498.1612	1506.5251	1514.4439	3022.8818	3028.6449	3035.9178	3050.1014	3069.9727	3082.2688	3088.3399	3098.9494	3105.0495	3106.6565	3107.2428	3115.5311	3125.1563	3138.0917
CC12CC(O1)C(C)(C)C2	C[C@@]12C[C@@H](O1)C(C)(C)C2	
InChI=1S/C8H14O/c1-7(2)5-8(3)4-6(7)9-8/h6H,4-5H2,1-3H3	InChI=1S/C8H14O/c1-7(2)5-8(3)4-6(7)9-8/h6H,4-5H2,1-3H3/t6-,8+/m1/s1
