19
gdb 22999	3.17007	1.00602	0.93936	1.6707	76.24	-0.2372	0.0054	0.2426	1320.843	0.15826	-456.273645	-456.264165	-456.263221	-456.308194	35.12	
C	 1.2180222369	 0.4670687819	 0.5695167324	-0.508469
C	-0.0858766455	-0.2072902763	 0.2521364939	 0.392572
N	-1.146154974	-0.127377444	 0.9658828029	-0.179405
O	-0.9472948408	 0.6294094071	 2.1289866419	-0.395145
C	-0.2269371786	-1.0625971091	-0.9763442902	-0.096686
N	 0.4242785629	-0.5679804831	-2.2160402497	-0.325994
C	 0.7903809829	-1.948612473	-2.6105703436	-0.209919
C	 0.624191668	-2.3765150069	-1.12984275	 0.138024
O	 1.8125216717	-2.4575118617	-0.3832992178	-0.429341
H	 1.8146331754	-0.1561123372	 1.2453435169	 0.147722
H	 1.7813657049	 0.6336232102	-0.3514715375	 0.132559
H	 1.0433976855	 1.4205149828	 1.0713233018	 0.144049
H	-1.826508548	 0.62892063	 2.5218507805	 0.305545
H	-1.290604923	-1.3076481764	-1.0943497287	 0.075752
H	-0.1779395014	-0.0618853893	-2.8565536334	 0.221664
H	 0.068695526	-2.4473583435	-3.2724717195	 0.096449
H	 1.7946250711	-2.0556695658	-3.0361974897	 0.101768
H	 0.0830744675	-3.3034285704	-0.9371999311	 0.098319
H	 2.3627944986	-1.7005941955	-0.6122753091	 0.290538
56.7888	97.8265	154.2692	160.2517	235.1305	287.4036	323.0329	370.4743	391.7902	397.7986	443.5695	478.3073	569.1279	694.2398	708.8858	787.9799	845.6744	894.1885	949.3341	981.5581	994.7443	1023.116	1035.2523	1057.6832	1071.6291	1131.3707	1149.33	1208.4448	1243.5122	1281.379	1294.8084	1329.9785	1347.1097	1372.3101	1391.7981	1414.3977	1440.897	1482.0162	1497.4242	1513.1913	1719.7337	3001.2074	3017.976	3042.0821	3059.222	3110.0554	3113.1777	3141.9162	3524.9512	3810.3859	3819.5518
CC(=NO)C1NCC1O	CC(=NO)[C@H]1NC[C@H]1O	
InChI=1S/C5H10N2O2/c1-3(7-9)5-4(8)2-6-5/h4-6,8-9H,2H2,1H3	InChI=1S/C5H10N2O2/c1-3(7-9)5-4(8)2-6-5/h4-6,8-9H,2H2,1H3/t4-,5-/m1/s1
