16
gdb 55809	4.4279	1.04698	0.9693	3.7479	65.28	-0.2453	0.048	0.2933	1208.4116	0.123917	-474.988899	-474.980886	-474.979942	-475.02262	29.782	
N	-0.1656748247	 1.3093008758	 0.011090552	-0.565734
C	-0.0662609651	-0.0344609016	 0.2227510242	 0.495374
O	 0.7721107354	-0.5835068745	 0.8958925279	-0.391985
O	-1.0875420343	-0.6772926978	-0.4127034116	-0.279796
C	-1.0662135995	-2.0906635237	-0.2896136161	 0.17345
C	-1.5746240159	-2.781885335	 0.9991232976	 0.027756
C	-3.0106649384	-2.2848578814	 0.7017387858	-0.228998
C	-2.3861381929	-2.8212086671	-0.6097708291	-0.003062
O	-1.8383855603	-3.9684363962	 0.1488130113	-0.309228
H	 0.6288270538	 1.8642900031	 0.277942693	 0.271795
H	-0.7571696694	 1.6470582761	-0.7285763304	 0.266932
H	-0.1626096479	-2.5245709249	-0.7164547627	 0.111667
H	-1.0595009865	-2.9378974538	 1.9444382056	 0.110438
H	-3.8042285798	-2.9066769168	 1.1165642075	 0.111473
H	-3.2116675446	-1.2152403572	 0.7745561036	 0.111205
H	-2.8470632399	-3.0265182151	-1.5755818987	 0.098713
34.1813	85.9565	146.8778	301.7023	323.9279	361.8492	393.8379	515.7397	559.176	595.8678	700.0735	743.8745	783.4876	828.0681	877.0627	909.5632	922.3821	946.3001	962.9175	1015.1211	1063.9591	1087.647	1106.528	1121.3337	1168.9148	1176.013	1199.519	1223.8868	1259.368	1292.094	1333.3499	1397.245	1481.882	1611.7621	1839.7531	3083.6311	3124.1237	3133.7546	3152.931	3163.0264	3617.2644	3747.5186
NC(=O)OC1C2CC1O2	NC(=O)O[C@H]1[C@H]2C[C@@H]1O2	
InChI=1S/C5H7NO3/c6-5(7)9-4-2-1-3(4)8-2/h2-4H,1H2,(H2,6,7)	InChI=1S/C5H7NO3/c6-5(7)9-4-2-1-3(4)8-2/h2-4H,1H2,(H2,6,7)/t2-,3+,4+
