13
gdb 7233	4.70725	1.32956	1.08803	1.3441	57.29	-0.257	-0.0817	0.1753	1040.9589	0.091968	-435.76955	-435.760889	-435.759944	-435.804248	28.259	
C	 0.7507017549	 1.114210555	 0.1907793502	-0.474072
C	 0.027977307	-0.2015806244	 0.0584029457	 0.283421
O	-0.6659199526	-0.6980262745	 0.906114229	-0.257813
C	 0.2540260879	-0.9104828506	-1.3007380743	 0.371509
O	 0.9424923111	-0.4622603474	-2.1689865334	-0.295651
O	-0.4767314125	-2.0599053759	-1.358564481	-0.207554
C	-0.2606111658	-3.0132506867	-2.3277787231	 0.122325
N	 0.8863710154	-3.3321356745	-2.7216916491	-0.384907
H	 0.4450509531	 1.7943531083	-0.6106013572	 0.159243
H	 0.5366295485	 1.5513339607	 1.1659208735	 0.145867
H	 1.8279700533	 0.9627400172	 0.067649759	 0.16292
H	-1.2226781312	-3.4447478866	-2.6140876888	 0.127691
H	 0.8290464309	-4.0836421507	-3.4076229204	 0.247023
43.2642	59.8183	114.5861	119.8889	164.9923	265.9643	344.6296	402.8842	506.7501	560.3025	656.8926	706.9903	786.9231	893.9059	936.7046	1013.4122	1038.0432	1052.0287	1116.9585	1255.0615	1275.8013	1386.074	1406.9768	1452.7264	1460.4496	1723.2682	1833.2806	1851.408	3049.7904	3104.9797	3111.2917	3164.7078	3508.55
CC(=O)C(=O)OC=N	CC(=O)C(=O)O[CH][NH]	
InChI=1S/C4H5NO3/c1-3(6)4(7)8-2-5/h2,5H,1H3	InChI=1S/C4H5NO3/c1-3(6)4(7)8-2-5/h2,5H,1H3
