21
gdb 112737	2.43986	1.20339	0.92146	2.2021	78.77	-0.2559	0.0724	0.3283	1334.052	0.180971	-424.191247	-424.181668	-424.180724	-424.225812	35.611	
C	 0.0242445795	 1.6064945235	-0.079786623	-0.417217
C	 0.0804474005	 0.0928032156	 0.0537809728	-0.050692
C	 1.0313943148	-0.728013722	-0.8728443178	-0.250756
C	 1.424285957	-1.6251699654	 0.3389764612	-0.049714
C	 2.8763249103	-2.0131813653	 0.5225587917	-0.105582
O	 3.2156303643	-2.9222561473	-0.5148147373	-0.4212
C	 0.8168467165	-0.5441973857	 1.2397162868	 0.420989
C	 1.3999379628	 0.1106763963	 2.4153036899	-0.267356
O	 0.2647899326	-0.7602141779	 2.524567114	-0.277758
H	 1.0276396427	 2.0448288079	-0.042315625	 0.110946
H	-0.4325979828	 1.8997249165	-1.0310171711	 0.118202
H	-0.5707442757	 2.0539655475	 0.7240584724	 0.122006
H	-0.9320098605	-0.3262534138	 0.0108826321	 0.086205
H	 0.5831428414	-1.2259733934	-1.7332013624	 0.10742
H	 1.8792753108	-0.1264966016	-1.2160836284	 0.09898
H	 0.8047029308	-2.5280267335	 0.3697794489	 0.093304
H	 3.5076598541	-1.109945528	 0.4839706081	 0.07942
H	 3.0148229927	-2.4705612461	 1.5161785543	 0.091302
H	 4.1376351033	-3.173172267	-0.4064347954	 0.286734
H	 2.3216699627	-0.2688567778	 2.8551304796	 0.111106
H	 1.1999453223	 1.1643251375	 2.6059430286	 0.113658
63.8086	101.0168	149.2199	211.2769	218.7369	246.2638	268.9108	300.8719	335.2176	431.6228	475.4082	524.3302	546.9881	724.9912	820.0709	852.243	880.2495	891.3699	925.5095	959.566	983.1898	1047.46	1069.2388	1108.8704	1121.8472	1131.2576	1156.9826	1158.9406	1164.7861	1174.0564	1226.7077	1249.0729	1268.101	1276.7219	1288.4872	1356.7249	1382.3185	1407.5578	1423.4841	1462.1153	1491.6661	1495.3455	1498.7678	1521.6331	1537.2622	2955.9673	2984.4454	3026.3466	3037.1372	3054.3114	3060.7729	3079.389	3094.7209	3096.3519	3126.7462	3163.0486	3827.7271
CC1CC(CO)C11CO1	C[C@H]1C[C@@H](CO)[C@]21CO2	
InChI=1S/C7H12O2/c1-5-2-6(3-8)7(5)4-9-7/h5-6,8H,2-4H2,1H3	InChI=1S/C7H12O2/c1-5-2-6(3-8)7(5)4-9-7/h5-6,8H,2-4H2,1H3/t5-,6-,7+/m0/s1
