15
gdb 128751	6.71837	0.72283	0.6712	5.2695	74.16	-0.2312	-0.0211	0.2101	1603.2258	0.112	-453.922794	-453.914391	-453.913447	-453.957296	28.806	
C	-0.3201994127	 1.296996352	 0.0189772273	-0.251199
O	 0.6673234689	 0.2690269556	 0.0623066196	-0.184003
C	 0.7301207803	-0.5306327528	-1.0076678722	 0.111414
N	 1.4784787516	-1.5512809085	-0.9958167754	-0.314864
C	 1.5998565317	-2.3036551648	-2.1589693621	 0.152214
C	 1.7408988226	-1.9360604916	-3.4678404679	 0.009658
O	 1.8821248862	-3.021502741	-4.2468544679	-0.165617
N	 1.8363874654	-4.1616357314	-3.4505899457	-0.128931
C	 1.6840503537	-3.7279359096	-2.2265318952	-0.025995
H	-0.2424031955	 1.8867102203	-0.9018121094	 0.132144
H	-1.3294264673	 0.8781285317	 0.1004874849	 0.137951
H	-0.1271823723	 1.94226583	 0.8760295848	 0.154308
H	 0.1027006337	-0.2271007475	-1.8586410266	 0.091331
H	 1.8053795676	-0.9814377432	-3.9653706785	 0.142848
H	 1.626448576	-4.4320567591	-1.4089214657	 0.138742
47.0551	78.7303	106.1031	156.0732	201.4918	310.4385	396.2909	425.4397	514.6324	615.648	686.0809	787.2417	809.424	897.9026	912.5066	928.791	995.6503	1027.775	1066.3293	1143.3566	1162.307	1176.6148	1203.8573	1276.5139	1304.9545	1367.0923	1416.5944	1474.8085	1492.604	1496.04	1500.7007	1633.645	1750.6088	3010.0018	3025.4058	3090.301	3153.1477	3251.1265	3268.8425
COC=NC1=CON=C1	COC=Nc1conc1	
InChI=1S/C5H6N2O2/c1-8-4-6-5-2-7-9-3-5/h2-4H,1H3	InChI=1S/C5H6N2O2/c1-8-4-6-5-2-7-9-3-5/h2-4H,1H3
