12
gdb 5058	3.73832	2.21962	1.43709	2.0977	68.47	-0.2527	-0.0951	0.1577	792.8843	0.08512	-377.530447	-377.524196	-377.523252	-377.561162	22.788	
O	-0.0072505148	 0.0549378615	-0.6428651155	-0.31848
C	-0.0171270103	 1.1947172759	-0.2138358894	 0.293171
C	-1.2953357139	 1.858519455	 0.1583377687	-0.052578
N	-1.5960159284	 3.1086327276	 0.2184372533	-0.211443
C	-0.7377876301	 4.1453029998	-0.0196591612	 0.005401
C	 0.627609908	 4.1639507635	-0.037720016	 0.0054
N	 1.5198184737	 3.1511745534	 0.1771776539	-0.211443
C	 1.2518997445	 1.8932965622	 0.1245806223	-0.05258
H	-2.086239858	 1.1440910594	 0.3975679745	 0.143859
H	-1.2381751224	 5.1043499133	-0.1327820532	 0.127417
H	 1.0984603764	 5.1362625082	-0.1636762995	 0.127418
H	 2.0680775853	 1.2008117304	 0.3424949121	 0.143859
78.4882	217.1588	305.4177	397.466	414.6308	478.5905	596.1464	641.8838	678.8685	853.2538	863.3447	900.5118	949.6913	951.2932	983.2318	995.2061	1140.9908	1261.3206	1301.3811	1379.3989	1405.7572	1470.6115	1523.3477	1637.2695	1655.8146	1741.1608	3111.5624	3113.4463	3147.9641	3168.0095
O=C1C=NC=CN=C1	O=c1cnccnc1	
InChI=1S/C5H4N2O/c8-5-3-6-1-2-7-4-5/h1-4H	InChI=1S/C5H4N2O/c8-5-3-6-1-2-7-4-5/h1-4H
