19
gdb 31610	3.04976	1.18437	0.90807	2.4448	80.22	-0.2108	0.0201	0.231	1313.9883	0.159648	-419.250684	-419.241164	-419.24022	-419.28522	34.129	
C	 0.2929724728	 1.4363784918	 0.1001851115	-0.357338
N	 0.1707754499	-0.0099548138	 0.0438950745	-0.015737
C	 0.2402018174	-0.7939009429	-1.0875941279	-0.210242
C	 0.0385806721	-2.0877756836	-0.6763275389	 0.268647
C	 0.0208699554	-3.3367066596	-1.4968363831	-0.488166
N	-0.1517362062	-2.112159404	 0.6868632438	-0.352666
C	-0.0754815601	-0.8577248647	 1.0892244491	 0.279524
C	-0.2200161389	-0.4079561541	 2.5082210304	-0.186805
O	 0.9400095543	 0.2581480321	 3.0126624039	-0.412523
H	 0.9947801811	 1.7728471331	-0.6665316548	 0.139313
H	-0.6715876245	 1.9275585585	-0.0709938589	 0.136897
H	 0.67766153	 1.7209550076	 1.0800734411	 0.172067
H	 0.4344169489	-0.3643160164	-2.0575115722	 0.119315
H	 0.1956974563	-3.1164157686	-2.5536121322	 0.114142
H	 0.791107004	-4.0406520764	-1.1631798917	 0.129918
H	-0.9422091285	-3.8516824807	-1.4108334684	 0.131429
H	-1.0320728351	 0.319289579	 2.6192735546	 0.11671
H	-0.477566484	-1.2928134837	 3.1021418019	 0.127681
H	 1.6781241352	-0.3551016634	 2.9260263974	 0.287832
79.1571	105.8238	135.8121	156.1625	176.3185	250.4959	266.4736	290.7755	382.374	408.3158	476.8449	602.7391	639.9252	678.1226	738.1535	764.4074	799.5717	964.3641	1000.3056	1024.0544	1046.5949	1064.0552	1081.3913	1153.881	1189.9634	1191.5287	1238.761	1324.3092	1355.4108	1387.8758	1415.0196	1416.829	1441.2378	1476.5161	1481.9892	1494.1538	1497.8761	1506.6796	1517.86	1546.8282	1604.3013	3032.4897	3033.7497	3036.1025	3077.2961	3085.9759	3107.4117	3113.4466	3152.9527	3258.4616	3806.1737
CN1C=C(C)N=C1CO	Cn1cc(C)nc1CO	
InChI=1S/C6H10N2O/c1-5-3-8(2)6(4-9)7-5/h3,9H,4H2,1-2H3	InChI=1S/C6H10N2O/c1-5-3-8(2)6(4-9)7-5/h3,9H,4H2,1-2H3
