17
gdb 67495	2.44922	1.62686	1.21966	0.8471	78.74	-0.2149	0.0399	0.2548	1052.4163	0.134015	-384.569578	-384.561516	-384.560572	-384.60164	32.435	
O	-0.0616364299	 1.3509890443	 0.0258439003	-0.450053
C	 0.0278067469	-0.0240075466	-0.0490467428	 0.357221
C	 0.6145222123	-0.7156908197	-1.3170845032	-0.133765
C	 0.871573481	-2.1901643871	-1.1764797014	-0.316317
C	-0.5462953153	-1.7000656977	-1.2884513507	-0.050932
C	-1.1138093337	-1.0001138563	-0.0229933575	-0.147658
C	-0.174705351	-0.8932372155	 1.1865565502	-0.281414
C	 0.6665930787	-1.8772704827	 1.8107815853	 0.29411
C	 1.3471575875	-2.6515203222	 2.4333838949	-0.424015
H	 0.7919513799	 1.6934012266	 0.317695475	 0.28878
H	 0.9648578544	-0.123222723	-2.1522782258	 0.09528
H	 1.2437990206	-2.654534471	-2.0861962392	 0.110912
H	 1.2635697611	-2.6241180852	-0.2679804207	 0.144103
H	-1.192655074	-1.9844953009	-2.1082454867	 0.094323
H	-2.1704873214	-0.8061341091	 0.1097891303	 0.102948
H	-0.6707721019	-0.2692758604	 1.9307777165	 0.124841
H	 1.9550172248	-3.3506773533	 2.9520695254	 0.191638
119.2253	169.5851	224.6405	284.7307	332.8498	375.5765	383.3054	423.4558	540.5209	587.9096	606.3143	635.9931	659.7419	702.1456	757.4278	765.9121	851.8724	873.3016	911.5592	936.2913	973.8158	989.3325	1025.6637	1058.0055	1069.4652	1088.3451	1094.0478	1176.3771	1198.4327	1224.1889	1281.5699	1298.6957	1331.0353	1343.6026	1468.827	1493.0527	2221.2781	3106.9544	3132.9785	3189.4134	3196.6117	3203.4953	3242.5366	3501.6139	3774.2342
OC12C3CC3C1C2C#C	O[C@]12[C@H]3C[C@H]3[C@H]1[C@H]2C#C	
InChI=1S/C8H8O/c1-2-5-7-4-3-6(4)8(5,7)9/h1,4-7,9H,3H2	InChI=1S/C8H8O/c1-2-5-7-4-3-6(4)8(5,7)9/h1,4-7,9H,3H2/t4-,5-,6+,7+,8-/m1/s1
