21
gdb 112860	1.84907	1.56484	0.95465	2.7465	81.59	-0.2311	0.0158	0.247	1302.4306	0.181268	-424.240604	-424.230881	-424.229937	-424.275373	35.954	
C	 0.2822905997	 1.4406346356	-0.3251347462	-0.39056
C	 0.024655755	-0.0383811103	-0.0367722905	 0.094597
O	 0.5640627311	-0.850625226	-1.0923337254	-0.305533
C	 1.4740945344	-1.8254743869	-0.5685348894	 0.004429
C	 2.8179201001	-1.6447814085	-1.284396621	-0.056175
O	 2.6495987692	-1.693931419	-2.6850810744	-0.423482
C	 1.5032966514	-1.579873409	 0.9207666451	 0.305565
C	 2.3393281352	-2.3997537459	 1.8505089349	-0.499134
C	 0.6860938717	-0.5690975069	 1.2054588501	-0.219607
H	 1.356465696	 1.6462726726	-0.3491901233	 0.118977
H	-0.1495854251	 1.71810349	-1.2910984055	 0.124215
H	-0.1767656419	 2.0675423235	 0.4467037779	 0.113304
H	-1.0655500642	-0.2019935077	-0.0018881013	 0.082531
H	 1.0908479966	-2.8308920707	-0.8106995666	 0.082372
H	 3.2654590762	-0.6902885082	-0.9605866882	 0.079968
H	 3.5067489642	-2.4526446075	-1.0133641759	 0.101337
H	 1.9138847164	-1.0980799021	-2.8747381273	 0.289696
H	 3.4073934992	-2.3090752708	 1.6179238029	 0.136133
H	 2.1937843382	-2.0962736931	 2.8902120393	 0.129113
H	 2.0911532215	-3.4653374454	 1.7678849193	 0.132736
H	 0.4921883451	-0.1606882736	 2.1903582356	 0.099516
58.2021	117.6828	143.4435	170.3934	177.8329	230.5787	277.7093	334.0846	357.7798	459.2257	482.5698	496.3573	548.8203	613.7712	716.5785	813.8284	842.4445	880.8837	934.9268	965.5369	1010.3569	1037.091	1054.0984	1071.6815	1093.3848	1096.5182	1107.4736	1132.8646	1209.2551	1224.4864	1274.1349	1321.9268	1341.8896	1361.71	1372.8954	1389.1738	1399.0962	1416.2395	1437.7366	1480.0999	1485.6152	1489.1689	1493.7562	1501.1686	1731.0808	2955.3563	2959.2505	2972.6654	3022.2889	3036.0368	3066.3617	3070.73	3109.5634	3116.7106	3119.4584	3203.3519	3779.9552
CC1OC(CO)C(C)=C1	C[C@H]1O[C@@H](CO)C(=C1)C	
InChI=1S/C7H12O2/c1-5-3-6(2)9-7(5)4-8/h3,6-8H,4H2,1-2H3	InChI=1S/C7H12O2/c1-5-3-6(2)9-7(5)4-8/h3,6-8H,4H2,1-2H3/t6-,7+/m1/s1
