15
gdb 26553	2.37535	1.88491	1.05558	4.1952	73.27	-0.199	-0.0226	0.1764	1056.0531	0.114784	-453.994948	-453.9871	-453.986156	-454.026949	30.272	
N	 0.0630007716	 1.3846081936	 0.1386563932	-0.573306
C	-0.0249813542	 0.0113562499	 0.0542344927	 0.365053
C	-1.1968282327	-0.6755302419	-0.0216665615	 0.02627
N	-2.427811552	 0.0189181789	-0.0930923618	-0.61413
C	-1.1993439873	-2.1259659789	-0.1152711557	 0.344188
O	-2.2418616323	-2.7701899599	-0.2350570883	-0.414254
C	 0.1374076926	-2.7211439375	-0.0600113554	-0.262312
C	 1.228949214	-1.951834115	 0.0565619087	 0.050436
O	 1.1834897105	-0.5967467585	 0.1145482666	-0.217962
H	 0.9484100605	 1.7597347355	-0.1736791885	 0.259933
H	-0.7362632733	 1.8365901471	-0.2904584509	 0.270928
H	-2.6438401614	 0.4999230802	 0.7757022288	 0.243515
H	-3.1490115514	-0.6837089041	-0.248560972	 0.257472
H	 0.2332624786	-3.798887426	-0.1006639134	 0.122182
H	 2.2502699268	-2.3041587134	 0.1164160776	 0.141987
139.3219	197.169	215.5531	271.2191	302.4979	337.2839	413.9901	486.6125	499.0324	527.9886	560.9991	617.4017	697.0994	725.569	750.3446	840.9142	853.6751	909.8349	942.5803	978.5454	1041.4733	1125.8795	1210.8367	1281.5434	1283.7699	1335.0082	1421.5819	1455.6794	1614.5104	1635.8877	1641.6378	1714.482	1722.0082	3212.5732	3233.811	3466.6436	3529.2015	3545.7735	3644.2927
NC1=C(N)C(=O)C=CO1	Nc1c(N)c(=O)cco1	
InChI=1S/C5H6N2O2/c6-4-3(8)1-2-9-5(4)7/h1-2H,6-7H2	InChI=1S/C5H6N2O2/c6-4-3(8)1-2-9-5(4)7/h1-2H,6-7H2
