15
gdb 6662	7.13296	0.88009	0.82246	6.6081	62.78	-0.2673	0.0356	0.303	1313.1029	0.119394	-396.037806	-396.029104	-396.02816	-396.071705	30.359	
N	 0.0750461876	 1.230262532	 0.0035803843	-0.562586
C	-0.1743670144	-0.1236795889	-0.150855786	 0.450191
O	 0.4068890085	-0.8190573948	-0.9643203332	-0.385397
N	-1.1265029043	-0.6295743345	 0.7128361272	-0.34287
C	-1.2931481202	-2.070947125	 0.8107485904	-0.153019
C	-2.0764126619	-2.6266528216	-0.3991726163	-0.321727
C	-2.321822906	-4.0597834804	-0.275004573	 0.254364
N	-2.5117518379	-5.192919679	-0.1508022666	-0.305743
H	 0.5970278717	 1.6225094273	-0.7651326516	 0.266343
H	-0.6717671413	 1.8183646477	 0.3410483273	 0.251092
H	-1.3371295211	-0.094373626	 1.5396310004	 0.247615
H	-0.3207221578	-2.5717048902	 0.8604696409	 0.146946
H	-1.8372006316	-2.2858792215	 1.7331663504	 0.122596
H	-3.0348734877	-2.1052517117	-0.4932647596	 0.146732
H	-1.4973487335	-2.4304700834	-1.3056531747	 0.185462
64.073	83.709	97.5295	179.9663	256.1004	340.0149	360.1884	403.4461	431.3141	483.4266	538.1128	560.3456	682.6788	775.8254	781.5796	910.2624	959.1132	1025.7055	1074.6344	1107.8908	1154.8729	1238.9991	1292.7477	1329.3487	1346.5647	1405.33	1472.8533	1483.9564	1530.8189	1628.1356	1798.5437	2362.6278	3050.9968	3062.5366	3103.6101	3123.222	3578.8143	3634.602	3693.4031
NC(=O)NCCC#N	NC(=O)NCCC#N	
InChI=1S/C4H7N3O/c5-2-1-3-7-4(6)8/h1,3H2,(H3,6,7,8)	InChI=1S/C4H7N3O/c5-2-1-3-7-4(6)8/h1,3H2,(H3,6,7,8)
