15
gdb 33598	4.00955	1.51973	1.38559	3.5505	73.84	-0.242	0.0098	0.2519	922.8114	0.114989	-379.58877	-379.582593	-379.581649	-379.619314	25.078	
N	 0.0982303769	-1.0667279614	 0.0232040178	-0.354974
C	 0.0339605951	 0.090110368	-0.0014625448	 0.140905
C	-0.0599540407	 1.5027757111	-0.0353011661	 0.256583
C	 0.1382212731	 2.5236605046	 1.0921426898	-0.162501
C	 1.1614990894	 2.4687975777	 0.0104581898	-0.066565
N	 0.67278001	 3.6624261092	-0.7258313265	-0.149834
C	-0.127612407	 3.10845322	-1.8834321322	-0.185388
C	-1.0230850252	 2.4140225407	-0.84256428	-0.14475
C	-0.580297177	 3.5281753387	 0.1646830793	-0.013167
H	 0.1983061342	 2.3819807777	 2.1617882821	 0.122843
H	 2.1856166221	 2.1210631673	 0.0024430197	 0.12247
H	-0.6283314359	 3.9322200443	-2.3995382712	 0.120408
H	 0.4366899783	 2.5002179743	-2.5950903199	 0.121095
H	-2.0443455197	 2.0769653184	-1.0090166404	 0.09498
H	-1.1383590136	 4.4220122793	 0.4304909126	 0.097893
142.4285	164.1096	409.3762	484.2288	521.48	539.8232	597.4658	729.0565	758.3603	783.9131	834.2228	840.1764	871.7257	890.5011	903.5575	957.5776	962.1226	989.4173	999.0996	1050.1566	1069.2055	1133.2365	1141.1466	1155.5664	1197.8502	1203.5178	1212.8355	1238.1682	1275.7226	1284.5161	1379.683	1498.5752	2337.1379	3060.4499	3122.4725	3140.3049	3156.2853	3212.4282	3226.4032
N#CC12C3C1N1CC2C31	N#C[C@@]12[C@H]3[C@@H]1N1C[C@@H]2[C@@H]31	
InChI=1S/C7H6N2/c8-2-7-3-1-9-5(3)4(7)6(7)9/h3-6H,1H2	InChI=1S/C7H6N2/c8-2-7-3-1-9-5(3)4(7)6(7)9/h3-6H,1H2/t3-,4-,5+,6+,7-/m1/s1
