18
gdb 88506	2.44149	1.36382	1.15656	1.8697	77.98	-0.2416	0.0382	0.2799	1140.7383	0.146027	-401.858888	-401.849943	-401.848999	-401.892721	34.268	
O	-0.0860827796	 1.0244927849	 1.4052670463	-0.421936
C	 0.0073203596	 0.0157229813	 0.4420994602	 0.114646
C	-0.6248499327	-1.29048971	 0.8257916931	-0.342827
C	-1.2477661771	-0.4478635079	-0.2642736803	-0.113284
C	-2.5558074586	 0.2911492355	-0.1038996136	 0.061932
C	-3.729598568	-0.4129888137	 0.5084898075	-0.265618
N	-3.0677428485	 0.6706516411	 1.2309207999	-0.338944
C	-2.7777380876	 1.277401034	-1.137809285	 0.337438
C	-2.9245297973	 2.0787369161	-2.0221789894	-0.445723
H	-0.3333817259	 1.8439499862	 0.9621324626	 0.300395
H	 0.9446473242	-0.0038046076	-0.1126633798	 0.092975
H	-0.1453718659	-2.2199532255	 0.5411293445	 0.118939
H	-1.0980721167	-1.3138186453	 1.8023829456	 0.121619
H	-1.1020319218	-0.8109317034	-1.2776725883	 0.099384
H	-4.7323831054	-0.1865884246	 0.159403301	 0.127232
H	-3.5651070405	-1.4408500461	 0.822112696	 0.117302
H	-2.437419518	 0.324162806	 1.9488439007	 0.241789
H	-3.0731104701	 2.792582449	-2.7941345209	 0.194679
42.0365	134.1773	164.5352	223.4488	243.1394	333.7832	344.4623	388.587	484.311	492.7749	554.5807	592.7141	613.2272	648.3843	692.1106	810.0292	830.8789	851.582	872.5371	924.7983	972.6257	990.4435	1014.219	1064.7755	1068.1271	1107.5681	1130.7864	1145.6303	1176.3087	1225.7795	1238.3317	1271.7194	1311.5951	1345.5037	1402.8303	1418.4131	1487.4796	1503.5915	2236.8988	3106.1317	3108.9647	3135.4384	3148.8865	3201.6071	3221.0829	3502.8581	3519.8275	3798.7727
OC1CC1C1(CN1)C#C	O[C@H]1C[C@H]1[C@]1(CN1)C#C	
InChI=1S/C7H9NO/c1-2-7(4-8-7)5-3-6(5)9/h1,5-6,8-9H,3-4H2	InChI=1S/C7H9NO/c1-2-7(4-8-7)5-3-6(5)9/h1,5-6,8-9H,3-4H2/t5-,6+,7-/m1/s1
