15
gdb 46855	2.55837	1.80755	1.24191	5.7918	68.45	-0.2399	-0.0585	0.1814	982.4146	0.113715	-453.940796	-453.933248	-453.932304	-453.973193	28.3	
N	-0.1977174176	 1.3022872837	-0.1706807404	-0.498201
C	-0.031885303	 0.0720728153	 0.1282125578	 0.275669
N	 1.1346682444	-0.5381118183	 0.5354747478	-0.345899
C	 1.3331783387	-1.9587596647	 0.7418772119	-0.205785
C	 0.0825212856	-2.6233757983	 1.2719373694	 0.046407
O	-0.6516049123	-1.903181498	 2.2407656964	-0.231261
C	-1.2365605786	-2.0514764189	 0.9354934915	-0.056877
C	-1.259442236	-0.8333107515	 0.0610880741	 0.363697
O	-2.1866790995	-0.6113171988	-0.6750808669	-0.283569
H	 0.6766206378	 1.8284893938	-0.0934523827	 0.203505
H	 1.953153586	 0.0482249342	 0.5786680776	 0.243321
H	 1.6345780354	-2.4851249032	-0.1786509112	 0.121799
H	 2.1459772959	-2.0909459875	 1.4652185995	 0.130957
H	 0.155602069	-3.6981105597	 1.435173686	 0.11544
H	-2.1235565958	-2.6774242781	 0.8795852092	 0.120797
63.1229	127.17	239.0825	323.8837	351.89	369.4008	461.5051	468.5513	497.4418	597.7275	674.4828	751.2877	818.8969	838.7488	862.4253	919.1501	951.3606	959.2876	1061.9511	1084.6494	1117.8634	1189.8922	1212.7414	1251.9498	1273.3496	1342.1645	1349.8094	1417.2488	1449.3598	1482.1173	1510.0485	1706.0089	1821.9216	2971.813	3056.1408	3123.8397	3158.4758	3433.7176	3624.5089
N=C1NCC2OC2C1=O	[NH][C]1NC[C@H]2O[C@H]2C1=O	
InChI=1S/C5H6N2O2/c6-5-3(8)4-2(9-4)1-7-5/h2,4H,1H2,(H2,6,7)	InChI=1S/C5H6N2O2/c6-5-3(8)4-2(9-4)1-7-5/h2,4H,1H2,(H2,6,7)/t2-,4-/m1/s1
