17
gdb 34074	3.90827	1.3977	1.38675	3.3479	75.21	-0.2579	0.0326	0.2905	968.0784	0.139961	-380.885795	-380.879263	-380.878319	-380.916543	26.847	
N	 0.0186907548	-1.1003169002	-0.0150177582	-0.342025
C	 0.014610057	 0.0558852281	 0.0057901683	 0.172495
C	 0.0013626642	 1.5007294389	 0.017842984	 0.131869
C	-0.7191982212	 2.2004706517	 1.2028360856	-0.259815
C	-0.4932203392	 3.6222646162	 0.7061386764	-0.044292
C	 0.8000372406	 3.6404985423	-0.0344548852	-0.044282
C	 1.3728775798	 2.229965774	 0.0047801529	-0.259854
N	-0.4849674285	 3.628256349	-0.7789927516	-0.121155
C	-0.6911610338	 2.2225060495	-1.1736791917	-0.181267
H	-1.7738999109	 1.9214810074	 1.2701345088	 0.123926
H	-0.2360048125	 2.0005869573	 2.1630127408	 0.122594
H	-0.9151551003	 4.486439752	 1.2036407432	 0.103721
H	 1.4241509581	 4.5194233431	-0.1359865047	 0.103723
H	 1.9607229438	 2.0315521427	 0.9050224743	 0.122594
H	 1.9703555032	 1.9743358273	-0.874095965	 0.123922
H	-0.2097604268	 2.0149022011	-2.1325006181	 0.123922
H	-1.7571153585	 1.9930719396	-1.2463798597	 0.123925
158.4093	159.1676	408.4475	423.6452	445.2718	509.2652	547.719	555.0983	670.8421	679.3849	792.3386	806.1696	851.2759	914.6334	938.5997	941.1364	966.301	970.725	1015.0672	1039.0893	1058.9457	1114.2417	1126.5197	1161.1529	1164.1893	1215.6605	1222.1202	1227.6241	1264.4302	1283.7861	1303.349	1321.7475	1384.523	1486.0859	1490.1074	1516.1892	2355.9013	3063.9729	3064.9493	3071.3559	3113.6958	3117.7961	3123.3223	3190.9643	3200.6243
N#CC12CC3C(C1)N3C2	N#C[C@@]12C[C@H]3[C@@H](C1)N3C2	
InChI=1S/C7H8N2/c8-3-7-1-5-6(2-7)9(5)4-7/h5-6H,1-2,4H2	InChI=1S/C7H8N2/c8-3-7-1-5-6(2-7)9(5)4-7/h5-6H,1-2,4H2/t5-,6+,7+,9?
