20
gdb 68207	3.25803	1.27984	1.12935	2.5268	78.59	-0.2383	-0.0267	0.2116	1150.3765	0.171489	-403.127544	-403.119372	-403.118428	-403.1604	31.756	
C	-0.2068758992	 1.4940672117	 0.002398511	-0.505621
C	-0.0335045437	-0.0065140175	 0.0121028682	 0.332543
C	 0.926056193	-0.7725762419	-0.9398549795	-0.224313
N	 0.8772878707	-1.9009259021	 0.0792580653	-0.149937
C	 0.7596028585	-0.7856436121	 1.1011535851	-0.208497
C	-0.5697958772	-2.2753408864	-0.0321197949	-0.053895
C	-1.2916721421	-0.8966556417	-0.0987421105	-0.283843
C	-0.7777751815	-3.2029747906	-1.2122778801	 0.140271
O	-1.6505885032	-3.0904945079	-2.035047319	-0.242166
H	 0.7561598542	 2.0081777882	 0.091101524	 0.115592
H	-0.6817506238	 1.8297125545	-0.9262186012	 0.124024
H	-0.8403383223	 1.8243993005	 0.8333176033	 0.120316
H	 0.5847245693	-1.0316168812	-1.9469227985	 0.111144
H	 1.9357827408	-0.3574153641	-0.9795548535	 0.107539
H	 1.7479835223	-0.3690653704	 1.3116222886	 0.106392
H	 0.2584276505	-1.0628976836	 2.0342677372	 0.097165
H	-0.8384409771	-2.854030518	 0.8620058808	 0.098909
H	-1.9905248368	-0.7404734915	 0.7278410387	 0.098154
H	-1.8331744615	-0.7667210086	-1.0392523301	 0.123282
H	-0.0355612509	-4.0300806872	-1.2593268147	 0.092939
65.3169	145.1102	204.38	219.2216	303.0589	307.7419	397.4625	460.5249	535.0892	592.6136	646.2164	686.9813	806.123	830.4878	851.2243	876.0359	901.567	923.6163	949.6335	986.2905	1010.9606	1039.8983	1046.9016	1071.596	1102.3708	1141.144	1198.1622	1207.7496	1226.3402	1232.7732	1251.0648	1269.9497	1278.7502	1352.8216	1353.776	1407.0849	1416.302	1492.5395	1493.8065	1497.803	1503.0561	1535.8812	1828.2061	2896.6248	3021.1051	3026.3157	3044.2093	3053.651	3061.4574	3091.631	3094.6418	3108.7769	3111.3548	3117.6857
CC12CN(C1)C(C2)C=O	C[C@@]12CN(C1)[C@@H](C2)C=O	
InChI=1S/C7H11NO/c1-7-2-6(3-9)8(4-7)5-7/h3,6H,2,4-5H2,1H3	InChI=1S/C7H11NO/c1-7-2-6(3-9)8(4-7)5-7/h3,6H,2,4-5H2,1H3/t6-/m0/s1
