19
gdb 94243	3.21348	1.11873	1.03405	2.6416	71.56	-0.2481	-0.0438	0.2043	1226.6923	0.15636	-460.156797	-460.147365	-460.146421	-460.191567	34.305	
C	-0.321247399	 1.4736635082	 0.065858454	-0.393508
C	 0.086233141	 0.0162647586	-0.0188358975	 0.100867
O	 1.2903544432	-0.1883509133	-0.8014749555	-0.293894
C	 2.0376994521	-0.6174692417	 0.3522587804	-0.122095
C	 0.7604635687	-0.611305098	 1.2326146344	 0.344358
O	 0.7628582091	 0.2420712467	 2.3471277761	-0.483688
C	 0.2313103814	-2.0010491316	 1.5955907938	-0.363482
C	 1.0199507112	-2.6866026098	 2.6847716172	 0.159017
O	 1.8698784888	-2.1477866063	 3.3566838045	-0.256334
H	 0.4690607177	 2.0770122824	 0.5162981264	 0.133393
H	-0.5303862391	 1.8514305325	-0.9395920797	 0.120492
H	-1.2247734317	 1.5841584297	 0.673856158	 0.119087
H	-0.7374701191	-0.5862027787	-0.4270883047	 0.067805
H	 2.5338179144	-1.5821181505	 0.1892224289	 0.092494
H	 2.7791852408	 0.1247816722	 0.6716606311	 0.105774
H	 1.3276904711	-0.1832880868	 3.0078850093	 0.293187
H	-0.8088515375	-1.9302184273	 1.9494390274	 0.141225
H	 0.2035223424	-2.6623194392	 0.7194427075	 0.13504
H	 0.7651017545	-3.7546743672	 2.8572785785	 0.100262
52.6508	73.6883	156.6855	160.5225	210.969	259.9392	277.1649	342.1056	403.4345	437.7779	515.0933	558.7879	611.556	693.9346	784.1015	842.9588	880.0175	885.633	948.0915	975.9619	1014.6874	1021.3114	1061.595	1091.9379	1134.222	1158.5346	1166.9992	1224.1021	1272.2006	1299.0715	1328.3874	1355.0172	1376.5297	1405.7452	1413.7504	1425.8781	1438.5692	1484.0403	1488.3491	1517.6621	1805.9061	2901.5341	2998.6266	3009.0572	3015.728	3045.1094	3053.5301	3064.0205	3113.2671	3139.3082	3738.2895
CC1OCC1(O)CC=O	C[C@H]1OC[C@]1(O)CC=O	
InChI=1S/C6H10O3/c1-5-6(8,2-3-7)4-9-5/h3,5,8H,2,4H2,1H3	InChI=1S/C6H10O3/c1-5-6(8,2-3-7)4-9-5/h3,5,8H,2,4H2,1H3/t5-,6-/m1/s1
