16
gdb 46494	4.20891	1.18443	1.01108	2.8999	72.88	-0.2478	-0.0451	0.2027	1137.9433	0.125831	-437.906534	-437.89907	-437.898126	-437.938618	28.746	
O	 0.0179631731	-0.0629251102	 0.395644214	-0.374355
C	-0.0056078313	 1.1260819136	 0.1309104852	 0.395319
N	-1.1804127741	 1.808078058	-0.0909760017	-0.349556
C	-1.2733689299	 3.2614700294	-0.0721117374	-0.252635
C	-0.0710078377	 3.8751167348	-0.7657351514	 0.394366
C	-0.2165596181	 4.6584737912	-2.009621429	-0.224887
O	-0.0544503878	 5.3075527158	-0.7498684105	-0.275411
C	 1.2101131667	 3.1967911915	-0.46343107	-0.127416
C	 1.2330308569	 1.9338820003	-0.0300988997	-0.17306
H	-2.0075840533	 1.2782717696	 0.1427619804	 0.250315
H	-2.1974204009	 3.5714549686	-0.5670104552	 0.121721
H	-1.3026555541	 3.6548949009	 0.9564738675	 0.124293
H	 0.6245791033	 4.7490231233	-2.6953456029	 0.123453
H	-1.2024290165	 4.7472266597	-2.4644560545	 0.123126
H	 2.118043323	 3.7707373696	-0.6263033766	 0.12061
H	 2.1542231207	 1.4047941238	 0.1823802918	 0.124117
77.8538	169.2866	234.3824	321.6213	356.2287	396.7527	435.4877	470.0146	569.3047	600.0357	687.4404	720.7593	788.301	833.4167	854.8037	911.5756	916.7966	972.3042	1009.7045	1061.5934	1078.7465	1130.7837	1151.7852	1162.1131	1240.4935	1278.0062	1330.3711	1354.3644	1388.4792	1425.4036	1478.5375	1509.8035	1524.623	1686.4676	1784.5078	2979.9113	3081.8041	3086.9536	3171.6446	3174.0403	3215.1603	3611.7954
O=C1NCC2(CO2)C=C1	O=C1NC[C@]2(CO2)C=C1	
InChI=1S/C6H7NO2/c8-5-1-2-6(3-7-5)4-9-6/h1-2H,3-4H2,(H,7,8)	InChI=1S/C6H7NO2/c8-5-1-2-6(3-7-5)4-9-6/h1-2H,3-4H2,(H,7,8)/t6-/m0/s1
