20
gdb 57959	3.68829	0.88179	0.8122	2.2026	76.59	-0.2354	0.0125	0.2479	1501.0788	0.169311	-440.296792	-440.286711	-440.285767	-440.333511	36.019	
C	-0.1067335316	 1.4023369995	-0.3201372863	-0.403183
C	-0.0321908539	-0.1035512125	 0.0161954328	-0.057468
N	 0.6824837777	-0.4260409924	 1.2468937738	-0.524125
C	-1.4513661335	-0.6397634273	 0.1390794351	 0.467067
O	-2.0343051018	-0.8056431186	 1.1808330696	-0.366377
O	-1.9859622376	-0.8731171082	-1.0777417245	-0.249322
C	-3.3355839182	-1.3090275849	-1.0974831569	 0.149319
C	-4.3803882486	-0.3267978697	-1.5325988287	-0.280662
C	-3.9371493982	-1.4468212951	-2.4555264679	-0.29816
H	 0.9047427031	 1.8098872297	-0.4165841792	 0.117447
H	-0.633357309	 1.5760967195	-1.2635336965	 0.125601
H	-0.6228913105	 1.9481278924	 0.4765718325	 0.126077
H	 0.4417734298	-0.6183329063	-0.8279777783	 0.102894
H	 1.4535941884	 0.2193119667	 1.3820292279	 0.223045
H	 0.0431686053	-0.3110924058	 2.0287436738	 0.240755
H	-3.5627060513	-2.0199837432	-0.3135480535	 0.126016
H	-5.3573294238	-0.3790179928	-1.0657599482	 0.124902
H	-4.0433300461	 0.6743478584	-1.7757648834	 0.124228
H	-3.3113485869	-1.1745124583	-3.2976882374	 0.128687
H	-4.6073149634	-2.2791804111	-2.6370588546	 0.123259
20.3187	55.9017	84.1749	147.698	219.9997	245.1363	264.1693	310.4204	325.7296	391.017	431.0549	486.4709	671.0072	752.5439	754.6639	814.8727	831.3999	857.735	888.1928	926.0648	972.7202	998.9999	1037.2966	1056.1696	1075.8394	1079.268	1116.7008	1169.6398	1176.9889	1191.7639	1201.3396	1239.6925	1258.8527	1348.4524	1389.4168	1393.0818	1423.399	1455.5231	1492.1085	1497.4323	1502.8783	1637.7136	1820.8845	3031.2747	3037.1187	3106.0293	3113.125	3140.564	3143.7738	3198.2934	3223.8992	3238.0811	3493.0238	3579.0476
CC(N)C(=O)OC1CC1	C[C@@H](N)C(=O)OC1CC1	
InChI=1S/C6H11NO2/c1-4(7)6(8)9-5-2-3-5/h4-5H,2-3,7H2,1H3	InChI=1S/C6H11NO2/c1-4(7)6(8)9-5-2-3-5/h4-5H,2-3,7H2,1H3/t4-/m1/s1
