17
gdb 47137	3.39448	1.33934	1.03734	3.5554	78.9	-0.231	-0.0333	0.1978	1137.1527	0.138497	-418.006481	-417.998917	-417.997972	-418.038792	28.871	
N	-0.0514593956	 1.2598849119	 0.2940978779	-0.569458
C	-0.037080696	-0.0028198777	 0.1636657367	 0.358955
O	 1.0945321239	-0.7598430553	 0.056047043	-0.238409
C	 0.7357025377	-2.1359213904	-0.1187444027	-0.13699
C	-0.7602688612	-2.1403506143	-0.0959991797	-0.235315
C	-1.2162977272	-0.8939148763	 0.0845432655	 0.298149
C	-2.6168755284	-0.4438961825	 0.1733161106	-0.128371
C	-3.04160456	 0.5825602045	 1.1743386172	-0.236159
N	-3.024291962	 0.9113806628	-0.2503697497	-0.321769
H	 0.8950890087	 1.6397058198	 0.3095116748	 0.227968
H	 1.1569212552	-2.4934484126	-1.0677599081	 0.133169
H	 1.184935278	-2.7260493565	 0.6910975364	 0.132522
H	-1.3514255751	-3.0394459584	-0.2097350504	 0.120461
H	-3.337945551	-1.2148346887	-0.0885991826	 0.089592
H	-4.026674111	 0.4898907084	 1.6236868864	 0.116295
H	-2.2727575941	 1.0169301772	 1.8052578481	 0.131873
H	-2.1795238221	 1.4557525781	-0.4274034936	 0.257487
84.2959	158.7017	205.4042	212.5205	324.5604	379.2402	470.1814	484.3936	640.982	735.8621	773.5643	804.6097	820.5314	841.1638	863.5992	888.5361	959.103	975.0218	996.2299	1012.914	1028.1791	1087.1208	1113.9589	1140.784	1180.4393	1194.8934	1232.1287	1247.7118	1294.5417	1330.6203	1368.3064	1400.1936	1413.5514	1497.1304	1501.8135	1691.5021	1744.3848	3014.5955	3043.3298	3113.7698	3129.9969	3209.8195	3225.479	3466.6722	3490.7773
N=C1OCC=C1C1CN1	[NH]C1=C([CH]CO1)[C@H]1CN1	
InChI=1S/C6H8N2O/c7-6-4(1-2-9-6)5-3-8-5/h1,5,7-8H,2-3H2	InChI=1S/C6H8N2O/c7-6-4(1-2-9-6)5-3-8-5/h1,5,7-8H,2-3H2/t5-/m1/s1
