22
gdb 93576	4.21425	0.90255	0.81984	1.7451	91.18	-0.22	0.0183	0.2384	1491.3157	0.195882	-367.20654	-367.197682	-367.196738	-367.240329	34.003	
C	 0.1069554605	 1.6459168872	-0.1087535608	-0.396042
C	 0.0238545864	 0.1238016101	 0.0495297206	 0.000689
C	 0.6446024506	-0.6670541304	-1.1321031418	-0.22003
C	 1.2439695098	-1.9469444547	-0.5056140442	-0.329161
C	 1.4608747914	-1.5494155333	 0.9462682675	 0.358918
C	 0.7865157903	-0.4303151377	 1.2311547245	-0.194434
C	 2.2626183884	-2.332458248	 1.9060499402	-0.097194
C	 2.4792406543	-3.7977154715	 1.7271133721	-0.246866
N	 3.597641262	-2.8678894703	 1.5386579885	-0.321767
H	 1.1490094304	 1.971854039	-0.1997738583	 0.114942
H	-0.4305299181	 1.9783284891	-1.003430488	 0.111958
H	-0.3315878053	 2.160693645	 0.7527545966	 0.111734
H	-1.040288745	-0.1433781396	 0.1538824214	 0.075862
H	-0.0734388706	-0.878040993	-1.9291953891	 0.094583
H	 1.4503424023	-0.0672088477	-1.5710244524	 0.100793
H	 0.5429521535	-2.7915289743	-0.5651157411	 0.108178
H	 2.1578218154	-2.2723953304	-1.0174788085	 0.09447
H	 0.7487150406	 0.029689908	 2.2140830431	 0.083946
H	 2.2368707115	-1.9519597859	 2.9244435042	 0.086632
H	 2.5553988883	-4.4372497922	 2.6022338361	 0.119349
H	 2.0403538206	-4.2751258355	 0.855274331	 0.112911
H	 3.7586408128	-2.7216305339	 0.5447603785	 0.230528
64.9908	125.2553	142.6761	183.8781	243.8656	277.4395	326.6276	398.5787	497.2826	537.9125	586.1505	617.146	805.4761	810.0299	845.0901	857.4439	877.8641	916.6165	932.7214	959.7278	969.8383	984.9388	1001.0066	1050.3793	1090.3493	1105.9614	1127.1396	1143.2136	1164.3075	1194.7308	1209.5335	1239.8489	1263.5661	1285.3334	1300.0948	1312.487	1323.1434	1350.3945	1370.3281	1405.7166	1410.4794	1483.4227	1496.8174	1498.3161	1500.727	1510.6695	1704.1023	2965.4022	3005.684	3026.1814	3033.2482	3048.1674	3092.7931	3096.2473	3098.5664	3109.8451	3133.6333	3176.4046	3194.591	3498.0021
CC1CCC(=C1)C1CN1	C[C@H]1CCC(=C1)[C@H]1CN1	
InChI=1S/C8H13N/c1-6-2-3-7(4-6)8-5-9-8/h4,6,8-9H,2-3,5H2,1H3	InChI=1S/C8H13N/c1-6-2-3-7(4-6)8-5-9-8/h4,6,8-9H,2-3,5H2,1H3/t6-,8+/m0/s1
