21
gdb 93134	2.129	1.83846	1.30345	1.7019	82.12	-0.2424	0.0213	0.2636	1072.1837	0.184106	-387.080612	-387.072352	-387.071408	-387.113058	32.707	
C	-0.1868712301	 1.5544787306	-0.2057799763	-0.398296
C	-0.0292005969	 0.0474028133	 0.0403327302	-0.039041
C	 0.5352525916	-0.7032253761	-1.1836011326	-0.259884
C	 1.9339942045	-0.3578091766	-1.640128369	-0.031179
C	 2.9430024583	 0.2407481212	-1.0021837652	-0.059373
C	 2.9928301557	 0.7878599365	 0.4066697269	-0.298677
C	 2.2039391203	-0.0009080695	 1.4389071855	 0.057843
O	 1.1986289282	 0.6946268234	 2.1929636606	-0.259237
C	 0.7817262668	-0.3224861805	 1.278566469	 0.057169
H	 0.7332880915	 2.0175537175	-0.567792806	 0.126622
H	-0.9563137222	 1.7221045472	-0.9666045701	 0.106321
H	-0.4871709532	 2.0686376986	 0.7096740466	 0.130325
H	-1.0392813925	-0.3491346342	 0.2079378599	 0.07594
H	 0.4913560399	-1.7868623637	-0.9915271168	 0.108077
H	-0.1441793565	-0.5437988935	-2.0318857662	 0.102752
H	 2.1346388696	-0.6701836205	-2.6645163608	 0.084863
H	 3.8606808558	 0.3834206246	-1.5697679161	 0.084833
H	 4.0397869544	 0.8363850519	 0.725949649	 0.104341
H	 2.6350725042	 1.8251003435	 0.4245361989	 0.132591
H	 2.7995975343	-0.6835509036	 2.0464631668	 0.090023
H	 0.4322656262	-1.2314254902	 1.7736389457	 0.083987
110.2253	144.7411	219.3434	234.6242	295.4464	327.7252	388.4101	414.7713	441.6001	517.8119	658.2639	708.1957	745.1295	772.0208	816.1079	841.3121	878.9923	926.1895	945.4613	981.475	1010.8297	1013.5526	1056.773	1066.3992	1099.109	1120.8208	1136.0416	1161.7632	1218.6005	1257.5821	1261.9182	1316.8633	1330.663	1360.4311	1379.8406	1388.6714	1395.3297	1416.7285	1432.1029	1468.6458	1474.0628	1484.1269	1498.5372	1511.5274	1728.4299	2986.6022	3011.0642	3026.4363	3028.5597	3048.0544	3058.8134	3075.8646	3099.0714	3115.6764	3119.7592	3138.966	3147.3304
CC1CC=CCC2OC12	C[C@H]1CC=CC[C@H]2O[C@@H]12	
InChI=1S/C8H12O/c1-6-4-2-3-5-7-8(6)9-7/h2-3,6-8H,4-5H2,1H3	InChI=1S/C8H12O/c1-6-4-2-3-5-7-8(6)9-7/h2-3,6-8H,4-5H2,1H3/t6-,7+,8-/m0/s1
