15
gdb 98384	3.08514	1.09199	0.8362	5.7844	65.66	-0.2619	-0.048	0.2139	1315.843	0.110446	-491.147821	-491.138144	-491.137199	-491.18349	32.128	
C	-0.0119901474	 1.4713794716	-0.0436047098	-0.325299
N	-0.0575735897	 0.0243011151	-0.1937859103	-0.349519
C	-1.1985285374	-0.6576066225	 0.0997396154	 0.487087
O	-2.215216883	-0.1436599563	 0.5114837798	-0.369547
N	-1.1095039566	-2.0770904136	-0.1157544729	-0.22159
C	-2.339985145	-2.7386990123	-0.4027996372	 0.171329
O	-2.4654629757	-3.9188658995	-0.5445382657	-0.255081
C	 0.099051948	-2.7748179817	 0.1110847344	 0.14851
O	 0.2962129263	-3.928250087	-0.1385746629	-0.245452
H	 1.0248859711	 1.7856425874	 0.0925597212	 0.136605
H	-0.4343007954	 1.9892914568	-0.9124258714	 0.141817
H	-0.5943008522	 1.7482353133	 0.8352917553	 0.172121
H	 0.6207366025	-0.405133394	-0.801242402	 0.263934
H	-3.1544189073	-2.0027436153	-0.4705699341	 0.138806
H	 0.8523205018	-2.1144567918	 0.5774176402	 0.106278
54.5921	70.3303	111.1472	138.6071	152.2327	234.7648	262.0527	277.0563	325.6328	405.5097	485.3661	495.7044	544.4349	771.936	809.3814	917.4835	1000.103	1030.966	1046.8251	1150.6177	1159.9188	1178.1737	1236.097	1287.8437	1429.8382	1448.2263	1459.8046	1485.0353	1501.5435	1549.4708	1795.2045	1815.0449	1883.2403	2968.3185	3038.1968	3040.3992	3112.716	3160.982	3645.2956
CNC(=O)N(C=O)C=O	CNC(=O)N(C=O)C=O	
InChI=1S/C4H6N2O3/c1-5-4(9)6(2-7)3-8/h2-3H,1H3,(H,5,9)	InChI=1S/C4H6N2O3/c1-5-4(9)6(2-7)3-8/h2-3H,1H3,(H,5,9)
