18
gdb 88266	3.15452	1.05797	0.93004	2.0141	76.7	-0.2422	-0.055	0.1873	1315.5643	0.14744	-435.266472	-435.257114	-435.25617	-435.301026	34.52	
C	 0.3184646047	 1.5839359688	-0.6522418307	-0.406097
C	 0.0147998623	 0.1909617177	-0.1614878092	 0.014555
N	 1.1402508673	-0.7032485862	 0.0633479874	-0.319227
C	 0.3302937679	-0.298687089	 1.2334553374	-0.157553
C	 0.9923480427	 0.5789772795	 2.2350112287	 0.400205
O	 1.9380867536	 1.3035230468	 1.9968125521	-0.337464
C	 0.4127222184	 0.5591999836	 3.6481779727	 0.26838
N	 0.9901377582	 1.5015074329	 4.44585004	-0.535939
N	-0.5170443319	-0.2804793024	 3.9212144194	-0.510721
H	 1.2265067298	 1.9674246367	-0.1861285832	 0.16053
H	 0.4640097959	 1.5698316514	-1.7378209167	 0.119681
H	-0.5129999877	 2.2618176937	-0.4321549678	 0.114801
H	-0.8954416446	-0.247927684	-0.5709229042	 0.092975
H	 0.9008529192	-1.6604312695	-0.1827006111	 0.238248
H	-0.3656362658	-1.008031904	 1.6636247372	 0.126308
H	 1.8179865991	 1.9438945266	 4.0744423737	 0.272443
H	 0.8786204158	 1.4541357313	 5.4439636311	 0.252719
H	-0.818408645	-0.206721824	 4.8955877831	 0.206155
52.9814	73.2927	172.8999	186.5232	230.057	291.359	328.053	376.207	390.3534	421.7447	500.0275	518.6167	559.326	625.5829	738.7908	820.105	822.8473	864.6827	889.7044	946.7424	995.6928	1021.6981	1069.6789	1083.1889	1116.0626	1147.3412	1153.2426	1197.4746	1238.1998	1258.1357	1395.2396	1412.5938	1441.1172	1464.6716	1494.6763	1500.8923	1597.3425	1712.8649	1779.9635	3038.8999	3097.6774	3101.3114	3155.1689	3199.5636	3441.0986	3501.4731	3578.5085	3715.0047
CC1NC1C(=O)C(N)=N	C[C@H]1N[C@H]1C(=O)C(=N)N	
InChI=1S/C5H9N3O/c1-2-3(8-2)4(9)5(6)7/h2-3,8H,1H3,(H3,6,7)	InChI=1S/C5H9N3O/c1-2-3(8-2)4(9)5(6)7/h2-3,8H,1H3,(H3,6,7)/t2-,3-/m1/s1
