21
gdb 73130	2.42699	1.76204	1.5364	1.7666	80.37	-0.2402	0.0761	0.3164	1007.3854	0.184067	-387.078804	-387.071023	-387.070079	-387.110659	31.728	
C	 0.2362999627	 1.5519623753	-0.0430289297	-0.465002
C	 0.021923893	 0.052423355	 0.0288475418	 0.437827
O	-1.3109301819	-0.2603360335	 0.5461937159	-0.326995
C	-0.7654077971	-1.0154170099	 1.6450330336	-0.093345
C	 0.6830577283	-0.7547252884	 1.189997851	-0.110133
C	 1.5083974365	-1.903050927	 0.5746718223	-0.257134
C	 1.2437789223	-1.8714215483	-0.9305572497	-0.030186
C	-0.1610689021	-2.0706288042	-1.4275592484	-0.294146
C	 0.3744423678	-0.6709174741	-1.2667444599	-0.075309
H	 1.2597243195	 1.781673714	-0.3595658363	 0.115743
H	-0.4535480209	 1.9996191283	-0.7662517783	 0.126956
H	 0.0580124216	 2.0180087548	 0.9300703519	 0.116581
H	-1.0411324934	-0.578253621	 2.6128818849	 0.09679
H	-1.0868137232	-2.065820298	 1.6301887319	 0.092779
H	 1.2652438867	-0.1626770928	 1.8985254804	 0.074685
H	 2.5753487276	-1.7381944428	 0.7585773292	 0.100451
H	 1.2593462496	-2.8722002724	 1.0237463691	 0.101087
H	 2.0554875241	-2.1608279429	-1.5896288652	 0.081218
H	-0.2827533505	-2.4404442704	-2.4398754723	 0.106953
H	-0.9377423865	-2.3906856928	-0.7425864154	 0.125534
H	 0.5532847259	-0.0732180085	-2.1538911769	 0.075645
105.9262	202.4202	227.4841	258.3205	317.647	364.3945	382.8177	499.1018	576.5922	649.507	661.2053	776.7494	796.838	823.3167	872.4053	883.8216	888.7871	916.5983	957.0784	997.0112	1014.3057	1030.2319	1049.4647	1059.7825	1094.8021	1103.4264	1117.6567	1134.3546	1152.0032	1166.3417	1206.1715	1216.2837	1233.813	1257.8703	1310.9597	1328.5475	1350.4818	1372.9821	1391.0243	1404.2456	1481.409	1488.433	1490.9281	1497.2595	1525.2268	3000.3099	3031.2807	3031.5685	3041.187	3065.7792	3090.3272	3101.4213	3112.7977	3137.4397	3157.8705	3167.7378	3222.4881
CC12OCC1CC1CC21	C[C@]12OC[C@H]1C[C@H]1C[C@@H]21	
InChI=1S/C8H12O/c1-8-6(4-9-8)2-5-3-7(5)8/h5-7H,2-4H2,1H3	InChI=1S/C8H12O/c1-8-6(4-9-8)2-5-3-7(5)8/h5-7H,2-4H2,1H3/t5-,6+,7+,8-/m0/s1
