16
gdb 32297	2.78596	1.52111	0.99034	1.1932	79.58	-0.196	-0.031	0.1649	1145.8025	0.125701	-434.099664	-434.091381	-434.090437	-434.133032	30.268	
C	-0.1675544617	 1.3935477292	 0.006929694	-0.325094
N	 0.0011458671	-0.0349933427	 0.0783449597	-0.361758
C	 0.6724341789	-0.6574153677	 1.0816420072	 0.265912
C	 1.3715440021	-0.0631772774	 2.092620807	-0.137147
N	 2.0454044037	-0.796287328	 3.0565979183	-0.257321
C	 1.9892680749	-2.0623749125	 2.9812722854	 0.096002
O	 1.3150780086	-2.7756667081	 2.029043216	-0.217169
C	 0.6206641388	-2.1230143298	 1.0389900591	 0.368981
N	-0.0315088552	-2.7445273804	 0.1426436584	-0.564745
H	 0.800488836	 1.9052277946	-0.0768130465	 0.133221
H	-0.7572853971	 1.639276949	-0.8776638483	 0.134842
H	-0.6837922167	 1.796176392	 0.89107124	 0.12733
H	-0.5312619629	-0.6493199598	-0.5180379255	 0.267171
H	 1.4384166303	 1.0132125902	 2.1877192087	 0.104192
H	 2.4818208695	-2.7254576016	 3.6819365504	 0.137874
H	 0.0330657537	-3.7541664569	 0.262564556	 0.22771
59.7263	114.4483	165.0082	199.0808	254.2177	360.9738	407.0333	449.132	511.2239	547.9402	590.4317	607.8272	770.9451	776.1874	837.5457	854.5059	876.5973	910.7288	996.0827	1090.9606	1096.7185	1159.6791	1168.6894	1210.2948	1253.521	1338.5024	1396.1965	1412.511	1463.9506	1478.5359	1518.8178	1549.6372	1629.2321	1669.031	1729.626	2991.4048	3037.5644	3131.7844	3205.9289	3219.035	3509.3436	3625.7804
CNC1=CN=COC1=N	CNC1=C(OC=NC1)[NH]	
InChI=1S/C5H7N3O/c1-7-4-2-8-3-9-5(4)6/h2-3,6-7H,1H3	InChI=1S/C5H8N3O/c1-7-4-2-8-3-9-5(4)6/h3,6-7H,2H2,1H3
