18
gdb 81858	2.82777	1.54211	1.15003	3.9958	71.72	-0.2481	0.0057	0.2538	1088.6938	0.148066	-439.113283	-439.104969	-439.104025	-439.145925	32.053	
C	 0.0565020754	 1.6042948266	 0.1175003388	-0.469334
C	 0.0849358537	 0.1067275325	 0.0478569357	 0.413504
C	-0.9430181546	-0.7968159742	 0.663127849	-0.336343
C	 0.4948740293	-0.8375129536	 1.1477303701	-0.095521
C	 1.4010131957	-1.8655379654	 0.5030843471	-0.161058
N	 1.0036300147	-3.2618293547	 0.6608723819	-0.513104
C	 1.3201358185	-1.5210604765	-0.9967301594	 0.432603
O	 1.7736610366	-2.1686066913	-1.8957921621	-0.345001
O	 0.6286954268	-0.3707937602	-1.1862510572	-0.246549
H	 1.0615871047	 2.0205240869	-0.0033934252	 0.130534
H	-0.5824102959	 2.0188131435	-0.668618353	 0.138521
H	-0.338954064	 1.9275247753	 1.0842564813	 0.124908
H	-1.675439422	-0.3450771812	 1.3230404326	 0.119223
H	-1.3030390386	-1.6428014428	 0.0875030442	 0.140995
H	 0.7342695806	-0.4633772991	 2.1360912185	 0.095767
H	 2.442276348	-1.6651002578	 0.810078904	 0.093599
H	 1.4762162581	-3.8068318153	-0.0562314831	 0.245961
H	 1.310797063	-3.6163227128	 1.5605688069	 0.231294
95.6473	157.1266	209.1994	232.653	291.0183	296.679	335.4442	435.6101	487.3282	533.3885	589.5715	632.4958	714.8545	761.8578	816.5822	857.3684	877.4475	937.9073	963.9483	979.7384	998.8353	1051.0271	1062.3167	1089.6539	1127.4616	1136.5264	1181.8766	1200.7123	1259.6442	1299.9193	1364.307	1369.0595	1402.4698	1433.1641	1478.4797	1485.9662	1504.3802	1646.12	1878.015	2946.8216	3039.9375	3107.2726	3120.5421	3135.9888	3177.1435	3226.9752	3488.829	3574.1746
CC12CC1C(N)C(=O)O2	C[C@]12C[C@H]1[C@@H](N)C(=O)O2	
InChI=1S/C6H9NO2/c1-6-2-3(6)4(7)5(8)9-6/h3-4H,2,7H2,1H3	InChI=1S/C6H9NO2/c1-6-2-3(6)4(7)5(8)9-6/h3-4H,2,7H2,1H3/t3-,4+,6-/m0/s1
