13
gdb 46483	3.1194	1.52781	1.10897	4.8789	59.54	-0.2606	-0.1014	0.1592	1013.5264	0.088461	-493.712284	-493.704866	-493.703922	-493.744918	26.645	
O	-0.0110134207	-0.004277103	-0.0379545438	-0.303552
C	 0.0075611949	 1.1875407565	-0.0246771009	 0.37368
O	-1.1075115622	 1.9620624749	-0.0564265814	-0.227998
C	-0.8228162565	 3.3772221028	 0.0128470852	-0.17968
C	 0.6883959014	 3.5136424977	-0.0543281308	 0.295372
C	 1.4318109866	 4.5930155402	-0.7303986948	-0.219225
O	 1.3353009996	 4.5408395315	 0.6870054574	-0.244073
C	 1.2350432069	 2.1184947345	 0.0212761929	 0.188805
O	 2.3791092244	 1.7699453633	 0.0943991015	-0.266384
H	-1.3473050302	 3.8617162598	-0.8139929994	 0.142275
H	-1.2075937684	 3.7660464339	 0.9601485423	 0.154232
H	 2.4153038303	 4.3704337031	-1.1399366905	 0.151195
H	 0.8683790338	 5.388947605	-1.2153217878	 0.135353
50.1603	145.0549	233.4594	249.7869	329.3283	343.3178	468.9927	473.8999	611.3542	624.5781	732.4623	800.5711	865.7368	879.1414	942.2074	1005.0909	1044.3994	1072.9644	1134.3552	1153.6654	1182.2271	1219.5207	1234.8645	1367.8603	1428.	1512.2254	1513.3023	1869.1885	1889.6582	3062.0779	3088.2824	3113.1251	3188.8599
O=C1OCC2(CO2)C1=O	O=C1OC[C@]2(CO2)C1=O	
InChI=1S/C5H4O4/c6-3-4(7)8-1-5(3)2-9-5/h1-2H2	InChI=1S/C5H4O4/c6-3-4(7)8-1-5(3)2-9-5/h1-2H2/t5-/m0/s1
