19
gdb 41208	2.86672	1.73278	1.54642	0.7061	75.33	-0.2459	0.0279	0.2738	947.1977	0.16081	-422.895123	-422.888174	-422.88723	-422.926036	29.126	
C	 0.0132870223	 1.5956587254	 0.0940333245	-0.206753
O	 1.4972931412	 1.5066147615	-0.024976584	-0.332873
C	 1.2057669974	 0.3123777883	-0.8793603017	 0.110328
C	 1.2072121564	-1.245369492	-1.1596338006	 0.001649
C	 1.7134635668	-2.1750757541	-0.0779321894	-0.204263
C	 1.512610434	-1.5064066623	 1.2912678569	-0.210121
C	 0.2292741765	-0.6562411336	 1.2867655084	-0.21832
C	 0.0262404193	 0.0322715927	-0.07208929	 0.347461
O	-0.2825259854	-1.0882282267	-1.0297727399	-0.363171
H	-0.279151034	 2.0158429426	 1.0596519836	 0.119016
H	-0.4120457346	 2.1594885659	-0.742656556	 0.118074
H	 0.9281223026	 0.7357290236	-1.8513106739	 0.099674
H	 1.471188519	-1.5449697424	-2.1764271702	 0.09252
H	 1.1520718321	-3.1128789555	-0.1563190103	 0.115841
H	 2.7692366485	-2.4129117342	-0.2502165841	 0.103802
H	 1.5012344021	-2.2437192274	 2.0992257182	 0.095572
H	 2.3577107636	-0.8358079289	 1.4790432739	 0.120494
H	-0.6569678768	-1.2836955657	 1.4381265168	 0.111415
H	 0.2608234989	 0.0704511428	 2.1028603677	 0.099653
173.1537	209.8032	281.0826	373.107	416.5162	437.3476	510.4771	519.2198	603.1581	734.6217	735.2708	774.403	807.26	831.5334	841.9426	881.8746	904.6164	915.8746	956.428	1007.634	1046.0289	1061.4576	1082.5218	1115.4082	1124.6942	1158.2026	1213.7279	1222.5224	1230.8205	1259.2376	1287.4175	1323.431	1344.3333	1359.8911	1375.0071	1390.8699	1463.1125	1470.8476	1476.4266	1500.0967	1504.9078	3024.1883	3036.9991	3039.2849	3042.3952	3046.7634	3074.8917	3086.9262	3091.4182	3098.4873	3119.663
C1OC2C3CCCC12O3	C1O[C@H]2[C@H]3CCC[C@@]12O3	
InChI=1S/C7H10O2/c1-2-5-6-7(3-1,9-5)4-8-6/h5-6H,1-4H2	InChI=1S/C7H10O2/c1-2-5-6-7(3-1,9-5)4-8-6/h5-6H,1-4H2/t5-,6+,7-/m1/s1
