21
gdb 58444	2.51216	1.3132	1.2427	2.3154	77.76	-0.2431	0.0582	0.3014	1160.54	0.181583	-424.189753	-424.180587	-424.179643	-424.223182	35.995	
C	 0.110893631	 1.381782284	-0.3371460309	-0.410491
C	 0.0663187161	-0.0630155097	 0.1761841699	 0.081233
O	 0.5187974364	-0.1441874377	 1.5211466013	-0.441131
C	-1.3291466613	-0.6620814623	 0.0795926086	 0.390841
O	-2.213413785	-0.0471308513	 1.0020070167	-0.491911
C	-2.0049776822	-1.1520601336	-1.1716508594	-0.136829
C	-1.0291976671	-1.8770399151	-2.1079611939	-0.245578
C	-0.6621121858	-2.860620697	-0.9458082369	-0.249201
C	-1.6408850106	-2.1240946624	-0.02763413	-0.090607
H	 1.1166185178	 1.7899846511	-0.2103568449	 0.126532
H	-0.1593088771	 1.4361318384	-1.3974007414	 0.113938
H	-0.5769361164	 2.0210020993	 0.228682096	 0.098499
H	 0.7676857397	-0.662578509	-0.4118390337	 0.084599
H	-0.2463828806	 0.0835840129	 2.0650756596	 0.282843
H	-2.4958869033	 0.7945468197	 0.6271791574	 0.287562
H	-2.9801923487	-0.7662588467	-1.447855306	 0.081188
H	-1.5427838853	-2.3877365225	-2.9252734684	 0.107154
H	-0.2189519441	-1.2785244958	-2.5361969435	 0.099275
H	-0.9844645997	-3.8811419794	-1.1618938364	 0.107146
H	 0.382145724	-2.8922161091	-0.6212724002	 0.109945
H	-2.2941783678	-2.577103254	 0.7076081158	 0.094991
70.8089	162.5108	189.804	236.6933	271.2881	291.6945	296.4563	360.5275	386.6726	462.8193	484.5387	524.1093	534.0615	711.9163	747.3236	782.9885	836.0569	881.3572	904.2227	923.9089	966.8753	982.7355	1003.8952	1022.4004	1032.397	1090.739	1097.2151	1102.1001	1127.3317	1159.0152	1218.3924	1245.1021	1252.097	1270.6181	1283.8183	1292.817	1321.1603	1358.9802	1396.1943	1415.1162	1456.6987	1484.9687	1492.897	1500.5625	1506.217	3028.8972	3048.3805	3059.6125	3067.377	3097.2915	3098.5422	3117.3598	3121.1161	3168.0598	3193.8978	3767.77	3797.249
CC(O)C1(O)C2CCC12	C[C@@H](O)[C@@]1(O)[C@H]2CC[C@@H]12	
InChI=1S/C7H12O2/c1-4(8)7(9)5-2-3-6(5)7/h4-6,8-9H,2-3H2,1H3	InChI=1S/C7H12O2/c1-4(8)7(9)5-2-3-6(5)7/h4-6,8-9H,2-3H2,1H3/t4-,5-,6+,7+/m1/s1
