17
gdb 32339	4.5424	1.01312	0.88644	4.7449	80.91	-0.2273	-0.0657	0.1616	1321.1335	0.136889	-418.039488	-418.03122	-418.030275	-418.073201	30.344	
C	 0.0507870475	 1.5673244956	-0.0937022077	-0.370875
C	-0.0693313753	 0.0409171447	 0.0519206728	-0.299556
C	 0.6678985322	-0.5036063583	 1.2466470979	 0.158178
C	 0.0566257568	-0.9788840957	 2.3506773727	 0.021808
O	 0.7130542245	-1.4456466822	 3.4180603658	-0.190087
C	 2.1151041378	-1.441405238	 3.4409142019	 0.430513
N	 2.6348155666	-1.8580183915	 4.515840002	-0.523174
N	 2.792092041	-0.9995633848	 2.3088104511	-0.302965
C	 2.1082920542	-0.5628470747	 1.3031986108	-0.019385
H	 1.09671578	 1.8783733854	-0.1838707499	 0.124595
H	-0.4791233878	 1.9148556358	-0.9855565203	 0.122145
H	-0.3724322843	 2.0769161452	 0.777270207	 0.125753
H	-1.1264536354	-0.2381728524	 0.1249377128	 0.110642
H	 0.3104038627	-0.4402356852	-0.8586377818	 0.115774
H	-1.0189204808	-1.0376932917	 2.4850865196	 0.142019
H	 3.6473380074	-1.8178053477	 4.4131271857	 0.234777
H	 2.679628593	-0.2279255244	 0.4350772197	 0.119839
53.4169	69.5051	163.3032	205.3394	313.0373	366.3366	385.8932	466.8427	493.915	548.6085	649.1195	730.9398	771.118	783.5846	811.465	863.1825	936.6128	959.2345	972.3054	1004.5417	1038.5191	1077.8846	1092.7125	1201.2072	1269.0225	1279.842	1297.7218	1355.9151	1394.1013	1411.9449	1432.2367	1481.921	1497.3112	1505.0985	1588.3954	1710.2923	1732.9279	3023.7262	3037.8302	3064.0301	3107.7937	3111.6377	3114.8182	3191.0342	3521.1044
CCC1=COC(=N)N=C1	CCC1=CN=C(OC1)[NH]	
InChI=1S/C6H8N2O/c1-2-5-3-8-6(7)9-4-5/h3-4,7H,2H2,1H3	InChI=1S/C6H9N2O/c1-2-5-3-8-6(7)9-4-5/h3,7H,2,4H2,1H3
