13
gdb 131702	4.22584	1.01853	0.82669	1.0003	68.91	-0.2764	-0.0541	0.2222	1288.9155	0.087967	-452.702608	-452.694439	-452.693495	-452.736085	28.772	
O	-0.0650555362	 1.3835946675	-0.4883108861	-0.406351
C	-0.0341720193	 0.1585449645	 0.1931725238	-0.16738
C	-1.3283621096	-0.5818745767	 0.0519345703	 0.387481
N	-2.25323892	-0.3379766712	-0.822390503	-0.370365
C	-3.1810678281	-1.3255532607	-0.5412278583	 0.195265
N	-2.8398219253	-2.1245743937	 0.4456607918	-0.169636
O	-1.5957245245	-1.623856825	 0.8436294141	-0.184879
C	-4.4003715658	-1.4772702507	-1.2462359899	 0.277975
C	-5.4314418016	-1.5986753165	-1.850374364	-0.359159
H	-0.6731546662	 1.2887064859	-1.2324269786	 0.306961
H	 0.7746803127	-0.5005693592	-0.1665484091	 0.131826
H	 0.1621542519	 0.3490216248	 1.2545977763	 0.147973
H	-6.3444776979	-1.706559719	-2.3831958673	 0.21029
63.2409	118.5598	135.4906	203.5347	261.396	280.2685	437.4916	459.6494	531.395	589.54	649.5569	664.4361	684.1678	760.2271	772.9579	931.6189	1023.1522	1026.9658	1061.7257	1111.3253	1226.1241	1269.548	1345.2338	1358.5186	1457.7679	1497.292	1513.4698	1616.2153	2255.9311	2964.1497	3063.0025	3500.4662	3778.5941
OCC1=NC(=NO1)C#C	OCc1nc(no1)C#C	
InChI=1S/C5H4N2O2/c1-2-4-6-5(3-8)9-7-4/h1,8H,3H2	InChI=1S/C5H4N2O2/c1-2-4-6-5(3-8)9-7-4/h1,8H,3H2
