18
gdb 15601	2.79211	1.91472	1.33931	2.367	67.7	-0.2451	-0.0249	0.2202	951.09	0.153427	-384.953142	-384.944847	-384.943903	-384.986847	29.316	
C	-0.4878747054	 1.4161356263	 0.036799425	-0.417393
C	 0.0144924316	-0.0277756185	 0.0149718855	-0.013375
C	 1.0575466748	-0.3274689985	-1.0894704037	-0.077304
O	 2.0622356357	-1.1635025246	-0.516463506	-0.253964
C	 1.5929530645	-1.6589470097	 0.7266758011	-0.10644
C	 0.7290126935	-0.529321877	 1.3078278596	-0.108923
C	 1.6038573177	 0.5301488756	 1.9428780363	 0.164797
O	 1.3307993045	 1.1210403765	 2.9571302331	-0.262674
H	 0.3345203702	 2.1294161858	 0.1536651415	 0.128089
H	-1.0071833058	 1.6572945834	-0.8963168853	 0.119619
H	-1.1872616991	 1.5791678169	 0.8620455638	 0.133029
H	-0.8462951256	-0.6900764008	-0.1311985443	 0.090576
H	 0.592854246	-0.8267649564	-1.9504530025	 0.100962
H	 1.5465897895	 0.584432377	-1.4527177531	 0.106453
H	 0.9898816759	-2.5724658778	 0.6008339514	 0.097509
H	 2.4677893827	-1.9097358529	 1.3354580326	 0.116798
H	 0.0078744511	-0.8661739577	 2.0563895049	 0.094413
H	 2.5538429582	 0.7331031926	 1.3971437801	 0.087828
45.7991	67.4423	141.7993	220.2936	234.3113	318.4509	332.9996	432.2379	471.9016	638.7344	708.6078	834.2061	905.6643	933.6221	947.1151	951.07	972.1794	1015.3406	1069.1972	1088.1132	1129.9429	1169.0052	1173.4582	1218.5436	1237.5752	1252.8392	1292.9671	1336.0425	1361.1586	1367.6702	1402.3043	1418.0777	1431.0524	1493.1255	1500.2614	1516.6079	1530.8403	1827.1208	2871.8826	2975.9532	3006.7372	3031.6084	3036.4213	3054.2499	3074.4443	3092.1436	3103.8336	3111.8084
CC1COCC1C=O	C[C@H]1COC[C@H]1C=O	
InChI=1S/C6H10O2/c1-5-3-8-4-6(5)2-7/h2,5-6H,3-4H2,1H3	InChI=1S/C6H10O2/c1-5-3-8-4-6(5)2-7/h2,5-6H,3-4H2,1H3/t5-,6+/m0/s1
