19
gdb 79776	2.87574	1.93561	1.72946	1.7656	76.56	-0.2472	0.063	0.3103	880.3789	0.161893	-385.815389	-385.808752	-385.807808	-385.846228	28.068	
O	 0.2365067728	 1.3918318873	-0.2514515128	-0.450425
C	-0.0093016477	 0.0328647265	 0.009654407	 0.180639
C	 0.2303924117	-0.6324772656	 1.3820121663	-0.119895
C	-0.7513589392	-0.1411986261	 2.521535928	-0.048875
C	-1.7733163221	 0.93121842	 2.0657018174	-0.262925
C	-2.3860248475	-0.1462013894	 1.1435860297	-0.035459
C	-1.4161194605	-0.6224445281	-0.0076664254	-0.115134
C	-0.8287370739	-1.7183591747	 0.9606868109	-0.041695
C	-1.7800820587	-1.2482654507	 2.0857689222	-0.037007
H	-0.0621192537	 1.9094649534	 0.4990210028	 0.283177
H	 0.595041056	-0.5124408492	-0.7256999508	 0.087137
H	 1.2493848502	-0.8582524232	 1.6977376075	 0.062948
H	-0.3167943048	-0.0762170041	 3.5191141703	 0.065762
H	-2.4631169791	 1.1384441238	 2.8914189228	 0.102565
H	-1.4577795182	 1.8959423897	 1.6562060767	 0.076615
H	-3.4412608823	-0.0888842959	 0.8764518195	 0.064295
H	-1.8855650184	-0.8416177301	-0.9666827977	 0.063065
H	-0.5863133828	-2.7383118363	 0.6704010671	 0.0632
H	-2.3548107217	-1.8676558771	 2.7723324385	 0.062013
100.0751	236.0055	266.9005	410.5896	515.8446	554.9845	620.2917	668.3169	725.6555	769.0762	779.4564	803.4574	816.3762	866.2851	871.0041	924.3503	932.0263	957.2685	985.2951	1015.8058	1035.0153	1048.8279	1071.8726	1077.6635	1094.0471	1125.941	1165.093	1166.6358	1172.2643	1184.4452	1194.2135	1243.5158	1246.6028	1262.7104	1275.6622	1282.9099	1298.0626	1328.1409	1344.8839	1442.5013	1510.0878	3033.7041	3034.8622	3073.6711	3094.2316	3097.1918	3106.8314	3109.3763	3119.3913	3136.0655	3867.4187
OC1C2C3CC4C1C2C34	O[C@H]1[C@H]2[C@H]3C[C@H]4[C@@H]1[C@@H]2[C@@H]34	
InChI=1S/C8H10O/c9-8-5-2-1-3-4(2)7(5)6(3)8/h2-9H,1H2	InChI=1S/C8H10O/c9-8-5-2-1-3-4(2)7(5)6(3)8/h2-9H,1H2/t2-,3+,4-,5-,6+,7+,8-
