14
gdb 132432	3.23852	1.40123	0.98394	0.7477	68.93	-0.2394	-0.0518	0.1876	1105.5838	0.100835	-478.016962	-478.009401	-478.008456	-478.0492	28.014	
C	-0.0300611868	 1.5181044127	 0.0117386666	-0.475363
C	-0.0078039545	 0.0203919317	-0.0277146797	 0.209396
C	-0.0357024134	-0.7088009448	-1.1643024956	-0.092409
N	-0.0152195196	-2.0996767905	-1.2091736096	-0.376308
C	 0.0330198058	-2.661133549	-0.0755713057	 0.407791
F	 0.0574191557	-3.963453998	 0.0392778492	-0.035311
O	 0.0658892081	-2.1030894697	 1.1300760633	-0.23408
C	 0.0474116281	-0.6871505798	 1.2416162399	 0.339824
N	 0.078455594	-0.1479788977	 2.3830240854	-0.523798
H	 0.8588702663	 1.906209491	 0.5193720272	 0.148505
H	-0.0726726267	 1.9336903064	-0.9979667363	 0.122407
H	-0.8922878949	 1.878498583	 0.5819688042	 0.148542
H	-0.0770634932	-0.2260339219	-2.1350982444	 0.12568
H	 0.115284541	-0.8407615636	 3.1297970956	 0.235125
116.0608	149.0044	171.7369	283.2731	334.8739	362.5059	420.2266	472.3275	538.1003	586.6317	725.1888	749.2078	758.3582	779.4686	851.3777	950.5633	981.3024	985.7319	1038.9964	1073.785	1175.8091	1244.2741	1269.8354	1375.41	1412.3865	1421.6689	1467.8781	1485.726	1649.2771	1707.1043	1762.2361	3040.8755	3098.163	3126.1198	3188.8753	3506.8764
CC1=CN=C(F)OC1=N	CC1=C(OC(=NC1)F)[NH]	
InChI=1S/C5H5FN2O/c1-3-2-8-5(6)9-4(3)7/h2,7H,1H3	InChI=1S/C5H6FN2O/c1-3-2-8-5(6)9-4(3)7/h7H,2H2,1H3
