14
gdb 124273	3.86689	1.31746	0.98859	2.5891	70.76	-0.2504	-0.0891	0.1613	1120.4782	0.100815	-432.88822	-432.880497	-432.879553	-432.921393	27.377	
C	 0.3584021465	 1.3869991559	 0.0785725819	-0.473844
C	 0.2305447974	-0.1182039109	 0.0926455967	 0.343402
O	 0.147010394	-0.7685056767	 1.1051610503	-0.269289
C	 0.2089189783	-0.8230800462	-1.2591994944	 0.274424
N	 0.0958231111	-2.1603449089	-1.2563049476	-0.233847
C	 0.0823284929	-2.7169868533	-2.4543364886	-0.004605
C	 0.1808121695	-1.9331440583	-3.608341759	 0.025978
N	 0.2908848956	-0.6104250248	-3.5434677922	-0.166584
N	 0.3050029072	-0.0447161316	-2.3392946539	-0.224541
H	 1.2760282747	 1.6889660168	-0.4353132884	 0.154357
H	-0.4651545547	 1.8365194411	-0.4843956446	 0.154367
H	 0.3602648832	 1.7499572662	 1.1065597732	 0.138739
H	-0.0075523035	-3.7996913435	-2.5094301034	 0.140122
H	 0.1720480878	-2.3662771658	-4.6034464899	 0.14132
42.5862	133.9802	145.2222	207.0667	361.9147	367.014	401.8585	473.0106	609.9624	618.9026	644.8474	793.5726	836.3515	895.1378	966.4464	1019.5764	1032.8805	1048.3087	1076.024	1122.7202	1156.8253	1194.0622	1320.6197	1381.2875	1390.2822	1445.6061	1454.0372	1464.5951	1569.9129	1585.3819	1815.414	3052.162	3114.8512	3156.6107	3160.9835	3192.6964
CC(=O)C1=NC=CN=N1	CC(=O)c1nccnn1	
InChI=1S/C5H5N3O/c1-4(9)5-6-2-3-7-8-5/h2-3H,1H3	InChI=1S/C5H5N3O/c1-4(9)5-6-2-3-7-8-5/h2-3H,1H3
