16
gdb 48741	3.50929	1.38898	1.19694	4.1424	71.19	-0.2472	-0.0359	0.2113	1032.433	0.124416	-437.809362	-437.802191	-437.801247	-437.841128	27.612	
O	-0.1743327897	 0.031348778	 0.2158763428	-0.266696
C	-0.0064178843	 1.2155594223	 0.0467355581	 0.045887
C	 1.2994399674	 1.8751449894	 0.0092889853	 0.255785
N	 1.4616861921	 3.3133657673	 0.3375404041	-0.351662
C	 1.751236436	 2.9080828357	-1.0242401239	-0.116523
C	 3.1613131954	 2.2737500652	-1.0639060054	-0.094005
C	 4.1587169239	 2.6962710387	 0.0407887257	-0.08484
O	 3.652241922	 1.6778568371	 0.9448023048	-0.286472
C	 2.7040069731	 1.2239846562	-0.0265467864	 0.054354
H	-0.8651430426	 1.9107637823	-0.1236389592	 0.059107
H	 0.5332221384	 3.736429247	 0.3664552111	 0.242627
H	 1.1875926319	 3.2968587364	-1.8642805193	 0.114169
H	 3.5372615264	 2.004607987	-2.0481661473	 0.094187
H	 5.2088944399	 2.5097362825	-0.2098369077	 0.104458
H	 4.0355227775	 3.7037467306	 0.4464398154	 0.122704
H	 2.6959359527	 0.1446789045	-0.1859067384	 0.106921
108.6952	155.2015	218.1553	262.8594	330.5797	454.1174	498.1738	600.1477	659.2379	727.0765	776.0055	833.8622	857.3463	870.2934	921.1058	951.9222	982.5164	1003.5844	1022.2388	1037.7732	1053.1992	1080.3309	1133.5	1167.8175	1183.1152	1204.2253	1228.6943	1269.7926	1310.4194	1337.3838	1371.0636	1393.264	1432.8066	1503.7841	1799.836	2826.8691	3036.0638	3101.4875	3109.308	3144.3133	3187.3034	3466.8965
O=CC12NC1C1COC21	O=C[C@]12N[C@H]1[C@H]1CO[C@@H]21	
InChI=1S/C6H7NO2/c8-2-6-4(7-6)3-1-9-5(3)6/h2-5,7H,1H2	InChI=1S/C6H7NO2/c8-2-6-4(7-6)3-1-9-5(3)6/h2-5,7H,1H2/t3-,4+,5-,6+/m1/s1
