16
gdb 27746	2.29545	1.46226	0.89489	5.1177	81.96	-0.182	-0.0143	0.1676	1231.0105	0.125733	-434.120606	-434.111876	-434.110932	-434.153602	33.041	
N	 0.0820858031	 1.3625192315	 0.1273340953	-0.600369
C	-0.0210907799	-0.0165320393	 0.0445879346	 0.381418
C	-1.1605330247	-0.8200758339	 0.0623608466	-0.305322
C	-0.7229365883	-2.1647837433	 0.0462518004	 0.230609
N	-1.5450842402	-3.2797899153	 0.1161602943	-0.606992
C	 0.6788867671	-2.1577665743	 0.0110472221	 0.167988
N	 1.0675512557	-0.8112981062	 0.0087449488	-0.358409
C	 1.6685413308	-3.1758801606	-0.0207407376	 0.044571
O	 2.8775670768	-2.9631224468	-0.0502876437	-0.363522
H	 0.8623031666	 1.7595906873	-0.3787791486	 0.254553
H	-0.7762470083	 1.8419499865	-0.1024032648	 0.259278
H	-2.1811379444	-0.4693665303	 0.0863988286	 0.084793
H	-2.4721129704	-3.1380063442	-0.2575293733	 0.249727
H	-1.1374001017	-4.1352930112	-0.2310256036	 0.253496
H	 2.0384503526	-0.5488583782	 0.0509845979	 0.270043
H	 1.273909215	-4.2168840519	-0.0141546772	 0.03814
128.734	155.8682	205.8896	234.6186	245.0417	280.3618	300.3861	405.0241	424.2578	477.7732	573.3142	588.8611	613.5054	644.7559	683.7695	693.9811	702.8348	750.8886	881.1085	1004.9473	1031.549	1067.7372	1097.6224	1213.7305	1223.3097	1271.0295	1383.3348	1399.7346	1494.0506	1546.0248	1586.6316	1618.926	1661.2802	1662.5464	1721.105	2862.9395	3243.1064	3556.559	3567.2949	3656.2897	3664.0583	3665.6001
NC1=CC(N)=C(N1)C=O	Nc1cc(N)c([nH]1)C=O	
InChI=1S/C5H7N3O/c6-3-1-5(7)8-4(3)2-9/h1-2,8H,6-7H2	InChI=1S/C5H7N3O/c6-3-1-5(7)8-4(3)2-9/h1-2,8H,6-7H2
