25
gdb 89178	2.30709	1.3381	1.12505	0.1495	93.86	-0.237	0.088	0.325	1295.1086	0.227447	-352.345077	-352.334873	-352.333929	-352.379031	39.935	
C	-0.0960623622	 1.5019572382	 0.0376955111	-0.409105
C	-0.0063713042	-0.0195357041	 0.0741896854	 0.022915
C	 1.0654376496	-0.6210640818	-0.892228036	-0.313046
C	 1.8681780099	-1.14764692	 0.3120873949	 0.31783
C	 3.3723448996	-1.0896566967	 0.3317374306	-0.499382
C	 0.7923101666	-0.5768509373	 1.2597880528	-0.140634
C	 1.0186822078	-2.0715183641	 1.164937604	 0.277634
C	-0.0042416955	-3.0341430992	 0.5828695349	-0.463408
C	 1.7081468226	-2.6597011823	 2.3892456248	-0.458058
H	 0.8935672751	 1.9576274474	 0.1575264624	 0.111692
H	-0.5129994227	 1.8494217683	-0.9141442164	 0.110324
H	-0.735728779	 1.8811946496	 0.8427541531	 0.110494
H	-1.0121315379	-0.4425777128	-0.0346060824	 0.062056
H	 0.73054216	-1.3577479389	-1.630033917	 0.087917
H	 1.6074872877	 0.1671302296	-1.4240298157	 0.093842
H	 3.7300748964	-0.0864034365	 0.0715894091	 0.11248
H	 3.7952041371	-1.3503509644	 1.304763266	 0.11721
H	 3.7956943818	-1.7848076859	-0.4051721462	 0.1155
H	 0.919822296	-0.0594593316	 2.2067842982	 0.068003
H	-0.516076908	-2.6447286583	-0.298895796	 0.11726
H	 0.4780387699	-3.9755262542	 0.2933799208	 0.109622
H	-0.7713410075	-3.2769594144	 1.3279768695	 0.110496
H	 0.9607928473	-2.9798187599	 3.124344842	 0.1123
H	 2.3094655326	-3.5385757927	 2.1278799479	 0.111814
H	 2.3645473371	-1.939764158	 2.8852144622	 0.114244
128.2858	164.4869	175.2043	194.9341	211.0095	247.775	249.1852	296.3041	330.0974	350.4544	380.5866	422.9053	459.3836	509.7326	625.9435	658.6465	719.4561	847.2077	888.7178	907.4135	930.5504	939.5279	955.8648	969.7585	1011.6318	1014.9608	1041.1248	1064.1249	1109.0187	1134.4168	1150.6919	1176.1702	1203.8895	1210.7661	1230.4622	1266.675	1284.2078	1308.8302	1369.1694	1401.5058	1408.9275	1413.3891	1426.8536	1435.4085	1483.2335	1485.9967	1488.4418	1493.2492	1495.66	1500.0753	1503.4591	1511.811	1517.0755	3017.1373	3021.2892	3021.9081	3024.49	3027.0434	3039.8348	3067.9528	3075.1926	3081.0523	3083.3893	3090.2914	3092.8274	3104.6588	3118.4338	3123.407	3143.99
CC1CC2(C)C1C2(C)C	C[C@H]1C[C@@]2(C)[C@@H]1C2(C)C	
InChI=1S/C9H16/c1-6-5-9(4)7(6)8(9,2)3/h6-7H,5H2,1-4H3	InChI=1S/C9H16/c1-6-5-9(4)7(6)8(9,2)3/h6-7H,5H2,1-4H3/t6-,7-,9-/m0/s1
