19
gdb 80343	2.16664	1.50546	1.29559	2.4595	79.69	-0.2468	0.0196	0.2664	1106.5769	0.159015	-382.048423	-382.039475	-382.038531	-382.081747	33.501	
C	-0.1266766787	 1.5381241167	-0.1108523202	-0.43945
C	 0.0391505989	 0.0480846999	 0.0847674801	-0.023551
N	 1.2480657753	-0.7349723114	-0.2749809938	-0.184952
C	 2.437541762	 0.0847726191	 0.1252450088	-0.181143
C	 2.028506097	 0.0560520275	 1.6291145137	-0.215805
C	 1.9239287877	 1.2892725488	 2.396043269	 0.276618
N	 1.8446063358	 2.2743334098	 2.997155343	-0.33915
C	 0.7466365455	-0.6681703858	 1.1707255373	 0.309149
C	 0.1848555126	-1.8451226061	 1.9112866082	-0.493512
H	 0.6604995148	 2.1414304475	 0.3416866891	 0.145451
H	-0.1701233252	 1.7721865278	-1.1802110363	 0.129212
H	-1.0722199631	 1.8580261864	 0.3380757874	 0.134138
H	-0.8341883253	-0.5065962982	-0.2559117258	 0.101514
H	 3.3574509334	-0.4669653257	-0.0704580769	 0.125463
H	 2.5018752677	 1.0673954561	-0.346871435	 0.125495
H	 2.6718267427	-0.6342099035	 2.1812351464	 0.132904
H	-0.314280019	-1.5186474979	 2.831147998	 0.13567
H	-0.5485729648	-2.3734558215	 1.2963170958	 0.136642
H	 0.9718059027	-2.5556030296	 2.1869761111	 0.125306
113.7046	128.9383	169.8755	182.4934	224.5152	267.142	315.7704	321.6472	432.6994	510.9807	524.9051	570.1205	642.9633	710.7019	749.2616	823.1303	862.5032	953.9642	965.5403	1012.3145	1059.1778	1061.6061	1083.4666	1113.5822	1132.4881	1148.3321	1191.7508	1206.1686	1254.7374	1306.4865	1337.2541	1351.5628	1414.2173	1419.3707	1463.2116	1482.9821	1488.2299	1492.4057	1509.1616	1515.6484	2348.1286	3029.6685	3042.967	3075.9715	3078.3932	3091.511	3102.2529	3114.2891	3119.3915	3133.6525	3148.1781
CC1N2CC(C#N)C12C	C[C@H]1N2C[C@@H](C#N)[C@@]12C	
InChI=1S/C7H10N2/c1-5-7(2)6(3-8)4-9(5)7/h5-6H,4H2,1-2H3	InChI=1S/C7H10N2/c1-5-7(2)6(3-8)4-9(5)7/h5-6H,4H2,1-2H3/t5-,6-,7-,9?/m1/s1
