21
gdb 76407	2.54817	1.17981	1.11977	1.8985	78.94	-0.2463	0.0612	0.3075	1251.6991	0.17979	-424.19061	-424.180503	-424.179558	-424.225421	37.149	
C	-0.1761259129	 1.0555989759	-1.8815847384	-0.426013
C	-0.1463302405	-0.114533411	-0.9221536237	-0.092344
C	 1.1515865755	-0.6785560202	-0.3559316408	-0.063441
C	 2.5158221661	-0.1334088726	-0.7186096805	-0.412335
C	 0.2076125298	 0.0832916508	 0.5370398899	 0.328895
O	 0.6659454096	 1.3403574119	 0.9660970345	-0.459686
C	-0.55293288	-0.6402449473	 1.6108445536	 0.013258
C	-2.0236040118	-0.6847963201	 1.6417934516	-0.187091
O	-1.2572714061	-1.8194184898	 1.2282082945	-0.228642
H	 0.4944790645	 1.8573223672	-1.5643454006	 0.126429
H	 0.1187297697	 0.7478303252	-2.8904995368	 0.120762
H	-1.1860545176	 1.4760774159	-1.9517976734	 0.109531
H	-0.9101668056	-0.8672603197	-1.0981522778	 0.097749
H	 1.1279443814	-1.7549193754	-0.2042620144	 0.096471
H	 2.530809509	 0.9575017428	-0.7228396604	 0.132371
H	 3.2673195296	-0.4678006859	 0.0045772952	 0.117767
H	 2.8274062048	-0.4875906552	-1.70734544	 0.113017
H	-0.0964628258	 1.9260177247	 1.0367531399	 0.284477
H	-0.0204039715	-0.7185659231	 2.5604494229	 0.098071
H	-2.5453563057	-0.7973982655	 2.5907816702	 0.117983
H	-2.5895594726	-0.1975844487	 0.8488181544	 0.112771
74.9381	140.8199	147.5692	151.366	182.817	207.3011	212.821	289.0872	320.762	340.4378	444.2565	520.4493	551.3521	588.9469	667.8183	783.7617	821.1694	875.9443	892.0661	954.4531	981.5964	1029.5908	1033.7301	1045.7575	1095.771	1122.7673	1145.5347	1148.5307	1155.2917	1173.0849	1180.4548	1242.8251	1249.4934	1288.8528	1333.5304	1365.8862	1405.4505	1413.404	1428.1302	1465.7388	1488.8324	1494.9471	1504.3528	1514.5104	1520.338	3030.6845	3036.7278	3083.4621	3084.7492	3090.4519	3096.0363	3117.5889	3129.2365	3141.1408	3149.3139	3172.9336	3789.8269
CC1C(C)C1(O)C1CO1	C[C@H]1[C@@H](C)[C@]1(O)[C@H]1CO1	
InChI=1S/C7H12O2/c1-4-5(2)7(4,8)6-3-9-6/h4-6,8H,3H2,1-2H3	InChI=1S/C7H12O2/c1-4-5(2)7(4,8)6-3-9-6/h4-6,8H,3H2,1-2H3/t4-,5+,6-,7-/m1/s1
