16
gdb 53362	4.65422	0.80085	0.72152	5.2701	74.77	-0.2616	0.0196	0.2812	1548.8691	0.12443	-437.911167	-437.902253	-437.901309	-437.946727	30.85	
C	 0.0613828021	 1.5323332584	-0.1365106111	-0.499813
C	 0.0352163243	 0.0826441935	-0.0193707495	 0.092773
C	 0.0011173866	-1.1167147755	 0.0720741547	 0.058744
C	-0.0100195881	-2.5628126059	 0.1855695222	-0.043566
C	 0.5325560275	-3.1078849082	 1.5315925801	-0.195284
N	-0.2978430102	-4.2872541413	 1.6688067726	-0.368079
C	-1.4871039716	-4.1399870685	 0.980331704	 0.473258
O	-2.4812065241	-4.8019914498	 1.0735235461	-0.384787
O	-1.3569160856	-3.0859843757	 0.1162647105	-0.24113
H	 0.6109158312	 1.8493080269	-1.0291753371	 0.155383
H	-0.9551672814	 1.9332280341	-0.210356501	 0.161711
H	 0.53889808	 1.9935169634	 0.7345600262	 0.153485
H	 0.5522985301	-3.0121957054	-0.6432986047	 0.122678
H	 1.5966006165	-3.3478374181	 1.4653205833	 0.128808
H	 0.380370107	-2.3788672528	 2.3377040389	 0.122499
H	-0.3373690644	-4.810521265	 2.5287298947	 0.263319
24.3725	65.0312	93.2217	176.9725	196.3231	295.5947	329.7385	440.1313	465.3786	504.3065	558.7974	655.0217	727.8023	770.5578	823.8059	914.8483	967.5018	1033.8675	1050.0001	1053.7068	1081.7344	1090.1837	1189.0339	1212.4865	1219.3171	1326.159	1356.0399	1384.7963	1413.1475	1432.6763	1474.6162	1476.7191	1529.8665	1895.7753	2378.809	3016.0798	3025.4741	3032.2684	3094.4805	3095.533	3096.9797	3649.1645
CC#CC1CNC(=O)O1	CC#C[C@H]1CNC(=O)O1	
InChI=1S/C6H7NO2/c1-2-3-5-4-7-6(8)9-5/h5H,4H2,1H3,(H,7,8)	InChI=1S/C6H7NO2/c1-2-3-5-4-7-6(8)9-5/h5H,4H2,1H3,(H,7,8)/t5-/m0/s1
