21
gdb 105377	2.63959	1.20895	0.96074	3.0508	78.83	-0.2493	0.083	0.3324	1292.5895	0.182197	-424.186361	-424.17725	-424.176306	-424.220229	34.783	
O	-0.2421461398	 1.7215571693	 0.0555097658	-0.432942
C	-0.0800508418	 0.3158349318	 0.0948683641	-0.135977
C	-1.3999819823	-0.4448778043	-0.0051515098	 0.362906
C	-1.8149372526	-0.9826465858	-1.3509709723	-0.313639
C	-1.3079481944	-1.9258726424	-0.2854534274	-0.309979
C	-2.5056591583	 0.0679151986	 0.9084923648	-0.314048
C	-2.1087931427	 0.139610057	 2.3642755531	 0.084779
O	-1.2527812414	 1.2387925799	 2.7384828933	-0.239198
C	-2.5904679578	 1.2071597615	 3.2491142747	-0.181444
H	-0.5208517306	 1.9814912385	 0.9438091051	 0.29215
H	 0.5585691952	 0.0417385179	-0.7528851998	 0.096407
H	 0.4503661183	 0.0119694539	 1.0099061416	 0.09449
H	-2.8729470319	-1.0074392995	-1.5920387298	 0.106689
H	-1.1720641403	-0.775585006	-2.2000340223	 0.115481
H	-0.3214093239	-2.3604250112	-0.4155779123	 0.111352
H	-2.0202173981	-2.5904574939	 0.1931360327	 0.104931
H	-2.8029307541	 1.0707224536	 0.5807373978	 0.113518
H	-3.3884540619	-0.5770798595	 0.8166747189	 0.100645
H	-1.8118657981	-0.8032007449	 2.8252267537	 0.100788
H	-3.2591022702	 1.9686056239	 2.8506091567	 0.121619
H	-2.6674339331	 1.0357623714	 4.3212001514	 0.121471
83.5642	122.0705	147.6076	175.1408	223.1591	286.0266	338.4859	354.8087	405.2405	473.564	526.0686	565.9096	747.417	775.2128	789.2655	847.5245	877.921	923.9109	935.5345	943.9716	959.794	999.8363	1037.6296	1055.6709	1078.4951	1086.7951	1099.5643	1122.4766	1158.5889	1172.5425	1186.4925	1224.8559	1239.6118	1292.0192	1310.4612	1331.3796	1368.6071	1414.9534	1441.2293	1449.2428	1464.7228	1472.5763	1494.6773	1508.3979	1528.4895	2988.1516	3028.3423	3056.8379	3071.221	3090.2423	3109.5076	3121.7034	3127.3409	3178.9511	3198.2679	3213.9403	3749.2266
OCC1(CC1)CC1OC1	OCC1(CC1)C[C@H]1OC1	
InChI=1S/C7H12O2/c8-5-7(1-2-7)3-6-4-9-6/h6,8H,1-5H2	InChI=1S/C7H12O2/c8-5-7(1-2-7)3-6-4-9-6/h6,8H,1-5H2/t6-/m1/s1
