19
gdb 127504	2.34372	1.58706	0.96359	2.3102	80.35	-0.2023	0.0336	0.2359	1229.0656	0.158244	-419.247008	-419.236877	-419.235933	-419.282987	35.315	
C	 0.0182954554	 1.3793067708	-0.0662382589	-0.322108
N	 0.0665372513	-0.059771564	 0.0295678619	-0.033767
N	-0.0714207037	-0.8041920598	-1.1041535558	-0.38979
C	-0.0940546686	-2.0505144241	-0.6655659197	 0.37546
O	-0.202588523	-3.1041256343	-1.5074661046	-0.432745
C	 0.0139710955	-2.1538457869	 0.7395350968	 0.012643
C	 0.0351114978	-3.4122621575	 1.5480839891	-0.509497
C	 0.1087362814	-0.8318439526	 1.1505849946	 0.301998
C	 0.2366401991	-0.2474347206	 2.5193953981	-0.507032
H	 0.6732651852	 1.8308617589	 0.6831101388	 0.133313
H	 0.3651285464	 1.6620904796	-1.0606709013	 0.154415
H	-0.9983768317	 1.7679824708	 0.0753165438	 0.131355
H	-0.2633785559	-2.7441686538	-2.4010066167	 0.299166
H	 0.004789259	-3.2016925106	 2.6209820622	 0.115268
H	-0.8229500406	-4.0513212268	 1.3124385205	 0.133016
H	 0.9354713042	-4.007804187	 1.3552076722	 0.129993
H	 1.1648539612	 0.3244719261	 2.6371581866	 0.135229
H	-0.5947247798	 0.4256171726	 2.7596935154	 0.133964
H	 0.2447989868	-1.0425248809	 3.267570327	 0.13912
37.2693	63.3611	118.7905	128.3479	170.9084	246.2247	274.4467	281.9279	308.9064	364.7135	417.341	568.6626	573.4944	625.2456	633.7909	726.6265	730.9626	866.8598	957.1722	1053.522	1058.8967	1065.9794	1111.6571	1145.3407	1177.4136	1209.7731	1279.3417	1351.4091	1413.9624	1422.5329	1432.9553	1457.943	1478.4106	1482.6244	1489.6409	1489.903	1496.6109	1507.9092	1538.6705	1567.1143	1642.5369	3019.1153	3024.75	3026.3397	3072.4524	3074.3565	3096.5343	3104.4304	3127.7648	3150.1075	3795.864
CN1N=C(O)C(C)=C1C	Cn1nc(O)c(C)c1C	
InChI=1S/C6H10N2O/c1-4-5(2)8(3)7-6(4)9/h1-3H3,(H,7,9)	InChI=1S/C6H10N2O/c1-4-5(2)8(3)7-6(4)9/h1-3H3,(H,7,9)
