17
gdb 43091	3.28326	1.70848	1.62118	3.684	70.78	-0.2264	-0.0209	0.2055	885.7217	0.139166	-421.84085	-421.834632	-421.833687	-421.871304	25.965	
O	 0.0100526268	 0.0175280414	-0.0198635987	-0.319071
C	-0.0105104929	 1.2125438473	 0.0333344128	 0.440723
C	-1.1106356223	 2.2774375184	-0.0026896993	-0.174845
C	-1.2052473783	 2.9384502671	 1.4108723318	-0.23864
C	 0.0708411688	 3.7994481105	 1.4153732001	 0.094336
C	-0.0024463477	 4.5183465046	 0.061726182	-0.234351
C	-0.0518082447	 3.2131086937	-0.7278570448	-0.068353
C	 1.0531493721	 2.3254258275	-0.0472975616	-0.025761
O	 1.2018649622	 2.9248074182	 1.2551979612	-0.282071
H	-2.067240152	 2.0324320776	-0.4633427232	 0.089908
H	-2.1026540687	 3.5601504561	 1.4962536175	 0.1079
H	-1.2187905109	 2.2034125602	 2.2190196311	 0.124226
H	 0.237129349	 4.4031540917	 2.3072061889	 0.085885
H	-0.8978963631	 5.1341603168	-0.0542243105	 0.106431
H	 0.8881542778	 5.1170764532	-0.1433621542	 0.113072
H	-0.0669345595	 3.2322653694	-1.8147723505	 0.088289
H	 2.0353610733	 2.1418652663	-0.4847496525	 0.092324
133.173	260.795	409.9229	413.0659	467.6058	522.3143	595.2072	702.4123	786.5453	802.1452	816.3638	848.0562	857.5501	894.1497	915.4366	937.9723	968.4214	984.9853	1000.9093	1036.9192	1054.6258	1077.4917	1112.9234	1129.3124	1170.0078	1199.782	1224.0882	1232.3469	1240.9525	1277.1751	1291.8568	1315.2634	1331.0062	1343.3135	1478.5125	1495.4557	1891.8659	3050.7475	3069.1894	3108.724	3109.8714	3120.5017	3123.9639	3130.0488	3153.7786
O=C1C2CC3CC2C1O3	O=C1[C@H]2C[C@@H]3C[C@H]2[C@H]1O3	
InChI=1S/C7H8O2/c8-6-4-1-3-2-5(4)7(6)9-3/h3-5,7H,1-2H2	InChI=1S/C7H8O2/c8-6-4-1-3-2-5(4)7(6)9-3/h3-5,7H,1-2H2/t3-,4+,5-,7-/m1/s1
