20
gdb 86988	5.76251	0.65597	0.64783	0.7963	83.6	-0.2159	0.0312	0.2471	1777.5944	0.168279	-403.068766	-403.058967	-403.058023	-403.104366	35.265	
C	 0.055743433	 1.4660632882	 0.1463900429	-0.315821
N	-0.0448320929	 0.0245852147	 0.1696383968	-0.070594
C	-1.3328573418	-0.5887324252	 0.5497230495	-0.206472
C	-0.548020371	-1.6965172533	 1.2730226685	 0.147697
C	 0.659034244	-0.7162053984	 1.23369122	-0.20024
O	-1.0877731191	-2.0533485951	 2.5158309251	-0.250162
C	-0.3182995147	-3.0381237287	 3.1845499992	-0.218307
C	-0.9544942344	-3.3948193207	 4.4453352395	 0.280395
C	-1.4567891317	-3.7073403218	 5.4901121815	-0.413307
H	 1.0873481867	 1.7626120953	-0.0717906918	 0.12007
H	-0.5831996049	 1.8697499667	-0.6464762338	 0.120962
H	-0.242627404	 1.939179696	 1.1016016496	 0.091475
H	-1.9063865329	 0.0018145364	 1.2824646241	 0.098528
H	-1.9840297331	-0.8653963004	-0.2853672595	 0.10342
H	-0.3817699854	-2.5849281858	 0.6477667478	 0.077491
H	 1.6494922091	-1.0928558021	 0.9567427961	 0.098833
H	 0.7282893377	-0.1629811372	 2.1859039137	 0.089763
H	-0.214323769	-3.9366861352	 2.5526561712	 0.120873
H	 0.7020010508	-2.6680383872	 3.3783109278	 0.124283
H	-1.9071901365	-3.9795610961	 6.4125055918	 0.201112
42.3982	80.3754	86.6706	146.0384	221.7513	252.9096	319.2206	328.2422	338.147	391.5709	451.2146	538.7854	610.013	648.7056	676.4384	803.2163	889.6807	961.6826	970.0716	992.0902	1030.2035	1041.3263	1045.2885	1105.8758	1123.9348	1141.1789	1175.3419	1216.3712	1219.0758	1241.6111	1253.6129	1277.0779	1299.8022	1331.9296	1374.8106	1435.8897	1452.418	1484.8429	1495.5161	1499.4072	1500.5113	1525.7289	2249.1085	2924.259	2957.7328	2959.9599	2979.5036	2980.677	3005.8036	3054.6727	3059.7169	3070.3809	3096.6314	3506.483
CN1CC(C1)OCC#C	CN1CC(C1)OCC#C	
InChI=1S/C7H11NO/c1-3-4-9-7-5-8(2)6-7/h1,7H,4-6H2,2H3	InChI=1S/C7H11NO/c1-3-4-9-7-5-8(2)6-7/h1,7H,4-6H2,2H3
