17
gdb 81624	4.43962	0.89229	0.81218	2.0738	71.3	-0.2609	-0.0009	0.2599	1401.3963	0.134054	-458.910758	-458.902402	-458.901458	-458.944782	30.381	
C	-0.0919927898	 1.58424445	 0.0335732843	-0.437253
C	-0.0417620796	 0.0706585229	-0.0436831568	 0.030107
C	 1.2023353102	-0.6081301461	-0.6895171367	-0.015592
O	 2.0145470291	-0.2151698919	 0.484468683	-0.307863
C	 0.7405338531	-0.7123064423	 1.0520320636	-0.015577
C	 0.8936483583	-1.9121309221	 0.0857426768	 0.161341
O	-0.2549264216	-2.6583876008	-0.2635621265	-0.202958
C	-0.1533028968	-4.0045787005	-0.3163022412	 0.171192
O	-1.0733727279	-4.7068706225	-0.6022929733	-0.2702
H	 0.8809847229	 1.9915918906	 0.3155775994	 0.138905
H	-0.3828838097	 2.0104222664	-0.9322322494	 0.12158
H	-0.8337917998	 1.9085268293	 0.7708691973	 0.121582
H	-0.998862904	-0.3749490341	-0.3241358697	 0.104681
H	 1.6449271111	-0.4768508912	-1.6771244977	 0.102381
H	 0.6335692573	-0.7050459693	 2.1369252196	 0.102378
H	 1.7633179616	-2.5443757812	 0.2785357031	 0.108859
H	 0.8625881657	-4.3665628571	-0.0682576558	 0.086438
35.6169	126.6566	142.2847	214.6136	268.3258	289.4633	351.9742	391.5037	463.3591	663.812	734.0268	754.4999	797.5802	800.3419	890.6983	915.4877	940.8276	1022.5712	1042.6	1065.8441	1087.0589	1094.8562	1136.9476	1146.7998	1154.6176	1179.602	1198.8904	1221.7483	1260.7803	1284.0587	1369.7522	1397.0075	1414.7288	1442.112	1494.5883	1503.6398	1871.491	2959.7639	3040.3253	3093.0319	3097.294	3098.7415	3120.353	3126.9208	3135.7518
CC1C2OC1C2OC=O	C[C@H]1[C@H]2O[C@@H]1[C@H]2OC=O	
InChI=1S/C6H8O3/c1-3-4-6(8-2-7)5(3)9-4/h2-6H,1H3	InChI=1S/C6H8O3/c1-3-4-6(8-2-7)5(3)9-4/h2-6H,1H3/t3-,4+,5-,6-
