20
gdb 92229	2.88516	1.68947	1.37166	1.663	77.29	-0.226	0.0814	0.3074	1009.2378	0.173142	-403.112571	-403.105124	-403.10418	-403.14412	30.184	
C	-0.1019331687	 1.5475613432	-0.2036253963	-0.42049
C	 0.0217236236	 0.0634220517	 0.0644186135	 0.155058
O	 0.8926454218	-0.6517706356	-0.856534119	-0.317392
C	 1.3361955114	-1.5232625822	 0.2191885806	 0.111252
C	 2.8471827981	-1.6390173534	 0.4243177461	-0.193835
N	 3.2863110776	-0.5554400381	 1.3275942174	-0.106477
C	 3.0230942007	 0.7794816681	 0.7827990105	-0.251877
C	 2.0643580528	 0.1808349162	 1.7554650884	-0.037806
C	 0.8037898922	-0.5209492781	 1.2689671777	-0.102517
H	 0.8421087799	 2.0771654009	-0.0696163929	 0.129984
H	-0.4493010491	 1.7096991439	-1.2292877698	 0.129766
H	-0.8436732687	 1.9838102622	 0.4743216429	 0.118029
H	-0.9810721765	-0.3904805658	 0.0273472167	 0.073162
H	 0.8342977447	-2.4967626332	 0.1565195159	 0.076132
H	 3.0728173379	-2.5941539596	 0.9119585515	 0.107866
H	 3.3937525254	-1.6050640124	-0.5234641475	 0.120249
H	 3.7083231392	 1.5522007548	 1.1229261775	 0.110587
H	 2.731591809	 0.8484332854	-0.2595363375	 0.134074
H	 2.0717492765	 0.5390436924	 2.7806152084	 0.090529
H	 0.2060919022	-0.8950797005	 2.1017153559	 0.073706
156.0915	180.004	197.347	277.5593	353.4905	380.4265	418.1536	547.4666	612.9101	708.4702	734.4274	785.7187	799.5247	843.2953	864.4128	897.6638	920.8002	939.1883	982.6399	1031.5936	1039.2534	1060.5168	1087.0195	1118.9517	1125.4688	1140.1557	1159.1245	1173.2265	1216.7572	1229.572	1252.2442	1281.773	1297.167	1332.0551	1344.368	1356.3555	1382.7417	1402.7782	1424.8337	1478.2167	1484.8657	1496.3084	1502.1207	2973.3392	3023.7231	3042.6064	3044.5534	3090.5783	3095.9124	3103.9844	3108.3505	3144.5555	3149.3454	3206.4963
CC1OC2CN3CC3C12	C[C@H]1O[C@H]2CN3C[C@H]3[C@@H]12	
InChI=1S/C7H11NO/c1-4-7-5-2-8(5)3-6(7)9-4/h4-7H,2-3H2,1H3	InChI=1S/C7H11NO/c1-4-7-5-2-8(5)3-6(7)9-4/h4-7H,2-3H2,1H3/t4-,5+,6+,7-,8?/m1/s1
