22
gdb 121037	5.32185	0.71414	0.65321	3.4237	84.41	-0.2533	0.0335	0.2868	1757.1448	0.195092	-404.383577	-404.374123	-404.373179	-404.418515	34.856	
C	-0.1814905236	 1.5390181036	-0.0270966851	-0.380427
C	 0.0168024428	 0.0208568837	-0.0233060643	-0.174188
C	 0.7255833388	-0.485356708	 1.2398098707	-0.193499
C	 0.897403632	-2.0039424981	 1.2931540458	-0.002235
C	 1.8088512393	-2.5884173118	 0.1994887955	-0.089287
O	 2.3106156878	-3.82594122	 0.7273737981	-0.238748
C	 2.2148985281	-3.836524852	 2.0932826426	 0.40804
N	 2.5947245332	-4.7880713085	 2.8303392345	-0.542248
C	 1.585920019	-2.542194971	 2.5578678634	-0.32319
H	 0.778573387	 2.0640815374	 0.0273391488	 0.116321
H	-0.6919862716	 1.8724262585	-0.9356879511	 0.11506
H	-0.7823755336	 1.8605335442	 0.830707655	 0.116912
H	-0.9576800492	-0.4771803078	-0.1134351541	 0.099155
H	 0.5903848328	-0.2720492836	-0.9123021076	 0.100645
H	 1.7135519507	-0.0099705736	 1.3220632031	 0.095329
H	 0.1594525308	-0.1615829926	 2.1229303906	 0.101338
H	-0.0878402275	-2.4799223935	 1.2032871703	 0.086135
H	 1.2970472137	-2.8107518714	-0.7393924251	 0.119563
H	 2.6547167067	-1.9190900912	-0.0128794731	 0.105081
H	 2.9974490334	-5.5375284856	 2.264463081	 0.219387
H	 2.379350518	-1.858647336	 2.8873643964	 0.125569
H	 0.9206081314	-2.7076974728	 3.4056313246	 0.135285
64.3314	89.4771	100.8112	158.1998	182.552	248.9702	303.723	321.261	431.4482	476.1317	523.5881	632.4056	681.8735	745.4013	846.291	852.395	892.0422	895.5166	909.1869	919.6144	1009.8415	1013.5422	1039.5808	1064.1956	1084.4712	1114.1399	1136.2737	1154.8995	1197.7787	1239.4584	1266.5344	1274.697	1292.5575	1313.2841	1332.9101	1355.3177	1374.3147	1396.708	1411.244	1414.4713	1472.73	1483.5323	1493.4686	1499.9403	1509.6436	1521.9808	1780.064	3003.7745	3005.3078	3015.597	3021.8384	3031.0458	3034.5297	3037.9125	3059.1875	3097.9732	3102.3471	3105.0764	3130.2878	3467.6287
CCCC1COC(=N)C1	CCC[C@H]1CO[C]([NH])C1	
InChI=1S/C7H13NO/c1-2-3-6-4-7(8)9-5-6/h6,8H,2-5H2,1H3	InChI=1S/C7H13NO/c1-2-3-6-4-7(8)9-5-6/h6,8H,2-5H2,1H3/t6-/m1/s1
