15
gdb 99565	2.36272	1.22097	0.96033	2.5086	66.45	-0.3151	-0.0114	0.3038	1224.5345	0.110403	-453.940942	-453.931272	-453.930328	-453.976105	32.902	
C	 0.1828607648	 1.3465119796	 0.1822006193	-0.253874
O	-0.0776233827	-0.0315426333	-0.0588163065	-0.248047
C	 0.5723502038	-0.571024184	-1.1797455818	-0.05326
C	 2.0384642515	-0.6320585695	-0.9918542089	 0.285719
N	 3.1842703213	-0.6470691409	-0.8485052449	-0.306535
C	-0.0114764119	-1.997274095	-1.3471059554	-0.031688
O	 0.1263948827	-2.7422463457	-0.1703785749	-0.3997
C	-1.4234866417	-1.8882615284	-1.7812691982	 0.274596
N	-2.5235934287	-1.8096334215	-2.123375699	-0.307149
H	 1.2466477767	 1.5209801148	 0.3846547901	 0.14573
H	-0.1304034647	 1.9592410908	-0.6732720995	 0.130095
H	-0.4046014148	 1.6222327767	 1.0586768918	 0.152134
H	 0.368219218	 0.0180872646	-2.0870576084	 0.1398
H	 0.5479469449	-2.522307828	-2.1276779563	 0.161947
H	-0.2210362991	-2.1993376603	 0.5504903827	 0.310233
64.5613	84.5284	124.5597	160.0683	186.5137	197.7399	247.4516	300.8421	350.8096	410.9281	451.546	497.9825	584.9944	598.4812	736.0981	883.8077	914.0256	1001.5279	1017.8234	1102.9135	1154.6463	1183.1194	1207.063	1276.6051	1300.2084	1344.5843	1361.819	1430.1939	1482.1008	1488.3968	1505.5674	2360.2784	2363.2477	2999.7495	3010.8253	3076.6926	3080.761	3147.0695	3771.1397
COC(C#N)C(O)C#N	CO[C@@H](C#N)[C@@H](O)C#N	
InChI=1S/C5H6N2O2/c1-9-5(3-7)4(8)2-6/h4-5,8H,1H3	InChI=1S/C5H6N2O2/c1-9-5(3-7)4(8)2-6/h4-5,8H,1H3/t4-,5-/m0/s1
