16
gdb 32163	3.03291	1.27314	0.90211	2.7723	75.16	-0.2305	-0.0103	0.2202	1227.7734	0.126272	-434.12786	-434.119561	-434.118616	-434.160987	30.744	
N	 0.0466337325	 1.379096557	 0.1317682393	-0.565022
C	-0.0064253995	 0.0158270093	 0.0515887005	 0.404154
C	-1.2278817861	-0.6814521783	 0.0433821517	-0.244912
C	-1.1538121922	-2.0585863293	 0.0006104127	 0.310795
C	-2.3834728013	-2.929911134	-0.0145105255	-0.154767
O	-3.5483704439	-2.1270755212	-0.0067946061	-0.419207
N	 0.0173015767	-2.7235598621	-0.0292813122	-0.331034
C	 1.1029651312	-1.9591654376	-0.0174070947	 0.060959
N	 1.1691213175	-0.6289684706	 0.017219285	-0.326203
H	 0.941445958	 1.7956605408	-0.071037121	 0.260649
H	-0.7688439521	 1.9130002707	-0.1165882733	 0.258127
H	-2.1839172162	-0.1757979438	 0.0710834635	 0.111858
H	-2.3315804355	-3.5743104115	-0.9058616701	 0.115503
H	-2.3363604385	-3.5971576658	 0.8602296762	 0.116056
H	-4.3130909115	-2.7083251941	 0.0077096093	 0.294262
H	 2.059115881	-2.4788736496	-0.0430269854	 0.108782
68.1993	169.4942	192.994	195.7648	231.4181	368.6711	386.4322	454.9021	464.0911	493.1782	569.9883	594.8819	631.446	800.3427	816.9359	875.8754	974.4171	1000.7084	1006.8264	1040.2636	1066.2292	1097.9082	1171.8811	1221.8717	1243.021	1295.9324	1313.0274	1369.3135	1436.0367	1471.0711	1499.7654	1510.3894	1593.9057	1626.4181	1651.5387	2979.5835	3005.3848	3149.3524	3219.575	3597.259	3722.0211	3848.5128
NC1=CC(CO)=NC=N1	Nc1cc(CO)ncn1	
InChI=1S/C5H7N3O/c6-5-1-4(2-9)7-3-8-5/h1,3,9H,2H2,(H2,6,7,8)	InChI=1S/C5H7N3O/c6-5-1-4(2-9)7-3-8-5/h1,3,9H,2H2,(H2,6,7,8)
