18
gdb 96946	4.10949	1.34122	1.19713	2.5498	78.14	-0.2358	0.0283	0.2641	1079.9389	0.149309	-401.926743	-401.919348	-401.918404	-401.958885	28.736	
C	-0.1022099171	 1.4218899487	 0.0874695359	-0.331708
N	-0.0653469244	-0.0320206949	 0.0503100878	-0.343356
C	 0.6100062896	-0.6537195993	 0.9093853879	 0.461086
O	 1.3382087178	-0.0757299389	 1.9364805621	-0.25844
C	 2.1259238113	-1.0974129809	 2.5295074742	 0.094591
C	 1.457680271	-2.3317956809	 3.1017242877	-0.101987
C	 0.0878748141	-2.5236650196	 2.4568271306	-0.233711
C	 0.7296417229	-2.1464853545	 1.0703686294	-0.163201
C	 2.1307967855	-2.3418204617	 1.7196114664	-0.116117
H	 0.7086469798	 1.873783754	 0.6705427168	 0.121391
H	-0.0625104049	 1.8030937436	-0.9378925775	 0.120461
H	-1.0564185415	 1.7544763444	 0.5148397565	 0.124106
H	 3.0168201619	-0.7096653806	 3.0051979915	 0.112842
H	 1.7990183805	-2.7700440544	 4.0325843156	 0.091231
H	-0.2073285428	-3.5749982546	 2.464389391	 0.113752
H	-0.7457225378	-1.9073730876	 2.8081906598	 0.110859
H	 0.4280484498	-2.7163852416	 0.1974069062	 0.098597
H	 2.9914805844	-2.866302011	 1.3275990581	 0.099605
80.5369	111.9286	226.1219	245.409	355.8724	443.802	481.6536	642.5482	714.2	735.6934	758.6431	795.4951	798.1773	838.4406	900.1227	923.6654	971.4223	997.1889	1008.9417	1017.4411	1038.3708	1059.0182	1072.4948	1121.7409	1128.047	1134.2298	1158.5917	1196.9409	1198.8158	1229.7543	1269.6868	1305.404	1325.0414	1405.0781	1438.1879	1491.6252	1497.2663	1498.9741	1809.199	3014.2804	3051.4848	3072.4354	3091.7944	3113.1834	3173.7991	3176.9598	3203.2734	3215.8831
CN=C1OC2C3CC1C23	CN=C1O[C@H]2[C@H]3C[C@@H]1[C@@H]23	
InChI=1S/C7H9NO/c1-8-7-4-2-3-5(4)6(3)9-7/h3-6H,2H2,1H3	InChI=1S/C7H9NO/c1-8-7-4-2-3-5(4)6(3)9-7/h3-6H,2H2,1H3/t3-,4+,5-,6-/m0/s1
