21
gdb 111970	2.30561	1.31764	1.06142	1.5094	79.47	-0.2503	0.0115	0.2618	1230.6116	0.182447	-424.227804	-424.218291	-424.217347	-424.261883	36.034	
C	-0.7923375148	 1.2312653413	-0.1136967719	-0.401333
C	-0.022963441	-0.0875448952	-0.0636497915	-0.036668
C	 1.0892183165	-0.2231791995	-1.1461972716	 0.08969
O	 1.7276344629	 1.0074258069	-1.5046797378	-0.433423
C	 2.0604361965	-1.1829423937	-0.5034443529	-0.128624
C	 1.8555901668	-1.2858925137	 0.8104141436	-0.052425
C	 0.6739000022	-0.4658654751	 1.2802550021	-0.054846
C	 1.1158797811	 0.715205366	 2.1516441388	-0.080166
O	 1.7669395509	 0.1796415334	 3.2945571598	-0.422825
H	-0.1326798626	 2.0935751944	 0.0098101094	 0.119762
H	-1.2871064621	 1.3460277264	-1.0834989631	 0.115309
H	-1.5655396348	 1.270104733	 0.6606727019	 0.107496
H	-0.7288927724	-0.9014499691	-0.2693103573	 0.081292
H	 0.6679687438	-0.5893828084	-2.0885645718	 0.081148
H	 2.3668118267	 1.2083876744	-0.812494097	 0.275254
H	 2.8655414669	-1.6499825633	-1.0600139559	 0.095495
H	 2.4628659821	-1.8577800742	 1.5020882579	 0.110221
H	 0.0045949325	-1.0700452005	 1.9057053513	 0.08346
H	 1.7929063988	 1.3718261713	 1.5803445468	 0.072615
H	 0.2404398659	 1.3161192163	 2.4394132044	 0.090999
H	 2.0211196941	 0.9089743992	 3.8672232046	 0.28757
70.4413	126.9573	190.2842	216.7235	237.5943	252.6122	270.1346	297.9441	321.891	406.761	471.5623	519.8859	577.1092	697.0995	766.9919	789.2714	825.9183	843.2905	941.7858	978.4504	987.5166	1002.7439	1012.4492	1057.9047	1082.9947	1099.5148	1133.1489	1143.7499	1175.7195	1215.6808	1241.0618	1251.0294	1276.0471	1324.1777	1330.4344	1349.3625	1367.3329	1371.1511	1414.7989	1428.9971	1451.3954	1493.3957	1504.2984	1523.0284	1673.8165	2962.9585	3001.8941	3020.0436	3034.1579	3039.5435	3055.4937	3099.1077	3122.4208	3187.2866	3214.741	3801.5936	3831.1341
CC1C(O)C=CC1CO	C[C@H]1[C@@H](O)C=C[C@H]1CO	
InChI=1S/C7H12O2/c1-5-6(4-8)2-3-7(5)9/h2-3,5-9H,4H2,1H3	InChI=1S/C7H12O2/c1-5-6(4-8)2-3-7(5)9/h2-3,5-9H,4H2,1H3/t5-,6+,7+/m1/s1
