26
gdb 10224	2.13179	1.15032	0.81106	0.0469	89.28	-0.2945	0.0909	0.3854	1561.9638	0.244963	-315.490766	-315.479656	-315.478712	-315.527417	39.853	
C	-1.9143335213	 1.5297098595	 1.5523521247	-0.378453
C	-1.8157374738	 0.0028077301	 1.4846675107	-0.171526
C	-1.4345354356	-0.5093456137	 0.0897915559	-0.175555
C	-1.3303954629	-2.0437670428	-0.0358922011	 0.060157
C	-2.7287538164	-2.6969090739	-0.0593409669	-0.180311
C	-2.7376385626	-4.1996736443	 0.2411968879	-0.387686
C	-0.5088091593	-2.4466575227	-1.2787354914	-0.181434
C	 1.0004323513	-2.2138465829	-1.1518201529	-0.38772
H	-2.1750117666	 1.870251467	 2.5594959475	 0.109119
H	-0.9638724492	 2.0008513548	 1.2773028661	 0.112158
H	-2.6792713669	 1.9079849283	 0.8648951461	 0.112608
H	-1.0690967344	-0.3475885059	 2.2097698812	 0.09325
H	-2.7711783966	-0.4331083409	 1.8012058078	 0.097476
H	-2.1645183491	-0.143188839	-0.647151659	 0.086945
H	-0.4768441191	-0.0523362629	-0.1887773313	 0.088225
H	-0.7991345398	-2.4191768021	 0.8530866147	 0.058899
H	-3.3766561285	-2.1961517121	 0.6691275674	 0.092083
H	-3.1849926965	-2.5130460075	-1.0421982726	 0.090285
H	-2.1401673891	-4.7693760051	-0.4775694112	 0.117097
H	-2.3331475357	-4.402232264	 1.2393304662	 0.112867
H	-3.7558087899	-4.6005496572	 0.2089409864	 0.109908
H	-0.676022635	-3.5078039628	-1.4964267653	 0.091496
H	-0.8965363521	-1.8978848569	-2.1484258751	 0.090232
H	 1.2443577948	-1.1615470481	-0.9743627957	 0.116983
H	 1.418157091	-2.7932024279	-0.3206712554	 0.112814
H	 1.5228793333	-2.5197785974	-2.0639198947	 0.110081
61.5004	79.3765	89.8241	92.2039	168.0933	203.2396	237.1995	243.1852	271.8575	276.9751	333.5278	426.467	447.0082	495.8921	734.343	756.5534	777.7718	829.3556	881.5467	897.0175	928.3074	983.4618	1021.2675	1035.7728	1045.5484	1056.1534	1058.9566	1087.2535	1169.6236	1173.6186	1190.6266	1257.1022	1272.2183	1301.4594	1318.0966	1324.5107	1340.3803	1353.5681	1381.4792	1391.4801	1398.5583	1412.8354	1413.4939	1414.2584	1478.9081	1485.3235	1488.5619	1492.4247	1499.6059	1500.368	1503.0513	1506.3217	1509.515	1510.8392	2976.8102	3000.9606	3010.743	3017.7135	3020.2535	3027.8943	3031.0092	3031.4795	3037.7975	3053.5861	3056.6294	3061.1993	3094.4545	3096.4007	3097.0703	3099.3142	3101.4461	3103.8329
CCCC(CC)CC	CCCC(CC)CC	
InChI=1S/C8H18/c1-4-7-8(5-2)6-3/h8H,4-7H2,1-3H3	InChI=1S/C8H18/c1-4-7-8(5-2)6-3/h8H,4-7H2,1-3H3
