16
gdb 64693	4.8464	0.88341	0.84237	5.3318	76.43	-0.2769	0.0129	0.2898	1347.8339	0.121726	-400.711488	-400.702295	-400.701351	-400.7456	33.802	
O	-0.1277358406	 1.4593822302	-0.1623134092	-0.45089
C	 0.0016173334	 0.0810164988	-0.0537379204	 0.417173
C	 1.1036472332	-0.5155593565	-0.9261416387	-0.406071
C	 2.4038556426	 0.0435793324	-0.5679063917	 0.273465
C	 3.4420479195	 0.554319965	-0.2413705523	-0.426969
C	-0.3543350194	-0.5607668743	 1.2548181961	-0.331174
C	-1.3083416458	-0.6694664259	 0.0597936147	-0.25483
C	-2.5532865921	 0.0452090852	 0.0714776798	 0.311384
N	-3.5712479782	 0.5937786083	 0.0748681555	-0.336885
H	 0.7056216267	 1.8516331265	 0.1284206355	 0.296307
H	 1.1186601621	-1.6067098292	-0.8228048035	 0.134741
H	 0.8806981536	-0.2926847064	-1.9766112132	 0.152555
H	 4.3762346982	 0.9803244307	 0.0313531542	 0.207939
H	 0.1493906987	-1.468808223	 1.5662578236	 0.130741
H	-0.6614253678	 0.1044061856	 2.0524750556	 0.146864
H	-1.360924264	-1.6332468773	-0.4365093661	 0.13565
60.6769	91.7147	146.9252	169.4154	294.1328	329.7905	341.3906	359.4852	382.9032	430.7654	463.0594	554.1839	633.7598	668.7761	675.4862	731.7108	825.923	874.3639	901.6517	960.0317	972.2071	994.8812	1058.9367	1073.5566	1127.8515	1191.3224	1238.5329	1294.4248	1323.6265	1359.3679	1420.766	1461.7111	1487.3524	2236.301	2360.6801	3032.0687	3071.8972	3145.1429	3163.414	3244.4165	3502.5387	3774.2739
OC1(CC#C)CC1C#N	O[C@@]1(CC#C)C[C@H]1C#N	
InChI=1S/C7H7NO/c1-2-3-7(9)4-6(7)5-8/h1,6,9H,3-4H2	InChI=1S/C7H7NO/c1-2-3-7(9)4-6(7)5-8/h1,6,9H,3-4H2/t6-,7-/m0/s1
