18
gdb 13665	5.3589	0.9142	0.83431	4.2449	73.52	-0.2423	0.0369	0.2792	1360.2664	0.153195	-343.972321	-343.963579	-343.962635	-344.006301	30.988	
C	-0.0317545931	 1.5155518894	-0.3723189914	-0.414441
C	-0.002576568	 0.0407393332	-0.0348760522	 0.028136
C	 1.2735899337	-0.7293523484	-0.0102684783	-0.259864
N	 0.5290169679	-0.4850467453	 1.2258902401	-0.085251
C	 1.11109708	 0.4228502435	 2.2003131456	-0.138763
C	 1.869952818	-0.4139214099	 3.2488058552	-0.330564
C	 2.471458732	 0.4143146756	 4.2897145802	 0.252042
N	 2.9395089653	 1.0882466264	 5.1034724944	-0.30573
H	 0.9076717721	 2.0208542285	-0.1357965813	 0.124114
H	-0.2144263864	 1.6440031728	-1.4441667496	 0.128595
H	-0.8390642635	 2.02782642	 0.162483258	 0.128257
H	-0.8978773991	-0.4939738811	-0.3498096609	 0.096622
H	 1.3175499574	-1.761209713	-0.3480751338	 0.118823
H	 2.1902222293	-0.1604339379	-0.1678828409	 0.109313
H	 1.8008808864	 1.1649708679	 1.7702366105	 0.10639
H	 0.3047874419	 0.9743047511	 2.6953617467	 0.125975
H	 1.1826044141	-1.1334071891	 3.7046410729	 0.162486
H	 2.658804652	-0.9944660939	 2.7574126449	 0.153861
70.3509	82.8646	99.9783	183.0976	229.6531	269.6613	349.3338	398.1623	434.1696	494.6983	551.0549	754.658	790.0141	813.0584	904.0219	948.3151	961.0063	1025.1189	1042.3033	1054.5499	1095.26	1115.8801	1149.0622	1164.6819	1191.4022	1235.0027	1297.8894	1316.3617	1338.3784	1391.8663	1407.215	1422.4772	1468.1394	1489.741	1494.6886	1501.63	1515.7796	2362.9495	2982.5232	3037.9401	3051.5957	3070.2193	3084.8652	3097.3683	3099.3752	3104.3863	3126.1292	3175.9369
CC1CN1CCC#N	C[C@H]1CN1CCC#N	
InChI=1S/C6H10N2/c1-6-5-8(6)4-2-3-7/h6H,2,4-5H2,1H3	InChI=1S/C6H10N2/c1-6-5-8(6)4-2-3-7/h6H,2,4-5H2,1H3/t6-,8?/m0/s1
