15
gdb 9320	4.93343	1.18928	1.00895	8.1474	66.24	-0.2603	-0.0319	0.2284	1115.8548	0.119422	-395.991667	-395.983619	-395.982675	-396.024645	28.516	
N	 0.5988438491	 1.5913088305	 1.2031405211	-0.515696
H	 1.1159134049	 0.8567169992	 0.7287493248	 0.253406
H	 0.9763240863	 1.6412050196	 2.8098856495	 0.33294
H	 0.7506388395	 2.4478659405	 0.6799640385	 0.256413
C	-0.8380991961	 1.2506305276	 1.2696277044	-0.176246
C	-1.1111580844	 0.1931131068	 2.3523558069	-0.158537
N	-1.1631754461	 0.6454963808	 3.7355807555	-0.293375
C	-0.1925365262	 1.2487162991	 4.2932863155	 0.25218
O	 0.9798764649	 1.6722991691	 3.8222962717	-0.410536
C	-0.3370276735	 1.5464859758	 5.7121593961	 0.30637
N	-0.4481311799	 1.7831396023	 6.837600263	-0.32996
H	-1.3930991572	 2.1631852146	 1.5072482793	 0.137602
H	-1.2140486055	 0.8768840004	 0.3078223619	 0.111973
H	-2.081925684	-0.2618028344	 2.1329395354	 0.122663
H	-0.3640055018	-0.6112909021	 2.2517174465	 0.110803
53.0743	132.5108	159.926	225.6623	293.9514	315.6963	350.3787	426.7245	489.4492	585.9111	605.082	742.8134	809.0154	856.435	910.8489	959.0968	997.9038	1067.7197	1079.1284	1097.4452	1180.6999	1276.7519	1313.6595	1333.5527	1382.2029	1405.0358	1484.5168	1498.2107	1549.8678	1648.9313	1728.6297	2361.9089	2857.7099	2979.2775	3015.8405	3073.3574	3092.1358	3500.1103	3579.1027
[NH3+]CC[N-]C(=O)C#N	NCCN=C(O)C#N	
InChI=1S/C4H7N3O/c5-1-2-7-4(8)3-6/h1-2,5H2,(H,7,8)	InChI=1S/C4H7N3O/c5-1-2-7-4(8)3-6/h1-2,5H2,(H,7,8)
