13
gdb 33602	4.13199	1.53532	1.38935	4.3236	65.61	-0.2767	-0.0109	0.2657	889.7402	0.090753	-415.513786	-415.50784	-415.506896	-415.544216	23.579	
N	-0.0302692502	-1.0578452986	-0.0522306356	-0.339646
C	-0.0288988879	 0.0971324216	 0.0157166279	 0.145807
C	 0.0268150737	 1.5160935862	 0.1012644815	 0.279595
C	-0.9329011797	 2.4030925609	 0.8310407046	-0.110198
C	-0.0021685042	 3.6286701321	 1.0416139315	 0.060033
O	 1.3202585657	 3.1339851172	 1.3399872791	-0.274173
C	 1.2566335111	 2.4775171377	 0.0651375071	-0.005617
C	 0.2255847987	 3.4937051073	-0.4882825131	-0.036704
N	-0.8894296983	 2.4484114094	-0.6612748307	-0.198895
H	-1.7943595826	 2.0447556803	 1.3789678194	 0.132586
H	-0.3136924197	 4.495057873	 1.6189388756	 0.112832
H	 2.2087234571	 2.1589734337	-0.3501208627	 0.119801
H	 0.3834553661	 4.2770878191	-1.2236439745	 0.114581
150.3809	162.7319	448.9621	501.5489	523.8715	577.1471	637.7178	759.9642	780.0271	818.6529	833.0104	858.4763	864.9036	877.8258	931.3558	944.7505	980.3495	1001.8986	1072.9968	1120.9857	1135.5777	1172.429	1196.6906	1216.5416	1238.0111	1262.3873	1312.3207	1379.3457	2352.9178	3161.9317	3168.3136	3177.4125	3214.423
N#CC12C3C4OC1C4N23	N#C[C@@]12[C@H]3[C@H]4O[C@@H]1[C@H]4N23	
InChI=1S/C6H4N2O/c7-1-6-4-3-2(8(4)6)5(6)9-3/h2-5H	InChI=1S/C6H4N2O/c7-1-6-4-3-2(8(4)6)5(6)9-3/h2-5H/t2-,3-,4+,5+,6+,8?/m0/s1
