18
gdb 13900	2.87764	1.62836	1.27272	2.222	63.99	-0.233	0.0498	0.2829	1006.576	0.151588	-422.042879	-422.033797	-422.032853	-422.076453	33.607	
C	 0.0783640131	 1.3224874509	-0.3448882338	-0.403736
C	 0.0614630273	-0.1075462563	 0.1965287697	 0.134039
O	 0.6195698666	-0.1849231615	 1.5066697641	-0.435057
C	-1.3398921976	-0.69435659	 0.1634150273	-0.113911
C	-1.9851045155	-1.1448718657	-1.1363480012	 0.087856
O	-1.2462818175	-1.1234214878	-2.3214971162	-0.430576
C	-1.5890084183	-2.1608956927	-0.0896994848	 0.006952
O	-0.4561781972	-2.9328304966	-0.4084269364	-0.418816
H	 1.0857481265	 1.7417491113	-0.2715050669	 0.118072
H	-0.2400006988	 1.3341840213	-1.391043221	 0.137035
H	-0.6037028952	 1.9656088694	 0.2262737985	 0.097759
H	 0.7239950693	-0.7275282014	-0.4117156543	 0.097119
H	 0.1104574471	 0.4043451076	 2.0741385401	 0.270691
H	-2.01854428	-0.235333362	 0.881332637	 0.077535
H	-3.0329878588	-0.9197253987	-1.3106137861	 0.099346
H	-0.5607562471	-1.7991324026	-2.218942229	 0.284908
H	-2.3428950325	-2.6775716489	 0.5002412276	 0.09308
H	-0.7648249412	-3.7582130862	-0.7981522445	 0.297704
56.2834	123.8361	169.5252	251.7345	262.6282	284.0521	284.8648	299.8948	371.381	452.1416	504.4223	579.1368	597.5373	670.4243	771.0411	788.9664	867.8886	929.4855	995.2082	1047.1293	1052.6069	1079.5673	1105.9239	1119.3227	1151.3696	1169.1849	1224.315	1246.3666	1288.9777	1315.8861	1329.3753	1392.6912	1396.8147	1411.9575	1428.5381	1469.462	1494.7372	1497.7798	3022.5802	3083.8223	3101.8122	3112.9024	3123.8348	3125.9234	3154.0482	3729.1032	3798.3719	3804.6086
CC(O)C1C(O)C1O	C[C@@H](O)[C@H]1[C@@H](O)[C@H]1O	
InChI=1S/C5H10O3/c1-2(6)3-4(7)5(3)8/h2-8H,1H3	InChI=1S/C5H10O3/c1-2(6)3-4(7)5(3)8/h2-8H,1H3/t2-,3-,4+,5-/m1/s1
