19
gdb 88743	3.60831	0.90058	0.77803	3.3556	78.91	-0.2329	-0.0295	0.2034	1468.6047	0.157904	-419.147541	-419.138355	-419.137411	-419.182499	33.31	
C	 0.6486614263	 1.5704772159	-0.7207010766	-0.315113
N	 0.1753492972	 0.2544658843	-0.3184269864	-0.082842
C	 1.1456446895	-0.6903706911	 0.2130353397	-0.25729
C	 0.0937503292	-0.1079790722	 1.0987425795	 0.014717
C	 0.4748199976	 0.8355110958	 2.1959500021	-0.027196
N	-0.6000776602	 1.3687072457	 3.0241326736	-0.337755
C	 0.3888060902	 0.4767215732	 3.6600889082	-0.13806
C	-0.1273175382	-0.8406568004	 4.1275742821	 0.178026
O	 0.4279698315	-1.5141653765	 4.9589522258	-0.258975
H	 1.5353080444	 1.932262746	-0.1755687618	 0.097314
H	 0.910117996	 1.5323598276	-1.7827592053	 0.129765
H	-0.1567605447	 2.3010446325	-0.5955135861	 0.129226
H	 1.0713354654	-1.7159931785	-0.1387479381	 0.121722
H	 2.1663548695	-0.3379780264	 0.3673422548	 0.105938
H	-0.783872605	-0.7075116258	 1.3280700318	 0.101559
H	 1.3078064886	 1.4965881785	 1.9669790358	 0.098206
H	-0.4285681661	 2.334070074	 3.2901311092	 0.245265
H	 1.1589385345	 0.8972530559	 4.3027877228	 0.106468
H	-1.0821499655	-1.1548064985	 3.654018809	 0.089026
36.5422	79.4303	138.8769	198.2787	232.8116	243.067	306.0865	375.7589	409.3791	445.1205	485.2374	569.9538	741.6953	819.6492	839.612	891.0421	925.7284	949.5962	985.7127	1031.2206	1033.3458	1058.2392	1100.0886	1117.9642	1128.9029	1152.2422	1163.7557	1201.3965	1206.3823	1220.0291	1258.8789	1334.3356	1339.0729	1366.5114	1428.7761	1450.043	1480.2292	1491.3833	1506.4981	1514.7197	1822.344	2905.7583	2970.2767	3067.8015	3080.3131	3105.5335	3128.1123	3138.1168	3145.9703	3172.3532	3517.5204
CN1CC1C1NC1C=O	CN1C[C@H]1[C@H]1N[C@H]1C=O	
InChI=1S/C6H10N2O/c1-8-2-5(8)6-4(3-9)7-6/h3-7H,2H2,1H3	InChI=1S/C6H10N2O/c1-8-2-5(8)6-4(3-9)7-6/h3-7H,2H2,1H3/t4-,5-,6-,8?/m0/s1
