14
gdb 129995	5.17607	1.28741	1.03782	6.9833	71.72	-0.2052	-0.0196	0.1856	1063.2728	0.1035	-432.871752	-432.864808	-432.863864	-432.902925	26.805	
N	-0.0202233958	 1.2804657502	-0.0662297135	-0.5588
C	-0.0170617384	-0.0677715319	-0.0246722126	 0.40734
N	-1.114215714	-0.7794096979	-0.01396076	-0.388982
C	-0.6364095141	-2.0778034402	-0.0158460573	 0.461477
C	 0.7178889953	-2.2547971862	-0.0235850745	 0.146207
C	 1.3019606099	-0.874563079	-0.0313883864	-0.492933
C	 0.8507689144	-3.6541267013	-0.0127643466	-0.140624
N	-0.3241219203	-4.2623324646	-0.001964804	-0.163825
O	-1.299439279	-3.2211970605	-0.003548753	-0.233302
H	 0.8214961819	 1.7987707344	 0.110299705	 0.27049
H	-0.900114283	 1.7572745807	 0.0471793494	 0.277433
H	 1.8952980534	-0.6288641531	-0.9196139454	 0.148169
H	 1.9109393343	-0.6276026024	 0.8465248881	 0.14233
H	 1.7342026054	-4.2780711982	-0.0131738294	 0.125018
143.6025	223.5723	244.7926	316.5763	321.8148	449.3358	519.1408	554.5688	594.194	619.4884	736.5736	758.7914	828.1892	837.807	842.6006	904.1898	952.6801	975.8198	1091.4717	1148.0334	1182.4318	1196.7712	1222.5082	1377.5825	1415.3608	1440.9562	1447.2475	1508.8909	1591.7534	1617.5037	1669.6033	3038.8962	3074.8537	3233.4735	3610.1275	3740.1424
NC1=NC2=C(C1)C=NO2	NC1=Nc2c(C1)cno2	
InChI=1S/C5H5N3O/c6-4-1-3-2-7-9-5(3)8-4/h2H,1H2,(H2,6,8)	InChI=1S/C5H5N3O/c6-4-1-3-2-7-9-5(3)8-4/h2H,1H2,(H2,6,8)
