14
gdb 56497	2.33721	1.25616	1.01651	3.1926	73.2	-0.2847	-0.003	0.2817	1181.5087	0.09717	-399.474276	-399.464772	-399.463828	-399.508818	33.914	
O	 0.0068766893	 1.4766604285	-0.0581516899	-0.397043
C	 0.0338395707	 0.0789128711	-0.0039692885	-0.029156
C	 0.6491585338	-0.5122223011	-1.2137505714	 0.269019
N	 1.130937012	-0.9710639206	-2.1580589014	-0.310327
C	 0.7643733482	-0.4627322449	 1.2786899614	-0.375063
C	 2.1142596152	 0.1039590751	 1.3408515557	 0.306165
C	 3.2023680114	 0.612800806	 1.338773145	-0.419441
C	-0.0190829757	-0.1551625265	 2.4756869916	 0.320782
C	-0.6838531872	 0.0820572217	 3.4461348874	-0.409232
H	 0.919164472	 1.7919118085	 0.0074754277	 0.301005
H	-1.008138617	-0.2501194181	 0.0451522519	 0.15625
H	 0.8388493977	-1.5535582167	 1.1710811526	 0.160851
H	 4.1776144113	 1.0348374522	 1.3562607064	 0.216992
H	-1.2641834318	 0.2972807849	 4.3095728616	 0.209199
61.848	112.2026	126.2665	147.8621	190.2569	263.3386	335.1717	343.8349	414.0155	446.7394	489.9972	559.6393	586.4721	648.1011	654.7417	668.8904	679.0416	736.4898	831.9336	919.3498	997.9227	1044.8346	1100.3237	1221.1922	1269.6703	1326.9281	1337.8382	1431.6517	2239.3848	2249.6447	2358.0869	3019.8957	3084.9884	3498.4987	3502.0306	3753.5027
OC(C#N)C(C#C)C#C	O[C@@H](C#N)C(C#C)C#C	
InChI=1S/C7H5NO/c1-3-6(4-2)7(9)5-8/h1-2,6-7,9H	InChI=1S/C7H5NO/c1-3-6(4-2)7(9)5-8/h1-2,6-7,9H/t7-/m0/s1
