21
gdb 84428	2.31908	1.66599	1.26444	1.6213	83.58	-0.234	0.0081	0.242	1100.9284	0.181894	-387.095319	-387.086249	-387.085305	-387.128273	35.743	
C	-0.0410527048	 1.5621747571	-0.0208359516	-0.488301
C	-0.0358534172	 0.0541452135	 0.0734174015	 0.274894
C	 1.2276348211	-0.7494741444	-0.214200031	-0.360513
C	 0.6354483931	-0.7683845308	 1.1736913906	 0.237999
C	 1.4109302168	-0.1702788735	 2.3241490356	-0.468762
C	-0.295180178	-1.9618649143	 1.4793664201	 0.041685
O	-0.802913133	-1.9646380516	 2.8130447626	-0.429346
C	-1.3956399738	-1.8322122873	 0.4502368296	-0.154603
C	-1.2759711607	-0.7093418306	-0.2631113547	-0.123785
H	 0.9142645523	 1.9885860346	 0.2978647642	 0.119387
H	-0.2155476423	 1.8890874892	-1.0527820212	 0.118932
H	-0.8280098549	 2.0019441471	 0.6025097686	 0.115716
H	 1.1390122543	-1.6261535885	-0.8486506746	 0.107315
H	 2.1557122552	-0.1965609332	-0.3356070866	 0.102989
H	 1.9601869834	 0.7227508624	 2.0123766616	 0.108748
H	 0.7521465376	 0.1019194006	 3.1529500692	 0.115931
H	 2.1413545884	-0.8879022456	 2.714579522	 0.121745
H	 0.2482456831	-2.9108801553	 1.3943621446	 0.091336
H	-1.4590394745	-1.2603292169	 2.8640833469	 0.27439
H	-2.1768116309	-2.5766429269	 0.3497508474	 0.098013
H	-1.9563843553	-0.3844670057	-1.0442757348	 0.096228
116.4167	167.3732	184.4086	226.9193	246.9432	277.5552	333.6663	357.0337	409.8651	447.8565	454.3274	542.4625	615.0038	666.7103	743.7727	762.8619	809.6491	864.5184	910.1691	949.3655	962.3832	972.8831	981.1581	1008.1428	1059.4976	1068.2033	1093.5716	1105.4866	1129.5633	1190.8866	1237.3737	1247.6018	1269.5467	1316.3657	1365.312	1386.4012	1411.0499	1419.353	1424.7904	1480.8508	1484.1606	1493.0572	1496.4335	1507.3975	1662.1881	3024.5569	3035.675	3038.9597	3080.4496	3095.2171	3105.2904	3108.1941	3116.8141	3175.2085	3196.1301	3208.7399	3796.6682
CC12CC1(C)C(O)C=C2	C[C@@]12C[C@]1(C)[C@@H](O)C=C2	
InChI=1S/C8H12O/c1-7-4-3-6(9)8(7,2)5-7/h3-4,6,9H,5H2,1-2H3	InChI=1S/C8H12O/c1-7-4-3-6(9)8(7,2)5-7/h3-4,6,9H,5H2,1-2H3/t6-,7+,8+/m0/s1
