18
gdb 98234	1.66408	1.1477	0.97603	1.2412	71.64	-0.1752	0.0423	0.2175	1363.9479	0.144569	-472.441046	-472.429117	-472.428173	-472.480938	38.838	
C	 0.139558349	 1.1852348249	 0.287053459	-0.319743
N	-0.2372749155	-0.2171350409	 0.4736819966	-0.335242
C	-1.2878152682	-0.7493644652	-0.2928683718	 0.299244
N	-2.4779904672	-0.0041417581	-0.1792964167	-0.547976
H	-3.2309748223	-0.4146407497	-0.7166408377	 0.240452
H	-2.7599448237	 0.0997923098	 0.7909268209	 0.244516
C	-1.1803014591	-1.8543747421	-1.0562333984	-0.151746
N	 0.0352409461	-2.4830522571	-1.4586214083	-0.54475
C	-1.2182226463	-2.535369705	 2.2704690602	 0.597503
O	-2.2315178871	-2.0430306038	 2.5586739278	-0.302038
O	-0.2068283232	-3.0526529879	 2.0166945252	-0.308996
H	 0.8434089403	 1.4743356553	 1.0725322072	 0.118338
H	 0.6027610645	 1.3876738194	-0.6911141067	 0.107346
H	-0.749485985	 1.8114016468	 0.3696484588	 0.14671
H	 0.5639148916	-0.8337042939	 0.4573568747	 0.22148
H	-2.0849423277	-2.2936801222	-1.4693308668	 0.073875
H	 0.8242646557	-1.847150629	-1.4327539503	 0.223466
H	 0.2687899382	-3.2932075915	-0.8912581638	 0.23756
26.7782	45.8704	57.3402	73.119	95.4274	115.2195	142.722	169.0017	257.7604	284.5168	326.099	352.5719	475.7966	589.0323	635.0885	668.7385	681.0885	731.3704	769.2711	771.9008	819.9763	871.4114	1074.7465	1120.6519	1150.8887	1156.0075	1186.8525	1226.2807	1316.0886	1374.0454	1406.6667	1459.9672	1472.4623	1496.1753	1520.8015	1623.7222	1648.6784	1733.5914	2427.8247	2983.3321	3085.5149	3144.3385	3148.1145	3478.6115	3499.1103	3572.0909	3578.6324	3613.2709
CNC(=[NH2+])C(N)C([O-])=O	CNC(=[NH2])[CH]N.C(=O)=O	
InChI=1S/C4H9N3O2/c1-7-3(6)2(5)4(8)9/h2H,5H2,1H3,(H2,6,7)(H,8,9)	InChI=1S/C3H9N3.CO2/c1-6-3(5)2-4;2-1-3/h2,6H,4-5H2,1H3;
