17
gdb 26428	3.52051	1.07277	1.03465	2.0659	75.79	-0.2264	-0.0306	0.1958	1213.7791	0.136331	-418.060511	-418.051861	-418.050917	-418.095383	30.793	
C	 0.1698990738	 1.5096946244	-0.200388568	-0.398822
C	-0.0017811154	 0.0104995433	 0.0686991627	-0.169534
C	 0.4750558775	-0.8442077622	-1.1038993754	 0.132281
O	 1.0839305808	-0.4196686523	-2.0523830422	-0.243781
C	 0.7010211348	-0.4777843782	 1.3042635905	 0.324987
N	 0.1500779036	-1.1317470299	 2.3048119519	-0.299759
C	 1.1718391668	-1.3928536617	 3.1882893496	-0.089832
C	 2.3569191001	-0.8969467772	 2.714595179	-0.10642
N	 2.0458561966	-0.3173497654	 1.505362075	-0.271119
H	 1.217188771	 1.7642858287	-0.3854186765	 0.120519
H	-0.3909533549	 1.8033172117	-1.0911361605	 0.133334
H	-0.1863182051	 2.0943294786	 0.6510647513	 0.128833
H	-1.0575255987	-0.236284686	 0.2328808502	 0.127177
H	 0.2407829288	-1.9262256908	-0.9998357113	 0.096271
H	 0.9940654305	-1.9190008754	 4.1136113122	 0.111087
H	 3.3600609962	-0.8955653085	 3.1070478269	 0.131555
H	 2.6903390438	 0.1418272412	 0.8829423146	 0.273223
25.2016	63.9548	141.999	190.8934	234.2755	260.4661	363.3033	404.1132	550.8955	636.0212	648.5564	695.3899	734.3911	754.4511	858.5991	860.368	927.908	944.4698	981.91	1036.2185	1088.826	1103.2858	1130.1644	1140.4775	1175.9928	1263.608	1283.1702	1328.4562	1394.9347	1406.6889	1422.7136	1452.8842	1487.0159	1494.571	1503.4596	1581.864	1822.8805	2898.5829	3050.8133	3053.7039	3121.0246	3132.9214	3250.9776	3282.0488	3658.0712
CC(C=O)C1=NC=CN1	C[C@@H](C=O)c1ncc[nH]1	
InChI=1S/C6H8N2O/c1-5(4-9)6-7-2-3-8-6/h2-5H,1H3,(H,7,8)	InChI=1S/C6H8N2O/c1-5(4-9)6-7-2-3-8-6/h2-5H,1H3,(H,7,8)/t5-/m0/s1
