15
gdb 131677	2.69167	1.49429	0.96658	2.249	72.91	-0.2339	-0.0652	0.1687	1134.7674	0.113824	-450.098029	-450.090046	-450.089102	-450.130833	29.341	
O	-0.0133789057	 1.4264102259	 0.0066492947	-0.420326
C	 0.0049309049	 0.0133480603	 0.0023439384	-0.163914
C	-1.3992879242	-0.5018945112	 0.0123986405	 0.211882
C	-2.4967883561	 0.2871693701	 0.0234397087	-0.047523
N	-3.8042340125	-0.1839795736	 0.0327253913	-0.218698
N	-4.0121301628	-1.4342410645	 0.0310339424	-0.037634
N	-2.9481247683	-2.268499018	 0.0202056987	-0.306174
C	-1.5872163618	-1.9427071463	 0.0100082547	 0.35961
N	-0.6090572481	-2.770998617	-0.0002103461	-0.556659
H	 0.8958722335	 1.7369389889	 0.001191094	 0.297538
H	 0.5178913379	-0.3979387231	-0.8816445358	 0.127328
H	 0.532430557	-0.4031775661	 0.8752304701	 0.127339
H	-2.4084663246	 1.365371214	 0.0256866703	 0.152132
H	-3.2230853614	-3.2411819893	 0.0197958345	 0.269762
H	-0.9225056478	-3.7425799001	-0.0003027265	 0.205337
90.582	140.2335	200.9669	204.9383	232.9028	339.592	392.5013	516.9317	536.8609	569.021	618.937	683.5974	764.8845	789.1475	803.1582	921.6821	950.2079	1040.652	1051.0601	1078.1245	1110.2689	1150.3066	1209.0839	1225.7132	1238.9093	1285.431	1383.3983	1431.081	1476.1655	1488.698	1548.7935	1646.264	1714.5049	2979.7061	2998.8236	3233.2341	3465.2031	3602.929	3848.6703
OCC1=CN=NNC1=N	OCc1cnn[nH]c1[NH]	
InChI=1S/C4H6N4O/c5-4-3(2-9)1-6-8-7-4/h1,9H,2H2,(H2,5,6,7)	InChI=1S/C4H11N4O/c5-4-3(2-9)1-6-8-7-4/h3-9H,1-2H2
