19
gdb 86008	3.31572	1.03768	1.02431	2.0043	78.05	-0.2469	-0.0329	0.214	1251.8496	0.157679	-423.046585	-423.037399	-423.036455	-423.080961	34.141	
C	 0.0602678311	 1.5452653583	-0.0440079678	-0.439464
C	 0.0155896972	 0.0154189925	-0.0127175445	 0.159537
C	 0.7345270347	-0.6814411138	-1.2112561449	-0.311491
C	 1.5343223462	-1.8835975555	-0.6344325894	 0.108751
O	 2.8426039257	-2.0205553661	-1.1717692353	-0.429373
C	 1.5106354782	-1.6250196224	 0.8532967739	-0.129943
C	 0.7326531106	-0.5950677564	 1.1808761746	-0.105671
C	-1.4313563635	-0.4775993495	 0.038561813	 0.13957
O	-2.3996549303	 0.2216251244	 0.1795246653	-0.252949
H	 1.0957510889	 1.8978733011	-0.0360536249	 0.108847
H	-0.4324680021	 1.9305056734	-0.9415435697	 0.127758
H	-0.4605163564	 1.9684056882	 0.8187541723	 0.131554
H	 0.0440188256	-0.9822813278	-2.0046998807	 0.112572
H	 1.4425187064	 0.0235839183	-1.6586972327	 0.108957
H	 1.0507226904	-2.8371076927	-0.877362257	 0.100339
H	 3.3505313849	-1.2494283971	-0.8945236138	 0.274976
H	 2.0907824118	-2.2287807511	 1.5426281622	 0.108826
H	 0.5595404639	-0.224796716	 2.1861397419	 0.110612
H	-1.5264740732	-1.584583348	-0.0567925823	 0.076594
47.4039	76.8889	176.469	207.696	253.8158	297.9462	323.2014	353.3793	399.3817	415.1856	460.6472	581.1675	659.8816	732.6431	802.7515	810.1745	859.4756	899.818	921.3471	959.9949	988.6454	1020.4742	1042.87	1066.8301	1111.6596	1131.3471	1178.9044	1202.3753	1250.4256	1268.2895	1289.2856	1322.9539	1368.3205	1403.7103	1425.1719	1431.729	1480.6262	1488.2233	1491.2709	1674.0633	1827.8407	2859.4812	3039.0603	3042.7589	3051.9621	3096.2003	3114.8977	3123.5137	3180.7777	3207.0217	3793.2124
CC1(CC(O)C=C1)C=O	C[C@]1(C[C@@H](O)C=C1)C=O	
InChI=1S/C7H10O2/c1-7(5-8)3-2-6(9)4-7/h2-3,5-6,9H,4H2,1H3	InChI=1S/C7H10O2/c1-7(5-8)3-2-6(9)4-7/h2-3,5-6,9H,4H2,1H3/t6-,7-/m0/s1
