18
gdb 110483	4.08128	1.3667	1.3387	2.6827	73.22	-0.2268	0.0634	0.2902	1001.1707	0.14946	-401.841379	-401.834497	-401.833552	-401.872787	27.992	
O	 0.0896807448	 1.4036621694	 0.2065084438	-0.426055
C	 0.1409900793	 0.0225359737	-0.1151953466	-0.079264
C	-1.2461439629	-0.5828637901	-0.0927248521	 0.025047
C	-1.5318938335	-2.0976148067	-0.1130431842	-0.114798
C	-0.8883660069	-2.6739577012	 1.1726100894	-0.083278
C	-2.1818781718	-2.6300069011	 1.9705007114	-0.122652
C	-1.197854919	-1.5096140219	 2.1160945324	-0.02393
N	-1.9508866664	-0.5378859855	 1.2551193907	-0.1888
C	-2.7554228544	-1.7813590927	 0.8134841863	-0.003263
H	-0.5235756065	 1.4886905045	 0.9466110814	 0.29249
H	 0.576686147	-0.0557117251	-1.1178258571	 0.105243
H	 0.8014875227	-0.5261604596	 0.574633533	 0.08822
H	-1.8931052235	-0.0534392749	-0.8022957593	 0.087727
H	-1.5693213675	-2.707359401	-1.0150028812	 0.070678
H	-0.0342638773	-3.3268110187	 1.2852024732	 0.094639
H	-2.6181398662	-3.305312076	 2.692872434	 0.09847
H	-0.583620543	-1.2106872239	 2.9547350428	 0.096362
H	-3.7888859148	-1.649382649	 0.500255912	 0.083165
90.0579	156.0178	242.9785	373.1194	404.3082	537.5874	622.9204	736.6244	744.9791	783.6043	805.9368	813.4518	835.0202	861.1544	865.9751	883.6744	926.4101	963.8203	979.8404	1013.454	1038.8805	1045.9943	1051.1001	1070.5946	1075.0093	1137.352	1143.9683	1169.002	1193.0183	1218.6132	1226.8412	1234.5028	1247.8182	1298.6487	1334.0195	1354.1892	1397.5603	1443.0311	1512.561	2983.4903	3045.6373	3064.0211	3121.9874	3139.35	3201.036	3209.0523	3222.8649	3784.3306
OCC1C2C3C4C3N1C24	OC[C@H]1[C@H]2[C@@H]3[C@H]4[C@@H]3N1[C@@H]24	
InChI=1S/C7H9NO/c9-1-2-3-4-5-6(3)8(2)7(4)5/h2-7,9H,1H2	InChI=1S/C7H9NO/c9-1-2-3-4-5-6(3)8(2)7(4)5/h2-7,9H,1H2/t2-,3-,4+,5+,6-,7+/m0/s1
