16
gdb 11094	8.32342	0.96763	0.93202	2.2937	72.62	-0.2517	-0.0261	0.2256	1203.3522	0.128702	-346.567019	-346.558907	-346.557963	-346.600109	29.282	
O	-0.0702401649	-0.0758648643	-0.155739471	-0.256963
C	-0.0500100885	 1.1128134334	 0.0349352446	 0.17482
C	 1.1895704552	 1.9647820255	 0.0465578237	-0.093512
C	 1.0537604107	 3.2439223585	-0.8427092365	-0.250127
C	 0.7368482594	 4.0884774566	 0.432998318	-0.146572
C	 1.2700938278	 2.9006925577	 1.2966560533	-0.250194
C	 1.3631854197	 5.385328195	 0.577630772	 0.294628
C	 1.9070759942	 6.4517957116	 0.6936866429	-0.437654
H	-0.9979162418	 1.6745927782	 0.2224765405	 0.068283
H	 2.0537686168	 1.327320577	-0.1432169241	 0.097106
H	 2.0119509542	 3.5217287656	-1.2842365264	 0.128472
H	 0.2917510693	 3.2344377058	-1.6256106548	 0.117541
H	-0.346644066	 4.1867469863	 0.5583209596	 0.109836
H	 0.6755912228	 2.6253237063	 2.1709783442	 0.117503
H	 2.3042277787	 3.0579576291	 1.6066363623	 0.128453
H	 2.3801155625	 7.3967754876	 0.7974858416	 0.19838
62.1067	69.3715	159.0513	204.775	309.3928	311.2046	426.748	507.555	524.5187	622.6333	636.6298	649.5563	815.3563	863.2833	883.3103	897.2492	963.6724	975.4927	1035.9346	1085.2351	1101.4193	1129.0456	1211.3686	1215.3647	1252.7181	1258.4336	1271.5763	1315.944	1360.1279	1439.0424	1471.4283	1491.3638	1832.4126	2234.5223	2833.2453	3047.6049	3070.6567	3072.5162	3108.7568	3132.9234	3136.1318	3504.124
O=CC1CC(C1)C#C	O=C[C@H]1C[C@@H](C1)C#C	
InChI=1S/C7H8O/c1-2-6-3-7(4-6)5-8/h1,5-7H,3-4H2	InChI=1S/C7H8O/c1-2-6-3-7(4-6)5-8/h1,5-7H,3-4H2/t6-,7-
