19
gdb 108241	2.27595	1.5544	1.19031	2.6321	72.32	-0.2196	0.0558	0.2754	1124.1097	0.156321	-460.097601	-460.088031	-460.087087	-460.131797	34.977	
C	-0.306493276	 1.3041624358	-0.119510944	-0.267603
O	-0.0410841725	-0.0919923731	 0.0208954639	-0.288014
C	 0.6612894197	-0.614135613	-1.0458556856	 0.240274
C	 2.1297938208	-0.4078123229	-1.3781010455	-0.150063
O	 2.2174086013	-1.7684207629	-1.8805503347	-0.317592
C	 0.8708108178	-2.0586607615	-1.460380256	 0.320176
C	 0.563874412	-3.3997604145	-0.8896226433	-0.492061
C	-0.0806506857	-1.1802701339	-2.2477933831	-0.00077
O	-1.4434341024	-1.3908934244	-2.0224117497	-0.440918
H	 0.6244868386	 1.8855213993	-0.1219892054	 0.124874
H	-0.8590955159	 1.5152635337	-1.0439080947	 0.127191
H	-0.9082086078	 1.5992365013	 0.7421781963	 0.136754
H	 2.3939528398	 0.3343750832	-2.1403946794	 0.105125
H	 2.7604633198	-0.2765594504	-0.4897910515	 0.112737
H	 1.0951057721	-3.5741998633	 0.0507233849	 0.126282
H	-0.5116768835	-3.4871127354	-0.7186417335	 0.138137
H	 0.8602080379	-4.1784240925	-1.6014222908	 0.13533
H	 0.153382241	-0.8920290716	-3.271936708	 0.097293
H	-1.6558584172	-0.9882920039	-1.1696833798	 0.29285
74.972	125.4971	168.1607	181.1518	206.2073	245.1588	271.5754	289.3645	350.5562	379.7994	445.8725	508.52	569.635	672.0779	725.254	761.9001	889.3307	929.9051	983.6596	1017.2901	1039.1371	1073.0283	1100.2048	1131.4452	1150.1722	1163.13	1177.1401	1206.866	1208.9818	1274.7277	1303.6696	1346.6271	1378.7036	1408.1274	1457.4013	1477.7571	1484.5144	1490.384	1501.0955	1504.2424	1521.0593	3006.3064	3015.5778	3037.6096	3066.9528	3067.6795	3100.4813	3112.956	3131.8292	3131.9976	3751.466
COC12COC1(C)C2O	CO[C@@]12CO[C@]1(C)[C@H]2O	
InChI=1S/C6H10O3/c1-5-4(7)6(5,8-2)3-9-5/h4,7H,3H2,1-2H3	InChI=1S/C6H10O3/c1-5-4(7)6(5,8-2)3-9-5/h4,7H,3H2,1-2H3/t4-,5-,6-/m1/s1
