20
gdb 116794	2.46635	0.70561	0.59132	3.2719	87.75	-0.2423	0.0264	0.2687	1952.0865	0.167618	-403.116302	-403.105202	-403.104258	-403.155293	37.348	
C	 0.7375288266	 1.1702873582	-1.2126585213	-0.397279
C	 0.0050942428	-0.0866670542	-0.7299089618	-0.109428
N	 0.7238526009	-1.3490989001	-0.6916440092	-0.226595
C	 1.9257080229	-1.4128985576	-1.0473757308	 0.133785
O	 2.5814148367	-2.5989296199	-0.9839047143	-0.197031
C	 3.9349935993	-2.5784787637	-1.4489399329	-0.241595
C	 4.0530460805	-2.4421350482	-2.8972348631	 0.096464
C	 4.1359573157	-2.3244371738	-4.0925337307	 0.037987
C	 4.236120061	-2.1904341045	-5.5379145929	-0.496946
H	 1.59885696	 1.4098413435	-0.5796843368	 0.117577
H	 1.0913842422	 1.0663910136	-2.2440156408	 0.120888
H	 0.0554842634	 2.0253023646	-1.1805739076	 0.114566
H	-0.384073335	 0.0893272215	 0.281951726	 0.112033
H	-0.8849929853	-0.2463341056	-1.3531530332	 0.112482
H	 2.5425037779	-0.5850222259	-1.4164360769	 0.083297
H	 4.4941778099	-1.7781572809	-0.9431934355	 0.129844
H	 4.3578180899	-3.5303770792	-1.1152740147	 0.148422
H	 4.9201613655	-2.9358081911	-5.9577745242	 0.153802
H	 3.258990899	-2.3340100532	-6.0116546397	 0.157184
H	 4.6037899361	-1.1993229035	-5.8246298796	 0.150542
23.7579	31.3092	47.878	136.9457	150.8997	166.9677	207.9075	242.2989	310.9276	334.8721	352.2371	377.2645	444.2022	537.0088	612.383	769.5327	780.7995	892.125	974.7237	999.8842	1025.4356	1050.9911	1055.5379	1085.5649	1098.4585	1148.1694	1166.0156	1198.6208	1300.1545	1315.1575	1378.5447	1390.3982	1400.4704	1414.4127	1428.5258	1475.7599	1477.8425	1482.6321	1487.0623	1495.5646	1508.6428	1781.4113	2372.0572	3003.2776	3014.651	3030.5973	3031.1644	3033.9677	3050.5255	3086.4239	3092.8204	3094.1042	3100.1889	3106.8258
CCN=COCC#CC	CCN=COCC#CC	
InChI=1S/C7H11NO/c1-3-5-6-9-7-8-4-2/h7H,4,6H2,1-2H3	InChI=1S/C7H11NO/c1-3-5-6-9-7-8-4-2/h7H,4,6H2,1-2H3
