23
gdb 93841	2.2985	1.45662	1.0887	1.4813	81.97	-0.2524	0.0841	0.3365	1242.5618	0.205344	-425.451066	-425.441507	-425.440563	-425.484778	36.752	
C	-0.0291311584	 1.5011749987	 0.0404885756	-0.40924
C	 0.0312297605	-0.0104997669	 0.0168347667	 0.228846
O	 0.6717552455	-0.4121465762	-1.1725196887	-0.25263
C	 0.7866794479	-1.8264688336	-1.2514225767	-0.097532
C	 1.5699865839	-2.3818362249	-0.0511588461	-0.00058
C	 3.0494396451	-1.9834787062	-0.1175639168	-0.392452
C	 0.8488879867	-1.8709007604	 1.2161943609	 0.137242
C	 1.5167364935	-2.2167869316	 2.5375878009	-0.41481
O	 0.7301404062	-0.4476917066	 1.1594188477	-0.269382
H	 0.9851857451	 1.9072352734	 0.0208529812	 0.133125
H	-0.5756510257	 1.8664156167	-0.8318617329	 0.124612
H	-0.5308761352	 1.8403411573	 0.9494640117	 0.124061
H	-0.9845271363	-0.4557945471	 0.035176754	 0.049877
H	-0.2182553419	-2.2810309755	-1.2878265834	 0.083061
H	 1.2915348148	-2.0432031281	-2.1973117126	 0.104467
H	 1.4850723737	-3.4767978728	-0.0701906934	 0.068347
H	 3.1586428307	-0.8982502346	-0.0546759469	 0.138039
H	 3.6282727207	-2.4353178975	 0.6925340891	 0.11226
H	 3.4925026077	-2.3136617522	-1.0629246212	 0.107831
H	-0.1684104995	-2.3029493257	 1.2113023044	 0.059266
H	 2.4946902028	-1.7363778177	 2.6206719347	 0.13058
H	 0.8989312675	-1.8711154416	 3.3708314158	 0.122512
H	 1.6498023448	-3.2993912969	 2.6286097861	 0.112498
113.7425	162.8783	176.1753	195.7599	222.2393	238.1778	270.7945	285.6736	366.4779	401.3862	446.0373	504.9185	564.6986	599.7304	739.9297	767.5592	844.0718	857.7703	908.3781	959.7707	973.2949	1001.5227	1016.5262	1048.7228	1104.987	1112.3755	1129.5184	1142.1858	1169.1267	1197.7183	1208.7543	1277.176	1310.9077	1338.2761	1367.8591	1382.5417	1385.9961	1396.4438	1409.0352	1413.8604	1425.5821	1442.0343	1480.5284	1481.6676	1487.077	1492.4855	1498.5386	1502.3773	1513.8231	2893.7569	2933.7402	2959.9716	3020.3709	3042.929	3046.3222	3057.8517	3082.9463	3104.9812	3117.0818	3127.0127	3131.7084	3138.9492	3140.9254
CC1OCC(C)C(C)O1	C[C@H]1OC[C@@H](C)[C@@H](C)O1	
InChI=1S/C7H14O2/c1-5-4-8-7(3)9-6(5)2/h5-7H,4H2,1-3H3	InChI=1S/C7H14O2/c1-5-4-8-7(3)9-6(5)2/h5-7H,4H2,1-3H3/t5-,6-,7+/m1/s1
