21
gdb 114805	2.58963	1.26357	1.13554	0.3856	78.1	-0.2392	0.0724	0.3116	1204.0277	0.181637	-424.192852	-424.183621	-424.182677	-424.226985	34.644	
C	 0.1051583508	 1.6151548249	 0.094652849	-0.4763
C	 0.0989655133	 0.1086823374	 0.0770780041	 0.428089
O	-1.2400392404	-0.4366404299	 0.2478106943	-0.331204
C	-0.8210163104	-1.2475524358	 1.3714627018	-0.084223
C	 0.6479160422	-0.8511861663	 1.1815301396	-0.131595
C	 1.3879896461	-1.6684590987	 0.0877601748	-0.244972
C	 0.9101562777	-0.6610501875	-1.0050992841	-0.016391
C	 0.144595278	-1.2123358136	-2.1907526543	-0.094115
O	 1.0461130133	-2.0138355979	-2.946556286	-0.427109
H	 1.1281856382	 2.0016659209	 0.0466995471	 0.117148
H	-0.4473441458	 2.0069979786	-0.7672229291	 0.127549
H	-0.3721590616	 1.9962396858	 1.0025018464	 0.121455
H	-1.2794033224	-0.894562083	 2.304802756	 0.097895
H	-1.0648167933	-2.3088712051	 1.2348458979	 0.097081
H	 1.2121175608	-0.5230031513	 2.0540299509	 0.072487
H	 2.4718006218	-1.7059979851	 0.210648869	 0.104113
H	 1.0249215682	-2.6922138869	-0.0412571285	 0.101297
H	 1.7433056872	-0.0522248501	-1.3720396527	 0.073229
H	-0.7137098366	-1.7965009944	-1.8319778117	 0.097495
H	-0.255403938	-0.3828917411	-2.7971959797	 0.082803
H	 0.5461988208	-2.4438584507	-3.6463309945	 0.285269
69.5232	88.4896	166.9957	208.5	216.615	267.6358	299.3686	323.3673	376.4857	444.6248	500.0072	616.0194	696.5452	800.4803	827.8117	859.6976	891.0396	915.5644	932.8728	980.183	1006.525	1032.4588	1056.4914	1081.6448	1102.8168	1129.8707	1147.5224	1159.7158	1182.9916	1192.2104	1206.8415	1254.771	1266.5647	1271.8402	1302.3039	1332.4942	1352.1444	1359.4708	1407.1446	1455.8006	1480.3084	1483.3573	1487.4792	1521.071	1525.6448	2965.7042	3002.3668	3023.3373	3030.0385	3045.4198	3053.5173	3060.1813	3098.0515	3108.1863	3111.171	3120.7588	3829.5524
CC12OCC1CC2CO	C[C@]12OC[C@H]1C[C@H]2CO	
InChI=1S/C7H12O2/c1-7-5(3-8)2-6(7)4-9-7/h5-6,8H,2-4H2,1H3	InChI=1S/C7H12O2/c1-7-5(3-8)2-6(7)4-9-7/h5-6,8H,2-4H2,1H3/t5-,6+,7+/m0/s1
