21
gdb 58434	2.84386	1.31976	1.25158	2.2274	78.18	-0.2538	0.058	0.3118	1134.4057	0.18228	-424.169921	-424.161197	-424.160252	-424.202851	35.01	
C	-0.0165165496	 1.5127964401	 0.1521051799	-0.412841
C	-0.1415638971	-0.0126828792	 0.0366748619	 0.071044
O	-1.5012862645	-0.4110351311	-0.0650779707	-0.441382
C	 0.6313866824	-0.5737656951	-1.1687885491	 0.439609
O	-0.0804275944	-0.1792140674	-2.3451818565	-0.502546
C	 2.1945893329	-0.5551618441	-1.2427510311	-0.128671
C	 2.1917521285	-1.7020986735	-0.1889719214	-0.238395
C	 1.0655986387	-2.069479218	-1.2011739754	-0.08831
C	 2.0795130115	-1.6782791382	-2.3214418483	-0.233134
H	 1.0208330072	 1.8189535133	 0.3262256395	 0.113256
H	-0.3779052386	 2.0146096831	-0.7532950722	 0.096343
H	-0.6281774182	 1.8681186158	 0.9850845687	 0.129112
H	 0.2237925418	-0.4560984189	 0.9656357414	 0.085061
H	-1.7238984506	-0.3130786202	-1.0006207299	 0.281143
H	 0.0989622283	 0.7530536396	-2.5068183713	 0.285592
H	 2.8452259918	 0.3218856645	-1.2633931331	 0.067116
H	 3.0669132788	-2.3546782804	-0.2141753181	 0.097441
H	 1.9164567079	-1.4663915632	 0.8384928271	 0.099499
H	 0.4047047792	-2.9356964218	-1.1723578081	 0.081317
H	 1.6631141139	-1.4015591243	-3.2871252888	 0.109428
H	 2.9527853299	-2.3274689711	-2.4182361846	 0.089318
75.595	156.3218	228.8201	262.0618	264.9724	314.2971	350.7237	404.341	471.4841	501.9244	511.8196	552.1813	601.8388	718.4324	793.5169	802.3842	893.3975	898.2108	902.0459	922.8302	986.2835	1003.0851	1016.8414	1031.8656	1052.9845	1083.1954	1098.9623	1105.9713	1116.6522	1153.9537	1184.5724	1197.5456	1200.625	1227.5657	1247.0189	1261.861	1287.0712	1321.7601	1372.0667	1397.6628	1440.235	1488.5322	1499.2308	1502.1578	1542.1788	3028.0241	3071.118	3073.6915	3080.9487	3090.0037	3099.7925	3118.599	3120.7496	3143.4456	3166.3951	3757.7788	3814.0027
CC(O)C1(O)C2CC1C2	C[C@@H](O)[C@@]1(O)[C@H]2C[C@@H]1C2	
InChI=1S/C7H12O2/c1-4(8)7(9)5-2-6(7)3-5/h4-6,8-9H,2-3H2,1H3	InChI=1S/C7H12O2/c1-4(8)7(9)5-2-6(7)3-5/h4-6,8-9H,2-3H2,1H3/t4-,5-,6+,7-/m1/s1
