18
gdb 34985	2.71735	1.63857	1.41544	1.3216	80.87	-0.2251	0.0256	0.2507	991.0249	0.148426	-364.729796	-364.722322	-364.721378	-364.761456	30.371	
C	-0.5748070554	-1.2401203581	-0.16871477	-0.444204
C	-0.2439486403	-0.0871403912	-0.0637337812	 0.327432
C	-0.015805002	 1.3288010797	 0.0154701423	-0.188795
C	 0.5199952763	 2.0266451322	 1.2316527301	-0.034051
C	 1.3143216884	 1.2611786717	 2.2949920069	-0.276613
C	 2.683812942	 0.9923123008	 1.6528207508	-0.032864
C	 2.75990482	-0.0346397135	 0.5515960096	-0.307566
C	 2.5691341631	 1.4242846378	 0.2078047277	 0.005807
N	 1.2770612253	 2.0659687353	-0.0241879892	-0.128776
H	-0.833919822	-2.2660528092	-0.2594322604	 0.199611
H	-0.7701154121	 1.8782374816	-0.5472384028	 0.119745
H	 0.0275735718	 2.9483437469	 1.5360857814	 0.094674
H	 1.4259655932	 1.8836222266	 3.1868730891	 0.109534
H	 0.8069347656	 0.3407492687	 2.6030716932	 0.120709
H	 3.5718249865	 1.2015033134	 2.2385349621	 0.08667
H	 3.7411613931	-0.440086927	 0.3244880485	 0.107664
H	 1.949176405	-0.7352770198	 0.4247097211	 0.142935
H	 3.3756034016	 1.9384183942	-0.3023168791	 0.098088
102.8251	168.8385	230.1835	296.4648	366.7788	415.9783	563.5086	606.5452	615.9116	648.0486	657.6106	685.7378	733.7672	779.6229	803.2695	816.2613	852.1589	902.4992	949.8515	986.1385	1006.9219	1051.8629	1067.396	1075.8269	1107.4832	1114.1285	1126.571	1139.3346	1195.4722	1224.7243	1295.5139	1300.7897	1324.9002	1362.0804	1379.3435	1392.6886	1479.3556	1491.4446	2221.6753	3049.4325	3092.7057	3101.9742	3120.7976	3142.404	3166.0128	3175.8889	3261.6803	3501.0122
C#CC1C2CC3CC3N12	C#C[C@H]1[C@H]2C[C@H]3C[C@H]3N12	
InChI=1S/C8H9N/c1-2-6-8-4-5-3-7(5)9(6)8/h1,5-8H,3-4H2	InChI=1S/C8H9N/c1-2-6-8-4-5-3-7(5)9(6)8/h1,5-8H,3-4H2/t5-,6+,7-,8-,9?/m1/s1
