20
gdb 111515	2.84349	1.3912	1.15777	1.9922	73.43	-0.2278	0.0532	0.281	1115.9225	0.172784	-440.255212	-440.246899	-440.245955	-440.28783	32.777	
O	 0.1266011681	 1.3447899746	 0.1703285844	-0.430771
C	 0.0461162169	-0.0514794672	-0.0555611851	-0.073738
C	-1.396745805	-0.5767914115	 0.0174589193	-0.014547
C	-1.520329685	-2.0964414482	 0.0080694739	-0.047711
C	-1.2008123306	-2.8278910451	 1.263615413	-0.250648
N	-2.601952129	-2.5385679476	 0.9118576344	-0.103716
C	-3.1315665434	-1.3218086437	 1.5509579388	-0.178263
C	-2.161937248	-0.1458428115	 1.2935997122	 0.040498
O	-1.2138521089	 0.0543195818	 2.3545744538	-0.431779
H	-0.0826742205	 1.4600890279	 1.1052872647	 0.287091
H	 0.4487165027	-0.2306153604	-1.0580935897	 0.104191
H	 0.6736876996	-0.6071727556	 0.6535543807	 0.098502
H	-1.9495978834	-0.1766160341	-0.8407644754	 0.086367
H	-1.4528058014	-2.6097640845	-0.9471445049	 0.090045
H	-0.9406011022	-3.8816497668	 1.2190799822	 0.112576
H	-0.7459604455	-2.2715216959	 2.0770170786	 0.130397
H	-4.1028407998	-1.1054515566	 1.090954035	 0.110498
H	-3.3010827376	-1.4874147595	 2.6213083939	 0.098115
H	-2.7084621695	 0.789863101	 1.1252819456	 0.083363
H	-1.7034417376	 0.284621543	 3.1504432647	 0.289528
116.4325	133.2851	190.1525	250.0261	311.4894	331.419	371.0558	406.6297	463.8741	536.4671	567.172	661.8718	737.8129	770.9542	797.7907	859.1925	884.244	962.1429	973.3976	991.5328	1016.2773	1043.6121	1078.0966	1090.1902	1113.6169	1123.3121	1136.8684	1170.9838	1202.3243	1229.4488	1249.8044	1271.3304	1302.9434	1331.0842	1340.6668	1348.1028	1389.7903	1400.2284	1428.2813	1438.2547	1479.8625	1502.0564	1507.5659	3015.4915	3019.4177	3031.4277	3043.0432	3072.775	3075.7927	3114.9725	3143.9812	3207.8049	3784.373	3822.6656
OCC1C2CN2CC1O	OC[C@H]1[C@H]2CN2C[C@H]1O	
InChI=1S/C6H11NO2/c8-3-4-5-1-7(5)2-6(4)9/h4-6,8-9H,1-3H2	InChI=1S/C6H11NO2/c8-3-4-5-1-7(5)2-6(4)9/h4-6,8-9H,1-3H2/t4-,5+,6+,7?/m0/s1
