19
gdb 102423	2.90077	0.75402	0.61624	0.8059	95.22	-0.2458	-0.0209	0.2249	1803.4859	0.15535	-385.829656	-385.818915	-385.817971	-385.866042	37.798	
C	-0.8056535188	 1.0995942572	-0.4587933135	-0.390933
C	-0.2675902224	-0.3062703435	-0.1872333881	-0.178869
C	 0.7143601787	-0.3431695813	 0.995253979	-0.13162
O	 0.003464802	 0.0692601955	 2.1514006225	-0.225194
C	 0.8214748858	 0.3155102469	 3.276971055	-0.238952
C	 1.3073445949	-1.676131656	 1.1612806026	 0.470821
C	 1.7943159116	-2.776441709	 1.2968177417	-0.272748
C	 2.3369665252	-4.0154998512	 1.4453463861	 0.292045
C	 2.8207530232	-5.1139259194	 1.5778124954	-0.562576
H	 0.0028690203	 1.7886361004	-0.7279687543	 0.111989
H	-1.5203737362	 1.0857554231	-1.2867225055	 0.113583
H	-1.3088236029	 1.4978471171	 0.4250412862	 0.137513
H	-1.0878289482	-0.9956923454	 0.0391424341	 0.119831
H	 0.2488239336	-0.7008244698	-1.0685059085	 0.110659
H	 1.5343952691	 0.3714688031	 0.7974658505	 0.093406
H	 1.3519046667	-0.5894897824	 3.6024794546	 0.122865
H	 1.564101267	 1.101839334	 3.0708898682	 0.105246
H	 0.1621402853	 0.6516663897	 4.0801855313	 0.13039
H	 3.2430565253	-6.081154449	 1.6930262624	 0.192542
63.3764	72.4095	106.7738	124.7026	189.0158	209.6206	212.8153	252.4193	299.0824	322.2798	422.2754	498.3239	506.8494	525.9224	565.9404	589.5807	612.3762	748.6733	798.3094	900.414	941.843	1045.2427	1101.041	1121.0835	1146.8857	1166.5838	1184.5486	1224.7678	1288.5474	1314.358	1359.5588	1378.4244	1406.4806	1475.4759	1479.213	1484.7821	1494.6404	1508.3174	1510.2148	2178.8399	2356.5164	2933.4527	2983.7941	3038.1145	3044.5817	3049.1619	3087.3411	3106.0619	3122.4464	3132.4276	3505.0506
CCC(OC)C#CC#C	CC[C@@H](OC)C#CC#C	
InChI=1S/C8H10O/c1-4-6-7-8(5-2)9-3/h1,8H,5H2,2-3H3	InChI=1S/C8H10O/c1-4-6-7-8(5-2)9-3/h1,8H,5H2,2-3H3/t8-/m1/s1
