20
gdb 117863	3.65355	0.57902	0.51489	5.6006	95.32	-0.2798	-0.034	0.2458	2113.7629	0.169357	-366.01689	-366.006307	-366.005363	-366.05351	37.052	
C	 0.0642941297	 1.602188447	 0.0312232687	-0.386892
C	-0.0031217387	 0.0724038175	-0.0044753148	-0.178508
C	 0.6440336595	-0.5077614593	-1.2670293507	-0.160441
C	 0.6814817965	-2.0582667213	-1.3038652336	-0.199346
C	-0.7203970502	-2.703486788	-1.3623492873	-0.389786
C	 1.4938289447	-2.5118391908	-2.4262670895	 0.101739
C	 2.1592795682	-2.8740675327	-3.3687251566	 0.047364
C	 2.9109095657	-3.285809102	-4.430966222	 0.199781
N	 3.5506234285	-3.6363077336	-5.3355632467	-0.34039
H	 1.1013013197	 1.9540360293	 0.0077649997	 0.119987
H	-0.4534150648	 2.0410372886	-0.8286175152	 0.119881
H	-0.4023240388	 1.9976117587	 0.9383257915	 0.11782
H	 0.499104587	-0.33824525	 0.8816753894	 0.099795
H	-1.0504729375	-0.2435336375	 0.0619704118	 0.105347
H	 0.1162712427	-0.1479027718	-2.1591714878	 0.111182
H	 1.6722632131	-0.1365395989	-1.3469581109	 0.113294
H	 1.1779817145	-2.4033038457	-0.3850687326	 0.121413
H	-1.297591619	-2.4429229152	-0.4723097808	 0.129477
H	-1.2667074746	-2.3575226267	-2.2448398151	 0.133372
H	-0.6449782661	-3.7923676776	-1.4133652375	 0.134912
59.9942	64.3967	87.9526	127.0854	179.1354	222.109	245.702	250.5325	289.7161	324.7802	373.1316	506.3736	524.636	580.4855	593.4465	711.4428	745.9187	848.2385	875.3262	927.0663	1002.5553	1007.75	1052.3585	1095.9425	1124.7093	1157.1345	1204.3901	1259.6414	1291.5901	1321.3977	1339.9432	1350.3976	1394.1466	1409.8633	1415.6765	1481.459	1493.2774	1495.6092	1499.6958	1502.1636	1511.2123	2260.9841	2397.4524	3001.8751	3018.5191	3030.9932	3034.8757	3048.6081	3053.8235	3077.1599	3102.3322	3107.6702	3124.2409	3132.2731
CCCC(C)C#CC#N	CCC[C@@H](C)C#CC#N	
InChI=1S/C8H11N/c1-3-5-8(2)6-4-7-9/h8H,3,5H2,1-2H3	InChI=1S/C8H11N/c1-3-5-8(2)6-4-7-9/h8H,3,5H2,1-2H3/t8-/m1/s1
