17
gdb 70938	3.52661	1.53501	1.31476	1.5744	67.81	-0.2459	0.0634	0.3093	973.9854	0.136193	-458.871561	-458.864246	-458.863301	-458.903347	28.991	
O	-0.0144555864	 1.3781374217	-0.0066662694	-0.46412
C	 0.0314888039	 0.0045612014	 0.0220414968	 0.344046
C	 0.6028488066	-0.9859084946	-1.1264685805	-0.380889
C	-0.0180314309	-1.8445672148	-0.0080869495	 0.423732
C	 0.6863949203	-0.9319039696	 1.0585010792	-0.369566
O	-0.4858983499	-3.1226539019	 0.2593210219	-0.33417
C	-1.6731144901	-2.8612329599	 1.053999708	 0.001605
O	-1.9390773888	-1.4470964937	 1.0998330897	-0.293433
C	-1.2143131051	-0.924524324	-0.0007162202	 0.05214
H	 0.8727517044	 1.7213374604	 0.1453205246	 0.289424
H	 0.0889433914	-0.9653109493	-2.0894814062	 0.110565
H	 1.6890713751	-0.9990370126	-1.2337742765	 0.102998
H	 1.7784340931	-0.9616916624	 1.0741611554	 0.088582
H	 0.2509974536	-0.9310795247	 2.0569931875	 0.115661
H	-2.5052686846	-3.402272858	 0.5854124772	 0.115088
H	-1.519761819	-3.2032703031	 2.0831399746	 0.12084
H	-1.8325360437	-0.8685338848	-0.9034187925	 0.077497
74.2839	214.4466	243.2855	281.0951	370.7695	429.4948	506.6421	514.5169	586.8092	645.784	714.3594	734.6427	761.3516	842.9391	886.4046	928.1079	984.4157	1011.6656	1033.7947	1048.0235	1072.3313	1090.9714	1111.5953	1118.7219	1128.2396	1135.3293	1157.3765	1194.3825	1227.5238	1279.1772	1309.2563	1361.8053	1411.4108	1423.182	1486.4232	1531.4051	1543.688	3016.0334	3047.4821	3068.041	3073.1622	3074.1787	3142.6941	3154.715	3809.9413
OC12CC3(C1)OCOC23	O[C@@]12C[C@]3(C1)OCO[C@@H]23	
InChI=1S/C6H8O3/c7-5-1-6(2-5)4(5)8-3-9-6/h4,7H,1-3H2	InChI=1S/C6H8O3/c7-5-1-6(2-5)4(5)8-3-9-6/h4,7H,1-3H2/t4-,5-,6+/m0/s1
