16
gdb 30443	3.81551	1.2157	0.93256	1.8743	78.18	-0.2422	-0.0681	0.1741	1236.3382	0.123959	-434.105559	-434.09693	-434.095986	-434.139557	30.178	
C	 0.1008446494	 1.3731408114	-0.1583084071	-0.329314
N	-0.0331969873	-0.0694119079	-0.2189072874	-0.301086
C	-1.1622090216	-0.5914804998	-0.0458366125	 0.440922
O	-1.1689198255	-2.0095006187	-0.1278880036	-0.222744
C	-2.3164816772	-2.6701219955	 0.039755232	 0.434074
C	-2.1516584619	-4.1482358625	-0.0771704533	-0.472069
N	-3.4584032433	-2.1168156436	 0.2780391104	-0.328601
C	-3.4113166305	-0.7357032379	 0.3511894758	 0.067652
N	-2.3784428153	 0.0208044327	 0.2096652608	-0.291774
H	 0.8302902576	 1.6277728566	 0.6191009134	 0.127031
H	 0.5169297277	 1.7294579347	-1.1076385656	 0.127038
H	-0.8370646535	 1.9011579964	 0.0429407388	 0.133007
H	-3.1134741899	-4.6373773013	 0.0673748748	 0.159348
H	-1.7442602511	-4.3999993414	-1.0613689764	 0.161811
H	-1.4324613206	-4.5020185373	 0.6682161501	 0.161806
H	-4.3675009171	-0.2556620158	 0.5520205197	 0.1329
62.923	103.3721	116.2899	171.6575	219.3961	252.5399	327.4332	402.71	494.9041	563.8456	615.478	631.0469	776.4829	787.7467	873.8656	959.4	998.0412	1012.3353	1040.2396	1068.5177	1135.5705	1136.5477	1165.4418	1235.188	1328.538	1408.7988	1421.8182	1436.9439	1462.2558	1471.7327	1492.5915	1496.2225	1592.3029	1679.5316	1780.0482	3019.6869	3053.1358	3076.6638	3097.1379	3112.6176	3155.256	3175.6731
CN=C1OC(C)=NC=N1	C[N]C1=NC=N[C@@H](O1)C	
InChI=1S/C5H7N3O/c1-4-7-3-8-5(6-2)9-4/h3H,1-2H3	InChI=1S/C5H8N3O/c1-4-7-3-8-5(6-2)9-4/h3-4H,1-2H3/t4-/m0/s1
