17
gdb 52132	6.34841	0.73197	0.66675	3.7238	71.31	-0.2255	-0.0333	0.1922	1617.3086	0.135876	-455.160851	-455.151979	-455.151035	-455.196675	30.5	
O	-0.1992920318	 0.1436501535	 0.389259699	-0.235169
C	 0.039540303	 1.1631240476	-0.2003260917	 0.140328
C	 1.4108001883	 1.8074011888	-0.2167051752	-0.153425
O	 1.3596639765	 2.8962985591	-1.135951051	-0.273877
C	 2.447791853	 3.6757281288	-1.1626997995	 0.489114
N	 3.498713363	 3.5250538336	-0.4551672152	-0.359929
C	 4.3791620701	 4.6429084582	-0.8314585709	-0.156018
C	 3.7598548532	 5.2516361471	-2.1242682433	-0.18183
N	 2.3780927592	 4.7609835271	-2.0233284932	-0.366237
H	-0.7338822821	 1.7204005006	-0.773630433	 0.095978
H	 1.6742596071	 2.1638406405	 0.7861731405	 0.161541
H	 2.174403841	 1.0788660478	-0.5111046356	 0.152279
H	 4.4003036524	 5.3830699606	-0.0209044769	 0.110979
H	 5.4058369035	 4.2988809986	-0.9840347562	 0.111301
H	 3.7965079958	 6.3435873624	-2.1467702729	 0.115118
H	 4.2574605048	 4.8694586718	-3.026288193	 0.104872
H	 1.846341273	 4.632296744	-2.8724001919	 0.244976
20.6255	56.1449	113.9989	135.13	186.007	280.8396	308.5341	388.5009	542.7357	588.7396	702.3005	726.086	748.5562	764.1743	868.852	918.7309	996.2086	1039.8204	1044.5186	1078.5958	1108.0138	1114.8093	1119.6789	1210.5698	1230.5136	1241.7428	1300.2076	1316.0853	1328.113	1368.6642	1410.0704	1463.9832	1492.0601	1506.3836	1534.1439	1718.852	1846.7234	2897.3936	3004.893	3019.764	3043.8943	3079.0947	3084.9813	3091.9653	3600.836
O=CCOC1=NCCN1	O=CCO[C]1[N]CCN1	
InChI=1S/C5H8N2O2/c8-3-4-9-5-6-1-2-7-5/h3H,1-2,4H2,(H,6,7)	InChI=1S/C5H8N2O2/c8-3-4-9-5-6-1-2-7-5/h3H,1-2,4H2,(H,6,7)
