13
gdb 9977	3.11218	1.42813	1.02245	4.9938	65.37	-0.2703	-0.0521	0.2183	1065.1787	0.092473	-361.444055	-361.435537	-361.434592	-361.478065	28.84	
O	-0.0512168437	-0.0455886887	 0.0782260097	-0.219233
C	-0.0052423592	 1.1494964858	 0.0268900149	 0.175981
C	 1.306097699	 1.9564798804	-0.012330344	-0.251198
C	 1.3609891368	 2.8481277411	-1.2868048186	-0.35537
C	 1.3917473306	 2.067747597	-2.5215540628	 0.261019
N	 1.4166722018	 1.4450678451	-3.494156079	-0.288942
C	 1.3705356522	 2.7861485385	 1.1836206257	 0.287043
C	 1.3693822614	 3.4765736223	 2.1672719723	-0.415968
H	-0.9193952891	 1.783376571	 0.0161597988	 0.097755
H	 2.1276526865	 1.2337859277	-0.0315140575	 0.150043
H	 0.4941034509	 3.517844055	-1.3047377882	 0.168175
H	 2.2504836395	 3.4830848273	-1.2393623269	 0.176063
H	 1.3910540633	 4.0760778375	 3.0443871056	 0.214631
58.8603	66.4684	117.3285	169.7948	219.0171	300.5475	387.2262	438.3406	487.9619	495.7085	570.9436	659.3438	662.491	839.3337	928.8074	966.9182	1001.7832	1058.557	1081.7198	1200.5485	1271.4476	1300.9048	1349.6457	1414.5993	1464.9805	1850.3598	2236.2346	2366.9536	2892.6506	3055.8031	3074.1162	3101.6781	3499.9288
O=CC(CC#N)C#C	O=C[C@@H](CC#N)C#C	
InChI=1S/C6H5NO/c1-2-6(5-8)3-4-7/h1,5-6H,3H2	InChI=1S/C6H5NO/c1-2-6(5-8)3-4-7/h1,5-6H,3H2/t6-/m1/s1
