19
gdb 90278	3.6202	1.19341	1.0063	2.5309	77.73	-0.2208	0.0294	0.2502	1202.7442	0.160724	-423.033574	-423.025498	-423.024554	-423.066561	30.62	
O	-0.5286693381	 1.2608968846	 0.6884501426	-0.434459
C	-0.0317388567	 0.0808700353	 0.0691924493	 0.129666
C	 0.8178029461	-0.7807564911	 1.0643578201	-0.37753
C	-0.1557200496	-1.8387317678	 1.487453195	 0.246688
C	-1.2685917175	-1.8375640741	 0.7607451269	 0.244833
C	-2.1790272235	-2.934601202	 1.2098603163	-0.18864
O	-1.4682477542	-3.5706052644	 2.2809582296	-0.27463
C	-0.2022395504	-2.9353155944	 2.5027090108	-0.186826
C	-1.2778166241	-0.777510254	-0.2983864957	-0.350199
H	 0.2246825469	 1.8044425782	 0.9404352894	 0.280773
H	 0.5523776818	 0.3423638648	-0.8240221906	 0.064015
H	 1.7040439009	-1.2088849719	 0.5758404027	 0.105493
H	 1.1835329051	-0.1571222154	 1.8902966115	 0.099468
H	-3.1497251359	-2.5664668054	 1.5780848876	 0.105461
H	-2.3925513646	-3.6721025375	 0.4194280714	 0.101502
H	 0.6072800725	-3.6733016517	 2.3819739017	 0.100673
H	-0.1503701575	-2.5672735658	 3.5399022434	 0.103046
H	-2.1682802776	-0.1400059109	-0.2909222366	 0.124782
H	-1.1940073135	-1.2022404367	-1.3071932254	 0.105883
64.1664	134.5874	189.1194	206.0302	303.2797	338.2248	395.858	460.4299	484.2582	580.7638	682.1598	770.4334	823.67	867.914	902.1199	913.5049	931.5613	990.3963	1000.0956	1031.2608	1060.1184	1071.9922	1082.8936	1163.2909	1170.2912	1207.7823	1213.6496	1218.7302	1229.4683	1251.2111	1303.1321	1330.0028	1342.8258	1399.0844	1405.0115	1422.1007	1471.7843	1479.5381	1517.4113	1527.9593	1741.718	2965.0817	2972.4311	2982.1213	2986.4134	2993.7116	3011.79	3026.3837	3042.9338	3073.421	3815.6105
OC1CC2=C(COC2)C1	O[C@H]1CC2=C(COC2)C1	
InChI=1S/C7H10O2/c8-7-1-5-3-9-4-6(5)2-7/h7-8H,1-4H2	InChI=1S/C7H10O2/c8-7-1-5-3-9-4-6(5)2-7/h7-8H,1-4H2
