15
gdb 46775	2.76443	1.93768	1.3334	2.277	64.27	-0.2413	-0.0037	0.2376	917.25	0.116434	-453.997607	-453.990959	-453.990015	-454.029006	25.402	
O	-0.0481318986	 0.182395244	 0.6501340655	-0.35086
C	-0.0312768448	 1.2637287862	 0.1347317143	 0.440702
O	-1.1405063367	 1.8907603771	-0.3148230245	-0.214888
C	-0.8490684707	 3.2031832656	-0.8337514962	-0.094959
C	 0.5910309528	 3.5403573337	-0.4090955019	-0.012343
N	 0.660390478	 4.310631986	 0.8471704564	-0.249323
C	 1.35961107	 3.6107822512	 1.6567859276	 0.060333
N	 1.8986973914	 2.4203055999	 1.1861014471	-0.291766
C	 1.1993765542	 2.1621927847	-0.0729062872	-0.169734
H	-0.9658729771	 3.1735815438	-1.9216024771	 0.120102
H	-1.5684874596	 3.9038262104	-0.406928549	 0.14449
H	 1.1117376085	 4.0866058701	-1.2004898746	 0.101663
H	 1.5894591596	 3.925356559	 2.6705656362	 0.136451
H	 1.9814347994	 1.6392324627	 1.8251511225	 0.259739
H	 1.8576538536	 1.7290454055	-0.8290198691	 0.120393
94.4788	156.4978	235.4974	343.0947	490.7864	528.2221	575.8707	621.3172	684.0937	745.9444	794.6344	856.6804	883.8677	914.7476	958.3896	970.8582	1009.9185	1057.7911	1071.0908	1093.5767	1122.3605	1181.0131	1233.6747	1240.1897	1269.7276	1312.2377	1325.1257	1348.3231	1397.9764	1417.8193	1510.8559	1676.8968	1872.4337	3054.3397	3070.0007	3091.748	3128.1669	3191.8973	3576.3676
O=C1OCC2N=CNC12	O=C1OC[C@H]2[N][CH]N[C@@H]12	
InChI=1S/C5H6N2O2/c8-5-4-3(1-9-5)6-2-7-4/h2-4H,1H2,(H,6,7)	InChI=1S/C5H6N2O2/c8-5-4-3(1-9-5)6-2-7-4/h2-4H,1H2,(H,6,7)/t3-,4-/m1/s1
