14
gdb 42603	2.6247	2.22471	1.49312	4.6132	66.29	-0.2489	-0.0183	0.2306	851.7424	0.103121	-432.85208	-432.845667	-432.844722	-432.882837	25.666	
N	-0.0539849953	 1.1556453782	-0.3371905395	-0.538391
C	-0.0566332413	-0.0680311414	-0.0732986036	 0.388735
C	-1.0980065321	-1.0919216635	 0.1657860344	-0.175708
C	-0.6164764972	-2.4265431295	-0.5050953134	-0.017254
N	 0.3998667699	-2.4010735836	-1.5161974274	-0.329972
C	 1.4103377839	-1.5260912303	-1.135785152	 0.395943
O	 2.3437809109	-1.1559924028	-1.7880343463	-0.341079
N	 1.0567776275	-1.0334607131	 0.2053491955	-0.237857
C	 0.0152133126	-1.9708252908	 0.7394517474	-0.037687
H	 0.9007928949	 1.5135186346	-0.4080033501	 0.246228
H	-2.123102955	-0.9541153043	 0.4817519874	 0.120578
H	-1.3267709876	-3.243085956	-0.5232708323	 0.132594
H	 0.202339982	-2.5000229711	-2.5000290317	 0.266674
H	 0.1304645468	-2.4578934664	 1.6974612316	 0.127195
144.8378	150.2788	401.2752	429.1876	440.9276	497.2279	618.959	669.6918	679.9798	768.9331	782.6448	804.7595	831.0977	845.5006	882.8149	926.0741	938.1111	990.3548	1009.8959	1041.6194	1042.1914	1079.0076	1121.0579	1154.4586	1199.0241	1290.0882	1297.3409	1362.8717	1416.4358	1810.7512	1886.3572	3205.3245	3213.0904	3223.9028	3472.0631	3636.6948
N=C1C2C3NC(=O)N1C23	[NH][C]1[C@H]2[C@H]3NC(=O)N1[C@@H]23	
InChI=1S/C5H5N3O/c6-4-1-2-3(1)8(4)5(9)7-2/h1-3,6H,(H,7,9)	InChI=1S/C5H5N3O/c6-4-1-2-3(1)8(4)5(9)7-2/h1-3,6H,(H,7,9)/t1-,2+,3-/m0/s1
