14
gdb 127205	2.41093	2.03803	1.1132	0.5462	69.89	-0.2598	-0.0965	0.1633	1003.908	0.100472	-466.144208	-466.136018	-466.135074	-466.17838	28.934	
C	-0.5605054849	 1.3472661095	 0.0207727278	-0.333357
N	-0.1123430294	-0.047685467	-0.0028684897	-0.178987
C	 0.0906352796	-0.6793973194	-1.2186753912	 0.502837
N	-0.10114205	-0.104736454	-2.327047657	-0.557759
O	 0.5130608089	-1.9846213899	-1.1519012984	-0.278975
N	 0.7233430848	-2.6622241006	 0.1112902394	 0.060623
N	 0.5670847528	-2.0366708563	 1.1474523055	-0.146635
C	 0.1826860358	-0.6583336757	 1.1939275365	 0.474561
N	 0.1085320417	-0.0471254907	 2.3053041224	-0.521338
H	 0.2815623932	 2.0122449963	 0.2332356381	 0.149806
H	-0.9819030621	 1.581309232	-0.9530122968	 0.177534
H	-1.2986395284	 1.4609711571	 0.8151485954	 0.15975
H	 0.087845394	-0.7407327067	-3.0980892589	 0.243152
H	 0.3398623841	-0.6918286146	 3.0593480469	 0.248789
31.1743	79.4857	101.669	204.2834	352.8763	370.5578	420.5684	495.4771	528.7446	549.879	636.7715	699.6247	746.1627	775.566	803.5253	876.6265	894.8826	964.2205	1044.6367	1087.9807	1156.1617	1184.5009	1249.826	1369.001	1411.8008	1459.4451	1490.2853	1506.6741	1664.7832	1724.9782	1763.286	3063.5183	3137.2006	3200.084	3518.1928	3537.6909
CN1C(=N)ON=NC1=N	CN1[C@H]([NH])O[N]N=C1[NH]	
InChI=1S/C3H5N5O/c1-8-2(4)6-7-9-3(8)5/h4-5H,1H3	InChI=1S/C3H6N5O/c1-8-2(4)6-7-9-3(8)5/h3-5H,1H3/t3-/m0/s1
