23
gdb 116478	2.54382	1.25591	1.01214	0.9053	87.94	-0.2329	0.022	0.255	1309.2118	0.207197	-388.297012	-388.287788	-388.286844	-388.331392	35.132	
C	 0.192146284	 0.4312675167	-1.829303227	-0.393563
C	-0.1248893438	 0.4269167692	-0.3306629237	-0.158645
C	-1.3561246707	-0.4263832764	 0.0667837421	-0.034566
C	-1.1453741269	-1.9241634329	-0.1977856045	-0.090545
O	-0.0616415399	-2.5020888178	 0.5059843538	-0.242452
C	-0.3562818057	-2.8768614255	 1.8369751755	-0.067649
C	-0.3260601794	-1.7227949496	 2.8403490865	-0.255032
C	-1.3383818624	-0.622058036	 2.6317946017	-0.053385
C	-1.7718624814	-0.0958134929	 1.4844336541	-0.081035
H	 1.0262225871	 1.1063305883	-2.0454720243	 0.112657
H	 0.4761207301	-0.561231995	-2.1919339861	 0.124063
H	-0.6683072372	 0.7690704207	-2.4186319529	 0.109854
H	 0.7403874727	 0.0604647324	 0.2320838874	 0.111843
H	-0.2983178966	 1.4564970282	 0.0034225423	 0.091507
H	-2.1859956653	-0.1314856376	-0.5928871242	 0.068858
H	-2.0755159642	-2.4676983463	 0.0310974661	 0.08573
H	-0.9259484617	-2.0791807322	-1.259452534	 0.101154
H	-1.3379518649	-3.3763136975	 1.8775176217	 0.087113
H	 0.4058791183	-3.6129295637	 2.1161580425	 0.100197
H	-0.4673500971	-2.1545887018	 3.8393958831	 0.098612
H	 0.6857875514	-1.2918130113	 2.8439741129	 0.11924
H	-1.7270630303	-0.1844560276	 3.5497115465	 0.08356
H	-2.4734935662	 0.7336156986	 1.5616950206	 0.08248
47.7094	91.125	147.1076	215.6083	248.8872	258.8524	303.2221	392.8589	408.1049	476.6491	502.2307	603.1699	712.3912	748.0589	762.9909	796.3794	845.8899	893.986	915.3797	963.3904	1001.4971	1009.8518	1031.7712	1047.6989	1061.8354	1086.4143	1122.6259	1151.1987	1167.6879	1236.0113	1261.6623	1276.5376	1304.4505	1314.5614	1337.1147	1363.608	1377.0089	1388.789	1393.2109	1409.0782	1430.3129	1435.7285	1464.845	1481.4037	1482.7162	1494.4772	1500.9097	1509.8874	1725.2231	2971.1789	2979.9487	2996.6382	3005.0807	3030.5489	3034.9459	3047.602	3063.0754	3069.9288	3073.9056	3097.7985	3107.865	3121.2748	3147.0907
CCC1COCCC=C1	CC[C@H]1COCCC=C1	
InChI=1S/C8H14O/c1-2-8-5-3-4-6-9-7-8/h3,5,8H,2,4,6-7H2,1H3	InChI=1S/C8H14O/c1-2-8-5-3-4-6-9-7-8/h3,5,8H,2,4,6-7H2,1H3/t8-/m1/s1
