17
gdb 56454	2.01207	1.24011	0.99914	1.8917	79.84	-0.2452	-0.0297	0.2155	1279.4941	0.131071	-384.639784	-384.629528	-384.628584	-384.676365	36.466	
C	-0.1814942873	 1.7361401622	 0.3599996953	-0.3888
C	-0.6022243696	 0.3041314075	-0.003085453	-0.236407
C	 0.4801439451	-0.6600915389	 0.1844932379	 0.322664
C	 1.368766069	-1.4480841125	 0.3719746347	-0.48022
C	-1.834450997	-0.147375173	 0.8140009478	 0.388358
O	-2.2963872938	 0.5269171632	 1.6956714859	-0.285233
C	-2.4423178691	-1.5171612918	 0.4546990543	-0.427506
C	-2.8216683392	-1.6203547467	-0.9472878124	 0.295991
C	-3.1365936129	-1.6767310167	-2.1058450732	-0.45363
H	 0.6734596068	 2.0411556637	-0.2474465015	 0.123744
H	-1.0094077678	 2.4269046928	 0.1849984111	 0.129745
H	 0.0943104564	 1.79886856	 1.4143183172	 0.141782
H	-0.9106135434	 0.2638606055	-1.0571125013	 0.140824
H	 2.1600648703	-2.1406154309	 0.5211575546	 0.203934
H	-1.6957690501	-2.2846920508	 0.6953910502	 0.165409
H	-3.3051055753	-1.6661043671	 1.1100557336	 0.154372
H	-3.418796152	-1.7417120266	-3.1275990613	 0.204972
17.9394	60.641	123.7856	141.7639	202.7961	224.315	255.524	330.7001	349.7954	398.8754	490.177	516.9236	548.6224	621.3535	622.1727	645.757	648.7322	681.022	745.2423	879.1552	929.2211	976.1832	1029.1683	1074.7138	1116.985	1146.5351	1208.3426	1284.7338	1301.664	1321.0655	1410.6409	1448.2993	1487.8549	1492.2993	1830.804	2230.6802	2237.7514	3020.5577	3036.498	3059.4168	3096.6511	3136.8516	3143.7515	3502.8434	3504.6941
CC(C#C)C(=O)CC#C	C[C@@H](C#C)C(=O)CC#C	
InChI=1S/C8H8O/c1-4-6-8(9)7(3)5-2/h1-2,7H,6H2,3H3	InChI=1S/C8H8O/c1-4-6-8(9)7(3)5-2/h1-2,7H,6H2,3H3/t7-/m0/s1
