21
gdb 95084	2.25957	1.94283	1.30331	1.4787	77.85	-0.2423	0.0678	0.3101	1043.4247	0.183157	-424.220962	-424.212635	-424.211691	-424.253191	33.579	
C	 0.0520144525	 1.5357497287	-0.0743761959	-0.385342
C	-0.0104861588	 0.0201080155	 0.0565807301	 0.074575
O	 0.5429912777	-0.5102686149	-1.1492638901	-0.272581
C	 1.0702732196	-1.8288597565	-1.0813044056	-0.068292
C	 1.6776098304	-2.1195748055	 0.2934262462	-0.040959
C	 2.2206527015	-0.7907378717	 0.8953704962	-0.260736
C	 0.7504809781	-0.52639504	 1.2938073507	 0.387981
O	 0.5531622877	 0.2454095931	 2.4518328885	-0.483614
C	 0.5499605941	-2.062748231	 1.357658919	-0.293207
H	 1.090598785	 1.8779892639	-0.1005074081	 0.12375
H	-0.4356536304	 1.8423883897	-1.0034160843	 0.120521
H	-0.447687605	 2.0216509025	 0.766372477	 0.109083
H	-1.0683074451	-0.2932516913	 0.1438753789	 0.054209
H	 0.2917499533	-2.5748818012	-1.3127969448	 0.08659
H	 1.8293316411	-1.8826488711	-1.8700022908	 0.105096
H	 2.3266548945	-2.9968818242	 0.2703868466	 0.070233
H	 2.8316390682	-0.9648527825	 1.7833744139	 0.105084
H	 2.7110081269	-0.0806117801	 0.2268316046	 0.105858
H	-0.3857566411	 0.2319455932	 2.6697271057	 0.27682
H	-0.4317670244	-2.4695109406	 1.0912018036	 0.08498
H	 0.8714004944	-2.458772386	 2.3243622486	 0.09995
121.4944	200.2667	216.2937	258.2464	287.6814	344.4673	383.53	406.0505	435.6008	462.1158	542.0177	598.0526	676.5301	816.9756	821.3	868.9185	881.6655	887.9006	949.763	979.9695	1006.5533	1016.8804	1037.207	1079.7928	1103.1175	1117.3852	1138.7369	1157.6889	1161.4693	1204.4632	1235.5153	1251.4714	1273.1908	1289.2512	1325.9568	1339.4639	1372.4043	1384.5105	1406.4494	1409.3629	1471.0913	1482.2794	1493.6173	1504.71	1514.7224	2913.9909	2965.2997	3037.8728	3050.6499	3055.5876	3072.455	3092.1269	3106.365	3123.008	3133.285	3134.7047	3795.1844
CC1OCC2CC1(O)C2	C[C@H]1OC[C@H]2C[C@]1(O)C2	
InChI=1S/C7H12O2/c1-5-7(8)2-6(3-7)4-9-5/h5-6,8H,2-4H2,1H3	InChI=1S/C7H12O2/c1-5-7(8)2-6(3-7)4-9-5/h5-6,8H,2-4H2,1H3/t5-,6-,7-/m1/s1
