18
gdb 11899	4.73621	1.46053	1.24133	1.8345	74.12	-0.2338	0.029	0.2628	1015.0536	0.153448	-347.805675	-347.798056	-347.797111	-347.837683	29.092	
C	-0.0702969036	 1.4918997831	 0.0437847869	-0.491466
C	 0.0102358672	-0.000688297	-0.0052459548	 0.334395
C	-0.0454902046	-0.7790679617	-1.0894437021	-0.167323
C	 0.0501182846	-2.2490168107	-0.7708456633	-0.338723
C	 0.354428107	-2.2502580739	 0.732027618	 0.431959
C	 0.290329212	-3.4456600683	 1.5760848934	-0.247848
O	 1.5503693932	-2.9238016735	 1.1453381013	-0.267302
C	 0.1534312005	-0.8257578048	 1.2560484567	-0.38359
H	 0.8304825855	 1.9227549766	 0.4993039103	 0.127176
H	-0.185802772	 1.922400136	-0.9546663463	 0.123226
H	-0.9171274703	 1.8242324715	 0.6582463383	 0.123504
H	-0.1612809172	-0.4105738822	-2.1033633218	 0.085431
H	-0.8846094204	-2.7794827933	-1.0004330281	 0.107692
H	 0.8491407292	-2.7656111854	-1.3155308544	 0.121936
H	 0.0816052786	-3.3472972897	 2.6416323099	 0.106993
H	 0.0054534735	-4.4033989659	 1.1399504745	 0.107614
H	 1.0086414142	-0.5252381944	 1.8735581413	 0.119801
H	-0.7400054975	-0.7404977964	 1.8909960902	 0.106527
57.5831	179.593	233.6265	256.1559	332.5319	399.1783	412.2906	440.243	485.9972	640.6091	779.1621	806.1571	831.2921	880.5448	893.8965	949.501	962.7443	975.034	1019.5301	1036.6872	1077.5801	1127.1985	1153.0767	1158.2582	1183.694	1208.1794	1226.4372	1275.3876	1297.6614	1341.9282	1414.2235	1425.0346	1470.8344	1478.9317	1479.2951	1489.3064	1534.2889	1723.3877	3005.482	3008.8512	3016.3415	3052.8628	3056.1988	3061.2728	3069.6988	3109.5958	3152.4086	3186.0018
CC1=CCC2(CO2)C1	CC1=CC[C@]2(CO2)C1	
InChI=1S/C7H10O/c1-6-2-3-7(4-6)5-8-7/h2H,3-5H2,1H3	InChI=1S/C7H10O/c1-6-2-3-7(4-6)5-8-7/h2H,3-5H2,1H3/t7-/m1/s1
