19
gdb 92691	2.96672	1.30295	0.94121	1.1807	79.24	-0.2279	-0.0553	0.1726	1247.3895	0.16024	-419.256394	-419.247641	-419.246697	-419.289489	33.707	
C	-0.034701326	 1.5529370773	 0.0095165857	-0.401172
C	 0.025781875	 0.0247980603	-0.0036870385	-0.008928
C	 0.7466322686	-0.5164557609	-1.2476326481	-0.148913
N	 0.9269357548	-1.9581566849	-1.3007135547	-0.301232
C	 0.9502346467	-2.6333633619	-0.2128844186	 0.271697
N	 1.167900062	-3.9825143599	-0.1967781287	-0.54124
C	 0.778129927	-2.0483511564	 1.1806840924	 0.346098
O	 0.6967050084	-2.7749823417	 2.1474479971	-0.323211
C	 0.7181541235	-0.5418366384	 1.2444839423	-0.310007
H	 0.9715559818	 1.9871909206	 0.0359065595	 0.116767
H	-0.5396401962	 1.9340144225	-0.8842055382	 0.118697
H	-0.57979366	 1.9211888974	 0.8848124633	 0.116858
H	-1.0022945056	-0.3649531357	-0.0243466324	 0.084721
H	 0.2008307962	-0.2160844285	-2.1503025972	 0.104962
H	 1.7361555268	-0.0358390823	-1.3283708063	 0.102148
H	 1.0609482033	-4.4781401626	-1.0661919	 0.256387
H	 0.9311692095	-4.4570076205	 0.6600446622	 0.267066
H	 1.7555796083	-0.1731203794	 1.2806421696	 0.127525
H	 0.2366338259	-0.245166035	 2.1808034908	 0.121778
89.1784	126.6741	233.5348	256.3695	270.1678	332.1501	357.301	404.0037	405.8187	448.0719	472.6473	522.3094	582.2904	642.1609	703.12	760.274	866.3935	889.7014	940.908	953.4186	994.6037	1063.8338	1108.9045	1159.2841	1168.2117	1204.3831	1217.935	1282.0469	1289.892	1335.0223	1368.7668	1393.8799	1395.7976	1411.1115	1456.6749	1490.8929	1497.3472	1499.1975	1593.3746	1716.8906	1796.5791	2968.1812	2992.9698	3007.9088	3027.2906	3041.0938	3089.4239	3095.0795	3101.1312	3591.9891	3721.2547
CC1CN=C(N)C(=O)C1	C[C@H]1CN=C(N)C(=O)C1	
InChI=1S/C6H10N2O/c1-4-2-5(9)6(7)8-3-4/h4H,2-3H2,1H3,(H2,7,8)	InChI=1S/C6H10N2O/c1-4-2-5(9)6(7)8-3-4/h4H,2-3H2,1H3,(H2,7,8)/t4-/m1/s1
