19
gdb 32425	2.93548	1.22584	0.93142	1.673	79.69	-0.1956	0.0286	0.2242	1299.7818	0.157826	-423.064252	-423.054516	-423.053572	-423.098928	35.06	
C	-0.0582305335	 1.6149570175	-0.0448483305	-0.369841
C	-0.0157077708	 0.0779853046	 0.0364846128	-0.323975
C	-1.3762945801	-0.5512317301	 0.008301897	 0.160398
C	-2.0427214916	-1.1816316515	 1.0120489702	-0.121211
O	-3.2735497121	-1.5886220003	 0.6099721935	-0.18655
C	-3.4205979142	-1.2244333896	-0.7039274568	 0.289234
C	-4.6933362761	-1.5556739515	-1.3898466636	-0.49783
C	-2.2874422738	-0.5867634915	-1.1073672853	 0.099028
O	-2.0971124634	-0.0503616267	-2.35176867	-0.449568
H	 0.9516577362	 2.0366970224	-0.0588159939	 0.111789
H	-0.5800032338	 1.9468925963	-0.9480175188	 0.121618
H	-0.5934619848	 2.0311597944	 0.813599557	 0.126021
H	 0.5941580262	-0.3094501186	-0.7934099849	 0.094454
H	 0.5051690802	-0.2288070617	 0.9498579901	 0.110697
H	-1.7789715772	-1.4113524235	 2.0318905781	 0.129034
H	-5.5498578654	-1.0342761969	-0.945444695	 0.132392
H	-4.6203435949	-1.2569906916	-2.4382276446	 0.144299
H	-4.9069486134	-2.6301946288	-1.3511956555	 0.131864
H	-1.1518014574	 0.0186739172	-2.5158639797	 0.298148
75.5677	108.6556	128.271	168.9021	186.1832	230.225	248.9798	284.4788	316.2776	425.5317	493.0145	567.1736	619.5395	698.2619	714.3583	731.3892	753.8733	797.5681	938.913	963.7334	1023.0081	1065.3106	1072.9976	1087.5235	1180.8379	1194.5786	1243.364	1282.3309	1301.6903	1317.6599	1357.7786	1408.518	1412.8825	1455.863	1475.8037	1487.5427	1493.0045	1496.0865	1511.0344	1605.484	1716.5954	2993.6619	3023.1034	3037.5347	3063.3632	3070.5977	3109.0028	3114.6882	3127.7556	3265.9047	3831.0063
CCC1=COC(C)=C1O	CCc1coc(C)c1O	
InChI=1S/C7H10O2/c1-3-6-4-9-5(2)7(6)8/h4,8H,3H2,1-2H3	InChI=1S/C7H10O2/c1-3-6-4-9-5(2)7(6)8/h4,8H,3H2,1-2H3
