18
gdb 104994	2.94923	1.1403	0.97975	2.7636	71.38	-0.2787	0.0259	0.3046	1237.5426	0.14607	-439.074209	-439.064773	-439.063829	-439.108765	34.279	
C	-0.1819981948	 1.5710113176	 0.6794965946	-0.393717
C	-0.0959743144	 0.1557055608	 0.0651888613	-0.234135
C	 0.8576620943	-0.6623518782	 0.819747163	 0.289685
N	 1.6139649425	-1.3001716282	 1.4170540785	-0.330256
C	-1.481391076	-0.5020778312	-0.0313689403	 0.356277
C	-2.3093073481	-0.0527706912	-1.2343621883	-0.134045
O	-3.6456805546	-0.4771308859	-1.1339154536	-0.414105
C	-1.7999439921	-1.7854261127	 0.6043545462	-0.225547
O	-2.2300924465	-0.5358910557	 1.1877113329	-0.282041
H	 0.8096356597	 2.0245962714	 0.7376101502	 0.141173
H	-0.8200432177	 2.2132255471	 0.0679364373	 0.131468
H	-0.6052497513	 1.5124771263	 1.6839051073	 0.159429
H	 0.2982957175	 0.2346284304	-0.9568892961	 0.132808
H	-2.2398473502	 1.0431313214	-1.3350521197	 0.097325
H	-1.8921158213	-0.4904266129	-2.1486887579	 0.124023
H	-3.9156905675	-0.2873410448	-0.225040095	 0.295575
H	-2.6013454426	-2.3871631285	 0.1843370532	 0.134096
H	-1.037910787	-2.3127382658	 1.1709539162	 0.151986
44.7636	118.2054	153.2858	204.0587	217.29	246.5376	275.9834	346.144	359.363	437.1198	473.8054	491.3362	581.1081	652.8051	716.386	826.9962	859.0016	915.6172	933.6486	1013.617	1045.1666	1084.8227	1096.484	1134.0467	1140.716	1181.6526	1189.1319	1234.4319	1301.039	1334.3526	1374.3621	1410.069	1412.8726	1439.7874	1491.5584	1501.7173	1507.2292	1520.1112	2358.6563	2969.1182	3027.5293	3060.1185	3062.4079	3114.7484	3135.9552	3149.4714	3213.8101	3758.9251
CC(C#N)C1(CO)CO1	C[C@@H](C#N)[C@@]1(CO)CO1	
InChI=1S/C6H9NO2/c1-5(2-7)6(3-8)4-9-6/h5,8H,3-4H2,1H3	InChI=1S/C6H9NO2/c1-5(2-7)6(3-8)4-9-6/h5,8H,3-4H2,1H3/t5-,6+/m0/s1
