22
gdb 60608	2.13174	1.354	1.09642	2.3837	82.77	-0.2211	-0.0179	0.2032	1258.2618	0.191316	-404.334038	-404.323494	-404.32255	-404.369882	38.082	
C	-1.7683698274	 1.4219878729	-1.2659072694	-0.39321
C	-1.5810586318	 0.0017399283	-0.6820969711	-0.1031
C	-0.7832495952	-0.8404887419	-1.6792047572	 0.013633
C	 0.6755066986	-1.1362585593	-1.5869292838	-0.256114
N	-0.3126437123	-2.2073648947	-1.4659892951	-0.100114
C	-0.4738151903	-2.8525866804	-0.1726988852	-0.32889
C	-1.007658495	 0.185333152	 0.7292044886	 0.38665
C	-1.9883992867	-0.0026451386	 1.8725820028	-0.480895
O	 0.1376762792	 0.5266734998	 0.9249283063	-0.319872
H	-0.7983606854	 1.9172888288	-1.3593779327	 0.145493
H	-2.2333048138	 1.3699698028	-2.2546468068	 0.122207
H	-2.4077600285	 2.037938007	-0.6255326861	 0.116703
H	-2.5750088833	-0.4547385477	-0.5846974905	 0.0818
H	-1.1936899434	-0.7117392003	-2.6817017951	 0.087539
H	 1.2857607503	-1.1571675977	-2.486945767	 0.106219
H	 1.1861557505	-0.8024298902	-0.6889209314	 0.142001
H	-0.2425788595	-2.2180705191	 0.6955219662	 0.112595
H	-1.5007061134	-3.2220614018	-0.0749624436	 0.115541
H	 0.1951020799	-3.7183809607	-0.1307736344	 0.126864
H	-2.8819534533	 0.6122184875	 1.7146074304	 0.139351
H	-2.3258575995	-1.0448545347	 1.9059725356	 0.144356
H	-1.5169889495	 0.262337308	 2.8195709395	 0.141244
50.679	63.1852	147.7301	157.671	198.675	224.4777	235.8194	253.9563	270.9054	313.2942	384.7428	446.0564	509.9366	608.2343	647.0823	722.2302	763.9762	841.9588	909.5618	953.6837	975.0797	990.0129	1037.301	1060.0005	1074.3827	1104.949	1123.5084	1137.8555	1162.582	1171.0576	1199.517	1210.6389	1310.9269	1343.2631	1363.2052	1379.4983	1395.2741	1426.1299	1449.2267	1460.9066	1474.9207	1489.6437	1494.8238	1500.7518	1505.5319	1517.4439	1802.69	2993.5844	3015.2085	3034.8174	3038.9262	3064.6911	3085.4311	3092.505	3094.5648	3104.6835	3107.4324	3126.9367	3152.6763	3201.3762
CC(C1CN1C)C(C)=O	C[C@@H]([C@H]1CN1C)C(=O)C	
InChI=1S/C7H13NO/c1-5(6(2)9)7-4-8(7)3/h5,7H,4H2,1-3H3	InChI=1S/C7H13NO/c1-5(6(2)9)7-4-8(7)3/h5,7H,4H2,1-3H3/t5-,7-,8?/m1/s1
