23
gdb 60459	4.75803	0.60584	0.56132	2.3208	84.15	-0.256	0.0837	0.3396	2038.6812	0.202894	-425.399498	-425.388739	-425.387795	-425.43663	38.027	
C	 0.0812538237	 1.5748749646	-0.0706382232	-0.380754
C	 0.0202537001	 0.0429441977	-0.0371939862	 0.020691
C	-1.4249540605	-0.4675057525	 0.0118649725	-0.39294
C	 0.754072849	-0.5670379105	-1.2305122486	-0.034883
O	 2.1144265713	-0.1859798341	-1.1853085659	-0.252601
C	 2.8745252822	-0.6926339431	-2.256700819	-0.074123
C	 4.2957429514	-0.2277250473	-2.0991574058	 0.08217
C	 5.1937483077	-0.118862509	-3.2538715855	-0.181711
O	 4.6283263649	 1.0456329094	-2.6544569925	-0.226399
H	 1.1154152453	 1.9209074134	-0.1309199079	 0.13552
H	-0.4578830146	 1.9669553857	-0.9419448775	 0.106655
H	-0.378228222	 2.0049367075	 0.8251763391	 0.10637
H	 0.5429721909	-0.3033885183	 0.8645858835	 0.081768
H	-1.9808034423	-0.1660102901	-0.8841105276	 0.113351
H	-1.4670555779	-1.5599570484	 0.0795884612	 0.110099
H	-1.9523865008	-0.0579132028	 0.8787921249	 0.115204
H	 0.6690112114	-1.6675867525	-1.2103653016	 0.078918
H	 0.2936082368	-0.2239478534	-2.1744327888	 0.082327
H	 2.8453385265	-1.7973420072	-2.2632095354	 0.086547
H	 2.4827423592	-0.3423287854	-3.225711168	 0.094158
H	 4.7282690802	-0.4146594691	-1.1159010287	 0.10058
H	 6.2660076623	-0.2500961942	-3.1165070779	 0.116473
H	 4.8231125453	-0.3588648903	-4.2502285012	 0.112579
45.2712	46.6513	98.6157	122.1806	152.9171	213.7782	228.6879	252.7796	276.0715	368.444	379.7932	428.2279	471.8368	533.9199	801.0845	836.0863	872.0327	923.0108	930.1795	950.8419	960.6877	976.2234	999.9131	1036.7355	1100.5038	1143.8999	1157.6637	1160.2702	1167.3691	1173.8096	1195.314	1201.2651	1266.2294	1277.8865	1293.2102	1327.5921	1367.0753	1374.2348	1397.8577	1410.5331	1429.4632	1469.0269	1488.6683	1490.3439	1496.7905	1502.6564	1512.8675	1524.8754	1534.3988	2936.0701	2947.728	2967.5781	2989.0747	3019.3057	3024.6569	3030.591	3081.3284	3088.1003	3093.6597	3102.8322	3114.6717	3128.2634	3166.5409
CC(C)COCC1CO1	CC(C)COC[C@H]1CO1	
InChI=1S/C7H14O2/c1-6(2)3-8-4-7-5-9-7/h6-7H,3-5H2,1-2H3	InChI=1S/C7H14O2/c1-6(2)3-8-4-7-5-9-7/h6-7H,3-5H2,1-2H3/t7-/m0/s1
