18
gdb 17067	3.71023	1.44612	1.24056	1.2796	67.88	-0.2573	0.0662	0.3234	1012.6504	0.154225	-384.87179	-384.864084	-384.86314	-384.903834	29.679	
O	 0.0413721373	 1.4843191397	 0.0680760483	-0.416608
C	 0.0807561771	 0.0666144742	 0.1841241216	-0.127041
C	-1.3055584961	-0.5413595627	 0.0294617091	 0.021659
C	-1.9619924433	-0.7653726963	-1.3800512597	-0.119577
C	-1.0350216496	-2.0010656088	-1.5544221096	-0.232609
C	-1.5377126149	-2.0851224013	-0.0840776405	-0.121793
C	-2.949592993	-1.7550268447	-0.676510054	 0.198457
O	-4.0138583407	-1.3189433557	 0.1130502914	-0.44803
H	-0.2555923005	 1.6941883354	-0.8232745791	 0.283127
H	 0.8094998351	-0.3648458111	-0.514725161	 0.091519
H	 0.4519251941	-0.1323054558	 1.1958874098	 0.112037
H	-1.9474981358	-0.0244451706	 0.7536727491	 0.048497
H	-2.2083463528	-0.0104285916	-2.1297558008	 0.068192
H	-1.3896216931	-2.7807556883	-2.234404857	 0.09574
H	 0.0259191243	-1.8113975961	-1.7058798932	 0.101796
H	-1.2896713835	-2.8456783744	 0.6581373356	 0.073657
H	-3.3627250964	-2.528937606	-1.3283502856	 0.083741
H	-3.7122653183	-0.6281101361	 0.7115605456	 0.28724
82.428	155.8779	238.7729	246.3505	311.6081	374.7536	386.2095	448.6085	543.24	623.4601	755.3991	771.5221	849.9412	873.2023	888.8154	898.1187	992.472	1017.7446	1038.9047	1052.1196	1068.058	1105.2537	1116.2879	1122.5147	1170.1221	1178.062	1186.0833	1214.1502	1241.3991	1252.3098	1272.8495	1289.9483	1359.3961	1410.8099	1443.1167	1460.6344	1500.1283	1534.0395	3010.2066	3022.204	3064.9735	3068.0959	3082.3703	3090.9483	3104.0164	3149.8728	3813.7358	3816.0208
OCC1C2CC1C2O	OC[C@H]1[C@H]2C[C@@H]1[C@H]2O	
InChI=1S/C6H10O2/c7-2-5-3-1-4(5)6(3)8/h3-8H,1-2H2	InChI=1S/C6H10O2/c7-2-5-3-1-4(5)6(3)8/h3-8H,1-2H2/t3-,4+,5+,6+
