20
gdb 97802	3.74714	0.63551	0.5762	2.1943	86.72	-0.2362	0.0379	0.2741	1973.588	0.169909	-403.092486	-403.082163	-403.081219	-403.129729	36.277	
C	-0.0411950666	 1.668234499	-0.1129502484	-0.364716
C	 0.0121801281	 0.1313934903	-0.0358917241	-0.317533
C	-1.3089129093	-0.4870257814	-0.002765999	 0.118486
C	-2.4077219587	-0.982294335	 0.0126225268	 0.105599
C	-3.7293405512	-1.5462639379	 0.0663292307	-0.262071
N	-4.178311481	-2.3946731579	-1.0690768022	-0.335304
C	-3.9969454384	-3.0073141921	 0.2553934026	-0.021849
C	-2.8948590187	-4.038834082	 0.310129666	-0.074578
O	-3.2511258381	-5.1975928882	-0.4256591228	-0.422192
H	 0.9706617252	 2.083484876	-0.1367453718	 0.11536
H	-0.5695363705	 1.9937544164	-1.0130324379	 0.129831
H	-0.5635208629	 2.0830359438	 0.7534407903	 0.127416
H	 0.5704139333	-0.2598755487	-0.8961055196	 0.133138
H	 0.579717339	-0.1718797622	 0.8534906275	 0.129624
H	-4.4786444675	-0.8831284542	 0.4952120138	 0.107934
H	-5.1630203877	-2.217569105	-1.2496608139	 0.236915
H	-4.8957798069	-3.2615487575	 0.814576179	 0.093357
H	-1.9614825343	-3.5934190846	-0.0597258051	 0.103611
H	-2.7286843027	-4.3639747115	 1.3423696024	 0.107291
H	-3.4306501511	-4.8925611972	-1.3230317444	 0.289682
26.9773	57.8774	76.0659	120.2533	143.0706	220.2372	239.9315	312.6373	360.758	435.9395	457.8304	499.5384	545.541	590.9825	721.6857	786.074	816.5566	874.4391	904.8765	956.3309	981.06	999.5036	1068.3087	1077.3002	1098.0838	1104.1263	1153.3526	1174.9225	1217.88	1258.1077	1274.925	1286.4178	1350.9052	1363.3	1396.3848	1409.7296	1433.9045	1459.1668	1474.3324	1494.9856	1498.9822	1505.7263	2363.4917	3017.4631	3019.7473	3044.9245	3047.2162	3080.1773	3114.7866	3118.4003	3124.2803	3128.158	3503.7123	3790.0578
CCC#CC1NC1CO	CCC#C[C@H]1N[C@H]1CO	
InChI=1S/C7H11NO/c1-2-3-4-6-7(5-9)8-6/h6-9H,2,5H2,1H3	InChI=1S/C7H11NO/c1-2-3-4-6-7(5-9)8-6/h6-9H,2,5H2,1H3/t6-,7+/m1/s1
