23
gdb 93710	2.4145	1.19996	1.09861	0.5234	90.93	-0.2553	0.0595	0.3148	1300.1517	0.204882	-351.149132	-351.139159	-351.138215	-351.184526	38.192	
C	-0.1037500871	 1.5564348087	 0.0198950746	-0.413113
C	 0.0488712307	 0.0363763417	 0.0264726054	 0.051265
C	 0.8062298936	-0.5326543897	-1.2058614428	-0.217074
C	 1.6559953993	-1.7242809467	-0.691097921	-0.232649
C	 1.240262056	-1.9520732626	 0.7968726904	 0.097111
C	 2.383713203	-2.5340996991	 1.6465286294	-0.439256
C	 0.8277605378	-0.5204799453	 1.2289414641	-0.228671
C	 0.0796336041	-2.8460283373	 0.865416528	 0.36173
C	-0.8661659386	-3.5869552097	 0.9279201717	-0.526443
H	 0.875573253	 2.050022904	 0.0095123085	 0.108864
H	-0.6551367643	 1.8961684636	-0.863532495	 0.11226
H	-0.6456806116	 1.9091839154	 0.9041163037	 0.111243
H	-0.951010237	-0.4128493714	 0.0495592586	 0.085448
H	 0.1088101183	-0.8353957548	-1.9915770483	 0.102208
H	 1.4537521453	 0.2354985637	-1.6424481546	 0.094213
H	 1.5293783607	-2.6318543446	-1.2853057219	 0.105909
H	 2.7214044183	-1.4713205105	-0.7124825597	 0.094327
H	 3.2518720878	-1.8672913964	 1.6178726819	 0.109758
H	 2.075479537	-2.6558678087	 2.6890249653	 0.12212
H	 2.6899780554	-3.5149714376	 1.2709674796	 0.122525
H	 1.7415560336	 0.0673466081	 1.3919316998	 0.086409
H	 0.2540463416	-0.5102816719	 2.1598868885	 0.099708
H	-1.7013412568	-4.2404004988	 0.9816097439	 0.192108
19.6294	103.6236	175.5852	191.5331	231.9493	247.3858	275.1262	340.2401	372.2597	416.4807	450.43	525.0568	593.8005	615.7462	624.9296	626.626	731.9541	793.2656	838.6513	886.7237	908.5434	934.4969	943.4271	984.2222	1009.7497	1057.3556	1077.3623	1107.5457	1134.8017	1168.3275	1177.4031	1231.6294	1262.6948	1288.5106	1293.2389	1319.4206	1335.864	1357.5971	1382.6276	1409.8804	1411.5723	1482.7461	1486.5263	1489.247	1497.4594	1498.4936	1500.9692	1511.4817	2225.5554	3014.3433	3021.8917	3032.041	3034.1608	3039.2304	3052.1062	3083.1597	3087.7511	3093.2358	3094.4775	3105.6424	3110.0465	3112.7419	3502.1049
CC1CCC(C)(C1)C#C	C[C@H]1CC[C@@](C)(C1)C#C	
InChI=1S/C9H14/c1-4-9(3)6-5-8(2)7-9/h1,8H,5-7H2,2-3H3	InChI=1S/C9H14/c1-4-9(3)6-5-8(2)7-9/h1,8H,5-7H2,2-3H3/t8-,9-/m0/s1
