18
gdb 47607	2.3305	1.87856	1.14219	3.4534	71.33	-0.2407	0.0229	0.2636	1053.3713	0.150602	-439.110574	-439.102941	-439.101997	-439.143383	29.004	
O	-0.0412244851	-0.0492196818	 0.2884873022	-0.383123
C	-0.0545782253	 1.1544202208	 0.1050161394	 0.381571
N	-1.2095269173	 1.873448388	-0.0119272586	-0.307767
C	-1.2925754658	 3.3253218794	-0.1265480024	-0.168968
C	-0.2048923604	 3.9799217727	 0.731054031	-0.227943
C	 1.1655796798	 3.480853682	 0.2756481641	 0.128078
O	 2.1200810536	 3.3357597727	 1.3488779411	-0.294921
C	 2.2125590937	 1.9051841905	 1.1505511547	-0.077403
C	 1.2219168402	 1.9647871591	-0.0310687807	-0.183393
H	-2.0574566656	 1.3299718486	 0.0489586281	 0.24977
H	-1.1979740683	 3.6463670901	-1.1749325207	 0.1128
H	-2.2851939444	 3.6371318508	 0.2096360938	 0.120243
H	-0.2735065151	 5.070311831	 0.6716515973	 0.108041
H	-0.3506628619	 3.6893772608	 1.7765239495	 0.121356
H	 1.5658203461	 4.1182321906	-0.5231907825	 0.07868
H	 3.2318460934	 1.593168835	 0.8998874963	 0.109691
H	 1.8660506258	 1.3373180943	 2.0209281276	 0.119903
H	 1.6722505964	 1.7159669055	-0.9945237102	 0.113383
53.9292	100.0514	225.9522	249.0744	383.1998	427.172	471.053	480.9157	536.2344	658.9947	676.4006	773.8464	781.5572	883.7054	915.5446	952.9602	976.3199	1003.3685	1029.9919	1073.0455	1087.2592	1119.2046	1139.0658	1151.8916	1180.6857	1237.6862	1248.8553	1286.7475	1300.2994	1336.8597	1345.5354	1367.3754	1391.7263	1401.4007	1464.9996	1489.2627	1519.626	1530.4102	1787.5453	2990.4537	3014.8001	3033.9728	3051.048	3076.4145	3085.2352	3092.3559	3102.3315	3620.2108
O=C1NCCC2OCC12	O=C1NCC[C@H]2OC[C@@H]12	
InChI=1S/C6H9NO2/c8-6-4-3-9-5(4)1-2-7-6/h4-5H,1-3H2,(H,7,8)	InChI=1S/C6H9NO2/c8-6-4-3-9-5(4)1-2-7-6/h4-5H,1-3H2,(H,7,8)/t4-,5-/m1/s1
