17
gdb 53399	2.41869	1.12138	0.83228	2.1412	82.3	-0.2484	0.0192	0.2677	1399.0163	0.133074	-384.605105	-384.595301	-384.594357	-384.642494	33.719	
C	 0.196688809	 1.5751816572	-0.1303134294	-0.498848
C	 0.1564805241	 0.1236096737	-0.0357891463	 0.083832
C	 0.1179595567	-1.0776711744	 0.0400879309	 0.095138
C	 0.0732443985	-2.5171349204	 0.1442005909	-0.265584
C	-0.1492112866	-3.1663182262	 1.5355975288	-0.075891
O	-1.2203223601	-3.9888836462	 1.0348630908	-0.270411
C	-1.2414447923	-3.2990367924	-0.2377924178	-0.081622
C	-2.4470283442	-2.5196076763	-0.4547748638	 0.38405
C	-3.4499301436	-1.8856306741	-0.6455073744	-0.469016
H	 0.9540473738	 1.9083733157	-0.8483726946	 0.148844
H	-0.7695834426	 1.9757842618	-0.4557666348	 0.15249
H	 0.4342432714	 2.0296770935	 0.8378760133	 0.149667
H	 0.9257224207	-2.9681975507	-0.3713952142	 0.113026
H	 0.679347876	-3.7638010034	 1.9293476456	 0.110296
H	-0.494176332	-2.4611893317	 2.3003301877	 0.113742
H	-1.1030435629	-4.0073068461	-1.0632947465	 0.109192
H	-4.3368549957	-1.32507945	-0.8099992061	 0.201095
11.1917	53.9372	70.7224	131.3832	165.6119	227.3133	297.2778	311.5574	422.9506	471.3448	526.0574	565.8365	626.1685	670.9926	695.2389	814.7283	879.247	925.8968	989.6194	1021.2249	1043.7538	1051.902	1055.9355	1078.3072	1163.5125	1197.1843	1212.0579	1253.152	1337.3393	1347.3072	1377.3022	1414.0267	1477.0194	1477.8647	1523.5233	2235.6492	2371.9858	3027.194	3027.4704	3032.7361	3062.3843	3085.6176	3088.011	3089.6144	3503.4639	11.1961	53.9359	70.7222	131.3828	165.6119	227.3132	297.2782	311.5581	422.9513	471.3452	526.0577	565.8367	626.1687	670.9928	695.2389	814.7283	879.247	925.8967	989.6194	1021.2247	1043.7537	1051.902	1055.9355	1078.3072	1163.5129	1197.1844	1212.058	1253.1522	1337.3395	1347.3074	1377.3022	1414.0266	1477.0192	1477.8646	1523.5238	2235.6492	2371.986	3027.194	3027.4704	3032.7361	3062.3842	3085.6175	3088.011	3089.6144	3503.4639
CC#CC1COC1C#C	CC#C[C@H]1CO[C@H]1C#C	
InChI=1S/C8H8O/c1-3-5-7-6-9-8(7)4-2/h2,7-8H,6H2,1H3	InChI=1S/C8H8O/c1-3-5-7-6-9-8(7)4-2/h2,7-8H,6H2,1H3/t7-,8-/m0/s1
