24
gdb 10219	2.72047	1.14675	0.86691	1.1355	82.97	-0.2515	0.086	0.3375	1440.4565	0.221253	-351.404922	-351.394056	-351.393112	-351.441459	38.015	
C	 0.2528900513	 2.1202356914	-0.5192380801	-0.389137
C	-0.0112473357	 0.6212793536	-0.3456975168	-0.182418
C	 0.713696439	-0.2753249754	-1.3728710992	 0.018048
C	 2.2279616307	-0.3638750272	-1.0796405491	-0.165841
C	 3.1086266255	-0.7364578996	-2.2779250861	-0.383823
C	 0.0350752284	-1.6473067005	-1.3905985057	-0.054769
O	 0.5710156651	-2.4627036825	-2.4120481475	-0.229236
C	-0.0253189768	-3.7351898832	-2.4620210975	-0.228484
H	 1.314753119	 2.3668580576	-0.4215545196	 0.120306
H	-0.0765523567	 2.4643498719	-1.505867	 0.115096
H	-0.2881077191	 2.7020685744	 0.2336699935	 0.111589
H	 0.2764521158	 0.3105957504	 0.668052792	 0.094231
H	-1.0929886851	 0.4494999411	-0.4180196584	 0.089597
H	 0.574589108	 0.1669090352	-2.3699841641	 0.074189
H	 2.5682505588	 0.6013387151	-0.6865845159	 0.090446
H	 2.3833335437	-1.0865123826	-0.2662843563	 0.088396
H	 4.1653793155	-0.7569409091	-1.9908632237	 0.099587
H	 2.8362031834	-1.7133520714	-2.6790465642	 0.137913
H	 2.9999863495	-0.0016908343	-3.0839896477	 0.106145
H	 0.1613133566	-2.1384828611	-0.4080381708	 0.079439
H	-1.0507364812	-1.5233229059	-1.5479072742	 0.078752
H	 0.1244547821	-4.2957082435	-1.5251597878	 0.102322
H	-1.1093400792	-3.6706235951	-2.6496657999	 0.102109
H	 0.4420078313	-4.2865374393	-3.281685381	 0.125542
47.3156	74.9996	97.7536	113.4925	150.5906	213.274	228.629	236.9891	282.7474	302.7566	346.1599	384.3938	462.9393	529.1579	761.0692	779.7253	842.8268	917.4439	970.198	989.394	1008.7997	1032.5192	1049.4189	1060.3574	1136.7389	1157.8376	1174.4641	1180.8931	1195.552	1229.6294	1265.4149	1277.5512	1304.5433	1324.4084	1353.7015	1381.0103	1396.378	1409.2373	1415.0688	1429.7769	1477.4919	1484.3161	1485.4349	1489.2621	1495.5323	1502.4677	1503.1518	1507.5854	1515.8185	1527.9121	2931.9408	2960.935	2967.0779	3002.7275	3008.3776	3009.4611	3017.6291	3032.8668	3033.4478	3044.8625	3052.7164	3090.6825	3099.8765	3104.061	3112.2163	3145.6216
CCC(CC)COC	CCC(CC)COC	
InChI=1S/C7H16O/c1-4-7(5-2)6-8-3/h7H,4-6H2,1-3H3	InChI=1S/C7H16O/c1-4-7(5-2)6-8-3/h7H,4-6H2,1-3H3
