17
gdb 39988	4.35246	1.40276	1.32678	1.4979	71.73	-0.2352	0.0698	0.305	985.6129	0.136334	-421.73603	-421.72949	-421.728545	-421.7668	27.294	
C	-0.0337171606	 1.5082230423	 0.0419521978	-0.33533
C	 1.2995270028	 0.773120073	 0.053387986	-0.335329
C	 0.0140075179	 0.0166036108	-0.0541631773	 0.457512
O	-0.4195961234	-0.7522311964	 1.0763211245	-0.306598
C	-1.0256963372	-1.8610309359	 0.4643877184	 0.066503
C	-0.2373516101	-2.3164692195	-0.8021617272	 0.030486
O	-1.481941316	-2.7184623107	-1.4604712733	-0.317678
C	-1.8148592719	-1.446691479	-0.8156920942	 0.030486
C	-0.4383027862	-0.821814788	-1.2156224338	-0.169623
H	-0.3782340831	 1.9237397333	 0.9822449121	 0.128643
H	-0.3069983605	 2.0793179373	-0.8391535994	 0.117031
H	 1.9398741289	 0.8404705477	-0.8198810583	 0.117031
H	 1.8223706157	 0.7104068944	 1.0011210483	 0.128643
H	-1.4246135907	-2.5733750183	 1.1824506161	 0.103049
H	 0.636566096	-2.9581117629	-0.9063450309	 0.097993
H	-2.8224329763	-1.0509526489	-0.9360144236	 0.097993
H	-0.2526469552	-0.5010032992	-2.238227285	 0.089185
124.2059	254.2027	262.6151	454.1063	474.974	505.7978	526.9765	690.3516	760.3031	779.2467	803.3295	805.5726	880.882	885.4344	898.4241	909.1389	922.5663	972.8194	979.6501	992.7237	1008.4612	1050.7038	1071.1254	1093.2536	1137.7287	1141.3674	1147.8031	1177.7575	1188.3428	1196.883	1205.3451	1253.811	1277.9671	1357.5188	1405.6109	1450.221	1504.9322	3127.3721	3129.6495	3131.3384	3133.7379	3155.3062	3167.3961	3216.4538	3230.3359
C1CC11OC2C3OC2C13	C1CC21O[C@@H]1[C@H]3O[C@@H]1[C@@H]23	
InChI=1S/C7H8O2/c1-2-7(1)3-4-6(9-7)5(3)8-4/h3-6H,1-2H2	InChI=1S/C7H8O2/c1-2-7(1)3-4-6(9-7)5(3)8-4/h3-6H,1-2H2/t3-,4-,5+,6+
