19
gdb 80435	2.21272	1.71524	1.20616	3.2179	75.54	-0.2419	-0.0294	0.2125	1082.9671	0.157182	-422.998864	-422.989924	-422.98898	-423.03212	34.061	
C	-0.0469663592	 1.5329406681	-0.1927983988	-0.43956
C	 0.1153174606	 0.0471813388	 0.0564601721	 0.005846
C	 1.3617994869	-0.7595517822	-0.1534299099	-0.084496
C	 2.6203142582	-0.0067528133	 0.3195986213	-0.304169
C	 2.0572135588	-0.0036983857	 1.7721257246	 0.320786
O	 2.7330151369	-0.8844039803	 2.6550954415	-0.48106
C	 1.9678344658	 1.2970634384	 2.5487782744	 0.144459
O	 2.0806777773	 2.3984345118	 2.0750682194	-0.252862
C	 0.7399685006	-0.6311894753	 1.2540553979	-0.172124
H	 0.8326331552	 2.1111193908	 0.0892332685	 0.158367
H	-0.250700874	 1.7105190068	-1.2545850336	 0.112941
H	-0.8951595995	 1.9275017562	 0.3772670573	 0.117805
H	-0.7634973963	-0.5197228961	-0.2516983602	 0.091482
H	 1.3774404093	-1.6284212511	-0.8008444143	 0.087899
H	 3.5351755507	-0.6012066671	 0.277164765	 0.108644
H	 2.8066525545	 0.969395825	-0.1333771004	 0.121281
H	 2.6575497608	-1.7759708097	 2.2971452747	 0.283423
H	 1.780661586	 1.1423333395	 3.6340263127	 0.091798
H	 0.1951753775	-1.3599505344	 1.8459020078	 0.089538
98.0139	134.7011	168.7681	231.1368	251.0478	280.8846	286.7591	346.3335	407.4804	460.9535	547.4677	569.9499	666.0103	714.8435	785.3889	840.1527	888.3061	902.8037	961.086	979.7651	983.7467	995.6276	1049.4927	1067.1609	1086.7268	1115.5315	1136.9849	1174.7353	1178.4092	1219.0132	1237.7888	1284.7775	1338.693	1370.0719	1411.9458	1424.3758	1446.1725	1479.5611	1504.184	1508.8439	1833.1052	2898.9584	3036.0722	3072.1678	3090.5815	3105.8764	3127.1814	3155.2403	3159.6478	3179.1849	3801.3518
CC1C2CC(O)(C=O)C12	C[C@H]1[C@H]2C[C@@](O)(C=O)[C@@H]12	
InChI=1S/C7H10O2/c1-4-5-2-7(9,3-8)6(4)5/h3-6,9H,2H2,1H3	InChI=1S/C7H10O2/c1-4-5-2-7(9,3-8)6(4)5/h3-6,9H,2H2,1H3/t4-,5+,6-,7+/m0/s1
