21
gdb 57492	2.92413	1.24917	1.11227	2.5697	74.4	-0.2466	0.0782	0.3247	1202.7613	0.181	-461.371041	-461.36133	-461.360386	-461.405608	36.082	
C	-0.1203388339	 1.5074380667	-0.0495957542	-0.409444
C	 0.0769498986	-0.0016798487	 0.0692232752	 0.322743
C	 0.9213518369	-0.3658031607	 1.2958009176	-0.426627
O	-1.2285110625	-0.5723194795	 0.1622307203	-0.473168
C	 0.7122262303	-0.5442034925	-1.2233343579	 0.212147
O	 2.0385386344	-0.076353822	-1.4140383068	-0.275028
C	 2.8620578653	-1.1803046362	-1.7816093701	-0.088325
C	 1.8609727845	-2.3235017286	-1.9977847792	-0.108691
O	 0.7815770442	-1.9541370246	-1.1536337521	-0.275307
H	 0.8409630397	 2.0113519648	-0.1750460799	 0.129788
H	-0.7577783429	 1.7426254932	-0.9070056603	 0.119034
H	-0.6082592103	 1.8890185485	 0.8513596096	 0.120726
H	 0.4183150743	-0.0157854985	 2.2008286316	 0.11664
H	 1.0505463777	-1.449618231	 1.3646037448	 0.112568
H	 1.9115124062	 0.0939387377	 1.239643965	 0.123151
H	-1.1175756955	-1.529838777	 0.1286332655	 0.285438
H	 0.0930740167	-0.2447007935	-2.0874173675	 0.069064
H	 3.4304542576	-0.935473452	-2.6850142115	 0.110761
H	 3.5651948994	-1.4037933581	-0.9694579102	 0.10883
H	 1.5342780743	-2.3762682252	-3.0469680319	 0.104813
H	 2.2297527552	-3.3029780229	-1.6869089679	 0.120887
58.9431	90.3453	167.9995	196.8529	218.7414	244.7371	282.2823	321.4241	341.8578	398.5665	432.7388	472.0961	557.6343	673.1519	737.1925	789.2848	892.0143	918.1511	941.8457	951.0029	978.6823	995.8178	1012.2067	1035.2275	1069.9633	1135.9356	1146.4067	1163.6688	1212.7638	1226.7547	1247.0174	1280.9112	1332.6297	1361.7845	1382.2441	1383.7359	1388.2721	1416.0154	1427.4554	1481.7749	1483.4303	1497.9698	1511.817	1514.9234	1530.6207	2948.423	2997.346	3022.0543	3044.7695	3049.109	3072.6472	3113.6206	3117.7892	3121.7449	3126.9022	3135.0067	3795.3909
CC(C)(O)C1OCCO1	CC(C)(O)C1OCCO1	
InChI=1S/C6H12O3/c1-6(2,7)5-8-3-4-9-5/h5,7H,3-4H2,1-2H3	InChI=1S/C6H12O3/c1-6(2,7)5-8-3-4-9-5/h5,7H,3-4H2,1-2H3
