20
gdb 29700	2.40933	1.52632	0.95195	1.2672	84.99	-0.1617	0.0577	0.2193	1249.4479	0.171026	-399.358253	-399.347835	-399.34689	-399.393429	37.467	
C	-0.0101491136	 1.4449611982	 0.0191188245	-0.346336
N	-0.0044889119	-0.0003844423	 0.0236999837	-0.065997
C	 0.0066031443	-0.7959261363	-1.09973701	 0.248274
N	 0.041109385	-0.2007977677	-2.3821719234	-0.609506
C	 0.0526283274	-2.1126609427	-0.6922409562	-0.311299
C	 0.0533753112	-2.1148844596	 0.7322811165	 0.163573
N	 0.0472977311	-3.2459203285	 1.5922597702	-0.613769
C	-0.0050353787	-0.8032765289	 1.1566999005	 0.253112
C	-0.0767886073	-0.2591796935	 2.5425952239	-0.51491
H	 0.7342614975	 1.8334121285	 0.7208341526	 0.130353
H	 0.2392636091	 1.7818129256	-0.9880722523	 0.154798
H	-0.9895612842	 1.8543449804	 0.2976813659	 0.122779
H	 0.5056913719	-0.812261836	-3.0424869345	 0.243338
H	-0.8884036451	-0.0109310354	-2.7477903971	 0.240136
H	 0.0737943359	-2.9754138951	-1.3425231738	 0.069604
H	-0.0186191477	-4.1030902279	 1.0569678928	 0.230798
H	 0.892721298	-3.3042683286	 2.1498703734	 0.234413
H	 0.8539690403	 0.2212252218	 2.8771522948	 0.114095
H	-0.87758071	 0.4822512398	 2.6582587068	 0.118042
H	-0.2886949931	-1.082166552	 3.2309316419	 0.138502
81.1219	104.8788	116.9512	163.6032	187.1996	197.8347	240.4243	261.0061	291.5693	318.4945	346.3045	547.2333	595.4411	603.5426	632.1165	662.65	720.5646	734.5709	819.2236	830.5307	856.695	1001.2556	1060.7075	1086.1906	1142.615	1153.9037	1159.2988	1211.4457	1213.2089	1260.9057	1381.1628	1410.726	1440.9185	1458.1184	1481.6523	1482.2565	1500.2524	1508.1153	1521.6703	1552.9535	1634.3291	1651.8761	1664.96	2995.4102	3017.9458	3042.0525	3080.0863	3108.8738	3143.4347	3229.3764	3478.7143	3506.8413	3584.5316	3593.944
CN1C(N)=CC(N)=C1C	Cn1c(N)cc(N)c1C	
InChI=1S/C6H11N3/c1-4-5(7)3-6(8)9(4)2/h3H,7-8H2,1-2H3	InChI=1S/C6H11N3/c1-4-5(7)3-6(8)9(4)2/h3H,7-8H2,1-2H3
