21
gdb 112027	3.25555	1.2951	1.05633	0.9353	84.42	-0.2402	0.0177	0.2579	1211.3657	0.183689	-387.077662	-387.069248	-387.068303	-387.111005	32.173	
C	 0.0782490829	 1.754868596	-0.4706352954	-0.233065
O	-0.27104959	 0.3957678749	-0.3677411274	-0.240368
C	 0.5741361116	-0.479536449	-1.1046500184	 0.08704
C	 1.908540223	-0.7677175495	-0.437234231	-0.097037
C	 2.1545823587	-2.073115582	-0.3316199252	-0.078507
C	 1.0452286471	-2.9244199913	-0.8875999148	-0.060677
C	 0.1170220122	-3.5928239518	 0.1716153629	-0.228178
C	-0.8470211289	-2.3784086558	 0.0554012154	-0.210364
C	-0.0699448608	-1.8758889914	-1.200464645	-0.054584
H	 1.0638532527	 1.9733759933	-0.0323258767	 0.103855
H	 0.0884914188	 2.0946566573	-1.5188785984	 0.101623
H	-0.6768299289	 2.3255550576	 0.0762780514	 0.125245
H	 0.7283490292	-0.0416423801	-2.1069716564	 0.061637
H	 2.5725921278	 0.0219443264	-0.1028900287	 0.092045
H	 3.047329311	-2.5038066355	 0.112324017	 0.092204
H	 1.3855678604	-3.5761036978	-1.6988172438	 0.069869
H	-0.3250793475	-4.523717134	-0.1937886505	 0.095726
H	 0.5573315963	-3.7817398585	 1.1544801446	 0.094218
H	-1.9000889794	-2.6170123895	-0.1062704134	 0.096123
H	-0.7783036629	-1.6789490514	 0.8885473236	 0.119527
H	-0.6135319635	-2.0250477678	-2.1341790697	 0.06367
75.2356	95.2456	177.6804	182.8035	229.4419	330.002	363.9909	453.5427	538.9833	666.9851	693.8448	756.6544	772.8457	804.8569	866.3897	881.091	906.8167	955.8941	964.0557	984.0081	995.7245	1032.7282	1064.5704	1087.0691	1110.1558	1134.1382	1159.4016	1181.9096	1188.3585	1219.6854	1225.4613	1245.7911	1266.0315	1269.2041	1300.9277	1312.8924	1336.4918	1365.2536	1389.6573	1477.4336	1479.1574	1489.4609	1494.2036	1509.5932	1677.8403	2932.7247	2970.6262	3016.4144	3045.9591	3055.2244	3079.3796	3097.6556	3101.1857	3108.0548	3141.889	3168.2972	3199.2027
COC1C=CC2CCC12	CO[C@H]1C=C[C@H]2CC[C@@H]12	
InChI=1S/C8H12O/c1-9-8-5-3-6-2-4-7(6)8/h3,5-8H,2,4H2,1H3	InChI=1S/C8H12O/c1-9-8-5-3-6-2-4-7(6)8/h3,5-8H,2,4H2,1H3/t6-,7-,8+/m1/s1
