16
gdb 9130	3.94493	0.87744	0.75892	1.3349	75.47	-0.2552	0.0254	0.2806	1474.7923	0.127393	-346.531304	-346.52169	-346.520746	-346.567057	33.192	
C	 0.0127183325	 1.4636275318	-0.1250218809	-0.377197
C	-0.0340367692	-0.0735057522	 0.0692058782	-0.32269
C	 0.7101623462	-0.4776354433	 1.2679781716	 0.343798
C	 1.3360793372	-0.7857811271	 2.2456517985	-0.468642
C	-1.4173127209	-0.5618814229	 0.1014227681	 0.091146
C	-2.5630259212	-0.9323534545	 0.108281524	 0.043625
C	-3.9317107977	-1.4483533116	 0.138860685	-0.191797
O	-4.0631505195	-2.7392547569	-0.4399901667	-0.40173
H	 1.0506667208	 1.799754736	-0.1854421754	 0.129067
H	-0.5085443904	 1.7376615387	-1.0453534651	 0.128904
H	-0.4702819902	 1.9661774756	 0.7157132435	 0.138528
H	 0.4615564641	-0.5303401688	-0.7999028951	 0.139098
H	 1.8837750934	-1.0677350376	 3.1106015905	 0.199799
H	-4.3002443504	-1.4345113158	 1.1771293716	 0.11966
H	-4.5943881759	-0.7946528693	-0.4391208927	 0.139891
H	-3.4089844388	-3.308837822	-0.021750885	 0.28854
20.8077	82.7062	105.181	186.4462	200.1722	224.902	259.5653	327.6508	366.6635	469.6791	491.4471	555.9657	592.1101	632.2853	645.9963	743.8656	860.9683	983.4097	997.0272	1045.6246	1070.588	1090.4433	1176.6726	1216.4294	1297.3762	1324.7323	1359.5499	1402.928	1419.4676	1488.6621	1492.6415	1496.7916	2241.3794	2364.5347	2976.8209	2999.1911	3052.4942	3062.3936	3133.8963	3139.1236	3504.1033	3816.55
CC(C#C)C#CCO	C[C@@H](C#C)C#CCO	
InChI=1S/C7H8O/c1-3-7(2)5-4-6-8/h1,7-8H,6H2,2H3	InChI=1S/C7H8O/c1-3-7(2)5-4-6-8/h1,7-8H,6H2,2H3/t7-/m0/s1
