19
gdb 38680	2.60673	1.92699	1.48464	0.096	73.6	-0.2428	0.0826	0.3254	944.4913	0.162339	-423.005426	-422.9986	-422.997656	-423.036286	28.27	
C	 0.0468185667	 1.4053242102	 0.6668589911	-0.29308
C	 1.4575898986	 1.4230626709	 0.0392097426	 0.107397
C	 2.6270855734	 1.031065315	 0.9346348444	-0.246324
C	 2.4491874944	-0.1950792904	 1.808546251	 0.060611
O	 1.3994407076	-0.1943489901	 2.7871973028	-0.259485
C	 1.3587863093	-1.1895186592	 1.7538962031	 0.06061
C	 0.1711797549	-1.2087055552	 0.8115468672	-0.246324
C	-0.0640080435	 0.0353746899	-0.0370514081	 0.107397
O	 1.1034917123	 0.3297752986	-0.8451209532	-0.301969
H	-0.0266367531	 1.426264329	 1.7514372601	 0.132548
H	-0.6122499315	 2.1524755046	 0.2213401179	 0.103531
H	 1.7186915899	 2.3220286998	-0.5304366635	 0.074998
H	 3.4963600931	 0.8517739458	 0.2888541096	 0.114055
H	 2.8909656637	 1.8790443377	 1.5820819425	 0.110119
H	 3.3973738662	-0.5587087239	 2.2125667177	 0.088373
H	 1.6126187132	-2.1863948197	 2.1231160506	 0.088373
H	 0.3062052387	-2.0576273273	 0.1289663073	 0.114055
H	-0.7312853559	-1.4244255749	 1.4005379784	 0.110119
H	-0.9504118179	-0.1121772806	-0.6642099613	 0.074998
168.8087	268.7563	284.1543	357.255	364.7405	403.1851	413.584	615.1161	714.4567	733.8513	806.4273	820.3892	843.9329	853.8574	903.4012	903.8518	913.8023	991.9462	1012.1456	1022.6558	1069.9629	1075.0133	1104.5351	1140.8077	1143.7107	1171.8084	1225.8804	1247.2981	1273.3344	1289.1554	1307.1375	1338.1546	1354.4276	1361.7353	1393.2835	1412.4044	1419.318	1456.9745	1457.1459	1489.2834	1497.2523	3013.6322	3014.0126	3039.5025	3042.4973	3055.3509	3056.3442	3068.2474	3081.6586	3090.3315	3172.077
C1C2CC3OC3CC1O2	C1[C@H]2C[C@H]3O[C@H]3C[C@@H]1O2	
InChI=1S/C7H10O2/c1-4-2-6-7(9-6)3-5(1)8-4/h4-7H,1-3H2	InChI=1S/C7H10O2/c1-4-2-6-7(9-6)3-5(1)8-4/h4-7H,1-3H2/t4-,5+,6+,7-
