20
gdb 63689	3.86493	0.70432	0.68329	4.7719	78.38	-0.2459	0.0338	0.2797	1695.2059	0.16894	-440.295787	-440.285616	-440.284672	-440.332268	36.701	
C	 0.09783575	 1.5019066518	-0.4160285321	-0.449884
C	-0.0259947376	 0.064838805	 0.0393236475	 0.396585
O	-1.2992337905	-0.4881370401	-0.1862701477	-0.464095
C	 1.1505204735	-0.8813938885	-0.0523146472	-0.365488
C	 0.6001885412	-0.4485105571	 1.3025974566	-0.040449
C	 1.4154498253	 0.4094331593	 2.2419622879	-0.186208
N	 2.3450038161	-0.4016895525	 3.0173941277	-0.272148
C	 2.5110411424	-0.2699560924	 4.3593197702	 0.155803
O	 1.9420641962	 0.539313526	 5.0614746258	-0.323767
H	 1.0914986088	 1.9128293327	-0.2220638656	 0.120378
H	-0.0784694434	 1.5720865739	-1.4966338829	 0.109574
H	-0.6438308197	 2.1300864918	 0.0871325994	 0.133141
H	-1.4390219579	-0.5246291243	-1.1395083835	 0.279932
H	 0.9522306283	-1.8966129113	-0.3767217894	 0.115381
H	 2.1074129798	-0.4750427781	-0.368085947	 0.106672
H	-0.0064153075	-1.197040107	 1.8040055804	 0.108771
H	 1.9646674527	 1.1803923011	 1.6865332989	 0.104928
H	 0.7816964633	 0.9246104188	 2.9683604686	 0.152468
H	 2.8670197348	-1.117194581	 2.5362234404	 0.247033
H	 3.2420140843	-1.0040763382	 4.7542458121	 0.071371
22.0518	58.6288	123.6387	191.6567	212.08	244.166	261.1399	313.924	326.1664	384.1436	428.1713	434.5587	525.3529	540.6315	705.5667	756.4108	870.3247	873.947	912.5539	929.8809	977.9375	996.6589	1032.3835	1040.8871	1080.4154	1090.9685	1121.3455	1168.9696	1208.3288	1234.1318	1277.1212	1293.6287	1338.9586	1380.3167	1414.8137	1429.1976	1430.046	1477.3199	1488.0989	1502.9782	1509.7798	1529.2201	1805.592	2929.5706	3019.9086	3027.9122	3090.9281	3104.5063	3120.705	3124.5622	3157.6128	3216.9639	3631.1254	3788.3387
CC1(O)CC1CNC=O	C[C@@]1(O)C[C@H]1CNC=O	
InChI=1S/C6H11NO2/c1-6(9)2-5(6)3-7-4-8/h4-5,9H,2-3H2,1H3,(H,7,8)	InChI=1S/C6H11NO2/c1-6(9)2-5(6)3-7-4-8/h4-5,9H,2-3H2,1H3,(H,7,8)/t5-,6+/m0/s1
