20
gdb 24421	3.30106	1.49149	1.07179	1.6981	85.6	-0.188	0.0512	0.2392	1135.8444	0.175663	-366.077554	-366.070169	-366.069224	-366.109106	30.276	
C	-0.0224148582	 1.5153693277	-0.0489695151	-0.186022
C	 1.3970454303	 2.1040599251	 0.0152056577	-0.191212
C	 2.094065372	 1.7808258479	 1.3513296336	-0.323321
C	 1.9000385436	 0.3335681833	 1.7074462317	 0.255239
C	 0.9421699111	-0.4493677858	 1.100733932	 0.261557
C	-0.0056578013	-0.024911298	 0.0251194255	-0.331119
N	 1.0203045295	-1.7073913367	 1.6485397503	-0.335705
C	 2.0141133565	-1.7386204669	 2.5988449552	-0.085164
C	 2.5773401059	-0.4861905928	 2.6587405085	-0.280173
H	-0.6117735213	 1.9079798194	 0.7895182896	 0.100003
H	-0.5261973946	 1.8352371011	-0.9673798901	 0.089222
H	 1.9914496584	 1.6926195428	-0.8113275283	 0.096022
H	 1.359360042	 3.1887553795	-0.1342773567	 0.087859
H	 3.160610144	 2.028330415	 1.2845972666	 0.097157
H	 1.6862898366	 2.4290621182	 2.1411537001	 0.099257
H	-1.0196177734	-0.4033877645	 0.2118795703	 0.095237
H	 0.2975257493	-0.4367955583	-0.9496536587	 0.103455
H	 0.4392289811	-2.4865784175	 1.3934304124	 0.251854
H	 2.2306591384	-2.6421430388	 3.1459171272	 0.111205
H	 3.3857155201	-0.1884339604	 3.310048618	 0.084647
110.6454	202.9788	279.2304	310.0821	361.762	440.2511	447.9316	486.9314	630.5443	654.9059	667.028	695.7012	707.7105	814.594	838.177	855.7728	921.7312	923.8043	930.7448	964.0203	1067.9622	1084.835	1100.5549	1108.0101	1153.0721	1162.243	1191.5944	1228.573	1262.9975	1282.1221	1291.3051	1348.5065	1368.4426	1374.4576	1393.4815	1436.0025	1479.4171	1484.2704	1488.5795	1497.6	1502.3645	1514.1724	1631.1427	2984.0559	2992.779	3016.9172	3019.5305	3032.5402	3042.8424	3067.0886	3072.9523	3237.1494	3266.3692	3678.8311
C1CCC2=C(C1)NC=C2	C1CCc2c(C1)[nH]cc2	
InChI=1S/C8H11N/c1-2-4-8-7(3-1)5-6-9-8/h5-6,9H,1-4H2	InChI=1S/C8H11N/c1-2-4-8-7(3-1)5-6-9-8/h5-6,9H,1-4H2
