25
gdb 95205	2.32108	1.55851	1.10711	0.229	91.2	-0.2582	0.0763	0.3345	1228.9428	0.231403	-352.367388	-352.358461	-352.357517	-352.400275	36.49	
C	 0.0201837201	 1.5758120129	-0.078521279	-0.417427
C	 0.0780435901	 0.0445909454	-0.0404587728	 0.054808
C	 0.6627425058	-0.5429853837	-1.3348146235	-0.207992
C	 0.3878169681	-2.0510861329	-1.4193589056	-0.225987
C	 0.8010179854	-2.7969964191	-0.1624087644	-0.00912
C	 2.1899828066	-2.633138781	 0.393710942	-0.28934
C	 1.0095189749	-2.0338290569	 1.130145177	-0.033218
C	 0.7939913864	-0.5136892189	 1.2206889122	 0.000154
C	 2.0974906036	 0.2187873686	 1.5845119294	-0.390416
H	 1.0091571425	 2.0181822448	-0.2379125405	 0.115731
H	-0.6250698527	 1.9142021315	-0.8962464613	 0.106909
H	-0.3819308574	 1.9871402091	 0.8541348687	 0.107574
H	-0.959623111	-0.3163924225	 0.0173423372	 0.066427
H	 0.2165131598	-0.044567603	-2.2032567587	 0.08837
H	 1.7400326391	-0.3370270016	-1.3923665924	 0.092871
H	-0.6903304906	-2.1940397833	-1.5733745099	 0.092861
H	 0.8843192822	-2.4851797765	-2.296577744	 0.090074
H	 0.3668579075	-3.7889019326	-0.0690046825	 0.07411
H	 2.6801050275	-3.4974210107	 0.8290959434	 0.101851
H	 2.8686830421	-1.9629993828	-0.1235251959	 0.106149
H	 0.7333863814	-2.5658493955	 2.0362086321	 0.076687
H	 0.1037327119	-0.349152763	 2.0582187342	 0.066969
H	 2.8203790834	 0.2084695299	 0.7621306213	 0.111583
H	 1.9137539416	 1.2632143266	 1.8517188929	 0.109537
H	 2.5749858717	-0.2655034749	 2.4420930301	 0.110836
86.5042	196.6082	235.6299	261.5148	287.5075	301.4431	312.9881	338.7613	376.4008	457.4111	493.9338	598.7429	627.3701	708.7243	758.1225	806.2564	854.7187	862.6465	908.6992	928.7674	973.1888	984.246	988.5934	1030.0311	1041.1145	1054.491	1068.6661	1108.7667	1120.6079	1129.9405	1136.1903	1160.5397	1190.507	1217.0667	1245.2181	1266.044	1331.2183	1335.6245	1347.6961	1367.1706	1371.7805	1384.2503	1399.3964	1408.5737	1413.2599	1419.4647	1484.7822	1487.4885	1493.3531	1495.8371	1502.2304	1505.7446	1513.5144	2984.1895	3008.6389	3011.4427	3017.2583	3027.6161	3037.0315	3043.0045	3058.0931	3091.6831	3097.7183	3101.08	3110.1778	3127.5947	3129.6343	3141.3425	3208.3373
CC1CCC2CC2C1C	C[C@H]1CC[C@H]2C[C@H]2[C@H]1C	
InChI=1S/C9H16/c1-6-3-4-8-5-9(8)7(6)2/h6-9H,3-5H2,1-2H3	InChI=1S/C9H16/c1-6-3-4-8-5-9(8)7(6)2/h6-9H,3-5H2,1-2H3/t6-,7-,8-,9-/m0/s1
