19
gdb 94637	3.65666	0.84778	0.74442	1.9267	78.39	-0.2486	0.026	0.2745	1531.8922	0.156092	-422.956344	-422.946541	-422.945597	-422.992294	34.643	
C	-0.2381865337	 1.5357863776	 0.0093440222	-0.389827
C	 0.0942818281	 0.0589042008	-0.0466887271	 0.115311
O	 1.3672072436	-0.2086002331	-0.6907181653	-0.291048
C	 1.8934026754	-0.8623052037	 0.4788558055	-0.099111
C	 0.5745022208	-0.6316483339	 1.2525233194	 0.08117
O	 0.6243742737	 0.2391867792	 2.3528320666	-0.249159
C	 1.1153283786	-0.3836755125	 3.5280135798	-0.215496
C	 1.1052636017	 0.5653371606	 4.6324960623	 0.278063
C	 1.1087559224	 1.3273552444	 5.5602094951	-0.410825
H	 0.5245290302	 2.0883860757	 0.5608591539	 0.134031
H	-0.2995589411	 1.9317726834	-1.0088955228	 0.122616
H	-1.2031962861	 1.6933160432	 0.5013027388	 0.120369
H	-0.7081503777	-0.4958148477	-0.5516117096	 0.07627
H	 2.1644785811	-1.9071249261	 0.2825651056	 0.099097
H	 2.7589400756	-0.3324728748	 0.8973441465	 0.105217
H	 0.0305811679	-1.5499386975	 1.5150234245	 0.073275
H	 0.494529639	-1.2598717447	 3.781914306	 0.121936
H	 2.1408470955	-0.7568834202	 3.3720544771	 0.124856
H	 1.108489145	 2.0066727393	 6.3765767514	 0.203254
42.1143	73.4776	93.6093	103.1353	199.5499	218.2914	287.5301	332.0242	389.781	424.2379	464.9838	585.6299	612.6201	679.0938	756.7391	849.9343	875.5811	909.1408	979.3516	1002.9498	1026.7039	1033.144	1053.0004	1086.7256	1098.7135	1157.045	1165.4755	1199.5121	1252.7175	1269.7512	1292.9976	1347.1281	1376.2582	1381.4563	1404.5081	1435.5305	1483.0764	1488.5978	1500.5571	1512.6097	2249.6048	2958.3949	2981.2249	2995.8996	3006.3225	3017.128	3045.7725	3056.5099	3113.806	3140.7165	3505.785
CC1OCC1OCC#C	C[C@H]1OC[C@H]1OCC#C	
InChI=1S/C7H10O2/c1-3-4-8-7-5-9-6(7)2/h1,6-7H,4-5H2,2H3	InChI=1S/C7H10O2/c1-3-4-8-7-5-9-6(7)2/h1,6-7H,4-5H2,2H3/t6-,7-/m1/s1
