19
gdb 13790	3.15763	1.60964	1.18312	3.1893	73.29	-0.241	0.0134	0.2544	1070.7403	0.163773	-365.074879	-365.065753	-365.064809	-365.108889	32.438	
C	-0.3438997212	 1.3848770989	-0.3159733733	-0.387914
C	-0.0155450539	-0.1049088971	-0.1617677891	-0.192957
C	 0.888226875	-0.6286049927	-1.2583180542	 0.02093
C	 0.9494510845	-2.0989685746	-1.5835947171	-0.275301
N	 0.366595585	-1.1477505389	-2.503764946	-0.074478
C	-0.9297119907	-1.1049139352	-2.9935155867	 0.374495
C	-1.3905429819	-2.3967769413	-3.645603034	-0.471567
O	-1.6085277343	-0.0991893963	-2.9673841925	-0.342766
H	 0.5699931204	 1.9895200908	-0.3191718624	 0.108106
H	-0.8775344601	 1.5559274163	-1.2528566375	 0.161654
H	-0.9674465859	 1.7322878453	 0.5133607004	 0.108864
H	 0.4886365328	-0.2805700647	 0.797699843	 0.100306
H	-0.9405183803	-0.6922996985	-0.1435980909	 0.102601
H	 1.8137948988	-0.0659292956	-1.3839443985	 0.099238
H	 1.886286136	-2.5598150919	-1.8880081586	 0.12241
H	 0.2752017936	-2.7543564786	-1.03462747	 0.122154
H	-1.7140437306	-3.1074064107	-2.8763729506	 0.138115
H	-2.2380374041	-2.182626176	-4.2967855133	 0.147276
H	-0.5841741633	-2.8682185492	-4.2129193786	 0.138834
76.4934	95.0248	125.9529	137.5703	202.3071	239.4709	261.0124	378.4904	419.9659	470.4801	587.8639	626.9295	682.3597	776.364	818.598	926.5848	962.2399	998.3256	1019.3164	1049.2609	1069.1208	1077.1022	1124.9273	1131.8061	1164.2934	1195.4353	1207.8128	1293.1398	1342.2103	1378.6573	1400.1727	1407.5118	1443.8714	1469.6684	1476.1152	1480.5428	1496.1891	1514.7304	1518.7072	1779.0844	3021.7775	3036.8012	3045.2022	3065.1936	3092.7643	3099.4528	3107.1075	3112.6638	3142.4131	3160.3831	3178.6139
CCC1CN1C(C)=O	CC[C@H]1CN1C(=O)C	
InChI=1S/C6H11NO/c1-3-6-4-7(6)5(2)8/h6H,3-4H2,1-2H3	InChI=1S/C6H11NO/c1-3-6-4-7(6)5(2)8/h6H,3-4H2,1-2H3/t6-,7?/m0/s1
