20
gdb 50266	3.61031	1.258	1.11434	4.0736	79.9	-0.2367	0.0299	0.2665	1141.5306	0.174321	-403.173861	-403.166274	-403.16533	-403.206415	29.788	
O	 0.2177593319	 0.1212518049	-1.0407441904	-0.345159
C	 0.1907998406	 1.2803870141	-0.678328877	 0.146676
N	 1.1105377708	 1.8669807947	 0.1321019905	-0.048841
C	 2.2657208428	 1.0773984491	 0.57481091	-0.153396
C	 3.4065181486	 2.0058128862	 0.9900859432	-0.03339
C	 2.9165574971	 2.9738092799	 2.1007717816	-0.218455
C	 2.3388896571	 3.833057013	 0.9434783346	-0.025269
C	 3.4553432629	 3.236816439	 0.0395339481	-0.227007
C	 0.9771948058	 3.2716196635	 0.5290705919	-0.169419
H	-0.6025485238	 1.9903034502	-0.9894519842	 0.066503
H	 1.9878688149	 0.4185685804	 1.4097228517	 0.110646
H	 2.5537459667	 0.4295206555	-0.2582031225	 0.133213
H	 4.3197327927	 1.4329910919	 1.1630177624	 0.071733
H	 2.2192949089	 2.5857303301	 2.8506484558	 0.093688
H	 3.7476859705	 3.4746498866	 2.6033039315	 0.100634
H	 2.2799571124	 4.915528336	 1.0749855961	 0.070075
H	 4.3919867998	 3.7895683064	 0.1414768001	 0.102838
H	 3.2347690932	 3.0796036773	-1.0197905233	 0.102759
H	 0.5710168638	 3.8347036719	-0.3192560846	 0.114365
H	 0.2709548335	 3.3836200993	 1.3656187344	 0.107808
42.0714	199.8302	236.6845	293.1938	339.4628	375.9465	391.9592	507.6429	520.9867	685.3956	795.2273	829.2999	855.6684	871.1779	895.49	902.4286	933.1786	969.9795	996.7842	1034.0641	1076.8828	1087.0936	1096.0457	1109.5911	1112.0387	1149.4612	1213.1304	1241.4675	1255.4882	1271.7414	1274.7278	1301.4799	1333.115	1348.7721	1368.274	1389.144	1413.4811	1445.8836	1478.7695	1505.6322	1511.6472	1520.1153	1790.5783	2922.3441	2985.4129	3006.338	3043.9323	3049.9828	3058.8797	3081.5653	3085.4325	3090.0787	3105.8478	3117.2975
O=CN1CC2CC(C2)C1	O=CN1C[C@@H]2C[C@@H](C2)C1	
InChI=1S/C7H11NO/c9-5-8-3-6-1-7(2-6)4-8/h5-7H,1-4H2	InChI=1S/C7H11NO/c9-5-8-3-6-1-7(2-6)4-8/h5-7H,1-4H2/t6-,7+
