16
gdb 23495	3.41709	1.46592	1.26083	1.8153	71.67	-0.2246	0.0176	0.2422	997.9061	0.125187	-437.80489	-437.797841	-437.796897	-437.836381	27.937	
O	-0.1791278076	 1.3229360202	 0.0048595102	-0.404647
N	 0.0223097525	-0.07853216	 0.0040086928	-0.294284
C	-1.0881938585	-0.6840841905	 0.0803646076	 0.494034
C	-1.4067802535	-2.1258696557	 0.0112027146	-0.213867
C	-2.6145385166	-2.3846748343	 0.9271636692	 0.119796
O	-2.8464932663	-1.5352272947	 2.021284565	-0.267204
C	-3.1059837041	-0.226163192	 1.4932785199	-0.083853
C	-2.5599828523	-0.2748249189	 0.0610103767	-0.188276
C	-2.8688012037	-1.743387686	-0.3762320229	-0.131154
H	 0.7223668154	 1.651667544	-0.0733185442	 0.305695
H	-0.774876009	-2.9255252934	-0.3538639552	 0.103606
H	-2.8650393972	-3.420408208	 1.1222078899	 0.116905
H	-4.1864946802	-0.0213149774	 1.5020034254	 0.099576
H	-2.5936729554	 0.5087146955	 2.1196483263	 0.130792
H	-2.8319255365	 0.5589859753	-0.5824117595	 0.105152
H	-3.4842686071	-2.0815806742	-1.1974650057	 0.107729
103.0969	182.3437	266.4637	287.0762	376.3557	474.1997	501.4504	598.8122	697.3397	713.6043	745.7731	784.5729	803.4494	855.5962	888.5086	927.2657	949.9411	972.0292	987.565	1029.2503	1033.8789	1048.9713	1069.5963	1125.1435	1165.5267	1177.6407	1228.5993	1250.2251	1252.3973	1296.8236	1350.141	1405.4087	1416.2077	1512.743	1787.0919	2998.667	3098.1512	3150.9349	3193.425	3200.4352	3219.3993	3824.788
ON=C1C2C3OCC1C23	ON=C1[C@H]2[C@H]3OC[C@@H]1[C@@H]23	
InChI=1S/C6H7NO2/c8-7-5-2-1-9-6-3(2)4(5)6/h2-4,6,8H,1H2	InChI=1S/C6H7NO2/c8-7-5-2-1-9-6-3(2)4(5)6/h2-4,6,8H,1H2/t2-,3+,4+,6+/m1/s1
