14
gdb 20360	6.076	1.41066	1.23717	3.8487	63.07	-0.2591	-0.0363	0.2228	945.2922	0.107721	-378.684759	-378.678112	-378.677168	-378.716803	24.304	
C	-0.2417990643	 1.2004160202	-0.4673673878	-0.248209
C	 1.0859200121	 1.2571562677	 0.23631504	-0.27236
C	 0.3427343278	-0.0535613151	 0.1573310696	-0.105622
C	-0.2697860294	-0.6517394325	 1.3556473571	 0.258359
C	-0.1593710317	-0.372201877	 2.682208831	-0.054161
O	-0.9314099876	-1.2048659287	 3.3775702829	-0.163751
N	-1.5496653255	-2.0648281467	 2.416124167	-0.003989
N	-1.1510945569	-1.7177612437	 1.2779027422	-0.176735
H	-1.0964102614	 1.6496834765	 0.0253256474	 0.124313
H	-0.2611668173	 1.2590602523	-1.5494347984	 0.124497
H	 1.9867938449	 1.3589953769	-0.3574630607	 0.123936
H	 1.1290407143	 1.7672465993	 1.1923554095	 0.115417
H	 0.7262233299	-0.787235597	-0.5445013847	 0.112516
H	 0.408976145	 0.3515436678	 3.2420227849	 0.165789
27.9738	159.958	188.2412	386.6476	442.8864	610.8741	625.2671	649.4242	727.9068	789.6849	827.3602	847.1675	904.8385	932.5547	982.2157	1030.8365	1062.8714	1085.813	1104.7243	1129.2841	1149.9543	1197.1945	1202.9302	1240.5182	1319.1171	1397.218	1469.2354	1474.6703	1506.9529	1627.4054	3138.8285	3143.4596	3159.1178	3218.3785	3234.9666	3287.5093
C1CC1C1=CON=N1	C1CC1c1conn1	
InChI=1S/C5H6N2O/c1-2-4(1)5-3-8-7-6-5/h3-4H,1-2H2	InChI=1S/C5H6N2O/c1-2-4(1)5-3-8-7-6-5/h3-4H,1-2H2
