20
gdb 51795	3.86074	0.95852	0.86529	1.3777	78.98	-0.2346	-0.0235	0.2111	1360.6283	0.17173	-403.140417	-403.132015	-403.131071	-403.174381	31.511	
O	-0.595172878	 0.7976257502	 0.703741819	-0.240631
C	 0.103697142	 0.9998997634	-0.2553580806	 0.166356
C	 1.3756440876	 1.816492851	-0.2491434422	-0.294454
C	 1.326312487	 2.9652532566	-1.2726373652	 0.004832
C	 0.2660057874	 4.0509314979	-0.970104401	-0.258153
C	 0.866026157	 5.3307043327	-1.596427567	-0.157842
N	 2.3363252124	 5.1848404722	-1.6245069742	-0.097026
C	 2.9079237154	 4.7777285545	-0.3329448411	-0.249844
C	 2.6224744583	 3.76052675	-1.3788180683	-0.029914
H	-0.1638099844	 0.5813044838	-1.2555712936	 0.069211
H	 1.5498420422	 2.1917868962	 0.7634920489	 0.12065
H	 2.2019896295	 1.1395296146	-0.5109317977	 0.118867
H	 1.1249142307	 2.5339531198	-2.2630112508	 0.082708
H	-0.7149745778	 3.8063715103	-1.3852340359	 0.110089
H	 0.1305646545	 4.1582563176	 0.1106812233	 0.116412
H	 0.5359613728	 5.443266682	-2.6347816282	 0.110137
H	 0.5866067231	 6.2428699962	-1.060464523	 0.109708
H	 3.9292334467	 5.1082161389	-0.1688738533	 0.118312
H	 2.2805894353	 4.8081643496	 0.5547978963	 0.111099
H	 3.4417909783	 3.3236190424	-1.9440788353	 0.089485
53.1312	75.0794	135.1288	203.6405	274.4329	340.0092	402.4911	435.1167	542.0844	624.6193	652.1205	741.351	791.6057	832.8146	866.5408	885.9302	944.2225	966.5946	997.4482	1006.0558	1015.0449	1044.3465	1085.6014	1110.6603	1132.4053	1145.1898	1164.6031	1196.6297	1221.724	1244.6529	1260.9533	1283.6731	1316.2423	1335.2548	1345.9759	1374.9584	1397.1338	1429.0024	1462.7745	1492.0003	1500.2615	1523.1264	1834.9681	2842.4098	3007.866	3011.9405	3043.9535	3058.0184	3087.0483	3097.2939	3104.7149	3110.0123	3138.3781	3191.6685
O=CCC1CCN2CC12	O=CC[C@H]1CCN2C[C@@H]12	
InChI=1S/C7H11NO/c9-4-2-6-1-3-8-5-7(6)8/h4,6-7H,1-3,5H2	InChI=1S/C7H11NO/c9-4-2-6-1-3-8-5-7(6)8/h4,6-7H,1-3,5H2/t6-,7+,8?/m1/s1
