18
gdb 130046	4.51257	1.06537	0.90533	1.6219	80.1	-0.1957	0.0314	0.2271	1290.7715	0.149958	-398.132263	-398.124145	-398.1232	-398.165433	31.124	
N	-0.010704473	 1.2196204741	 0.478127977	-0.588296
C	 0.1022992091	-0.1292235124	 0.1374695633	 0.379557
N	-0.9185562664	-0.9618067777	 0.3137691329	-0.343111
N	-0.4253584818	-2.1893221826	-0.0202767795	 0.039389
C	 0.8644738987	-2.1190840996	-0.428814207	-0.007603
C	 1.2572543736	-0.8027482448	-0.3351855175	-0.313054
C	-1.2940011062	-3.322041722	-0.0617369228	 0.046808
C	-0.8440538669	-4.5997034923	 0.5987262816	-0.282692
C	-1.9430629614	-3.7718191849	 1.215545708	-0.251794
H	 0.4710464226	 1.8339899108	-0.1642448228	 0.243035
H	-0.9797448143	 1.49633654	 0.5723678151	 0.248053
H	 1.3972697122	-3.0023389785	-0.744501879	 0.126314
H	 2.2305017455	-0.3906746477	-0.5469896796	 0.095263
H	-1.8787923313	-3.404366012	-0.9744456708	 0.106037
H	-1.0994945125	-5.5335698228	 0.1113353933	 0.119518
H	 0.1221404798	-4.5942110063	 1.0892823727	 0.125996
H	-1.7076370539	-3.2003234891	 2.104547831	 0.136957
H	-2.9635606336	-4.131795512	 1.1596873441	 0.119623
50.6682	109.8486	179.9756	260.6651	303.1235	353.353	382.0606	505.3775	593.4405	636.0954	676.6794	718.4624	745.2936	781.7639	784.7232	827.8368	837.8197	900.2991	967.1413	1001.2693	1019.7321	1060.6929	1065.613	1079.1271	1099.19	1125.6026	1144.6339	1195.1356	1220.0872	1265.6533	1302.0402	1390.4709	1437.2644	1462.31	1464.6775	1502.0741	1528.7963	1595.6313	1648.2638	3128.9867	3143.3459	3151.9607	3227.6027	3244.7292	3252.0737	3271.1957	3542.4304	3638.5655
NC1=NN(C=C1)C1CC1	Nc1nn(cc1)C1CC1	
InChI=1S/C6H9N3/c7-6-3-4-9(8-6)5-1-2-5/h3-5H,1-2H2,(H2,7,8)	InChI=1S/C6H9N3/c7-6-3-4-9(8-6)5-1-2-5/h3-5H,1-2H2,(H2,7,8)
