23
gdb 113836	2.99104	0.99077	0.81474	1.0041	87.36	-0.2284	0.0854	0.3138	1501.6275	0.204376	-388.251658	-388.241612	-388.240668	-388.287098	37.237	
C	-0.5194356614	 0.9465246343	-0.0362515478	-0.238487
O	 0.5180511607	-0.0052866522	 0.1069548925	-0.232794
C	 0.9248912458	-0.5433395994	-1.1119697927	 0.115746
C	 1.6379814194	-1.8549186769	-1.0555022751	-0.339104
C	 0.2422499744	-1.7833645061	-1.6575733766	-0.050539
C	-0.9121735727	-2.3911608383	-0.9242747635	 0.004901
C	-2.2756464753	-2.5056744336	-1.5714445501	-0.312761
C	-1.4760528686	-3.7525172355	-1.2739933083	-0.003672
C	-0.9153482636	-4.604448422	-2.3917081286	-0.400839
H	-0.2018538479	 1.7946126531	-0.6620768301	 0.105091
H	-1.4198724565	 0.5027381507	-0.4821913483	 0.117327
H	-0.7564529992	 1.3165753386	 0.9641126178	 0.124515
H	 1.2668660787	 0.2029189254	-1.8318118372	 0.077914
H	 2.4927568284	-2.0166592865	-1.702762081	 0.109021
H	 1.7189663561	-2.3081346821	-0.0730703087	 0.122778
H	 0.1886371333	-1.8407931133	-2.740997585	 0.078777
H	-0.9117002024	-2.1491485968	 0.1342000672	 0.090857
H	-3.1593114316	-2.2882449185	-0.9807739611	 0.105101
H	-2.3574125195	-2.2081012375	-2.6132626563	 0.103788
H	-1.8211395458	-4.3298297575	-0.419340942	 0.079574
H	-0.6105111013	-4.0002567778	-3.2512729545	 0.112289
H	-0.0385747552	-5.1720107912	-2.0603175967	 0.117073
H	-1.6628161558	-5.3229953269	-2.7462004938	 0.113444
46.6686	90.2551	133.7339	157.1731	199.8634	216.141	226.0179	290.9842	351.0757	402.8743	443.2005	515.7349	612.6439	749.9978	780.9955	796.2161	835.6773	861.6207	902.5615	920.8124	979.4716	1014.7628	1029.8667	1046.4117	1065.9529	1076.9357	1102.8982	1116.9915	1127.5249	1153.7205	1163.6972	1185.3926	1200.8846	1201.6304	1226.418	1249.1174	1262.4078	1311.2498	1394.9166	1396.9168	1422.5354	1447.0532	1474.0183	1486.4209	1489.8354	1492.7837	1496.169	1506.9867	1508.7766	2984.4377	3029.1159	3042.0055	3077.3452	3086.7855	3100.6549	3117.2848	3118.8699	3130.1784	3132.9423	3143.406	3156.5062	3203.3607	3221.9081
COC1CC1C1CC1C	CO[C@H]1C[C@H]1[C@H]1C[C@H]1C	
InChI=1S/C8H14O/c1-5-3-6(5)7-4-8(7)9-2/h5-8H,3-4H2,1-2H3	InChI=1S/C8H14O/c1-5-3-6(5)7-4-8(7)9-2/h5-8H,3-4H2,1-2H3/t5-,6+,7+,8+/m1/s1
