19
gdb 113006	2.8732	1.10616	1.00056	1.4652	71.87	-0.2538	-0.0454	0.2084	1276.9599	0.156581	-460.152118	-460.142563	-460.141619	-460.187446	34.207	
C	 0.1667864773	 1.2853462529	-0.2551453679	-0.389188
C	 0.0398105123	-0.228967547	-0.0633877121	-0.176326
C	-1.3916795915	-0.6506434846	 0.2013913896	 0.128801
O	-2.2855638972	-0.3433584998	-0.9150155195	-0.313659
C	-2.6659835691	-1.7181759477	-1.0539494937	 0.005241
C	-2.3279641189	-2.276738067	-2.4145035489	 0.134357
O	-2.0974970133	-3.4485399508	-2.6043471844	-0.262049
C	-1.7414969718	-2.1614095535	 0.1147889303	 0.037418
O	-0.6620139702	-2.9927850981	-0.2041364112	-0.426582
H	 1.2006072231	 1.5664531991	-0.4752915007	 0.115144
H	-0.4619475958	 1.6223293322	-1.084298314	 0.133293
H	-0.1440959718	 1.8294292294	 0.6437085768	 0.112917
H	 0.409042551	-0.762804883	-0.9441239642	 0.108291
H	 0.6540862235	-0.5646027899	 0.7813686454	 0.107543
H	-1.7747643953	-0.1760730852	 1.1142655447	 0.079191
H	-3.7399441213	-1.8779383498	-0.8713848887	 0.109169
H	-2.2926639521	-1.5253243172	-3.2320034396	 0.108561
H	-2.2929270446	-2.5388003303	 0.9848277242	 0.083101
H	-0.9742078743	-3.6490529296	-0.8425955462	 0.304778
33.5535	92.4333	113.5082	172.5003	208.9778	224.9075	285.3955	321.2781	408.3868	431.8405	449.2614	542.5627	647.8571	760.054	787.991	826.8579	859.42	936.3835	966.1011	977.1185	1046.77	1061.214	1086.2873	1110.0715	1148.0396	1188.0517	1205.4014	1251.5678	1279.2407	1296.2652	1320.5299	1346.1134	1368.697	1390.8863	1406.3718	1408.0439	1415.1049	1475.4161	1498.8133	1509.5716	1802.1119	2914.5889	2987.5422	3012.0047	3029.5192	3036.1245	3039.6454	3084.6218	3106.822	3118.0324	3741.2505
CCC1OC(C=O)C1O	CC[C@H]1O[C@@H](C=O)[C@H]1O	
InChI=1S/C6H10O3/c1-2-4-6(8)5(3-7)9-4/h3-6,8H,2H2,1H3	InChI=1S/C6H10O3/c1-2-4-6(8)5(3-7)9-4/h3-6,8H,2H2,1H3/t4-,5+,6+/m1/s1
