17
gdb 86485	2.1508	1.4655	1.02783	2.0526	76.12	-0.2475	-0.0411	0.2064	1195.9847	0.132104	-421.782947	-421.773586	-421.772642	-421.817664	33.779	
C	 0.3318676332	 1.5294881989	-0.0825818252	-0.39831
C	-0.0236205864	 0.0592548622	-0.1154842029	 0.157884
C	 0.5524044611	-0.8060075292	-1.2569272146	-0.359522
C	 1.2105089871	-1.6269788298	-0.1276504244	 0.16699
O	 0.7222632633	-0.7027897363	 0.8866120515	-0.334549
C	 0.5267176038	-2.9738502884	 0.1581616363	 0.121699
O	-0.2557550474	-3.5085487187	-0.5792720031	-0.242862
C	 2.6519049252	-1.7950770761	-0.1228167208	 0.263283
C	 3.8382526625	-1.9918432129	-0.1173261128	-0.420268
H	 1.4050617334	 1.6725809113	-0.2401565564	 0.126904
H	-0.2135982616	 2.0680047071	-0.8653922065	 0.121643
H	 0.0631657303	 1.9668292185	 0.883888091	 0.131967
H	-1.1004198879	-0.0819934465	 0.0381754088	 0.089554
H	-0.1592724223	-1.377494243	-1.8518967865	 0.141379
H	 1.2631159104	-0.2877456767	-1.9002395342	 0.121665
H	 0.7910938607	-3.3868820827	 1.1537941299	 0.105139
H	 4.8894242644	-2.1470507977	-0.1150600101	 0.207404
48.7499	77.0562	159.8535	179.93	203.7904	236.9568	288.3388	358.498	442.7717	479.0952	498.706	554.2052	632.1766	663.6679	673.9526	784.08	889.6569	895.3641	906.9705	962.758	967.8217	1032.9284	1080.5436	1109.7399	1184.3305	1194.4424	1224.5283	1256.5148	1307.257	1387.1811	1403.1183	1411.3857	1479.2609	1483.72	1494.8355	1834.143	2228.431	2924.1441	3029.2463	3035.5121	3096.5595	3108.0577	3117.9438	3161.1486	3497.7291
CC1CC(O1)(C=O)C#C	C[C@H]1C[C@@](O1)(C=O)C#C	
InChI=1S/C7H8O2/c1-3-7(5-8)4-6(2)9-7/h1,5-6H,4H2,2H3	InChI=1S/C7H8O2/c1-3-7(5-8)4-6(2)9-7/h1,5-6H,4H2,2H3/t6-,7+/m0/s1
