18
gdb 31553	3.24613	1.13053	0.85414	3.4177	77.74	-0.1641	0.0582	0.2222	1347.0254	0.147832	-435.309168	-435.299466	-435.298522	-435.343713	34.833	
C	 0.2021885028	 1.2833147668	 0.1828347559	-0.337556
N	-0.2183533194	-0.0600235049	-0.1763289174	-0.373301
C	 0.4792782987	-0.7562350227	-1.1452089495	 0.436995
N	 0.5549235456	-2.0713645176	-1.2135880027	-0.436222
C	 1.2651968247	-2.3183417769	-2.3633449011	 0.273885
O	 1.5374666899	-3.5896693927	-2.7487695103	-0.447644
C	 1.6425751596	-1.1756799637	-3.0064836641	 0.199631
C	 2.4261233754	-0.9183617354	-4.2431958005	-0.51599
N	 1.1239546418	-0.1576445941	-2.1801339353	-0.366447
H	 1.2655154169	 1.3576381934	 0.4589582859	 0.119778
H	 0.0149717259	 1.9764828738	-0.6460648109	 0.125033
H	-0.4014962835	 1.6279653806	 1.0247916362	 0.136458
H	-0.4239665093	-0.6625739292	 0.6073847095	 0.251635
H	 1.1295866096	-4.1597040968	-2.0868842735	 0.295469
H	 1.8581192728	-0.3597192603	-5.0000767893	 0.116031
H	 3.3521095167	-0.3582763401	-4.0525753219	 0.116678
H	 2.7082322022	-1.875782489	-4.6877635002	 0.149968
H	 1.1534957895	 0.8267204188	-2.3790310507	 0.255597
64.7586	133.8299	142.0966	191.1912	198.1932	245.5611	259.3653	308.154	325.0763	361.7946	420.5454	530.8839	563.1172	649.6109	687.6959	705.8245	742.223	818.5922	988.6561	1022.4182	1066.2828	1091.2908	1133.4174	1155.8212	1188.2157	1239.9226	1277.6047	1351.9121	1409.0075	1414.7167	1436.4602	1471.014	1479.5218	1489.1287	1499.3625	1517.1936	1543.7486	1636.6642	1719.1247	2981.8133	2996.9692	3032.3691	3052.0813	3120.979	3124.2152	3608.8771	3680.1437	3813.5085
CNC1=NC(O)=C(C)N1	CNc1nc(O)c(C)[nH]1	
InChI=1S/C5H9N3O/c1-3-4(9)8-5(6-2)7-3/h9H,1-2H3,(H2,6,7,8)	InChI=1S/C5H9N3O/c1-3-4(9)8-5(6-2)7-3/h9H,1-2H3,(H2,6,7,8)
