20
gdb 89809	3.1487	1.38027	1.14711	1.9567	78.66	-0.2304	0.0666	0.2971	1122.6994	0.172027	-403.110533	-403.102536	-403.101592	-403.142757	32.269	
O	-0.1079127175	 1.4549565701	 0.0572567099	-0.435015
C	-0.0013078872	 0.0404144976	 0.0135873179	 0.118819
C	 0.7078708491	-0.5895057884	 1.2385458603	-0.373854
C	-0.0266776979	-1.9124388752	 1.4272229015	 0.398038
C	 0.6522517038	-3.2395828238	 1.220452846	-0.315082
C	 0.1778751633	-2.8257370637	 2.5980325842	-0.322783
N	-1.3777943032	-1.8036342733	 0.8735758881	-0.142444
C	-2.102465657	-0.6066914784	 1.3354309784	-0.250803
C	-1.3850628375	-0.5886766181	 0.036415464	-0.026245
H	 0.7689861426	 1.8246830744	-0.0850641184	 0.283842
H	 0.504374142	-0.2728949982	-0.9123692227	 0.072103
H	 1.7821555497	-0.721364342	 1.085398233	 0.09875
H	 0.5764234064	 0.0802775818	 2.0954464079	 0.112097
H	 0.0835993366	-4.0052756517	 0.7057663447	 0.121591
H	 1.7195217203	-3.2462075118	 1.0243685037	 0.105337
H	 0.919349157	-2.551342299	 3.3411331039	 0.10919
H	-0.6995573024	-3.3240724824	 2.9944784603	 0.121242
H	-3.1826038183	-0.714285232	 1.34473301	 0.11521
H	-1.6980093879	-0.0298396968	 2.1615812826	 0.120777
H	-1.9402661317	-0.635134299	-0.8952798155	 0.089231
97.9397	167.8095	239.261	268.8278	298.2973	348.9305	418.9921	440.9652	512.7143	576.1864	622.7418	726.0892	779.4773	810.6525	854.8166	863.8351	890.7383	930.1294	961.1311	980.5739	996.3863	1011.03	1053.5219	1069.0633	1077.7265	1099.3414	1108.9772	1118.3566	1164.7421	1174.5428	1190.106	1219.9481	1244.7149	1260.6054	1298.3316	1351.0009	1365.7005	1388.6895	1436.1366	1453.2992	1489.0014	1498.3776	1518.6536	2983.4602	3046.0538	3095.2018	3120.2806	3129.8796	3133.5697	3155.7676	3205.3978	3214.9	3229.2061	3819.2336
OC1CC2(CC2)N2CC12	O[C@H]1CC2(CC2)N2C[C@@H]12	
InChI=1S/C7H11NO/c9-6-3-7(1-2-7)8-4-5(6)8/h5-6,9H,1-4H2	InChI=1S/C7H11NO/c9-6-3-7(1-2-7)8-4-5(6)8/h5-6,9H,1-4H2/t5-,6-,8?/m0/s1
