19
gdb 61533	3.4987	0.91774	0.85249	2.4066	76.55	-0.2592	0.0165	0.2757	1393.8469	0.15929	-419.197354	-419.187989	-419.187044	-419.231697	35.209	
N	 0.0853442626	 1.3568967109	 0.2877625501	-0.513953
C	 0.0331144164	-0.079200367	-0.0228388737	-0.139492
C	-1.3923330444	-0.6456358904	 0.171483832	-0.27037
C	-2.0297879725	-0.1342501116	 1.4586110031	 0.442369
O	-1.1462376985	-0.0400292237	 2.5414696375	-0.476134
C	-3.1561403428	 0.8709600067	 1.3946037915	-0.319307
C	-3.4199593221	-0.5644110305	 1.8073778242	-0.313323
C	 0.5331788436	-0.398748518	-1.3742801001	 0.262606
N	 0.9281660093	-0.6084384192	-2.4406360132	-0.317984
H	 1.0196034592	 1.7175762441	 0.117905993	 0.250861
H	-0.5428373956	 1.8710216559	-0.323840251	 0.248523
H	 0.6880269737	-0.5812940934	 0.6971120837	 0.146999
H	-2.0184918907	-0.3824726075	-0.6877415369	 0.116103
H	-1.3120181599	-1.7382386137	 0.184456546	 0.128586
H	-0.5781005981	 0.7175472134	 2.3340031115	 0.288528
H	-3.1800380555	 1.6237160532	 2.1743361241	 0.118935
H	-3.5150663975	 1.2036976531	 0.4258051199	 0.105389
H	-3.950619463	-1.2130669666	 1.1184184873	 0.113667
H	-3.6141333942	-0.7547501759	 2.856287111	 0.127996
65.818	91.2283	128.3682	212.9858	263.2595	290.8926	327.4675	339.0871	373.9327	446.512	486.9067	567.1771	584.6971	627.9744	754.4725	777.3086	822.5929	885.4986	920.3039	927.3442	957.9956	971.8858	999.8066	1007.7847	1050.3831	1077.0544	1130.5476	1156.0341	1189.6212	1262.1271	1290.9412	1305.2646	1325.2142	1362.8267	1400.7424	1414.9884	1452.9062	1486.181	1500.2217	1659.0957	2346.6516	3041.8905	3059.6561	3086.8639	3128.1756	3137.0535	3216.1455	3231.8881	3494.4036	3574.3637	3707.761
NC(CC1(O)CC1)C#N	N[C@@H](CC1(O)CC1)C#N	
InChI=1S/C6H10N2O/c7-4-5(8)3-6(9)1-2-6/h5,9H,1-3,8H2	InChI=1S/C6H10N2O/c7-4-5(8)3-6(9)1-2-6/h5,9H,1-3,8H2/t5-/m0/s1
