15
gdb 18091	3.98736	2.38013	1.75027	1.7996	64.8	-0.247	0.0088	0.2557	743.443	0.122305	-362.69047	-362.684619	-362.683675	-362.720553	22.903	
C	 0.0239348953	 1.564981345	 0.1951926755	-0.280912
C	 1.4466572311	 1.9869632143	-0.0867414913	-0.06679
C	 2.2165868188	 0.9823692248	-0.4988990333	-0.062617
C	 1.4685631708	-0.3290810691	-0.5493295983	-0.04931
N	 1.9944990727	-1.3233651904	 0.4137332112	-0.271412
C	 1.117044107	-1.4034881868	 1.3235023287	 0.116234
O	-0.0286423367	-0.6835608352	 1.2395719454	-0.231972
C	 0.0466572769	 0.0382857729	-0.0180307155	 0.080983
H	-0.3021703264	 1.8096381408	 1.2121935056	 0.125277
H	-0.6859161033	 2.0504756677	-0.4864305876	 0.111959
H	 1.7749736847	 3.0136943619	 0.032350972	 0.099889
H	 3.2669217617	 1.048122455	-0.7552490741	 0.106742
H	 1.470947271	-0.7708192015	-1.5515708285	 0.089748
H	 1.1870495066	-2.0210770881	 2.2125479777	 0.139544
H	-0.7791713202	-0.3171841414	-0.6377757274	 0.092637
98.1724	237.4254	393.021	433.7639	568.1977	601.3645	721.7489	769.0166	825.4778	858.2016	870.2272	908.3093	954.8196	960.3329	979.6538	990.9016	1026.7091	1040.5485	1059.3414	1120.8925	1131.2323	1195.0641	1249.0605	1280.1116	1300.8621	1322.2331	1333.0018	1364.5918	1381.7712	1474.1248	1681.443	1703.9557	3028.5153	3045.2518	3068.2811	3087.5149	3189.8012	3211.888	3218.9893
C1C=CC2N=COC12	C1C=C[C@H]2N=CO[C@@H]12	
InChI=1S/C6H7NO/c1-2-5-6(3-1)8-4-7-5/h1-2,4-6H,3H2	InChI=1S/C6H7NO/c1-2-5-6(3-1)8-4-7-5/h1-2,4-6H,3H2/t5-,6+/m1/s1
