15
gdb 22290	3.67603	1.13637	0.88749	2.8416	75.83	-0.2158	-0.0461	0.1697	1220.8824	0.113743	-453.958721	-453.950886	-453.949942	-453.991347	29.642	
O	-0.0553348555	 1.3951555138	 0.1931346127	-0.395252
N	 0.0735047263	 0.0102734179	 0.0142617769	-0.211394
C	-1.0693346575	-0.564175188	-0.1148624668	 0.335286
C	-1.0458210699	-2.0720948284	-0.2528359826	-0.415674
C	-2.2228576964	-2.6806277068	-1.0048051077	 0.411117
O	-2.1948032854	-3.7720510461	-1.5271776097	-0.34972
N	-3.3790711653	-1.9176325354	-0.9857533402	-0.339863
C	-3.4457467301	-0.6072162632	-0.534268523	 0.013574
C	-2.3697189615	 0.0782675451	-0.1102031318	-0.190341
H	 0.8623188632	 1.6728402774	 0.2798195058	 0.308481
H	-0.1190653461	-2.4198410903	-0.7099452333	 0.158747
H	-1.0868310619	-2.5210529775	 0.751227686	 0.155949
H	-4.1820920563	-2.3423108478	-1.4253617418	 0.261452
H	-4.435280081	-0.1673831335	-0.5740099392	 0.132567
H	-2.4583072128	 1.1109516031	 0.1907575747	 0.125072
72.9125	137.8108	229.2616	280.7524	333.8093	392.031	427.3925	452.6324	503.6374	561.4665	606.6602	650.817	675.5614	771.4714	794.643	853.424	930.967	956.015	968.0275	994.4912	1087.1173	1177.6391	1204.0281	1259.859	1298.2113	1325.9152	1395.9033	1427.4663	1440.9503	1475.7299	1680.3733	1694.6186	1815.0638	3006.8281	3134.2512	3204.7925	3255.1163	3624.2206	3825.38
ON=C1CC(=O)NC=C1	ON=C1CC(=O)NC=C1	
InChI=1S/C5H6N2O2/c8-5-3-4(7-9)1-2-6-5/h1-2,9H,3H2,(H,6,8)	InChI=1S/C5H6N2O2/c8-5-3-4(7-9)1-2-6-5/h1-2,9H,3H2,(H,6,8)
