13
gdb 131255	3.12515	1.31881	1.05061	4.4849	64.24	-0.2521	-0.013	0.2391	1082.084	0.089937	-448.920219	-448.912356	-448.911412	-448.953622	27.65	
O	 0.2830603705	 1.3326813806	 0.2303327985	-0.421706
C	 0.1246072646	 0.0183845878	-0.0001358196	 0.382203
C	 0.0311831658	-0.7911178705	-1.1081651809	-0.181331
N	-0.1419578629	-2.0735055238	-0.6749686743	-0.170505
N	-0.1593284657	-2.1078545977	 0.6178658913	-0.147388
N	 0.0019947253	-0.820604901	 1.0543999356	 0.002319
C	 0.035811726	-0.5187496161	 2.4678494733	-0.284418
C	 1.3759704036	-0.1548134658	 2.9480482607	 0.280583
N	 2.4212915198	 0.1418472995	 3.3373906252	-0.291267
H	 0.4108378373	 1.794138597	-0.605132105	 0.325561
H	 0.0740656923	-0.5361254982	-2.1540599039	 0.127534
H	-0.6563988549	 0.2982517298	 2.694652013	 0.181833
H	-0.3087442316	-1.4188099215	 2.9832602861	 0.196579
41.5602	91.8987	228.1296	252.3593	277.7386	325.3922	367.1115	436.8405	513.7897	679.9356	711.9174	714.48	791.0241	800.8262	928.2777	938.3905	989.021	1112.05	1117.7508	1185.1927	1288.6707	1299.2405	1339.3852	1370.8032	1383.5464	1447.9416	1546.7046	1629.0421	2373.1135	3065.5916	3122.1111	3271.6485	3836.1852
OC1=CN=NN1CC#N	Oc1cnnn1CC#N	
InChI=1S/C4H4N4O/c5-1-2-8-4(9)3-6-7-8/h3,9H,2H2	InChI=1S/C4H4N4O/c5-1-2-8-4(9)3-6-7-8/h3,9H,2H2
