13
gdb 5561	3.35274	1.82768	1.26943	1.4644	56.72	-0.225	-0.0078	0.2172	900.0776	0.096129	-435.758507	-435.751248	-435.750304	-435.790473	25.954	
O	 0.1094439777	 1.4163183307	 0.4221250527	-0.410498
C	 0.0458000134	 0.0171465132	 0.1594511968	-0.180172
C	-1.3291233575	-0.5043262054	-0.0267518029	 0.201974
C	-2.0498226231	-0.9509225328	-1.0927522827	 0.249512
O	-1.6437671741	-1.0610807646	-2.3712240713	-0.426573
N	-3.3246201926	-1.3048748026	-0.7042733333	-0.33856
C	-3.3332841978	-1.0601024145	 0.5706298538	 0.079335
O	-2.1849499397	-0.5797507852	 1.0612265517	-0.165847
H	-0.336147456	 1.8652223807	-0.3042682362	 0.281727
H	 0.6263076439	-0.2578628988	-0.732968793	 0.116099
H	 0.5221881416	-0.4572018737	 1.0236023083	 0.127458
H	-2.3831529961	-1.4309785657	-2.8686919541	 0.309335
H	-4.1475330599	-1.1983859312	 1.2646233601	 0.156211
70.4564	139.269	227.8671	294.9087	332.0384	359.2855	402.9602	504.4406	637.5943	684.4685	734.0313	779.6816	843.1167	928.9727	958.7303	1029.6905	1084.8176	1165.7308	1185.8294	1247.4078	1309.8857	1323.5439	1374.3792	1406.8473	1437.4136	1486.2175	1549.0457	1719.1997	3008.2478	3077.6859	3275.295	3806.8935	3809.7601
OCC1=C(O)N=CO1	OCc1c(O)nco1	
InChI=1S/C4H5NO3/c6-1-3-4(7)5-2-8-3/h2,6-7H,1H2	InChI=1S/C4H5NO3/c6-1-3-4(7)5-2-8-3/h2,6-7H,1H2
