20
gdb 78210	2.29901	1.54021	1.404	3.7517	78.84	-0.2368	-0.0074	0.2294	1082.6642	0.169191	-403.139032	-403.129684	-403.12874	-403.172509	35.191	
C	-0.1714288369	 1.460032689	 0.1356891065	-0.42742
C	-0.0789272458	-0.0118623907	-0.1972724486	-0.003686
C	 0.555075031	-0.6637131923	-1.3605037164	-0.082117
N	 1.1608859183	-0.8156937709	 0.0517133678	-0.200535
C	 2.2719538801	-0.0012732547	-0.4169588162	 0.360657
O	 3.2132697061	 0.4084901723	 0.1899375641	-0.31593
C	 1.8379785854	-0.0075401166	-1.8986101464	 0.163738
C	 2.7006635868	-1.0397602876	-2.6482498924	-0.430468
C	 1.7766962339	 1.3029041708	-2.6797893678	-0.455823
H	-1.0200871732	 1.912802348	-0.3876608604	 0.127668
H	-0.3376191062	 1.5785459207	 1.2110411788	 0.138284
H	 0.7303148422	 2.0184688241	-0.1180055776	 0.143556
H	-0.935283057	-0.571670205	 0.1764338072	 0.11007
H	 0.1003205194	-1.5317238446	-1.8277014313	 0.102922
H	 2.7589589123	-1.9875528456	-2.1052363632	 0.135512
H	 2.2793223552	-1.2371872144	-3.6399172744	 0.118926
H	 3.7172963056	-0.6580496244	-2.7782779071	 0.13578
H	 2.7767188416	 1.7432142829	-2.7484829832	 0.135505
H	 1.4218429466	 1.1196785354	-3.6999372766	 0.119958
H	 1.1139834146	 2.0399493435	-2.2239571727	 0.123405
123.4725	150.6209	163.7172	173.5908	225.7187	241.2653	287.3155	292.7926	346.3272	398.4978	511.5035	582.18	645.4543	659.2451	731.3532	774.9099	837.7264	881.1412	913.1778	956.3179	983.6668	1003.4513	1021.2572	1054.0476	1070.1703	1103.5261	1168.9626	1189.1586	1216.5956	1253.3869	1277.3705	1365.0174	1397.6503	1416.5588	1422.1703	1435.37	1479.9736	1484.4406	1492.4252	1499.7058	1504.7395	1513.2618	1903.2937	3033.4852	3040.6943	3044.5102	3100.945	3104.8357	3105.5022	3116.2233	3119.3099	3136.1439	3147.3289	3164.7279
CC1C2N1C(=O)C2(C)C	C[C@H]1[C@@H]2N1C(=O)C2(C)C	
InChI=1S/C7H11NO/c1-4-5-7(2,3)6(9)8(4)5/h4-5H,1-3H3	InChI=1S/C7H11NO/c1-4-5-7(2,3)6(9)8(4)5/h4-5H,1-3H3/t4-,5-,8?/m0/s1
