19
gdb 60499	2.08859	1.38185	0.93607	2.7901	82.38	-0.2556	-0.0557	0.1999	1289.1472	0.15635	-385.857977	-385.848111	-385.847166	-385.893607	35.676	
C	 0.6543398799	 1.9181771391	-0.2240637262	-0.399155
C	 0.1600877463	 0.4896675931	 0.0215079546	-0.116481
C	 0.5483501545	-0.4497570682	-1.1172968145	 0.04096
C	-0.2555313267	-1.6861200807	-1.4317151828	-0.270507
C	-0.2891634493	-0.5076631646	-2.3711194128	-0.278337
C	 0.7310510829	-0.0723706723	 1.3243173002	 0.219715
O	 1.7563419526	 0.3341085297	 1.8273074122	-0.294764
C	-0.0208541344	-1.1609994356	 1.9325468332	 0.285864
C	-0.6602818374	-2.0378868223	 2.4543044632	-0.417998
H	 1.7458563473	 1.9451477332	-0.2653808502	 0.136723
H	 0.2580649078	 2.2940221659	-1.1711696735	 0.113923
H	 0.3381774014	 2.5908220137	 0.578314576	 0.119755
H	-0.9341360125	 0.4765132125	 0.10789707	 0.085511
H	 1.6234945428	-0.528980871	-1.2583276227	 0.096445
H	 0.2770041218	-2.5793374574	-1.7381970401	 0.116188
H	-1.1371623072	-1.8811630538	-0.8315684423	 0.119738
H	-1.1952293278	 0.0891504092	-2.401869304	 0.113417
H	 0.2210823259	-0.5875188256	-3.3244942629	 0.116035
H	-1.211439458	-2.815840315	 2.9243981225	 0.212968
29.6502	82.0235	134.0051	159.6237	203.6221	227.3428	265.2189	293.1951	336.4664	397.1069	514.4507	606.1309	640.357	696.4897	708.6538	773.3573	792.9273	832.217	836.0744	934.4476	947.5467	993.3709	1044.2737	1062.5588	1079.2606	1088.5077	1140.8751	1141.43	1196.4495	1199.2713	1226.147	1285.7829	1352.1359	1398.8341	1409.4352	1471.3955	1489.4966	1495.9012	1505.4699	1764.3606	2207.3896	3026.8461	3048.3909	3118.6275	3129.7623	3130.6279	3138.2049	3142.0327	3210.4258	3227.5517	3494.0087
CC(C1CC1)C(=O)C#C	C[C@@H](C1CC1)C(=O)C#C	
InChI=1S/C8H10O/c1-3-8(9)6(2)7-4-5-7/h1,6-7H,4-5H2,2H3	InChI=1S/C8H10O/c1-3-8(9)6(2)7-4-5-7/h1,6-7H,4-5H2,2H3/t6-/m0/s1
