17
gdb 31986	4.56595	0.91414	0.78688	2.5802	72.94	-0.1987	0.03	0.2287	1429.0828	0.136671	-455.164975	-455.156048	-455.155104	-455.199375	31.929	
C	-0.1536974027	 0.7825829569	-0.691385406	-0.250147
O	-0.0134466153	 0.960415213	 0.7110305853	-0.260659
C	 0.7708788226	 0.0464832761	 1.3115639983	 0.405101
C	 1.4930253528	-1.044757866	 0.895866122	-0.24729
N	 2.1427422298	-1.6066922432	 1.9809668072	-0.295623
C	 1.8127550033	-0.8816159373	 3.0208226646	 0.292047
C	 2.2345805947	-1.0891326412	 4.4390949887	-0.175687
O	 2.5806419227	 0.1347791059	 5.0842325603	-0.420245
N	 0.9699886218	 0.1456622316	 2.6645847039	-0.360444
H	-0.6066050334	-0.1902694742	-0.9188539137	 0.132184
H	-0.8063146402	 1.582927378	-1.0413803288	 0.139205
H	 0.8191248235	 0.8512332246	-1.1937447163	 0.131191
H	 1.5908723322	-1.4500483517	-0.0976279505	 0.104803
H	 1.4140525946	-1.4988595443	 5.040494263	 0.122569
H	 3.0494862259	-1.8236206845	 4.4465797087	 0.123541
H	 3.3424371062	 0.4981298041	 4.619542472	 0.286398
H	 0.6204931317	 0.8722806323	 3.2673036814	 0.273058
55.239	77.7642	145.666	191.9091	209.1913	260.7475	339.6376	388.8654	461.517	487.0972	528.3053	657.464	679.8176	696.2725	757.6046	776.3235	968.3954	991.168	1031.359	1055.8738	1084.9832	1156.9846	1183.7307	1191.9381	1212.1307	1228.1661	1292.298	1358.1415	1413.1491	1442.5108	1445.4857	1473.7687	1483.8677	1496.7411	1508.7083	1568.0356	1634.756	3013.363	3025.2737	3064.8048	3074.5762	3146.0506	3263.4709	3664.2937	3804.2218
COC1=CN=C(CO)N1	COc1cnc(CO)[nH]1	
InChI=1S/C5H8N2O2/c1-9-5-2-6-4(3-8)7-5/h2,8H,3H2,1H3,(H,6,7)	InChI=1S/C5H8N2O2/c1-9-5-2-6-4(3-8)7-5/h2,8H,3H2,1H3,(H,6,7)
