18
gdb 76353	1.93407	1.40446	1.19506	4.571	84.03	-0.2589	0.0112	0.27	1181.6102	0.14489	-364.787992	-364.778058	-364.777114	-364.822461	36.086	
C	-0.1042204944	 1.5518263573	 0.1001156716	-0.419574
C	 0.0188114455	 0.0534436941	-0.0442448735	-0.050203
C	 0.6799872419	-0.6220214304	-1.2030614772	-0.050199
C	 1.3024355388	 0.1147467619	-2.365326813	-0.41958
C	 1.3830419725	-0.6498901171	 0.1792090815	-0.028125
C	 2.5644581414	 0.1395593527	 0.3931041094	 0.270063
C	 3.5541877257	 0.7973627249	 0.5743980721	-0.437019
C	 1.3485171416	-1.9049930878	 0.8911387367	 0.234331
N	 1.2944285959	-2.9165961592	 1.4497552736	-0.346969
H	 0.7860419672	 2.077699556	-0.2487172597	 0.137689
H	-0.9639112724	 1.9150861018	-0.4728251755	 0.128393
H	-0.260159553	 1.8234819041	 1.1485098699	 0.136071
H	-0.8048859408	-0.5022785103	 0.394354454	 0.119521
H	 0.2569079561	-1.5870219956	-1.4665966949	 0.119521
H	 1.8159515125	 1.0256362187	-2.0532728648	 0.137695
H	 2.0341012767	-0.5207755381	-2.8732843023	 0.136069
H	 0.531294368	 0.3878009909	-3.0933860304	 0.128395
H	 4.4331248768	 1.3695080759	 0.7423621825	 0.203921
116.6145	128.908	138.3502	149.2001	166.3187	168.8117	234.5513	318.3176	355.8034	454.7262	482.4839	551.1243	591.6289	592.95	612.7922	615.1192	672.991	771.8125	796.5829	941.0058	1022.721	1027.5484	1032.1517	1064.7692	1118.2221	1131.9383	1191.339	1247.5607	1296.7917	1376.9847	1421.4178	1423.4917	1428.6985	1482.9672	1490.4883	1498.0794	1509.1073	2238.8183	2350.8434	3043.0114	3045.8223	3104.4162	3105.6997	3130.547	3139.2093	3152.2465	3163.079	3501.1809
CC1C(C)C1(C#C)C#N	C[C@H]1[C@@H](C)[C@]1(C#C)C#N	
InChI=1S/C8H9N/c1-4-8(5-9)6(2)7(8)3/h1,6-7H,2-3H3	InChI=1S/C8H9N/c1-4-8(5-9)6(2)7(8)3/h1,6-7H,2-3H3/t6-,7+,8+
