16
gdb 48797	2.84649	1.4864	1.15731	2.0756	71.13	-0.2485	-0.0415	0.207	1055.651	0.123347	-437.821552	-437.813796	-437.812852	-437.85392	29.209	
O	-0.1516476357	 0.2149798024	-0.703105808	-0.287786
C	 0.0608127556	 1.044472528	 0.1563341405	 0.049909
C	 1.2474283487	 1.9076065786	 0.1545654883	 0.150512
N	 2.104077676	 2.0259821887	-1.0544249401	-0.362332
C	 2.6889664386	 1.4135817552	 0.126117353	-0.084461
C	 3.1311123326	 2.5415366939	 1.0744177448	-0.31533
C	 1.6650239538	 3.0268978092	 1.0898687612	 0.398585
C	 1.0569971746	 4.3310709527	 1.3303161814	-0.257568
O	 0.9716181342	 3.2641823728	 2.2986760146	-0.275588
H	-0.6235794114	 1.1884565963	 1.0154304951	 0.101507
H	 1.7864749229	 1.2757772422	-1.6737678557	 0.255571
H	 3.0133957615	 0.380354867	 0.1305213495	 0.1246
H	 3.4269893592	 2.180793392	 2.0619502607	 0.130403
H	 3.8857372195	 3.2214791064	 0.6734262792	 0.123449
H	 1.6823315709	 5.171022251	 1.6272825059	 0.125202
H	 0.1205753492	 4.5932689136	 0.8412921197	 0.123327
113.3758	137.1188	169.2505	244.599	302.9057	334.8426	430.6247	483.8247	533.6463	593.3225	738.9871	809.2521	835.2752	845.2557	872.1213	913.847	947.7702	979.7605	1026.0344	1045.6501	1075.9838	1111.9959	1127.1785	1153.071	1169.6203	1182.8766	1233.6588	1292.0765	1331.0309	1386.8285	1420.1993	1448.8496	1473.5377	1538.8137	1775.7322	2942.4656	3072.5672	3090.8007	3135.4776	3180.486	3199.6659	3442.7479
O=CC12NC1CC21CO1	O=C[C@]12N[C@H]1C[C@]12CO1	
InChI=1S/C6H7NO2/c8-2-6-4(7-6)1-5(6)3-9-5/h2,4,7H,1,3H2	InChI=1S/C6H7NO2/c8-2-6-4(7-6)1-5(6)3-9-5/h2,4,7H,1,3H2/t4-,5+,6-/m0/s1
