20
gdb 95547	2.42098	1.71058	1.13139	2.2983	80.15	-0.2296	0.022	0.2515	1113.3591	0.172893	-403.141654	-403.133536	-403.132591	-403.174261	31.773	
C	 0.2432243026	 1.5530474504	 0.0034753319	-0.397448
C	-0.000548812	 0.0337869858	-0.0024041777	-0.025123
C	 0.6778673855	-0.5850715084	-1.2194045494	-0.087047
O	 0.2603093626	-1.9154310558	-1.5410841894	-0.228818
C	 0.5485042066	-2.9620657334	-0.7235924055	 0.113587
N	 0.792047703	-3.0577549591	 0.5087463507	-0.257826
C	 0.7744643164	-2.0419622165	 1.5029383248	 0.016352
C	 1.8574761458	-0.9850736614	 1.610879241	-0.311998
C	 0.4300870529	-0.5787196152	 1.3200942888	-0.022194
H	 1.3130894345	 1.7791118124	 0.0718654415	 0.1214
H	-0.1476307685	 2.0248549343	-0.9038995647	 0.114424
H	-0.2477684173	 2.01973624	 0.8624043229	 0.119983
H	-1.0787011268	-0.1420676509	-0.1214051135	 0.089071
H	 0.424303306	-0.0064758387	-2.1115592843	 0.115637
H	 1.7708793864	-0.5665830691	-1.116068712	 0.109044
H	 0.5210034411	-3.8729566715	-1.3225179367	 0.117056
H	 0.4723472856	-2.4642820015	 2.4575575868	 0.099207
H	 2.2745410562	-0.769224765	 2.588485486	 0.113333
H	 2.5833879522	-0.9557138783	 0.8063529533	 0.117859
H	-0.0948685531	-0.1409020781	 2.1670468655	 0.083501
71.1688	197.1317	213.1159	237.1883	285.8935	318.5586	380.4727	427.2564	502.683	557.9002	616.146	739.3966	761.6287	810.6202	855.7017	889.1457	943.9445	955.5127	955.9818	976.1145	1008.5543	1042.4099	1057.4454	1096.2508	1123.6234	1142.1976	1148.5498	1184.9591	1191.3114	1258.1929	1289.3645	1322.2016	1380.8023	1391.7873	1404.3963	1407.7934	1435.0725	1442.1362	1482.4335	1497.0426	1500.0467	1508.9673	1766.9745	3010.0481	3024.8889	3033.2776	3093.4054	3101.9041	3108.0725	3116.8729	3131.1576	3134.7624	3138.2644	3220.7079
CC1COC=NC2CC12	C[C@H]1COC=N[C@H]2C[C@@H]12	
InChI=1S/C7H11NO/c1-5-3-9-4-8-7-2-6(5)7/h4-7H,2-3H2,1H3	InChI=1S/C7H11NO/c1-5-3-9-4-8-7-2-6(5)7/h4-7H,2-3H2,1H3/t5-,6-,7-/m0/s1
