17
gdb 37270	3.70096	1.98897	1.90623	2.9078	72.66	-0.225	0.0677	0.2927	792.8579	0.140069	-380.769027	-380.76355	-380.762606	-380.798466	24.472	
N	-0.0383027302	 1.477773418	-0.0120359966	-0.317639
C	 1.2835687496	 0.8122952148	 0.0251124561	-0.067221
C	 0.0337884039	-0.0002779996	 0.0402588657	-0.044559
C	-0.0085899222	-0.7021984309	-1.3154473945	 0.011335
C	 1.4535048611	-0.8751526653	-1.8065244318	-0.103774
C	 0.9804805242	-0.2938856742	-3.1731457491	-0.071068
C	 1.0048717576	 1.0400899801	-2.5301179093	-0.041333
C	 1.8840934244	 0.5697644909	-1.3566545527	-0.037038
N	-0.2502207519	 0.2135694827	-2.4982869607	-0.131182
H	-0.2617303249	 1.8197781364	 0.9212618385	 0.228714
H	 1.9171536276	 0.9359656537	 0.8971700604	 0.084338
H	-0.3266245334	-0.5118363583	 0.9266502556	 0.08562
H	-0.6668821897	-1.5694242845	-1.3759932898	 0.072294
H	 2.0689660924	-1.7511719908	-1.6091638792	 0.068953
H	 1.0125704852	-0.6245344107	-4.201569898	 0.096028
H	 0.914132296	 2.0305799539	-2.9541187191	 0.096187
H	 2.9423296903	 0.8041384138	-1.4740827856	 0.070344
286.3192	299.839	528.8017	544.8021	670.1918	671.6261	750.5305	761.3493	813.7396	822.6632	842.8838	863.1556	865.1216	905.8097	915.8164	938.0912	949.4343	951.384	984.1743	1008.462	1008.7188	1037.7944	1071.7737	1112.3314	1143.6194	1145.7556	1165.5827	1192.819	1211.0296	1216.7131	1230.4566	1249.6489	1304.8532	1321.0999	1340.6109	1360.6103	1409.9987	3107.8649	3112.9689	3130.9496	3158.2596	3168.2287	3206.784	3221.2263	3479.4637
N1C2C1C1C3C4C(C23)N14	N1[C@H]2[C@@H]1[C@@H]1[C@H]3[C@@H]4[C@H]([C@@H]23)N14	
InChI=1S/C7H8N2/c8-3-1-2-5(4(3)8)9-6(1)7(2)9/h1-8H	InChI=1S/C7H8N2/c8-3-1-2-5(4(3)8)9-6(1)7(2)9/h1-8H/t1-,2+,3-,4-,5+,6+,7-,9?/m1/s1
