18
gdb 95055	2.76762	1.55773	1.23112	4.7161	70.93	-0.2289	0.0057	0.2346	1052.4302	0.149221	-439.107271	-439.099555	-439.098611	-439.139578	29.508	
C	-0.2975586754	 1.561954473	 0.3452244061	-0.33387
N	 0.1023173877	 0.1941442955	 0.0252706278	-0.04822
C	-1.0241507054	-0.7069462038	-0.2824576672	-0.197153
C	-1.438522992	-1.3689112392	 1.0607544644	-0.239484
C	-0.1224107973	-1.4709913103	 1.8159095666	 0.109217
O	 0.714897641	-2.5881987686	 1.3571972838	-0.261952
C	 1.5765511722	-1.7553944046	 0.6826622951	 0.451037
O	 2.5318544864	-2.0604958158	 0.0481390668	-0.322063
C	 0.8255429322	-0.4639473288	 1.091084702	-0.197276
H	 0.5938457833	 2.1597314916	 0.5554437426	 0.13066
H	-0.7952491754	 2.0029290987	-0.5229683011	 0.129462
H	-0.9788412748	 1.6488008248	 1.2104455016	 0.097631
H	-1.8351536994	-0.1566488405	-0.7628334812	 0.110128
H	-0.6841458366	-1.475390538	-0.9860038687	 0.130059
H	-2.1224144959	-0.7223548135	 1.621375775	 0.112011
H	-1.9203644415	-2.3406459638	 0.9306909013	 0.125008
H	-0.1883128527	-1.4767345956	 2.9033511685	 0.096589
H	 1.4255487036	 0.2262888388	 1.6841242664	 0.108215
104.7507	147.1977	186.6133	214.6774	310.3468	377.702	409.0322	493.4191	620.541	639.1212	691.8863	801.4221	830.5411	842.9598	867.4577	895.6258	943.7785	979.9041	1013.7307	1049.5846	1066.7405	1113.3375	1127.8645	1153.2997	1170.3158	1191.6786	1215.9045	1265.2959	1301.1282	1311.359	1338.459	1361.1916	1379.4498	1460.1942	1470.5041	1492.9457	1504.8373	1507.0007	1941.2403	2945.4921	3042.5061	3054.2584	3072.4205	3110.6613	3115.0891	3118.1064	3120.89	3128.164
CN1CCC2OC(=O)C12	CN1CC[C@H]2OC(=O)[C@@H]12	
InChI=1S/C6H9NO2/c1-7-3-2-4-5(7)6(8)9-4/h4-5H,2-3H2,1H3	InChI=1S/C6H9NO2/c1-7-3-2-4-5(7)6(8)9-4/h4-5H,2-3H2,1H3/t4-,5+/m1/s1
