15
gdb 126038	3.07273	1.64877	1.13009	5.2604	66.52	-0.2625	-0.0409	0.2216	1025.2504	0.113736	-453.897199	-453.890006	-453.889062	-453.929319	26.857	
C	 0.0241178766	 1.5907029972	-0.0268002524	-0.402224
C	 0.0065236439	 0.0627433377	 0.0758905459	-0.155272
C	 0.7353203246	-0.6521683192	-1.1231947379	-0.105374
O	 1.5783188712	-1.7319472022	-0.6018362032	-0.260201
C	 1.6360343882	-1.5413266472	 0.7202809433	 0.424528
N	 2.3156232371	-2.0972525433	 1.6731549846	-0.227278
O	 1.8657436529	-1.4071001027	 2.8078065454	-0.169265
N	 0.9196835635	-0.4438587472	 2.496071667	-0.201091
C	 0.7825518105	-0.5298172531	 1.2121521606	 0.290837
H	 1.0503910297	 1.9688664697	-0.0552276393	 0.134237
H	-0.4912729867	 1.9232233563	-0.9331119157	 0.127798
H	-0.4791287992	 2.0384082274	 0.8337722784	 0.147143
H	-1.0327151059	-0.282941034	 0.1260128762	 0.123831
H	 0.0450431637	-1.1023380531	-1.8377670592	 0.139
H	 1.39198257	 0.0481921836	-1.6495010438	 0.13333
66.0037	167.0855	215.7491	263.5706	346.6793	438.3547	516.6029	588.7665	622.6521	670.0848	742.6358	779.3994	836.209	869.6977	903.0033	936.012	973.2529	1028.3171	1066.6222	1110.5829	1143.5069	1209.0036	1235.3084	1295.736	1331.2466	1387.5024	1416.3615	1468.488	1493.8326	1497.0705	1508.9641	1600.8337	1687.0629	3037.798	3042.9693	3055.9239	3114.8254	3125.878	3130.6161
CC1COC2=NON=C12	C[C@H]1COc2nonc12	
InChI=1S/C5H6N2O2/c1-3-2-8-5-4(3)6-9-7-5/h3H,2H2,1H3	InChI=1S/C5H6N2O2/c1-3-2-8-5-4(3)6-9-7-5/h3H,2H2,1H3/t3-/m0/s1
