20
gdb 7004	2.5366	1.86721	1.50172	2.5467	70.85	-0.2467	0.0705	0.3172	960.8609	0.174617	-386.130166	-386.12076	-386.119816	-386.163337	35.284	
C	-0.0803359263	 1.4982472796	 0.0082736985	-0.414307
C	-0.0212358022	-0.0322232531	 0.0017356895	 0.267046
C	-1.4008610844	-0.6316389086	-0.2547015942	-0.459152
C	 1.1410477438	-0.5741692605	-0.8867815394	 0.11209
O	 1.5133527322	 0.2791441351	-1.9445559839	-0.429085
C	 2.0492076431	-0.6600852821	 0.3693924912	-0.330547
C	 0.7580818314	-0.5979944591	 1.2291874133	 0.112093
O	 0.7326994931	 0.2305731748	 2.3686909517	-0.429084
H	 0.8961263903	 1.9510759407	 0.1900708707	 0.118675
H	-0.4422802446	 1.8628850768	-0.9569052642	 0.116679
H	-0.7589673781	 1.8431797291	 0.793140245	 0.11668
H	-1.7968719717	-0.3028501653	-1.2221235815	 0.11826
H	-1.3677722866	-1.7269728346	-0.2610714047	 0.1024
H	-2.1120603518	-0.3225008801	 0.5195476134	 0.118261
H	 0.8970804886	-1.5782372546	-1.2645431702	 0.058264
H	 2.2617966114	-0.1165598651	-2.4019163693	 0.282649
H	 2.7066464546	-1.526792224	 0.4786232856	 0.085601
H	 2.6285286166	 0.2598406619	 0.4845985417	 0.112563
H	 0.4011641716	-1.6090917576	 1.4754989151	 0.058264
H	 1.274934869	-0.1779661232	 3.0506035517	 0.282649
103.9784	163.7269	190.2028	229.0254	238.1187	240.3162	253.1731	283.7899	335.0714	383.4953	468.214	501.6182	552.6386	581.9949	725.8921	799.2324	880.5196	911.4184	960.206	992.1948	1004.2461	1050.2078	1060.6799	1145.2777	1154.0208	1181.0367	1186.2057	1204.0654	1238.0638	1257.799	1304.0373	1307.4089	1351.8773	1400.036	1411.8448	1414.3427	1442.738	1478.3815	1484.15	1488.0824	1500.8358	1503.7114	2979.283	2986.667	3021.8236	3050.0919	3056.9631	3088.5563	3093.0184	3118.6967	3119.265	3131.9164	3818.8527	3819.0922
CC1(C)C(O)CC1O	CC1(C)[C@@H](O)C[C@H]1O	
InChI=1S/C6H12O2/c1-6(2)4(7)3-5(6)8/h4-5,7-8H,3H2,1-2H3	InChI=1S/C6H12O2/c1-6(2)4(7)3-5(6)8/h4-5,7-8H,3H2,1-2H3/t4-,5+
