17
gdb 55395	3.52521	1.21428	0.95355	2.1164	69.25	-0.2487	0.0133	0.262	1189.9651	0.137666	-455.194428	-455.186111	-455.185167	-455.228019	30.796	
N	 0.7671243039	-0.0846312228	 0.5872608524	-0.51821
C	-0.1662823213	 0.3512898463	-0.2917460606	 0.363478
O	-0.0215487654	 1.2940413238	-1.0460249997	-0.372069
C	-1.4755280918	-0.4426507063	-0.3117921907	 0.041956
C	-1.7402977417	-1.0618530489	-1.6831233237	-0.230965
C	-3.026042602	-1.8877431506	-1.6070378501	-0.172342
N	-3.076432277	-2.7619985878	-0.4357975109	-0.25738
C	-2.3195076002	-2.501477848	 0.5377538381	 0.126585
O	-1.4545271926	-1.4595515201	 0.7070046189	-0.255705
H	 1.6383001436	 0.414360062	 0.6545676232	 0.265058
H	 0.5664138076	-0.8499159115	 1.2071900528	 0.273538
H	-2.2776863608	 0.2646401426	-0.0648516367	 0.120939
H	-1.7971614813	-0.264696401	-2.4271480304	 0.135852
H	-0.8958095307	-1.7081278448	-1.9494758487	 0.11549
H	-3.9079038833	-1.2336805246	-1.5871755544	 0.118863
H	-3.1326920396	-2.5153469506	-2.4978640254	 0.118435
H	-2.2878734373	-3.1437289576	 1.4158655659	 0.126477
45.9562	97.9639	198.0999	217.9594	286.2734	320.0578	397.4617	462.0065	513.644	540.7851	560.6281	624.7075	724.6304	785.5702	856.7385	873.5556	920.124	958.7295	984.4548	1044.2022	1070.6379	1097.3156	1116.4429	1145.4326	1222.6955	1247.806	1311.1426	1345.8718	1364.4079	1376.2586	1387.8128	1411.3187	1480.8462	1489.8609	1598.6522	1742.4786	1802.2605	3022.4529	3029.9897	3048.0668	3070.1785	3120.2877	3160.4863	3606.1379	3746.1664
NC(=O)C1CCN=CO1	NC(=O)[C@H]1CCN=CO1	
InChI=1S/C5H8N2O2/c6-5(8)4-1-2-7-3-9-4/h3-4H,1-2H2,(H2,6,8)	InChI=1S/C5H8N2O2/c6-5(8)4-1-2-7-3-9-4/h3-4H,1-2H2,(H2,6,8)/t4-/m1/s1
