19
gdb 32697	3.3444	1.0384	0.8473	3.2878	82.45	-0.1818	0.036	0.2178	1415.0372	0.158439	-419.239045	-419.229434	-419.22849	-419.274432	34.455	
C	 0.335957053	 1.4453700356	 0.1692483672	-0.359268
C	-0.0128198124	-0.0271028524	-0.0786029351	-0.133637
N	 0.6476219924	-0.5482851564	-1.2662928416	-0.389968
C	 1.7590197292	-1.1342514996	-1.1391741915	 0.502989
N	 2.5266511761	-1.6808976512	-2.1492724783	-0.370837
C	 3.6383215216	-2.3182172711	-1.5953757849	-0.192396
C	 3.6011825571	-2.1098397892	-0.2740518727	 0.338213
C	 4.4917185628	-2.4758175426	 0.8508693209	-0.489234
O	 2.4624802715	-1.3695332639	 0.0330247996	-0.255483
H	 1.4024310072	 1.5590717846	 0.3887288023	 0.113469
H	 0.1060947316	 2.0475764658	-0.7148690631	 0.118633
H	-0.2320753302	 1.8429620952	 1.0173821359	 0.101603
H	 0.2272135071	-0.6134982539	 0.8201465451	 0.093292
H	-1.0942935568	-0.1142363676	-0.2373152989	 0.092256
H	 2.1697503071	-1.7898593033	-3.0809251837	 0.269609
H	 4.3676247461	-2.832957634	-2.1967091074	 0.143718
H	 4.8788231991	-1.5861679673	 1.3613601339	 0.141118
H	 3.9620852242	-3.0764617502	 1.5994184424	 0.141044
H	 5.3402694434	-3.0562610884	 0.4809529298	 0.134879
28.2633	98.5886	149.2959	169.525	182.611	224.2214	255.5145	332.6343	358.8501	422.3509	543.0708	593.6104	613.1287	719.9441	743.3317	753.2364	815.8742	887.8026	927.4675	964.336	1018.9207	1067.1796	1068.9325	1084.2749	1124.1228	1151.3752	1196.6326	1270.5071	1309.3186	1359.9447	1377.3673	1399.1227	1410.14	1422.5886	1466.6856	1489.1645	1493.9953	1495.1846	1513.1927	1732.8495	1804.8934	2996.0872	3027.3236	3031.721	3042.0377	3076.6087	3101.9387	3112.0558	3126.1081	3287.8196	3704.7924
CCN=C1NC=C(C)O1	CCN=c1[nH]cc(C)o1	
InChI=1S/C6H10N2O/c1-3-7-6-8-4-5(2)9-6/h4H,3H2,1-2H3,(H,7,8)	InChI=1S/C6H10N2O/c1-3-7-6-8-4-5(2)9-6/h4H,3H2,1-2H3,(H,7,8)
