19
gdb 57419	3.29735	1.11444	1.0392	5.0769	71.72	-0.2684	0.0194	0.2878	1228.6228	0.156476	-460.199352	-460.189788	-460.188844	-460.233555	35.52	
C	-0.2277207086	 1.398332305	-0.1830090371	-0.429848
C	 0.0255637101	-0.1042892824	-0.0088743944	 0.315943
C	 0.6724863379	-0.4125158497	 1.3504281162	-0.417236
O	-1.1941678549	-0.8339281604	-0.1475238907	-0.464349
C	 0.9388252294	-0.6135007855	-1.125530553	 0.141297
C	 0.8989258632	-2.1151002378	-1.4689408331	-0.439537
C	 0.3504811664	-1.6241253435	-2.8071330087	 0.454921
O	-0.0131751184	-2.0847514302	-3.839259226	-0.318516
O	 0.4175079111	-0.2954158694	-2.4612164166	-0.255324
H	 0.7040863636	 1.969503841	-0.1228964255	 0.119728
H	-0.693348478	 1.5902634909	-1.1515747314	 0.151909
H	-0.8905945426	 1.7647250196	 0.6095970315	 0.106606
H	 0.0143541872	-0.0822632974	 2.1608547615	 0.114118
H	 0.8361505117	-1.4876925076	 1.4661468374	 0.127947
H	 1.6310307383	 0.1031359699	 1.4682803044	 0.118579
H	-1.8628518816	-0.4104286359	 0.3992643837	 0.284082
H	 1.9394333941	-0.186797642	-1.0177135377	 0.09323
H	 1.8605794358	-2.624999341	-1.5397432039	 0.136122
H	 0.1896642453	-2.7075918138	-0.8925568167	 0.160326
80.1156	88.0854	189.0471	203.8274	227.1863	251.4555	294.6074	313.2325	351.0408	390.2447	468.1189	522.3385	544.9655	552.4208	728.364	778.3231	856.2547	919.6616	926.4855	964.7174	968.8659	996.7473	1014.3029	1051.0806	1117.7677	1132.1396	1162.9697	1203.8144	1221.9148	1228.5575	1305.8824	1347.1451	1395.7009	1403.3099	1418.9477	1447.2041	1480.7266	1482.9792	1499.4088	1511.1201	1944.2537	3030.6451	3036.3267	3079.9258	3096.0863	3099.7755	3105.779	3116.9702	3139.3549	3166.3742	3828.6453
CC(C)(O)C1CC(=O)O1	CC(C)(O)[C@H]1CC(=O)O1	
InChI=1S/C6H10O3/c1-6(2,8)4-3-5(7)9-4/h4,8H,3H2,1-2H3	InChI=1S/C6H10O3/c1-6(2,8)4-3-5(7)9-4/h4,8H,3H2,1-2H3/t4-/m1/s1
