22
gdb 32656	1.81353	1.71839	0.99348	2.0205	90.06	-0.1908	0.0469	0.2377	1286.1535	0.194917	-367.259252	-367.249673	-367.248729	-367.293945	35.747	
C	-0.2856397715	 1.5918319853	-0.1716846044	-0.374459
C	 0.1613209751	 0.1367456313	-0.0009180189	-0.159364
N	 0.7810272704	-0.418880715	-1.1939870067	-0.034638
C	 0.0787419848	-0.751222299	-2.3305802789	-0.107914
C	 0.9615595871	-1.2333601984	-3.2653680971	-0.165198
C	 2.251708926	-1.1953810642	-2.6734683826	-0.237735
C	 2.1235758698	-0.6905855251	-1.3954985075	 0.290157
C	 3.1909310204	-0.4530551011	-0.370830987	-0.299519
C	 3.6354205609	 1.0141747717	-0.2228039812	-0.372595
H	 0.5624086433	 2.2370914931	-0.417472474	 0.133847
H	-1.0204951656	 1.6822236985	-0.9766557434	 0.128078
H	-0.7444859863	 1.9582052071	 0.7522028665	 0.116897
H	 0.8741526627	 0.0542035669	 0.8224009162	 0.120688
H	-0.6996659057	-0.4876818751	 0.2646659207	 0.117195
H	-0.9920374345	-0.6233987014	-2.3666722203	 0.105634
H	 0.7084310409	-1.5834993146	-4.2543899993	 0.088765
H	 3.181158597	-1.5135203833	-3.1224148389	 0.084639
H	 2.8842456836	-0.840312059	 0.6101770027	 0.101763
H	 4.056842915	-1.0547699706	-0.6660717359	 0.112609
H	 3.9721618682	 1.4123168925	-1.1844871137	 0.124621
H	 2.8194422298	 1.6513615504	 0.1318863376	 0.116864
H	 4.4597584488	 1.1008528599	 0.4928733761	 0.109666
69.9642	84.4299	119.7874	160.6063	198.3744	220.1519	309.1457	336.1921	399.2994	447.2334	608.4328	626.0358	679.6194	692.4371	715.0791	772.0584	784.3436	795.7841	831.4928	899.0171	952.0768	976.7905	1028.4621	1065.8296	1080.7592	1090.383	1098.3478	1126.999	1195.3741	1248.7794	1278.6265	1313.5439	1319.0949	1358.1862	1388.8914	1404.084	1410.5376	1426.4725	1463.7165	1479.1989	1486.782	1487.8597	1497.721	1504.5141	1506.8145	1523.3024	1591.7629	3014.8306	3035.6719	3040.0252	3042.3369	3068.802	3100.871	3104.3629	3114.5516	3116.1147	3126.919	3233.3657	3244.0955	3262.1371
CCN1C=CC=C1CC	CCn1cccc1CC	
InChI=1S/C8H13N/c1-3-8-6-5-7-9(8)4-2/h5-7H,3-4H2,1-2H3	InChI=1S/C8H13N/c1-3-8-6-5-7-9(8)4-2/h5-7H,3-4H2,1-2H3
