21
gdb 120582	3.65069	0.77297	0.73062	4.8758	85.52	-0.2512	0.0264	0.2776	1654.4138	0.18067	-383.262302	-383.251993	-383.251049	-383.298	37.032	
C	-0.1740956605	 1.5133264004	 0.1463568526	-0.384349
C	-0.1543382684	 0.0031542667	-0.1010036637	-0.168553
C	 0.9141599653	-0.4089678957	-1.1154176014	-0.126071
N	 0.9120209633	-1.8609430093	-1.2778931175	-0.096967
C	 0.1170790423	-2.45220825	-2.3357097387	-0.274968
C	 1.6185003761	-2.479193768	-2.4088702413	 0.142099
C	 2.3530212631	-1.6750299905	-3.4704695099	-0.462423
C	 2.2980125608	-3.7130338117	-2.0505784461	 0.271889
N	 2.8530262437	-4.6950688816	-1.7974554029	-0.34179
H	 0.7877416402	 1.8653294589	 0.5353441757	 0.11873
H	-0.3810351627	 2.068311712	-0.7755876066	 0.11478
H	-0.9444938864	 1.7821647527	 0.8747259333	 0.120036
H	 0.028179873	-0.5360643349	 0.8347027483	 0.116662
H	-1.1355196511	-0.3288081259	-0.463031154	 0.101098
H	 0.743727054	 0.1292552095	-2.0625174281	 0.085222
H	 1.9053116954	-0.1153887489	-0.7495868709	 0.112353
H	-0.4393235457	-3.3494484054	-2.080739504	 0.13608
H	-0.3734888521	-1.7888404457	-3.0488011254	 0.116098
H	 1.7719651868	-0.8080034959	-3.7876853673	 0.130631
H	 3.3222490186	-1.3302588794	-3.0978407298	 0.143201
H	 2.5350626643	-2.3005965874	-4.3487995522	 0.146243
64.3264	81.7804	108.5717	159.117	179.1182	202.4849	236.0938	274.9405	317.7131	372.2087	408.8756	448.8537	570.9694	608.219	687.2138	760.8862	803.2115	869.7823	898.3827	907.9443	941.2981	989.7198	1048.1677	1074.9869	1092.9353	1126.0402	1131.1048	1172.198	1201.1298	1255.1086	1277.6677	1324.0001	1332.611	1362.5423	1401.3536	1413.8193	1418.5555	1483.2895	1488.0795	1494.2343	1498.948	1500.046	1506.1837	1515.2018	2355.8258	2962.8793	3030.0635	3032.0771	3050.9496	3053.5102	3074.1359	3083.7525	3100.0005	3108.7788	3115.7477	3142.7236	3184.5213
CCCN1CC1(C)C#N	CCCN1C[C@]1(C)C#N	
InChI=1S/C7H12N2/c1-3-4-9-6-7(9,2)5-8/h3-4,6H2,1-2H3	InChI=1S/C7H12N2/c1-3-4-9-6-7(9,2)5-8/h3-4,6H2,1-2H3/t7-,9?/m0/s1
