23
gdb 103084	2.09339	1.41199	1.18017	1.6044	82.49	-0.2205	0.0736	0.2941	1235.1436	0.201838	-425.402815	-425.391638	-425.390694	-425.438109	41.287	
C	 0.3232457426	 1.3034261113	 0.2145116484	-0.261866
O	-0.0248297737	-0.0354980395	-0.1137927842	-0.297752
C	 0.6326640722	-0.5577174826	-1.2516406613	 0.335659
C	 0.4162938949	 0.2296726742	-2.5243906341	-0.474575
C	 1.9409919937	-1.2463744131	-0.9108423513	 0.038887
O	 2.4447395503	-1.1563225815	 0.3888202434	-0.440199
C	 0.7136632975	-2.0863516558	-1.2367304265	 0.178949
C	 0.0218354782	-2.8488009334	-0.1202723143	-0.441937
C	 0.709532717	-2.8394592021	-2.5565424457	-0.457678
H	 1.4113031432	 1.4425391694	 0.2584921225	 0.125291
H	-0.0974559659	 2.0235689795	-0.4983543026	 0.118293
H	-0.1050581359	 1.5025100351	 1.2002541665	 0.127699
H	 0.8384638023	 1.2373027747	-2.4531347057	 0.119665
H	 0.8940121823	-0.2575630244	-3.375716589	 0.123982
H	-0.653467723	 0.3231662786	-2.7435051351	 0.123986
H	 2.7504415111	-1.2309541522	-1.6359163446	 0.092237
H	 1.7124502858	-0.862205583	 0.9442074402	 0.291281
H	-0.0541991467	-2.274324743	 0.8023455493	 0.119227
H	-0.9971513396	-3.1197156182	-0.4190503604	 0.113607
H	 0.5644381726	-3.7757908019	 0.0954457323	 0.116588
H	 1.0765998667	-3.8604342308	-2.4012661687	 0.11943
H	-0.3006681586	-2.9115651939	-2.9770245724	 0.116021
H	 1.3534864332	-2.3781803475	-3.3100041068	 0.113206
105.1688	128.5517	146.972	164.6142	181.3671	191.0997	219.7453	258.0018	273.6415	307.5121	338.9052	365.7494	399.6154	427.5335	478.1174	554.0992	613.5021	697.8175	731.3046	835.0499	920.9963	973.2157	987.4612	1015.5756	1040.6233	1071.8425	1111.6388	1129.0766	1170.8512	1174.4823	1180.7551	1214.5098	1225.6575	1265.9257	1303.8559	1364.7811	1405.9217	1412.5416	1424.8694	1457.2018	1472.2149	1480.0281	1486.4459	1489.8563	1493.215	1501.5498	1509.164	1514.7453	1519.3134	3005.3715	3023.7446	3033.9984	3036.5207	3065.6628	3082.0497	3088.235	3094.132	3105.8765	3113.7861	3135.5076	3143.998	3146.9692	3784.1228
COC1(C)C(O)C1(C)C	CO[C@@]1(C)[C@@H](O)C1(C)C	
InChI=1S/C7H14O2/c1-6(2)5(8)7(6,3)9-4/h5,8H,1-4H3	InChI=1S/C7H14O2/c1-6(2)5(8)7(6,3)9-4/h5,8H,1-4H3/t5-,7-/m0/s1
