19
gdb 54779	3.57311	1.26416	1.13706	2.4524	79.77	-0.2251	-0.0197	0.2054	1136.3265	0.159289	-385.873094	-385.865036	-385.864092	-385.906258	31.113	
C	 0.3939510365	 0.7322123272	 1.3200737379	-0.478627
C	 0.1082919691	-0.006318455	 0.0220258079	 0.34899
O	 0.846853896	 0.0824937979	-0.9348258514	-0.301113
C	-1.1664530093	-0.8285587995	 0.0095586468	-0.064327
C	-1.5239310861	-1.6227028604	-1.2963749575	-0.074251
C	-0.4789021244	-2.6921259683	-0.8207341101	-0.213851
C	-1.0730353499	-2.3125111322	 0.5763028795	-0.089049
C	-2.5342572593	-2.7447683979	 0.3820212586	-0.091401
C	-2.8265720308	-2.2973270938	-0.8429807284	-0.092847
H	 1.3910676912	 1.1727148485	 1.2849262118	 0.141163
H	-0.3468479643	 1.5280250132	 1.462434556	 0.14226
H	 0.3071170847	 0.0620806272	 2.1820074465	 0.13601
H	-1.9784631351	-0.2437770299	 0.4540888092	 0.07858
H	-1.470431686	-1.1552657893	-2.2774582969	 0.074176
H	-0.635003656	-3.7194692038	-1.1556514416	 0.093344
H	 0.55457467	-2.3760483876	-0.9692781115	 0.122618
H	-0.5736432562	-2.5447172112	 1.5171454869	 0.064199
H	-3.1408234869	-3.2839539765	 1.0956328818	 0.101899
H	-3.7433157032	-2.3677861684	-1.4107181558	 0.102227
47.8798	115.2772	157.2343	196.4798	334.6616	395.2163	490.0487	524.2032	574.9515	603.9552	697.674	726.9458	831.253	839.7172	862.389	890.2392	905.1181	911.4544	921.3009	950.6776	975.5864	1009.557	1034.4641	1061.4722	1084.778	1105.7522	1141.0545	1186.8234	1197.5817	1218.4325	1230.0743	1244.2897	1253.1252	1317.6777	1359.0052	1381.4405	1462.9657	1475.0149	1502.7496	1622.3544	1795.8839	3034.6271	3056.4251	3075.1725	3095.9837	3113.5676	3141.8356	3146.6654	3150.9713	3220.4732	3247.4773
CC(=O)C1C2CC1C=C2	CC(=O)[C@H]1[C@H]2C[C@@H]1C=C2	
InChI=1S/C8H10O/c1-5(9)8-6-2-3-7(8)4-6/h2-3,6-8H,4H2,1H3	InChI=1S/C8H10O/c1-5(9)8-6-2-3-7(8)4-6/h2-3,6-8H,4H2,1H3/t6-,7+,8+
