18
gdb 72692	2.27239	1.51758	1.46944	1.7873	73.48	-0.2303	-0.0349	0.1954	1024.8014	0.146566	-439.052727	-439.044209	-439.043265	-439.086011	32.26	
O	-0.112142536	 1.3509718391	-0.3337154666	-0.457148
C	-0.051447068	-0.0062198059	-0.0743929657	 0.359237
C	 0.6264634771	-0.9492757428	-1.10006424	-0.29655
C	-0.6283468173	-1.8743090207	-1.1180172054	-0.250658
C	-1.3024844435	-1.0365207647	-0.0118402647	 0.175311
N	-0.860383094	-1.4179758899	 1.3489001883	-0.373525
C	 0.1546901896	-0.3298749438	 1.4133091237	-0.204666
C	-2.6893698777	-0.540238486	-0.1993315133	 0.065011
O	-3.2526283186	-0.4718034749	-1.2667630944	-0.26456
H	-0.2065910125	 1.4861983897	-1.2831234362	 0.290782
H	 0.8280151022	-0.4574892204	-2.0571301165	 0.100091
H	 1.5571224383	-1.403170775	-0.7499124532	 0.113892
H	-1.1877240014	-1.8180666736	-2.0540387697	 0.125349
H	-0.4620815383	-2.9158022463	-0.8418433104	 0.112626
H	-1.589628051	-1.3356573765	 2.0502219268	 0.220272
H	 1.1530290998	-0.663938289	 1.7172695185	 0.106076
H	-0.1389990574	 0.5292481893	 2.0275471754	 0.113168
H	-3.1810714814	-0.1745064185	 0.7341035233	 0.065294
75.4971	84.4055	191.0438	237.735	275.4952	340.9115	360.5346	402.2973	461.258	500.0449	620.9295	635.9694	705.9111	734.5971	778.317	848.0513	908.2365	939.1621	952.5538	1012.9396	1027.0419	1061.2628	1066.9335	1098.583	1130.8626	1189.7321	1221.2203	1230.2702	1251.0397	1259.0211	1307.4831	1323.2916	1382.5832	1415.5572	1418.7228	1462.7839	1478.8694	1509.6415	1796.8668	2841.1294	3025.168	3048.6101	3074.5286	3080.2732	3102.2589	3145.9289	3515.3515	3804.2573
OC12CCC1(NC2)C=O	O[C@]12CC[C@]1(NC2)C=O	
InChI=1S/C6H9NO2/c8-4-5-1-2-6(5,9)3-7-5/h4,7,9H,1-3H2	InChI=1S/C6H9NO2/c8-4-5-1-2-6(5,9)3-7-5/h4,7,9H,1-3H2/t5-,6-/m0/s1
