22
gdb 59231	2.40166	1.47369	1.07617	2.0168	81.62	-0.2328	0.0613	0.2942	1209.9817	0.193376	-404.303364	-404.293807	-404.292863	-404.337357	36.425	
C	-0.0025832603	 1.5908711982	-0.0236003534	-0.397954
C	 0.0238945301	 0.0577850202	-0.1186394978	 0.024533
C	 0.8269048536	-0.4195900308	-1.3366700376	-0.392636
C	 0.6065558825	-0.5373845597	 1.1605457513	 0.043306
C	-0.1834711611	-0.4898042006	 2.5007608801	 0.061436
O	-1.4857360776	 0.0500592067	 2.3899810876	-0.42538
C	-0.0426204188	-2.0118111497	 2.5396260292	-0.068824
C	-0.6122561082	-2.6077246844	 1.3172039403	-0.245963
N	 0.7479228362	-2.0443172195	 1.2395803477	-0.143659
H	 1.0107434677	 1.9942953642	 0.0938114173	 0.105501
H	-0.4269334587	 2.0271408655	-0.9338332202	 0.10766
H	-0.6060854084	 1.9204846296	 0.8257314165	 0.131939
H	-1.0117341771	-0.282394016	-0.2296650171	 0.08252
H	 1.8612497205	-0.058599386	-1.2882109771	 0.110016
H	 0.8602710407	-1.5112703606	-1.3903899982	 0.129421
H	 0.3858609149	-0.0418898205	-2.2649006898	 0.106032
H	 1.6125443677	-0.1296672994	 1.3089433172	 0.079346
H	 0.3803577605	 0.0073406343	 3.2997871174	 0.073063
H	-1.9386049941	-0.0704010465	 3.231177492	 0.283924
H	 0.2611979666	-2.5991539525	 3.4004963883	 0.089286
H	-0.6140018731	-3.6908751227	 1.2461589154	 0.118836
H	-1.4429017636	-2.11550874	 0.8213938309	 0.127597
77.5839	135.6186	163.0257	214.1844	226.0397	247.7611	259.6896	308.5747	317.9744	420.8342	475.758	527.6566	593.5481	752.6755	765.7982	784.9809	821.6977	894.0419	932.2061	955.1977	957.6469	982.4238	1002.8924	1035.3765	1059.5933	1104.4715	1114.0708	1129.0112	1153.3543	1161.715	1193.3918	1217.8539	1238.9885	1291.4168	1313.5938	1317.9745	1338.9456	1368.6518	1396.0706	1399.9094	1418.3719	1421.3351	1490.3242	1491.2688	1498.6126	1504.8439	1516.3574	3018.4753	3025.5202	3029.1559	3038.1988	3052.4212	3088.3102	3096.1314	3113.5216	3123.028	3124.2388	3158.7288	3210.7955	3810.5402
CC(C)C1C(O)C2CN12	CC(C)[C@H]1[C@@H](O)[C@H]2CN12	
InChI=1S/C7H13NO/c1-4(2)6-7(9)5-3-8(5)6/h4-7,9H,3H2,1-2H3	InChI=1S/C7H13NO/c1-4(2)6-7(9)5-3-8(5)6/h4-7,9H,3H2,1-2H3/t5-,6+,7+,8?/m1/s1
