18
gdb 35740	2.91916	1.3007	1.14729	3.7847	75.37	-0.2475	0.0274	0.2749	1121.6812	0.150196	-398.112586	-398.104501	-398.103557	-398.146126	30.526	
N	 0.5787858775	-1.0957096824	 0.1548132173	-0.324693
C	 0.2666599541	 0.0174453802	 0.1225408902	 0.260378
C	-0.0869949092	 1.454507176	 0.0472445434	-0.141213
C	-0.7373072577	 1.9527075178	 1.3549349783	-0.289689
C	 0.4694382233	 2.2990193091	 2.2284087298	 0.354021
C	 0.3144497178	 3.00968442	 3.5183269991	-0.295971
N	 0.7451892686	 1.5997737313	 3.4889953861	-0.345295
C	 1.6602032471	 2.4821832121	 1.2796415803	-0.230818
N	 1.069464548	 2.342944211	-0.0636827313	-0.29771
H	-0.7492164644	 1.5839698601	-0.8147547358	 0.125121
H	-1.317687395	 2.8499294706	 1.1211730695	 0.12617
H	-1.4030153438	 1.2166431327	 1.8112345413	 0.119655
H	 1.0745703384	 3.7131346013	 3.8486826731	 0.121694
H	-0.6930742446	 3.2463127785	 3.8542078261	 0.111898
H	-0.0274912038	 0.9873195407	 3.7392414094	 0.232968
H	 2.1301979732	 3.4664286169	 1.3733136002	 0.112417
H	 2.4134448131	 1.7174448066	 1.5127599633	 0.124541
H	 1.7388685875	 2.0257704575	-0.7548467803	 0.236527
31.8807	108.5343	179.2442	275.0312	306.005	372.7553	413.4883	441.6688	497.2246	587.2613	680.9832	759.5652	823.0528	829.1076	833.1247	910.9744	940.9588	960.4696	963.9953	997.7721	1026.0765	1065.0748	1100.7462	1115.5362	1138.6499	1197.7438	1219.7206	1228.2465	1263.0842	1297.5483	1304.708	1344.7347	1357.9534	1403.746	1450.7219	1477.1636	1515.5495	1521.471	2341.3758	3011.702	3056.0708	3065.1051	3067.6326	3097.3391	3115.4752	3181.347	3496.0532	3554.7624
N#CC1CC2(CN2)CN1	N#C[C@H]1C[C@]2(CN2)CN1	
InChI=1S/C6H9N3/c7-2-5-1-6(3-8-5)4-9-6/h5,8-9H,1,3-4H2	InChI=1S/C6H9N3/c7-2-5-1-6(3-8-5)4-9-6/h5,8-9H,1,3-4H2/t5-,6-/m1/s1
