16
gdb 35094	3.08387	1.49366	1.17195	3.7029	72.72	-0.2593	-0.0168	0.2425	1030.0333	0.126389	-400.74821	-400.741002	-400.740058	-400.780241	27.335	
N	-0.477089109	-1.0835573959	-0.7037202968	-0.326758
C	-0.2971604854	 0.0123955499	-0.383316264	 0.272739
C	-0.0673145788	 1.4012808762	 0.0233238271	-0.206287
C	-0.4956625875	 1.6865574198	 1.4593852751	-0.068957
C	 0.4408124317	 2.3266202397	 2.1556216673	-0.086446
C	 1.692933444	 2.5539895842	 1.3523690556	 0.086259
O	 2.7693339952	 1.6463927314	 1.6907940401	-0.290343
C	 2.4822121871	 0.8226435878	 0.5365387853	-0.08871
C	 1.4262651847	 1.8225984131	 0.0133447103	-0.101887
H	-0.6406561241	 2.0289163929	-0.6727048552	 0.136082
H	-1.4727838723	 1.38993567	 1.8218922781	 0.125933
H	 0.3453257064	 2.6387564544	 3.1890046532	 0.117979
H	 2.0403937095	 3.5926889818	 1.3453834377	 0.088864
H	 3.3669890123	 0.6953998232	-0.0953310973	 0.115562
H	 2.0932974818	-0.1643285436	 0.8130886652	 0.1269
H	 1.7085992646	 2.339160665	-0.9023611616	 0.099069
83.9634	141.929	184.5544	278.4069	361.0859	465.7243	504.7373	571.4169	671.4626	731.5774	773.9775	817.528	866.9465	898.9644	930.2472	972.1014	988.535	1010.9772	1012.2027	1037.0447	1063.7836	1097.1034	1142.2933	1164.4101	1214.1322	1248.348	1273.0906	1304.3736	1321.4145	1331.9864	1358.4054	1376.1803	1520.1822	1679.2848	2355.497	3013.9108	3032.2448	3051.6883	3080.6329	3127.5032	3197.4934	3221.0097
N#CC1C=CC2OCC12	N#C[C@H]1C=C[C@H]2OC[C@@H]12	
InChI=1S/C7H7NO/c8-3-5-1-2-7-6(5)4-9-7/h1-2,5-7H,4H2	InChI=1S/C7H7NO/c8-3-5-1-2-7-6(5)4-9-7/h1-2,5-7H,4H2/t5-,6+,7-/m1/s1
