16
gdb 34570	4.50402	1.17018	1.06263	1.3967	78.2	-0.243	-0.0317	0.2114	1138.3411	0.124836	-400.717473	-400.709974	-400.70903	-400.749845	28.656	
C	 0.008231679	-1.1943451632	-0.1490811164	-0.358989
C	-0.0453661242	 0.0029653356	-0.0682287344	 0.275336
C	-0.0976171111	 1.4227770003	 0.0306072685	 0.244567
N	-1.140532967	 2.1361162338	-0.1484905053	-0.319429
C	-0.7273158591	 3.5272136061	 0.0491159125	-0.023773
C	-1.059586976	 4.1022547811	 1.4557878505	-0.224153
C	 0.4302274336	 3.8992438884	 1.8826641978	-0.245521
C	 0.7771167154	 3.4328121953	 0.4485037495	 0.077852
O	 1.0906062	 2.0307785642	 0.3336863462	-0.263839
H	 0.0467285139	-2.253428035	-0.2243151911	 0.20716
H	-1.0252319875	 4.1361861409	-0.8078272063	 0.08529
H	-1.3744279225	 5.1481837881	 1.4348476628	 0.107532
H	-1.8003210435	 3.5218519065	 2.0084628391	 0.117985
H	 0.9499920363	 4.8043754019	 2.2044833026	 0.109479
H	 0.595824008	 3.1196192637	 2.6292036937	 0.11948
H	 1.5366636047	 3.9950462523	-0.0955445099	 0.091023
77.7968	108.6257	159.9027	294.8528	380.3568	459.6976	527.1913	584.6728	654.2836	664.363	670.5978	719.8405	740.6798	779.5445	853.3855	910.251	914.5604	934.638	951.081	1011.7606	1057.5919	1109.2435	1130.4723	1187.8379	1223.0462	1233.1752	1256.81	1280.0247	1291.4128	1314.4795	1357.6305	1467.5371	1484.6169	1671.6637	2251.6977	3067.8284	3071.4951	3078.244	3106.6286	3119.5899	3136.6714	3501.0692
C#CC1=NC2CCC2O1	C#CC1=N[C@H]2CC[C@H]2O1	
InChI=1S/C7H7NO/c1-2-7-8-5-3-4-6(5)9-7/h1,5-6H,3-4H2	InChI=1S/C7H7NO/c1-2-7-8-5-3-4-6(5)9-7/h1,5-6H,3-4H2/t5-,6+/m0/s1
