16
gdb 43686	2.46678	1.47996	1.18597	3.9249	76.35	-0.245	-0.0375	0.2075	1077.8418	0.125235	-400.757004	-400.749038	-400.748094	-400.789653	30.446	
O	-0.0131449408	-0.0153482315	-0.2628651777	-0.371832
C	 0.012923608	 1.1798222525	-0.0336235701	 0.389224
N	-1.1462670723	 1.9138802789	 0.1466385273	-0.312846
C	-1.170472648	 3.3721805219	 0.0100001694	-0.195944
C	 0.0169949645	 3.9726673344	 0.7914877607	-0.259814
C	 1.288293614	 3.2163955063	 0.5256993136	-0.070284
C	 1.2750077833	 1.9403727831	 0.1368945718	-0.121891
C	-1.1779823094	 3.8058228982	-1.3958486791	 0.357487
C	-1.2065189206	 4.1542395632	-2.5456857778	-0.476241
H	-1.9754284526	 1.4166583438	-0.14924066	 0.249367
H	-2.0977016475	 3.7256646188	 0.4750838314	 0.121239
H	 0.1247275464	 5.0277350042	 0.5256000472	 0.129095
H	-0.2092100002	 3.9365111009	 1.8661042325	 0.130137
H	 2.2288583448	 3.7348777182	 0.6917229195	 0.11062
H	 2.1786425145	 1.3694835507	-0.0404707682	 0.116077
H	-1.2273652342	 4.4540348762	-3.5645399606	 0.205606
84.9587	104.7567	195.9642	271.1885	320.5982	402.6612	446.1145	485.4351	569.2783	601.7592	626.2767	640.6258	661.0139	668.5182	794.6027	816.0188	843.1636	914.2596	965.4271	978.8557	1014.8198	1051.8601	1124.2976	1154.8045	1228.9409	1269.4099	1317.9374	1357.5299	1387.5849	1415.4976	1452.7227	1465.9651	1695.7412	1786.7118	2232.0355	3017.4721	3041.3339	3092.2106	3164.5914	3212.3412	3501.3101	3595.2347
O=C1NC(CC=C1)C#C	O=C1N[C@@H](CC=C1)C#C	
InChI=1S/C7H7NO/c1-2-6-4-3-5-7(9)8-6/h1,3,5-6H,4H2,(H,8,9)	InChI=1S/C7H7NO/c1-2-6-4-3-5-7(9)8-6/h1,3,5-6H,4H2,(H,8,9)/t6-/m1/s1
