16
gdb 47066	3.17397	1.5514	1.27958	3.5978	64.24	-0.2602	0.0411	0.3013	980.2158	0.126964	-475.047082	-475.039969	-475.039025	-475.079014	27.032	
O	 0.1288135354	 0.0043483642	 0.0801046061	-0.374486
C	 0.0437861216	 1.1970473962	-0.0482950468	 0.440081
N	-1.0071008055	 1.9593278017	 0.3971790156	-0.358143
C	-1.3339615363	 3.2550443398	-0.1837216674	-0.192986
C	-0.0882335433	 4.1202810822	-0.211870212	 0.112421
O	 0.346307755	 4.5303635513	 1.0994688647	-0.289174
C	 1.5387920925	 3.7176363678	 1.0251331161	-0.100086
C	 1.1956211973	 3.2864426551	-0.4166673106	 0.058972
O	 1.0389871459	 1.9001360408	-0.6742259168	-0.247414
H	-1.7628239268	 1.3989561457	 0.7599637031	 0.26179
H	-1.7311545209	 3.160743439	-1.2062852122	 0.115553
H	-2.0978102356	 3.7362525783	 0.4333015595	 0.133451
H	-0.2254652185	 4.9777217649	-0.880464499	 0.087083
H	 2.4513000952	 4.312488606	 1.1414077121	 0.113063
H	 1.5342403037	 2.9008946892	 1.7555694019	 0.126972
H	 1.8804216203	 3.6454938877	-1.1838302042	 0.112904
90.3175	127.4673	202.6764	325.8486	397.0245	448.5867	513.2198	567.8012	601.1679	749.9339	774.9041	790.9452	849.8053	879.8686	898.2523	976.2027	993.6168	1018.9234	1061.7918	1091.5089	1116.3778	1149.7492	1176.2414	1240.6598	1257.1628	1282.2232	1297.2958	1338.5519	1361.2003	1400.1476	1418.8161	1463.7788	1499.0749	1513.7618	1859.2413	2987.2313	3030.7843	3047.1261	3081.7176	3091.9733	3124.6862	3633.0607
O=C1NCC2OCC2O1	O=C1NC[C@H]2OC[C@H]2O1	
InChI=1S/C5H7NO3/c7-5-6-1-3-4(9-5)2-8-3/h3-4H,1-2H2,(H,6,7)	InChI=1S/C5H7NO3/c7-5-6-1-3-4(9-5)2-8-3/h3-4H,1-2H2,(H,6,7)/t3-,4-/m1/s1
