20
gdb 69950	3.53914	1.44198	1.24393	2.7859	77.29	-0.2381	0.0616	0.2997	1067.764	0.173097	-403.120435	-403.112786	-403.111842	-403.152399	30.515	
C	 0.1410664657	 1.5126626153	-0.1096052511	-0.462883
C	-0.0833392383	 0.0310968576	 0.0700767701	 0.337154
C	-1.4990905921	-0.5175705373	-0.1355167605	-0.318248
C	-1.6417670209	-1.7592363736	 0.7709324305	-0.067243
C	-1.3255051446	-3.154514813	 0.1981892405	-0.09289
O	-0.0456354012	-3.197130561	 0.8676782876	-0.294841
C	-0.2989750286	-1.927036225	 1.5330887366	 0.100998
C	 0.6226190861	-0.7998145963	 1.1017135716	-0.089388
N	 1.0445247669	-0.8279282689	-0.30475393	-0.362349
H	 1.1881417068	 1.7640306532	 0.0749755599	 0.130703
H	-0.1004014039	 1.8219865423	-1.1332648715	 0.11914
H	-0.4879465282	 2.0942343751	 0.5735708444	 0.111225
H	-2.2281765343	 0.2486607936	 0.149158661	 0.104682
H	-1.6902862066	-0.750785382	-1.1907698521	 0.105073
H	-2.5446182785	-1.7196220833	 1.3811371854	 0.083144
H	-1.9866957509	-3.9579570654	 0.5458160728	 0.103562
H	-1.2261300206	-3.2249752439	-0.8931585174	 0.098041
H	-0.3335301438	-2.0525828481	 2.6200983833	 0.075307
H	 1.3419460873	-0.3915532469	 1.806050603	 0.083967
H	 0.7566504996	-1.7131707724	-0.7178647742	 0.234846
102.9031	159.915	208.9246	271.3981	330.1769	383.735	399.7787	534.5363	579.2349	679.672	711.2605	788.4431	831.6727	836.4739	891.2139	902.3862	918.4098	959.6355	985.2294	1011.5569	1030.3738	1045.1795	1074.5452	1103.7807	1114.5657	1115.3494	1160.5925	1166.8078	1215.6826	1226.3383	1257.0971	1286.9575	1306.6648	1317.8983	1335.6137	1348.3957	1363.6552	1409.9107	1437.0687	1486.9683	1487.8356	1498.4948	1526.6493	3005.4532	3025.8565	3030.2821	3048.5867	3054.4218	3065.6181	3087.7602	3104.4406	3124.0283	3146.8407	3484.4797
CC12CC3COC3C1N2	C[C@]12C[C@H]3CO[C@H]3[C@H]1N2	
InChI=1S/C7H11NO/c1-7-2-4-3-9-5(4)6(7)8-7/h4-6,8H,2-3H2,1H3	InChI=1S/C7H11NO/c1-7-2-4-3-9-5(4)6(7)8-7/h4-6,8H,2-3H2,1H3/t4-,5+,6+,7-/m0/s1
