21
gdb 119360	4.83999	0.78382	0.76569	1.2101	79.5	-0.2569	0.0771	0.334	1535.1432	0.181759	-424.174823	-424.165534	-424.16459	-424.2091	35.383	
O	-0.1317615648	 1.4254382702	 0.0258407414	-0.418653
C	 0.0186097088	 0.0136184675	 0.0100748747	-0.074376
C	-1.3776729572	-0.5995932908	 0.0049760185	-0.315409
C	-1.3730199101	-2.1056348085	-0.0111924196	 0.347162
C	-0.7489953435	-3.0735016162	 1.0510436205	-0.28928
C	-1.3931447564	-3.9775839826	-0.0195639411	 0.395297
O	-1.3636349472	-5.357631347	 0.0483698513	-0.469249
C	-2.6301685962	-3.0284200657	 0.0007124345	-0.335457
C	-0.7732867485	-3.047081748	-1.1063371332	-0.323798
H	 0.7444777454	 1.8210498555	 0.0362209485	 0.285026
H	 0.5744417905	-0.318788897	-0.8812190624	 0.088015
H	 0.5758674863	-0.3384731333	 0.8927739313	 0.089114
H	-1.9175465103	-0.2396986586	 0.8893947963	 0.108008
H	-1.9206398138	-0.2200569696	-0.8693770044	 0.106705
H	 0.3422198979	-3.0990089152	 1.1171155943	 0.089678
H	-1.2152630326	-3.0783806342	 2.0402465984	 0.091453
H	-1.8260136736	-5.7100757399	-0.719606154	 0.281163
H	-3.2313082021	-3.0242113702	 0.9143735879	 0.091201
H	-3.2559263582	-3.0072636875	-0.8973639173	 0.081592
H	-1.265248847	-3.0288043376	-2.0842375493	 0.081913
H	 0.3159293825	-3.0672933112	-1.2018223762	 0.089895
74.7485	85.8285	113.9724	245.8844	262.8764	265.5302	316.3625	339.6827	408.4261	431.6551	550.3777	554.679	638.1999	697.9471	749.9638	791.2347	812.6749	937.067	957.9439	981.9147	992.493	1004.676	1047.7397	1077.5241	1082.3276	1108.1057	1117.4829	1130.9697	1139.1617	1150.9203	1168.8298	1183.789	1246.0913	1252.3856	1295.1021	1311.6541	1319.5408	1362.8477	1388.0597	1462.0283	1485.8655	1493.0482	1495.5428	1528.4856	1564.0339	2966.6157	2993.1716	3028.7392	3036.4806	3040.8578	3051.8439	3069.7221	3104.4895	3109.9857	3114.6008	3809.7803	3831.0161
OCCC12CC(O)(C1)C2	OCC[C@@]12C[C@@](O)(C1)C2	
InChI=1S/C7H12O2/c8-2-1-6-3-7(9,4-6)5-6/h8-9H,1-5H2	InChI=1S/C7H12O2/c8-2-1-6-3-7(9,4-6)5-6/h8-9H,1-5H2/t6-,7-
