20
gdb 106172	3.1497	1.36236	1.33409	0.8479	77.49	-0.2288	0.0834	0.3122	1086.288	0.172351	-403.107238	-403.099335	-403.09839	-403.139804	30.858	
C	 0.3717382841	 1.4677601475	 0.284076666	-0.383658
C	-0.1461722062	 0.0800311221	-0.1157161659	-0.324858
C	 0.4818145628	-0.4496244951	-1.3686855905	 0.361998
C	 0.7495873692	-1.8434563616	-1.7590187279	-0.120251
C	 0.3049805848	-2.0584922455	-3.1975160251	-0.108891
O	-0.0542412799	-0.7571288437	-3.6793470753	-0.264337
C	 0.5638529315	 0.1646849902	-2.7953504561	 0.017907
C	 2.0873415679	-0.0785912528	-2.6980821485	-0.181102
N	 1.9131282628	-0.9394821236	-1.4767208778	-0.198084
H	 1.4546811125	 1.4445131066	 0.4393872583	 0.132998
H	 0.1565514865	 2.2126981643	-0.4894059974	 0.115834
H	-0.0972048313	 1.8084969164	 1.2117927102	 0.115214
H	 0.0467744859	-0.6320178842	 0.6953981025	 0.109669
H	-1.2356363922	 0.1100788083	-0.2513919838	 0.107331
H	 0.6628497183	-2.6542218142	-1.0442281545	 0.101391
H	 1.0953960331	-2.497047617	-3.822228613	 0.105716
H	-0.5724785702	-2.712815678	-3.2516017376	 0.112197
H	 0.185122021	 1.1639770577	-3.0071243318	 0.08614
H	 2.5674147666	-0.5584998638	-3.5575481979	 0.103795
H	 2.655070583	 0.8107413259	-2.4135024639	 0.11099
67.2963	144.8679	193.8397	261.1819	280.8565	350.6483	434.474	477.1479	602.1962	665.3888	692.5211	768.1197	777.262	851.2941	860.1405	901.9109	935.9611	943.3351	976.5795	988.2876	1021.6741	1062.6753	1092.621	1098.5995	1110.6073	1126.6452	1177.3248	1193.5154	1217.203	1234.9085	1266.8589	1290.3949	1308.2276	1337.3469	1352.5858	1377.5123	1406.6141	1453.5672	1469.8612	1496.2224	1498.1876	1507.5887	1523.0085	3005.6156	3019.4146	3036.5231	3045.8717	3058.1271	3059.3096	3104.9799	3105.7369	3114.0219	3126.765	3179.7183
CCC12C3COC1CN23	CC[C@@]12[C@H]3CO[C@@H]1CN23	
InChI=1S/C7H11NO/c1-2-7-5-4-9-6(7)3-8(5)7/h5-6H,2-4H2,1H3	InChI=1S/C7H11NO/c1-2-7-5-4-9-6(7)3-8(5)7/h5-6H,2-4H2,1H3/t5-,6-,7-,8?/m1/s1
