21
gdb 38717	2.57311	1.99718	1.54724	1.4849	80.89	-0.239	0.078	0.317	959.2314	0.186387	-387.087478	-387.080573	-387.079629	-387.118185	29.84	
C	-0.029925379	 1.4939122459	-0.1047422682	-0.386153
C	 1.3566001412	 0.8665301375	-0.0050786411	-0.073614
C	 2.1475643517	 0.2483972294	-1.1618927819	-0.247407
C	 1.3808563929	-1.086506804	-1.3546135729	 0.087309
C	 1.6510938635	-2.2059857593	-0.3240882133	-0.201866
C	 1.250903971	-1.8434926427	 1.1341193858	-0.195836
C	-0.0254101509	-0.9579207132	 1.2309962582	-0.285703
C	 0.1069824465	 0.0199867952	 0.0938346912	 0.425453
O	 0.0242441571	-0.6707653261	-1.1463516092	-0.295716
H	-0.320719005	 2.1273725289	 0.7280707021	 0.11054
H	-0.4160436297	 1.802027492	-1.0706949046	 0.119792
H	 1.8989759684	 1.0920244684	 0.9066235772	 0.087328
H	 2.113522678	 0.8357252073	-2.0856326886	 0.103167
H	 3.1992280144	 0.1104972249	-0.8928380904	 0.096882
H	 1.4642786774	-1.4838428008	-2.3713886027	 0.069335
H	 1.0545365743	-3.0645505971	-0.6536462312	 0.105631
H	 2.7007891232	-2.5221437779	-0.3530435177	 0.091044
H	 1.1315269886	-2.7646782716	 1.7145729147	 0.092092
H	 2.0732063737	-1.2906560653	 1.6024109096	 0.099167
H	-0.9386952419	-1.5516135527	 1.1151533206	 0.104477
H	-0.0693859153	-0.4632963688	 2.2069377825	 0.094078
199.3665	240.1992	321.6154	347.1954	382.3763	457.0833	472.1224	567.9898	637.6586	717.8257	770.8312	790.272	831.4943	845.6078	872.8507	887.3537	891.5036	909.8443	955.5475	971.2362	1008.4314	1035.7361	1045.5323	1077.3582	1084.9469	1097.2393	1112.7302	1148.2679	1199.9575	1210.1937	1239.8181	1257.1612	1286.3956	1293.3993	1338.0448	1348.0114	1358.6978	1366.4627	1382.799	1412.833	1472.2576	1475.3262	1478.8045	1487.8727	1501.0194	3027.1085	3034.2981	3039.6814	3041.7866	3062.622	3064.4204	3075.8532	3088.4495	3090.9382	3121.9866	3164.3107	3213.8103
C1C2CC3CCCC12O3	C1[C@@H]2C[C@H]3CCC[C@@]12O3	
InChI=1S/C8H12O/c1-2-7-4-6-5-8(6,3-1)9-7/h6-7H,1-5H2	InChI=1S/C8H12O/c1-2-7-4-6-5-8(6,3-1)9-7/h6-7H,1-5H2/t6-,7+,8+/m0/s1
