14
gdb 128083	4.59425	1.11933	0.9052	4.2775	65.24	-0.2878	-0.0544	0.2334	1207.5871	0.102052	-466.201051	-466.192996	-466.192052	-466.23472	27.526	
C	 0.0769835519	 1.4343517673	 0.0508731485	-0.337445
N	-0.0823540369	-0.007898569	 0.0945106087	-0.361124
C	-1.2725108578	-0.5988430864	-0.1028182884	 0.552243
O	-2.3410790743	-0.0848231425	-0.333655057	-0.375014
N	-1.1858533358	-2.0393610522	-0.0122353151	-0.077526
C	-2.1770611813	-2.944157214	-0.1553797765	 0.098055
N	-1.6792594117	-4.1469309487	 0.0016417983	-0.230113
N	-0.3467987746	-3.9669584609	 0.2473054212	-0.079527
N	-0.0397421362	-2.7188913873	 0.2419330733	-0.135521
H	 0.777821009	 1.7243300627	-0.7380715271	 0.143984
H	-0.8982882849	 1.8742365851	-0.1577785622	 0.177459
H	 0.4444448538	 1.8139868058	 1.0092775151	 0.143983
H	 0.7097296975	-0.6071478074	 0.276773136	 0.284537
H	-3.1982403586	-2.6758395627	-0.3645228849	 0.19601
75.2543	85.8717	113.3799	169.1842	209.8946	311.7747	406.2488	504.4955	575.9563	658.1412	730.1051	761.4571	818.3579	904.1711	976.5986	1005.8259	1049.2336	1097.2422	1156.2785	1162.3338	1188.8328	1213.3755	1250.394	1347.297	1429.4186	1449.7622	1496.0853	1496.8456	1500.3804	1579.9289	1847.555	3042.1473	3100.7702	3161.5231	3308.2849	3611.3486
CNC(=O)N1C=NN=N1	CNC(=O)n1cnnn1	
InChI=1S/C3H5N5O/c1-4-3(9)8-2-5-6-7-8/h2H,1H3,(H,4,9)	InChI=1S/C3H5N5O/c1-4-3(9)8-2-5-6-7-8/h2H,1H3,(H,4,9)
