20
gdb 116040	2.05308	1.74289	1.14075	2.9704	76.07	-0.2438	0.0265	0.2703	1146.333	0.171095	-440.287404	-440.278319	-440.277375	-440.32148	33.243	
C	 0.0007452295	 1.4224206274	-0.1429262744	-0.236869
O	 0.0026282453	 0.0340164784	 0.0946191543	-0.23856
C	-1.2714412508	-0.5818255487	 0.0555288675	 0.072076
C	-1.7527615133	-0.7889563545	-1.3812694661	-0.091555
O	-0.9003713995	-1.6919026718	-2.0933253341	-0.224087
C	-0.3774914769	-2.708367324	-1.3643204143	 0.139305
N	-0.4577938451	-2.9325246576	-0.1248094221	-0.279667
C	-1.160385503	-1.9629631093	 0.7235143077	 0.039561
C	-0.4841128538	-1.9088160351	 2.0934982714	-0.388022
H	 1.0246426586	 1.7730730872	 0.0065373009	 0.133901
H	-0.3056193127	 1.6804811061	-1.1673224673	 0.108182
H	-0.6622517567	 1.9520345179	 0.5591319706	 0.105366
H	-2.0085863656	 0.0377952243	 0.5927164577	 0.067515
H	-2.7765566689	-1.1854313877	-1.3768706823	 0.111038
H	-1.750914404	 0.1392227005	-1.9569906641	 0.117001
H	 0.1767492285	-3.3780992718	-2.0195349694	 0.123086
H	-2.1864870018	-2.3313379493	 0.8651142347	 0.084483
H	 0.5360030213	-1.5329398835	 1.9981772284	 0.136927
H	-1.035000067	-1.2517813507	 2.7751091606	 0.098992
H	-0.449233074	-2.9126334777	 2.52341323	 0.121327
69.3766	96.6679	146.5152	196.8296	230.7543	245.7308	308.104	339.2851	403.0257	426.1436	516.3676	632.9112	697.1834	790.5915	854.8461	874.179	912.8348	961.3911	966.3397	1006.9632	1039.6423	1084.4481	1126.0054	1149.0811	1160.8019	1182.7666	1199.9284	1221.6664	1271.7075	1311.3148	1336.7808	1354.7433	1382.8619	1397.7077	1402.9002	1418.716	1479.2391	1486.3676	1487.7481	1499.0407	1506.8998	1511.0487	1736.9226	2964.2721	2977.5369	2998.5064	3024.3665	3029.6805	3044.6266	3102.9995	3116.3482	3116.9838	3144.6683	3157.5168
COC1COC=NC1C	CO[C@H]1COC=N[C@H]1C	
InChI=1S/C6H11NO2/c1-5-6(8-2)3-9-4-7-5/h4-6H,3H2,1-2H3	InChI=1S/C6H11NO2/c1-5-6(8-2)3-9-4-7-5/h4-6H,3H2,1-2H3/t5-,6-/m0/s1
