19
gdb 64344	2.45131	1.49753	1.18318	3.7428	71.99	-0.2517	0.0115	0.2633	1117.0905	0.158156	-460.205845	-460.197011	-460.196067	-460.239166	33.459	
C	 0.0279675387	 1.4572216448	 0.1445348811	-0.417191
C	-0.1053159084	-0.0498016007	-0.0510069137	 0.336543
C	-1.5634717163	-0.4806918335	-0.2200647845	-0.410104
C	 0.7616721802	-0.5388401138	-1.2114476187	-0.115662
O	 0.7903422471	-1.950783314	-1.2417249811	-0.24002
C	 1.443267421	-2.4589648885	-0.0987857127	-0.219914
C	 1.0591849298	-1.8080515251	 1.2275020808	 0.373822
O	 1.3911546864	-2.2879391743	 2.2772505656	-0.32489
O	 0.3827121217	-0.6427972486	 1.1950317595	-0.258217
H	 1.0717613509	 1.7365555941	 0.3128755256	 0.127607
H	-0.3401107547	 1.9914510056	-0.7366676723	 0.121747
H	-0.5556522793	 1.7772629347	 1.0114321424	 0.137655
H	-2.0241632558	 0.0507889628	-1.0585989557	 0.118743
H	-1.6249925108	-1.5533688898	-0.417387777	 0.135953
H	-2.1278736747	-0.2542289001	 0.6877631869	 0.132936
H	 0.3387257343	-0.2061347766	-2.1630982689	 0.121463
H	 1.7811501223	-0.1289506958	-1.1215789149	 0.097346
H	 1.2138395794	-3.52395053	-0.0274308513	 0.152151
H	 2.5377641681	-2.3586436212	-0.190609671	 0.130034
86.1876	106.7731	214.2675	244.914	263.5463	301.7306	321.3812	383.2249	440.4311	450.5687	488.3192	534.9572	558.6602	630.6584	801.4277	829.605	919.3857	942.3098	969.1252	1000.3085	1009.9782	1024.2522	1058.9801	1144.9448	1180.9486	1223.4782	1258.789	1271.5465	1306.0116	1327.7556	1365.06	1397.2568	1407.1292	1424.9575	1466.6866	1476.3143	1483.4762	1492.8715	1497.4011	1508.037	1843.5567	2973.7512	2978.9596	3043.7296	3049.0951	3097.5877	3117.7198	3118.0853	3122.7031	3127.1115	3136.3088
CC1(C)COCC(=O)O1	CC1(C)COCC(=O)O1	
InChI=1S/C6H10O3/c1-6(2)4-8-3-5(7)9-6/h3-4H2,1-2H3	InChI=1S/C6H10O3/c1-6(2)4-8-3-5(7)9-6/h3-4H2,1-2H3
