22
gdb 122814	3.93012	0.63846	0.57726	3.4694	81.89	-0.2401	0.0383	0.2784	1998.2928	0.192282	-441.515653	-441.504446	-441.503502	-441.554332	38.272	
C	-0.12969097	 1.4192157653	 0.0766600482	-0.366615
C	-0.152837086	-0.0852495613	-0.1947398456	-0.296562
C	 0.7354606068	-0.47141149	-1.3773492015	 0.422792
O	 1.7298558089	 0.164507164	-1.6845523419	-0.380015
N	 0.3372360066	-1.5922438715	-2.0463782018	-0.317264
C	 1.1093329843	-2.1903286536	-3.1176307986	-0.171797
C	 1.4535807001	-3.6394041026	-2.8082845557	-0.060333
O	 0.2378620834	-4.3405058429	-2.6291165265	-0.239948
C	 0.4237356639	-5.6912015612	-2.2759194978	-0.227832
H	 0.9016120984	 1.7655756702	 0.168028132	 0.14416
H	-0.5932272534	 1.974838204	-0.7440865369	 0.121327
H	-0.6693425681	 1.6573514114	 0.9975601194	 0.105922
H	 0.2275127535	-0.6279780479	 0.6812689921	 0.125411
H	-1.17631487	-0.4429900472	-0.356988	 0.099336
H	-0.4604525815	-2.1130895262	-1.7195458385	 0.249361
H	 0.5487186472	-2.150197526	-4.0604163087	 0.112737
H	 2.016588997	-1.5935141947	-3.2316992742	 0.147027
H	 2.0362766905	-4.0757363513	-3.6363428087	 0.091488
H	 2.0681411443	-3.6983708908	-1.8950176495	 0.095898
H	 0.9738464673	-6.2425668903	-3.054128835	 0.108592
H	 0.9760617493	-5.7929552823	-1.3286188651	 0.107672
H	-0.5659477126	-6.1393289651	-2.1590906958	 0.128644
24.8178	42.4553	62.1173	107.9327	116.1513	196.2546	210.083	230.0472	284.2203	312.5666	331.8829	450.7458	499.9358	549.2274	601.5995	687.0287	810.4304	818.1538	906.2457	927.4658	1014.2322	1055.1232	1070.5188	1096.8715	1120.6096	1136.6676	1163.7069	1187.5383	1217.1171	1232.1459	1259.4157	1286.7615	1292.9329	1370.6727	1394.9318	1407.5276	1421.0066	1465.2699	1480.5746	1483.293	1486.0706	1493.8156	1501.9664	1505.4238	1523.2288	1535.3802	1774.1371	2961.4942	2976.9953	2995.8891	3020.5424	3022.1359	3030.0218	3048.1524	3061.0848	3113.9725	3115.1374	3125.5753	3138.9565	3645.6618
CCC(=O)NCCOC	CCC(=O)NCCOC	
InChI=1S/C6H13NO2/c1-3-6(8)7-4-5-9-2/h3-5H2,1-2H3,(H,7,8)	InChI=1S/C6H13NO2/c1-3-6(8)7-4-5-9-2/h3-5H2,1-2H3,(H,7,8)
