23
gdb 113040	5.39812	0.662	0.62497	0.789	92.52	-0.2554	0.0564	0.3118	1853.479	0.204256	-351.122232	-351.112065	-351.111121	-351.157917	37.935	
C	 0.0113505807	 1.438032755	 0.2418701812	-0.377804
C	-0.1269177963	-0.0629243054	-0.033053198	-0.194435
C	 0.6687715856	-0.528233498	-1.2455083898	 0.064315
C	 2.2245775698	-0.5383418351	-1.1737119254	-0.261765
C	 2.2136124099	-1.8733252187	-1.9665426718	 0.049573
C	 3.2172690921	-2.9615877275	-1.5693936575	-0.37563
C	 3.0179990377	-4.2114437903	-2.294758307	 0.304742
C	 2.8290249862	-5.2274902209	-2.9091219575	-0.451969
C	 0.7212447394	-2.0463283472	-1.5765307321	-0.253034
H	 1.0566699854	 1.7140783474	 0.4184827127	 0.117536
H	-0.3469304579	 2.0299808822	-0.6078177494	 0.113084
H	-0.5646824789	 1.7379222054	 1.1227910224	 0.111097
H	 0.2006691948	-0.6306426824	 0.8486606073	 0.088161
H	-1.1860511918	-0.3140439301	-0.1799837193	 0.094175
H	 0.3471936533	 0.0327785692	-2.1318136551	 0.06676
H	 2.7722926454	 0.3055195382	-1.6006302996	 0.095587
H	 2.5693317473	-0.6917008773	-0.1436588878	 0.092104
H	 2.3019397405	-1.6798773458	-3.0403284456	 0.081283
H	 4.2394412737	-2.5973824231	-1.7408193593	 0.126888
H	 3.1380407993	-3.1487124613	-0.489768348	 0.121875
H	 2.6717564072	-6.1304610121	-3.4447257719	 0.192602
H	 0.6171114929	-2.6525734103	-0.6689646127	 0.094884
H	 0.0356314339	-2.4354652218	-2.3324503557	 0.09997
50.6494	65.6559	107.3923	137.0802	195.0698	238.606	300.4292	350.3103	376.5478	391.0744	421.5842	479.3122	616.4655	625.543	637.4855	763.4561	793.2847	818.2486	875.0037	924.8716	940.316	949.8263	973.4243	989.7772	1020.7211	1054.5799	1079.0201	1122.8734	1140.8339	1152.7407	1215.1928	1229.692	1254.5949	1266.6843	1271.359	1287.0639	1310.5241	1326.6176	1347.2102	1373.8291	1401.4092	1411.3853	1468.8882	1477.0354	1484.8435	1500.0868	1502.9271	1507.6592	2236.3263	3008.307	3008.5422	3022.323	3030.0081	3031.5998	3036.1198	3039.7543	3045.7827	3059.7639	3096.1567	3097.2591	3101.9627	3107.1596	3507.8819
CCC1CC(CC#C)C1	CC[C@H]1C[C@@H](CC#C)C1	
InChI=1S/C9H14/c1-3-5-9-6-8(4-2)7-9/h1,8-9H,4-7H2,2H3	InChI=1S/C9H14/c1-3-5-9-6-8(4-2)7-9/h1,8-9H,4-7H2,2H3/t8-,9+
