16
gdb 49486	2.63407	1.27439	1.01705	4.3272	71.94	-0.2456	-0.0371	0.2085	1164.6637	0.123571	-437.870522	-437.862414	-437.861469	-437.904121	29.171	
O	-0.2158052887	 0.2390330323	 0.5060097589	-0.259643
C	-0.1226657469	 1.3538671849	 0.0519639456	 0.139478
C	 1.1701226301	 2.0792748119	-0.0496541577	-0.117072
C	 1.5841414052	 2.9698296017	-1.2188191109	-0.118205
C	 0.4108161265	 3.7969129927	-1.7771083748	-0.195182
N	 0.1990838396	 4.3203478744	-0.4152526943	-0.041469
C	-0.9488510363	 4.7780440496	 0.1530094565	 0.13266
O	-1.9455089823	 5.0729268873	-0.4693689124	-0.318664
C	 1.3231342001	 3.5843012204	 0.1369793328	-0.054986
H	-1.0196566259	 1.8979940384	-0.3097068019	 0.098898
H	 2.0018140512	 1.5128524142	 0.3601627737	 0.122339
H	 2.5279814303	 2.8132190343	-1.7206623881	 0.122665
H	 0.7348979686	 4.5791392839	-2.4691370779	 0.137942
H	-0.4456426584	 3.2688483447	-2.2030183057	 0.141456
H	-0.8516734318	 4.8824679307	 1.2528470114	 0.080041
H	 1.9924570786	 4.0181874288	 0.8695716749	 0.129742
50.964	100.0517	184.2943	207.0864	230.346	314.4949	414.2588	432.6695	522.2482	596.0991	756.1873	795.0682	805.0087	862.7246	922.9657	982.6676	1011.8053	1026.9255	1035.6351	1050.5011	1068.8141	1096.6011	1152.1105	1177.4874	1190.7221	1257.6144	1297.4077	1318.7978	1370.4166	1390.6269	1435.5555	1456.4399	1514.5283	1794.0594	1810.9391	2917.3442	2931.0013	3062.7754	3114.4456	3164.1697	3192.2394	3225.2172
O=CC1C2CN(C=O)C12	O=C[C@H]1[C@H]2CN(C=O)[C@@H]12	
InChI=1S/C6H7NO2/c8-2-5-4-1-7(3-9)6(4)5/h2-6H,1H2	InChI=1S/C6H7NO2/c8-2-5-4-1-7(3-9)6(4)5/h2-6H,1H2/t4-,5+,6-/m1/s1
