20
gdb 121280	3.97766	0.90574	0.81608	3.4442	75.32	-0.2394	0.0712	0.3106	1435.3112	0.171976	-440.253819	-440.245107	-440.244163	-440.287779	32.557	
O	 0.0358154479	 1.4229524515	-0.025393693	-0.421845
C	 0.0124361318	 0.0023708446	 0.0030175944	-0.064588
C	-1.4097017981	-0.5583347865	-0.056186034	-0.217132
C	-1.4547023107	-2.0816488793	-0.0927324195	 0.132859
O	-0.8150962044	-2.5875507683	 1.0853743675	-0.274034
C	-1.4166912009	-3.8123731879	 1.4892720606	-0.075516
C	-2.8213456564	-3.7830503831	 0.9251310259	-0.056125
N	-3.51961722	-2.5161244866	 1.2284927065	-0.329449
C	-2.844529041	-2.6945455129	-0.0744188411	-0.080758
H	-0.3830877942	 1.7349165037	 0.7830061737	 0.279751
H	 0.5803091675	-0.3180628315	-0.878250503	 0.102687
H	 0.5303327968	-0.3940399293	 0.8865735386	 0.109949
H	-1.9818392126	-0.2268940059	 0.8183519722	 0.109988
H	-1.9081637189	-0.1624292939	-0.9495063314	 0.095926
H	-0.9305822276	-2.4511901305	-0.9924352634	 0.064954
H	-0.8737494566	-4.6818996755	 1.0842808256	 0.090042
H	-1.3801209574	-3.8537794319	 2.5828243751	 0.113442
H	-3.3839843455	-4.7025939477	 0.8057908672	 0.09438
H	-4.5201232908	-2.6510712832	 1.1031033702	 0.232674
H	-3.4253282188	-2.7466702859	-0.9890102319	 0.092795
77.4017	98.8486	116.3455	175.5598	268.635	303.2456	352.8967	366.1463	418.4897	568.8616	667.5909	754.6895	787.4907	808.0628	872.7764	878.3149	880.6999	957.841	982.419	1018.1879	1036.1216	1061.148	1074.626	1085.8549	1103.3258	1115.3377	1148.9931	1158.1349	1196.5074	1233.3421	1254.9941	1279.5631	1312.5371	1327.8604	1359.9612	1381.9633	1389.0798	1411.8292	1421.0221	1434.6192	1479.0968	1509.2347	1515.4477	2941.0503	2975.7726	3016.0848	3032.5932	3058.2379	3071.3548	3086.5118	3167.5491	3178.152	3499.9662	3816.3819
OCCC1OCC2NC12	OCC[C@H]1OC[C@H]2N[C@@H]12	
InChI=1S/C6H11NO2/c8-2-1-5-6-4(7-6)3-9-5/h4-8H,1-3H2	InChI=1S/C6H11NO2/c8-2-1-5-6-4(7-6)3-9-5/h4-8H,1-3H2/t4-,5-,6-/m1/s1
