21
gdb 14769	6.58029	0.62016	0.60081	3.7027	77.45	-0.2488	0.0346	0.2834	1891.7195	0.187945	-366.301622	-366.291563	-366.290618	-366.338387	34.476	
C	 0.0491521862	 1.523588425	-0.1398959657	-0.380206
C	-0.0383950101	-0.004439091	-0.1749379441	-0.165384
C	-1.4391640928	-0.5346045727	 0.1499423684	-0.155688
C	-1.5332654413	-2.0631655326	 0.1146940071	-0.18459
C	-2.9410197306	-2.5735410819	 0.4426211202	-0.164601
N	-3.041478164	-4.0250395443	 0.4261114206	-0.273606
C	-3.7089912612	-4.7161759106	-0.5360466683	 0.153446
O	-4.3246349291	-4.2236703231	-1.4578673207	-0.322986
H	 1.0596632229	 1.8715036556	-0.3756402587	 0.112337
H	-0.6362914311	 1.9758851713	-0.8651665186	 0.116043
H	-0.2146114052	 1.9130553641	 0.8497931186	 0.11316
H	 0.2633076655	-0.3669992923	-1.1663080585	 0.098311
H	 0.682988942	-0.4300611313	 0.5353261497	 0.093293
H	-1.7428666731	-0.1717660502	 1.1421751498	 0.091819
H	-2.1618152979	-0.110402315	-0.5606571719	 0.101311
H	-1.2464248864	-2.4345705911	-0.8767587844	 0.11175
H	-0.8141416564	-2.4919007203	 0.8270035394	 0.085975
H	-3.2572475859	-2.2001050107	 1.4251742663	 0.10519
H	-3.6605333896	-2.2131125567	-0.296457161	 0.149786
H	-2.5387026406	-4.5537278146	 1.1213382738	 0.244126
H	-3.6337594913	-5.8109863178	-0.3777032717	 0.070514
24.838	56.5708	101.1141	112.4911	141.5439	214.3676	246.8332	270.3927	337.7253	373.3757	490.4344	537.8643	730.1099	739.1926	784.4685	864.3429	896.7716	972.2689	1001.0891	1015.6705	1033.5831	1049.5322	1068.4999	1135.1256	1179.2242	1213.9206	1242.5799	1273.4107	1307.4263	1330.6164	1338.2679	1352.1457	1398.9591	1405.1634	1414.5854	1432.1258	1480.9376	1484.1859	1490.6142	1499.9424	1502.7337	1513.6661	1536.2498	1807.0126	2928.7178	3002.5087	3007.6047	3016.5498	3022.1276	3028.863	3030.2828	3048.8875	3066.0598	3095.7873	3101.8269	3115.9322	3631.1339
CCCCCNC=O	CCCCCNC=O	
InChI=1S/C6H13NO/c1-2-3-4-5-7-6-8/h6H,2-5H2,1H3,(H,7,8)	InChI=1S/C6H13NO/c1-2-3-4-5-7-6-8/h6H,2-5H2,1H3,(H,7,8)
