18
gdb 69008	3.04968	1.28054	1.18578	3.1573	73.08	-0.226	0.0657	0.2917	1116.3678	0.147358	-439.002588	-438.994339	-438.993395	-439.035498	31.614	
O	-0.1464009826	 1.4537882433	 0.1081604528	-0.450342
C	-0.0873345985	 0.079301128	 0.0364818436	 0.254136
C	-0.2994701434	-0.718216723	-1.2339970486	-0.410984
C	-1.201927586	-0.9433697996	-0.0440815285	 0.420275
O	-0.5493317479	-1.8072157775	 0.9009579255	-0.327656
C	 0.5052840967	-0.8232137936	 1.1138373662	-0.141743
C	-2.6800650279	-0.9025083676	-0.021204139	-0.109007
C	-3.4331351262	-2.1375896353	 0.3193480976	-0.242956
N	-3.3880079116	-1.0062412457	 1.2633073411	-0.324713
H	 0.5336245352	 1.8211301622	-0.4674105732	 0.291674
H	-0.7543643501	-0.1405214594	-2.03380652	 0.122378
H	 0.3944186599	-1.4943167747	-1.5480496266	 0.114628
H	 1.5026811307	-1.2483551	 0.953272265	 0.105044
H	 0.4331381272	-0.3867473036	 2.1157381749	 0.119057
H	-3.1142205156	-0.1922211765	-0.7203986626	 0.097256
H	-4.402058545	-2.3218071063	-0.1357289706	 0.1171
H	-2.8543507089	-3.0260749072	 0.5539899722	 0.128054
H	-2.701982606	-1.2205750937	 1.9851442905	 0.237797
78.569	127.1342	176.7793	249.3363	295.5774	320.519	376.5303	422.5216	476.8626	574.5598	605.0091	714.0078	783.3668	842.1928	864.9156	880.1743	918.6688	966.5056	974.8284	987.296	1004.8977	1034.0306	1056.6039	1099.9348	1124.3306	1138.206	1146.2996	1173.0119	1236.5509	1266.1152	1275.3741	1304.2036	1305.7395	1333.9683	1403.6465	1439.1983	1496.8511	1509.1282	1531.4034	3029.2721	3086.8187	3105.9274	3114.2854	3141.2355	3203.7698	3204.2608	3489.864	3792.2309
OC12CC1(OC2)C1CN1	O[C@]12C[C@]1(OC2)[C@H]1CN1	
InChI=1S/C6H9NO2/c8-5-2-6(5,9-3-5)4-1-7-4/h4,7-8H,1-3H2	InChI=1S/C6H9NO2/c8-5-2-6(5,9-3-5)4-1-7-4/h4,7-8H,1-3H2/t4-,5+,6+/m1/s1
