20
gdb 62799	3.80623	0.9631	0.93725	2.4733	80.9	-0.2402	-0.0267	0.2135	1343.8794	0.169262	-403.115122	-403.10602	-403.105076	-403.148905	34.22	
C	-0.0931942966	 1.5487217796	-0.0307363486	-0.471929
C	 0.0235293307	 0.037645055	-0.0507274032	 0.329142
C	-1.0727396558	-0.6593946023	 0.7356952378	-0.444456
C	 0.5554952302	-0.7366827404	-1.1977463534	-0.087458
C	 1.667765272	-0.0153426522	-1.9691768351	-0.120077
C	 2.3818863909	 0.1023336872	-0.5853628054	-0.196331
N	 1.3147120765	-0.6725363259	 0.1290287428	-0.169712
C	 2.4167798555	-0.9158067359	-2.9149362389	 0.157746
O	 2.6888676815	-0.6412203289	-4.055125406	-0.258139
H	 0.6065007428	 2.0565307923	-0.6959152622	 0.126195
H	-1.103156072	 1.8425849892	-0.3342831946	 0.127267
H	 0.0683969651	 1.9269086599	 0.985135536	 0.127485
H	-2.0557087568	-0.4520798593	 0.2996192925	 0.116503
H	-0.9137046863	-1.7402101713	 0.7483454062	 0.129922
H	-1.078500744	-0.3084898302	 1.7729312522	 0.123729
H	 0.0786412481	-1.6528399029	-1.5368664409	 0.09646
H	 1.3962074579	 0.9027860628	-2.4951151289	 0.094991
H	 3.3214707016	-0.4537425942	-0.5387223745	 0.120548
H	 2.5558190156	 1.1135187954	-0.2089538138	 0.116164
H	 2.7232335931	-1.890585258	-2.4670429619	 0.081948
77.5989	107.8479	171.9239	208.6991	261.0101	265.3634	301.628	361.9852	397.8053	436.5494	468.4561	527.8838	650.5811	782.6485	822.1698	840.5698	879.9344	939.2915	963.5652	972.8101	1015.1227	1032.9111	1040.1887	1076.6223	1085.3842	1130.4528	1150.0369	1177.2575	1220.3785	1240.082	1283.358	1302.1246	1318.2314	1407.1848	1413.7886	1426.1291	1429.9956	1479.2711	1487.3383	1497.2536	1510.4596	1516.7803	1831.0416	2856.5606	3035.2649	3040.3444	3060.3126	3084.4872	3095.9361	3102.3016	3110.0587	3125.153	3136.2052	3141.2205
CC1(C)C2C(CN12)C=O	CC1(C)[C@H]2[C@@H](CN12)C=O	
InChI=1S/C7H11NO/c1-7(2)6-5(4-9)3-8(6)7/h4-6H,3H2,1-2H3	InChI=1S/C7H11NO/c1-7(2)6-5(4-9)3-8(6)7/h4-6H,3H2,1-2H3/t5-,6+,8?/m0/s1
