21
gdb 37479	2.75103	1.6556	1.3595	1.6813	80.4	-0.2478	0.0836	0.3315	1034.9831	0.185731	-387.068452	-387.061122	-387.060178	-387.100115	30.093	
C	-0.0045179008	 1.5087425851	 0.0624717712	-0.18815
C	 1.4315027064	 2.0460001855	 0.0058294538	-0.18677
C	 2.0631198144	 1.7645090462	-1.3664817167	-0.22124
C	 1.9279895983	 0.3021662345	-1.8072118183	-0.02593
C	 2.9328954811	-0.7571040681	-1.3374479701	 0.019342
O	 2.7630850827	-0.9734143547	 0.0719251518	-0.245159
C	 1.860797169	-1.6258883993	-0.8328137613	 0.008581
C	 0.7703071906	-0.595231366	-1.1828416352	-0.049959
C	-0.0185991962	-0.0274245231	 0.0113998761	-0.209846
H	-0.5030527222	 1.844053741	 0.9787788562	 0.090177
H	-0.5823238235	 1.9237804585	-0.775870861	 0.085248
H	 1.4438703698	 3.1252324916	 0.1951926783	 0.084152
H	 2.0251205271	 1.5712573454	 0.7950201378	 0.114114
H	 1.5625310883	 2.4002819092	-2.1087788093	 0.091925
H	 3.1198455574	 2.0590520203	-1.3745260065	 0.093281
H	 1.8638375181	 0.2430485095	-2.8988359692	 0.074809
H	 3.9056461279	-0.9992173913	-1.7520724091	 0.096921
H	 1.7949619445	-2.7059121235	-0.7654405125	 0.099354
H	 0.1027593805	-0.9521642875	-1.9712482934	 0.071661
H	 0.4377390419	-0.3946570704	 0.9371401669	 0.11152
H	-1.0496272954	-0.3976308031	-0.0054117295	 0.08597
112.7875	134.2897	267.5502	309.11	387.7546	432.24	471.8313	570.2112	636.7877	708.7551	747.6953	792.7702	849.3091	851.8175	861.544	891.4279	908.9919	935.153	942.9044	1007.122	1016.1224	1054.5292	1057.3394	1070.693	1104.6793	1126.9326	1144.1292	1185.0122	1222.4378	1231.0731	1250.8125	1258.7721	1292.745	1310.3826	1338.2313	1345.9345	1368.1689	1375.1828	1381.1731	1391.1289	1400.8638	1478.5707	1483.5815	1490.1776	1499.577	3005.3794	3010.1355	3031.9092	3032.849	3045.8287	3051.3529	3060.2532	3068.4856	3079.2841	3085.6528	3169.9048	3187.1317
C1CCC2C3OC3C2C1	C1CC[C@H]2[C@H]3O[C@H]3[C@H]2C1	
InChI=1S/C8H12O/c1-2-4-6-5(3-1)7-8(6)9-7/h5-8H,1-4H2	InChI=1S/C8H12O/c1-2-4-6-5(3-1)7-8(6)9-7/h5-8H,1-4H2/t5-,6+,7-,8+
