13
gdb 48358	3.18307	1.27301	0.98851	3.181	66.67	-0.2624	-0.083	0.1794	1124.6259	0.084878	-456.512577	-456.503793	-456.502849	-456.54683	30.379	
O	-0.6155599566	 1.2535935981	 1.377321744	-0.248379
C	-0.3210867923	 1.6777900183	 0.2911971665	 0.10342
C	 1.1119246834	 1.715642507	-0.1973796649	 0.198729
C	 2.180925018	 1.9181150692	 0.8213042633	-0.202161
O	 1.9458973584	 0.64877405	 0.2616834412	-0.237356
C	 1.3349641111	 2.2078134799	-1.6020957997	 0.151934
O	 0.5046798173	 2.900033991	-2.1534829568	-0.289625
C	 2.5778271273	 1.8208154585	-2.2372990803	 0.280859
C	 3.6097904404	 1.5301092474	-2.7837313798	-0.399223
H	-1.0655395158	 2.0703205575	-0.4249813073	 0.123268
H	 3.1057178456	 2.4079633199	 0.5214935588	 0.139552
H	 1.8532181577	 2.0465556853	 1.8511226631	 0.155107
H	 4.5178181855	 1.267263088	-3.2709120381	 0.223876
46.3744	97.6085	130.2341	205.5129	219.9077	278.9919	305.8059	339.7696	434.6461	474.1934	660.7743	667.8703	720.3085	744.6529	757.4094	849.7274	871.4829	960.0822	1033.3504	1051.2824	1140.0476	1173.3743	1280.6181	1355.0541	1410.0822	1495.6472	1753.1961	1826.5276	2216.3808	2978.1712	3091.0516	3196.3161	3490.8086
O=CC1(CO1)C(=O)C#C	O=C[C@]1(CO1)C(=O)C#C	
InChI=1S/C6H4O3/c1-2-5(8)6(3-7)4-9-6/h1,3H,4H2	InChI=1S/C6H4O3/c1-2-5(8)6(3-7)4-9-6/h1,3H,4H2/t6-/m0/s1
