19
gdb 80665	2.59064	1.74335	1.28813	2.88	74.31	-0.2484	-0.0279	0.2205	1016.8193	0.161103	-423.044831	-423.037383	-423.036438	-423.076649	30.224	
O	 0.3043636032	 0.9924335156	 0.6893617185	-0.447736
C	 0.0199943614	-0.2071263577	 0.0179944349	 0.062104
C	-1.490914354	-0.4502121159	-0.0998907095	-0.031181
C	-1.7230251205	-1.832257476	-0.7670507824	-0.232348
C	-1.554496858	-1.1056501401	-2.1289101618	-0.018001
C	-2.0469227482	 0.1879129981	-1.4060310001	-0.241521
C	-0.05848474	-0.9776934548	-2.4694815573	-0.3157
C	 0.6454171389	-0.1721582519	-1.3874243126	 0.36282
O	 1.5956541825	 0.5486726119	-1.5991189922	-0.331585
H	 1.085415043	 1.3565508137	 0.2446819614	 0.290762
H	 0.4695075462	-1.0668779454	 0.5521666482	 0.084993
H	-1.9824195736	-0.2297144792	 0.8491137884	 0.080758
H	-1.0281532428	-2.6449908041	-0.5282190078	 0.090468
H	-2.7472872348	-2.1829316761	-0.6186217112	 0.104933
H	-2.124601605	-1.4742955717	-2.9841578576	 0.071242
H	-3.1373306709	 0.2496291101	-1.3928126077	 0.104305
H	-1.6374813545	 1.1529529056	-1.7204137236	 0.108542
H	 0.4076719858	-1.9693289749	-2.5474015328	 0.127676
H	 0.1152706312	-0.4670538872	-3.4217117949	 0.129469
78.7176	189.0916	305.045	342.7861	363.8792	417.4062	472.1733	479.4738	504.7854	579.854	641.1866	746.3491	825.7577	846.7918	871.7304	890.0535	899.0902	936.8593	969.8548	1029.7918	1054.0472	1076.3679	1077.6646	1106.803	1128.0341	1140.8259	1187.7352	1221.9076	1238.3572	1250.4847	1268.4046	1289.9866	1309.6498	1337.7644	1358.7297	1371.1482	1427.4925	1455.2617	1482.7133	1512.9237	1804.3605	2911.3838	3025.2863	3040.8476	3054.5982	3081.5042	3090.0049	3096.2158	3105.3819	3114.7999	3704.7612
OC1C2CC(C2)CC1=O	O[C@H]1[C@@H]2C[C@@H](C2)CC1=O	
InChI=1S/C7H10O2/c8-6-3-4-1-5(2-4)7(6)9/h4-5,7,9H,1-3H2	InChI=1S/C7H10O2/c8-6-3-4-1-5(2-4)7(6)9/h4-5,7,9H,1-3H2/t4-,5+,7-/m0/s1
