20
gdb 118912	2.63017	1.15323	1.04603	3.6331	75.72	-0.227	-0.0163	0.2107	1250.763	0.16909	-440.276204	-440.266304	-440.26536	-440.311348	35.984	
C	 0.0567667196	 1.7315557135	 0.005228843	-0.429539
C	-0.0445506621	 0.2082210265	 0.0424554625	 0.191457
C	-1.4859008416	-0.299557841	 0.264489947	-0.229178
C	-2.4483121842	-0.0675739726	-0.8973826942	-0.091642
O	-2.0643175698	-0.9216899809	-1.9734625885	-0.411455
N	 0.7114994062	-0.4723971106	-1.0596137956	-0.360584
C	 1.4927604621	-1.3182987698	-0.1231035534	-0.288633
C	 0.9237221392	-0.4818733122	 1.0310637569	 0.359246
O	 1.1378332431	-0.3790242081	 2.2022248053	-0.301949
H	 1.0949907395	 2.0363393963	-0.1469755162	 0.126081
H	-0.5324371296	 2.150362802	-0.8168174879	 0.117192
H	-0.3007467601	 2.1643952284	 0.9452349467	 0.123744
H	-1.4718180737	-1.3773969009	 0.4694187132	 0.109035
H	-1.8920970774	 0.1854804987	 1.1594344205	 0.115024
H	-3.471865185	-0.3013445741	-0.5672360536	 0.095755
H	-2.4371399975	 0.9868161349	-1.2082090626	 0.098199
H	-2.5829786244	-0.6905462906	-2.7493242084	 0.292813
H	 0.0991587812	-0.984309017	-1.6839094202	 0.234939
H	 1.1954490081	-2.3748441755	-0.0577480075	 0.121656
H	 2.5795819067	-1.2749985369	-0.2582725671	 0.127839
48.0147	96.751	143.5819	167.4617	175.7025	247.3369	263.095	278.5842	352.0166	383.968	458.1017	528.9921	566.1394	637.8314	718.9395	760.4996	859.3128	898.6289	943.8396	962.7204	979.5741	1007.993	1034.7021	1055.9782	1082.412	1121.6727	1150.9313	1180.8348	1195.6481	1247.8674	1269.8413	1279.6986	1334.356	1371.8876	1383.2803	1404.0368	1452.003	1463.8047	1475.8818	1482.8545	1493.8898	1524.3467	1905.8414	2983.3971	3004.2671	3014.5175	3034.6322	3038.1734	3058.7459	3076.5566	3106.4778	3122.0283	3556.2529	3835.8396
CC1(CCO)NCC1=O	C[C@@]1(CCO)NCC1=O	
InChI=1S/C6H11NO2/c1-6(2-3-8)5(9)4-7-6/h7-8H,2-4H2,1H3	InChI=1S/C6H11NO2/c1-6(2-3-8)5(9)4-7-6/h7-8H,2-4H2,1H3/t6-/m0/s1
