16
gdb 28026	3.94659	0.92666	0.80894	4.7782	76.62	-0.1972	0.0336	0.2309	1379.3038	0.126006	-396.977243	-396.968586	-396.967641	-397.011471	31.562	
N	 0.083018954	 1.4135567059	 0.0357919742	-0.607799
C	-0.0163528266	 0.0101385447	 0.0022872907	 0.315689
C	-1.0824940428	-0.8504966282	-0.1303611212	-0.315698
C	-0.5715569324	-2.1800800861	-0.0127433985	 0.29581
C	-1.3604140735	-3.4603125239	-0.0845276738	-0.458097
C	-2.0299371087	-3.6602724511	-1.3755697821	 0.265409
N	-2.5634699564	-3.8109598643	-2.3895129472	-0.31827
C	 0.784948065	-2.0856272552	 0.1778237874	-0.187396
N	 1.1116160376	-0.7486114549	 0.1909619553	-0.271978
H	 0.5061226401	 1.7922652112	-0.8068974762	 0.247584
H	-0.8328985029	 1.833202659	 0.1354393921	 0.250913
H	-2.1059903194	-0.566752447	-0.3234058877	 0.096456
H	-0.7033011976	-4.3183545955	 0.0940833351	 0.150724
H	-2.1320515703	-3.4935926845	 0.6955481543	 0.154515
H	 1.5367916944	-2.8488131667	 0.2971570178	 0.1202
H	 2.0143392093	-0.3634979334	 0.4087204496	 0.261936
37.1078	92.0081	142.761	212.5809	271.0912	327.7838	383.4802	415.9217	466.2134	488.1409	621.7495	643.1174	681.3616	697.0381	765.962	787.6712	828.154	925.7062	931.4276	989.4291	1008.1319	1125.6131	1146.4935	1190.2137	1208.1099	1284.6874	1326.6808	1345.4454	1427.1156	1456.7161	1481.8367	1563.7143	1631.0881	1658.5147	2359.7935	3026.6993	3076.0497	3245.8686	3263.9636	3493.8368	3600.7835	3680.3016
NC1=CC(CC#N)=CN1	Nc1cc(CC#N)c[nH]1	
InChI=1S/C6H7N3/c7-2-1-5-3-6(8)9-4-5/h3-4,9H,1,8H2	InChI=1S/C6H7N3/c7-2-1-5-3-6(8)9-4-5/h3-4,9H,1,8H2
