18
gdb 39229	2.55558	2.23476	1.61052	1.5757	74.84	-0.2172	-0.0006	0.2166	876.7312	0.151094	-401.886533	-401.880152	-401.879208	-401.91672	27.744	
C	-0.0158291939	 1.5267924444	-0.0281476116	-0.26511
C	 1.5021991757	 1.7237936101	 0.0130055462	 0.087898
O	 1.9823977081	 1.4109248147	 1.3465640745	-0.30045
C	 1.0771566167	 0.6553383131	 2.1881846236	-0.098901
C	 0.5230562129	-0.4882478391	 1.3655618944	-0.037822
N	-0.8798351427	-0.6862810622	 0.9185548154	-0.428295
C	 0.0491667922	 0.000910147	 0.0359486062	 0.268998
C	 1.039018759	-0.3306735402	-1.0564227491	-0.181116
C	 1.9283152209	 0.6699987533	-1.0427726072	-0.081723
H	-0.55903401	 1.9913148723	 0.7944200233	 0.109804
H	-0.4373591843	 1.8666950355	-0.9769172597	 0.101101
H	 1.8622007671	 2.7314780996	-0.2036059293	 0.074731
H	 1.6954541817	 0.3151494034	 3.0229144229	 0.107258
H	 0.2819256029	 1.2904867571	 2.5975158162	 0.107654
H	 1.1564081424	-1.3711653456	 1.3287761843	 0.093579
H	-1.0056602576	-1.6665652275	 0.6764125507	 0.236626
H	 1.0680676364	-1.241857994	-1.6410060758	 0.10508
H	 2.8312881325	 0.741886338	-1.635237485	 0.100691
264.1873	283.2091	367.5498	403.3445	434.9607	496.1178	562.6993	576.2513	601.9874	718.5866	774.0957	808.5882	834.5896	853.358	861.4349	914.6071	929.0711	932.9577	978.5431	1009.6503	1020.6627	1048.1753	1063.0844	1080.2546	1120.0129	1144.1437	1201.7768	1238.2904	1257.4166	1269.6656	1298.2197	1312.0505	1348.2853	1358.1297	1376.9414	1462.6305	1490.4592	1524.5807	1621.6697	3024.4575	3076.6194	3090.1294	3091.9566	3132.8793	3141.7063	3199.4901	3225.2515	3497.8402
C1C2OCC3NC13C=C2	C1[C@H]2OC[C@H]3N[C@@]13C=C2	
InChI=1S/C7H9NO/c1-2-7-3-5(1)9-4-6(7)8-7/h1-2,5-6,8H,3-4H2	InChI=1S/C7H9NO/c1-2-7-3-5(1)9-4-6(7)8-7/h1-2,5-6,8H,3-4H2/t5-,6+,7-/m0/s1
