16
gdb 133626	2.98126	1.10089	1.02065	2.8434	57.72	-0.2637	0.0626	0.3263	1180.2476	0.119146	-569.381806	-569.373022	-569.372078	-569.416155	32.511	
O	 0.0003631198	 1.3836352436	 0.1363221455	-0.463398
C	-0.0262696671	-0.0137460375	 0.0360290939	 0.425412
C	 1.0267623895	-0.6122050731	-0.8763685008	-0.414723
C	 0.9181216699	-0.1750003444	-2.3284682359	 0.287812
F	 1.1665149081	 1.1298106533	-2.4906899355	-0.073093
F	 1.8096311385	-0.8456500258	-3.0828037094	-0.083264
F	-0.2989325658	-0.4233448101	-2.8364257438	-0.080021
C	-0.4681444513	-0.7930142626	 1.2526803639	-0.336561
C	-1.402419969	-0.6008208967	 0.0742252724	-0.284134
H	 0.8226264882	 1.6414353091	 0.5685303719	 0.282026
H	 2.0346804875	-0.3467849539	-0.5356656039	 0.121089
H	 0.9587933465	-1.7034194044	-0.8658450145	 0.13161
H	-0.0489797089	-1.777430955	 1.4327100326	 0.112572
H	-0.672216572	-0.2118511749	 2.1446153094	 0.120341
H	-2.2171065548	 0.1032494208	 0.1928002895	 0.131933
H	-1.619837259	-1.4479438283	-0.5651485454	 0.1224
32.9434	108.1234	152.8003	274.3469	288.7681	298.2686	325.0124	392.5102	437.1884	473.7927	537.8272	539.7227	661.9453	764.3474	783.3365	840.9516	907.1653	922.6533	935.2065	973.8154	994.8787	1053.5145	1080.2051	1113.9327	1166.4043	1187.4888	1256.0687	1266.8898	1299.9074	1322.047	1385.6834	1409.3205	1455.2338	1464.9167	1504.2732	3046.2041	3106.6126	3133.1574	3149.6335	3221.6159	3241.6842	3788.7215
OC1(CC(F)(F)F)CC1	OC1(CC(F)(F)F)CC1	
InChI=1S/C5H7F3O/c6-5(7,8)3-4(9)1-2-4/h9H,1-3H2	InChI=1S/C5H7F3O/c6-5(7,8)3-4(9)1-2-4/h9H,1-3H2
