20
gdb 116244	1.85026	1.55933	0.91348	3.0145	78.61	-0.273	0.0293	0.3023	1295.5556	0.17207	-403.172366	-403.16326	-403.162316	-403.207345	33.131	
C	 0.0320088736	 1.5647213242	-0.1443372913	-0.397941
C	 0.0163293282	 0.0323675958	-0.1345327894	-0.192416
C	-1.3893947141	-0.5438055428	 0.0638454172	-0.012345
C	-2.3668988676	-0.2155899395	-1.0940433913	-0.089568
O	-3.2212391538	-1.3391375842	-1.2367023503	-0.235434
C	-2.3959287687	-2.4692425709	-1.0745808084	-0.098742
C	-1.4864980477	-2.1142175816	 0.1360017986	-0.186497
C	-0.2145168708	-2.8241826691	 0.1125488234	 0.273816
N	 0.7872420977	-3.4008836013	 0.0848318309	-0.335676
H	 1.0518395318	 1.942008682	-0.2618066195	 0.123538
H	-0.566591634	 1.9739745076	-0.9651515043	 0.121922
H	-0.3674746354	 1.9703995343	 0.791903859	 0.118467
H	 0.4374596412	-0.3500388478	-1.0729517812	 0.111518
H	 0.6738581643	-0.3333030711	 0.6614549833	 0.11956
H	-1.7979919038	-0.1480902888	 0.9989236434	 0.091591
H	-2.993240937	 0.6583064199	-0.9044872279	 0.119808
H	-1.8003989706	-0.0449125403	-2.0249081846	 0.096169
H	-3.0264811193	-3.3424259854	-0.8978805936	 0.128372
H	-1.7783883571	-2.6496163899	-1.9682445025	 0.110603
H	-2.0031009866	-2.3958488611	 1.0578819986	 0.133257
27.1921	110.9187	128.6603	188.4149	217.1155	257.2467	300.6823	375.1082	410.2599	498.9562	553.2111	620.7997	671.3844	768.3095	795.8884	912.9241	957.248	965.6774	979.5226	1021.1219	1037.4752	1053.5338	1095.1148	1121.8159	1141.3326	1157.4892	1226.432	1260.1564	1284.0266	1303.1121	1310.5008	1331.822	1348.7616	1372.8468	1388.0604	1401.4963	1416.4399	1483.678	1501.3121	1505.2451	1506.4601	1520.1612	2354.5948	2965.5895	2988.361	3029.5029	3033.3128	3049.473	3069.6864	3074.6229	3100.723	3108.0815	3110.7181	3117.4005
CCC1COCC1C#N	CC[C@H]1COC[C@H]1C#N	
InChI=1S/C7H11NO/c1-2-6-4-9-5-7(6)3-8/h6-7H,2,4-5H2,1H3	InChI=1S/C7H11NO/c1-2-6-4-9-5-7(6)3-8/h6-7H,2,4-5H2,1H3/t6-,7+/m0/s1
