20
gdb 92965	2.61892	1.44662	1.02801	3.0024	83.95	-0.2057	0.0025	0.2082	1206.0908	0.170892	-403.203419	-403.194258	-403.193314	-403.237429	34.078	
C	 0.0807508951	 1.5853739856	-0.0211228874	-0.397533
C	 0.0261210222	 0.0578997314	 0.03336945	 0.047622
C	 0.7087303554	-0.62114223	-1.1913422186	-0.295081
C	 1.9496981013	-1.2513215882	-0.6026210868	-0.158372
C	 1.9296834091	-1.1463877657	 0.7263135604	 0.006728
N	 0.7979106181	-0.4635416922	 1.1914890407	-0.089301
C	 0.3400707083	-0.341507034	 2.4776595889	 0.393606
C	 1.2058449614	-0.9504761131	 3.56972805	-0.500187
O	-0.7110732431	 0.2290132362	 2.722870615	-0.375648
H	 1.115535999	 1.9301324257	-0.1217363175	 0.115817
H	-0.4854071919	 1.9466763208	-0.8858510273	 0.113771
H	-0.3523605471	 2.0128976614	 0.8845485711	 0.150941
H	-1.0121944067	-0.2592300405	 0.1539655128	 0.107742
H	 0.0603712612	-1.3724799063	-1.6601563382	 0.113567
H	 0.9386021255	 0.1189425654	-1.9663224223	 0.111719
H	 2.7256085256	-1.7349475132	-1.1779049262	 0.1034
H	 2.6578568922	-1.5103548502	 1.4358848276	 0.126548
H	 2.2050564796	-0.5031545542	 3.5864754298	 0.137929
H	 0.7153155341	-0.7640237749	 4.5243885089	 0.148163
H	 1.3258132807	-2.0299012239	 3.4317013991	 0.138568
79.7698	107.7936	129.337	162.0441	211.8017	265.7463	317.9448	396.3476	415.4721	495.0459	544.9157	604.421	620.6379	726.936	748.723	821.8287	860.4183	921.7799	933.0069	946.1314	979.1108	1036.6028	1050.1071	1074.3282	1099.2175	1128.2704	1145.5192	1218.9185	1240.1929	1306.4759	1313.309	1360.8025	1377.33	1395.7429	1402.4695	1438.4946	1476.2608	1486.9832	1487.3441	1494.4166	1508.0668	1685.1268	1752.2391	3018.61	3037.504	3042.9371	3053.0933	3082.2534	3105.6789	3107.0585	3144.6348	3161.9374	3233.805	3258.1296
CC1CC=CN1C(C)=O	C[C@H]1CC=CN1C(=O)C	
InChI=1S/C7H11NO/c1-6-4-3-5-8(6)7(2)9/h3,5-6H,4H2,1-2H3	InChI=1S/C7H11NO/c1-6-4-3-5-8(6)7(2)9/h3,5-6H,4H2,1-2H3/t6-/m0/s1
