20
gdb 92233	2.69459	1.78669	1.38335	2.943	76.78	-0.235	0.0635	0.2985	990.9922	0.174662	-403.124115	-403.116996	-403.116052	-403.15541	29.893	
O	 0.0533223323	 1.4518286629	 0.1441884977	-0.438287
C	-0.0011765072	 0.0634843382	-0.0304930549	 0.154138
C	 0.464339937	-0.8484229002	 1.1427823471	-0.273261
C	-0.8315839536	-1.6983173116	 1.0008955476	-0.017509
C	-1.8003028979	-1.779925672	 2.2033146992	-0.23475
C	-2.7344277904	-0.590108425	 2.0560492477	-0.029716
N	-2.053124096	 0.7231981184	 1.9967845405	-0.357992
C	-2.5147562455	 0.0684523941	 0.7401015888	-0.045909
C	-1.404549793	-0.6423782249	-0.0093110177	-0.070641
H	-0.4139739837	 1.6195857013	 0.9745902609	 0.289251
H	 0.5351735409	-0.1512739173	-0.9594156407	 0.08013
H	 1.4099751967	-1.3774170821	 0.9975775703	 0.090081
H	 0.5081985136	-0.2982133242	 2.0857542795	 0.106653
H	-0.6429679725	-2.6824328555	 0.5680769108	 0.068652
H	-2.3960735677	-2.6992692373	 2.1629589439	 0.098665
H	-1.2708076732	-1.775575228	 3.1623301747	 0.107606
H	-3.7162253873	-0.6216635119	 2.5185927299	 0.087405
H	-2.7160020958	 1.4501447217	 2.2544531011	 0.235131
H	-3.324028854	 0.54100586	 0.1940033889	 0.089429
H	-1.7669613527	-1.0077845268	-0.9734379752	 0.060924
108.4222	208.8599	280.8628	374.2984	377.927	429.3677	562.1577	584.3911	632.6161	660.4129	723.2021	782.8771	804.5443	825.3979	856.6863	887.6199	918.8335	935.4759	951.5785	961.6201	1024.1043	1043.1466	1070.7815	1092.7904	1100.4436	1123.1396	1143.4557	1175.554	1184.7635	1210.1904	1247.9345	1251.0819	1260.2923	1267.6724	1312.7016	1313.9058	1336.6073	1353.8516	1381.0886	1417.1494	1468.6992	1473.6895	1481.4339	3035.1418	3056.0545	3060.7462	3072.7667	3076.9847	3088.3255	3118.0518	3154.996	3170.7396	3499.0879	3733.2244
OC1CC2CC3NC3C12	O[C@H]1C[C@H]2C[C@H]3N[C@H]3[C@@H]12	
InChI=1S/C7H11NO/c9-5-2-3-1-4-7(8-4)6(3)5/h3-9H,1-2H2	InChI=1S/C7H11NO/c9-5-2-3-1-4-7(8-4)6(3)5/h3-9H,1-2H2/t3-,4-,5+,6-,7-/m1/s1
