15
gdb 43339	3.0668	1.86306	1.41173	3.6237	70.46	-0.2349	-0.063	0.1719	896.1295	0.114435	-420.606988	-420.600685	-420.599741	-420.6376	25.615	
O	 0.0171171817	 0.0016056582	 0.1029675669	-0.341697
C	-0.0377088486	 1.2142562937	 0.0242480044	 0.409485
C	-1.3333799201	 1.9340719236	-0.0516876428	-0.167916
C	-1.3963422111	 3.2707189168	-0.0396426929	-0.043077
C	-0.139331239	 4.0705883806	 0.1496257551	 0.027055
O	 0.4397320944	 3.8062584797	 1.4798783205	-0.285964
C	 1.564193161	 3.2060720636	 0.866596293	 0.091247
C	 1.1242810422	 3.5001875786	-0.5278165536	-0.184288
C	 1.198998521	 2.0526188859	-0.0791752642	-0.1895
H	-2.2144861565	 1.3058460641	-0.1322339972	 0.119492
H	-2.3470528669	 3.7921140072	-0.1025767643	 0.115636
H	-0.2814683035	 5.1449110961	 0.0217441791	 0.097254
H	 2.5140980722	 3.2508473692	 1.3845481164	 0.123373
H	 1.6336355459	 3.9018720924	-1.3928918849	 0.113151
H	 2.0689254874	 1.4983391803	-0.4177332754	 0.115748
120.8038	276.4845	343.5144	411.5878	449.3428	508.79	604.8082	676.1647	708.7881	734.509	797.646	819.6027	861.2822	877.7363	921.6453	950.205	991.5299	1013.6738	1016.1616	1033.6717	1066.0232	1083.4463	1089.8151	1167.4141	1237.6012	1248.0321	1268.7422	1322.9513	1346.5411	1394.6964	1404.3043	1677.3063	1764.8433	3098.3306	3169.4984	3170.797	3194.8396	3197.7717	3210.2231
O=C1C=CC2OC3C2C13	O=C1C=C[C@H]2O[C@@H]3[C@H]2[C@H]13	
InChI=1S/C7H6O2/c8-3-1-2-4-6-5(3)7(6)9-4/h1-2,4-7H	InChI=1S/C7H6O2/c8-3-1-2-4-6-5(3)7(6)9-4/h1-2,4-7H/t4-,5+,6-,7+/m1/s1
