19
gdb 40298	3.06768	1.42009	1.12572	1.8475	71.69	-0.2528	0.0841	0.3369	1106.6398	0.160464	-460.136816	-460.128969	-460.128025	-460.169108	30.505	
C	-0.2622105884	 1.5662635088	-0.0171120505	-0.239104
O	 1.0614522882	 1.0451758142	-0.1328946183	-0.270188
C	-0.018985087	 0.1199420835	 0.079674116	 0.421985
C	-0.0357670187	-0.5511859511	 1.4411069518	-0.268543
C	 0.6754380503	-1.9084643897	 1.473002687	-0.093965
O	-0.0356657249	-2.8468041184	 0.6681338268	-0.244863
C	 0.4298804979	-2.9704053711	-0.6489076967	 0.000137
O	 0.70158359	-1.7463057308	-1.2755504721	-0.235633
C	-0.3058796969	-0.752406677	-1.1304477952	-0.151917
H	-0.4687909325	 2.135287845	 0.8888158991	 0.111303
H	-0.6813206093	 1.9898704989	-0.9296476095	 0.111017
H	 0.4244637299	 0.1268262283	 2.1676655068	 0.107892
H	-1.0755826094	-0.7153970824	 1.750593085	 0.110554
H	 1.7180403245	-1.8150669733	 1.1451414621	 0.11895
H	 0.6693131824	-2.3055349081	 2.4929858483	 0.107128
H	 1.3797940299	-3.5223096406	-0.6981704163	 0.102377
H	-0.358702214	-3.5319885367	-1.1716411284	 0.098877
H	-1.3038292924	-1.2059937191	-1.0547286772	 0.10394
H	-0.2652427295	-0.1360189404	-2.0327424887	 0.110052
98.4242	160.7343	239.5129	275.5082	307.3052	336.778	398.9577	425.9058	469.3446	561.5858	636.0287	730.8052	837.999	854.2271	888.765	930.8961	957.4101	983.6586	1003.7246	1010.585	1086.2984	1106.85	1131.0977	1154.6141	1163.448	1172.9251	1232.4182	1261.2212	1284.1531	1307.9083	1330.2976	1359.9879	1381.4496	1397.5825	1438.128	1444.5751	1457.9006	1474.9183	1497.4901	1519.3445	1531.5091	2986.8237	3013.1685	3029.2063	3030.6152	3031.9739	3076.3134	3083.2693	3088.0072	3094.2116	3159.7004
C1OC11CCOCOC1	C1O[C@]21CCOCOC2	
InChI=1S/C6H10O3/c1-2-7-5-8-3-6(1)4-9-6/h1-5H2	InChI=1S/C6H10O3/c1-2-7-5-8-3-6(1)4-9-6/h1-5H2/t6-/m1/s1
