16
gdb 85345	2.86379	1.2429	0.91003	2.5712	79.99	-0.261	-0.0938	0.1672	1226.3764	0.124445	-400.808074	-400.799764	-400.79882	-400.841545	30.353	
C	-0.0954000317	 1.5591789912	 0.0603184333	-0.408426
C	 0.027352058	 0.0299293176	 0.0042844954	-0.101118
C	 0.8006165489	-0.5067977083	-1.2191030258	-0.358325
C	 1.9424755282	-1.3708789896	-0.665639945	 0.40029
O	 2.7535083219	-1.9900687679	-1.3095240975	-0.314438
C	 1.8598955676	-1.3004108822	 0.8152655417	-0.291305
C	 0.8148413891	-0.5400269956	 1.1819885949	 0.206393
C	 0.4306761061	-0.2649759962	 2.5237200963	 0.24414
N	 0.0878298902	-0.0210027014	 3.6029960039	-0.323709
H	 0.8919559128	 2.0313385912	 0.0263597718	 0.128483
H	-0.6770287242	 1.9231819532	-0.7913269926	 0.131221
H	-0.5962404502	 1.8831524956	 0.9773319274	 0.143875
H	-0.9835954018	-0.3947747476	 0.0376164951	 0.11301
H	 0.1816033473	-1.1076215067	-1.890777777	 0.144298
H	 1.2294180191	 0.3013795542	-1.8203378166	 0.143318
H	 2.5545873885	-1.8065550876	 1.4722252547	 0.142293
58.8545	119.2191	141.4793	238.9572	260.2971	319.7739	401.4484	453.4945	503.9794	557.0024	581.4718	613.1808	676.5432	780.4183	845.5163	890.4773	927.4127	939.9673	1035.8166	1077.2055	1105.9599	1142.3049	1178.4823	1211.1081	1255.8145	1282.8414	1319.6685	1336.5542	1412.5111	1451.3731	1496.8806	1499.4213	1648.3653	1819.6626	2335.4658	3029.6709	3038.9845	3063.633	3107.5526	3113.042	3118.6292	3234.394
CC1CC(=O)C=C1C#N	C[C@H]1CC(=O)C=C1C#N	
InChI=1S/C7H7NO/c1-5-2-7(9)3-6(5)4-8/h3,5H,2H2,1H3	InChI=1S/C7H7NO/c1-5-2-7(9)3-6(5)4-8/h3,5H,2H2,1H3/t5-/m0/s1
