18
gdb 118383	2.29926	0.96202	0.70526	5.1403	79.42	-0.2759	0.03	0.3059	1571.7362	0.144833	-401.917783	-401.90751	-401.906566	-401.953931	35.56	
C	-0.3667800653	 1.325275476	-0.8024988464	-0.232783
O	-0.2787440983	-0.0796815479	-0.8945330031	-0.23692
C	 0.8915421286	-0.6003002706	-0.3110281758	-0.073679
C	 0.8705417403	-2.1277836797	-0.4865667658	-0.188643
C	 0.8096561982	-2.4880100555	-1.9963102761	-0.341328
C	 0.6001579242	-3.9121764435	-2.2354760409	 0.267502
N	 0.421740397	-5.0382004709	-2.4227544198	-0.306289
C	 2.0239306138	-2.7293215213	 0.1726998879	 0.3156
C	 2.993432039	-3.1997855314	 0.7035436532	-0.444291
H	-0.3754100639	 1.6622976505	 0.2450560051	 0.113195
H	 0.4712702108	 1.8191777628	-1.3176666455	 0.111237
H	-1.3028956824	 1.6238054659	-1.2791549215	 0.135723
H	 1.7933350393	-0.179888523	-0.7869544901	 0.10068
H	 0.9415221228	-0.3589150775	 0.7616305915	 0.110274
H	-0.0494640514	-2.4968639955	-0.017293232	 0.137762
H	-0.0083330594	-1.9214410951	-2.4497038424	 0.171969
H	 1.7400097712	-2.178619849	-2.4849070765	 0.153727
H	 3.8384329056	-3.6358112045	 1.1769945583	 0.206265
61.9569	76.1437	105.3486	115.9638	156.9062	205.8389	232.1004	279.4361	324.4558	397.9175	430.6777	481.3915	526.4955	608.2388	647.2602	663.9649	820.432	899.759	969.7797	988.9962	1046.1561	1082.4469	1109.5713	1161.9395	1183.9839	1213.0136	1226.3758	1249.8267	1307.1151	1333.5121	1357.6092	1412.7389	1470.3877	1481.2696	1487.0132	1502.5054	1525.9561	2242.9918	2365.4247	2965.0125	2981.5866	3008.3716	3028.5381	3042.2641	3058.4317	3110.3745	3123.5867	3503.3581
COCC(CC#N)C#C	COC[C@@H](CC#N)C#C	
InChI=1S/C7H9NO/c1-3-7(4-5-8)6-9-2/h1,7H,4,6H2,2H3	InChI=1S/C7H9NO/c1-3-7(4-5-8)6-9-2/h1,7H,4,6H2,2H3/t7-/m1/s1
