21
gdb 53456	3.71558	0.53536	0.48428	0.2513	96.72	-0.2379	0.0482	0.286	2342.2635	0.178929	-349.913606	-349.901891	-349.900947	-349.954394	39.625	
C	 0.1102876405	 1.5466201527	-0.0070528228	-0.495787
C	 0.059707229	 0.0921506443	-0.0467796607	 0.062207
C	 0.0136882293	-1.109332575	-0.0793893977	 0.087444
C	-0.0341366402	-2.5733373796	-0.1196447146	-0.496821
C	-1.390890299	-3.1229765411	-0.0433381968	 0.034974
C	-2.5053760046	-3.5747009861	 0.0124179647	 0.114133
C	-3.8561724464	-4.1316379371	 0.1006101379	-0.12172
C	-3.8308432842	-5.6693224777	-0.0066095272	-0.373023
C	-4.5624484084	-3.6714835223	 1.3913375062	-0.373105
H	 0.6835980802	 1.9029430904	 0.8559529374	 0.146453
H	 0.5807615215	 1.9546516611	-0.9084913865	 0.146501
H	-0.8953392814	 1.9756033898	 0.0641021433	 0.148998
H	 0.4513738381	-2.9286579327	-1.039772694	 0.152684
H	 0.5706125053	-2.9803459976	 0.7032783823	 0.152468
H	-4.4341924666	-3.7471947356	-0.7516326744	 0.103222
H	-4.850019852	-6.0684957415	 0.0167783707	 0.110536
H	-3.3542951311	-5.9914531934	-0.9362130459	 0.121944
H	-3.2727858063	-6.1042289934	 0.8284598447	 0.122217
H	-4.6001924885	-2.5807304839	 1.4510921309	 0.124736
H	-5.586855396	-4.056725477	 1.4219628002	 0.109615
H	-4.0301587893	-4.0404971741	 2.2735747122	 0.122324
8.8525	17.076	48.5997	118.1727	136.5745	197.2579	222.4377	229.192	259.4738	294.6723	351.5948	364.5868	374.592	474.9436	525.0487	551.8354	715.9293	766.9573	882.9784	931.0242	931.715	964.0784	1052.9531	1054.7123	1058.4433	1120.8121	1143.1717	1165.946	1208.0762	1230.6248	1326.2169	1337.3127	1350.9668	1394.9988	1415.1596	1417.1039	1456.0305	1478.7679	1479.2916	1485.6238	1489.122	1498.2638	1510.1989	2368.907	2381.8937	2999.4498	3002.4871	3020.7488	3026.2726	3034.6253	3038.15	3086.3603	3087.33	3105.1323	3110.3245	3117.5863	3119.9681	8.8628	17.0436	48.6001	118.1733	136.5753	197.2577	222.4372	229.1936	259.4744	294.6701	351.5948	364.5878	374.5971	474.9432	525.0482	551.8344	715.9295	766.9574	882.9785	931.0238	931.7149	964.0781	1052.9541	1054.7133	1058.443	1120.8118	1143.1709	1165.946	1208.0754	1230.6249	1326.216	1337.3127	1350.9662	1394.998	1415.1604	1417.1031	1456.0306	1478.7693	1479.293	1485.6228	1489.1207	1498.2626	1510.1976	2368.9062	2381.8943	2999.4498	3002.4872	3020.7488	3026.2725	3034.6254	3038.1501	3086.3602	3087.3299	3105.1324	3110.3245	3117.5864	3119.9682
CC#CCC#CC(C)C	CC#CCC#CC(C)C	
InChI=1S/C9H12/c1-4-5-6-7-8-9(2)3/h9H,6H2,1-3H3	InChI=1S/C9H12/c1-4-5-6-7-8-9(2)3/h9H,6H2,1-3H3
