23
gdb 115512	3.50914	0.84766	0.81126	0.6876	82.42	-0.246	0.0809	0.3268	1543.6272	0.20577	-425.427246	-425.417282	-425.416338	-425.463185	36.586	
C	 0.2249261807	 0.7123263299	 0.6186740962	-0.23584
O	 0.10623168	-0.4937482264	-0.0962405976	-0.249957
C	 0.5556790727	-0.4215567901	-1.4472218345	 0.140355
C	 2.0910729128	-0.5081839456	-1.5480140603	-0.238069
C	 2.3663330099	-2.0123023839	-1.4238589036	-0.195241
C	 1.2699637976	-2.6484043506	-2.3021889177	 0.057775
C	 0.9434393803	-4.0898609896	-1.9443993469	-0.100058
O	 2.1131682668	-4.872429961	-2.1422166213	-0.425499
C	 0.0494073387	-1.6962295965	-2.160887458	-0.263661
H	 1.2692745825	 1.0355521077	 0.7429882696	 0.104446
H	-0.3277829256	 1.5299164705	 0.1281785722	 0.100891
H	-0.2035659726	 0.543888498	 1.6101973888	 0.124019
H	 0.1586019115	 0.4973550211	-1.90383274	 0.053205
H	 2.4077923872	-0.1424299744	-2.5333145964	 0.092732
H	 2.6014064457	 0.1010164063	-0.7968615823	 0.093905
H	 3.3733180983	-2.3048476685	-1.7271628679	 0.102125
H	 2.2296601751	-2.3215676407	-0.3807500027	 0.102635
H	 1.6154936258	-2.6414392029	-3.34346987	 0.074314
H	 0.6055346929	-4.1347468544	-0.8953532551	 0.087393
H	 0.1129549009	-4.4527659102	-2.5722457255	 0.081141
H	 1.9165918648	-5.7778036218	-1.8852740285	 0.285078
H	-0.7425146421	-2.1349599235	-1.546207552	 0.110677
H	-0.3885472738	-1.4581652531	-3.1337281566	 0.097637
22.7411	99.488	124.2748	161.8759	215.097	225.1804	266.5255	291.1477	348.8559	398.7589	422.4222	496.0768	591.4611	703.882	794.1331	824.2182	871.3035	900.6091	940.6228	974.1635	993.2138	1012.3193	1048.1326	1082.9402	1090.9551	1110.8476	1137.2589	1179.2075	1186.5212	1193.7134	1208.8139	1245.0313	1258.7208	1280.8567	1285.0534	1312.2072	1325.7814	1338.6225	1353.1383	1380.819	1396.58	1460.008	1473.442	1478.969	1479.6694	1492.3549	1495.3419	1510.9466	1521.6199	2955.3332	2970.09	2982.471	2985.707	3018.2216	3026.0472	3030.7878	3044.5194	3057.2165	3092.9368	3101.4414	3107.4412	3113.343	3831.0775
COC1CCC(CO)C1	CO[C@H]1CC[C@@H](CO)C1	
InChI=1S/C7H14O2/c1-9-7-3-2-6(4-7)5-8/h6-8H,2-5H2,1H3	InChI=1S/C7H14O2/c1-9-7-3-2-6(4-7)5-8/h6-8H,2-5H2,1H3/t6-,7+/m1/s1
