18
gdb 6622	7.3169	0.63946	0.60526	0.0579	96.74	-0.2252	0.0022	0.2274	1889.7411	0.151133	-310.641209	-310.63111	-310.630166	-310.678463	34.391	
C	-0.0102417161	 1.4992698205	 0.0240072106	-0.517558
C	 0.0042499457	 0.0473865608	 0.0083488566	 0.234013
C	 0.0163809697	-1.1629414212	-0.0048564502	-0.192362
C	 0.0309088402	-2.5232238978	-0.0195535264	-0.30035
C	 0.0423118242	-3.7345651465	-0.0352892759	 0.385899
C	 0.0514490997	-5.194291735	-0.0621819907	-0.165531
C	-1.3825772538	-5.7601091879	-0.0002073306	-0.37447
C	 0.8112270032	-5.7225438186	-1.2967310081	-0.374469
H	 1.0071956037	 1.9068597887	 0.0238634565	 0.154099
H	-0.5288744656	 1.9011898698	-0.8539471888	 0.154023
H	-0.520880939	 1.8819657406	 0.9151269934	 0.154093
H	 0.5868044371	-5.540722795	 0.8336407106	 0.109609
H	-1.3545427166	-6.8540816686	 0.0269957827	 0.113371
H	-1.908161039	-5.4041623603	 0.889476533	 0.12663
H	-1.9559171573	-5.4519935599	-0.8797336952	 0.126499
H	 1.834752089	-5.3401783651	-1.3224596692	 0.12663
H	 0.8491857175	-6.8163484458	-1.2755209242	 0.113373
H	 0.3094819772	-5.4130933687	-2.218528894	 0.1265
8.455	66.7437	75.8413	165.1941	185.7615	227.0916	263.9465	307.0379	322.0559	358.0453	468.2467	497.2384	547.1303	579.8215	603.7198	825.6826	931.3801	941.1022	963.8099	1048.3183	1048.5979	1108.8767	1116.7967	1178.2901	1279.3796	1319.3615	1354.2639	1394.776	1412.861	1417.4375	1472.8792	1473.1256	1485.5941	1488.4614	1498.4139	1509.8145	2275.3402	2385.0185	2999.9135	3022.2001	3037.1013	3040.6583	3083.2897	3083.4148	3108.8115	3114.0648	3121.3579	3123.1969
CC#CC#CC(C)C	CC#CC#CC(C)C	
InChI=1S/C8H10/c1-4-5-6-7-8(2)3/h8H,1-3H3	InChI=1S/C8H10/c1-4-5-6-7-8(2)3/h8H,1-3H3
