20
gdb 104240	2.57901	1.16416	0.99386	2.8126	79.17	-0.2737	0.0246	0.2983	1265.1004	0.170163	-403.154635	-403.144987	-403.144042	-403.189154	35.601	
C	-0.1739477577	 1.5480074837	 0.0483744107	-0.46975
C	-0.0720798695	 0.0247654071	-0.0083808592	 0.309026
C	-1.4273145172	-0.62155906	-0.3009512726	-0.131719
O	-1.9429984141	-0.2728783953	-1.5747402964	-0.41964
C	 1.1200670826	-0.4649975025	-0.888063678	-0.25408
C	 1.9715961587	-0.6754247437	 0.3897776434	-0.238507
C	 0.6637857123	-0.6050022801	 1.2386355948	-0.187713
C	 0.6860135424	 0.1340350741	 2.4880723629	 0.274826
N	 0.705715452	 0.7438943108	 3.4709467512	-0.338998
H	 0.7908990013	 2.0121509818	 0.2724057841	 0.131707
H	-0.5037914058	 1.9367556667	-0.9208073835	 0.115214
H	-0.881427861	 1.874485459	 0.8182062578	 0.132244
H	-1.3166185716	-1.7120071787	-0.3161041093	 0.105429
H	-2.1373282385	-0.3761259814	 0.5055099622	 0.097851
H	-2.2820787943	 0.625754368	-1.527444489	 0.289866
H	 0.8911480721	-1.4019660141	-1.4022531901	 0.111989
H	 1.5031688613	 0.2464518237	-1.6218205054	 0.109665
H	 2.5438528092	-1.6003414824	 0.4750654902	 0.117299
H	 2.6340223057	 0.1658815742	 0.6009528742	 0.127104
H	 0.2764711221	-1.6101653308	 1.435085782	 0.118187
69.9848	98.1305	146.865	170.6702	238.0379	245.5792	299.1753	322.7022	353.1724	372.2479	418.8967	531.9052	577.2863	645.7357	733.7625	795.582	884.182	903.1344	951.1202	953.9083	972.2681	984.9816	1051.7242	1075.2031	1099.613	1139.7174	1154.32	1188.6996	1227.8323	1251.0562	1267.7222	1295.3164	1305.8186	1352.8808	1384.9139	1409.198	1423.1173	1481.8882	1488.7761	1494.1826	1501.7429	1508.6378	2348.0717	2976.6895	3032.1057	3055.7082	3059.9663	3068.6109	3081.5155	3100.9602	3107.962	3118.1753	3139.2789	3832.195
CC1(CO)CCC1C#N	C[C@@]1(CO)CC[C@H]1C#N	
InChI=1S/C7H11NO/c1-7(5-9)3-2-6(7)4-8/h6,9H,2-3,5H2,1H3	InChI=1S/C7H11NO/c1-7(5-9)3-2-6(7)4-8/h6,9H,2-3,5H2,1H3/t6-,7-/m0/s1
