20
gdb 105034	2.1317	1.29116	1.08579	2.7372	75.99	-0.241	0.0238	0.2648	1230.7453	0.169386	-440.28577	-440.275748	-440.274804	-440.320924	36.125	
C	 0.5108893971	 0.7806900667	 0.6688157436	-0.361313
N	-0.3008106417	-0.2584343206	 0.041425413	-0.098657
C	-1.3630919926	-0.7853761218	 0.7205282074	 0.135583
O	-1.7140858754	-0.4660222431	 1.8376106316	-0.342631
C	-0.0095123412	-0.6713259126	-1.3111690457	 0.29293
C	-0.7666828544	 0.1005512841	-2.3824212319	-0.118307
O	-0.5500059723	 1.5018838839	-2.3250137268	-0.411794
C	 1.3950452105	-1.131022843	-1.6109350536	-0.298216
C	 0.2710617949	-2.1333234116	-1.5770956145	-0.300114
H	 1.4598690758	 0.3781881866	 1.0426987179	 0.126085
H	 0.7283523333	 1.567137687	-0.0562680818	 0.13763
H	-0.0505132371	 1.1813570183	 1.5134062116	 0.161603
H	-1.8844303652	-1.557754003	 0.1233954892	 0.076224
H	-0.4283646617	-0.2251661571	-3.3719582224	 0.108761
H	-1.8397399057	-0.1326187854	-2.3074953914	 0.096993
H	-1.0899139598	 1.8523669297	-1.6099409847	 0.293517
H	 1.8170510419	-0.8497979418	-2.5691725928	 0.126278
H	 2.1077671602	-1.1512309114	-0.7950030549	 0.125532
H	 0.2297119768	-2.8137423458	-0.7351028557	 0.128684
H	-0.0833948433	-2.5536931089	-2.5122661183	 0.121213
61.2631	102.0933	124.8383	136.3791	208.2877	230.6919	298.1649	308.1808	326.6495	344.0952	380.2119	452.4812	527.023	607.4889	781.4278	805.4039	865.6388	917.7049	950.1745	966.0272	1029.443	1033.2465	1053.656	1065.9275	1075.6625	1090.5349	1156.3218	1169.5815	1190.3419	1224.6374	1313.9591	1347.6366	1374.3348	1395.4751	1412.8699	1437.2667	1438.9699	1465.4943	1488.9995	1500.2112	1505.2776	1519.313	1792.0843	2949.6327	2990.2375	3030.7584	3072.389	3106.7964	3139.1339	3144.0829	3159.3432	3221.9642	3235.2328	3826.9695
CN(C=O)C1(CO)CC1	CN(C=O)C1(CO)CC1	
InChI=1S/C6H11NO2/c1-7(5-9)6(4-8)2-3-6/h5,8H,2-4H2,1H3	InChI=1S/C6H11NO2/c1-7(5-9)6(4-8)2-3-6/h5,8H,2-4H2,1H3
