15
gdb 66548	3.16803	1.74082	1.44503	2.1255	67.56	-0.2258	-0.0112	0.2146	895.6905	0.112845	-420.555913	-420.549374	-420.54843	-420.586652	26.831	
O	-0.0038572879	 1.3036351984	 0.0719516155	-0.462299
C	 0.0853782936	-0.0641834171	 0.0586219876	 0.412709
C	-1.0480621407	-1.0425241612	 0.1142865021	-0.163049
C	-0.2536968209	-0.9389262929	-1.1766175712	-0.153645
C	 0.622812712	-2.1777307761	-0.9094922595	-0.193567
C	 0.0166398821	-2.097800109	 0.5558504054	-0.043356
C	 1.1090405854	-0.9679654765	 0.7910532122	-0.27392
C	 1.9404359136	-1.6385378343	-0.3172009684	 0.431112
O	 3.1044378491	-1.825733468	-0.5188644588	-0.326192
H	 0.6503917023	 1.667744675	-0.5360633984	 0.292174
H	-2.101976748	-0.9181350268	 0.318669296	 0.1057
H	-0.5401991706	-0.4909680996	-2.1189374627	 0.099351
H	 0.5778363701	-3.0447402345	-1.5645811423	 0.088815
H	-0.1058346617	-2.9501272318	 1.2163324377	 0.093315
H	 1.5026237316	-0.6706727055	 1.7597057948	 0.092852
124.2261	263.4029	317.8341	363.2963	423.9707	558.5893	578.0578	607.765	702.2414	746.7388	781.6879	801.8345	819.0237	876.279	880.2217	905.7274	927.8183	942.0641	973.3615	1000.9701	1043.1924	1078.9599	1114.8706	1126.6722	1153.7657	1162.3274	1198.8531	1215.5517	1233.9272	1279.8407	1302.8122	1457.8565	1886.7382	3147.2224	3158.8456	3171.6388	3203.9365	3220.7017	3780.2665
OC12C3C1C1C3C2C1=O	O[C@@]12[C@H]3[C@@H]1[C@@H]1[C@H]3[C@H]2C1=O	
InChI=1S/C7H6O2/c8-6-2-1-3-4(2)7(3,9)5(1)6/h1-5,9H	InChI=1S/C7H6O2/c8-6-2-1-3-4(2)7(3,9)5(1)6/h1-5,9H/t1-,2+,3-,4+,5+,7+/m1/s1
