22
gdb 60151	4.37237	0.72908	0.72134	2.5633	84.38	-0.2297	-0.0232	0.2065	1673.1867	0.191679	-404.345997	-404.335981	-404.335037	-404.381481	36.707	
C	 0.8503289812	-0.3543226308	-1.2721870464	-0.39046
C	-0.0852734014	-0.2612150262	-0.0604385789	 0.029079
C	-1.3121914368	-1.1660409797	-0.2253930231	-0.375919
C	 0.6813301995	-0.5837208168	 1.2307846219	-0.137599
N	-0.1136194545	-0.3595479615	 2.4253408945	-0.081563
C	-0.368936075	 1.0420035621	 2.8370765598	-0.29153
C	-0.0207872821	 0.6226996114	 4.2728759144	 0.391425
O	-0.1203689598	 1.1206808763	 5.352251207	-0.279003
C	 0.4923566323	-0.7182141751	 3.7282889254	-0.286555
H	 1.2474312777	-1.370595754	-1.3831223589	 0.113445
H	 0.3203834759	-0.1051699735	-2.1967859707	 0.114264
H	 1.702116238	 0.3278091702	-1.1788488465	 0.110498
H	-0.4344501217	 0.7791477826	 0.016022228	 0.075673
H	-1.0067465351	-2.2093849677	-0.3721260489	 0.108081
H	-1.9478656935	-1.1263677153	 0.6623747722	 0.12658
H	-1.9064980716	-0.8694849298	-1.0956078011	 0.10754
H	 0.9762410638	-1.6413037459	 1.2190596641	 0.101148
H	 1.6195921374	 0.0080092861	 1.2575282482	 0.069427
H	 0.3609485547	 1.7719495188	 2.4462690981	 0.115275
H	-1.3801038014	 1.4185088982	 2.6522074125	 0.133192
H	 0.110827492	-1.6338927268	 4.1924900205	 0.13201
H	 1.5951793004	-0.7506936625	 3.7265624378	 0.114993
58.8738	72.1639	99.3183	160.8558	210.6429	235.0018	283.7941	325.0018	359.6221	419.8315	428.448	437.8863	499.6315	674.0452	766.0311	777.6049	830.367	914.7322	930.2619	953.6054	962.074	972.4714	1029.9575	1060.108	1086.5048	1097.3354	1139.8075	1161.0204	1193.9425	1197.498	1217.8377	1252.3408	1289.5754	1308.8118	1335.5976	1369.7746	1396.5817	1402.0147	1423.8686	1458.0914	1476.6357	1487.2974	1489.359	1499.5405	1502.2897	1512.6293	1921.5347	2889.57	2961.6998	2971.9241	2994.752	3023.9707	3029.0541	3038.1236	3067.5173	3072.152	3087.8624	3093.5375	3101.7331	3123.4387
CC(C)CN1CC(=O)C1	CC(C)CN1CC(=O)C1	
InChI=1S/C7H13NO/c1-6(2)3-8-4-7(9)5-8/h6H,3-5H2,1-2H3	InChI=1S/C7H13NO/c1-6(2)3-8-4-7(9)5-8/h6H,3-5H2,1-2H3
