14
gdb 128591	7.08416	0.90077	0.80321	4.1997	69.05	-0.2431	-0.0707	0.1724	1339.0699	0.100386	-469.998557	-469.990467	-469.989522	-470.03185	28.067	
C	 0.0075324125	 1.427554451	-0.0315980882	-0.243366
O	-0.0061325339	-0.0033109236	 0.0134916519	-0.267373
C	 0.5775629221	-0.6290101316	-1.0099493689	 0.411331
C	 0.6937601197	-1.9803688077	-1.1962173919	-0.210408
N	 1.3688670936	-2.0815128337	-2.3885742479	 0.003242
C	 1.7502108082	-3.2721306195	-3.0458598594	 0.200916
O	 2.3370965216	-3.316087145	-4.0838986029	-0.236426
N	 1.645577323	-0.8506388578	-2.895780575	-0.112674
N	 1.1685155657	 0.0193222883	-2.0642679213	-0.248346
H	 1.0325666699	 1.8092394818	-0.0427780322	 0.144293
H	-0.5166954723	 1.7964372036	-0.9179569022	 0.144263
H	-0.506356183	 1.7522257488	 0.8733218686	 0.137079
H	 0.375755279	-2.8316906118	-0.6217073503	 0.164262
H	 1.4277133139	-4.1538083327	-2.4636090001	 0.113207
70.2756	113.276	170.9062	171.8939	230.5022	281.5083	366.7858	411.2392	591.7184	652.8014	699.7436	707.4171	759.9252	802.9691	991.285	1017.3453	1024.6875	1065.1154	1178.592	1184.6823	1203.2398	1231.2067	1297.6235	1396.5712	1412.5161	1459.5049	1480.0106	1482.9991	1499.7903	1653.5791	1859.8151	2981.8258	3042.6517	3114.8976	3155.3315	3300.0561
COC1=CN(C=O)N=N1	COc1cn(C=O)nn1	
InChI=1S/C4H5N3O2/c1-9-4-2-7(3-8)6-5-4/h2-3H,1H3	InChI=1S/C4H5N3O2/c1-9-4-2-7(3-8)6-5-4/h2-3H,1H3
