17
gdb 18613	2.89796	2.37083	1.84357	2.3847	68.69	-0.2209	-0.0025	0.2185	795.0234	0.142555	-363.823931	-363.816526	-363.815582	-363.855112	28.534	
C	-0.2100433738	 1.5066446554	-0.1620096287	-0.302301
N	 0.0512676375	 0.0873354997	 0.033385262	-0.089395
C	 1.3717162651	-0.5227939877	-0.162138052	-0.077828
C	 2.572479975	 0.3715608124	-0.1097775324	-0.077796
C	 2.6958244671	 0.9457360152	 1.0872773446	-0.132317
C	 1.6383586496	 0.4504126808	 2.0636473975	 0.073127
O	 0.8771143753	 1.4805646968	 2.6881129286	-0.428996
C	 0.7392544342	-0.4398558917	 1.1981315081	-0.051585
H	 0.6131616379	 2.1759278955	 0.112805866	 0.111199
H	-0.4589532848	 1.664846388	-1.2168015099	 0.109611
H	-1.0787840397	 1.7786223286	 0.4429679194	 0.128546
H	 1.3847866445	-1.4247548883	-0.767485046	 0.089513
H	 3.2089875959	 0.5539205646	-0.9685180466	 0.101493
H	 3.429689324	 1.6963387948	 1.3643021121	 0.093622
H	 2.1068845294	-0.1817911186	 2.8367814148	 0.07755
H	 1.4720512514	 1.9958472029	 3.2422134828	 0.284388
H	 0.2567462815	-1.2851472984	 1.6797879698	 0.091168
149.9484	191.3865	208.2411	240.2505	292.5891	328.3364	466.2354	542.6943	576.7974	690.2353	742.3658	769.1551	830.9667	842.5649	902.0692	944.2845	965.5695	999.8733	1043.5294	1067.6046	1099.5181	1112.9893	1140.1052	1157.5257	1177.6007	1219.6071	1301.9755	1309.8226	1328.5576	1361.1287	1394.2936	1412.8516	1452.0383	1483.6748	1500.8698	1671.3477	2952.4402	3021.6737	3083.7913	3113.6489	3142.4596	3151.0975	3172.1535	3202.1141	3816.2772
CN1C2C=CC(O)C12	CN1[C@H]2C=C[C@@H](O)[C@@H]12	
InChI=1S/C6H9NO/c1-7-4-2-3-5(8)6(4)7/h2-6,8H,1H3	InChI=1S/C6H9NO/c1-7-4-2-3-5(8)6(4)7/h2-6,8H,1H3/t4-,5+,6-,7?/m0/s1
