18
gdb 14970	4.39278	1.36872	1.08826	2.438	70.52	-0.2314	0.0304	0.2618	1078.3369	0.154406	-384.938736	-384.93074	-384.929796	-384.971284	29.422	
O	 0.0676139736	 1.4262020005	-0.0258701782	-0.414309
C	 0.0127332795	 0.0130665454	 0.000138156	-0.153986
C	-1.4125328615	-0.4630816267	 0.0036397031	 0.272387
C	-2.4570554871	 0.3621365535	 0.036600074	-0.151261
C	-3.8759752903	-0.1322297277	 0.0100943243	-0.121105
O	-3.995445466	-1.5131471116	-0.2799376842	-0.246762
C	-3.0461568771	-2.2958671318	 0.4196325928	-0.079301
C	-1.6212936014	-1.9591074951	-0.025594545	-0.297313
H	 0.9914686147	 1.6897756379	-0.0091515404	 0.289986
H	 0.5315742372	-0.4250734544	-0.8719623103	 0.093046
H	 0.5246209287	-0.3903805662	 0.8927589172	 0.09169
H	-2.3063724233	 1.4352634619	 0.0847018812	 0.108022
H	-4.3698330677	 0.1020383576	 0.9723875204	 0.093233
H	-4.44732241	 0.38873173	-0.7679452142	 0.115901
H	-3.1415548736	-2.1368850857	 1.5069563154	 0.086918
H	-3.2940859038	-3.3400696845	 0.2087161374	 0.103944
H	-1.4416388876	-2.3513659033	-1.0360882521	 0.113629
H	-0.9009016643	-2.4628537196	 0.6339023024	 0.09528
77.975	130.7875	210.433	218.639	243.5269	305.9864	380.293	438.5812	514.9711	550.1695	717.9529	791.0404	831.7337	866.5048	940.9395	987.9023	1027.5257	1032.7128	1044.9349	1081.8689	1102.6103	1154.3563	1168.2518	1220.4706	1229.9948	1257.0563	1264.5078	1307.0167	1330.3263	1375.3612	1385.9699	1422.5903	1461.6573	1471.2055	1487.8769	1501.5292	1508.6152	1752.5744	2924.0911	2933.3327	2945.8283	2965.482	3007.2203	3038.253	3044.4139	3084.5253	3193.6699	3843.2823
OCC1=CCOCC1	OCC1=CCOCC1	
InChI=1S/C6H10O2/c7-5-6-1-3-8-4-2-6/h1,7H,2-5H2	InChI=1S/C6H10O2/c7-5-6-1-3-8-4-2-6/h1,7H,2-5H2
