22
gdb 112977	5.01537	0.7896	0.7417	1.2056	84.47	-0.2293	0.0798	0.3091	1605.9446	0.193447	-404.29284	-404.283479	-404.282535	-404.327628	34.701	
C	 0.5812218032	 1.5529167428	-0.6766270134	-0.239525
O	-0.2300329704	 0.4050239357	-0.5789344813	-0.239052
C	 0.4468048805	-0.7794958231	-0.9043170886	 0.177315
C	 1.4299315281	-1.3912055118	 0.1388734425	-0.274206
C	 0.7945783107	-2.7782106917	-0.1549596596	 0.03728
C	-0.4204208414	-2.0480399297	-0.7898464575	-0.277485
N	 1.558571109	-3.5025838828	-1.1603134822	-0.060583
C	 2.524727286	-4.4738469181	-0.659285981	-0.223729
C	 1.2564520199	-4.9227135346	-1.2994695627	-0.223341
H	 1.4330075901	 1.5172694246	 0.0196541301	 0.105943
H	 0.9778008884	 1.6856036635	-1.6958296376	 0.103365
H	-0.0408272687	 2.415522631	-0.4251293666	 0.124036
H	 0.9227954717	-0.69494582	-1.8916285593	 0.074732
H	 2.5040557699	-1.298404526	-0.0337692563	 0.099961
H	 1.1811078145	-1.0415419443	 1.1448918086	 0.102429
H	 0.575661563	-3.4051830927	 0.7242502586	 0.050944
H	-1.2187790402	-1.8872483341	-0.0608637741	 0.108633
H	-0.8346548489	-2.473855194	-1.705546093	 0.103436
H	 3.4665755953	-4.5299352967	-1.1975077584	 0.115311
H	 2.6071992068	-4.601305734	 0.419264923	 0.10924
H	 0.4958419125	-5.3484644872	-0.6464653231	 0.10957
H	 1.25585394	-5.3123335368	-2.313411278	 0.115725
63.0135	75.3805	111.0453	173.8121	211.139	259.0884	298.0954	309.2811	430.7018	473.6608	494.0821	673.9632	725.0866	811.8977	827.0954	896.7099	907.6162	936.3405	947.7818	992.6147	1004.3871	1045.4722	1065.4394	1096.5813	1105.6349	1116.144	1117.822	1166.1364	1173.0837	1173.1753	1186.6418	1205.2095	1224.2739	1251.7298	1267.1165	1272.8825	1303.1922	1323.1797	1372.959	1390.5205	1455.8026	1478.0007	1485.6476	1490.7686	1492.215	1509.8687	1519.5328	2957.6281	2971.7241	3001.8384	3018.0848	3060.3412	3070.6779	3092.5568	3096.9505	3111.7101	3123.8029	3130.5312	3175.6117	3189.9553
COC1CC(C1)N1CC1	CO[C@H]1C[C@@H](C1)N1CC1	
InChI=1S/C7H13NO/c1-9-7-4-6(5-7)8-2-3-8/h6-7H,2-5H2,1H3	InChI=1S/C7H13NO/c1-9-7-4-6(5-7)8-2-3-8/h6-7H,2-5H2,1H3/t6-,7-
