12
gdb 21389	5.54799	2.21909	1.58509	1.7521	60.32	-0.2176	0.009	0.2266	722.1667	0.087807	-377.533665	-377.528259	-377.527315	-377.562959	21.284	
N	 0.0024024735	 1.2965993542	 0.0095672301	-0.355183
N	 1.2611486579	 1.8389301771	 1.0116*^-6	-0.223153
C	 2.1063583237	 0.8105789064	-0.013941173	-0.154721
C	 1.4141458639	-0.4276544029	-0.013795992	 0.19058
C	 0.0898775256	-0.0451099089	 0.0014247794	 0.466622
O	-0.7831963142	-1.062182727	 0.0045853546	-0.219429
C	 0.0398821015	-2.192324066	-0.0097281366	-0.009593
C	 1.3585313207	-1.8702548854	-0.0210671615	-0.357371
H	-0.7993816768	 1.9012192354	 0.0208062231	 0.281178
H	 3.167438001	 1.0099431942	-0.0233880413	 0.117053
H	-0.4936409696	-3.1276498849	-0.00950762	 0.141438
H	 2.1715642428	-2.5789843521	-0.0329813044	 0.122579
223.2114	324.6065	395.163	467.4721	586.9546	655.4002	692.3931	707.7295	752.1073	761.0282	826.3739	872.1783	904.58	975.0786	1018.0706	1059.1676	1132.593	1177.0529	1245.344	1299.6416	1333.9748	1421.0326	1483.1096	1536.2699	1581.5703	1614.9136	3249.5697	3258.3955	3293.0264	3694.9078
N1N=CC2=C1OC=C2	[nH]1ncc2c1occ2	
InChI=1S/C5H4N2O/c1-2-8-5-4(1)3-6-7-5/h1-3H,(H,6,7)	InChI=1S/C5H4N2O/c1-2-8-5-4(1)3-6-7-5/h1-3H,(H,6,7)
