16
gdb 93471	2.51838	1.57297	1.14733	1.8645	67.92	-0.2566	-0.0137	0.2429	1059.0527	0.127252	-471.254756	-471.246793	-471.245849	-471.287479	29.905	
N	 0.0302871276	 1.4433163817	 0.1277789411	-0.516718
C	-0.0005481427	-0.0158868391	 0.0017186634	-0.037846
C	-1.4373533765	-0.501109468	-0.0895500435	-0.089997
O	-2.0392944312	-0.1022448589	-1.3379241348	-0.242764
C	-1.3795408727	-0.3671359508	-2.4843557072	 0.465541
O	-1.9220588396	-0.3235746594	-3.5544362361	-0.367694
N	-0.0266089729	-0.673563859	-2.3469307473	-0.414829
C	 0.7649805283	-0.5346527392	-1.205660273	 0.371383
N	 2.0143634665	-0.758384201	-1.1324657925	-0.521965
H	 0.9929469971	 1.7639838103	 0.0825818447	 0.246977
H	-0.4636753001	 1.8745391066	-0.6488800729	 0.24029
H	 0.4706727729	-0.4460291808	 0.8893758973	 0.122126
H	-1.490551356	-1.5921505219	-0.000751547	 0.12738
H	-2.052003364	-0.0410462998	 0.684454847	 0.143951
H	 0.4204997937	-0.8881664055	-3.2278637515	 0.262997
H	 2.4098501295	-1.0504065154	-2.0292685177	 0.21117
85.9212	119.5617	194.9868	258.4916	292.5884	353.8658	387.194	477.535	535.2741	584.1893	628.5785	703.5188	739.53	772.0438	862.742	873.5777	884.027	921.1151	930.5709	1030.3222	1084.5791	1136.5065	1150.6885	1205.9574	1243.6787	1288.8934	1329.2511	1397.4794	1404.9102	1416.2672	1423.1885	1498.3178	1655.0717	1739.6222	1861.1855	3047.8792	3087.5042	3138.6839	3441.2654	3492.7902	3575.9122	3601.7196
NC1COC(=O)NC1=N	N[C@H]1COC(=O)N[C]1[NH]	
InChI=1S/C4H7N3O2/c5-2-1-9-4(8)7-3(2)6/h2H,1,5H2,(H2,6,7,8)	InChI=1S/C4H7N3O2/c5-2-1-9-4(8)7-3(2)6/h2H,1,5H2,(H2,6,7,8)/t2-/m0/s1
