19
gdb 112775	2.28591	1.24891	0.9071	4.538	77.35	-0.2457	0.0105	0.2562	1322.5154	0.158345	-419.192145	-419.182678	-419.181734	-419.226846	34.243	
C	-0.1180584479	 1.5330526362	 0.064434979	-0.388056
C	 0.0229031849	 0.0171087442	-0.0420480862	-0.13074
N	 0.806082588	-0.5243903481	 1.0551276506	-0.075546
C	 2.260779173	-0.2662636779	 1.1227358021	-0.216663
C	 2.4541699231	-1.6885199685	 1.7085520033	 0.134752
O	 2.5557154032	-1.779386513	 3.0969107927	-0.417158
C	 1.032899739	-1.9807314941	 1.1005342182	-0.188628
C	 0.0797094332	-2.7413966349	 1.9030384463	 0.305291
N	-0.6688481147	-3.3347286432	 2.5536232612	-0.32535
H	 0.8584973874	 2.0265103863	 0.019105591	 0.122373
H	-0.7236278915	 1.9190752124	-0.7604546338	 0.122302
H	-0.5958246306	 1.8101960471	 1.0082037123	 0.131939
H	-0.9666284898	-0.4534589728	-0.0049149048	 0.119594
H	 0.4707427536	-0.2513025084	-1.0193510447	 0.079888
H	 2.7339777122	-0.1546116225	 0.1332236796	 0.095106
H	 2.5588504426	 0.5690688642	 1.7632259529	 0.116825
H	 3.2660504329	-2.2859626873	 1.294798585	 0.111016
H	 1.8253256472	-1.2879515221	 3.4919961878	 0.298319
H	 1.120407384	-2.4457036577	 0.1043615276	 0.104736
74.6735	84.3277	124.6113	169.3171	194.4447	240.4622	330.1886	364.7297	382.1684	399.2375	423.529	565.3249	581.8133	724.5037	810.736	815.3367	861.621	925.9221	973.2771	1010.2106	1026.7772	1056.1697	1105.1182	1138.4745	1157.953	1182.5786	1202.6183	1245.0562	1245.9267	1293.6985	1313.367	1330.9531	1362.0966	1396.7518	1416.6563	1441.7009	1489.7758	1492.4338	1505.3331	1516.1754	2357.0233	2910.2165	2963.4069	2972.8577	3041.2433	3053.7356	3079.1298	3110.0437	3123.2536	3125.1794	3793.1901
CCN1CC(O)C1C#N	CCN1C[C@@H](O)[C@H]1C#N	
InChI=1S/C6H10N2O/c1-2-8-4-6(9)5(8)3-7/h5-6,9H,2,4H2,1H3	InChI=1S/C6H10N2O/c1-2-8-4-6(9)5(8)3-7/h5-6,9H,2,4H2,1H3/t5-,6-/m1/s1
