25
gdb 120888	5.20054	0.66442	0.64449	0.2141	94.69	-0.2591	0.0882	0.3473	1889.2018	0.228565	-352.341629	-352.331661	-352.330717	-352.377128	37.859	
C	 0.094891358	 1.5969706966	-0.0046885741	-0.379426
C	 0.1369384141	 0.0664230456	-0.0189150198	-0.16159
C	 0.6396427322	-0.5356541637	 1.2985562511	-0.189388
C	 0.7012942886	-2.0571676546	 1.2907731801	 0.056067
C	 1.7769657558	-2.7561408369	 0.3989348258	-0.3109
C	 2.0795097145	-3.6913836463	 1.5767101825	 0.3905
C	 1.9926457594	-5.1900584112	 1.5416627805	-0.315849
C	 3.3090842556	-4.5044395967	 1.839941895	-0.330748
C	 1.3047978642	-2.7780526491	 2.5353611553	-0.329602
H	 1.0904517556	 2.0183154458	 0.1745724258	 0.112629
H	-0.2692344539	 1.9974917386	-0.9560909722	 0.109477
H	-0.565844477	 1.9671479392	 0.7872988302	 0.112422
H	-0.8654728844	-0.3264475438	-0.2355851279	 0.09248
H	 0.779408261	-0.2746608736	-0.8411898172	 0.098784
H	 1.6398057307	-0.1370092227	 1.522678391	 0.086373
H	-0.0098396953	-0.2032727781	 2.1211385103	 0.089361
H	-0.2906670793	-2.4654579794	 1.0661096413	 0.066936
H	 1.4352820048	-3.2186486808	-0.5314150414	 0.094032
H	 2.6142086552	-2.086545906	 0.1675056379	 0.092426
H	 1.4839848957	-5.6947253364	 2.3575576556	 0.107535
H	 1.8774629334	-5.6758393871	 0.5773780168	 0.107449
H	 4.0816442108	-4.5282471849	 1.077333827	 0.107267
H	 3.6877552719	-4.5467402206	 2.8566902764	 0.107484
H	 1.9628892067	-2.1164850237	 3.1110032124	 0.092905
H	 0.6023869115	-3.2554802101	 3.2248428579	 0.093376
43.7442	84.8642	96.6054	146.6851	246.0634	270.1602	275.4469	292.8994	358.5636	401.6765	436.0256	546.4305	736.416	745.8352	774.6847	816.7963	844.7203	870.1076	896.0833	904.4618	911.3654	923.854	979.2325	994.7027	1030.5032	1047.0622	1050.6697	1073.7804	1080.6902	1092.6268	1136.8785	1168.6284	1187.0325	1219.547	1234.1187	1247.221	1250.4496	1267.7556	1286.2346	1314.8233	1331.8922	1366.3737	1384.3252	1401.9566	1414.2929	1463.9564	1473.8004	1480.8294	1492.3438	1497.5783	1500.4998	1504.6936	1510.3793	2995.7229	3015.151	3021.2376	3027.4997	3028.5352	3032.8803	3038.4426	3053.486	3085.229	3088.7454	3094.821	3099.9002	3116.0565	3120.6555	3193.2232	3208.558
CCCC1CC2(CC2)C1	CCCC1CC2(CC2)C1	
InChI=1S/C9H16/c1-2-3-8-6-9(7-8)4-5-9/h8H,2-7H2,1H3	InChI=1S/C9H16/c1-2-3-8-6-9(7-8)4-5-9/h8H,2-7H2,1H3
