20
gdb 98310	3.86034	0.96621	0.83099	2.2503	78.09	-0.2223	0.0616	0.2839	1435.5626	0.169743	-440.301239	-440.291123	-440.290179	-440.337253	35.42	
C	 0.2352037281	 1.3751246059	 0.144129457	-0.232764
O	 0.0452336829	-0.0333713134	-0.0012790029	-0.267925
C	 0.6025150341	-0.5608896563	-1.1232526457	 0.525785
O	 1.1913043561	 0.1074686401	-1.9485819493	-0.429773
N	 0.4124579485	-1.9134001133	-1.1941056697	-0.161514
C	-0.3339966497	-2.6580362755	-0.1938294883	-0.348384
C	 0.8859738227	-2.5749314732	-2.3864639206	 0.076326
C	 1.6881085805	-3.848082603	-2.3409646055	-0.286427
C	 0.2755315823	-3.8516283506	-2.894039447	-0.300152
H	 1.2982891495	 1.6224659027	 0.2035410683	 0.137697
H	-0.2021798967	 1.9164726255	-0.698371815	 0.138927
H	-0.2694343433	 1.6447453485	 1.0727654581	 0.126
H	-1.3738993947	-2.8301047237	-0.500306094	 0.12637
H	 0.1373405716	-3.6304543246	-0.0210063033	 0.126575
H	-0.3340718025	-2.1084075793	 0.7439595421	 0.158212
H	 1.1826756283	-1.8394296694	-3.1208196372	 0.13855
H	 2.5247845754	-3.9436951712	-3.0238333623	 0.121115
H	 1.844019092	-4.3283383896	-1.380969326	 0.115775
H	-0.4847258042	-4.3410061686	-2.296348332	 0.115837
H	 0.1260735891	-3.9515811111	-3.9633857666	 0.11977
37.9716	96.3673	108.5449	133.1872	151.2964	189.4147	194.8692	301.7343	352.9914	387.0449	429.2145	523.7078	638.4213	762.3113	769.7579	801.0476	815.7702	878.6044	932.6924	988.2585	1055.5994	1071.5692	1073.9412	1106.8805	1147.5032	1153.3528	1182.8121	1185.3531	1196.5729	1211.2993	1231.8517	1321.4949	1360.1347	1441.459	1460.2824	1467.2295	1480.809	1487.1374	1497.3307	1505.0257	1507.8949	1532.3194	1789.9884	3018.3795	3050.0972	3082.84	3124.3591	3136.5656	3141.0414	3150.8163	3179.3128	3214.6696	3217.2546	3232.2919
COC(=O)N(C)C1CC1	COC(=O)N(C)C1CC1	
InChI=1S/C6H11NO2/c1-7(5-3-4-5)6(8)9-2/h5H,3-4H2,1-2H3	InChI=1S/C6H11NO2/c1-7(5-3-4-5)6(8)9-2/h5H,3-4H2,1-2H3
