16
gdb 18039	3.96562	2.15648	1.57265	1.7485	64.14	-0.2209	0.02	0.2409	800.5796	0.134284	-379.899752	-379.893379	-379.892435	-379.930476	24.467	
C	 0.0180040552	 1.5402048455	-0.182132636	-0.183374
N	 1.4962606625	 1.5287681152	 0.0821197382	-0.327526
C	 1.4074810474	 0.1208819568	 0.5740375466	-0.052308
C	 1.4622258234	 0.0683536854	 2.1017725824	-0.073779
O	 0.5795855305	-0.9319157083	 2.6403116011	-0.223133
C	-0.6668376903	-0.9502640685	 2.1097893793	 0.125328
N	-1.0669001828	-0.4981568236	 0.9959811714	-0.2758
C	-0.0612163111	 0.0138975038	 0.0941963416	 0.033296
H	-0.5160492857	 2.1426516527	 0.5594995712	 0.114716
H	-0.2765948548	 1.8736453817	-1.180988081	 0.106961
H	 2.0163000487	 1.5718409868	-0.7874609634	 0.222306
H	 2.1192604889	-0.5778088789	 0.1261295426	 0.07587
H	 2.4546347743	-0.1737387975	 2.4864884481	 0.119856
H	 1.1633397765	 1.0451381485	 2.4988825041	 0.124205
H	-1.3578486056	-1.4465530596	 2.7896427402	 0.122801
H	-0.140625277	-0.54519519	-0.8436939765	 0.090581
93.1274	159.3918	318.2214	370.1742	486.0092	533.2096	560.2489	676.1541	773.0783	813.8043	875.218	917.7542	933.9275	964.8811	977.1255	993.6523	1014.2047	1073.1366	1101.6863	1126.4594	1161.4075	1188.1006	1244.5147	1262.0526	1277.8126	1316.9574	1341.6731	1350.4476	1380.519	1412.9656	1417.0073	1502.6011	1510.3036	1713.9301	3043.2205	3045.9181	3047.0328	3066.8029	3097.6127	3117.1488	3152.5775	3531.9449
C1NC2COC=NC12	C1N[C@H]2COC=N[C@@H]12	
InChI=1S/C5H8N2O/c1-4-5(6-1)2-8-3-7-4/h3-6H,1-2H2	InChI=1S/C5H8N2O/c1-4-5(6-1)2-8-3-7-4/h3-6H,1-2H2/t4-,5-/m0/s1
