20
gdb 105265	2.53775	1.25949	1.00169	1.0416	75.33	-0.2258	0.0664	0.2922	1250.6346	0.169199	-440.213995	-440.204397	-440.203453	-440.248731	35.248	
C	 0.1817407661	 1.9224765695	 0.4481277067	-0.335406
N	-0.2028605243	 0.5319486468	 0.6789383812	-0.117209
C	 0.5335750817	-0.5084225569	-0.0281904818	-0.291123
C	 0.6813273599	-0.345891587	 1.4495237016	 0.252853
C	 2.0057540506	 0.1499346255	 2.0409144558	-0.161629
O	 2.9638043664	 0.6088509159	 1.0994032383	-0.407081
C	-0.0788776843	-1.213754038	 2.4193712524	 0.02239
C	-0.5783467472	-2.5560103601	 2.1029494965	-0.167672
O	 0.5926585932	-2.3844127678	 2.9034049156	-0.242916
H	 1.256279534	 2.0693618865	 0.2836807071	 0.137024
H	-0.3646605235	 2.2886083198	-0.4267408064	 0.120799
H	-0.1281400235	 2.524994941	 1.3084348093	 0.11864
H	-0.0607109356	-1.3155958609	-0.4480763274	 0.109179
H	 1.3783746256	-0.1950409235	-0.6387016226	 0.10591
H	 1.8137030398	 1.0009989302	 2.7050432923	 0.117666
H	 2.4143886473	-0.6598953669	 2.6583997887	 0.12406
H	 3.3131311722	-0.1613424015	 0.6398989188	 0.286452
H	-0.6021787213	-0.6545906155	 3.1976084761	 0.097767
H	-1.45170888	-2.9410909418	 2.6276900049	 0.115949
H	-0.407658797	-2.9790071252	 1.115431403	 0.114346
47.3392	102.1811	163.6834	197.658	207.8549	229.356	284.2526	328.1315	339.6395	440.658	448.206	462.9604	581.1239	699.2061	784.5617	852.3843	866.0383	913.9731	956.8123	1002.6201	1012.0717	1062.3579	1072.2315	1101.7761	1129.2956	1143.457	1157.5055	1168.4968	1172.4244	1206.0511	1226.4285	1248.7422	1294.488	1369.592	1402.3141	1421.4518	1437.2448	1448.4165	1489.9873	1500.3638	1509.104	1514.6226	1526.9757	3017.358	3022.9155	3066.7845	3086.6711	3087.9247	3092.8582	3096.0122	3098.9964	3175.3881	3181.6921	3819.2357
CN1CC1(CO)C1CO1	CN1C[C@]1(CO)[C@H]1CO1	
InChI=1S/C6H11NO2/c1-7-3-6(7,4-8)5-2-9-5/h5,8H,2-4H2,1H3	InChI=1S/C6H11NO2/c1-7-3-6(7,4-8)5-2-9-5/h5,8H,2-4H2,1H3/t5-,6+,7?/m1/s1
