17
gdb 27096	3.13942	1.18853	0.90469	2.6831	78.3	-0.2051	0.0146	0.2197	1267.0076	0.13601	-418.039864	-418.03095	-418.030006	-418.07445	31.983	
C	-0.2281920688	 1.3386627442	-0.4189969828	-0.516694
C	-0.040649503	-0.1237741996	-0.1510294334	 0.177884
C	 0.35393176	-1.0845895926	-1.0521474714	 0.270008
N	 0.437348908	-2.2997192824	-0.4224348315	-0.295241
C	 0.1021139776	-2.1368704853	 0.9003532514	-0.083714
C	-0.2040168039	-0.8126493577	 1.0930404478	-0.230163
O	 0.7071917967	-1.0007622391	-2.3717691974	-0.212867
C	-0.2969941782	-0.7741313486	-3.2679799975	 0.108025
N	-0.0154882101	-0.642705053	-4.4868139769	-0.431621
H	 0.3463331142	 1.9473221346	 0.2878696612	 0.130766
H	 0.1075107382	 1.6019722655	-1.426056674	 0.132501
H	-1.2770688903	 1.6447036183	-0.3263661157	 0.124087
H	 0.7464119258	-3.1465123157	-0.8671295544	 0.269369
H	 0.1129975973	-2.9712137826	 1.5821787158	 0.122535
H	-0.5089716976	-0.365552223	 2.0273212464	 0.095191
H	-1.2821182716	-0.7299229287	-2.7889104855	 0.104405
H	-0.8648868145	-0.4844371943	-5.0248899422	 0.235529
41.0129	99.9188	118.8815	139.5157	239.638	253.2458	387.4154	423.3891	450.9712	496.8526	637.932	653.9123	672.4381	716.1984	820.1277	823.8194	826.1118	913.5089	984.3098	1032.2392	1050.1829	1064.2999	1086.1266	1108.6976	1205.3676	1252.7056	1273.5138	1309.1589	1397.5076	1417.8674	1428.7192	1485.9649	1487.8764	1499.5604	1520.1884	1645.9655	1747.2883	3025.8734	3056.2115	3075.7212	3109.1918	3242.3064	3273.3656	3522.3076	3683.9367
CC1=C(NC=C1)OC=N	Cc1c([nH]cc1)O[CH][NH]	
InChI=1S/C6H8N2O/c1-5-2-3-8-6(5)9-4-7/h2-4,7-8H,1H3	InChI=1S/C6H8N2O/c1-5-2-3-8-6(5)9-4-7/h2-4,7-8H,1H3
