23
gdb 90064	2.48135	1.65163	1.40485	0.3564	91.21	-0.2197	0.08	0.2997	1086.1412	0.206037	-351.0374	-351.029005	-351.028061	-351.069516	34.799	
C	-0.1602025224	 1.4082451396	-0.4034465418	-0.41909
C	 0.149885412	-0.0683025994	-0.1659853032	-0.040597
C	 1.3297756807	-0.7492914274	-1.0031771459	-0.363899
C	 2.0867110149	-0.8538015491	 0.3323568593	 0.288058
C	 2.7715686396	-1.5732093528	 1.535820463	-0.325077
C	 1.989846165	-0.2986975464	 2.1219586406	-0.132656
C	 2.6110733343	 0.4842386936	 0.9604962038	-0.243796
C	 0.8001436682	-0.7045004334	 1.1657388278	 0.322796
C	-0.053536585	-1.8870190538	 1.6189603918	-0.474312
H	 0.7268256501	 2.0395243102	-0.4848344161	 0.122456
H	-0.7201486252	 1.5240570377	-1.3390828608	 0.112162
H	-0.7840016298	 1.8080697529	 0.4033361257	 0.118526
H	-0.7873429531	-0.6085776689	-0.3284937602	 0.077556
H	 1.0171917173	-1.7048071175	-1.4332090051	 0.103586
H	 1.8009567888	-0.1460658132	-1.7851136231	 0.097307
H	 2.401604175	-2.5630888081	 1.8036491306	 0.09879
H	 3.8625486313	-1.5277655428	 1.6161911156	 0.088868
H	 1.9634084389	-0.007528682	 3.1781994827	 0.059778
H	 3.6989986511	 0.5976091612	 0.9702115632	 0.082021
H	 2.1284544223	 1.4168117439	 0.6817449244	 0.091685
H	-1.0248305515	-1.5153013266	 1.9687428387	 0.112567
H	-0.2593509378	-2.5970296694	 0.80816751	 0.110528
H	 0.3908927554	-2.4448669883	 2.4471720089	 0.112743
138.8293	193.4827	206.2147	240.4208	295.9086	337.2709	363.0958	424.6923	478.3851	542.2978	567.9637	614.6073	711.6118	755.0873	781.5775	825.6757	838.5606	870.019	914.4915	930.7218	969.7489	997.6758	1006.7403	1036.4395	1056.9913	1067.1604	1085.3437	1119.0681	1126.5422	1152.1032	1162.6438	1176.7116	1187.2721	1206.1127	1217.0468	1231.4758	1240.1061	1260.744	1299.3334	1381.3115	1409.0406	1411.0886	1480.6664	1489.152	1490.8748	1495.4384	1502.6001	1514.2212	1544.1498	3016.3744	3029.2061	3034.6644	3046.4114	3049.4936	3053.0693	3065.6694	3067.8037	3086.8764	3103.6492	3105.9143	3120.809	3136.2516	3175.0145
CC1CC23CC(C2)C13C	C[C@H]1C[C@@]23C[C@@H](C2)[C@@]13C	
InChI=1S/C9H14/c1-6-3-9-4-7(5-9)8(6,9)2/h6-7H,3-5H2,1-2H3	InChI=1S/C9H14/c1-6-3-9-4-7(5-9)8(6,9)2/h6-7H,3-5H2,1-2H3/t6-,7-,8+,9+/m0/s1
