18
gdb 96290	2.0757	1.94301	1.15781	2.4416	69.16	-0.2646	0.0306	0.2952	1073.8276	0.148439	-476.225299	-476.217008	-476.216064	-476.258585	31.034	
C	 0.1851433293	 1.370043964	 0.2618452795	-0.392125
C	-0.2763911065	-0.0008569988	-0.2183266881	 0.083435
C	 0.7403467197	-0.6388409883	-1.1640181781	-0.091038
O	 0.3723761421	-1.9172224106	-1.6565143209	-0.255914
C	-0.0780164367	-2.8129657553	-0.6759990333	 0.028046
O	 0.6695734489	-2.727456497	 0.52779051	-0.253686
C	 0.3682841621	-1.7007671929	 1.3859012293	 0.441275
N	 0.8710433233	-1.595331763	 2.5363569483	-0.538278
O	-0.5626566651	-0.8293263547	 0.9424415889	-0.249754
H	 1.1338657897	 1.2896110201	 0.8007782667	 0.141802
H	 0.316982293	 2.0516226278	-0.5846408056	 0.119697
H	-0.5567081645	 1.7958980612	 0.9405191309	 0.141387
H	-1.2411100618	 0.0775010842	-0.7301268256	 0.106159
H	 0.8476966382	 0.0007349109	-2.0441210715	 0.124494
H	 1.7202426071	-0.6883644138	-0.6683774619	 0.120469
H	-1.1402511982	-2.6591864323	-0.4542325691	 0.116614
H	 0.0919526908	-3.8191226805	-1.0632115243	 0.127964
H	 1.4618018286	-2.4040851511	 2.7277566748	 0.229453
66.4989	88.0695	220.0846	231.7856	294.2249	303.1288	381.1552	433.8137	480.3988	508.5622	610.9028	678.6317	748.6113	817.9262	875.7853	883.0178	927.6292	938.5264	976.1504	1045.4469	1054.5901	1107.7417	1147.5722	1149.6975	1164.6958	1187.5871	1289.5876	1295.7379	1321.3333	1335.1898	1403.2496	1410.542	1418.1112	1458.3727	1484.1853	1496.4039	1502.6782	1521.5475	1764.6564	3011.2283	3037.0521	3044.6397	3061.4296	3098.5314	3119.0792	3121.91	3135.3783	3503.9012
CC1COCOC(=N)O1	C[C@H]1COCO[C]([NH])O1	
InChI=1S/C5H9NO3/c1-4-2-7-3-8-5(6)9-4/h4,6H,2-3H2,1H3	InChI=1S/C5H9NO3/c1-4-2-7-3-8-5(6)9-4/h4,6H,2-3H2,1H3/t4-/m0/s1
