19
gdb 88483	2.31041	1.44727	1.14225	1.5348	81.58	-0.2569	0.0247	0.2816	1162.3261	0.156756	-385.820404	-385.811173	-385.810229	-385.854333	34.915	
C	 0.5573934938	 1.4406296308	-0.5189993257	-0.423567
C	 0.1097446395	 0.0617354157	-0.083502844	 0.01499
C	 1.1050910327	-1.0622453893	 0.0859602439	-0.313343
C	 0.4065908673	-0.4901413711	 1.2936309803	-0.108336
C	 1.1750227267	 0.2967272559	 2.3218942018	 0.183329
C	 2.3812292484	-0.283914234	 2.9539364811	-0.212063
O	 2.5012518628	 0.7231463222	 1.9539341771	-0.260416
C	 0.4020860641	 1.2667776985	 3.065688761	 0.301246
C	-0.2755233604	 2.0527343792	 3.672240077	-0.414889
H	 1.545643263	 1.684966553	-0.1233238772	 0.146216
H	 0.6073388132	 1.4995324598	-1.6118467656	 0.112432
H	-0.1414891918	 2.2104153805	-0.1744483273	 0.1211
H	-0.859453318	-0.2333267597	-0.4782710142	 0.08317
H	 0.8389527498	-2.0623369247	-0.2378748883	 0.106402
H	 2.1522894397	-0.8054472628	-0.0321709792	 0.128069
H	-0.3787138516	-1.09100225	 1.7442310953	 0.094069
H	 2.6595551892	 0.0231074117	 3.959909309	 0.123794
H	 2.6919854246	-1.2828280463	 2.6520852707	 0.12023
H	-0.8641647931	 2.7545473207	 4.2098849742	 0.197566
60.1044	122.1588	163.5487	195.1512	229.5466	238.8215	316.2714	361.2527	463.4121	476.0711	548.5336	584.0234	620.4056	661.4096	682.1401	781.5302	839.2988	853.434	855.7601	919.5349	940.7224	985.5933	1031.2302	1079.94	1099.5614	1120.5745	1134.1919	1151.6192	1168.5995	1199.2547	1201.7843	1241.1394	1348.217	1389.323	1412.6521	1425.9234	1486.9091	1499.7113	1503.2178	1513.0766	2238.0915	3034.538	3088.8929	3090.9686	3121.2744	3133.6821	3137.7865	3147.2701	3184.9768	3223.408	3501.306
CC1CC1C1(CO1)C#C	C[C@H]1C[C@H]1[C@]1(CO1)C#C	
InChI=1S/C8H10O/c1-3-8(5-9-8)7-4-6(7)2/h1,6-7H,4-5H2,2H3	InChI=1S/C8H10O/c1-3-8(5-9-8)7-4-6(7)2/h1,6-7H,4-5H2,2H3/t6-,7+,8+/m0/s1
