21
gdb 89748	2.2443	1.65163	1.18112	1.5548	82.92	-0.2199	0.0822	0.3022	1147.7877	0.180961	-387.04682	-387.037969	-387.037025	-387.080198	34.6	
C	-0.481941782	 1.3805978428	-0.0120582197	-0.403084
C	 0.1263118699	-0.0066628237	-0.0305483525	 0.089297
O	 1.3972075074	-0.0414980456	-0.7419272286	-0.343565
C	 2.0721686355	-0.5723352514	 0.4001915304	 0.422169
C	 3.1255396197	-1.62311614	 0.2758515184	-0.339075
C	 3.4826975924	-0.2090960838	 0.7229802654	-0.337155
C	 0.815635821	-0.5297017786	 1.2343922643	 0.199588
C	 0.6411547731	-0.0842174743	 2.6534886193	-0.326534
C	 0.3153106434	-1.5060774999	 2.2500901907	-0.330954
H	 0.201716707	 2.0984485798	 0.4495487765	 0.124028
H	-0.6963928436	 1.7105970029	-1.033350513	 0.126416
H	-1.4239339883	 1.3812324271	 0.5479656602	 0.112158
H	-0.5721509394	-0.7289602445	-0.4756509111	 0.077493
H	 3.1552278275	-2.4236077577	 1.0088451404	 0.110905
H	 3.4111003996	-1.9164854024	-0.7287191622	 0.123623
H	 4.0025697682	 0.4244781144	 0.0122123956	 0.123644
H	 3.7546082487	-0.0447724768	 1.7612715487	 0.111065
H	 1.5348313762	 0.0889877951	 3.2448891064	 0.115302
H	-0.1803892351	 0.5861521892	 2.8851738698	 0.115665
H	-0.7288491741	-1.8003682846	 2.2050269909	 0.114295
H	 0.9855312728	-2.2977198581	 2.5707983601	 0.114719
59.5056	182.2053	187.1443	210.9009	217.0528	244.1707	348.6183	424.031	432.0263	532.8744	558.8308	599.3161	756.8594	766.3433	811.7808	857.2712	872.9969	898.9925	906.5617	934.8263	961.2274	989.2567	997.841	1040.7724	1057.26	1062.3455	1071.4829	1077.7806	1080.7161	1140.0806	1184.0244	1184.9542	1189.5596	1248.6085	1290.3497	1345.2653	1378.7519	1405.0052	1435.1539	1446.4804	1464.1125	1483.4746	1488.9341	1497.0897	1522.1258	3002.4607	3034.0346	3102.9711	3119.7811	3120.4661	3122.2878	3124.3158	3125.244	3197.1381	3206.1798	3212.2198	3220.6915
CC1OC2(CC2)C11CC1	C[C@H]1OC2(CC2)C21CC2	
InChI=1S/C8H12O/c1-6-7(2-3-7)8(9-6)4-5-8/h6H,2-5H2,1H3	InChI=1S/C8H12O/c1-6-7(2-3-7)8(9-6)4-5-8/h6H,2-5H2,1H3/t6-/m1/s1
