18
gdb 61028	2.44383	1.41675	1.1257	3.2586	71.44	-0.2482	-0.0333	0.2149	1135.4128	0.146989	-439.108269	-439.099332	-439.098388	-439.143274	31.418	
C	-0.0743794867	 1.5662143004	 0.0242957537	-0.420006
C	 0.0297968442	 0.0348256199	-0.0006724408	-0.083445
C	 0.7988847431	-0.4310130675	-1.2282475859	 0.163661
O	 0.4683186496	-1.3572622386	-1.9238142937	-0.249064
C	 0.6784525297	-0.5106905215	 1.2858854978	 0.077947
C	 0.8395295045	-2.0546787401	 1.3665122272	-0.214017
N	 2.2891561193	-2.2848374472	 1.4986471059	-0.253545
C	 2.8221375904	-1.1382026524	 1.5004426891	 0.1191
O	 2.0476133572	-0.0260054973	 1.3959611411	-0.238401
H	 0.9175430782	 2.0215840789	 0.0959475487	 0.142364
H	-0.5642372709	 1.945263276	-0.8775054356	 0.12831
H	-0.6585574759	 1.8965874829	 0.8886326648	 0.126323
H	-0.9661565515	-0.4185346505	-0.0655422326	 0.105519
H	 1.7183052932	 0.1548270952	-1.4514567011	 0.088562
H	 0.1316536535	-0.1068617096	 2.1445645474	 0.09832
H	 0.3174274705	-2.4795728342	 2.2289375651	 0.120345
H	 0.4649296808	-2.5581860056	 0.4697108182	 0.143428
H	 3.8841310708	-0.9340627089	 1.5798481006	 0.144598
46.3224	57.162	85.9346	203.0012	217.2685	246.4124	304.9245	385.9984	464.4978	501.8935	600.0298	729.7276	801.3956	879.8128	901.2939	944.6034	955.7434	966.7742	979.2411	1021.4767	1033.4197	1099.2939	1114.1781	1126.724	1162.8546	1216.7538	1287.4974	1302.3033	1320.5457	1328.6918	1355.8809	1378.9452	1407.985	1430.5551	1498.29	1501.0511	1503.1385	1713.714	1825.9767	2886.2114	3041.0737	3042.7399	3050.8692	3056.7528	3091.4589	3111.098	3121.248	3218.0861
CC(C=O)C1CN=CO1	C[C@@H](C=O)[C@H]1CN=CO1	
InChI=1S/C6H9NO2/c1-5(3-8)6-2-7-4-9-6/h3-6H,2H2,1H3	InChI=1S/C6H9NO2/c1-5(3-8)6-2-7-4-9-6/h3-6H,2H2,1H3/t5-,6+/m0/s1
