19
gdb 73155	2.62244	1.65925	1.39302	1.2976	75.28	-0.2303	0.0638	0.2941	1021.1914	0.157834	-422.971944	-422.963741	-422.962797	-423.004464	31.934	
C	 0.0625798522	 1.6580537244	 0.1059346289	-0.487942
C	 0.0751305456	 0.1559277221	 0.1244594687	 0.282862
O	-1.2388504615	-0.429106214	-0.0511587464	-0.325358
C	-1.04304998	-1.3346875638	 1.0651363991	-0.105701
C	 0.3831523509	-0.8154231671	 1.2916868317	 0.019645
O	 1.3759123059	-1.5100401036	 0.5148879909	-0.328684
C	 1.1579750557	-0.6377496887	-0.6074374522	 0.431682
C	 1.201424738	-1.1171334902	-2.0142126959	-0.326186
C	 2.2828098429	-0.1852632839	-1.4789860825	-0.346983
H	 1.0573722054	 2.0591846965	 0.3193430121	 0.128787
H	-0.2501145694	 2.0199553699	-0.8803966953	 0.132523
H	-0.6448412852	 2.0471115231	 0.8432821843	 0.128202
H	-1.7516977927	-1.1216796734	 1.8755260498	 0.102243
H	-1.1080785093	-2.3888099242	 0.7760702328	 0.113512
H	 0.7259982581	-0.5632848968	 2.29603953	 0.090466
H	 1.4726295493	-2.1556410706	-2.1699978662	 0.125515
H	 0.4674546784	-0.7270219758	-2.7114818964	 0.124507
H	 2.2985019348	 0.8454466424	-1.8185651166	 0.115489
H	 3.2588038811	-0.6144394362	-1.2787770668	 0.125422
89.4493	185.8503	193.2401	210.5862	244.1681	327.4886	396.2405	416.0866	500.1771	577.0101	636.8646	753.3636	792.7208	840.5659	858.5758	876.0691	887.7841	916.5176	976.1769	979.6706	996.931	1037.83	1048.3562	1065.1632	1077.9793	1141.8973	1149.064	1160.497	1176.5768	1184.9397	1227.7493	1288.8364	1328.7369	1352.1782	1392.3326	1412.4067	1448.6316	1479.3588	1488.6388	1497.3021	1503.6762	3017.7707	3035.791	3080.2886	3103.0916	3104.2403	3123.1386	3127.5097	3133.2122	3211.9769	3226.6203
CC12OCC1OC21CC1	C[C@]12OC[C@H]1OC12CC1	
InChI=1S/C7H10O2/c1-6-5(4-8-6)9-7(6)2-3-7/h5H,2-4H2,1H3	InChI=1S/C7H10O2/c1-6-5(4-8-6)9-7(6)2-3-7/h5H,2-4H2,1H3/t5-,6+/m1/s1
