17
gdb 84489	2.96323	1.47643	1.11104	3.5218	75.61	-0.2346	-0.0291	0.2056	1091.3013	0.135539	-421.836355	-421.828144	-421.8272	-421.869412	31.174	
O	 0.1889788879	 1.3717485837	-0.28233827	-0.414726
C	 0.0648524121	-0.0145528921	-0.0278260632	-0.009056
C	 0.6999435763	-0.5123759618	 1.2485069015	-0.153585
C	-0.1428890251	-1.2476421683	 1.9812933966	-0.152383
C	-1.4827220221	-1.3507202993	 1.3557123048	 0.210708
C	-2.3353075137	-2.6156547866	 1.317752065	-0.295339
C	-2.7958968861	-1.4449066281	 2.1162472962	-0.299707
C	-1.4071532552	-0.4982407849	 0.1202278241	 0.284724
O	-2.3231659455	-0.2061369271	-0.6058895734	-0.319066
H	-0.2298358448	 1.8456660862	 0.4448593481	 0.282833
H	 0.5003757776	-0.5016000778	-0.9106686367	 0.121413
H	 1.7301153314	-0.2905176838	 1.4992546514	 0.10944
H	 0.0964845263	-1.7245106036	 2.9258432802	 0.108628
H	-2.8366518856	-2.8201944922	 0.3778029949	 0.139811
H	-1.9459558102	-3.484401688	 1.8372232754	 0.123517
H	-2.7371573434	-1.4933395671	 3.1981789549	 0.121603
H	-3.6084663897	-0.8480206092	 1.7159961101	 0.141184
48.084	171.2747	201.8528	233.3776	267.9259	305.5774	345.9377	455.6945	528.8417	583.4663	663.8114	708.5617	749.0469	787.3245	807.1751	878.2988	897.0004	959.1689	964.2123	977.686	993.8843	1060.0776	1068.5723	1087.2671	1093.5631	1149.1716	1201.8755	1249.0108	1253.1622	1299.0818	1304.8048	1402.6165	1417.4394	1451.626	1483.6017	1658.8282	1842.259	3026.2231	3132.3841	3133.5009	3183.8753	3214.2491	3218.7358	3233.5377	3801.2287
OC1C=CC2(CC2)C1=O	O[C@H]1C=CC2(CC2)C1=O	
InChI=1S/C7H8O2/c8-5-1-2-7(3-4-7)6(5)9/h1-2,5,8H,3-4H2	InChI=1S/C7H8O2/c8-5-1-2-7(3-4-7)6(5)9/h1-2,5,8H,3-4H2/t5-/m0/s1
