15
gdb 71546	2.61859	1.58453	1.47099	3.4629	71.04	-0.2703	-0.0022	0.2681	951.4729	0.112765	-416.72238	-416.715052	-416.714107	-416.754012	28.441	
O	 0.1637127446	 1.3634489084	 0.1163903758	-0.45311
C	 0.0922597769	 0.0014229802	-0.0162353161	 0.323911
C	 0.5603881206	-0.9460790338	-1.1170385355	-0.25647
N	 0.0210675932	-1.9293128858	-0.0797741584	-0.165602
C	 0.5364668293	-1.0115592714	 1.0675623358	-0.051578
C	-0.8214653731	-1.0544088101	 1.7744017021	-0.308021
C	-1.1397223271	-0.9652217839	 0.2762412635	 0.185889
C	-2.4001340142	-1.0064465909	-0.411635965	 0.163805
N	-3.4107470559	-0.9929815941	-0.9749291412	-0.343538
H	-0.2633909512	 1.7808208783	-0.6412056349	 0.298161
H	 0.0104420292	-0.9670581602	-2.0622423709	 0.123792
H	 1.6371910094	-1.0434146111	-1.2807634959	 0.118461
H	 1.5404812152	-1.1539876912	 1.4639418102	 0.105293
H	-1.0866902979	-1.9968101853	 2.2573507632	 0.129055
H	-1.0904632089	-0.186455519	 2.3772614572	 0.129951
123.8404	148.7804	257.0846	317.6236	338.7955	410.0734	454.7027	535.2734	538.1128	596.491	668.6664	714.9108	802.1522	883.1806	891.373	926.1215	943.7248	1007.2173	1022.0758	1066.7749	1092.2459	1105.4559	1137.5771	1160.0696	1218.7042	1231.2528	1248.1493	1287.2187	1299.8731	1376.9795	1487.8344	1516.2136	2343.8358	3054.6762	3081.1781	3121.1607	3139.2721	3153.605	3795.6533
OC12CN3C1CC23C#N	O[C@@]12CN3[C@@H]1C[C@@]23C#N	
InChI=1S/C6H6N2O/c7-2-5-1-4-6(5,9)3-8(4)5/h4,9H,1,3H2	InChI=1S/C6H6N2O/c7-2-5-1-4-6(5,9)3-8(4)5/h4,9H,1,3H2/t4-,5-,6+/m1/s1
