18
gdb 8906	3.64901	1.16324	1.05681	3.9002	68.26	-0.2671	0.0268	0.2938	1154.2283	0.152958	-381.123967	-381.114306	-381.113362	-381.158377	34.028	
C	-0.1049824829	 1.5829562988	-0.0448462123	-0.418062
C	 0.0438064632	 0.0573453816	-0.0285654906	 0.049446
C	 0.7431993948	-0.4569074706	-1.2903081213	-0.087857
O	-0.085717179	-0.1328873015	-2.3966711468	-0.424133
C	 0.7753735662	-0.4703377468	 1.2299169288	-0.148496
N	 2.1520926442	 0.0288016542	 1.3099932223	-0.500502
C	-0.0141529373	-0.1807088249	 2.4485754901	 0.262879
N	-0.594108417	 0.0649529794	 3.4185498461	-0.328655
H	 0.87091565	 2.0805653341	-0.0792966152	 0.113543
H	-0.6554598738	 1.8839872379	-0.937842478	 0.144974
H	-0.6464185207	 1.9411778353	 0.8356237996	 0.133956
H	-0.9594619144	-0.3860544377	-0.0166676226	 0.104393
H	 1.7363939969	 0.0034573713	-1.3766344318	 0.108103
H	 0.8903570501	-1.5469739336	-1.2135709493	 0.081552
H	 0.403554108	-0.3157308475	-3.2035365251	 0.289933
H	 0.8348189413	-1.5624467459	 1.1471956954	 0.128075
H	 2.1484548855	 1.0230053624	 1.5174929116	 0.245357
H	 2.638377725	-0.4206675461	 2.0797342792	 0.245496
68.4246	94.3506	134.9794	213.7432	223.8379	234.0946	249.2019	276.0904	315.0909	346.1432	415.7682	482.4057	588.6022	664.6734	814.0656	859.2676	915.9273	935.2142	969.3828	1030.4401	1074.6992	1087.2343	1131.6113	1181.2707	1208.3853	1248.015	1272.245	1307.4029	1350.2248	1380.0169	1396.6476	1407.0687	1457.0857	1492.9992	1510.0717	1520.8637	1663.6418	2342.7553	2963.7884	3026.5827	3035.7134	3039.5509	3048.3183	3105.5107	3138.3788	3502.3577	3578.6741	3838.0833
CC(CO)C(N)C#N	C[C@@H](CO)[C@@H](N)C#N	
InChI=1S/C5H10N2O/c1-4(3-8)5(7)2-6/h4-5,8H,3,7H2,1H3	InChI=1S/C5H10N2O/c1-4(3-8)5(7)2-6/h4-5,8H,3,7H2,1H3/t4-,5-/m0/s1
