18
gdb 115181	2.60244	1.31582	1.03262	2.7768	67.7	-0.2522	0.0244	0.2766	1170.1767	0.148621	-476.258495	-476.249646	-476.248702	-476.292167	32.867	
O	-0.0506093466	 1.4131024119	-0.1186710518	-0.427988
C	 0.0192541904	 0.0063023935	 0.0800434919	-0.082491
C	-1.4121897844	-0.5261445156	 0.0532850502	-0.044395
C	-2.0883183652	-0.2782256082	-1.3223068844	-0.185191
N	-1.7842671853	-1.4978394292	-2.0665558842	-0.311155
C	-1.3528016309	-2.523174359	-1.2930176756	 0.386733
O	-0.9292033878	-3.610707637	-1.6351599248	-0.40321
C	-1.4559082273	-2.0603078936	 0.166284175	 0.019538
O	-0.4344931056	-2.6354860579	 0.9392620035	-0.437004
H	 0.8435694726	 1.7644758727	-0.0864911603	 0.289766
H	 0.6176143683	-0.4784096284	-0.7073202359	 0.094142
H	 0.4788782883	-0.2477435944	 1.0424806437	 0.11561
H	-1.9749538597	-0.031512903	 0.8483451684	 0.092704
H	-3.1712768135	-0.1345399715	-1.2177778975	 0.110127
H	-1.6710232312	 0.605436631	-1.8102534764	 0.137993
H	-1.8324136843	-1.5724301996	-3.0700591556	 0.256832
H	-2.4479543678	-2.3698953126	 0.539048367	 0.093853
H	-0.18185514	-3.4398399591	 0.4591890867	 0.294133
74.4969	125.1159	158.4748	207.129	262.6695	273.2771	295.4669	410.7513	453.7886	466.2603	527.3008	551.7726	649.827	717.9406	758.4501	818.8918	875.5315	938.7132	994.663	1039.5235	1069.7622	1076.7239	1146.7609	1161.2498	1192.7671	1228.5977	1235.7222	1262.5067	1280.1521	1302.5204	1350.4669	1357.7407	1386.0323	1429.6724	1440.2235	1461.9507	1517.2282	1534.9698	1824.3322	2949.6332	2984.0548	3020.4564	3050.5598	3087.37	3104.0414	3643.4796	3701.0685	3836.8532
OCC1CNC(=O)C1O	OC[C@H]1CNC(=O)[C@H]1O	
InChI=1S/C5H9NO3/c7-2-3-1-6-5(9)4(3)8/h3-4,7-8H,1-2H2,(H,6,9)	InChI=1S/C5H9NO3/c7-2-3-1-6-5(9)4(3)8/h3-4,7-8H,1-2H2,(H,6,9)/t3-,4+/m1/s1
