23
gdb 58565	2.23357	1.34604	1.16617	1.9989	81.16	-0.2464	0.0718	0.3182	1224.5279	0.203493	-425.413288	-425.402844	-425.4019	-425.447892	39.88	
C	 0.1105658204	 1.4658307004	-0.2169601818	-0.427551
C	 0.0090761217	-0.0255764915	 0.11217667	 0.087642
O	 0.636903153	-0.3202173765	 1.3604586438	-0.444788
C	-1.4301358269	-0.5676616931	 0.0613911629	 0.328132
C	-2.29292875	-0.0514790895	 1.2163472982	-0.476645
C	-2.1642131816	-0.4489232129	-1.3133245027	-0.265813
C	-2.6515404922	-1.9129271863	-1.1545892958	-0.25792
C	-1.5655294653	-2.1245571147	-0.0622155057	 0.093841
O	-0.3719682713	-2.6846013624	-0.5761189385	-0.435301
H	 1.1601058108	 1.7729293671	-0.2133517802	 0.122849
H	-0.3101882177	 1.6905297173	-1.2017168028	 0.120159
H	-0.4216305356	 2.0807843544	 0.519222191	 0.104704
H	 0.5911424154	-0.5884120593	-0.6221604907	 0.1046
H	 0.3171205057	 0.3168249902	 2.0076003257	 0.274736
H	-2.3999017324	 1.0381773635	 1.1858556729	 0.11359
H	-3.3016720696	-0.4746891083	 1.1784958849	 0.115342
H	-1.858949927	-0.3326730516	 2.1814971431	 0.11641
H	-2.9261277044	 0.3301297455	-1.3996794945	 0.091596
H	-1.4604718148	-0.3439330975	-2.1434042671	 0.104456
H	-3.6689332189	-1.9841362224	-0.7609696628	 0.10018
H	-2.5688104195	-2.5638266971	-2.0290274657	 0.09034
H	-1.8783112964	-2.6446726517	 0.8536065267	 0.056742
H	-0.5552205634	-3.5971877036	-0.8199450508	 0.282702
81.6004	110.7112	170.8614	229.6805	236.3507	251.0448	263.3184	283.3633	299.3333	328.6063	363.4936	393.4775	430.8898	496.1531	541.8063	667.0773	725.4775	835.0344	873.9576	893.1384	906.9138	933.8758	941.5639	981.885	1029.2033	1051.1885	1075.3819	1105.6634	1134.9736	1166.8673	1174.0145	1203.8911	1214.8242	1256.9592	1272.1667	1293.337	1302.2062	1328.3891	1369.5494	1398.1879	1403.6532	1413.5759	1428.062	1468.3341	1487.407	1492.1259	1494.8648	1504.4481	1506.4269	2998.9215	3024.9348	3031.8845	3053.2778	3059.9578	3078.6093	3095.1459	3098.7253	3100.3104	3102.5721	3116.9055	3117.661	3809.6717	3819.3288
CC(O)C1(C)CCC1O	C[C@@H](O)[C@@]1(C)CC[C@H]1O	
InChI=1S/C7H14O2/c1-5(8)7(2)4-3-6(7)9/h5-6,8-9H,3-4H2,1-2H3	InChI=1S/C7H14O2/c1-5(8)7(2)4-3-6(7)9/h5-6,8-9H,3-4H2,1-2H3/t5-,6-,7-/m1/s1
