17
gdb 20824	3.14375	1.78763	1.24738	3.2243	69.83	-0.2495	-0.0008	0.2487	992.9379	0.141919	-363.873976	-363.865853	-363.864909	-363.906962	29.121	
C	-0.1025524418	 1.5747066617	 0.0085893546	-0.370885
C	 0.0624442585	 0.0451378783	-0.0217431612	-0.309692
C	 0.7473515344	-0.5092870861	 1.1919576787	 0.08434
C	 2.0318564564	-0.9276013166	 1.3302369684	-0.006489
O	 2.2737748526	-1.3478482729	 2.5805840177	-0.170238
N	 1.106083998	-1.2143454955	 3.3257536135	-0.199919
C	 0.2090368286	-0.7189230995	 2.5057426526	 0.321387
C	-1.1813712433	-0.4594961087	 2.9915328946	-0.501854
H	 0.8709910914	 2.0701705309	 0.0711100063	 0.123794
H	-0.6094370052	 1.9282650336	-0.8946035944	 0.116513
H	-0.6934231884	 1.8956466904	 0.8720660611	 0.123056
H	-0.9246458653	-0.4216430721	-0.1293799974	 0.110018
H	 0.6300217475	-0.2388076822	-0.9147232711	 0.109609
H	 2.8633745192	-0.9885697986	 0.6441091496	 0.144475
H	-1.4202064471	 0.6088602064	 2.962699002	 0.138826
H	-1.9184640497	-0.9757009145	 2.3671512134	 0.135196
H	-1.2881387657	-0.8098823546	 4.0197869116	 0.151861
56.2005	128.5706	158.1857	188.2723	261.1297	268.8311	405.3475	413.3322	610.7066	629.7657	691.7634	714.7237	787.43	845.5263	910.2917	947.1443	968.0529	1026.1756	1063.8471	1071.2737	1090.2967	1155.0367	1205.9189	1273.1285	1309.2768	1359.9194	1404.7652	1408.8459	1435.286	1476.0644	1481.3132	1486.0908	1497.0871	1504.9397	1525.5874	1652.8112	3027.6655	3037.7749	3039.9919	3065.4497	3093.5494	3109.6248	3113.6821	3139.0358	3255.5366
CCC1=CON=C1C	CCc1conc1C	
InChI=1S/C6H9NO/c1-3-6-4-8-7-5(6)2/h4H,3H2,1-2H3	InChI=1S/C6H9NO/c1-3-6-4-8-7-5(6)2/h4H,3H2,1-2H3
