16
gdb 24088	3.63588	1.04142	0.93606	2.7433	75.94	-0.1856	0.0367	0.2223	1259.261	0.125436	-396.919069	-396.91067	-396.909726	-396.952947	31.201	
C	 0.2406056224	-0.0207890866	-1.2919447306	-0.465682
C	 0.0885959448	 0.6151478995	-0.2831062887	 0.319394
C	-0.0639309853	 1.3783528141	 0.9639910032	-0.330675
N	 1.0698165861	 2.2076198712	 1.3407705456	-0.36521
C	 1.4107708223	 3.2800315412	 0.5185236135	 0.336678
C	 0.6561360895	 3.947334099	-0.4186694693	-0.188103
N	 1.4810943237	 4.9705966504	-0.8648361248	-0.234078
C	 2.6574273106	 4.8629649541	-0.2021168253	 0.016696
N	 2.6525623087	 3.8536444351	 0.642403057	-0.323685
H	 0.3749747769	-0.5780049798	-2.1858373386	 0.197776
H	-0.9498973001	 2.0221766608	 0.893751077	 0.140519
H	-0.2618533971	 0.6854076064	 1.7891715024	 0.138734
H	 1.8913623077	 1.6793849601	 1.6038411582	 0.243266
H	-0.329909596	 3.7936180589	-0.8188087934	 0.122632
H	 1.2477097691	 5.6528440296	-1.5652890533	 0.264194
H	 3.4815587866	 5.5403159561	-0.367659463	 0.127544
47.2702	63.4341	179.6749	211.832	320.8576	344.2979	419.863	467.2356	580.262	609.406	618.5965	630.5487	654.3266	657.5763	715.7017	746.7219	805.5795	918.8335	948.6678	960.8807	1028.2233	1085.2972	1125.2277	1150.2288	1230.1413	1274.3129	1298.8619	1365.1706	1372.4976	1461.5288	1466.5367	1495.8297	1542.8405	1629.286	2229.6684	3027.6935	3066.849	3254.07	3291.5597	3505.2683	3580.7924	3676.4471
C#CCNC1=CNC=N1	C#CCNc1c[nH]cn1	
InChI=1S/C6H7N3/c1-2-3-8-6-4-7-5-9-6/h1,4-5,8H,3H2,(H,7,9)	InChI=1S/C6H7N3/c1-2-3-8-6-4-7-5-9-6/h1,4-5,8H,3H2,(H,7,9)
