20
gdb 111196	4.47583	0.90435	0.86549	4.1488	82.03	-0.2344	0.0153	0.2497	1413.8551	0.170637	-403.100166	-403.091485	-403.090541	-403.134029	32.452	
C	-0.0769785946	 1.5427922336	 0.1606151245	-0.37415
C	-0.1714064089	 0.0163931403	 0.0373313985	-0.237185
C	 0.51495293	-0.4967964047	-1.218353114	 0.069314
C	 2.0747343413	-0.6116109116	-1.3457392712	-0.037677
C	 2.0333263551	-1.8673157704	-0.4200084807	-0.238711
C	 0.8623144315	-2.0062929932	-1.4385014811	-0.075484
N	 1.8039451778	-1.5202776585	-2.5164545076	-0.073138
C	 2.7509853151	-2.2609644293	-3.1763256766	 0.129351
O	 3.8916415743	-1.9084740545	-3.3835947725	-0.317758
H	 0.9642284984	 1.8703436649	 0.2494858443	 0.121399
H	-0.5056713254	 2.0386493185	-0.7167940928	 0.121028
H	-0.6156671982	 1.9004441281	 1.0429597168	 0.117216
H	 0.2345077388	-0.4467503126	 0.9419986702	 0.101955
H	-1.2275578345	-0.2795548499	-0.0062900724	 0.105084
H	 0.0708788092	-0.0503762448	-2.1130379015	 0.086986
H	 2.8260587028	 0.1732522092	-1.4026749942	 0.11008
H	 2.8607910776	-2.567548786	-0.5432718093	 0.12133
H	 1.7834239801	-1.7225831718	 0.6316887981	 0.106071
H	 0.1867527526	-2.8462802113	-1.6049411764	 0.093868
H	 2.320832307	-3.1957141363	-3.5930006522	 0.070421
66.4739	101.9329	118.0523	214.0387	228.8593	285.6319	348.8873	379.4574	496.8039	584.8739	662.6357	737.917	762.1002	804.4133	833.5379	868.1206	893.5635	953.6876	984.2607	1013.1759	1027.3436	1032.628	1074.2583	1088.2619	1113.2809	1132.4085	1148.0399	1167.3735	1202.323	1224.2928	1233.9166	1260.4527	1294.2927	1343.3671	1350.074	1409.8409	1415.4149	1427.9408	1484.1777	1498.9224	1505.2494	1519.1878	1786.4407	2915.1952	3027.6115	3034.9808	3061.0998	3075.3169	3083.9656	3104.5396	3109.4395	3114.5761	3147.7631	3148.6223
CCC1C2CC1N2C=O	CC[C@H]1[C@H]2C[C@@H]1N2C=O	
InChI=1S/C7H11NO/c1-2-5-6-3-7(5)8(6)4-9/h4-7H,2-3H2,1H3	InChI=1S/C7H11NO/c1-2-5-6-3-7(5)8(6)4-9/h4-7H,2-3H2,1H3/t5-,6+,7-
