18
gdb 32966	4.37914	0.78362	0.69836	1.788	75.98	-0.1772	0.058	0.2352	1578.3497	0.147544	-439.112971	-439.103578	-439.102634	-439.147784	34.209	
O	-0.1173946521	 1.4529619983	 0.1495078824	-0.418446
C	 0.0108416578	 0.0403013706	 0.1147167389	-0.060633
C	-1.3825722116	-0.5482367725	-0.1306438485	-0.303493
C	-1.4025919655	-2.0405611988	-0.1594949875	 0.279433
C	-1.4874143807	-2.9323784589	-1.1992422115	-0.212764
C	-1.431802376	-4.2612466963	-0.6696053009	-0.291622
C	-1.3140012729	-4.1248894247	 0.6912975777	 0.363087
O	-1.2269213941	-5.0099344778	 1.7189730123	-0.437676
N	-1.2908224012	-2.7965919656	 1.002806237	-0.33982
H	 0.7591737164	 1.8330146946	 0.2570605391	 0.285984
H	 0.6883988279	-0.2887104818	-0.6877238922	 0.093861
H	 0.4182423886	-0.3477649512	 1.0629179535	 0.077062
H	-2.0577527141	-0.1544422738	 0.6410040748	 0.105345
H	-1.7524004687	-0.1691212066	-1.0880662128	 0.120648
H	-1.5816858638	-2.6648739011	-2.2411397004	 0.08866
H	-1.4792734957	-5.1891602643	-1.2182366739	 0.083068
H	-1.2724706114	-5.898288932	 1.3534985071	 0.306495
H	-1.2404884827	-2.4406838281	 1.941851565	 0.26081
55.3866	89.5479	99.4277	229.7508	252.5057	256.4031	286.9205	338.829	377.4186	429.037	447.6441	636.2154	656.3796	681.9337	732.3469	753.8196	791.6049	806.6758	992.4463	1004.4211	1020.784	1038.6989	1069.2064	1076.4041	1171.7065	1209.4052	1214.4021	1237.9288	1277.3804	1303.1048	1318.0267	1340.2613	1430.8847	1451.76	1482.5727	1525.927	1532.0506	1573.7728	1646.8377	2963.1522	3000.1059	3021.7923	3090.0998	3237.2531	3251.7602	3677.7181	3831.9264	3850.5468
OCCC1=CC=C(O)N1	OCCc1ccc(O)[nH]1	
InChI=1S/C6H9NO2/c8-4-3-5-1-2-6(9)7-5/h1-2,7-9H,3-4H2	InChI=1S/C6H9NO2/c8-4-3-5-1-2-6(9)7-5/h1-2,7-9H,3-4H2
