15
gdb 32317	2.72488	1.49437	0.97088	0.562	72.05	-0.2333	-0.0506	0.1827	1133.214	0.113625	-453.970414	-453.962447	-453.961503	-454.003291	29.061	
O	-0.004883592	 1.4389667098	 0.0066493863	-0.420383
C	 0.0051382443	 0.0242854267	 0.0024109112	-0.161092
C	-1.4082373376	-0.4779436545	 0.0124761762	 0.169754
C	-2.4946861364	 0.3230239699	 0.0235804048	-0.082104
N	-3.8013856758	-0.1590799585	 0.032795209	-0.280857
C	-3.9265876176	-1.4266091095	 0.0302228054	 0.132562
O	-2.9313317989	-2.337593325	 0.0195825982	-0.215175
C	-1.5952013262	-1.9179570507	 0.0098691419	 0.345957
N	-0.6490488709	-2.761813856	-0.0002162289	-0.543399
H	 0.9064762698	 1.7429073314	 0.0007446556	 0.295818
H	 0.5180973729	-0.3845365295	-0.8824231338	 0.121
H	 0.5324834638	-0.3897372769	 0.8762925259	 0.121004
H	-2.3870477013	 1.3999955319	 0.025801142	 0.144102
H	-4.8975945068	-1.9121134268	 0.0367116339	 0.145714
H	-1.0033438975	-3.7180281622	-0.0000514477	 0.227101
84.3134	132.9134	202.338	203.63	235.42	346.7343	372.0829	500.993	546.6626	569.9646	597.0323	754.0492	772.471	850.8117	892.6316	932.5041	968.5485	981.6104	1047.6349	1073.9671	1091.7132	1173.0261	1204.0757	1229.2231	1242.8128	1291.9226	1404.97	1409.4024	1468.6247	1498.6286	1627.7047	1676.6818	1743.5851	2979.0543	2998.6892	3195.6869	3226.1788	3498.1159	3849.1412
OCC1=CN=COC1=N	OCC1=C(OC=NC1)[NH]	
InChI=1S/C5H6N2O2/c6-5-4(2-8)1-7-3-9-5/h1,3,6,8H,2H2	InChI=1S/C5H7N2O2/c6-5-4(2-8)1-7-3-9-5/h3,6,8H,1-2H2
