19
gdb 108655	1.9563	1.69452	0.98303	5.3524	80.9	-0.2117	0.003	0.2147	1224.4107	0.160213	-419.271355	-419.261982	-419.261038	-419.305819	34.702	
C	 0.0712063334	 1.6121541135	 0.0795060202	-0.370232
C	 0.013537753	 0.0795585602	-0.0509183958	-0.30567
C	-1.383798146	-0.4566493279	-0.0825653119	 0.106208
C	-2.1260296222	-0.897875111	-1.119447372	 0.217901
N	-1.8380714356	-0.9114922388	-2.4661417021	-0.585951
C	-3.4930522006	-1.3422793908	-0.6434837736	-0.241065
N	-3.4550466369	-1.0085767791	 0.7622799999	-0.350916
C	-2.1868545972	-0.5875532774	 1.1530168823	 0.372029
O	-1.8374658308	-0.3800436094	 2.2991749171	-0.399747
H	 1.1074364189	 1.9623958929	 0.1258125383	 0.106971
H	-0.4179920686	 2.1010355046	-0.769156798	 0.110388
H	-0.4375076271	 1.9287083373	 0.9939544043	 0.143955
H	 0.5666042144	-0.2380339176	-0.9452264446	 0.075409
H	 0.5284085278	-0.3640605018	 0.8093284337	 0.125172
H	-0.8637605592	-0.8027433209	-2.70728874	 0.257596
H	-2.2936848393	-1.626940698	-3.0137530529	 0.252261
H	-4.2895213653	-0.8094371709	-1.1812250442	 0.126768
H	-3.641155167	-2.4194238326	-0.8189363965	 0.113453
H	-4.0579314916	-1.4504572921	 1.4364814854	 0.245473
40.3155	122.3803	165.0749	198.59	209.3356	285.5684	304.8373	349.2675	404.069	409.1748	540.2192	552.3569	560.8025	626.2837	691.5874	743.6635	774.9691	789.0009	932.8328	960.7321	1012.4369	1046.8779	1086.8675	1092.1256	1160.2129	1192.0831	1201.8773	1257.1491	1302.6734	1341.2593	1355.3741	1397.4472	1406.6708	1428.9556	1475.6801	1496.8794	1506.936	1508.6735	1648.0897	1726.1381	1804.1458	2984.2451	3010.0158	3021.3075	3035.8305	3059.1408	3103.9381	3122.6154	3561.0702	3654.6042	3662.8543
CCC1=C(N)CNC1=O	CCC1=C(N)CNC1=O	
InChI=1S/C6H10N2O/c1-2-4-5(7)3-8-6(4)9/h2-3,7H2,1H3,(H,8,9)	InChI=1S/C6H10N2O/c1-2-4-5(7)3-8-6(4)9/h2-3,7H2,1H3,(H,8,9)
