21
gdb 90254	3.39493	1.46093	1.21356	1.5885	81.88	-0.2307	0.0659	0.2966	1102.3903	0.183278	-387.045725	-387.037726	-387.036781	-387.078109	31.866	
C	-0.0928148514	 1.5611995494	 0.0638081945	-0.394355
C	 0.0400097907	 0.0459435848	 0.0294914278	 0.007222
C	 1.0670357594	-0.5720114227	-0.9881780447	-0.37244
C	 1.9018279887	-1.0835497891	 0.1905470838	 0.335663
C	 2.8290980895	-2.2790543573	 0.431887395	-0.34916
C	 3.6019359906	-1.4252785411	 1.4940603914	-0.237399
C	 2.8121000599	-0.1619832272	 1.0430576583	 0.078535
O	 1.7401336985	 0.237059367	 1.9233308783	-0.30406
C	 0.8238296211	-0.6215288356	 1.2079960011	 0.054012
H	 0.8761660602	 2.0399733544	 0.2288494193	 0.126446
H	-0.5057039917	 1.9346009104	-0.8792585322	 0.109185
H	-0.7566901111	 1.8808016079	 0.8739310557	 0.117582
H	-0.9487262628	-0.4117202409	-0.0771549845	 0.072541
H	 0.6317733205	-1.3724611692	-1.5941611299	 0.101855
H	 1.5698289231	 0.1305038988	-1.6609555843	 0.095224
H	 2.3636886136	-3.2087590523	 0.7717491761	 0.099028
H	 3.4500471347	-2.5067048188	-0.440448795	 0.105113
H	 3.3886606343	-1.6865561064	 2.5324923744	 0.114962
H	 4.6841493669	-1.3762554583	 1.3539752097	 0.102078
H	 3.3869481903	 0.6880629478	 0.6634616041	 0.070898
H	 0.2581576549	-1.2757588018	 1.878430731	 0.067073
78.0672	168.6407	210.5805	224.6808	294.7056	358.5106	392.5769	469.4662	558.8382	651.6467	702.6355	769.5129	790.2733	840.2993	851.3933	875.1563	904.055	908.9	933.8368	955.8503	1005.3671	1032.7505	1056.4408	1099.4205	1108.895	1141.1549	1162.3957	1172.6823	1191.0095	1205.2279	1214.617	1231.3451	1258.144	1275.3168	1294.3991	1313.045	1319.3212	1346.8323	1354.2256	1412.6576	1464.7213	1482.3541	1489.9178	1491.5653	1497.3181	3035.2208	3039.8433	3045.2849	3045.857	3059.4071	3063.572	3071.9731	3090.0729	3090.8747	3099.1561	3117.7513	3129.8889
CC1CC23CCC2OC13	C[C@H]1C[C@@]23CC[C@@H]2O[C@@H]13	
InChI=1S/C8H12O/c1-5-4-8-3-2-6(8)9-7(5)8/h5-7H,2-4H2,1H3	InChI=1S/C8H12O/c1-5-4-8-3-2-6(8)9-7(5)8/h5-7H,2-4H2,1H3/t5-,6-,7-,8-/m0/s1
