18
gdb 17962	2.64426	2.51151	1.50144	1.1307	76.53	-0.2185	-0.0137	0.2048	877.5218	0.155894	-347.800239	-347.793203	-347.792259	-347.831161	27.739	
C	-0.0793702441	 1.4256343724	 0.0549146239	-0.062786
C	 1.2988630265	 2.1015315045	-0.068260527	-0.285806
C	 2.0908117134	 1.5567243188	-1.2210710296	-0.047879
C	 2.7970243973	 0.4211804592	-1.1737994105	-0.065358
C	 3.0011438767	-0.435459389	-0.0021587026	-0.09079
C	 2.148969447	-0.7993062817	 0.9650744384	-0.055449
C	 0.6629274697	-0.5831844966	 1.1153846998	-0.134203
O	-0.0183518396	 0.0145495039	 0.0374990666	-0.225318
H	-0.5840831543	 1.7791721739	 0.96904768	 0.086011
H	-0.7089772371	 1.693972923	-0.7996224501	 0.107528
H	 1.1419033124	 3.1813746945	-0.1716343228	 0.097238
H	 1.8528338265	 1.943208261	 0.8650005866	 0.113984
H	 2.058323175	 2.1114498551	-2.1556814935	 0.086806
H	 3.3595627779	 0.1296251382	-2.0592986698	 0.086069
H	 4.0139659952	-0.8293121468	 0.0845113055	 0.088834
H	 2.5483534511	-1.4138259647	 1.7725357651	 0.086104
H	 0.203127243	-1.57337444	 1.2466588856	 0.118821
H	 0.4683241135	-0.0376722656	 2.0565252844	 0.096194
136.1211	226.6943	235.1073	287.4116	367.9908	379.3203	483.5824	562.4105	615.9529	710.0793	774.9355	808.5671	858.6726	865.4598	874.8127	966.0111	998.5828	1005.7401	1020.1835	1030.0211	1042.5263	1117.0715	1152.3997	1236.1097	1257.0062	1274.9046	1281.9126	1324.6172	1354.661	1389.3033	1410.1447	1425.496	1448.7481	1474.0795	1478.8682	1501.6201	1698.685	1714.9239	2941.3598	2971.1472	3012.9502	3028.6106	3064.6642	3082.1639	3109.2952	3129.0643	3137.4441	3162.0905
C1CC=CC=CCO1	C1CC=CC=CCO1	
InChI=1S/C7H10O/c1-2-4-6-8-7-5-3-1/h1-4H,5-7H2/b3-1-,4-2-	InChI=1S/C7H10O/c1-2-4-6-8-7-5-3-1/h1-4H,5-7H2/b3-1-,4-2-
