18
gdb 54693	4.01544	1.22766	1.17435	2.0576	75.43	-0.2411	-0.0172	0.2239	1109.6024	0.14738	-401.895076	-401.887211	-401.886267	-401.928108	29.744	
C	 0.008787349	 1.3815485485	-0.2649915183	-0.482929
C	-0.0776197653	 0.1651760127	 0.6378079471	 0.369422
O	 0.8102719015	-0.1323371548	 1.4052718971	-0.301834
C	-1.3409801362	-0.6703951915	 0.5116230046	-0.124527
C	-1.0789729507	-1.9098131814	-0.3667680899	-0.037475
C	-0.7219713703	-2.7362137361	 0.8066110084	-0.026485
C	-1.5293294643	-1.692902188	 1.6666081119	-0.081403
C	-2.7704572897	-2.4724782585	 1.2061871595	-0.166172
N	-1.9784135522	-3.0376615056	 0.0630963981	-0.15822
H	 0.9994436344	 1.8316547604	-0.1932094963	 0.143482
H	-0.2078819987	 1.111306939	-1.3047023478	 0.138996
H	-0.7478691691	 2.1172172005	 0.0329251743	 0.143394
H	-2.2002542084	-0.0435693482	 0.2431966971	 0.07367
H	-0.7131855579	-1.9478080008	-1.3844351755	 0.104364
H	 0.0676685178	-3.4463241739	 1.0059906371	 0.105145
H	-1.3420206924	-1.3921723965	 2.6939196777	 0.090232
H	-3.0391281715	-3.2946863281	 1.874007696	 0.113489
H	-3.6699385259	-1.9116523677	 0.9247519189	 0.096851
49.0398	133.2383	150.3169	176.6054	333.614	384.3897	445.6073	577.0462	591.8723	751.7928	761.4337	793.3064	827.2169	863.0575	889.086	918.3504	945.0954	954.1111	977.781	995.9472	1010.7503	1031.7014	1063.8862	1081.1375	1145.4026	1162.5725	1170.9454	1186.8624	1203.2792	1221.7125	1254.1675	1295.6511	1329.6846	1357.4009	1383.9873	1461.8347	1474.8287	1507.5991	1802.7481	3026.9335	3032.4531	3036.6455	3092.2996	3104.5852	3152.8397	3155.9886	3200.9319	3224.692
CC(=O)C1C2C3C1CN23	CC(=O)[C@H]1[C@H]2[C@H]3[C@@H]1CN23	
InChI=1S/C7H9NO/c1-3(9)5-4-2-8-6(4)7(5)8/h4-7H,2H2,1H3	InChI=1S/C7H9NO/c1-3(9)5-4-2-8-6(4)7(5)8/h4-7H,2H2,1H3/t4-,5-,6-,7+,8?/m1/s1
