21
gdb 105209	1.9804	1.48103	1.09087	2.4094	80.4	-0.2336	-0.0112	0.2225	1242.3133	0.178723	-424.230545	-424.219975	-424.219031	-424.266124	37.922	
C	 0.0379843813	 0.9890225627	-0.8247801991	-0.255091
O	-0.0789421206	 0.0407609946	 0.222499279	-0.288126
C	-1.3189374214	-0.5951053636	 0.3064704982	 0.27498
C	-1.7734267908	-1.5043065512	-0.8224150203	-0.341695
C	-1.2898255224	-2.1183752662	 0.4556051506	-0.023783
C	 0.0316488475	-2.8460433031	 0.5243765655	-0.406237
C	-2.3801062962	 0.0960803306	 1.1180069225	 0.336179
C	-1.9504957081	 1.2899612777	 1.9484149737	-0.484305
O	-3.5185411321	-0.3251535298	 1.1345205821	-0.324209
H	 1.0410591921	 1.415191736	-0.7513492857	 0.130591
H	-0.0824587245	 0.5227895601	-1.8113065603	 0.114717
H	-0.6991072605	 1.7988619738	-0.7358019199	 0.110701
H	-2.8363805413	-1.5114567673	-1.0332560282	 0.138132
H	-1.1158708768	-1.5628290349	-1.6834755318	 0.116229
H	-2.0723469151	-2.4950734294	 1.1076154995	 0.108952
H	 0.7885058149	-2.3460899584	-0.0838456629	 0.126579
H	 0.4062100081	-2.8904850497	 1.5521910019	 0.121857
H	-0.0801490658	-3.8739714592	 0.1631030701	 0.119864
H	-1.0372527574	 1.0658762644	 2.5068019178	 0.14686
H	-1.71990694	 2.1435440741	 1.3014169705	 0.140134
H	-2.7615209106	 1.5638429488	 2.6239917367	 0.13767
62.7211	110.7325	145.2111	155.2915	164.3256	166.3063	193.615	251.3162	295.3972	345.8165	401.6368	465.2439	525.5654	556.6385	617.1603	657.4262	805.3785	865.9963	890.6609	922.5266	959.7649	1010.5438	1051.9201	1060.1179	1067.7681	1094.3424	1135.6717	1168.1619	1183.0134	1199.4888	1220.4557	1279.8927	1308.6929	1381.2503	1393.1252	1419.6122	1456.5792	1458.0825	1469.6434	1482.1318	1487.787	1490.3092	1500.2969	1510.054	1785.3959	3000.4736	3037.8188	3045.485	3054.4273	3096.809	3109.6402	3122.6481	3125.6529	3134.9323	3156.747	3160.5017	3232.2883
COC1(CC1C)C(C)=O	CO[C@]1(C[C@H]1C)C(=O)C	
InChI=1S/C7H12O2/c1-5-4-7(5,9-3)6(2)8/h5H,4H2,1-3H3	InChI=1S/C7H12O2/c1-5-4-7(5,9-3)6(2)8/h5H,4H2,1-3H3/t5-,7+/m1/s1
