17
gdb 99413	1.68505	1.43957	1.27004	0.5305	85.7	-0.2646	0.0247	0.2893	1183.1351	0.13054	-347.439865	-347.429537	-347.428593	-347.474541	38.164	
C	-0.0694513203	 1.5494935179	 0.1009406711	-0.404319
C	 0.0070933534	 0.0287755836	-0.0070967009	-0.186671
C	 0.741916641	-0.4881163512	-1.2987245128	-0.325006
C	 0.7433094544	-1.962994718	-1.2745501274	 0.331426
C	 0.723512234	-3.1617122887	-1.2178976696	-0.436199
C	 0.0318074357	-0.0196272396	-2.504246649	 0.364291
C	-0.5688243078	 0.3686092942	-3.468348146	-0.468063
C	 2.1335545742	 0.0018179204	-1.3171223009	 0.364293
C	 3.2631436246	 0.4078111498	-1.3038751341	-0.468066
H	 0.9289671636	 1.9946767436	 0.1270287281	 0.133062
H	-0.6136255362	 1.978959258	-0.7447233117	 0.133068
H	-0.591679938	 1.8310721096	 1.0199453275	 0.116435
H	 0.541720037	-0.3955201938	 0.8478192256	 0.119989
H	-0.9944022258	-0.4111983915	-0.0198208853	 0.119991
H	 0.714753074	-4.2231979948	-1.1834103538	 0.200261
H	-1.0882797212	 0.7040108933	-4.3319716575	 0.202755
H	 4.2654782475	 0.7592165871	-1.3075252333	 0.202754
109.7672	116.9853	126.6449	145.769	167.3017	185.9829	258.8899	333.5766	337.3837	462.2678	481.7365	551.1965	552.1957	565.5097	635.3899	641.9335	642.0679	644.1964	647.2025	649.2687	652.6198	790.9345	946.0026	995.6827	1028.5515	1055.8566	1151.8076	1187.0065	1310.7632	1354.4559	1411.6917	1479.3596	1494.6541	1507.7196	2238.8674	2240.3686	2247.4936	3046.7629	3056.3787	3100.0765	3116.9506	3127.9095	3500.3956	3500.8035	3501.9112
CCC(C#C)(C#C)C#C	CCC(C#C)(C#C)C#C	
InChI=1S/C9H8/c1-5-9(6-2,7-3)8-4/h1-3H,8H2,4H3	InChI=1S/C9H8/c1-5-9(6-2,7-3)8-4/h1-3H,8H2,4H3
