23
gdb 86219	2.48926	1.1666	0.84879	0.8127	92.16	-0.2532	0.0571	0.3104	1435.4065	0.205131	-351.150855	-351.14093	-351.139986	-351.18597	37.872	
C	 0.0099599649	 1.6431400603	 0.0123175894	-0.408986
C	 0.027957428	 0.117452313	-0.0777588451	 0.049396
C	 0.9281763648	-0.4467586519	-1.1932618984	-0.225735
C	 1.1998894037	-1.8953046022	-0.7676005138	 0.038674
C	 2.3146468573	-2.6089208145	-1.5256889325	-0.416224
C	 1.4734014278	-1.7390371746	 0.7561368025	-0.151912
C	 0.5242983753	-0.5870818858	 1.2188742586	-0.246664
C	 1.3350551809	-2.9743637611	 1.5122072566	 0.30901
C	 1.2047559352	-4.0020673698	 2.1239604132	-0.45982
H	 1.0137570289	 2.0352748641	 0.2147158056	 0.110981
H	-0.3416585971	 2.0937037872	-0.9222420089	 0.111666
H	-0.6494140102	 1.9882774753	 0.8159430503	 0.113694
H	-0.9957455578	-0.2242891925	-0.276859571	 0.072736
H	 0.4716858276	-0.3721514463	-2.1854495498	 0.091417
H	 1.8770370702	 0.1083212663	-1.2313834328	 0.088033
H	 0.2700837698	-2.4692444763	-0.8786586747	 0.079535
H	 3.2581412168	-2.0552195157	-1.4481596944	 0.109869
H	 2.4804564748	-3.6137468241	-1.1246152354	 0.126609
H	 2.0724041108	-2.7063545526	-2.5889945417	 0.111799
H	 2.5111706855	-1.3921690633	 0.8588533688	 0.095244
H	 1.0628421935	 0.1085274987	 1.8697491463	 0.100764
H	-0.3103266498	-0.9841173241	 1.8011462782	 0.110516
H	 1.0952392894	-4.9058445502	 2.670043539	 0.189398
30.6837	126.9913	133.8845	203.8909	233.5792	242.5011	262.6841	338.7138	404.4693	413.3989	484.2063	497.6786	539.1847	584.6071	616.7439	625.9809	779.7386	837.577	889.5551	913.8217	923.3734	946.0993	992.4542	1009.3992	1052.5452	1069.022	1073.1905	1128.0692	1158.4933	1178.936	1187.5851	1238.3299	1276.7069	1296.3686	1305.7523	1321.5403	1347.6902	1363.6585	1378.8745	1383.5276	1410.6585	1412.2333	1490.6525	1496.1109	1496.3149	1497.8047	1500.1394	1503.8072	2231.1223	2998.3674	3001.6083	3015.3331	3021.531	3023.5114	3027.9423	3055.7963	3076.0507	3089.5359	3092.595	3094.2995	3104.3663	3104.9846	3505.624
CC1CC(C)C(C1)C#C	C[C@H]1C[C@@H](C)[C@@H](C1)C#C	
InChI=1S/C9H14/c1-4-9-6-7(2)5-8(9)3/h1,7-9H,5-6H2,2-3H3	InChI=1S/C9H14/c1-4-9-6-7(2)5-8(9)3/h1,7-9H,5-6H2,2-3H3/t7-,8+,9+/m0/s1
