18
gdb 88749	3.41255	0.98091	0.84662	2.2716	75.44	-0.2383	-0.0376	0.2007	1352.3986	0.145676	-439.033069	-439.02428	-439.023335	-439.067222	32.643	
O	-0.0977975531	 1.5067247451	 0.2599300313	-0.428273
C	 0.1095382551	 0.1468857681	 0.0725814102	 0.13661
C	-0.344789576	-0.8462971347	 1.1152275698	-0.341677
C	-1.0875023596	-0.7364994969	-0.2012511351	-0.026891
N	-2.33894224	-0.0172304629	-0.1828742099	-0.09871
C	-3.2819687538	-0.2125782565	-1.2538239964	-0.254972
C	-3.6111360283	-0.6899863771	 0.1370770332	-0.089101
C	-3.6668721499	-2.1567722808	 0.3738192248	 0.167405
O	-4.4607926483	-2.6796813923	 1.1150129703	-0.259641
H	-1.0598557749	 1.6270391322	 0.2532325272	 0.286775
H	 1.0302397296	-0.0550695481	-0.4658601794	 0.105321
H	 0.2420674838	-1.7405189726	 1.2943066002	 0.119435
H	-0.839216473	-0.4360424893	 1.9892677902	 0.128355
H	-0.987621481	-1.5457908102	-0.9225611451	 0.092025
H	-3.7846555367	 0.670980319	-1.6364819792	 0.138845
H	-3.0546451108	-0.9735085184	-2.0000800337	 0.128278
H	-4.2960154877	-0.1120321836	 0.7510310755	 0.119474
H	-2.9229977354	-2.755883991	-0.1961004638	 0.07674
48.238	100.557	150.3819	205.2634	231.0788	298.4099	386.5693	419.9442	451.384	472.0801	521.7752	623.803	739.6368	802.8417	816.7827	867.9285	888.3302	943.7521	1001.4272	1017.2908	1035.2245	1063.4177	1081.218	1111.2063	1118.6936	1121.6008	1134.0984	1172.1855	1186.1461	1223.2823	1300.5019	1341.5212	1351.8541	1377.3304	1433.2735	1443.4807	1478.4963	1504.1225	1819.2767	2890.3567	3092.913	3107.1116	3134.2771	3159.5417	3160.6801	3188.2962	3227.3823	3699.5836
OC1CC1N1CC1C=O	O[C@H]1C[C@H]1N1C[C@H]1C=O	
InChI=1S/C6H9NO2/c8-3-4-2-7(4)5-1-6(5)9/h3-6,9H,1-2H2	InChI=1S/C6H9NO2/c8-3-4-2-7(4)5-1-6(5)9/h3-6,9H,1-2H2/t4-,5+,6-,7?/m0/s1
