21
gdb 58307	3.09624	0.84513	0.7403	1.6762	75.35	-0.2529	0.064	0.3168	1589.4469	0.179528	-461.335052	-461.324593	-461.323648	-461.371119	37.935	
C	-0.0593846668	 1.5287041854	 0.2278714375	-0.403788
C	-0.0219867148	 0.0148664188	 0.0350052684	 0.105859
O	 0.7311718739	-0.629094891	 1.0586970591	-0.425343
C	-1.4355554408	-0.5937129241	-0.0751554731	 0.109649
O	-2.1852639651	 0.0341704631	-1.1137308168	-0.433423
C	-1.40591912	-2.117343361	-0.2448664574	-0.250625
C	-2.7814423857	-2.7264073194	-0.1351642088	 0.098506
C	-3.0013609732	-4.0614797165	 0.4315826852	-0.18273
O	-3.2877156753	-2.8893845023	 1.1963133386	-0.24058
H	 0.9552870369	 1.9344036984	 0.2555090228	 0.120603
H	-0.6207315781	 2.0092692125	-0.576237543	 0.131398
H	-0.5567048638	 1.7806448876	 1.1736057185	 0.10757
H	 0.520365279	-0.2200683067	-0.8929162923	 0.075454
H	 0.3688040358	-0.3487677358	 1.9069770373	 0.282003
H	-1.9850513319	-0.3561306124	 0.8461466265	 0.096246
H	-1.7621947024	-0.1856329822	-1.9520063874	 0.278433
H	-0.9732488791	-2.3587508273	-1.2279763607	 0.084758
H	-0.7462471152	-2.5487433746	 0.5125714608	 0.122654
H	-3.5196198126	-2.3394591178	-0.837749239	 0.099572
H	-3.8686300915	-4.646451654	 0.1277706847	 0.112588
H	-2.1469256093	-4.6449535806	 0.7736606992	 0.111198
59.611	65.5716	92.2413	138.1491	222.5552	237.7765	292.7429	310.5151	320.7392	350.5079	366.744	434.134	476.0139	497.7813	564.5699	788.9464	848.2073	858.5516	901.6163	936.2124	964.3163	1004.5436	1049.7563	1086.1406	1092.9179	1105.2713	1130.0473	1157.6749	1165.0757	1170.9958	1210.4003	1239.0598	1292.8823	1299.2728	1317.8051	1363.4281	1391.749	1396.5058	1412.3884	1418.6314	1443.6511	1469.4434	1488.3367	1495.8772	1531.5698	2998.3338	3000.6864	3025.4522	3032.6009	3079.295	3100.0166	3102.2638	3117.9653	3137.158	3164.9099	3789.1053	3795.0107
CC(O)C(O)CC1CO1	C[C@@H](O)[C@@H](O)C[C@H]1CO1	
InChI=1S/C6H12O3/c1-4(7)6(8)2-5-3-9-5/h4-8H,2-3H2,1H3	InChI=1S/C6H12O3/c1-4(7)6(8)2-5-3-9-5/h4-8H,2-3H2,1H3/t4-,5+,6+/m1/s1
