20
gdb 115053	2.5265	1.30056	0.92987	2.1394	76.38	-0.2548	0.0208	0.2757	1309.3476	0.170687	-440.300961	-440.291618	-440.290674	-440.335571	33.542	
C	 0.0024010305	 1.5562718017	 0.0415348373	-0.388178
C	 0.0288685011	 0.0261929655	 0.0473857852	-0.167449
C	 0.711519902	-0.5444725167	-1.1984108072	-0.017978
N	 2.141682546	-0.1760748819	-1.2720113881	-0.266315
C	 2.7574273459	-1.2391989464	-1.5706256917	 0.105996
O	 2.0634207464	-2.3961253722	-1.7411525218	-0.236029
C	 0.7090415665	-2.0929466307	-1.3087859437	 0.186695
O	 0.45074383	-2.6833941839	-0.084979816	-0.223246
C	 0.3789766186	-4.0998102839	-0.1243778487	-0.244518
H	 1.0162448265	 1.9599822356	-0.0185966102	 0.141017
H	-0.5623875386	 1.941259212	-0.8154141778	 0.107152
H	-0.4696229334	 1.9409767338	 0.9506741065	 0.107747
H	 0.5523258109	-0.343053204	 0.9338790802	 0.114101
H	-0.9909651474	-0.3714611088	 0.1013630887	 0.097284
H	 0.2218246839	-0.1292101144	-2.0897560675	 0.089551
H	 3.8273874518	-1.3307610936	-1.722565083	 0.138536
H	 0.0453275366	-2.4959643161	-2.0848438247	 0.079105
H	-0.3843760063	-4.4372656013	-0.840900165	 0.111032
H	 1.343227228	-4.5412173675	-0.4000604234	 0.1318
H	 0.1003100708	-4.4309363274	 0.8777168908	 0.133696
81.8406	95.7653	122.865	152.2476	187.4875	218.4726	271.0988	334.1288	354.4717	472.0992	531.6804	600.6105	757.5387	809.4355	844.5359	878.2216	932.1623	953.6092	961.039	975.4089	1032.9979	1071.9165	1097.3867	1125.0533	1155.5836	1179.2	1181.102	1228.1704	1278.8463	1310.2425	1311.7513	1333.9727	1360.6263	1386.0647	1402.3638	1410.3006	1479.4644	1481.1596	1486.2169	1496.8897	1510.1715	1511.1889	1710.2676	2997.4055	3008.235	3027.8327	3034.401	3045.7379	3072.6173	3086.5	3104.3613	3125.604	3132.6558	3211.8531
CCC1N=COC1OC	CC[C@H]1[N][CH]O[C@H]1OC	
InChI=1S/C6H11NO2/c1-3-5-6(8-2)9-4-7-5/h4-6H,3H2,1-2H3	InChI=1S/C6H11NO2/c1-3-5-6(8-2)9-4-7-5/h4-6H,3H2,1-2H3/t5-,6-/m1/s1
