13
gdb 20741	3.58317	1.96726	1.28005	0.6421	68.17	-0.2423	-0.0221	0.2202	887.599	0.096118	-357.625358	-357.618009	-357.617064	-357.657441	26.28	
C	-0.035621255	 1.5000485537	-0.0235852787	-0.512927
C	-0.011350737	 0.0095903072	 0.0064044483	 0.209529
N	-0.027044153	-0.7348877043	-1.0979149102	-0.2356
N	 0.0044414941	-1.9808547083	-0.6336607046	-0.099907
N	 0.0392844353	-2.1322764501	 0.6767095233	-0.273652
C	 0.0306646843	-0.8658293746	 1.1240219841	 0.143867
C	 0.0593367478	-0.5276309654	 2.4961262094	 0.286495
C	 0.0826435794	-0.1902930903	 3.6509996359	-0.444445
H	 0.8556012678	 1.9180377659	 0.4557242447	 0.143692
H	-0.0761935676	 1.853148451	-1.0554350949	 0.146214
H	-0.9045465439	 1.8903615981	 0.5160379418	 0.143671
H	 0.0013256975	-2.7746170552	-1.2538221567	 0.295603
H	 0.1036970104	 0.0939128122	 4.6738967777	 0.19746
55.9381	135.4667	176.2349	279.0097	322.1404	483.1721	525.7595	543.8507	587.5994	593.8255	672.7777	713.8206	715.5688	764.0986	983.3015	1022.1474	1070.6321	1169.3312	1196.454	1263.3371	1341.6827	1413.1078	1444.671	1480.2624	1481.7107	1504.3531	1555.3064	2241.7401	3043.623	3097.5401	3141.4757	3503.5385	3667.2698
CC1=NNN=C1C#C	Cc1n[nH]nc1C#C	
InChI=1S/C5H5N3/c1-3-5-4(2)6-8-7-5/h1H,2H3,(H,6,7,8)	InChI=1S/C5H5N3/c1-3-5-4(2)6-8-7-5/h1H,2H3,(H,6,7,8)
