25
gdb 118490	2.16244	0.97088	0.70807	1.7329	89.17	-0.2522	0.0866	0.3388	1685.8726	0.227999	-389.480107	-389.469228	-389.468284	-389.51644	40.069	
C	 0.0450428369	 1.5200093682	 0.0833497276	-0.378828
C	 0.0319164181	-0.0092855975	 0.0002209728	-0.17302
C	-1.3889035829	-0.584965483	-0.0198255872	-0.169916
C	-1.4856109052	-2.1231896651	-0.0279909033	-0.031757
C	-2.9563589608	-2.5375265748	 0.167035596	-0.067107
O	-3.1521723784	-3.9332748238	 0.3069477455	-0.427493
C	-0.9108054968	-2.7359462084	-1.2955517197	 0.024841
C	 0.5482752399	-3.0971651207	-1.4143567707	-0.27518
C	-0.4838308999	-4.19179265	-1.3437773613	-0.299575
H	 1.0672575576	 1.9110273112	 0.0982086497	 0.110285
H	-0.4694422054	 1.9676989435	-0.7745070499	 0.112554
H	-0.4598927065	 1.8724913879	 0.9897926746	 0.113
H	 0.5743254237	-0.3312608231	-0.8952426973	 0.106128
H	 0.5794882898	-0.4262611038	 0.8559983109	 0.091619
H	-1.9324984731	-0.2079352161	 0.8577510899	 0.089068
H	-1.9245721367	-0.1884490606	-0.8947977556	 0.089519
H	-0.9221682919	-2.5177999184	 0.8301055298	 0.071597
H	-3.3422712672	-2.0895651197	 1.0892134291	 0.102851
H	-3.5595097268	-2.1327153209	-0.6642932159	 0.078413
H	-2.8261923179	-4.3473484354	-0.4980148352	 0.287189
H	-1.3707007043	-2.3584109758	-2.207990513	 0.079925
H	 1.0487265994	-2.9215528834	-2.3602070157	 0.111627
H	 1.1785512937	-2.9466399201	-0.5445614029	 0.116309
H	-0.5414778049	-4.7666955379	-0.4256801579	 0.126614
H	-0.6868538103	-4.7636612523	-2.2431958802	 0.111337
72.2137	85.2982	102.6589	117.0407	158.9006	196.9856	245.9534	281.8714	289.8496	330.1404	352.3249	398.8531	458.6599	581.3553	731.3284	762.2318	811.1931	828.6921	868.4699	896.4154	922.8648	944.7585	973.3349	1029.5701	1038.5726	1050.7933	1060.8619	1083.0074	1092.0954	1102.1114	1143.8122	1145.3206	1179.2596	1204.1701	1223.6562	1237.1913	1263.0524	1282.475	1317.7829	1336.5981	1344.946	1389.6979	1395.9219	1412.8306	1420.4403	1435.464	1473.7782	1481.8366	1493.7304	1499.6966	1503.8717	1509.1858	1512.5362	2953.7343	2996.8019	3005.5413	3019.8748	3028.0063	3032.6672	3066.1484	3069.2293	3096.2266	3100.8036	3113.132	3128.8342	3135.7432	3208.4475	3223.4825	3825.8473
CCCC(CO)C1CC1	CCC[C@@H](CO)C1CC1	
InChI=1S/C8H16O/c1-2-3-8(6-9)7-4-5-7/h7-9H,2-6H2,1H3	InChI=1S/C8H16O/c1-2-3-8(6-9)7-4-5-7/h7-9H,2-6H2,1H3/t8-/m0/s1
