20
gdb 51671	4.11211	0.95519	0.8928	3.6752	80.82	-0.2472	0.0304	0.2777	1355.843	0.172413	-403.148528	-403.140113	-403.139168	-403.182903	31.656	
O	-0.1184827124	 0.1693558177	 0.6738760736	-0.321484
C	-0.0195635592	 1.225747421	 0.0872325446	 0.152837
N	 1.1406373869	 1.76501895	-0.3802985271	-0.288396
C	 2.4317607545	 1.1382274982	-0.2312925545	 0.060747
C	 3.3746506648	 1.0545839343	-1.4676929302	-0.277304
C	 4.5725748531	 1.4960964686	-0.5750473598	-0.006644
C	 4.9435932681	 2.99060795	-0.7015601258	-0.218491
C	 3.7850057756	 3.3522413801	 0.2772088808	-0.238741
C	 3.5537741864	 1.8408593187	 0.574659741	-0.032256
H	-0.890290005	 1.8742963532	-0.1372354731	 0.070853
H	 1.0844072889	 2.6547459941	-0.8506128439	 0.244084
H	 2.2350395645	 0.1490007619	 0.1843430699	 0.123464
H	 3.4457106919	 0.067018244	-1.9283710276	 0.112036
H	 3.1364971703	 1.7784163873	-2.2548723443	 0.091241
H	 5.3762865561	 0.768629372	-0.4618001501	 0.068236
H	 5.9249469415	 3.2170405561	-0.2760546392	 0.103355
H	 4.9012961124	 3.4188112105	-1.7080809758	 0.093906
H	 4.0872925054	 3.9411100931	 1.1454167268	 0.109726
H	 2.9328674107	 3.8650045059	-0.1803305623	 0.082271
H	 3.6799982353	 1.5353477432	 1.6139679869	 0.070561
25.9011	81.4041	169.0241	192.4198	251.2923	351.2172	396.0573	501.5999	529.0181	597.1315	730.5442	742.7492	753.3673	819.1282	847.5665	890.4108	898.0967	954.5627	961.9727	1014.7073	1027.8322	1048.4494	1058.2456	1085.106	1119.4785	1141.4059	1178.3195	1207.1698	1224.0098	1234.8732	1252.2023	1261.4172	1280.8306	1294.0286	1305.3853	1330.2774	1364.8979	1432.9899	1479.5404	1482.6035	1499.2704	1531.3068	1806.625	2928.9794	3043.1241	3044.9611	3052.9207	3088.3273	3096.3498	3101.3151	3107.9796	3113.4909	3122.2253	3626.5392
O=CNC1CC2CCC12	O=CN[C@H]1C[C@H]2CC[C@@H]12	
InChI=1S/C7H11NO/c9-4-8-7-3-5-1-2-6(5)7/h4-7H,1-3H2,(H,8,9)	InChI=1S/C7H11NO/c9-4-8-7-3-5-1-2-6(5)7/h4-7H,1-3H2,(H,8,9)/t5-,6-,7+/m1/s1
