23
gdb 94553	2.5253	1.34764	1.15111	1.3981	85.52	-0.2342	0.0628	0.2969	1215.9906	0.204593	-388.264734	-388.254978	-388.254034	-388.299058	37.422	
C	-0.9629222391	 0.9419107403	 0.2639475452	-0.415736
C	 0.0552071525	-0.16237679	 0.0168590949	 0.048684
C	 1.2896722783	 0.1285742647	-0.8818391168	-0.21948
C	 2.1674756065	-0.7077292819	 0.0866539973	-0.229325
C	 1.0330374238	-0.6291891093	 1.15529643	-0.05033
C	 1.296308356	 0.3389143871	 2.2827081987	 0.44317
O	 1.7400063732	 1.5829101886	 1.787393605	-0.472522
C	 0.4320049973	 0.3065117091	 3.5164979683	-0.328042
C	 1.8748584432	-0.1742995875	 3.5758540987	-0.341875
H	-0.4795517232	 1.8397367337	 0.6566914993	 0.129676
H	-1.4725091908	 1.2072005844	-0.6697869343	 0.103247
H	-1.7316308535	 0.6278984974	 0.9793232089	 0.10407
H	-0.463777289	-1.0511570529	-0.3616386741	 0.063216
H	 1.2355147215	-0.1982518095	-1.9237620397	 0.082856
H	 1.5623071669	 1.1862111909	-0.8552225791	 0.111541
H	 2.3284064016	-1.7308247802	-0.2636956329	 0.089353
H	 3.1288425808	-0.2776504892	 0.3736126037	 0.10103
H	 0.7587754698	-1.5862094246	 1.6088918964	 0.058188
H	 1.9961575668	 2.139806986	 2.5284104128	 0.279947
H	 0.1982237962	 1.253726633	 3.9931129358	 0.106017
H	-0.3628478796	-0.4287716613	 3.5835852363	 0.115935
H	 2.0678368399	-1.2364030517	 3.6832600805	 0.117112
H	 2.5926056109	 0.4564963328	 4.0927320451	 0.103267
77.4591	117.0335	126.8537	167.9372	230.7464	234.5023	274.6299	319.9853	362.9318	402.7105	470.1041	564.2078	645.1942	721.604	755.3899	762.2947	856.393	879.3772	892.2719	918.203	940.0128	952.1813	960.2889	978.2966	1005.7054	1049.1785	1062.6282	1071.7667	1082.0489	1134.7339	1161.1778	1182.3379	1183.4541	1220.0796	1252.3182	1263.3813	1270.8289	1280.4015	1308.7179	1354.0508	1372.7336	1407.987	1446.9173	1462.4788	1472.9198	1490.5396	1494.1171	1502.246	1508.8705	3021.8673	3028.3498	3053.4598	3056.8567	3066.5217	3082.638	3108.0929	3118.8722	3123.0097	3124.516	3126.0195	3198.6956	3213.8995	3831.1233
CC1CCC1C1(O)CC1	C[C@H]1CC[C@H]1C1(O)CC1	
InChI=1S/C8H14O/c1-6-2-3-7(6)8(9)4-5-8/h6-7,9H,2-5H2,1H3	InChI=1S/C8H14O/c1-6-2-3-7(6)8(9)4-5-8/h6-7,9H,2-5H2,1H3/t6-,7+/m0/s1
