12
gdb 130908	5.1536	1.06708	0.88403	5.1728	66.85	-0.2844	-0.118	0.1665	1180.8483	0.076343	-472.625383	-472.618071	-472.617127	-472.657839	26.088	
O	-0.1211065056	-0.0173502172	-0.0019489574	-0.223863
C	-0.0260198652	 1.1786897121	 0.006820621	 0.126258
C	 1.2655399224	 1.9461325506	-0.0008809801	 0.224761
N	 2.3569579225	 1.2431156107	-0.0181532198	-0.068896
O	 3.5401407564	 1.9162910903	-0.0253689106	-0.244517
C	 3.6671073206	 3.3244536786	-0.0155279561	 0.455086
O	 4.775887518	 3.7730526145	-0.0233165685	-0.309425
C	 2.4103829925	 4.0557450937	 0.0039020156	-0.226325
C	 1.2451821359	 3.3850569038	 0.0109373797	-0.120522
H	-0.9212332032	 1.839782023	 0.0215675973	 0.090629
H	 2.4820688072	 5.1363430514	 0.0119162383	 0.154423
H	 0.2887830485	 3.8993245787	 0.0253400706	 0.14239
68.3751	120.1482	200.4421	276.7667	351.358	394.9446	474.3171	533.8168	573.4006	630.5135	752.3677	771.528	810.4579	861.4109	922.4236	1017.715	1029.5306	1074.4704	1120.4311	1211.4224	1228.8219	1426.8891	1434.4697	1568.9334	1667.3002	1834.838	1867.578	2885.7147	3178.5714	3221.6322
O=CC1=NOC(=O)C=C1	O=Cc1noc(=O)cc1	
InChI=1S/C5H3NO3/c7-3-4-1-2-5(8)9-6-4/h1-3H	InChI=1S/C5H3NO3/c7-3-4-1-2-5(8)9-6-4/h1-3H
