15
gdb 127440	3.23031	1.30043	0.93807	3.4504	76.29	-0.2712	-0.0544	0.2168	1198.2834	0.113397	-413.037486	-413.028847	-413.027902	-413.071499	29.666	
C	-0.1788838731	 1.3889519589	-0.0290947445	-0.337245
N	-0.0466966527	-0.0545898563	 0.0174129159	-0.015742
N	-0.1769534256	-0.8020272161	-1.0927971493	-0.277585
C	 0.0067669652	-2.0475613951	-0.6545658102	 0.338043
C	-0.04948817	-3.2327010655	-1.5570657164	-0.490375
N	 0.2482158538	-2.1359525848	 0.680302043	-0.341312
C	 0.2080382657	-0.8705955244	 1.0715643078	 0.271575
C	 0.3978713498	-0.3851556579	 2.3933475347	 0.245326
N	 0.5462797976	 0.0519907547	 3.4544261552	-0.338924
H	-0.0365483235	 1.7858990163	 0.976549214	 0.172822
H	 0.5749171032	 1.8064880643	-0.7000872706	 0.165024
H	-1.173039074	 1.6564281593	-0.3936075679	 0.16502
H	 0.8990309828	-3.7774405097	-1.5352843971	 0.148956
H	-0.8311771249	-3.9258896948	-1.2324619577	 0.148953
H	-0.2557906843	-2.916283299	-2.5804637569	 0.145465
81.1064	83.5855	140.3289	146.0276	185.2477	271.8064	315.4795	403.3526	511.3511	554.3511	589.2209	657.6467	703.6263	739.0716	812.2349	1008.6352	1047.7202	1069.8999	1077.4457	1153.5835	1202.0196	1313.6368	1360.9801	1406.2946	1443.7735	1474.1866	1476.0188	1476.4001	1477.4052	1497.2071	1528.8932	1537.6181	2355.0686	3052.0499	3062.3638	3110.8698	3136.4905	3149.8947	3162.5227
CN1N=C(C)N=C1C#N	Cn1nc(C)nc1C#N	
InChI=1S/C5H6N4/c1-4-7-5(3-6)9(2)8-4/h1-2H3	InChI=1S/C5H6N4/c1-4-7-5(3-6)9(2)8-4/h1-2H3
