16
gdb 44379	3.4465	1.68859	1.41115	3.7909	67.35	-0.2264	0.0083	0.2347	914.0102	0.126711	-437.868571	-437.8621	-437.861156	-437.899446	26.082	
O	 0.0265080316	 0.0485309286	-0.6987151675	-0.319961
C	-0.0331468468	 1.0952911569	-0.1185897724	 0.393116
C	-1.3448078257	 1.8474752963	 0.1363131666	-0.318112
N	-1.2890059985	 2.86891161	 1.174058597	-0.108901
C	-0.7080724663	 2.4149270166	 2.4850708459	-0.194777
C	 0.5190228194	 3.2880337006	 2.2570415999	-0.120092
C	 1.0925601781	 2.9728438538	 0.9008058126	 0.106027
O	 1.1077987314	 1.6600770896	 0.3664233219	-0.224382
C	-0.1518818114	 3.7787581134	 0.9655758564	-0.079715
H	-1.6502207432	 2.3156177427	-0.8071341903	 0.143926
H	-2.1022569043	 1.0952367325	 0.3731119728	 0.147154
H	-1.3375464993	 2.7393387731	 3.3173232153	 0.123525
H	-0.5284373093	 1.3363461906	 2.5683102647	 0.120858
H	 1.0685103152	 3.8432044878	 3.0055337405	 0.104323
H	 2.0149115976	 3.4838988566	 0.6473826359	 0.122967
H	-0.2881466784	 4.765599071	 0.5368250307	 0.104042
104.1982	220.9325	351.2413	420.7978	438.4009	521.4216	541.022	590.287	718.2631	748.0318	785.0813	817.438	839.944	894.2874	933.1882	968.017	1004.7556	1035.744	1055.7341	1066.7587	1082.9329	1109.6558	1140.4079	1182.0658	1203.4122	1218.9304	1260.2125	1281.5572	1314.878	1332.8043	1353.4608	1426.4467	1454.2775	1512.2086	1856.9145	3033.5479	3046.9371	3095.0999	3103.4132	3166.9878	3179.9596	3207.873
O=C1CN2CC3C(O1)C23	O=C1CN2C[C@H]3[C@@H](O1)[C@@H]23	
InChI=1S/C6H7NO2/c8-4-2-7-1-3-5(7)6(3)9-4/h3,5-6H,1-2H2	InChI=1S/C6H7NO2/c8-4-2-7-1-3-5(7)6(3)9-4/h3,5-6H,1-2H2/t3-,5+,6-/m1/s1
