23
gdb 89005	3.92041	0.78402	0.73149	1.3194	86.17	-0.2512	0.0809	0.3322	1640.9464	0.205833	-388.260788	-388.251326	-388.250382	-388.295873	35.894	
O	-0.0868221546	 1.4227248926	 0.1977574033	-0.41724
C	-0.0302185553	 0.027187964	 0.1028035907	 0.083596
C	-0.6744381355	-0.8189173588	 1.1730890362	-0.322097
C	-1.3163995664	-0.6852511854	-0.1981104493	-0.008893
C	-2.6128700253	 0.0787352866	-0.382385146	-0.236062
C	-3.855151891	-0.7643421365	-0.1176999006	 0.072042
C	-4.2303039148	-1.1659113563	 1.339252596	-0.211252
C	-5.722452937	-0.9436238161	 0.9744845263	-0.210585
C	-5.2551976832	-0.0976915485	-0.2403561677	-0.237136
H	 0.4984942986	 1.6941961771	 0.9120034426	 0.286823
H	 0.8764412739	-0.3558554311	-0.3664536534	 0.081627
H	-0.2101785655	-1.7574462444	 1.4566120409	 0.106456
H	-1.1495951687	-0.282278278	 1.9878656757	 0.111963
H	-1.2171330612	-1.5534439163	-0.846098823	 0.081572
H	-2.6129077829	 0.9592851735	 0.2693642767	 0.100085
H	-2.656627615	 0.4648138742	-1.4106809375	 0.095079
H	-3.8281489207	-1.66530759	-0.7442034877	 0.062574
H	-3.927825912	-2.1530137886	 1.6971994435	 0.090803
H	-3.8795871027	-0.4154798299	 2.0558053833	 0.09323
H	-6.2042763086	-1.8733846869	 0.6576859962	 0.098426
H	-6.3619846262	-0.4596565611	 1.7165990178	 0.092121
H	-5.2058891465	 0.9681662187	 0.0079634288	 0.096283
H	-5.7948045893	-0.2076108388	-1.184734843	 0.090585
45.7802	83.2773	105.4622	162.5503	223.8851	273.049	300.6458	377.2333	398.7625	467.3512	540.8441	649.3254	761.5475	768.9437	790.3142	831.4962	867.971	886.8851	900.2212	933.1199	954.5452	973.5937	981.5767	1005.8314	1044.9451	1067.4725	1091.4033	1121.9439	1135.2896	1179.0442	1186.7274	1199.6635	1229.7288	1239.6628	1255.6574	1260.6454	1267.3699	1277.2116	1291.7484	1303.1323	1331.1037	1379.4202	1403.9896	1427.3279	1478.0675	1483.5434	1486.5102	1491.9008	1511.6511	3009.8896	3017.8097	3042.0003	3047.1788	3055.1194	3069.9601	3090.5851	3092.3793	3098.0872	3113.7684	3127.1702	3130.9415	3216.7448	3809.2716
OC1CC1CC1CCC1	O[C@H]1C[C@H]1CC1CCC1	
InChI=1S/C8H14O/c9-8-5-7(8)4-6-2-1-3-6/h6-9H,1-5H2	InChI=1S/C8H14O/c9-8-5-7(8)4-6-2-1-3-6/h6-9H,1-5H2/t7-,8+/m1/s1
