21
gdb 64381	2.13216	1.59669	1.19646	4.8883	81.37	-0.2365	0.0302	0.2667	1142.3423	0.183192	-383.293043	-383.283603	-383.282659	-383.327154	35.691	
C	-0.5376016732	 1.5682035459	 0.0762043965	-0.449818
C	 0.0149998495	 0.1424768866	 0.0031303323	 0.283928
C	-1.1382403317	-0.8528703935	-0.2201573137	-0.4284
C	 1.1050556715	-0.0259793067	-1.0784086005	-0.234704
C	 1.8637126844	-1.2949498764	-0.6625947549	-0.17197
N	 1.782897443	-1.3149650158	 0.8111814829	-0.284633
C	 0.8139849309	-0.3131930864	 1.2717648133	-0.189682
C	 1.5207030575	 0.8065829503	 1.9315519582	 0.318441
N	 2.0679478606	 1.682600376	 2.4505905752	-0.344392
H	 0.2572973597	 2.3033514494	 0.2241273383	 0.142705
H	-1.0629180232	 1.8160565503	-0.8520689414	 0.114218
H	-1.2527663562	 1.677802072	 0.8987187777	 0.118494
H	-1.6232819981	-0.6665205808	-1.1836016633	 0.120053
H	-0.7935627555	-1.8914956118	-0.2151509796	 0.113778
H	-1.8986016749	-0.7496746456	 0.5612728079	 0.118701
H	 0.6872159336	-0.0988269607	-2.0858875006	 0.102879
H	 1.7765565871	 0.8390099852	-1.0580914507	 0.119403
H	 1.4025257083	-2.1877712428	-1.1051362643	 0.09668
H	 2.9076391307	-1.2727443901	-0.9938332577	 0.111698
H	 1.5811256272	-2.2310347856	 1.1825700242	 0.230223
H	 0.1351367188	-0.7369067795	 2.0204796501	 0.112398
46.1832	154.8355	169.4308	211.8271	229.5457	242.6959	295.7043	344.4872	376.7207	399.6072	492.9114	540.2981	568.3988	594.4744	731.6283	796.7354	864.5508	900.8303	927.0521	940.9199	956.9205	986.3216	998.764	1026.3208	1071.1988	1119.2854	1164.8321	1194.6236	1212.7275	1245.3268	1258.9453	1286.5914	1335.81	1346.2602	1384.0551	1404.0707	1426.7457	1446.6687	1481.689	1485.5813	1495.6928	1504.8435	1508.3805	1536.8257	2349.9918	3009.3713	3031.7013	3035.7233	3044.249	3045.8088	3058.6664	3095.8184	3100.3717	3104.0014	3106.4923	3122.282	3600.2595
CC1(C)CCNC1C#N	CC1(C)CCN[C@H]1C#N	
InChI=1S/C7H12N2/c1-7(2)3-4-9-6(7)5-8/h6,9H,3-4H2,1-2H3	InChI=1S/C7H12N2/c1-7(2)3-4-9-6(7)5-8/h6,9H,3-4H2,1-2H3/t6-/m0/s1
