17
gdb 84823	3.03742	1.20719	0.95352	3.1685	71.35	-0.2683	0.0072	0.2755	1229.5128	0.13607	-455.159766	-455.151193	-455.150248	-455.193987	30.482	
C	 0.0344352137	 1.5527824169	-0.0367390732	-0.387992
C	 0.0887603072	 0.0301401803	 0.0332491096	-0.012122
N	 0.7092505267	-0.5624955348	-1.1701571492	-0.258059
C	 1.5257352422	-1.4290121754	-0.7494237397	 0.108237
O	 1.6667421895	-1.6190976197	 0.5970516277	-0.225011
C	 0.9148044687	-0.560049244	 1.2079195089	 0.175028
O	 1.7961012966	 0.4014926152	 1.7289657307	-0.1785
C	 2.438881447	 0.0805786087	 2.8800310255	 0.13294
N	 3.3150399148	 0.8588818384	 3.3390525889	-0.432881
H	 1.0370665097	 1.9751214866	-0.1190183769	 0.146325
H	-0.5461296051	 1.8483611532	-0.9136189214	 0.129996
H	-0.4417031079	 1.9687937756	 0.8555568215	 0.119958
H	-0.9332821181	-0.3637382448	 0.0991230342	 0.100833
H	 2.1470340941	-2.0748678334	-1.3586817996	 0.147969
H	 0.3194079527	-1.003750111	 2.0114510635	 0.099539
H	 2.1027515349	-0.8682912709	 3.3172634908	 0.098729
H	 3.6863222533	 0.4904982888	 4.2124690188	 0.235012
58.8236	93.2799	104.7423	163.4819	229.2613	299.0236	328.9966	443.2938	475.8283	586.7839	642.0223	759.9179	829.0626	842.6846	884.4187	947.8244	953.1326	969.5878	995.4295	1044.4182	1061.4676	1081.6992	1109.7665	1149.3263	1176.4052	1274.4351	1303.7268	1316.2441	1350.2675	1359.6657	1388.2827	1412.1359	1431.3923	1487.1433	1495.6827	1712.8877	1754.5961	3026.0422	3038.5227	3056.2288	3069.9161	3127.9146	3148.6555	3224.7013	3518.7982
CC1N=COC1OC=N	C[C@H]1[N][CH]O[C@H]1O[CH][NH]	
InChI=1S/C5H8N2O2/c1-4-5(8-2-6)9-3-7-4/h2-6H,1H3	InChI=1S/C5H8N2O2/c1-4-5(8-2-6)9-3-7-4/h2-6H,1H3/t4-,5-/m1/s1
