18
gdb 123913	3.41803	1.54855	1.10957	1.8504	77.76	-0.1904	0.0279	0.2183	1070.9415	0.152864	-398.157853	-398.150736	-398.149792	-398.189228	28.757	
C	-0.0141458008	 1.5171395054	-0.0076932952	-0.207722
C	 1.422381899	 2.0736255857	 0.0027046336	-0.162194
N	 2.1998885873	 1.7160160211	 1.1974033624	-0.408093
C	 1.9568304758	 0.4001078209	 1.6401200552	 0.187988
C	 2.6042030376	-0.3569253945	 2.5974340827	-0.152662
N	 1.9748296779	-1.5641342389	 2.5962768948	-0.187963
N	 0.9768880059	-1.651174122	 1.6982886929	-0.316787
C	 0.9560285621	-0.4542767945	 1.1149503217	 0.315196
C	-0.0020608113	-0.0235790065	 0.0468424174	-0.316056
H	-0.5599042778	 1.914437075	 0.8575855037	 0.096984
H	-0.5369404489	 1.8631860667	-0.9056829011	 0.095123
H	 1.9559744824	 1.6910840955	-0.8785247338	 0.108952
H	 1.416793912	 3.1642122807	-0.0801855252	 0.098736
H	 2.0755267823	 2.3965899089	 1.9366448909	 0.227522
H	 3.4257469226	-0.1380190611	 3.2601222293	 0.124382
H	 2.177607812	-2.359379129	 3.176046272	 0.270439
H	-1.0029911458	-0.420967921	 0.2418956717	 0.114654
H	 0.3058276576	-0.4225647424	-0.9291985229	 0.111502
105.2898	218.7093	307.4295	325.755	401.2831	445.9842	458.7926	518.3516	599.3271	664.6629	685.2071	706.2823	730.4416	781.3195	863.9416	873.3045	948.5848	956.357	996.0706	1065.8984	1068.4369	1105.6763	1183.4229	1184.2181	1209.5006	1238.2745	1294.5305	1325.3836	1349.2096	1364.4471	1391.443	1401.1315	1460.0827	1475.0763	1478.1759	1487.5847	1494.6834	1530.5951	1623.1586	3009.918	3013.9878	3027.802	3074.5256	3079.8904	3085.8769	3264.3039	3539.6018	3685.4036
C1CNC2=CNN=C2C1	C1CNc2c[nH]nc2C1	
InChI=1S/C6H9N3/c1-2-5-6(7-3-1)4-8-9-5/h4,7H,1-3H2,(H,8,9)	InChI=1S/C6H9N3/c1-2-5-6(7-3-1)4-8-9-5/h4,7H,1-3H2,(H,8,9)
