19
gdb 26248	3.87315	1.02171	0.87536	0.4502	80.25	-0.1627	0.0658	0.2285	1353.7237	0.158939	-419.223086	-419.213585	-419.212641	-419.25747	35.244	
C	 0.5627151896	 0.7743522347	 1.0363177997	-0.321892
N	-0.1464011308	 0.278715556	-0.1322770504	-0.158101
C	 0.7617449679	-0.2874129936	-1.1302814832	-0.329326
C	-1.2578537607	-0.5268501991	 0.1712303912	 0.327847
C	-1.6123838902	-1.2730707921	 1.266980192	-0.214197
C	-2.9053593738	-1.8467154404	 1.0122781443	-0.298739
C	-3.2762598192	-1.4294955844	-0.2383846136	 0.3701
O	-4.3747866612	-1.6391199639	-1.0122638311	-0.440175
N	-2.2876127486	-0.6372044883	-0.7549865432	-0.35091
H	 1.2954771717	 1.5249407655	 0.722115726	 0.114625
H	-0.1465136834	 1.2405222918	 1.7239268997	 0.129651
H	 1.1073626309	-0.0166004687	 1.5827473023	 0.100491
H	 1.3431774614	-1.1407573223	-0.7393712166	 0.103429
H	 0.194493392	-0.6348981343	-1.9968593964	 0.118711
H	 1.4627710296	 0.483960498	-1.4661390294	 0.115154
H	-1.0170027567	-1.415760707	 2.154803571	 0.086706
H	-3.4723369539	-2.4909447587	 1.666455776	 0.081526
H	-4.9724298233	-2.2177851919	-0.5297134118	 0.30466
H	-2.3689911713	-0.0930432911	-1.5964309567	 0.260439
42.3427	133.7111	176.5025	218.8837	231.212	253.5001	276.7341	339.5191	378.1773	404.0786	437.0475	506.9299	598.3958	639.2861	686.5399	707.202	724.2554	786.4005	926.9231	1008.6614	1022.9528	1056.0149	1067.5956	1120.5455	1164.4846	1179.9893	1183.5478	1218.2841	1269.5706	1300.5995	1332.2625	1427.7143	1440.6806	1467.4548	1479.1255	1493.501	1500.5124	1514.0564	1529.3848	1588.6708	1643.4827	2943.5008	2954.5306	3060.5706	3065.0095	3116.9193	3121.3624	3240.4661	3258.2391	3680.4797	3848.3587
CN(C)C1=CC=C(O)N1	CN(C)c1ccc(O)[nH]1	
InChI=1S/C6H10N2O/c1-8(2)5-3-4-6(9)7-5/h3-4,7,9H,1-2H3	InChI=1S/C6H10N2O/c1-8(2)5-3-4-6(9)7-5/h3-4,7,9H,1-2H3
