16
gdb 127947	2.61972	1.61241	1.0044	3.7066	79.71	-0.2105	-0.0222	0.1883	1133.5042	0.126218	-430.242219	-430.233971	-430.233027	-430.275222	30.607	
C	-0.0510916034	 1.4042260132	-0.2996262875	-0.342949
N	-0.024626475	-0.0441119114	-0.312865633	-0.263003
C	-1.0793991633	-0.6664560509	 0.0383746043	 0.378744
N	-2.2678973059	-0.0694217657	 0.4379278484	-0.340414
N	-3.4362481666	-0.6740023183	 0.8263893831	-0.227217
C	-3.4139962069	-1.9534142576	 0.8154878884	 0.107972
N	-2.3210270306	-2.7066793209	 0.4481294829	-0.385173
C	-1.09684548	-2.1685278035	 0.0399770693	 0.335251
N	-0.0732248853	-2.8384937619	-0.3045599869	-0.484419
H	 0.9200949322	 1.7865296459	-0.6219186793	 0.131912
H	-0.8123587316	 1.8198461714	-0.9813705209	 0.110889
H	-0.2509865892	 1.8148935994	 0.7045884701	 0.110818
H	-2.3199756787	 0.9343106554	 0.4568468781	 0.267816
H	-4.3039872135	-2.4942109745	 1.1113117286	 0.141403
H	-2.3973464423	-3.7123712882	 0.4715303338	 0.25405
H	-0.2484382799	-3.8442052724	-0.2489196193	 0.20432
78.1502	131.1253	193.9833	205.9093	222.2238	365.3096	451.4422	487.1049	515.7733	554.1067	559.3449	571.0836	619.6112	745.5223	775.0084	855.2895	873.3494	932.3565	1031.5635	1065.5971	1099.6461	1108.7079	1168.6325	1195.3982	1243.2286	1364.588	1413.8277	1430.4419	1464.5425	1478.0123	1508.1179	1511.7534	1716.032	1721.6303	1737.1464	2949.9846	2993.2287	3103.6432	3219.5429	3448.4078	3619.2497	3673.7527
CN=C1NN=CNC1=N	C[N]c1[nH]nc[nH]c1[NH]	
InChI=1S/C4H7N5/c1-6-4-3(5)7-2-8-9-4/h2H,1H3,(H,6,9)(H2,5,7,8)	InChI=1S/C4H7N5/c1-6-4-3(5)7-2-8-9-4/h2H,1H3,(H,6,9)(H2,5,7,8)
