19
gdb 95481	2.26195	1.53817	0.96199	3.1111	79.93	-0.2409	-0.0522	0.1887	1221.7564	0.159212	-423.051657	-423.043086	-423.042141	-423.085222	32.271	
C	-0.3305492615	 1.4051660351	 0.0779317222	-0.389247
C	 0.0736571046	-0.0642977665	 0.016365111	 0.082816
C	 0.7148383048	-0.4206581703	-1.326059187	-0.286218
C	 0.9984084013	-1.8918026651	-1.6071762035	 0.344105
O	 1.0446199808	-2.2771321239	-2.7612414359	-0.325677
C	 1.2202911104	-2.8832451075	-0.5259144503	-0.146463
C	 1.1920266074	-2.7475369323	 0.8056821832	-0.050851
C	 0.9695172538	-1.5443057547	 1.6721080144	-0.1367
O	 1.0146248242	-0.2822101229	 1.067140861	-0.249376
H	 0.5462211863	 2.0447588763	-0.0646162573	 0.127972
H	-1.0622256453	 1.6418818151	-0.6999016216	 0.118919
H	-0.7675393578	 1.6369865908	 1.052630909	 0.121042
H	-0.816216106	-0.6901745114	 0.1880447367	 0.077083
H	 0.1066229218	-0.0618050651	-2.1617920673	 0.122264
H	 1.6746190179	 0.1102134227	-1.3832192616	 0.135053
H	 1.3979815743	-3.8731260523	-0.9381610862	 0.108442
H	 1.3312656559	-3.654066382	 1.3956975165	 0.109996
H	 0.0099503542	-1.694838742	 2.2054514669	 0.107972
H	 1.7438539628	-1.531424484	 2.4501210099	 0.128869
54.779	114.1657	196.2425	221.0914	307.3654	327.9271	341.2109	374.0941	433.3728	495.1809	546.6985	616.8864	730.8954	752.2102	830.6698	860.2537	905.2419	918.2012	956.6958	1017.3073	1044.9187	1056.3139	1121.5432	1148.8009	1164.655	1210.1102	1242.4968	1291.2279	1299.6977	1312.8107	1382.0289	1388.2807	1410.6499	1411.3764	1417.832	1438.7637	1467.2906	1484.9228	1498.262	1702.766	1750.2707	2915.3934	2980.8849	3031.3727	3040.8099	3043.1715	3092.7931	3117.4209	3123.7109	3124.8496	3170.0002
CC1CC(=O)C=CCO1	C[C@H]1CC(=O)C=CCO1	
InChI=1S/C7H10O2/c1-6-5-7(8)3-2-4-9-6/h2-3,6H,4-5H2,1H3	InChI=1S/C7H10O2/c1-6-5-7(8)3-2-4-9-6/h2-3,6H,4-5H2,1H3/t6-/m0/s1
