21
gdb 87832	2.83439	1.34607	1.14215	1.5074	83.19	-0.2426	0.0925	0.3351	1188.8097	0.180878	-387.054482	-387.045424	-387.04448	-387.087829	34.868	
C	-0.0540125583	 1.4947094211	-0.0921143296	-0.415984
C	-0.0113192245	-0.001181567	 0.0812032745	-0.034391
O	 1.2922337915	-0.6204346908	 0.0126841677	-0.303235
C	 0.5908340363	-0.6549277157	 1.2464476385	 0.396455
C	 1.227953689	-0.0968495199	 2.5343673805	-0.327611
C	 0.8788659752	-1.4275177936	 3.2212429284	-0.102377
C	-0.6006362072	-1.6783752586	 3.1255988656	-0.32682
C	 0.2621844008	-1.9758967097	 1.9232324227	 0.266807
C	 0.3660097284	-3.317538423	 1.2594471551	-0.497679
H	 0.7175794377	 1.9800448571	 0.5110431446	 0.12686
H	 0.108646879	 1.7676925323	-1.1402071994	 0.128014
H	-1.0316829114	 1.8871210539	 0.2087883833	 0.119634
H	-0.7789035981	-0.5550043934	-0.4636863982	 0.084222
H	 2.3014477215	 0.0489340505	 2.3915772239	 0.119093
H	 0.794531019	 0.8095691235	 2.9709699715	 0.096847
H	 1.5045302482	-1.9420134644	 3.9402790214	 0.088283
H	-0.9635532717	-2.5557386103	 3.6528902741	 0.110674
H	-1.3006832116	-0.8450117835	 3.1202845013	 0.102433
H	-0.4826789428	-3.4994692095	 0.5890548041	 0.119097
H	 1.2800993154	-3.3853917994	 0.6618809487	 0.133923
H	 0.3770812436	-4.1221359898	 2.0016766012	 0.115754
105.9228	142.7089	177.3398	184.8535	200.542	246.0822	319.873	400.5706	431.5864	469.6377	502.4615	562.4034	662.1624	775.0384	789.1593	827.8206	866.6532	901.5646	946.0945	956.5892	976.549	1013.8587	1024.4726	1038.0329	1067.1722	1093.4487	1108.7819	1125.8349	1133.4002	1175.2467	1186.9118	1240.3352	1265.2791	1287.8668	1351.8589	1385.8301	1407.2904	1420.3755	1467.8495	1477.4369	1481.9188	1489.2542	1497.1854	1501.233	1527.6878	3026.1365	3034.3175	3040.2049	3082.8713	3086.2518	3097.4418	3099.3314	3107.8493	3109.0202	3123.7186	3182.1836	3192.8056
CC1OC11CC2CC12C	C[C@H]1O[C@]21C[C@H]1C[C@@]21C	
InChI=1S/C8H12O/c1-5-8(9-5)4-6-3-7(6,8)2/h5-6H,3-4H2,1-2H3	InChI=1S/C8H12O/c1-5-8(9-5)4-6-3-7(6,8)2/h5-6H,3-4H2,1-2H3/t5-,6-,7-,8+/m1/s1
