16
gdb 7803	3.33273	1.93309	1.2968	3.5159	61.52	-0.265	0.007	0.2719	923.819	0.130817	-420.923833	-420.916419	-420.915475	-420.955773	27.339	
C	 0.0720435221	 1.4836393564	 0.0608929287	-0.404333
C	 0.0089713759	-0.018866584	-0.0873774965	 0.220817
O	 0.7991023816	-0.4119012895	-1.1599467293	-0.229816
C	 0.7901879978	-1.8251558607	-1.3062047068	-0.106215
C	 1.4504943314	-2.4522987217	-0.0811959568	-0.333544
C	 0.9844504654	-1.8351067027	 1.2307152742	 0.401316
O	 1.1363492623	-2.3646033791	 2.2961775602	-0.318362
O	 0.4448232187	-0.5921613341	 1.1694615868	-0.242017
H	 1.1097662799	 1.7941488038	 0.2041164049	 0.140404
H	-0.3239285183	 1.9599375953	-0.838994017	 0.131828
H	-0.5172551652	 1.7967636625	 0.9249434122	 0.139499
H	-1.0261679292	-0.3695465633	-0.2359128939	 0.082099
H	-0.2445975805	-2.1835469315	-1.4238824864	 0.105697
H	 1.3357230864	-2.0546710694	-2.2239086819	 0.123435
H	 1.2884337734	-3.5310766404	-0.0240108586	 0.139032
H	 2.5336048582	-2.2886578316	-0.1237686098	 0.15016
96.1403	107.2467	214.7747	288.8001	299.9003	445.9569	459.0066	485.9193	543.2946	600.2324	712.7497	763.7296	870.7363	911.9046	941.925	991.7562	1059.8064	1086.8066	1115.8837	1127.4303	1162.8609	1232.9818	1265.7616	1290.4572	1347.7275	1387.6923	1397.9871	1412.6952	1433.7434	1454.3309	1481.8427	1487.6561	1511.6754	1851.0889	2964.8838	2987.9966	3054.0994	3059.8883	3106.6775	3117.6397	3141.3093	3147.1403
CC1OCCC(=O)O1	C[C@H]1OCCC(=O)O1	
InChI=1S/C5H8O3/c1-4-7-3-2-5(6)8-4/h4H,2-3H2,1H3	InChI=1S/C5H8O3/c1-4-7-3-2-5(6)8-4/h4H,2-3H2,1H3/t4-/m0/s1
