14
gdb 130327	3.21265	1.28809	0.99582	4.3464	68.65	-0.2466	-0.0319	0.2147	1129.2144	0.100388	-432.794823	-432.786747	-432.785803	-432.827739	30.005	
N	 0.2080823286	 1.3013526754	-0.3792956297	-0.594791
C	 0.105568929	-0.0479785708	-0.1260666185	 0.29083
N	-1.0228160446	-0.6755264212	 0.0875714232	-0.168104
O	-0.6637555991	-1.9782811918	 0.37904252	-0.162164
N	 0.6842698104	-2.1435690846	 0.3247613955	-0.144065
C	 1.1857721642	-0.9799578994	 0.0245239722	 0.312617
C	 2.6641526302	-0.7410640087	-0.0948656586	-0.455444
C	 3.0230681389	-0.0231593339	-1.3172194427	 0.285824
C	 3.2922877167	 0.5883316206	-2.3165511524	-0.442449
H	 0.9637231236	 1.543510115	-1.0070267668	 0.26556
H	-0.6685276518	 1.7340509027	-0.6355932011	 0.266362
H	 3.0115609683	-0.1656899044	 0.7740708792	 0.16231
H	 3.1752920184	-1.7083001669	-0.0548655965	 0.171831
H	 3.5565612171	 1.1040865181	-3.2070597139	 0.211682
64.7221	113.6974	234.88	259.8354	323.1566	335.3275	383.0326	443.9746	470.4164	614.0814	630.5661	644.4842	664.1648	723.8555	741.2676	783.6415	917.395	942.2964	943.401	968.0827	1046.5221	1163.1792	1215.6193	1280.6337	1334.1503	1454.943	1470.3962	1559.0329	1631.2506	1667.9975	2237.8326	3021.2804	3082.9344	3499.8361	3546.1374	3651.2306
NC1=NON=C1CC#C	Nc1nonc1CC#C	
InChI=1S/C5H5N3O/c1-2-3-4-5(6)8-9-7-4/h1H,3H2,(H2,6,8)	InChI=1S/C5H5N3O/c1-2-3-4-5(6)8-9-7-4/h1H,3H2,(H2,6,8)
