16
gdb 31093	2.43673	1.41361	0.91998	2.1692	69.13	-0.1671	0.0542	0.2213	1226.8474	0.124388	-471.221559	-471.21223	-471.211286	-471.255817	33.381	
C	 0.0345316266	 1.3152882773	 0.1208692376	-0.243783
O	-0.0772461318	 0.0190891308	-0.4591677308	-0.290804
C	-1.2664565617	-0.6026862968	-0.2333456179	 0.208408
C	-1.4075672583	-1.9106919832	 0.1175276385	 0.268578
O	-0.5405387243	-2.9198786463	 0.3863037716	-0.447582
N	-2.7728707718	-2.1363172233	 0.1713598334	-0.341771
C	-3.3765533211	-0.9456303405	-0.1375527967	 0.367889
N	-4.7670833138	-0.8446099711	-0.2426036277	-0.597968
N	-2.5019160631	-0.0004480576	-0.3781520209	-0.376395
H	 1.0147565514	 1.7005371413	-0.1675936472	 0.12164
H	-0.7502480415	 1.9797581631	-0.252736869	 0.141124
H	-0.0332975649	 1.2657588768	 1.2161232644	 0.107164
H	 0.3462734789	-2.5528655169	 0.2944679537	 0.310314
H	-3.2169620927	-3.0336959061	 0.2660118484	 0.269891
H	-5.2452856209	-1.0308174824	 0.6335763345	 0.245578
H	-5.0037281009	 0.0914820151	-0.549633462	 0.257716
55.0662	150.5003	168.6818	205.3021	216.7665	259.2242	273.5621	293.2269	353.5309	406.1449	430.2652	581.7493	619.1142	653.0647	671.7054	708.3933	824.205	843.1116	1035.596	1053.5898	1143.895	1155.3255	1179.3352	1204.1835	1222.2725	1277.3471	1346.8448	1472.441	1481.5192	1499.7271	1508.9352	1514.7606	1600.9788	1654.0088	1709.8402	3008.4864	3089.1832	3131.7446	3500.7555	3605.7515	3672.0426	3817.7944
COC1=C(O)NC(N)=N1	COc1c(O)[nH]c(N)n1	
InChI=1S/C4H7N3O2/c1-9-3-2(8)6-4(5)7-3/h8H,1H3,(H3,5,6,7)	InChI=1S/C4H7N3O2/c1-9-3-2(8)6-4(5)7-3/h8H,1H3,(H3,5,6,7)
