20
gdb 12108	4.13284	1.28116	1.19004	0.8352	75.47	-0.2327	0.0822	0.315	1105.2481	0.177042	-345.126415	-345.117968	-345.117024	-345.159506	31.681	
C	 0.2887855351	 1.4869733751	 0.7903788481	-0.463138
C	 0.0008932821	 0.1041349563	 0.2458237431	 0.337423
C	-1.2414342947	-0.5664767936	 0.8060474719	-0.195416
N	-2.4392732469	 0.2207356645	 0.5289536476	-0.063177
C	-3.174709494	-0.1100511035	-0.6870723551	-0.216588
C	-3.7135148671	-0.4744337113	 0.6524860558	-0.218943
C	 0.4563780575	-0.2403406987	-1.1265781472	-0.271862
N	 1.1227034488	-0.8327093419	 0.0507205278	-0.354807
H	 1.1580926351	 1.9348436086	 0.2977423584	 0.104291
H	-0.5735254149	 2.1426421965	 0.6431940374	 0.142719
H	 0.491559916	 1.4439834769	 1.8674464178	 0.116697
H	-1.3041081903	-1.5928683659	 0.4066565805	 0.088256
H	-1.1428385136	-0.6495229531	 1.8962582886	 0.101426
H	-3.584665138	 0.7306794663	-1.2394371407	 0.114836
H	-2.7988807986	-0.922743527	-1.3068257406	 0.109477
H	-3.6949873685	-1.5293580735	 0.9229642747	 0.109474
H	-4.523934891	 0.0953984531	 1.0984116498	 0.115469
H	-0.1035397412	-0.9465033069	-1.7340205922	 0.110785
H	 0.982236536	 0.5218681339	-1.6959122939	 0.10767
H	 2.0026418981	-0.3514712558	 0.2220989883	 0.225408
71.6747	91.382	165.4868	202.1021	306.4977	321.8502	361.1027	393.3675	416.0236	489.1123	732.1397	773.5262	831.5755	852.3969	904.4417	914.5848	935.7326	967.0218	991.6975	1019.8341	1035.6317	1056.0489	1063.2009	1113.9164	1116.3711	1123.9251	1155.0322	1170.7021	1181.083	1252.1115	1271.6829	1323.695	1340.7018	1377.9258	1401.1002	1416.0771	1477.0028	1486.8332	1494.2416	1504.9251	1515.4678	1524.5812	2960.3689	3025.6303	3039.23	3088.3704	3092.6326	3097.0183	3104.6756	3118.5234	3174.6808	3186.6581	3189.3779	3491.6964
CC1(CN2CC2)CN1	C[C@@]1(CN2CC2)CN1	
InChI=1S/C6H12N2/c1-6(4-7-6)5-8-2-3-8/h7H,2-5H2,1H3	InChI=1S/C6H12N2/c1-6(4-7-6)5-8-2-3-8/h7H,2-5H2,1H3/t6-/m0/s1
