18
gdb 57932	3.42413	0.90056	0.78014	6.1277	71.02	-0.2383	-0.0086	0.2297	1478.1206	0.147013	-472.46324	-472.453021	-472.452077	-472.499397	36.408	
C	-0.0344790817	 1.4983368966	-0.0276282327	-0.395506
C	 0.0339030789	-0.044251236	-0.0044404136	-0.059648
N	 0.8894674503	-0.5941892339	 1.0374083628	-0.523902
C	-1.386062198	-0.5932748383	 0.2193509293	 0.447123
O	-1.8045303904	-0.8547042672	 1.3198149129	-0.324519
N	-2.1291689873	-0.6888719376	-0.9524956832	-0.402056
C	-3.4502878543	-1.1695986393	-1.0842602167	 0.466972
N	-3.9207665132	-1.0018900266	-2.3788221472	-0.56746
O	-4.0762141317	-1.7076605518	-0.2091207359	-0.327075
H	 0.9698963097	 1.9135532953	-0.1600687941	 0.121255
H	-0.6602031495	 1.8726045801	-0.8456710292	 0.106197
H	-0.4426892664	 1.8707262847	 0.9169878406	 0.138083
H	 0.394321615	-0.3883608382	-0.9860412936	 0.076717
H	 1.641205053	 0.0508592586	 1.2554878626	 0.222821
H	 0.3237709902	-0.7066295209	 1.875716217	 0.246909
H	-1.6335744017	-0.4889336862	-1.8078872838	 0.253067
H	-3.6204618586	-0.1942468404	-2.9034728142	 0.251877
H	-4.9042594144	-1.210968529	-2.4640634409	 0.269146
40.4751	51.3348	102.8976	152.9733	238.7135	250.7977	257.3868	314.2182	341.8689	390.7265	419.0689	448.7841	546.7914	564.1956	604.8958	696.5479	744.4878	778.7961	856.0205	915.8356	940.8662	951.5722	1035.8579	1078.57	1107.9048	1172.9693	1197.0959	1236.1222	1313.9771	1344.9629	1398.3195	1413.5075	1493.3472	1496.617	1516.1728	1628.0854	1641.3997	1808.5953	1873.8939	2979.2716	3028.0618	3096.487	3114.9582	3486.3383	3573.9843	3574.8629	3621.2004	3689.6247
CC(N)C(=O)NC(N)=O	C[C@@H](N)C(=O)NC(=O)N	
InChI=1S/C4H9N3O2/c1-2(5)3(8)7-4(6)9/h2H,5H2,1H3,(H3,6,7,8,9)	InChI=1S/C4H9N3O2/c1-2(5)3(8)7-4(6)9/h2H,5H2,1H3,(H3,6,7,8,9)/t2-/m1/s1
