21
gdb 82496	2.7596	1.64428	1.39447	1.6463	81.21	-0.2339	0.0864	0.3203	1041.7627	0.183408	-387.061741	-387.053915	-387.05297	-387.09351	32.121	
C	-0.3022520995	 1.6090940946	-0.1253198738	-0.429554
C	 0.0029050261	 0.1196846503	-0.0353017531	 0.031127
C	 1.1017151861	-0.573069671	-0.9016895345	-0.117065
C	 2.3847329356	 0.184875519	-0.5170204584	-0.246838
C	 2.3417191897	-0.2729321984	 0.9591842796	 0.422126
C	 3.2393193827	 0.3375243578	 1.9954376381	-0.505803
O	 2.5258870858	-1.720525107	 0.773118244	-0.331791
C	 1.1957274003	-1.6838753817	 0.2568133125	 0.115257
C	 0.7751419267	-0.5002886178	 1.1437907339	-0.138912
H	 0.5764328797	 2.2346330045	 0.0542324024	 0.115486
H	-0.7022447555	 1.87161493	-1.1112128385	 0.116457
H	-1.056102329	 1.8881674231	 0.6192346898	 0.11589
H	-0.9331523149	-0.4429605739	-0.1457627882	 0.071865
H	 0.9300542286	-0.8219737789	-1.9480139188	 0.061273
H	 3.2873771931	-0.1994643441	-0.997040005	 0.103338
H	 2.3224010934	 1.2633858304	-0.6735185093	 0.093938
H	 3.02506822	 1.4055709884	 2.1042513833	 0.120639
H	 3.1007380221	-0.1454152576	 2.9668218698	 0.127018
H	 4.2894249439	 0.2273158203	 1.7043128062	 0.129273
H	 0.6939075246	-2.644507842	 0.1531228722	 0.080483
H	 0.3959702404	-0.6037858762	 2.1602985579	 0.065793
152.2314	187.7245	197.8303	267.052	297.7935	321.1695	477.5405	525.8591	552.9388	595.9233	667.1029	727.4155	747.065	804.0103	832.4822	858.5347	881.0406	911.8929	946.1619	973.3662	981.0131	1023.6284	1028.3509	1061.4104	1065.2147	1121.0632	1132.5286	1148.4523	1162.5202	1176.9364	1182.5792	1225.698	1258.1397	1271.6545	1304.6453	1308.4978	1358.2592	1397.4815	1412.6492	1415.0372	1478.3795	1484.905	1492.5181	1496.6791	1508.7324	3021.7899	3031.1764	3036.0625	3074.453	3089.7521	3105.3502	3106.0387	3114.3892	3117.5614	3122.8574	3127.4756	3137.7483
CC1C2CC3(C)OC2C13	C[C@H]1[C@H]2C[C@]3(C)O[C@H]2[C@H]13	
InChI=1S/C8H12O/c1-4-5-3-8(2)6(4)7(5)9-8/h4-7H,3H2,1-2H3	InChI=1S/C8H12O/c1-4-5-3-8(2)6(4)7(5)9-8/h4-7H,3H2,1-2H3/t4-,5+,6-,7+,8-/m0/s1
