23
gdb 85948	2.46623	1.31456	1.08794	1.263	86.93	-0.2397	0.0262	0.2659	1253.4665	0.205452	-388.318467	-388.309005	-388.308061	-388.351806	37.621	
C	 0.0325985747	 1.6011712023	-0.0229514248	-0.400436
C	 0.0247074355	 0.0652581302	 0.0429814364	-0.031896
C	 0.6023851339	-0.5483537326	-1.2430334769	-0.209214
C	 0.9025208032	-2.0479669318	-1.122674184	 0.344912
C	-0.3710065577	-2.8712440003	-0.8873930546	-0.422177
O	 1.4784508834	-2.4115587943	-2.3819316939	-0.475455
C	 1.9256947276	-2.2656233313	 0.0114484899	-0.292337
C	 1.6106677966	-1.4632118758	 1.2479428705	-0.075412
C	 0.7629977514	-0.4352398778	 1.2607866002	-0.031733
H	 1.0563218468	 1.9832172055	-0.1007669639	 0.118179
H	-0.5282393073	 1.9582105422	-0.8930455817	 0.112583
H	-0.4216346842	 2.0381884728	 0.872571856	 0.109381
H	-1.0285946523	-0.24366129	 0.1368114315	 0.081302
H	-0.0777171083	-0.3851733906	-2.0861369007	 0.096179
H	 1.5432373469	-0.0434645457	-1.4943465988	 0.100583
H	-1.1047119737	-2.6727278197	-1.6741579473	 0.118142
H	-0.1378375464	-3.9429980554	-0.9036184869	 0.098196
H	-0.8239721289	-2.6510218072	 0.0831398004	 0.125631
H	 1.6558875337	-3.3582607306	-2.3615554238	 0.269983
H	 1.9844844517	-3.3339154812	 0.2640993482	 0.086993
H	 2.9178017815	-1.9928629199	-0.3733167678	 0.114448
H	 2.1139064833	-1.7582083627	 2.1659667797	 0.082984
H	 0.5738484886	 0.0941433938	 2.1929452425	 0.079164
107.9702	150.9304	232.8086	238.8155	265.9046	281.4558	302.4746	321.6617	341.4015	442.4804	448.7454	463.3695	497.4796	534.5185	686.1137	730.8604	797.3886	851.4158	908.4526	927.8511	934.2007	973.888	982.5049	998.937	1004.5827	1044.6868	1067.8421	1116.2438	1134.993	1147.6458	1159.9411	1217.6088	1236.8087	1291.0316	1311.4339	1335.9754	1345.7791	1368.5111	1396.7291	1402.0493	1403.7609	1422.3558	1473.3558	1483.1057	1495.5405	1498.5399	1499.9433	1504.6397	1720.5018	2971.8837	3002.7876	3026.0073	3027.6094	3032.236	3034.6606	3076.2105	3093.5218	3098.2733	3100.578	3121.2777	3133.1662	3158.5166	3800.8563
CC1CC(C)(O)CC=C1	C[C@H]1C[C@@](C)(O)CC=C1	
InChI=1S/C8H14O/c1-7-4-3-5-8(2,9)6-7/h3-4,7,9H,5-6H2,1-2H3	InChI=1S/C8H14O/c1-7-4-3-5-8(2,9)6-7/h3-4,7,9H,5-6H2,1-2H3/t7-,8+/m1/s1
