17
gdb 56966	3.82274	0.89166	0.81684	4.4145	76.52	-0.2399	-0.0166	0.2233	1395.1971	0.132969	-421.777091	-421.767641	-421.766697	-421.811882	34.279	
O	-0.3086418033	 1.334816608	-0.1167073933	-0.409119
C	-0.0171056057	-0.0599578809	-0.10869333	-0.072213
C	 0.8326541409	-0.4287431635	-1.245288216	 0.282243
C	 1.5547610664	-0.7023002756	-2.1663384171	-0.438971
C	 0.6211073494	-0.5431237704	 1.1998280483	-0.013826
C	 1.3404427594	 0.3821162133	 2.1190658847	-0.304198
C	 0.0305618298	-0.2556518267	 2.5775871773	-0.124599
C	-1.1620956654	 0.6054175859	 2.7837253079	 0.147563
O	-1.9956182686	 0.3828902477	 3.6301315088	-0.276517
H	 0.4998497408	 1.7999961554	-0.3583940645	 0.29325
H	-0.9907958571	-0.5525073515	-0.224116246	 0.133777
H	 2.1787204505	-0.9513745	-2.9893521583	 0.207439
H	 1.0257235579	-1.5464993284	 1.1080003668	 0.1155
H	 2.2561214046	 0.0574369679	 2.5986278451	 0.129849
H	 1.2931253862	 1.443185498	 1.8972472648	 0.122864
H	 0.094213176	-1.0664133635	 3.2959166949	 0.10754
H	-1.2355690219	 1.4831286344	 2.1116898667	 0.099419
44.7311	95.1064	132.6446	203.7487	214.7695	247.3766	306.8318	320.8565	363.0611	443.2432	540.42	553.3683	628.2649	644.2437	680.1417	804.9782	851.1244	874.071	876.4518	969.7401	1022.7253	1028.9151	1060.3353	1083.7148	1126.6218	1142.8862	1187.6493	1220.8543	1268.2021	1319.9815	1342.6555	1383.5744	1423.2509	1443.9385	1482.3727	1807.4589	2234.6539	2946.8936	3034.3021	3139.5105	3157.2712	3173.2333	3228.6242	3500.8823	3810.9709
OC(C#C)C1CC1C=O	O[C@@H](C#C)[C@H]1C[C@H]1C=O	
InChI=1S/C7H8O2/c1-2-7(9)6-3-5(6)4-8/h1,4-7,9H,3H2	InChI=1S/C7H8O2/c1-2-7(9)6-3-5(6)4-8/h1,4-7,9H,3H2/t5-,6-,7-/m0/s1
