20
gdb 102779	2.10264	1.15778	0.91081	2.4948	77.15	-0.2506	-0.0286	0.222	1377.3745	0.168266	-440.340501	-440.329844	-440.3289	-440.377291	36.829	
C	 0.3396706646	 1.4993525994	 0.0346919697	-0.382332
C	 0.1366005114	-0.0170264038	 0.0667645788	-0.17967
C	-1.3527312413	-0.4362534707	-0.0249553633	-0.078745
N	-1.9762867292	-0.0074292273	-1.2626142201	-0.270468
C	-2.8222688077	 1.0544714329	-1.32306909	 0.153241
O	-3.0139395091	 1.8477120925	-0.4237916011	-0.331471
C	-1.4644245543	-1.9642463332	 0.0645222694	 0.388674
C	-1.3432988211	-2.5919086826	 1.4352756042	-0.482554
O	-1.6441095553	-2.6251831757	-0.9347049875	-0.314758
H	 1.4028331821	 1.7422012414	 0.1249307675	 0.11185
H	-0.0264006799	 1.9269376246	-0.9018906065	 0.134351
H	-0.1968521197	 1.9897243899	 0.8518571247	 0.13373
H	 0.679089169	-0.4890227202	-0.7617911977	 0.108705
H	 0.5608631505	-0.4240825067	 0.992073155	 0.10211
H	-1.8982947916	 0.030002302	 0.8030643711	 0.119317
H	-2.0115266045	-0.7123821913	-1.9870947137	 0.257737
H	-3.3180606583	 1.1297893878	-2.3106399882	 0.080362
H	-0.5091369781	-2.1722519285	 2.0042658157	 0.145002
H	-2.2560276433	-2.3734965945	 2.0032307659	 0.156237
H	-1.2312779941	-3.672592126	 1.3414045262	 0.148681
51.8937	69.6906	78.3021	111.319	147.2984	200.287	215.2149	247.8255	306.4293	330.4276	385.3992	481.4553	581.7919	605.2994	618.5634	731.6	791.1405	887.3829	906.3356	949.3852	999.6453	1018.5517	1033.3775	1077.361	1120.631	1138.0225	1189.8028	1223.6822	1289.0827	1310.4462	1355.7281	1372.9659	1389.0297	1414.675	1426.4283	1461.0268	1473.529	1478.6028	1492.8225	1502.0366	1515.2194	1791.0628	1807.5632	2943.0122	3028.3325	3040.2903	3046.219	3056.0263	3072.785	3107.4097	3115.2416	3128.3322	3156.552	3587.8356
CCC(NC=O)C(C)=O	CC[C@@H](NC=O)C(=O)C	
InChI=1S/C6H11NO2/c1-3-6(5(2)9)7-4-8/h4,6H,3H2,1-2H3,(H,7,8)	InChI=1S/C6H11NO2/c1-3-6(5(2)9)7-4-8/h4,6H,3H2,1-2H3,(H,7,8)/t6-/m1/s1
