18
gdb 75455	2.02206	1.63531	1.35021	4.3647	78.21	-0.2565	-0.0043	0.2522	1077.858	0.146207	-401.975256	-401.966138	-401.965194	-402.00892	33.46	
C	-0.1914036464	 1.4728156428	 0.0271784899	-0.506334
C	-0.0186707888	-0.0088385383	-0.0395612408	 0.297928
C	 0.0889611158	-0.8026159158	-1.1002215116	-0.205827
C	 0.1979866202	-2.238244375	-0.6851646737	-0.136369
O	 0.2754272127	-2.2004454199	 0.7426885939	-0.288481
C	 0.0228602388	-0.8811598086	 1.2154294306	 0.153392
C	 1.1120099642	-0.4956159881	 2.2249874725	-0.417742
C	-1.307709087	-0.8433241541	 1.8847800826	 0.259631
N	-2.3435669136	-0.7904443959	 2.3949506856	-0.343921
H	 0.6441121877	 1.952283216	 0.5506610009	 0.136334
H	-0.256953252	 1.90576158	-0.9735551512	 0.134553
H	-1.104053778	 1.7351299708	 0.5754479429	 0.154001
H	 0.0819083974	-0.4850665375	-2.1356141712	 0.112736
H	-0.6721518947	-2.8321028413	-1.0052582414	 0.120451
H	 1.0972554512	-2.7373650763	-1.0707460333	 0.118779
H	 2.078011471	-0.4764831029	 1.7144360846	 0.129572
H	 0.913516227	 0.4854865391	 2.6644522314	 0.133648
H	 1.1484574844	-1.2357159548	 3.0274992983	 0.147648
79.1178	132.6666	178.2111	193.0814	222.338	247.5933	257.872	333.5496	378.1842	502.552	512.8275	590.6757	620.6281	665.684	772.8751	822.013	892.3419	904.0586	949.6408	1018.4671	1047.2213	1068.3421	1075.8893	1123.128	1148.9225	1170.5139	1202.3683	1231.9322	1314.5867	1375.7261	1401.0784	1418.4103	1475.3509	1484.4141	1485.6041	1493.6038	1520.3571	1737.0111	2346.6834	2986.9375	3025.8905	3029.1603	3050.9125	3080.2864	3123.5742	3132.6597	3138.4744	3214.1222
CC1=CCOC1(C)C#N	CC1=CCO[C@]1(C)C#N	
InChI=1S/C7H9NO/c1-6-3-4-9-7(6,2)5-8/h3H,4H2,1-2H3	InChI=1S/C7H9NO/c1-6-3-4-9-7(6,2)5-8/h3H,4H2,1-2H3/t7-/m1/s1
