21
gdb 96264	2.18794	1.51829	0.98227	2.2973	79.09	-0.2354	-0.0107	0.2246	1243.6265	0.182962	-424.256283	-424.247328	-424.246383	-424.290047	33.942	
C	-0.2797322306	 1.4844379838	-0.0044236526	-0.389108
C	-0.0642520706	-0.0252865752	 0.0487989748	 0.100736
C	 0.5986386914	-0.5429113084	-1.2426031506	-0.274245
C	 0.8172053647	-2.0493195184	-1.3232426098	 0.362341
O	 0.5119343402	-2.6683716458	-2.3179478845	-0.30476
C	 1.4221353086	-2.7569150281	-0.114814711	-0.274539
C	 0.4359172811	-2.7600547373	 1.0741195609	-0.237748
C	 0.4798695948	-1.4661028878	 1.9061060994	-0.069694
O	 0.7774143946	-0.2964635621	 1.1654311859	-0.254596
H	 0.6813356757	 1.9985056998	-0.1053299088	 0.126116
H	-0.9129361417	 1.7612560206	-0.8524434569	 0.117167
H	-0.7561836376	 1.8303859187	 0.9166513402	 0.121101
H	-1.0388058117	-0.5177183417	 0.1872202069	 0.07734
H	 0.0206032535	-0.2498670126	-2.1231137073	 0.115776
H	 1.5841995198	-0.0607360563	-1.3100197287	 0.122881
H	 1.6463870277	-3.7786328872	-0.4283111392	 0.116902
H	 2.3553032325	-2.2639159678	 0.1806211503	 0.116733
H	-0.5766266288	-2.9479245232	 0.6986865306	 0.114271
H	 0.6666782275	-3.5987776677	 1.739519952	 0.110293
H	-0.4676121734	-1.3457564166	 2.4559728214	 0.091979
H	 1.2831636723	-1.5297312766	 2.6473781371	 0.111057
70.7933	107.9635	191.1674	212.5235	225.0986	306.0319	331.1703	332.5534	433.0583	455.3479	524.5425	583.152	663.7679	763.833	817.749	845.2882	874.4535	899.2403	933.5558	959.6822	1018.8271	1037.95	1085.9595	1118.1677	1137.1775	1150.7771	1169.3904	1229.6179	1240.1909	1272.1607	1298.214	1311.3894	1343.2265	1363.4165	1372.471	1392.2719	1409.7983	1415.9957	1446.8818	1469.9699	1485.6396	1493.5172	1496.0592	1506.1872	1803.5295	2973.5937	2987.8656	3020.5598	3037.378	3041.7328	3047.0991	3062.6264	3083.9271	3101.2348	3115.9492	3117.2444	3122.1962
CC1CC(=O)CCCO1	C[C@H]1CC(=O)CCCO1	
InChI=1S/C7H12O2/c1-6-5-7(8)3-2-4-9-6/h6H,2-5H2,1H3	InChI=1S/C7H12O2/c1-6-5-7(8)3-2-4-9-6/h6H,2-5H2,1H3/t6-/m0/s1
