24
gdb 119977	1.89949	1.11299	0.82018	2.1472	86.52	-0.2133	0.0631	0.2764	1544.8158	0.215678	-405.510801	-405.499733	-405.498789	-405.547254	39.895	
C	-2.1758220039	 1.5156721093	 0.3566047116	-0.382271
C	-2.0083624546	 0.0040757718	 0.529294434	-0.166299
C	-2.2772693652	-0.780392466	-0.7640985358	-0.205585
C	-2.0332613149	-2.2658932736	-0.5788224622	-0.004157
C	-3.0727042984	-3.2092612123	-0.0545799012	 0.000743
C	-4.4674119518	-2.7582551857	 0.3146940318	-0.109649
O	-4.4183401046	-2.3400451061	 1.6757952443	-0.41141
N	-2.5949859398	-3.3153095915	-1.4331075468	-0.128004
C	-3.4557995887	-2.9934906731	-2.5616188564	-0.313336
H	-1.9803487346	 2.0476388245	 1.2930103604	 0.110974
H	-1.487384433	 1.9099621729	-0.3996432806	 0.111019
H	-3.1935756413	 1.7687765992	 0.0378636788	 0.108991
H	-0.9899178501	-0.2139513899	 0.8769700453	 0.09343
H	-2.6851478894	-0.367501076	 1.3066007062	 0.123441
H	-3.2997320459	-0.5786708815	-1.098584868	 0.090643
H	-1.6198361783	-0.4103453041	-1.5633723356	 0.094036
H	-1.0030673415	-2.4811000144	-0.2902438087	 0.084939
H	-2.7371467097	-4.0267247845	 0.5838047897	 0.090428
H	-4.8206454468	-1.9467534417	-0.3339272647	 0.087616
H	-5.1655174264	-3.6016846964	 0.1906463941	 0.093156
H	-5.3158486809	-2.144847567	 1.9617199193	 0.287582
H	-4.1120281635	-2.1201854359	-2.4399283726	 0.09971
H	-2.8252260349	-2.8139927295	-3.4386773648	 0.123265
H	-4.0874742917	-3.8610248383	-2.7799749382	 0.120737
72.8793	84.214	104.4761	123.7715	165.2592	190.6621	239.6937	249.9436	266.0827	290.6603	320.6345	386.4808	491.036	525.8258	552.7659	715.7391	757.8169	846.9752	868.0026	903.6469	910.6577	999.0298	1030.5203	1049.4444	1062.1725	1102.5457	1115.5156	1138.9401	1148.3139	1164.0815	1179.1842	1201.4487	1248.5029	1260.5813	1261.9636	1303.4174	1330.9766	1347.7841	1383.8543	1395.5131	1410.8671	1435.4438	1460.0864	1474.8386	1485.6604	1495.3479	1496.0545	1499.5664	1506.5311	1513.0902	1529.8722	2974.3344	2995.0661	3012.2558	3022.1893	3026.3854	3032.5292	3061.9442	3067.2125	3074.5241	3086.7751	3094.688	3097.009	3100.0861	3103.7317	3824.618
CCCC1C(CO)N1C	CCC[C@H]1[C@@H](CO)N1C	
InChI=1S/C7H15NO/c1-3-4-6-7(5-9)8(6)2/h6-7,9H,3-5H2,1-2H3	InChI=1S/C7H15NO/c1-3-4-6-7(5-9)8(6)2/h6-7,9H,3-5H2,1-2H3/t6-,7+,8?/m0/s1
