15
gdb 16712	2.98924	2.31175	1.82455	4.6195	60.45	-0.2421	-0.0114	0.2307	767.167	0.120131	-399.773169	-399.766526	-399.765582	-399.803861	25.784	
O	-0.1090127645	 1.4133022721	 0.0076633069	-0.426823
C	-0.0194956311	 0.0040938954	 0.0273468733	 0.111407
C	 0.4757260151	-0.604384315	 1.3938866271	-0.273511
C	-0.8118577501	-1.3586767493	 1.7971445831	-0.122453
N	-1.2815683295	-1.9920135254	 0.5146798438	-0.32731
C	-1.4470051386	-0.5915304502	 0.0027217	-0.138129
C	-1.8894383212	-0.3001401479	 1.4577062404	 0.488135
O	-2.7205695632	 0.328735924	 2.026282044	-0.305972
H	 0.7805242385	 1.7798088809	 0.0177091552	 0.290013
H	 0.5705570703	-0.3657134205	-0.822959696	 0.072798
H	 1.320146495	-1.2903012171	 1.2772505652	 0.104048
H	 0.7599436342	 0.1869782023	 2.0939195437	 0.117156
H	-0.8239341654	-1.957604497	 2.7058203038	 0.093673
H	-0.5319182131	-2.4926444768	 0.0354256017	 0.219694
H	-2.0676879965	-0.4188175954	-0.8735573123	 0.097271
126.8777	179.3572	275.3994	356.1047	427.3036	453.2031	497.009	632.1687	668.4964	774.7055	810.3864	847.9706	877.8456	912.9568	950.364	985.6991	1035.8606	1045.2542	1066.8291	1078.4947	1120.7619	1167.	1191.1553	1210.4064	1226.7323	1286.7382	1306.8197	1325.2696	1337.8638	1416.3195	1481.8453	1944.4081	2996.5984	3050.5744	3101.6935	3142.3093	3154.616	3444.0451	3824.1777
OC1CC2NC1C2=O	O[C@H]1C[C@@H]2N[C@H]1C2=O	
InChI=1S/C5H7NO2/c7-3-1-2-5(8)4(3)6-2/h2-4,6-7H,1H2	InChI=1S/C5H7NO2/c7-3-1-2-5(8)4(3)6-2/h2-4,6-7H,1H2/t2-,3-,4+/m0/s1
