17
gdb 60894	3.36858	1.21768	1.08648	1.6725	69.05	-0.2484	-0.0423	0.2061	1131.552	0.134111	-458.895474	-458.887311	-458.886367	-458.9289	30.563	
O	-0.026850338	 1.476936367	 0.1012721392	-0.425662
C	 0.0416424037	 0.0789166272	 0.1077013583	-0.107133
C	 0.731109581	-0.4328286423	-1.146352481	 0.129243
O	 1.1265585859	 0.333113258	-1.9922466464	-0.263616
C	 0.7780659103	-0.4071020069	 1.3398777881	 0.419121
C	 2.2650743977	-0.2268075222	 1.7427763766	-0.257084
C	 1.5934367419	-1.2539214176	 2.6827808425	 0.047038
C	 0.3686788577	-0.3195838893	 2.8301779438	-0.262626
O	 0.9413492697	-1.8761721011	 1.4996153223	-0.355872
H	 0.3990745989	 1.7488411835	-0.7285808772	 0.298351
H	-0.967811286	-0.3699206007	 0.1258636964	 0.106012
H	 0.8503606783	-1.5278154553	-1.2330762943	 0.129109
H	 2.9926221851	-0.6432519641	 1.0447868542	 0.109941
H	 2.5676278595	 0.7358370936	 2.1590531015	 0.109838
H	 2.045303617	-1.9249633873	 3.4118731718	 0.103216
H	 0.5027490832	 0.6346962346	 3.3429152389	 0.110296
H	-0.5678898657	-0.819282467	 3.0799931754	 0.109828
54.0937	91.872	155.1041	233.1798	299.4219	360.7704	405.3037	480.7567	529.9088	595.2469	661.5649	738.6289	778.7523	791.2534	866.5827	905.2994	930.7502	937.7834	984.5971	1001.2983	1010.3958	1090.1644	1106.3531	1122.489	1150.653	1161.1745	1211.9013	1227.7884	1231.8544	1275.111	1311.9227	1341.9539	1387.2555	1441.5988	1468.8447	1515.2662	1809.7262	2953.4234	2984.3981	3071.4942	3077.8905	3131.5502	3151.3879	3157.8289	3673.4057
OC(C=O)C12CC(C1)O2	O[C@@H](C=O)[C@@]12C[C@@H](C1)O2	
InChI=1S/C6H8O3/c7-3-5(8)6-1-4(2-6)9-6/h3-5,8H,1-2H2	InChI=1S/C6H8O3/c7-3-5(8)6-1-4(2-6)9-6/h3-5,8H,1-2H2/t4-,5-,6+/m0/s1
