16
gdb 47258	2.37819	1.72535	1.11231	4.8904	73.29	-0.2337	-0.0581	0.1756	1066.9712	0.125981	-437.935058	-437.927193	-437.926249	-437.967901	29.307	
O	 0.0268590153	-0.0174441957	-0.3711264699	-0.280619
C	 0.0046982901	 1.1498344882	-0.0753274138	 0.311263
C	-1.2690560111	 1.9313428564	 0.1691618087	-0.318824
C	-1.6963156146	 2.6735387198	-1.1116568402	-0.273985
C	-0.7164217344	 3.6842987663	-1.6343188774	-0.07183
C	 0.5757136874	 3.8635735666	-1.3450828938	 0.006553
N	 1.4308300401	 3.157561285	-0.4855803265	-0.339397
C	 1.3308339292	 1.9154561115	 0.1000907405	 0.311412
O	 2.2352447559	 1.4469619926	 0.7571855941	-0.334709
H	-2.046503218	 1.2213836231	 0.4608975874	 0.133255
H	-1.1190228086	 2.6513387512	 0.9815620928	 0.12417
H	-1.9168688399	 1.9315553994	-1.8921996459	 0.135018
H	-2.648402604	 3.1801504376	-0.9118622157	 0.121072
H	-1.1158321399	 4.3723506469	-2.3734699615	 0.100746
H	 1.1029744347	 4.6767067452	-1.832664473	 0.116613
H	 2.343094418	 3.5664884757	-0.3334884559	 0.259263
60.5312	126.722	181.5941	267.6419	324.1711	358.6322	412.4154	469.805	547.8604	618.903	661.2594	717.1989	737.3157	800.6285	828.6573	857.3693	919.7942	970.8628	991.2412	1029.7315	1096.9156	1113.8964	1199.7895	1233.0478	1275.5014	1337.1001	1368.3031	1378.6397	1452.6923	1475.2414	1480.4374	1486.3414	1740.9967	1784.1914	1824.5472	3010.6976	3040.0126	3053.4884	3115.3797	3166.739	3191.1254	3591.8763
O=C1CCC=CNC1=O	O=C1CCC=CNC1=O	
InChI=1S/C6H7NO2/c8-5-3-1-2-4-7-6(5)9/h2,4H,1,3H2,(H,7,9)	InChI=1S/C6H7NO2/c8-5-3-1-2-4-7-6(5)9/h2,4H,1,3H2,(H,7,9)
