19
gdb 107544	1.97229	1.79951	1.1738	1.7016	76.	-0.243	-0.0257	0.2173	1112.9044	0.157146	-422.991323	-422.982249	-422.981305	-423.025581	32.946	
C	 0.0183944121	 1.3663670504	 0.1836272519	-0.261849
O	-0.0503672647	 0.0382935547	-0.3276213239	-0.2904
C	-1.2817350056	-0.548612445	-0.1754903026	 0.458633
C	-1.8149102223	-0.9944363854	 1.1582287588	-0.340844
C	-1.5897770853	-2.0191243745	 0.0694196008	-0.134904
C	-2.7533067146	-1.9740101021	-0.9301491189	-0.262295
C	-2.4011924665	-0.4672120228	-1.2240516785	-0.171381
C	-3.4805975319	 0.5725733312	-1.0850660634	 0.141954
O	-3.3951181616	 1.5689433349	-0.4101878483	-0.248252
H	 1.0079622453	 1.7497915254	-0.0739358598	 0.121428
H	-0.7567362823	 2.0062933026	-0.2532375823	 0.134182
H	-0.1024925731	 1.3760734746	 1.275061541	 0.111917
H	-1.0638347057	-1.0032547493	 1.9415769495	 0.120153
H	-2.8170877368	-0.7409340877	 1.4950419857	 0.11211
H	-0.9033682226	-2.8466276329	 0.1938522646	 0.100727
H	-2.6187384285	-2.6147456291	-1.8029800359	 0.114454
H	-3.7453796005	-2.1588264714	-0.5048212876	 0.104641
H	-1.985790744	-0.3822470384	-2.2358771056	 0.112492
H	-4.4065483917	 0.3615083948	-1.6706121752	 0.077233
69.2368	92.2019	148.3939	155.1646	159.076	258.9269	327.1022	374.6159	419.8435	475.5495	593.6388	673.2237	728.0617	790.8767	853.5667	894.7253	913.9941	971.2021	994.6813	1013.8782	1024.5125	1056.4095	1068.4592	1085.9833	1113.1155	1161.0897	1181.5817	1185.4982	1218.759	1228.7072	1256.0588	1285.4447	1329.4303	1385.0881	1420.7491	1475.3231	1483.1933	1487.7686	1506.8522	1512.1416	1817.5144	2853.7033	3009.5538	3040.9126	3047.8333	3075.1727	3111.1296	3116.7401	3128.29	3196.8531	3207.362
COC12CC1CC2C=O	CO[C@]12C[C@H]1C[C@H]2C=O	
InChI=1S/C7H10O2/c1-9-7-3-5(7)2-6(7)4-8/h4-6H,2-3H2,1H3	InChI=1S/C7H10O2/c1-9-7-3-5(7)2-6(7)4-8/h4-6H,2-3H2,1H3/t5-,6+,7-/m1/s1
