16
gdb 125259	3.09079	1.39341	0.96606	1.6935	77.69	-0.1993	-0.0445	0.1547	1162.2842	0.125803	-434.095148	-434.087111	-434.086166	-434.127518	30.986	
C	-0.0333744849	 1.5172010177	 0.0261227076	-0.472879
C	-0.0043626414	 0.0239040685	-0.0328509026	 0.318299
C	-0.0211464504	-0.6845667893	-1.1842791546	-0.285188
C	 0.0097173286	-2.1188612277	-1.1384935911	 0.440825
O	-0.0088968821	-2.7716982484	-2.3235082859	-0.419352
N	 0.0533667439	-2.8045726444	-0.0452050721	-0.314208
N	 0.0692058774	-2.0765564682	 1.1059631723	-0.326583
C	 0.0453237861	-0.6960904306	 1.2471862932	 0.321267
N	 0.0630626948	-0.0534053437	 2.3632795613	-0.560011
H	 0.8465560529	 1.890186543	 0.5598046049	 0.153829
H	-0.0701745243	 1.9561497182	-0.973318935	 0.115189
H	-0.8968000224	 1.8544049524	 0.6083500307	 0.153832
H	-0.0575714055	-0.2004039418	-2.1536490567	 0.118466
H	 0.0157664697	-3.7176046832	-2.124859236	 0.302836
H	 0.1038443772	-2.6458223056	 1.9370140094	 0.259535
H	 0.0980372704	-0.6868451069	 3.1636093946	 0.194144
104.2886	159.2484	203.6627	294.1437	342.0386	362.9988	395.4728	469.0951	484.9887	523.8844	529.8695	569.0279	654.5768	729.709	760.1674	789.8711	812.0477	913.4598	964.6765	1020.8546	1068.447	1103.2118	1165.6285	1188.9151	1277.2155	1290.9498	1400.1404	1416.1058	1460.0079	1460.1496	1461.425	1496.6328	1630.723	1666.1687	1710.7798	3044.2557	3101.9749	3132.8606	3196.7918	3456.8536	3630.8962	3776.8905
CC1=CC(O)=NNC1=N	CC1=C(NN=C(C1)O)[NH]	
InChI=1S/C5H7N3O/c1-3-2-4(9)7-8-5(3)6/h2H,1H3,(H2,6,8)(H,7,9)	InChI=1S/C5H8N3O/c1-3-2-4(9)7-8-5(3)6/h6,8H,2H2,1H3,(H,7,9)
