21
gdb 69050	3.19469	1.00091	0.89416	2.8961	84.53	-0.2357	-0.0188	0.2169	1380.9125	0.180718	-387.081102	-387.071684	-387.07074	-387.115996	34.861	
C	 0.0998181169	 1.5238266587	-0.0141495912	-0.494592
C	-0.0445584736	 0.0308501868	 0.0575443731	 0.294565
C	 1.0548526025	-0.9195850577	-0.3377528684	-0.370821
C	 0.5139425282	-0.9834176525	 1.0720581068	 0.313896
C	 1.3753874692	-0.7795846753	 2.2935974774	-0.392427
C	 2.1597327232	-2.0310833468	 2.6399839085	 0.168206
O	 2.1378226558	-2.58568908	 3.7081407564	-0.239624
C	-0.8144356777	-1.7539747425	 1.0589877835	-0.281265
C	-1.3828731943	-0.7232768902	 0.0307559508	-0.274872
H	 1.1156439842	 1.8415824399	 0.2445412291	 0.115566
H	-0.1085192359	 1.8926005318	-1.0260895713	 0.123401
H	-0.5934702067	 2.0271643993	 0.6695704564	 0.117326
H	 0.8691598137	-1.730839519	-1.0395177025	 0.103961
H	 2.0377052736	-0.4674074458	-0.4383900642	 0.105877
H	 2.1056365781	 0.0186690923	 2.0957830526	 0.115504
H	 0.7844259997	-0.4907833694	 3.1690177212	 0.11649
H	 2.7757773812	-2.4259909489	 1.7989566141	 0.074846
H	-0.7628182761	-2.7994764873	 0.7371482812	 0.098153
H	-1.3368460417	-1.7138639085	 2.0180916238	 0.107855
H	-2.2070710969	-0.1377504	 0.4462996179	 0.102309
H	-1.6924270233	-1.1142658451	-0.9443216552	 0.095645
51.1619	67.7458	131.0713	188.8921	198.5819	249.4727	326.9314	335.7919	421.9967	459.6636	497.6227	586.3305	713.0438	727.5518	786.8164	828.0309	843.5615	924.105	940.8717	959.4195	983.6392	1003.0059	1022.0482	1060.2222	1063.4994	1097.1153	1144.4135	1158.5952	1203.7231	1238.7623	1242.092	1243.4578	1279.3419	1300.7159	1338.2512	1396.2571	1423.7927	1424.1536	1452.6305	1481.4707	1486.3842	1486.7706	1498.5932	1519.9372	1832.9212	2864.4086	3008.6904	3018.4447	3039.7203	3047.7578	3076.4414	3081.4617	3088.8716	3091.061	3096.0506	3108.0211	3184.5265
CC12CC1(CC=O)CC2	C[C@@]12C[C@]1(CC=O)CC2	
InChI=1S/C8H12O/c1-7-2-3-8(7,6-7)4-5-9/h5H,2-4,6H2,1H3	InChI=1S/C8H12O/c1-7-2-3-8(7,6-7)4-5-9/h5H,2-4,6H2,1H3/t7-,8-/m1/s1
