19
gdb 6187	3.536	1.56484	1.44097	3.9382	71.65	-0.2349	0.0381	0.2731	970.678	0.165884	-365.127337	-365.119152	-365.118208	-365.159545	31.547	
C	-0.0435179182	 1.5692647115	-0.0168791203	-0.422429
C	-0.0022028614	 0.037844019	-0.0131757945	 0.280482
C	-1.4281932193	-0.5367232199	 0.0739720999	-0.407638
C	 0.770734105	-0.5340485617	-1.2383241161	-0.23818
C	 1.5027003008	-1.7753509368	-0.7068226054	-0.338202
C	 1.6351509316	-1.5249031142	 0.7992166776	 0.40347
O	 2.3066209079	-2.1461723804	 1.5933078023	-0.382023
N	 0.8262791314	-0.4573919298	 1.0878081113	-0.315811
H	 0.9686741859	 1.9831465811	-0.0232379011	 0.122722
H	-0.5746312783	 1.9364632267	-0.9010454024	 0.120555
H	-0.5661179931	 1.9541109886	 0.8661210829	 0.112705
H	-2.0468209947	-0.1719475893	-0.7526505762	 0.117559
H	-1.4145762932	-1.6303368617	 0.0365572028	 0.120689
H	-1.9107746891	-0.2392177054	 1.0111501972	 0.113277
H	 0.0964240449	-0.7460239654	-2.0713915932	 0.104326
H	 1.4969214265	 0.2089313372	-1.5821839383	 0.107879
H	 0.9251967252	-2.6962612751	-0.844372066	 0.12874
H	 2.4841086336	-1.9428726944	-1.1540633891	 0.129476
H	 0.6515977442	-0.2106839298	 2.0504795186	 0.242405
89.911	132.5401	233.3207	258.314	310.0508	340.273	356.4609	462.3402	487.6654	501.453	573.5514	590.5293	650.5759	768.0452	829.2886	907.8871	923.2748	937.6612	976.7918	988.6825	1016.1762	1042.1945	1124.7702	1187.9995	1222.4537	1234.436	1249.9473	1295.9266	1319.4337	1350.2914	1400.3795	1410.8786	1422.9651	1469.0487	1479.6641	1486.6862	1498.6013	1503.4527	1507.12	1829.3733	3028.4375	3033.5216	3055.4691	3056.0974	3094.9925	3101.7315	3104.6137	3108.2707	3116.6195	3120.7555	3623.9334
CC1(C)CCC(=O)N1	CC1(C)CCC(=O)N1	
InChI=1S/C6H11NO/c1-6(2)4-3-5(8)7-6/h3-4H2,1-2H3,(H,7,8)	InChI=1S/C6H11NO/c1-6(2)4-3-5(8)7-6/h3-4H2,1-2H3,(H,7,8)
