13
gdb 24396	3.84019	1.71974	1.19653	1.509	63.34	-0.2288	-0.0148	0.214	927.7339	0.092827	-452.775253	-452.769142	-452.768198	-452.806009	23.275	
C	-0.0320934068	 1.5032491843	-0.0558595034	-0.27634
N	 1.3432789033	 1.9937387604	 0.1180328893	-0.254657
C	 2.3271014707	 1.2194252156	 0.2655816861	 0.122907
O	 2.3714920235	-0.159455604	 0.2999208753	-0.231235
C	 1.1329860408	-0.7026350827	 0.1454673576	 0.320155
C	 0.0085386977	 0.0194570925	-0.0198255227	 0.198716
O	-1.0187702239	-0.8777629461	-0.1386915261	-0.181319
C	-0.4126951317	-2.0877241741	-0.0327683288	 0.054344
N	 0.8732672806	-2.0492920247	 0.1385636979	-0.327165
H	-0.658399613	 1.9354701051	 0.736723485	 0.136117
H	-0.425776133	 1.8996162424	-1.001993616	 0.136116
H	 3.3328859032	 1.6091639038	 0.3921162564	 0.142546
H	-1.0481625115	-2.9557942024	-0.0998678506	 0.159814
107.2416	221.4386	333.7623	415.2657	493.1619	527.036	638.2107	641.6445	730.6548	747.65	816.0635	866.5219	936.6648	948.5183	957.9061	1041.486	1085.0069	1112.2602	1157.2639	1229.0318	1253.1322	1312.3133	1347.6402	1396.9392	1441.4741	1505.7778	1535.9097	1695.5872	1750.208	3003.6007	3018.6343	3191.3068	3286.8181
C1N=COC2=C1OC=N2	C1N=COc2c1ocn2	
InChI=1S/C5H4N2O2/c1-4-5(7-3-8-4)9-2-6-1/h2-3H,1H2	InChI=1S/C5H4N2O2/c1-4-5(7-3-8-4)9-2-6-1/h2-3H,1H2
