16
gdb 67756	2.5518	2.00016	1.59037	2.5839	72.63	-0.2227	-0.0334	0.1893	895.5387	0.124559	-400.72952	-400.722342	-400.721398	-400.760821	28.379	
C	 0.020991989	 1.5682330927	 0.042666379	-0.487343
C	-0.0406148427	 0.060595306	 0.0476931579	 0.137041
C	-1.3849240929	-0.6252603867	-0.0498546395	-0.123327
C	-1.2935339486	-1.8298471893	 0.5093741889	-0.095375
C	 0.0818590868	-1.9725621436	 1.0833626691	-0.059087
C	 1.2817740229	-1.6568708225	 0.2217627763	-0.205073
N	 0.6854395824	-0.6460606536	 1.2209317458	-0.149815
C	 0.9461832992	-0.707736774	-0.877743417	 0.435131
O	 1.4484748867	-0.4477174991	-1.9339533338	-0.32657
H	 1.0491812877	 1.9141375205	 0.1745062322	 0.137557
H	-0.3464815069	 1.9530333796	-0.9134144478	 0.136561
H	-0.5929442058	 1.9850469993	 0.8464297799	 0.130008
H	-2.2189454038	-0.2150015011	-0.6041096678	 0.121305
H	-2.0468601405	-2.6044587336	 0.5508700202	 0.118665
H	 0.2724883343	-2.6613172347	 1.9024794386	 0.106586
H	 2.2416069623	-2.1392110099	 0.3680433782	 0.123734
147.0595	160.8779	224.0697	301.6473	345.5946	421.7303	531.9887	613.9676	645.9789	684.1404	719.1574	750.7025	776.2746	817.5384	840.3729	865.5243	916.3429	940.651	950.97	1030.2521	1039.8368	1089.279	1110.628	1124.6387	1166.5987	1190.3186	1255.4627	1298.4583	1343.3214	1373.5347	1409.612	1481.2817	1490.7594	1661.7934	1876.9101	3045.1507	3117.4555	3126.5482	3145.4023	3186.8573	3215.2605	3241.1273
CC12C=CC3C(N13)C2=O	C[C@]12C=C[C@H]3[C@H](N13)C2=O	
InChI=1S/C7H7NO/c1-7-3-2-4-5(6(7)9)8(4)7/h2-5H,1H3	InChI=1S/C7H7NO/c1-7-3-2-4-5(6(7)9)8(4)7/h2-5H,1H3/t4-,5-,7+,8?/m0/s1
