19
gdb 128102	1.87236	1.83479	0.99065	1.5688	79.37	-0.1961	0.038	0.234	1217.1921	0.160395	-415.401979	-415.3921	-415.391156	-415.436976	35.481	
C	-0.375968372	 1.4078483007	 0.0521538894	-0.324563
N	 0.10434657	 0.0248861878	 0.1068005916	-0.394638
C	 0.7217880954	-0.4551759954	-1.0743502173	 0.025534
C	 0.1152997695	-1.2103914238	-2.0649242631	 0.365009
C	-1.2907503318	-1.6925405273	-2.1732423471	-0.509304
N	 1.0836937457	-1.4729901068	-2.974664349	-0.282816
N	 2.2953962299	-0.9431055341	-2.6502882185	-0.313899
C	 2.0755116106	-0.3252780069	-1.4973047218	 0.307619
N	 3.1151656876	 0.274463449	-0.7756137749	-0.597935
H	 0.4000195532	 2.152575462	-0.1954195211	 0.091006
H	-1.1608425365	 1.4897971142	-0.705697207	 0.125588
H	-0.8115407814	 1.6770727569	 1.0195450868	 0.115271
H	 0.7314791109	-0.0908901693	 0.8955975423	 0.227477
H	-1.8685537246	-1.1331566736	-2.9190086302	 0.130812
H	-1.3362875969	-2.7523701956	-2.447086931	 0.127041
H	-1.7785305636	-1.5653857458	-1.2036420178	 0.153688
H	 1.0007471775	-2.0006609423	-3.8253544006	 0.263987
H	 3.9643966383	 0.2988567171	-1.3277180919	 0.247849
H	 2.8862973083	 1.2113413533	-0.4663749387	 0.242275
43.9541	133.199	146.5456	163.471	182.146	231.42	254.5955	263.5105	333.1337	399.5507	452.7464	519.4414	580.252	664.7817	687.4392	712.1526	783.0447	800.8394	836.1866	994.6656	1041.2637	1049.3089	1064.0982	1104.1487	1152.48	1180.819	1201.5867	1278.78	1321.1193	1407.7337	1439.4083	1456.6303	1472.4218	1485.7095	1488.4123	1495.8004	1511.0767	1538.819	1544.4078	1630.8252	1657.71	2951.8935	3025.0284	3064.1266	3077.2827	3108.0165	3124.1029	3522.0238	3524.5958	3616.1572	3686.5076
CNC1=C(C)NN=C1N	CNc1c(C)[nH]nc1N	
InChI=1S/C5H10N4/c1-3-4(7-2)5(6)9-8-3/h7H,1-2H3,(H3,6,8,9)	InChI=1S/C5H10N4/c1-3-4(7-2)5(6)9-8-3/h7H,1-2H3,(H3,6,8,9)
