19
gdb 26473	3.56637	1.16264	1.08229	3.6959	81.28	-0.2146	0.0333	0.2479	1194.7825	0.161156	-382.10157	-382.093292	-382.092348	-382.134909	31.704	
C	-0.1698407563	 1.4697979356	 0.3027171698	-0.455468
C	-0.0017192576	-0.0198171626	 0.0328792096	 0.227202
C	 1.3591968813	-0.4990722399	-0.4465147879	-0.299449
C	 0.8984773885	-0.8060979846	 0.9557344862	-0.291755
C	-1.2056291913	-0.7079921879	-0.4909302823	 0.244261
C	-2.0961001948	-1.5970105026	 0.0590261725	-0.172517
N	-3.0917517549	-1.9272851293	-0.8330102842	-0.253734
C	-2.8175588924	-1.2442876673	-1.9190777306	 0.006642
N	-1.6924091871	-0.4884629167	-1.7687934349	-0.308407
H	 0.7587526757	 1.9055346119	 0.6848030015	 0.114322
H	-0.4416365329	 2.0153953785	-0.608407106	 0.10713
H	-0.9591759704	 1.6452385361	 1.0408929054	 0.128184
H	 1.3915561017	-1.3174846296	-1.1568695653	 0.116608
H	 2.1361479137	 0.246257699	-0.5807157779	 0.11001
H	 1.3625188043	-0.2710844179	 1.7772848128	 0.111885
H	 0.6267680132	-1.8298372414	 1.1835582328	 0.123037
H	-2.0732773154	-2.0140710357	 1.0545493464	 0.104082
H	-3.3864451627	-1.2544417867	-2.8371879025	 0.125685
H	-1.2649584927	 0.0976258011	-2.4664060252	 0.262283
41.5753	134.0952	175.4183	228.6111	296.3208	322.8126	388.6219	486.5073	525.5994	538.2695	684.5665	706.4165	789.3772	807.6006	833.2866	854.5606	869.7929	931.264	943.9014	950.8454	1008.0253	1041.9305	1068.1935	1086.0023	1108.3112	1120.2649	1144.2825	1181.3088	1192.068	1263.7292	1296.8903	1337.8019	1380.8436	1414.2416	1424.5716	1464.2723	1487.616	1495.3469	1502.8648	1506.1595	1615.3121	3025.5956	3088.4558	3104.7768	3130.5565	3140.2009	3214.6037	3230.1052	3245.1425	3248.6793	3661.4968
CC1(CC1)C1=CN=CN1	CC1(CC1)c1cnc[nH]1	
InChI=1S/C7H10N2/c1-7(2-3-7)6-4-8-5-9-6/h4-5H,2-3H2,1H3,(H,8,9)	InChI=1S/C7H10N2/c1-7(2-3-7)6-4-8-5-9-6/h4-5H,2-3H2,1H3,(H,8,9)
