17
gdb 5321	4.42107	1.4965	1.16321	2.5887	70.27	-0.2046	0.0443	0.2489	1014.9989	0.143287	-363.897813	-363.889967	-363.889022	-363.930156	29.816	
C	 0.1941325063	 1.3545873449	-0.4071965219	-0.393559
C	-0.0113176989	 0.0074918927	 0.2926041422	 0.021843
O	 0.3834045381	 0.0766804684	 1.6639690685	-0.425585
C	-1.4190299797	-0.5166279097	 0.1622254363	 0.250697
C	-2.0902580763	-1.2231407058	 1.1383485375	-0.182905
N	-3.3332041657	-1.5425495669	 0.6543435101	-0.240138
C	-3.4744820522	-1.0560383226	-0.6193426381	-0.071084
C	-2.3056178409	-0.4139881508	-0.953059395	-0.263999
H	 1.2207544243	 1.6979022084	-0.2538474097	 0.117605
H	 0.0116199689	 1.2767286053	-1.4835677461	 0.115417
H	-0.4923460089	 2.1081649475	-0.0046254518	 0.108371
H	 0.6928621565	-0.7145942623	-0.1424172225	 0.097521
H	-0.2580003687	 0.6442793886	 2.1073338872	 0.270746
H	-1.7707024267	-1.528274125	 2.1207290806	 0.125698
H	-4.0364240994	-2.0501259486	 1.161269597	 0.260535
H	-4.3881978414	-1.2001212041	-1.1733109841	 0.11781
H	-2.1068753753	 0.0756063899	-1.8939425203	 0.091027
50.426	175.3396	199.2196	259.5843	325.4594	356.1352	458.2288	472.3892	486.9215	622.0621	641.3734	690.9021	707.3847	788.3265	825.3723	887.9675	905.5692	959.8394	1031.5195	1068.639	1089.8735	1102.5355	1115.3817	1162.0535	1250.7445	1274.0411	1303.5601	1353.6342	1399.7538	1403.2837	1422.9793	1467.1818	1491.3517	1492.735	1519.4201	1600.26	3014.1179	3032.2275	3102.6987	3119.3181	3246.6161	3268.9381	3275.7712	3686.5454	3787.95
CC(O)C1=CNC=C1	C[C@@H](O)c1c[nH]cc1	
InChI=1S/C6H9NO/c1-5(8)6-2-3-7-4-6/h2-5,7-8H,1H3	InChI=1S/C6H9NO/c1-5(8)6-2-3-7-4-6/h2-5,7-8H,1H3/t5-/m1/s1
