20
gdb 95583	2.38379	1.5854	1.15234	1.4472	75.45	-0.2509	0.001	0.2519	1121.3393	0.171829	-440.288626	-440.279706	-440.278761	-440.322061	33.685	
C	-0.1340112778	 1.5172655544	 0.0027881715	-0.410378
C	 0.0248905143	-0.0095923466	 0.0140782645	-0.004991
C	 0.7398236593	-0.4481801305	-1.2603796965	-0.075646
O	 0.7891161529	-1.8640189878	-1.5092109568	-0.23226
C	 1.5459011677	-2.6671586352	-0.7179791897	 0.107854
N	 1.6391820704	-2.7508419995	 0.5391674093	-0.25327
C	 0.7903163034	-1.9916386754	 1.4536285089	-0.199845
C	 0.77541883	-0.4703021284	 1.2792337226	 0.118354
O	 2.0942764972	 0.0689783165	 1.3243926712	-0.446614
H	 0.8449972714	 2.0028156443	 0.0472818139	 0.139539
H	-0.6529689481	 1.8607616296	-0.8977548135	 0.111075
H	-0.7114286446	 1.8515698919	 0.8700423774	 0.118124
H	-0.9697052031	-0.4756979702	 0.0272318145	 0.077868
H	 0.227863402	-0.0455530527	-2.137275295	 0.117024
H	 1.7650052865	-0.0573688847	-1.2552838493	 0.113733
H	 2.1094071659	-3.3720033904	-1.3326275315	 0.11923
H	-0.2404065969	-2.365071098	 1.3760474952	 0.114506
H	 1.1369594785	-2.2166350072	 2.4671631747	 0.113664
H	 0.2480119057	-0.0536399262	 2.1480098407	 0.08106
H	 2.6974549954	-0.6086500538	 0.9993146176	 0.290972
76.9755	127.639	210.4674	216.5299	246.015	305.3263	326.4831	331.6742	359.0729	415.7851	507.2137	573.3628	667.3661	779.6851	808.9876	877.9601	902.7794	948.9062	968.8719	973.8801	997.7149	1041.3483	1059.9939	1092.5471	1148.2959	1155.5914	1177.0884	1234.5989	1287.0624	1295.8517	1330.7138	1357.0538	1376.5675	1389.7275	1403.3119	1419.3073	1427.6616	1433.4661	1486.4551	1495.5875	1498.7749	1508.3751	1735.2702	3009.1884	3014.1251	3025.9082	3036.0415	3039.7762	3071.6825	3103.7078	3108.2078	3119.731	3120.4667	3798.1836
CC1COC=NCC1O	C[C@H]1COC=NC[C@H]1O	
InChI=1S/C6H11NO2/c1-5-3-9-4-7-2-6(5)8/h4-6,8H,2-3H2,1H3	InChI=1S/C6H11NO2/c1-5-3-9-4-7-2-6(5)8/h4-6,8H,2-3H2,1H3/t5-,6+/m0/s1
