20
gdb 104701	2.36332	1.26101	0.98242	1.6567	76.62	-0.2619	0.024	0.2859	1278.1569	0.169802	-440.291918	-440.282408	-440.281463	-440.326496	35.399	
C	-1.8423806935	-1.0375491218	 0.4780440422	-0.397065
C	-0.5475973487	-0.2934479597	 0.132000578	-0.230431
C	 0.559057703	-0.4743321596	 1.1611488963	 0.375523
C	 0.2931054999	 0.1940354345	 2.5062261202	-0.102843
O	 0.1211077634	 1.5891855278	 2.3652029041	-0.416933
C	 1.2419507421	-1.8608641119	 1.2368563442	-0.423881
C	 2.4619619033	-1.1273846871	 0.7258372217	 0.431087
N	 3.6416930446	-1.4569508554	 0.4603574073	-0.540292
O	 1.8312026096	 0.0974818115	 0.6349416008	-0.302239
H	-2.306040358	-0.6468966204	 1.3887117036	 0.129802
H	-2.5696104769	-0.9291807933	-0.3313230107	 0.125248
H	-1.6665230045	-2.1091447177	 0.6227764494	 0.118672
H	-0.1662934864	-0.6375055468	-0.8358815364	 0.105735
H	-0.7463581423	 0.7787229106	 0.0366007033	 0.121915
H	-0.6270013773	-0.1975341473	 2.9517875905	 0.118725
H	 1.1215159484	-0.0439007077	 3.1914756298	 0.093238
H	 0.9233743737	 1.9210384876	 1.9440932503	 0.294705
H	 1.3487137538	-2.2954156543	 2.2328476337	 0.135191
H	 0.8502502826	-2.6146447092	 0.5515950369	 0.137066
H	 4.1847374631	-0.6572837996	 0.1298414348	 0.226776
71.1685	81.1215	126.9994	194.7065	210.9331	260.131	331.7094	369.4799	385.3431	436.4192	457.1529	504.8103	562.7362	674.1995	783.199	791.2805	862.2066	870.7948	910.6115	937.0998	984.9306	1000.5652	1030.46	1034.4946	1078.4448	1091.8738	1112.4706	1192.3766	1213.721	1243.3138	1284.7216	1290.8835	1327.9589	1366.3804	1401.3646	1412.182	1430.8066	1461.3877	1484.6768	1491.6651	1502.7425	1507.9765	1824.3351	2986.2803	3037.4394	3045.3526	3080.8127	3081.9142	3085.7108	3108.7027	3115.3496	3135.3444	3474.7134	3791.0028
CCC1(CO)CC(=N)O1	CC[C@@]1(CO)C[C]([NH])O1	
InChI=1S/C6H11NO2/c1-2-6(4-8)3-5(7)9-6/h7-8H,2-4H2,1H3	InChI=1S/C6H11NO2/c1-2-6(4-8)3-5(7)9-6/h7-8H,2-4H2,1H3/t6-/m0/s1
