13
gdb 133347	3.27596	1.37455	0.96834	3.0647	65.69	-0.2181	-0.041	0.1771	1081.6941	0.090448	-494.080639	-494.073143	-494.072199	-494.112649	28.254	
N	 0.0284243336	 1.3772669677	 0.0588712473	-0.575498
C	-0.0829782354	 0.0351902314	 0.0206324682	 0.307942
C	-1.2305434598	-0.7137129101	 0.0130389933	-0.393797
C	-1.0950530872	-2.1230298402	-0.0063173353	 0.373335
F	-2.214188013	-2.8408305613	-0.0099543605	-0.070653
N	 0.0057954456	-2.7952584388	-0.0207981334	-0.29
N	 1.1253970945	-2.0210002451	-0.0181712235	-0.293864
C	 1.2243843876	-0.6564446825	-0.0022832747	 0.416126
O	 2.2940772352	-0.0560473527	-0.0103628942	-0.414976
H	 0.9662047708	 1.7430465486	-0.0186225254	 0.282564
H	-0.7635405568	 1.9861600647	-0.0365492483	 0.267761
H	-2.2204296381	-0.273621326	 0.024490577	 0.112916
H	 1.9931005231	-2.5381967658	-0.0354472604	 0.278145
120.6554	163.8898	205.8772	312.3318	379.9563	394.2847	442.0621	472.5491	527.4774	577.7821	607.5736	650.3383	708.7214	740.2936	791.1452	809.1599	848.2728	989.4766	1075.982	1223.5125	1245.5541	1295.5016	1401.6582	1453.3889	1475.0682	1582.0482	1636.1746	1679.0872	1758.2906	3199.7646	3582.3024	3613.999	3737.8488
NC1=CC(F)=NNC1=O	Nc1cc(F)n[nH]c1=O	
InChI=1S/C4H4FN3O/c5-3-1-2(6)4(9)8-7-3/h1H,(H2,6,7)(H,8,9)	InChI=1S/C4H4FN3O/c5-3-1-2(6)4(9)8-7-3/h1H,(H2,6,7)(H,8,9)
