22
gdb 53097	2.75974	0.93502	0.86416	1.534	93.94	-0.2109	0.0437	0.2546	1522.3196	0.190336	-367.170869	-367.159566	-367.158622	-367.207873	40.056	
C	-0.1834261852	-0.7340243569	 4.6569995403	-0.500466
C	-0.1565023879	-1.5865832155	 3.4772412516	 0.075272
C	-0.1264909674	-2.2883448573	 2.4966585461	 0.103789
C	-0.0545668583	-3.1529470297	 1.3511128533	-0.274256
N	-1.2024826001	-3.9825755133	 0.9207728162	-0.133297
C	-2.4325259777	-3.9526842676	 1.6995186914	-0.314274
C	-0.8167787386	-2.8505037526	 0.0796284326	 0.31706
C	-1.6725953293	-1.6010348643	-0.0048921164	-0.45985
C	-0.185976794	-3.2590002088	-1.2385596603	-0.436389
H	-0.0960397245	-1.3207776609	 5.5783755389	 0.148831
H	 0.6423374244	-0.013779122	 4.6437797182	 0.149705
H	-1.1171191564	-0.1636737019	 4.71499943	 0.147849
H	 0.8997889572	-3.6680693999	 1.2472838438	 0.099699
H	-2.6362963774	-3.005429653	 2.2154256831	 0.112854
H	-3.2728527793	-4.1783857839	 1.0352368315	 0.118426
H	-2.3814703643	-4.7410056745	 2.4572721795	 0.123439
H	-1.9993259143	-1.2469674997	 0.9732265659	 0.131523
H	-1.1031985572	-0.7925190617	-0.4751738766	 0.120822
H	-2.5572233415	-1.7839641825	-0.6258465628	 0.116491
H	-0.9588814341	-3.4324866617	-1.9965278618	 0.114801
H	 0.4823836574	-2.4760906173	-1.6138317511	 0.113084
H	 0.3835093585	-4.183968355	-1.1221840337	 0.124885
31.3898	84.6321	94.7263	153.0284	165.8873	200.8455	220.9852	249.8503	267.075	290.5506	351.972	393.8625	406.0101	463.4039	510.0486	582.3804	696.0455	729.2824	810.3869	893.9999	953.2479	1002.7679	1008.3699	1051.6337	1053.395	1063.7043	1134.6948	1154.6875	1157.5989	1184.9345	1206.3924	1275.215	1340.6074	1397.1684	1404.6954	1415.2994	1416.2644	1455.0827	1476.8262	1478.7179	1479.3817	1481.0268	1489.3042	1496.2306	1505.4188	1513.9997	2357.6413	3008.8607	3025.179	3027.4329	3036.7673	3076.1951	3084.535	3086.7789	3088.1373	3093.3876	3101.3229	3102.6247	3123.7043	3142.4064
CC#CC1N(C)C1(C)C	CC#C[C@H]1N(C)C1(C)C	
InChI=1S/C8H13N/c1-5-6-7-8(2,3)9(7)4/h7H,1-4H3	InChI=1S/C8H13N/c1-5-6-7-8(2,3)9(7)4/h7H,1-4H3/t7-,9?/m1/s1
