16
gdb 33588	4.01122	1.50858	1.37596	0.9877	79.85	-0.2151	0.0314	0.2466	950.1238	0.125074	-363.48202	-363.475441	-363.474497	-363.512748	27.355	
C	 0.0575192726	-1.1185638395	 0.0045795798	-0.378876
C	 0.0073188386	 0.0851444889	-0.0125883681	 0.059252
C	-0.0678849166	 1.496977751	-0.0397108528	 0.299287
C	 0.1306999543	 2.5186708456	 1.0902074428	-0.174234
C	 1.1542994347	 2.4553745831	 0.0061281035	-0.078103
N	 0.6789324477	 3.6619115675	-0.724876537	-0.15714
C	-0.1271801682	 3.1160078132	-1.8826317919	-0.18481
C	-1.0248709723	 2.4243996784	-0.8427606671	-0.151912
C	-0.5754419076	 3.5326646119	 0.1659775583	-0.019081
H	 0.1007495268	-2.1789929395	 0.0216016886	 0.177288
H	 0.1947161395	 2.3827787045	 2.1605809697	 0.108741
H	 2.1782484014	 2.1066675275	 0.0018957729	 0.10828
H	-0.6210174396	 3.9449192222	-2.398202877	 0.111111
H	 0.4327823568	 2.5047693419	-2.5959576835	 0.112201
H	-2.0488888874	 2.0950966269	-1.010900638	 0.081426
H	-1.1266304906	 4.4311734963	 0.4328844898	 0.08657
139.0033	157.8281	396.4232	460.5758	496.6182	528.1964	547.3577	594.0538	661.4233	728.8981	759.4443	785.6986	832.5882	839.8895	867.9688	890.1065	900.3042	949.473	954.1646	987.9089	996.8979	1044.579	1068.5437	1129.2754	1140.4931	1154.2407	1197.5413	1201.3396	1211.7032	1236.6861	1275.6478	1283.9278	1380.9343	1497.8265	2226.7968	3053.1783	3113.7775	3131.9915	3146.3929	3206.7992	3220.7813	3504.0495
C#CC12C3C1N1CC2C31	C#C[C@@]12[C@H]3[C@@H]1N1C[C@@H]2[C@@H]31	
InChI=1S/C8H7N/c1-2-8-4-3-9-6(4)5(8)7(8)9/h1,4-7H,3H2	InChI=1S/C8H7N/c1-2-8-4-3-9-6(4)5(8)7(8)9/h1,4-7H,3H2/t4-,5-,6+,7+,8-/m1/s1
