16
gdb 97339	3.7566	0.8394	0.72216	1.36	71.76	-0.2667	-0.0353	0.2314	1552.8701	0.121602	-475.019591	-475.010357	-475.009413	-475.054896	31.404	
C	 0.1658205144	 1.2925880952	-0.1566339728	-0.319807
N	 0.6434675389	-0.0766719404	-0.1375789876	-0.189481
C	 0.6969916448	-0.6490608062	 0.9747745372	 0.116587
O	 1.1637777957	-1.9447716903	 1.0187987247	-0.217557
C	 1.1212694945	-2.5984247014	 2.2141001058	 0.451698
O	 0.6652948855	-2.1491730543	 3.2311986634	-0.348075
C	 1.6982361706	-3.9758892475	 2.1022922832	-0.046113
C	 1.5286652069	-4.7819556234	 0.8758026371	-0.16576
O	 2.7721296554	-4.1764414356	 1.1894659063	-0.205903
H	 0.9391363385	 1.9354901547	-0.5903000637	 0.138879
H	-0.7086044564	 1.3583103058	-0.8127550453	 0.137309
H	-0.106027129	 1.6877839525	 0.8338665123	 0.108307
H	 0.4192827262	-0.2498858646	 1.9522545362	 0.136292
H	 1.7903682854	-4.4683150285	 3.0670058009	 0.127456
H	 1.4900005156	-5.8655260319	 0.9734379892	 0.131006
H	 1.0007721428	-4.3509896641	 0.0287453633	 0.145162
61.3967	83.7351	93.0156	115.8452	213.0557	216.4056	275.2528	347.2065	381.4815	448.5899	531.5238	659.5206	756.0169	860.34	886.2571	934.3654	984.174	996.3664	1061.9699	1096.9203	1134.0168	1141.0492	1160.208	1169.5026	1182.3665	1255.1404	1286.2672	1369.8478	1400.0832	1447.3602	1480.2163	1501.4367	1514.0008	1779.0581	1831.8797	2987.2267	3073.8733	3091.909	3097.1614	3116.6598	3157.087	3197.1801
CN=COC(=O)C1CO1	CN=COC(=O)[C@H]1CO1	
InChI=1S/C5H7NO3/c1-6-3-9-5(7)4-2-8-4/h3-4H,2H2,1H3	InChI=1S/C5H7NO3/c1-6-3-9-5(7)4-2-8-4/h3-4H,2H2,1H3/t4-/m1/s1
