20
gdb 89565	4.59738	1.0283	0.98084	2.0519	79.21	-0.2423	0.0272	0.2695	1279.9132	0.171976	-403.163064	-403.154834	-403.15389	-403.196338	31.562	
C	-0.9503845161	 1.080238221	-0.0590034583	-0.407312
C	 0.1175078712	 0.0076376388	 0.0839170673	 0.054658
C	 1.321377613	 0.0156795822	-0.9037933692	-0.303994
C	 2.2462874405	-0.3453783998	 0.2801867162	 0.410038
C	 1.1403305873	 0.1227539157	 1.2524718914	-0.304001
C	 2.7402585184	-1.8125842453	 0.3945294995	-0.247627
N	 4.2051197255	-1.7298707348	 0.5134528981	-0.263024
C	 4.4742847274	-0.4930183072	 0.4744645629	 0.10037
O	 3.4786723098	 0.4146429524	 0.3459122828	-0.255946
H	-0.5013316898	 2.0798432658	-0.0709647532	 0.114577
H	-1.5161936013	 0.9571739237	-0.9891706709	 0.117151
H	-1.6639915674	 1.044640853	 0.7716554908	 0.117151
H	-0.349188828	-0.983496688	 0.0939477442	 0.075856
H	 1.3035627377	-0.6698400914	-1.7555291789	 0.10032
H	 1.5376440446	 1.0268506708	-1.2615457525	 0.111335
H	 1.3024209971	 1.1659668425	 1.5399747043	 0.111335
H	 0.9754196053	-0.475769832	 2.1526291341	 0.100322
H	 2.3263388839	-2.3220980841	 1.2720243624	 0.116241
H	 2.4738990105	-2.4093897375	-0.4851328873	 0.116244
H	 5.4683289904	-0.063457796	 0.5367099762	 0.136308
64.7089	70.9665	228.4911	254.2779	300.9342	312.6234	422.2629	439.6378	456.411	529.4147	684.74	788.3925	827.5406	838.9363	889.0304	898.821	928.511	948.5331	959.4874	968.8963	985.4458	1043.5559	1057.0319	1111.4297	1138.2239	1157.0293	1170.2279	1207.3539	1227.6741	1237.5254	1262.3912	1287.0537	1293.0814	1326.1966	1338.5888	1376.253	1412.9828	1468.5869	1488.1802	1495.9224	1496.2082	1501.8665	1709.4247	3024.4776	3030.9967	3040.457	3049.391	3055.5747	3063.7965	3092.7069	3093.6968	3108.2346	3112.0665	3212.5825
CC1CC2(C1)CN=CO2	C[C@H]1C[C@@]2(C1)CN=CO2	
InChI=1S/C7H11NO/c1-6-2-7(3-6)4-8-5-9-7/h5-6H,2-4H2,1H3	InChI=1S/C7H11NO/c1-6-2-7(3-6)4-8-5-9-7/h5-6H,2-4H2,1H3/t6-,7+
