18
gdb 42403	3.44886	0.94652	0.85273	3.7481	73.65	-0.2445	-0.0327	0.2118	1390.6609	0.145907	-439.031764	-439.022815	-439.021871	-439.067173	31.627	
O	-0.7071085108	 1.00455818	-1.397839398	-0.303601
C	-0.0832784187	 1.66852285	-0.6050791863	 0.35752
C	 1.3406245613	 2.1407604319	-0.8929270742	-0.264828
N	 2.1717234071	 2.0878885757	 0.3015338223	-0.071858
C	 2.9338781079	 0.8570982668	 0.506503594	-0.222213
C	 3.6147709229	 2.113680434	 0.0891345029	-0.217066
C	-0.6761603985	 2.0926642706	 0.7164217288	-0.010009
O	-2.099079011	 2.2195858707	 0.7345121667	-0.212205
C	-1.535666793	 1.131739087	 1.4406895078	-0.160265
H	 1.7276717738	 1.5519138659	-1.739165954	 0.11205
H	 1.2762352842	 3.1890602516	-1.2192367636	 0.132368
H	 2.9999850838	 0.5088362986	 1.5328401467	 0.123618
H	 2.8387804143	 0.070321378	-0.239713195	 0.123055
H	 3.9773275775	 2.1659284225	-0.9359307721	 0.117335
H	 4.185314813	 2.6974637365	 0.8054522115	 0.124575
H	-0.1280713436	 2.8396349093	 1.2834572127	 0.117328
H	-1.7030837281	 0.1534345969	 0.9939380507	 0.133155
H	-1.5854236121	 1.1872406739	 2.5272574191	 0.121042
40.3524	53.2463	85.2475	141.2804	246.9508	280.3893	316.9036	382.8457	436.0313	579.1827	685.065	757.2808	790.9324	841.3061	875.5883	902.6971	904.5047	973.113	1019.791	1036.1646	1053.1536	1096.6315	1111.3728	1123.5503	1143.5594	1164.864	1169.1129	1173.2739	1205.7653	1256.1848	1275.0375	1323.2188	1350.4006	1414.2114	1466.3578	1492.4773	1508.137	1521.1177	1816.6632	2980.7028	3032.875	3086.1314	3099.3939	3103.9609	3161.9599	3183.8417	3184.6811	3198.1757
O=C(CN1CC1)C1OC1	O=C(CN1CC1)[C@H]1OC1	
InChI=1S/C6H9NO2/c8-5(6-4-9-6)3-7-1-2-7/h6H,1-4H2	InChI=1S/C6H9NO2/c8-5(6-4-9-6)3-7-1-2-7/h6H,1-4H2/t6-/m0/s1
