19
gdb 81842	2.26946	1.59844	1.21009	3.3134	76.	-0.2325	-0.0245	0.208	1095.1439	0.157345	-423.001461	-422.992432	-422.991488	-423.035149	33.91	
C	-0.1936716563	 1.5196428923	 0.1430483005	-0.402848
C	 0.0771437195	 0.0225563962	 0.0504331203	 0.012447
C	 0.6732322969	-0.5537580982	-1.2414520974	-0.158552
C	 2.1222828107	-0.1356756757	-1.4070649413	-0.316823
C	 1.7947005108	-1.2314013542	-0.4526843021	 0.392147
O	 2.4000914395	-2.4630288435	-0.5766971845	-0.451161
C	 1.2385688738	-0.6533932935	 0.8831903314	-0.188874
C	 2.2452326733	 0.1403551263	 1.6672323848	 0.14094
O	 2.5270543678	 1.299153509	 1.4726663801	-0.255666
H	 0.6869542188	 2.1148112552	-0.100128594	 0.142147
H	-1.0008390583	 1.7899700492	-0.5472251034	 0.107388
H	-0.5098479643	 1.8008574501	 1.1528573519	 0.113793
H	-0.8440945299	-0.5175365038	 0.2940264938	 0.077213
H	 0.1000070445	-0.9297503141	-2.0806129816	 0.0899
H	 2.5830147896	-0.4938415035	-2.3217555047	 0.12218
H	 2.4804500527	 0.8289661406	-1.0608422409	 0.136929
H	 1.7754521376	-3.1419258902	-0.2963791491	 0.28538
H	 0.8542265625	-1.4613420643	 1.5155506036	 0.073825
H	 2.7883742109	-0.445687568	 2.4449396126	 0.079635
65.9962	123.6872	177.5839	208.3469	234.4462	241.7354	344.5066	376.0408	380.8627	460.9752	512.0823	580.4625	686.6235	721.8394	791.0863	840.6309	873.9278	915.9764	957.6071	987.2835	1000.69	1041.6626	1049.3697	1084.6852	1099.0321	1114.1372	1158.2285	1174.1871	1188.0624	1257.2372	1287.0999	1302.0316	1349.8996	1372.847	1412.3234	1425.9372	1434.7112	1488.7108	1494.8264	1503.9261	1809.1912	2856.5415	3032.6346	3038.3801	3053.1298	3095.0446	3128.2628	3146.0186	3182.5488	3217.9014	3785.3349
CC1C2CC2(O)C1C=O	C[C@H]1[C@H]2C[C@@]2(O)[C@H]1C=O	
InChI=1S/C7H10O2/c1-4-5-2-7(5,9)6(4)3-8/h3-6,9H,2H2,1H3	InChI=1S/C7H10O2/c1-4-5-2-7(5,9)6(4)3-8/h3-6,9H,2H2,1H3/t4-,5+,6-,7-/m0/s1
