22
gdb 104785	2.37837	1.41581	1.1385	2.3769	81.44	-0.2302	0.0781	0.3083	1204.8409	0.193101	-404.289913	-404.280488	-404.279544	-404.323815	35.769	
C	 0.5711242005	 1.2174263626	 0.2940902507	-0.382642
C	 0.1193000255	-0.2170570623	-0.0013990314	-0.255588
C	 0.571819238	-0.7122944937	-1.3758563545	 0.425389
C	 2.0826612874	-0.9560930134	-1.6335036804	-0.218971
N	 1.8497400529	-2.370301482	-2.0993130301	-0.1252
C	 1.2828735648	-3.0754135332	-0.9382639072	-0.250303
C	 0.3886447469	-2.2014412107	-1.7243734615	-0.098992
O	 0.1199869865	 0.1310991063	-2.429023223	-0.290108
C	-1.2800166922	 0.231463867	-2.5881124935	-0.253875
H	 1.6635809099	 1.2975987106	 0.2838229284	 0.119151
H	 0.1861137781	 1.9150768583	-0.4542899759	 0.130428
H	 0.2232449228	 1.5426949002	 1.2788534146	 0.111219
H	 0.5132487798	-0.8947023125	 0.7632265717	 0.098188
H	-0.973011687	-0.2907353326	 0.0720722241	 0.09714
H	 2.4493727889	-0.3391828773	-2.4539663096	 0.12598
H	 2.7579390674	-0.8818981961	-0.7744526031	 0.095108
H	 1.1938620583	-4.146840707	-1.0926476465	 0.121458
H	 1.6006571773	-2.7914286805	 0.0628644213	 0.109344
H	-0.4023941375	-2.5986341224	-2.3524920653	 0.095126
H	-1.4493081986	 0.7591361687	-3.5299693884	 0.130132
H	-1.7663892726	-0.7522416536	-2.6489697019	 0.107444
H	-1.757322217	 0.8026279436	-1.7797947587	 0.109571
100.662	119.4418	161.7423	187.9966	199.6769	215.3873	281.6124	338.6831	394.9662	446.43	494.4232	514.104	641.9972	747.4684	779.3832	788.0486	853.0975	884.9626	945.1214	970.325	983.4589	1019.8077	1046.3806	1052.4996	1102.0587	1110.8995	1118.6187	1139.5504	1176.9098	1180.933	1202.0246	1212.8195	1237.9948	1256.4912	1290.2958	1307.7543	1363.4687	1372.6197	1410.2503	1472.7611	1480.7905	1484.2291	1496.9913	1498.7392	1503.8097	1507.5937	1514.4326	2992.2634	3031.6162	3040.08	3043.5417	3046.4794	3070.6063	3101.9569	3104.3442	3113.0484	3121.1865	3135.7819	3159.6727	3191.395
CCC1(CN2CC12)OC	CC[C@]1(CN2C[C@@H]12)OC	
InChI=1S/C7H13NO/c1-3-7(9-2)5-8-4-6(7)8/h6H,3-5H2,1-2H3	InChI=1S/C7H13NO/c1-3-7(9-2)5-8-4-6(7)8/h6H,3-5H2,1-2H3/t6-,7+,8?/m0/s1
