17
gdb 72679	2.35147	1.51527	1.46404	5.378	73.15	-0.2485	0.0006	0.2492	1014.5007	0.136097	-417.979925	-417.971564	-417.97062	-418.012884	31.491	
N	 0.0125594428	 1.4183699936	-0.4689881037	-0.581835
C	 0.0169429399	 0.0425996368	-0.1020890867	 0.210831
C	 0.6116381728	-0.9267737122	-1.1630267469	-0.264212
C	-0.7210883203	-1.7341944709	-1.2147367871	-0.271083
C	-1.2779020718	-0.8762514691	-0.0593946723	 0.279508
O	-0.884733769	-1.3805063234	 1.2322567353	-0.32202
C	 0.2110143659	-0.441328531	 1.3506226194	-0.12849
C	-2.6421993587	-0.3914822757	-0.1010240214	 0.243911
N	-3.7197966956	 0.0253368448	-0.1521659299	-0.342785
H	-0.2597380524	 2.0272394765	 0.2950298998	 0.24009
H	 0.9165609044	 1.7183944842	-0.8161835142	 0.238855
H	 0.8470096663	-0.4210518861	-2.10110971	 0.118884
H	 1.4901354921	-1.4815043615	-0.8267387652	 0.111323
H	-1.2688414643	-1.5920662849	-2.1483158023	 0.129494
H	-0.6709575179	-2.7980169916	-0.9779541244	 0.126422
H	 1.1566879581	-0.9360318641	 1.6014894706	 0.107326
H	-0.0081312423	 0.3302507044	 2.1024455492	 0.103781
86.1387	111.9096	181.2108	196.2061	297.5273	357.5453	369.6255	381.6586	530.9672	554.4432	587.8595	658.4846	698.2167	749.5471	751.582	889.3773	893.8603	946.8826	969.7281	1000.5855	1048.4674	1057.7419	1096.663	1148.8412	1153.8808	1200.4651	1229.7061	1259.2455	1279.3365	1304.9658	1331.2548	1373.2455	1459.9161	1479.2025	1515.3242	1653.8847	2347.3757	2998.3854	3059.987	3071.8818	3079.6659	3124.6603	3144.4598	3510.4244	3597.2857
NC12CCC1(OC2)C#N	N[C@]12CC[C@]1(OC2)C#N	
InChI=1S/C6H8N2O/c7-3-6-2-1-5(6,8)4-9-6/h1-2,4,8H2	InChI=1S/C6H8N2O/c7-3-6-2-1-5(6,8)4-9-6/h1-2,4,8H2/t5-,6-/m0/s1
