21
gdb 23025	3.39216	0.82246	0.77344	1.1691	84.3	-0.2301	0.0098	0.2399	1578.448	0.180899	-420.349023	-420.338793	-420.337848	-420.384637	37.453	
C	-0.7076467661	 1.4043204982	 1.1108626111	-0.375225
C	-0.3296172299	 0.1834960936	 0.2636297397	-0.195148
C	 0.9839757786	-0.4213578727	 0.7059607412	 0.014499
N	 0.9766624212	-1.3168599849	 1.8681929551	-0.34532
C	 1.3852299791	-1.8585758406	 0.5593203667	-0.114432
C	 0.5584374188	-2.9383431819	-0.0543854812	 0.379624
C	-0.8435579895	-3.2248645487	 0.4035007825	-0.488651
N	 1.1706114871	-3.604260008	-0.9621951066	-0.183656
O	 0.351166105	-4.5973378058	-1.5211551303	-0.398468
H	 0.0571060156	 2.1865183534	 1.0448542715	 0.110678
H	-1.6561938855	 1.8379204251	 0.78029651	 0.112816
H	-0.810449606	 1.1240190611	 2.1638348418	 0.128033
H	-1.1240698015	-0.5641800472	 0.3238629426	 0.109069
H	-0.2443414588	 0.4709727306	-0.7920925629	 0.101122
H	 1.8219267096	 0.2748800947	 0.6373225021	 0.083204
H	 1.7865728074	-1.1694062931	 2.4627922201	 0.235531
H	 2.4458305724	-2.0159119539	 0.3787505252	 0.093093
H	-1.0433206993	-2.7243477901	 1.3505769988	 0.147905
H	-1.574359043	-2.8961805516	-0.344177395	 0.138775
H	-0.9779989417	-4.3040714576	 0.515500745	 0.141774
H	 0.9507197364	-5.0263519205	-2.1404598872	 0.304777
52.2861	72.2108	131.2192	174.5319	195.733	234.9374	252.762	293.7767	319.4346	392.961	417.5252	473.0664	508.8928	589.8628	650.0866	764.4788	775.585	827.116	883.053	926.1573	956.425	985.3435	1025.507	1039.217	1045.8408	1059.6856	1098.9202	1143.2016	1175.2081	1236.4225	1251.0769	1302.875	1310.1487	1346.4667	1369.6485	1395.0638	1408.0836	1428.4549	1472.5941	1475.6677	1485.1586	1493.856	1499.2092	1508.5775	1711.6486	3032.4539	3034.12	3042.6413	3082.5992	3091.791	3102.2577	3110.3506	3115.686	3138.5889	3158.2098	3515.1885	3821.477
CCC1NC1C(C)=NO	CC[C@H]1N[C@H]1C(=NO)C	
InChI=1S/C6H12N2O/c1-3-5-6(7-5)4(2)8-9/h5-7,9H,3H2,1-2H3	InChI=1S/C6H12N2O/c1-3-5-6(7-5)4(2)8-9/h5-7,9H,3H2,1-2H3/t5-,6+/m1/s1
