23
gdb 100033	2.57647	1.08447	0.96529	2.7786	81.88	-0.2556	0.0678	0.3235	1365.5241	0.202499	-425.404529	-425.393573	-425.392628	-425.440439	40.278	
C	-1.5880879506	-1.2302384575	 1.4369349592	-0.429767
C	-0.5825634891	-0.5698050125	 0.5273347882	 0.0688
O	-0.4665270573	 0.8597107308	 0.5610512644	-0.2713
C	 0.6935559098	 0.0855693275	 0.8790266541	 0.049441
C	 1.3868180648	 0.2850981611	 2.2284292902	 0.21757
C	 2.2734985662	 1.5427097	 2.089631884	-0.41158
C	 0.4307421766	 0.4830475232	 3.4163206395	-0.427946
C	 2.2732396622	-0.9511781711	 2.4592001092	-0.085242
O	 3.022962699	-0.7613888673	 3.6497556722	-0.426013
H	-1.6502500021	-0.7464194951	 2.409430387	 0.136324
H	-2.5801078876	-1.19027105	 0.9740816816	 0.125809
H	-1.3356555492	-2.2866270869	 1.5823863098	 0.118845
H	-0.6179937514	-0.9628635059	-0.4932729213	 0.083335
H	 1.4274705299	 0.0873549646	 0.0657004727	 0.078954
H	 1.6535707915	 2.4304642469	 1.9325091729	 0.123903
H	 2.873002426	 1.6855801723	 2.9908711907	 0.130535
H	 2.9575681307	 1.4544827825	 1.2381052249	 0.103011
H	-0.0529588474	-0.4509731404	 3.7136147306	 0.108905
H	 0.9905348904	 0.8440254922	 4.2818742488	 0.124818
H	-0.341875574	 1.2142476269	 3.166537262	 0.127397
H	 1.6342104248	-1.8458121924	 2.5341113527	 0.085081
H	 2.9404291974	-1.0929367432	 1.5928917738	 0.080487
H	 3.5919695793	-1.5261142858	 3.7728042729	 0.288631
41.4089	111.0421	130.8596	181.8287	211.4817	230.3933	235.7942	266.6856	269.8215	311.262	368.6792	389.3432	396.602	410.8708	528.4363	632.7661	728.2816	782.0515	829.5523	918.9676	934.7534	966.2679	983.2096	1001.4296	1021.5662	1067.5031	1077.2518	1099.231	1172.0315	1184.6005	1187.1557	1214.2351	1239.1773	1285.1265	1296.3445	1345.5464	1390.54	1397.563	1407.8335	1428.4001	1457.9432	1471.7283	1484.8813	1487.9111	1498.8476	1501.3686	1508.5319	1520.4599	1525.1855	2956.5059	2987.7951	3031.7042	3037.1894	3040.054	3050.9258	3060.3941	3092.3102	3100.977	3119.7898	3130.2294	3134.4502	3174.7087	3837.2049
CC1OC1C(C)(C)CO	C[C@H]1O[C@H]1C(C)(C)CO	
InChI=1S/C7H14O2/c1-5-6(9-5)7(2,3)4-8/h5-6,8H,4H2,1-3H3	InChI=1S/C7H14O2/c1-5-6(9-5)7(2,3)4-8/h5-6,8H,4H2,1-3H3/t5-,6-/m1/s1
