17
gdb 47232	2.3584	2.04141	1.26359	4.0795	73.59	-0.2367	-0.0114	0.2254	987.6101	0.138805	-418.017277	-418.009907	-418.008963	-418.048951	28.965	
O	-0.0281764918	-0.0631551653	 0.3952343584	-0.379733
C	-0.0635749237	 1.1203944294	 0.1285676364	 0.403807
N	-1.2401597413	 1.7930876369	-0.1105045089	-0.317186
C	-1.3801892209	 3.2432217307	 0.027733914	-0.221502
C	-0.8228087018	 3.7890432013	 1.3304281655	-0.071653
C	 0.4731442307	 3.6953456382	 1.6276612257	-0.060195
C	 1.4455102636	 3.0948831733	 0.673811531	-0.07729
C	 2.1549416789	 1.8002978901	 0.9314384559	-0.238338
N	 1.1098110954	 1.877726012	-0.0717584885	-0.121546
H	-2.0428606243	 1.2303941166	 0.1262487151	 0.250365
H	-0.8845721459	 3.7313488906	-0.8201083689	 0.136069
H	-2.4438143532	 3.4728488789	-0.0616208203	 0.118643
H	-1.5140446187	 4.2492610124	 2.0307870973	 0.10288
H	 0.8649140339	 4.092528179	 2.5610088277	 0.104658
H	 1.9849121554	 3.8237562672	 0.0657094708	 0.111518
H	 3.1654854974	 1.6561995427	 0.5594717642	 0.122756
H	 1.9140417463	 1.256106296	 1.8403015347	 0.136748
106.1154	197.8676	228.3448	291.766	344.4949	414.4155	476.8428	508.8327	542.4566	645.2414	697.9011	745.8512	768.8129	806.8218	840.7853	918.6649	952.7202	990.5595	1001.8845	1020.6036	1092.8598	1102.0212	1129.3121	1135.4795	1171.0137	1214.0674	1264.5072	1293.6224	1347.8682	1375.526	1413.7123	1425.6733	1450.1906	1495.1323	1514.8587	1708.8122	1795.1164	3033.2031	3080.7273	3108.1284	3113.9462	3151.0518	3176.7576	3203.4501	3630.3445
O=C1NCC=CC2CN12	O=C1NCC=C[C@H]2CN12	
InChI=1S/C6H8N2O/c9-6-7-3-1-2-5-4-8(5)6/h1-2,5H,3-4H2,(H,7,9)	InChI=1S/C6H8N2O/c9-6-7-3-1-2-5-4-8(5)6/h1-2,5H,3-4H2,(H,7,9)/t5-,8?/m0/s1
