15
gdb 128526	2.09871	1.80593	1.01548	2.1053	65.33	-0.2069	0.0221	0.229	1115.8893	0.111941	-491.058006	-491.049227	-491.048282	-491.091612	31.743	
C	-0.2596185769	 1.4174673312	 0.0756739075	-0.258041
O	 0.1828782222	 0.0725046473	-0.1158536193	-0.286363
C	 0.7275712098	-0.5037787694	 0.9924769591	 0.028973
C	 2.0096772117	-0.9602139617	 1.1292141122	 0.414555
N	 3.1025683949	-0.874669394	 0.3025023439	-0.597407
O	 2.1745201988	-1.5521926189	 2.3185702883	-0.224641
N	 0.9516578033	-1.4888614059	 3.0401931759	-0.277894
C	 0.126954929	-0.8739031153	 2.227584504	 0.39131
O	-1.1499824198	-0.6266437987	 2.5640800994	-0.424475
H	 0.5725725668	 2.0672262198	 0.3746678136	 0.11778
H	-0.6590438507	 1.7518789838	-0.8839960866	 0.129933
H	-1.0468945915	 1.4679094808	 0.8358841819	 0.138897
H	 2.8520192526	-0.7070543775	-0.6620953487	 0.26957
H	 3.7614474233	-1.6342007343	 0.4076573346	 0.266877
H	-1.2903861837	-0.9819824971	 3.4523435041	 0.310926
67.789	153.6823	162.9714	191.2234	247.8211	276.1314	308.3905	388.2784	418.7538	481.3083	572.6895	584.5042	617.2189	682.8009	716.4339	760.8072	793.4532	939.6114	1039.3564	1063.3101	1131.5044	1179.5415	1219.0674	1224.0532	1320.2049	1403.7906	1479.592	1487.7353	1506.8454	1553.3192	1579.9452	1634.5483	1727.5879	3014.0623	3084.4514	3131.3737	3556.5449	3660.4836	3775.0337
COC1=C(N)ON=C1O	COc1c(N)onc1O	
InChI=1S/C4H6N2O3/c1-8-2-3(5)9-6-4(2)7/h5H2,1H3,(H,6,7)	InChI=1S/C4H6N2O3/c1-8-2-3(5)9-6-4(2)7/h5H2,1H3,(H,6,7)
