15
gdb 125115	2.35348	1.86135	1.04616	4.1237	70.92	-0.2339	-0.0345	0.1994	1065.4658	0.112966	-453.983283	-453.975222	-453.974278	-454.016497	29.933	
C	 0.0565978118	 1.5568904904	 0.0853394318	-0.548004
C	 0.0568239523	 0.0523307806	 0.0443714701	 0.056697
C	 0.0408441216	-0.6825505284	-1.1515006628	 0.401371
O	 0.0244719216	-0.0121897402	-2.3224871951	-0.414498
N	 0.0403357157	-2.0076004373	-1.2391193691	-0.318024
N	 0.0559616611	-2.7373112517	-0.1249332523	-0.209145
C	 0.071709102	-2.1312409866	 1.0489640144	-0.044928
C	 0.0728696788	-0.7321388777	 1.1871243635	 0.318601
O	 0.0897523342	-0.2268760759	 2.4403924981	-0.423686
H	 0.9496303908	 1.9473093438	 0.5902629848	 0.138108
H	 0.0425966607	 1.9669880555	-0.9241496241	 0.1698
H	-0.8227183786	 1.9463831422	 0.6144705793	 0.138111
H	 0.0154217244	-0.695259995	-3.0096372843	 0.303125
H	 0.084098419	-2.7636328749	 1.9303187542	 0.125866
H	 0.0887622247	 0.7363232751	 2.4039645213	 0.306607
37.0934	137.0101	238.9619	280.27	284.436	339.0503	399.5462	494.2817	525.532	546.062	555.1084	586.92	675.7375	694.237	793.3441	861.0521	917.4166	951.3328	1055.1608	1111.6285	1125.7979	1206.0485	1227.8677	1272.6258	1310.2446	1373.3508	1411.0402	1431.5114	1490.9955	1496.0812	1521.52	1616.0751	1641.8286	3015.4149	3062.2074	3153.8759	3191.858	3744.5963	3809.0354
CC1=C(O)N=NC=C1O	Cc1c(O)nncc1O	
InChI=1S/C5H6N2O2/c1-3-4(8)2-6-7-5(3)9/h2H,1H3,(H2,7,8,9)	InChI=1S/C5H6N2O2/c1-3-4(8)2-6-7-5(3)9/h2H,1H3,(H2,7,8,9)
