17
gdb 27228	3.34726	1.61342	1.1035	3.3948	81.92	-0.2068	-0.0108	0.1961	1069.9761	0.138463	-380.922997	-380.915569	-380.914625	-380.955119	28.408	
C	 0.0094090698	 1.5080754695	 0.0701866827	-0.487433
C	 0.0475881462	 0.0178743896	-0.0276267049	 0.129606
C	 0.0026741558	-0.782454544	-1.1395426042	 0.268653
C	-0.0883804422	-0.8379517116	-2.6407441623	-0.419135
C	-0.0592400802	-2.3398843183	-2.8905698156	-0.131987
C	 0.0319936454	-3.0020447942	-1.7313267118	-0.017557
N	 0.0704600221	-2.0846626375	-0.6675771928	-0.014714
C	 0.1525971955	-2.0257797315	 0.6908411482	-0.028139
N	 0.1411358816	-0.7769779445	 1.1053273344	-0.329599
H	 0.9107110281	 1.894754138	 0.5583583525	 0.13351
H	-0.065350943	 1.9674968614	-0.919476447	 0.110942
H	-0.8462882959	 1.8426130268	 0.6668802818	 0.133511
H	-1.0067251812	-0.3812965843	-3.0330347109	 0.136107
H	 0.7461865517	-0.3292817738	-3.1412794852	 0.136107
H	-0.106268527	-2.7931014649	-3.869929022	 0.113927
H	 0.0754599278	-4.0634319047	-1.5374664997	 0.137682
H	 0.2171930692	-2.9040173763	 1.3148836173	 0.128518
75.0029	145.2178	217.6917	245.3904	314.1088	454.0689	500.0445	607.0093	664.5697	672.2425	677.128	733.0627	785.3768	801.5523	871.7162	910.6871	938.8496	955.0541	978.9264	1061.5204	1082.0941	1121.4993	1145.7713	1181.571	1245.129	1269.4407	1295.065	1326.0506	1381.882	1413.573	1444.732	1462.2371	1476.369	1487.8903	1502.9789	1634.776	1663.365	3017.5145	3031.5065	3038.0903	3085.3042	3111.2511	3236.8447	3253.1795	3261.0771
CC1=C2CC=CN2C=N1	Cc1c2CC=Cn2cn1	
InChI=1S/C7H8N2/c1-6-7-3-2-4-9(7)5-8-6/h2,4-5H,3H2,1H3	InChI=1S/C7H8N2/c1-6-7-3-2-4-9(7)5-8-6/h2,4-5H,3H2,1H3
