23
gdb 93696	3.11325	1.17617	1.09066	0.0778	82.16	-0.2301	0.0879	0.318	1268.5898	0.204816	-425.442399	-425.432828	-425.431884	-425.475893	37.383	
C	-0.1034770202	 1.5136869744	 0.032877373	-0.410016
C	 0.0063328598	-0.0011034408	-0.0090651725	 0.129573
C	 0.7204561169	-0.5146427781	-1.2587946115	-0.089283
O	 0.9191693096	-1.9172691524	-1.2060600884	-0.296182
C	 1.5923858851	-2.384871872	-0.0224860369	 0.348789
C	 1.473842867	-3.905565651	-0.0760813042	-0.421841
C	 3.0646151255	-1.9456343598	-0.0185816724	-0.424509
C	 0.8474011254	-1.8282957756	 1.2023953323	-0.097519
O	 0.729942516	-0.4175618501	 1.1468863663	-0.268288
H	 0.8898720034	 1.9719509528	 0.0012331504	 0.124168
H	-0.685118261	 1.8824821951	-0.8175756569	 0.116556
H	-0.5964239274	 1.8317791066	 0.9550908315	 0.127747
H	-0.9997033492	-0.4553757965	 0.0223767954	 0.066755
H	 0.1156298216	-0.3281436262	-2.1524272519	 0.104048
H	 1.6754164118	 0.0206505713	-1.3769526295	 0.089744
H	 1.9985705346	-4.294298015	-0.9534354163	 0.123328
H	 1.9099462785	-4.3624166056	 0.8177923794	 0.112068
H	 0.42426516	-4.2039446124	-0.1479213797	 0.120342
H	 3.1615579586	-0.8719634848	 0.1561302058	 0.126285
H	 3.6122122766	-2.4615578666	 0.7764404991	 0.111944
H	 3.5315437168	-2.1935306425	-0.9760338131	 0.118673
H	-0.1526458743	-2.2892371002	 1.2546975441	 0.085183
H	 1.3868603148	-2.0616734406	 2.1257523761	 0.102435
98.2858	197.502	202.7121	224.7044	237.7237	259.6307	283.2017	316.8951	328.4978	409.5431	455.2635	468.4019	485.3295	507.2609	655.287	752.7998	830.9712	869.8448	907.2585	922.6933	937.6856	949.0762	994.5663	1038.8629	1081.2762	1117.1818	1140.3183	1150.7596	1164.3797	1210.9484	1234.1615	1255.4346	1293.2442	1312.2853	1340.3017	1378.2959	1390.4105	1406.1099	1411.6976	1414.8674	1422.6285	1473.6041	1482.4995	1485.1372	1488.708	1489.9567	1499.6946	1501.4328	1515.87	2949.5367	2971.5462	2988.7868	3040.2977	3042.7955	3045.5789	3074.1177	3079.3868	3110.9335	3115.2078	3117.5118	3119.3694	3123.0706	3130.4004
CC1COC(C)(C)CO1	C[C@H]1COC(C)(C)CO1	
InChI=1S/C7H14O2/c1-6-4-9-7(2,3)5-8-6/h6H,4-5H2,1-3H3	InChI=1S/C7H14O2/c1-6-4-9-7(2,3)5-8-6/h6H,4-5H2,1-3H3/t6-/m0/s1
