16
gdb 35521	3.26395	1.45045	1.35117	2.7443	67.01	-0.2715	0.0231	0.2945	971.4383	0.12735	-437.905474	-437.898644	-437.897699	-437.936945	26.543	
N	-0.1053725052	-1.1881781119	-0.1783714652	-0.330687
C	-0.074011614	-0.0372188863	-0.0724555636	 0.266712
C	-0.0122440858	 1.4117524486	 0.0525290626	-0.14263
C	-0.5745446691	 1.9889462361	 1.4002450823	-0.263211
C	 0.6420127716	 2.8226027981	 1.8527516941	 0.188571
O	 1.6309911076	 1.9512259093	 2.379192411	-0.268373
C	 2.2414809503	 1.3540462952	 1.2192681951	-0.099867
C	 1.4355770721	 2.0034399467	 0.0811362469	 0.01527
O	 1.1855520115	 3.2982833148	 0.6313661448	-0.242933
H	-0.5439328569	 1.8507507222	-0.7955530461	 0.137241
H	-1.4537214479	 2.6112799613	 1.2237488817	 0.123871
H	-0.8214361912	 1.2141360625	 2.1261840716	 0.1411
H	 0.4570816835	 3.6408893528	 2.5471735379	 0.106226
H	 3.2996769712	 1.6319416634	 1.1765551342	 0.118656
H	 2.1488703242	 0.2646915909	 1.2540977486	 0.138952
H	 1.9292011882	 2.0759369764	-0.885441196	 0.111101
99.7613	158.4666	242.344	351.7946	402.446	503.7383	548.8822	578.7281	647.072	777.4186	802.3314	834.2372	866.9115	893.7589	964.0509	975.4419	981.2324	1027.3099	1048.8202	1054.5384	1072.8198	1097.3489	1174.5707	1195.5064	1220.8303	1262.7135	1298.2103	1303.0792	1319.1181	1336.3891	1354.782	1382.5492	1485.3639	1524.7434	2355.4623	3046.3058	3078.5747	3087.6327	3098.6094	3143.0791	3148.2777	3155.1393
N#CC1CC2OCC1O2	N#C[C@H]1C[C@H]2OC[C@@H]1O2	
InChI=1S/C6H7NO2/c7-2-4-1-6-8-3-5(4)9-6/h4-6H,1,3H2	InChI=1S/C6H7NO2/c7-2-4-1-6-8-3-5(4)9-6/h4-6H,1,3H2/t4-,5+,6+/m1/s1
