14
gdb 129601	2.45324	1.67557	0.99678	3.3706	68.85	-0.2231	-0.0359	0.1872	1090.8075	0.101315	-470.024946	-470.016757	-470.015813	-470.057314	30.83	
N	 0.0294846858	 1.3481337277	-0.1250980235	-0.591458
C	-0.0432037115	-0.0022720531	-0.0395714248	 0.4522
C	-1.1160383472	-0.8778568234	 0.0178181128	-0.06144
C	-2.5250944561	-0.62604988	-0.0002121154	 0.049998
O	-3.3846491839	-1.4962947254	-0.0058104255	-0.324733
C	-0.467855145	-2.1673929564	 0.0332320987	 0.399147
N	-1.1363726101	-3.3451115692	 0.138590387	-0.592905
N	 0.8426244963	-2.0832875977	-0.0228288109	-0.262626
O	 1.1030592852	-0.6605126981	-0.0620916082	-0.223613
H	 0.9302703522	 1.7618782486	 0.0589256506	 0.280128
H	-0.7678633793	 1.8821610866	 0.178172715	 0.278658
H	-2.8235653944	 0.4470803129	-0.0194055972	 0.052898
H	-2.1278117109	-3.2910907066	-0.0471357008	 0.28084
H	-0.6449913213	-4.1874304458	-0.1109177876	 0.262907
136.3049	189.4625	198.84	268.9014	291.3295	362.0747	372.2631	406.1178	424.068	433.0409	535.5154	562.5436	632.8754	678.0909	766.9196	773.3248	801.0791	879.5709	1021.4051	1057.7274	1134.6675	1157.2221	1318.3064	1403.1827	1448.0955	1515.4736	1575.9536	1622.3861	1650.4429	1675.477	1744.564	2857.0237	3563.8032	3597.7038	3703.1405	3713.3853
NC1=C(C=O)C(N)=NO1	Nc1c(C=O)c(N)no1	
InChI=1S/C4H5N3O2/c5-3-2(1-8)4(6)9-7-3/h1H,6H2,(H2,5,7)	InChI=1S/C4H5N3O2/c5-3-2(1-8)4(6)9-7-3/h1H,6H2,(H2,5,7)
