19
gdb 88042	2.37312	1.4029	1.1238	4.9043	80.52	-0.2417	0.0327	0.2744	1170.105	0.159054	-382.0436	-382.03474	-382.033796	-382.077477	32.808	
C	-0.1005462554	 1.299890586	-0.3142495153	-0.322566
N	 0.2596883338	-0.0975153199	-0.1163448332	-0.114274
C	 1.673530571	-0.4240842417	 0.0577718336	-0.319015
C	 0.7099820642	-0.5080442139	 1.1855471261	 0.385891
C	 0.7732716119	 0.2706829231	 2.5084753959	-0.306155
C	 0.643669307	-1.0851094377	 3.2594141608	-0.228332
C	 0.2396497829	-1.7909033441	 1.9163699542	-0.264869
C	-1.1861751191	-2.0547251789	 1.7899459822	 0.291489
N	-2.3230564232	-2.248586805	 1.7062822229	-0.332593
H	 0.5378095457	 2.0064115915	 0.2405115156	 0.102459
H	-0.0272030856	 1.5366030098	-1.3795386761	 0.130909
H	-1.1383132454	 1.4506477819	-0.0025428274	 0.137527
H	 2.0204955947	-1.3188662206	-0.4537415892	 0.120411
H	 2.392910927	 0.394915144	 0.0895436678	 0.110046
H	 1.6723177401	 0.8587836391	 2.7030456515	 0.112446
H	-0.102570599	 0.9096657485	 2.6566489683	 0.124468
H	 1.6001663681	-1.4610524935	 3.6260883429	 0.119732
H	-0.0931955458	-1.135293112	 4.060517694	 0.129621
H	 0.796275667	-2.6995902167	 1.6736808754	 0.122804
62.747	93.9095	186.9623	192.3785	204.9109	248.6583	356.2598	413.6093	417.6187	507.6938	558.3031	614.8447	736.7915	789.395	806.2857	885.2286	902.5561	933.3371	948.5057	1014.0606	1048.0041	1088.3689	1107.054	1113.4591	1136.0535	1152.6315	1178.7123	1200.641	1226.5103	1240.0649	1261.4099	1280.067	1320.0759	1410.3161	1449.3905	1478.8384	1492.2641	1495.0848	1496.0457	1512.8606	2353.5825	2973.199	3059.1735	3077.0855	3078.545	3079.4622	3088.7013	3112.2995	3114.3754	3149.8909	3168.3
CN1CC11CCC1C#N	CN1C[C@]21CC[C@H]2C#N	
InChI=1S/C7H10N2/c1-9-5-7(9)3-2-6(7)4-8/h6H,2-3,5H2,1H3	InChI=1S/C7H10N2/c1-9-5-7(9)3-2-6(7)4-8/h6H,2-3,5H2,1H3/t6-,7+,9?/m0/s1
