14
gdb 29076	2.64869	1.78234	1.13021	1.0363	79.38	-0.2299	-0.0723	0.1576	1011.3815	0.102971	-432.879023	-432.871843	-432.870899	-432.911131	27.126	
O	-0.0890318853	 1.2906245762	-0.3591347877	-0.353192
C	 0.0036514161	-0.0100601997	-0.0710145545	 0.402441
N	 1.1735595357	-0.5442917855	-0.0242121978	-0.358869
C	 1.4490040375	-1.8644557971	 0.1901583482	-0.001483
C	 0.6479705904	-2.9554219406	 0.0458225705	-0.024504
N	-0.6554971385	-3.0093331937	-0.372423336	-0.21298
C	-1.4809851944	-2.0260062552	-0.3620131538	-0.062059
C	-1.3236609932	-0.6485882014	 0.1568168016	 0.183769
N	-2.2652821008	 0.0442118754	 0.6742603082	-0.461961
H	 0.8193904312	 1.5979771879	-0.5042111737	 0.306779
H	 2.4913714347	-2.0514690248	 0.4382534369	 0.117718
H	 1.105674601	-3.9300105493	 0.1901139687	 0.113881
H	-2.4801033005	-2.2257101838	-0.7605941287	 0.122991
H	-3.1225268739	-0.5142528384	 0.731817918	 0.227468
53.1937	171.6167	300.0936	325.2506	374.7347	402.8764	454.7145	523.5434	623.4932	649.9803	682.8597	737.7857	786.2357	846.8948	877.6499	901.3979	955.0932	973.9512	997.6174	1063.3768	1151.6443	1256.9377	1318.9393	1357.6258	1407.324	1452.4069	1470.6908	1551.0833	1634.0579	1660.2774	1675.0902	3082.542	3149.0902	3173.3654	3420.8716	3734.6393
OC1=NC=CN=CC1=N	OC1=NC=CN=C[C]1[NH]	
InChI=1S/C5H5N3O/c6-4-3-7-1-2-8-5(4)9/h1-3H,(H2,6,8,9)	InChI=1S/C5H5N3O/c6-4-3-7-1-2-8-5(4)9/h1-3H,(H2,6,8,9)
