16
gdb 95574	2.56356	1.63354	1.06309	2.004	66.79	-0.2702	-0.0335	0.2368	1076.6568	0.124874	-475.054249	-475.046345	-475.045401	-475.086979	29.564	
O	 0.2085668884	 1.1912924906	 0.410352563	-0.439678
C	 0.0148205865	-0.1154455025	-0.0570270351	 0.020511
C	-1.4802817099	-0.4677718849	-0.1168342335	-0.256029
C	-1.7237178682	-1.972377967	-0.0177106042	-0.162654
N	-1.016066346	-2.8561962042	-0.9183742043	-0.224285
C	-0.0975410424	-2.5994508424	-1.7239723222	 0.13583
O	 0.5654887538	-1.4267676567	-2.1021785632	-0.22131
C	 0.6425919084	-0.2453301456	-1.4365320751	 0.411258
O	 1.2089090069	 0.6751142456	-1.9625713595	-0.323449
H	 0.7410063083	 1.6410422795	-0.263897814	 0.298623
H	 0.5200124189	-0.8355801196	 0.6103298903	 0.103428
H	-1.9614521259	 0.0269304696	 0.7319873962	 0.131429
H	-1.9291891098	-0.0496081185	-1.0249907186	 0.117829
H	-1.4780226321	-2.3151657399	 0.9967146078	 0.132454
H	-2.7915719852	-2.185174506	-0.1429770173	 0.131663
H	 0.3273412182	-3.387246668	-2.3418603903	 0.144381
75.5664	116.3449	224.6355	278.8867	324.8191	370.0025	396.4699	426.6455	465.4863	545.0772	594.1347	682.2698	802.8197	823.2201	862.1094	889.3373	953.469	1000.3509	1060.289	1084.098	1102.4996	1135.771	1172.7677	1199.0753	1278.6493	1292.9511	1343.2756	1383.5517	1393.3579	1439.9393	1455.4309	1472.362	1493.114	1790.1399	1829.4303	2954.6981	3021.5089	3043.5208	3062.6038	3098.4269	3168.9905	3705.4628
OC1CCN=COC1=O	O[C@H]1CCN=COC1=O	
InChI=1S/C5H7NO3/c7-4-1-2-6-3-9-5(4)8/h3-4,7H,1-2H2	InChI=1S/C5H7NO3/c7-4-1-2-6-3-9-5(4)8/h3-4,7H,1-2H2/t4-/m0/s1
