16
gdb 102270	1.9062	1.31077	0.90337	5.051	66.25	-0.2575	0.0118	0.2692	1298.3003	0.12381	-471.247237	-471.23742	-471.236476	-471.283274	34.152	
N	 0.1638952198	 1.4787099633	 0.0244644715	-0.513645
C	 0.0609439384	 0.0250028352	 0.0099240839	-0.170196
C	 0.8497166351	-0.5410096634	 1.1943083471	-0.000956
O	 0.2052160597	-0.0929913067	 2.3941011575	-0.276801
C	 1.0390039996	 0.1367579323	 3.461313722	 0.514114
N	 0.2995236644	 0.5586574637	 4.5227770605	-0.563574
O	 2.2368979551	 0.0126121739	 3.4309916763	-0.381114
C	 0.8773855278	-2.0124789102	 1.1670268689	 0.275243
N	 0.8872736988	-3.166359564	 1.1184030985	-0.316627
H	-0.247984135	 1.8648021944	-0.8180486676	 0.237741
H	-0.3640180335	 1.8497122075	 0.807794881	 0.238478
H	-0.9648633523	-0.3751319468	 0.0537398136	 0.108875
H	 0.5204778936	-0.3566760102	-0.9073697843	 0.131978
H	 1.8748324485	-0.1624276196	 1.1832630459	 0.168328
H	-0.6955001447	 0.412132974	 4.515717784	 0.270683
H	 0.7698468449	 0.5858459164	 5.411138891	 0.277473
27.7084	70.9857	120.9879	141.7955	200.5991	250.1204	274.3652	327.2514	348.5042	439.6068	453.9984	511.5672	543.1855	595.5557	668.558	779.2069	832.0655	856.4354	954.1633	986.038	1068.4505	1069.6815	1115.0947	1133.1031	1207.5737	1264.0368	1335.5897	1349.6783	1390.5199	1430.0067	1497.5133	1612.9831	1653.9109	1853.5956	2363.7866	2975.7381	3081.0756	3100.8203	3510.594	3590.1506	3615.3812	3744.1797
NCC(OC(N)=O)C#N	NC[C@@H](OC(=O)N)C#N	
InChI=1S/C4H7N3O2/c5-1-3(2-6)9-4(7)8/h3H,1,5H2,(H2,7,8)	InChI=1S/C4H7N3O2/c5-1-3(2-6)9-4(7)8/h3H,1,5H2,(H2,7,8)/t3-/m1/s1
