16
gdb 17323	2.7156	2.46528	1.71909	0.7999	63.96	-0.2069	0.0722	0.2791	801.6407	0.129304	-383.647632	-383.640322	-383.639378	-383.678548	28.972	
O	-0.0190581942	 1.4856110444	-0.1523940036	-0.417491
C	-0.1198259087	 0.0960787456	 0.0103056749	 0.006072
C	-0.4849986987	-0.6853657329	 1.2573601032	-0.188401
C	-1.6809320893	-0.1514975734	 2.0907252746	-0.05332
C	-2.3039384742	 1.1312093591	 1.5958619503	-0.305685
C	-2.5693812276	-0.1567164511	 0.8622363136	-0.124021
C	-1.3825533358	-0.6956707751	 0.0101984884	 0.345617
O	-1.5846215618	-1.7545476383	-0.8589083323	-0.45191
H	 0.7440539992	 1.7827619661	 0.3559390114	 0.286473
H	 0.6404634392	-0.4568273901	-0.5488181474	 0.09624
H	 0.1721411353	-1.4621113936	 1.629282245	 0.093989
H	-1.9069123678	-0.5599688188	 3.0669706486	 0.090235
H	-3.1437672057	 1.463668042	 2.2012517787	 0.104953
H	-1.7167334149	 1.9210035224	 1.152024048	 0.138188
H	-3.5526764151	-0.5964748311	 0.7582567029	 0.092233
H	-1.8530731498	-1.3930731951	-1.7121947162	 0.286827
187.3693	208.11	250.8839	277.1673	308.7871	351.6368	407.7627	517.206	585.377	658.5687	695.4997	763.6289	769.0108	849.2373	898.7669	908.5423	941.7267	981.213	1000.841	1029.9841	1063.1542	1081.757	1102.0814	1130.6108	1182.5849	1211.1607	1234.1018	1273.3433	1297.5778	1321.0998	1337.2571	1362.6804	1478.9957	1493.9837	3066.8319	3129.4251	3182.9671	3192.5659	3201.9466	3253.1296	3774.3694	3795.0984
OC1C2C3CC3C12O	O[C@H]1[C@H]2[C@H]3C[C@H]3[C@@]12O	
InChI=1S/C6H8O2/c7-5-4-2-1-3(2)6(4,5)8/h2-5,7-8H,1H2	InChI=1S/C6H8O2/c7-5-4-2-1-3(2)6(4,5)8/h2-5,7-8H,1H2/t2-,3+,4+,5-,6-/m0/s1
