17
gdb 12478	3.48789	1.93276	1.36835	3.5613	66.12	-0.2565	0.0202	0.2767	903.6284	0.1442	-400.997818	-400.990541	-400.989597	-401.029609	27.282	
N	-0.1007324989	 1.2861920272	 0.4210555963	-0.496207
C	-0.0257927601	 0.1121453525	-0.050428401	 0.371242
C	-1.3158707377	-0.6779316984	-0.2223784254	-0.166096
O	-1.3799271516	-1.4431145368	-1.4075725018	-0.23592
C	-0.906583465	-2.7705889926	-1.2699653143	-0.073536
C	 0.5325619825	-2.8300488009	-0.7310649431	-0.249593
C	 1.3450871974	-1.6094911921	-1.1598729296	-0.055271
O	 1.1791204268	-0.4650584323	-0.3081256481	-0.254657
H	 0.8370133252	 1.6786898399	 0.5312677723	 0.218275
H	-1.4693028502	-1.3115922314	 0.6653915023	 0.110786
H	-2.1229727826	 0.055449893	-0.2492630864	 0.145548
H	-1.583117269	-3.3584708106	-0.6302449216	 0.099045
H	-0.9527073941	-3.1911081934	-2.279175748	 0.114935
H	 0.5514796907	-2.8877556321	 0.362703784	 0.119227
H	 1.0194370082	-3.7403644228	-1.0988267966	 0.1119
H	 2.414193864	-1.8223378435	-1.0894454152	 0.117652
H	 1.1167101342	-1.3309670858	-2.1949530036	 0.122668
76.8355	122.5564	268.4256	290.6009	339.6469	379.5718	464.9962	522.1881	569.0047	672.0434	775.352	829.1312	897.3223	917.5542	934.2095	973.2734	1028.8652	1040.368	1054.6572	1128.0074	1148.1869	1180.6927	1249.4528	1267.1716	1294.0495	1321.7821	1338.8193	1375.8989	1382.9765	1409.1806	1434.0484	1473.4786	1482.7284	1501.6075	1506.1164	1735.3369	2983.9679	2987.1984	3042.5084	3043.4394	3071.2272	3092.3554	3105.9737	3124.325	3459.215
N=C1COCCCO1	[NH][C]1COCCCO1	
InChI=1S/C5H9NO2/c6-5-4-7-2-1-3-8-5/h6H,1-4H2	InChI=1S/C5H9NO2/c6-5-4-7-2-1-3-8-5/h6H,1-4H2
