22
gdb 61164	2.89692	0.94288	0.86559	5.0198	82.71	-0.2822	0.0313	0.3134	1449.5462	0.191118	-404.372266	-404.361326	-404.360381	-404.408021	40.434	
C	-0.0156933057	 1.5293043897	-0.0102066471	-0.411699
C	 0.0029792364	-0.0104095725	 0.0604065836	 0.24703
C	 0.7158462997	-0.4488406605	 1.3533100179	-0.432361
C	-1.4485668432	-0.5259293776	 0.0657166836	-0.421604
C	 0.7541263651	-0.5229639582	-1.2050866037	 0.131507
O	 2.0742012308	-0.0147770864	-1.2971432923	-0.428207
C	 0.7603428699	-2.0642201181	-1.3561146918	-0.402521
C	 1.42609983	-2.4951677826	-2.5831149638	 0.278846
N	 1.9405703762	-2.8482649354	-3.5553484738	-0.305195
H	 0.9972356938	 1.9288770107	-0.0929538219	 0.13146
H	-0.5845730723	 1.8745595528	-0.8805658499	 0.112525
H	-0.486371918	 1.9491633594	 0.8845693449	 0.108462
H	 0.193399509	-0.0459650769	 2.226497639	 0.124588
H	 0.7424065355	-1.5375945672	 1.4695446826	 0.112665
H	 1.7433573332	-0.0720006317	 1.395525551	 0.111562
H	-1.9479231405	-0.3209715754	-0.8882425584	 0.117991
H	-1.5115674979	-1.6016990447	 0.2581851056	 0.113204
H	-2.0235813829	-0.024448978	 0.8506893639	 0.119411
H	 0.2413735837	-0.1082590879	-2.0807412974	 0.106637
H	 2.611692403	-0.4207199517	-0.6083666879	 0.285205
H	 1.2706770461	-2.528334508	-0.503477543	 0.143635
H	-0.2611416619	-2.4552788496	-1.363576131	 0.15686
57.7839	70.4235	131.5941	213.5953	233.8829	258.0215	263.0011	291.7394	305.0441	327.4755	354.1824	376.3262	396.6246	408.5454	458.7154	542.7317	562.1225	768.2063	857.6159	907.6753	935.9605	939.2752	950.6504	960.4733	1019.2435	1038.1948	1050.5885	1100.586	1190.1879	1206.9225	1244.3746	1266.7634	1312.6669	1317.9181	1372.7868	1397.9826	1402.5937	1418.2655	1434.6921	1463.2148	1482.269	1484.9308	1491.8676	1507.6688	1511.422	1521.8644	2365.7265	3026.7598	3029.7147	3035.4726	3040.809	3052.2326	3093.5232	3094.9745	3097.7843	3099.1239	3102.4848	3103.8134	3130.967	3809.1783
CC(C)(C)C(O)CC#N	CC(C)(C)[C@@H](O)CC#N	
InChI=1S/C7H13NO/c1-7(2,3)6(9)4-5-8/h6,9H,4H2,1-3H3	InChI=1S/C7H13NO/c1-7(2,3)6(9)4-5-8/h6,9H,4H2,1-3H3/t6-/m0/s1
