14
gdb 129419	5.14035	1.09846	0.90557	5.4807	64.92	-0.243	0.0112	0.2542	1194.9144	0.103671	-466.218415	-466.210821	-466.209877	-466.251103	28.095	
N	-0.1539737099	 1.3024399124	 0.5039730573	-0.559194
C	 0.1481000292	 0.0565504608	 0.0176319982	 0.483968
N	 1.2830396564	-0.4908772902	-0.1574559147	-0.565891
H	 0.9427441739	-2.4460214639	-0.7823966156	 0.303769
H	 2.0468706989	 0.1313030928	 0.0889901892	 0.226919
O	-1.025866485	-0.5918543175	-0.2340887632	-0.252103
C	-1.0760307398	-1.8798754511	-0.6509270694	 0.482279
N	-2.2187742651	-2.4847976625	-0.8783716044	-0.349267
C	-1.8000881641	-3.7237406174	-1.2670951741	 0.031091
N	-0.4915606105	-3.9061806172	-1.2899516353	-0.228453
N	-0.0316686385	-2.6922847642	-0.8848756821	-0.242009
H	 0.5684302298	 2.0007859548	 0.4525631659	 0.266334
H	-1.0928866236	 1.6315527318	 0.3422055925	 0.275987
H	-2.4868311618	-4.5106617786	-1.5398950143	 0.126571
75.0772	79.2436	215.0151	326.2987	379.4866	391.4934	409.6374	450.1171	612.8512	632.9677	715.1845	727.398	749.1123	770.6406	773.5677	906.5252	978.2923	993.5232	1069.8872	1097.7757	1110.6178	1132.1271	1234.5467	1271.3693	1304.2764	1415.0802	1444.7957	1531.9325	1593.8821	1632.3543	1745.2412	3263.6233	3541.9604	3599.4531	3612.7384	3718.3957
NC(=[NH2+])OC1=NC=N[N-]1	NC(=N)Oc1ncn[nH]1	
InChI=1S/C3H4N5O/c4-2(5)9-3-6-1-7-8-3/h1H,(H3-,4,5,6,7,8)/q-1/p+1	InChI=1S/C3H5N5O/c4-2(5)9-3-6-1-7-8-3/h1H,(H3,4,5)(H,6,7,8)
