16
gdb 35120	2.50009	1.53207	1.34272	2.1323	75.65	-0.2456	-0.0168	0.2288	1019.7759	0.124654	-400.699999	-400.691998	-400.691054	-400.732678	30.174	
C	 0.7057352214	-0.5447477896	 1.0738501349	-0.476545
C	 0.2501826366	 0.3622991274	 0.4296626042	 0.358426
C	-0.3140701544	 1.4680244254	-0.3574412231	-0.20985
C	-1.3643484319	 2.2313253372	 0.4460332054	-0.050194
C	-1.0543490435	 3.0954348913	 1.4072641302	-0.080778
C	 0.3763104135	 3.3669732389	 1.7818859649	-0.136335
O	 1.1461284555	 3.9551975806	 0.7145400809	-0.218693
C	 1.2807480394	 3.3050259653	-0.4610976108	 0.150451
N	 0.747655426	 2.2780709044	-0.9700974935	-0.259883
H	 1.1119776542	-1.3489054071	 1.6361556001	 0.199957
H	-0.8337090676	 1.0095246559	-1.2078821405	 0.12155
H	-2.4015365814	 2.0372803101	 0.1881377688	 0.108008
H	-1.8339413579	 3.6272251342	 1.9441873462	 0.106122
H	 0.4484121637	 4.0940854135	 2.5920172126	 0.122781
H	 0.8744543011	 2.4434953948	 2.1019070425	 0.139245
H	 2.0199899452	 3.8439033976	-1.0555800227	 0.125738
68.8314	137.4242	197.8542	219.878	311.9931	355.637	417.261	483.3545	579.8354	597.8381	622.3234	647.6802	699.59	762.7436	765.7114	891.1205	919.1739	957.7981	976.343	990.2313	1020.2073	1036.056	1085.5515	1175.66	1240.062	1291.5114	1319.3562	1348.218	1389.2927	1415.435	1438.5672	1501.4452	1726.2105	1742.7223	2229.3197	3020.9822	3035.1511	3119.6417	3130.1044	3161.1631	3184.8401	3502.4506
C#CC1C=CCOC=N1	C#C[C@H]1C=CCOC=N1	
InChI=1S/C7H7NO/c1-2-7-4-3-5-9-6-8-7/h1,3-4,6-7H,5H2	InChI=1S/C7H7NO/c1-2-7-4-3-5-9-6-8-7/h1,3-4,6-7H,5H2/t7-/m0/s1
