16
gdb 26064	3.32352	1.20294	0.93495	0.8479	74.95	-0.2443	0.0019	0.2462	1215.9558	0.123927	-400.747642	-400.739299	-400.738355	-400.781103	30.709	
C	-0.192713628	 1.4853862085	 0.0694184795	-0.387059
C	 0.0823194879	-0.0344966281	-0.0269352231	-0.284016
C	 0.7924246607	-0.3722603369	-1.2604653093	 0.338295
C	 1.3789752261	-0.6255804448	-2.2784347294	-0.472181
C	 0.8197157536	-0.5301989456	 1.1880639069	 0.265977
C	 2.0387654412	-1.1084295064	 1.3042267722	-0.109584
O	 2.2617909171	-1.3701667888	 2.6296127527	-0.143172
C	 1.1457272956	-0.9278856702	 3.2469979647	 0.069152
N	 0.2561663293	-0.4220452047	 2.458974523	-0.309014
H	 0.7469466452	 2.0438390155	 0.0589582114	 0.127319
H	-0.8030649454	 1.815069938	-0.7748832026	 0.124059
H	-0.7201236158	 1.7009443286	 1.0012046065	 0.141724
H	-0.8920177409	-0.542881098	-0.041843771	 0.127242
H	 1.8869200258	-0.8565358712	-3.1819801417	 0.198401
H	 2.8118693443	-1.3906371592	 0.6127572503	 0.160387
H	 1.1053991632	-1.0398654968	 4.3192210801	 0.15247
54.3699	121.7638	161.8447	204.4145	238.501	325.3832	387.1305	466.2807	536.1851	626.5574	640.8088	647.6882	681.2204	731.8846	786.1873	848.7174	869.1316	937.2353	976.3631	1034.7652	1078.6788	1093.3308	1112.9128	1137.5743	1223.3774	1242.6981	1311.0218	1333.4039	1356.4564	1401.5007	1492.7939	1498.4609	1557.7399	1625.9597	2238.8406	3009.1944	3050.6574	3129.1809	3138.9262	3274.697	3310.7621	3502.9878
CC(C#C)C1=COC=N1	C[C@@H](C#C)c1cocn1	
InChI=1S/C7H7NO/c1-3-6(2)7-4-9-5-8-7/h1,4-6H,2H3	InChI=1S/C7H7NO/c1-3-6(2)7-4-9-5-8-7/h1,4-6H,2H3/t6-/m0/s1
