21
gdb 90654	3.76519	1.00557	0.95968	3.3139	84.86	-0.2458	-0.0141	0.2317	1330.9049	0.181233	-387.082307	-387.073084	-387.072139	-387.116049	34.906	
C	-0.01624483	 1.5137481918	-0.0631181514	-0.410629
C	 0.0249862106	-0.0076035799	 0.0227146805	 0.011108
C	 1.1072688033	-0.6759468713	-0.8910473558	-0.268193
C	 1.8341195448	-1.1759229102	 0.3627791783	-0.092692
C	 0.7840193513	-0.5385682017	 1.2525770646	-0.094225
C	 0.925414015	-2.0581398068	 1.2166370952	 0.216721
C	-0.1133996367	-3.0177738559	 0.6793077501	-0.475525
C	 1.64804546	-2.5492765144	 2.4219672427	 0.124581
O	 1.4501229075	-3.6114247118	 2.9593567163	-0.277416
H	 0.9828447769	 1.9445436767	 0.0681908669	 0.116841
H	-0.3985545513	 1.8394981796	-1.0363116942	 0.117994
H	-0.666065423	 1.9352418305	 0.7115852078	 0.11797
H	-0.9879202552	-0.4071014221	-0.0921409297	 0.075973
H	 0.7744707664	-1.4361074206	-1.6033859392	 0.103582
H	 1.6911795597	 0.0735242883	-1.4313936446	 0.108324
H	 2.910444238	-1.2098110202	 0.48899071	 0.092738
H	 0.9108551845	 0.0102136905	 2.1801909509	 0.089718
H	-0.6100031908	-2.6410257875	-0.2161292994	 0.11649
H	 0.3508045532	-3.9775996596	 0.4350915923	 0.13197
H	-0.8772298733	-3.2133649496	 1.4376284099	 0.131747
H	 2.417364329	-1.8423011759	 2.8144938487	 0.062923
98.9722	108.8895	148.0977	207.1628	250.477	281.1307	290.6623	299.4601	396.4698	407.3174	470.0905	583.903	711.0753	749.6454	818.9318	840.8242	873.5833	899.0136	935.2159	956.5435	995.9534	1021.7625	1042.5617	1052.5735	1073.6113	1106.0929	1112.4864	1127.551	1167.4643	1207.478	1251.9291	1253.8942	1288.844	1316.4644	1358.7705	1385.5538	1411.1304	1418.8895	1444.7189	1480.2413	1491.7687	1494.7939	1498.47	1501.6533	1817.1479	2847.0419	3025.8989	3045.5096	3050.7805	3057.451	3094.3079	3098.5504	3107.2314	3111.8725	3133.3363	3158.7191	3172.2159
CC1CC2C1C2(C)C=O	C[C@H]1C[C@H]2[C@@H]1[C@]2(C)C=O	
InChI=1S/C8H12O/c1-5-3-6-7(5)8(6,2)4-9/h4-7H,3H2,1-2H3	InChI=1S/C8H12O/c1-5-3-6-7(5)8(6,2)4-9/h4-7H,3H2,1-2H3/t5-,6-,7+,8+/m0/s1
