17
gdb 53893	1.86812	1.44861	1.08223	2.9413	75.74	-0.2449	-0.0338	0.2111	1209.0805	0.130301	-421.830072	-421.819558	-421.818614	-421.866968	36.237	
C	 1.012595868	 0.6596607678	-0.5642873511	-0.478013
C	 0.2566440664	-0.2020558668	 0.4204471373	 0.386932
O	 0.7894827722	-0.8275845618	 1.3009244765	-0.288358
C	-1.2914957465	-0.2320807392	 0.2151561524	-0.35473
C	-1.5964107889	-1.2058806803	-0.822880135	 0.322162
C	-1.8234343646	-2.0132782369	-1.68481716	-0.464514
C	-2.0140923385	-0.4789898781	 1.5688306955	 0.401118
C	-2.0597755668	-1.8917044072	 2.0894109174	-0.491286
O	-2.4758793017	 0.4694076783	 2.1524531707	-0.299484
H	 2.0857059529	 0.5049878996	-0.4486701707	 0.149834
H	 0.7005837072	 0.4313179773	-1.5881079151	 0.155666
H	 0.7732246678	 1.7137385193	-0.3801280517	 0.155289
H	-1.607097895	 0.7653648279	-0.1104256955	 0.133678
H	-2.0397344216	-2.7254835569	-2.4426900191	 0.208677
H	-2.5407425672	-2.550601121	 1.360448594	 0.150656
H	-1.0321230684	-2.2457547687	 2.220051383	 0.172944
H	-2.596169225	-1.9170675131	 3.0381917116	 0.139432
24.3792	57.1427	122.7006	140.3248	152.2055	161.7715	184.1585	306.0608	353.4035	399.6435	448.1244	509.1964	556.7391	596.826	620.1239	630.2106	648.9957	783.6982	834.0531	945.5117	980.6205	1019.8079	1048.9682	1074.0763	1161.5329	1202.5498	1267.1191	1275.6327	1378.1378	1380.2926	1461.4403	1462.722	1472.099	1473.6687	1816.2273	1829.1267	2227.8299	3039.2425	3050.2809	3053.6468	3105.9458	3119.765	3157.7678	3160.7729	3500.79
CC(=O)C(C#C)C(C)=O	CC(=O)C(C#C)C(=O)C	
InChI=1S/C7H8O2/c1-4-7(5(2)8)6(3)9/h1,7H,2-3H3	InChI=1S/C7H8O2/c1-4-7(5(2)8)6(3)9/h1,7H,2-3H3
