21
gdb 122318	4.92211	0.68069	0.65787	2.7365	79.57	-0.2448	0.0775	0.3223	1753.3446	0.18122	-424.186376	-424.176817	-424.175873	-424.221761	34.872	
O	-0.0535336918	 1.4348377489	-0.333394503	-0.421184
C	 0.0504176457	 0.0361897912	-0.1170708971	-0.076499
C	-1.3596144646	-0.5323982152	-0.0400190851	-0.163112
C	-1.3738287308	-2.0454989183	 0.2223455154	-0.335263
C	-2.7625400164	-2.6001199642	 0.2855864717	 0.4509
C	-3.8397368961	-2.3859805821	 1.3700427629	-0.287938
C	-4.440643314	-3.7839755873	 0.9856886687	-0.236576
C	-3.3409666265	-3.9077041258	-0.0766650519	-0.05294
O	-3.4748338459	-2.777844501	-0.9512022062	-0.293817
H	 0.834886916	 1.7956100083	-0.404151849	 0.285115
H	 0.6045494721	-0.4547990556	-0.9342306665	 0.085194
H	 0.5923749758	-0.1832597382	 0.8185261046	 0.080853
H	-1.9028327333	-0.0059501244	 0.7538047104	 0.10898
H	-1.8822081029	-0.3164504928	-0.9780642482	 0.124788
H	-0.8275491285	-2.5699225686	-0.5708007062	 0.108444
H	-0.8589609686	-2.2648331479	 1.1674368641	 0.099243
H	-3.4337934668	-2.3700751841	 2.3847715112	 0.102843
H	-4.4809919768	-1.5145787626	 1.2197884204	 0.110005
H	-4.3500068516	-4.5160408817	 1.791810385	 0.103395
H	-5.4612476256	-3.7931978939	 0.5961750358	 0.110973
H	-2.8827061294	-4.7986786447	-0.492620337	 0.096597
53.614	77.4956	94.328	132.7616	225.215	261.6606	269.7962	323.6157	357.4635	485.2505	496.2938	702.4057	727.391	759.2962	774.1595	852.0582	883.5161	920.3219	931.2259	956.2973	996.4192	1017.5024	1032.6818	1054.8446	1079.5621	1096.5315	1156.3452	1185.3978	1210.6058	1215.8825	1226.3009	1234.6593	1261.486	1277.1233	1305.5756	1311.8201	1326.6413	1377.0698	1452.4992	1463.5634	1464.298	1473.8552	1494.1111	1500.2123	1528.4637	2953.0817	2978.8381	3016.2055	3039.9679	3059.2424	3061.8949	3069.4806	3090.9324	3113.2049	3129.4665	3175.3884	3831.182
OCCCC12CCC1O2	OCCC[C@]12CC[C@H]1O2	
InChI=1S/C7H12O2/c8-5-1-3-7-4-2-6(7)9-7/h6,8H,1-5H2	InChI=1S/C7H12O2/c8-5-1-3-7-4-2-6(7)9-7/h6,8H,1-5H2/t6-,7+/m1/s1
