23
gdb 116501	2.96398	1.08515	0.85895	1.6753	82.46	-0.2422	0.0809	0.323	1425.1774	0.206802	-425.419456	-425.41009	-425.409146	-425.453879	35.218	
C	 0.3877686661	 1.4753597309	-0.0555730901	-0.389188
C	 0.0525439388	-0.010467208	-0.2267330506	-0.186653
C	-1.3966327199	-0.388790341	 0.1392017167	 0.014738
C	-2.3985961856	 0.1031849081	-0.9202195827	-0.093403
O	-3.7325851443	 0.0796485635	-0.4486380362	-0.246462
C	-4.4581191707	-1.124621776	-0.5956923312	-0.058769
C	-3.646689679	-2.4166863124	-0.4392385145	-0.107933
O	-2.7737707573	-2.4020240207	 0.6692921769	-0.239058
C	-1.4813498317	-1.9046495019	 0.3729427272	-0.09572
H	 1.4356061596	 1.6695287173	-0.3050396465	 0.114168
H	-0.2239875792	 2.1150191102	-0.6991323733	 0.121494
H	 0.2262632697	 1.7970593924	 0.9788586426	 0.1201
H	 0.2568868434	-0.3187631891	-1.2616527358	 0.094862
H	 0.7380531243	-0.5982647066	 0.397338467	 0.097086
H	-1.6719599883	 0.1116759107	 1.0768186096	 0.086427
H	-2.1936875613	 1.1514777554	-1.1589040637	 0.105286
H	-2.2837900778	-0.4648215187	-1.8576063544	 0.08491
H	-5.2358947209	-1.084588695	 0.1743762744	 0.1128
H	-4.9634955627	-1.1638989686	-1.5769856953	 0.082331
H	-4.3552791748	-3.2415797731	-0.2938838618	 0.104903
H	-3.0829524764	-2.6363650749	-1.3590463411	 0.090456
H	-1.0749578834	-2.4321295531	-0.5089932167	 0.081447
H	-0.8570347584	-2.1757031493	 1.2309175295	 0.106177
65.6095	90.276	154.3671	193.5919	229.2954	259.8015	322.0623	339.0497	387.0338	418.4478	458.5831	546.267	605.556	767.6033	839.2118	854.1533	885.0338	905.3475	934.9367	969.0518	1009.8498	1022.5507	1046.412	1108.1934	1120.5794	1150.8749	1169.3909	1171.3229	1207.6027	1267.0342	1271.7349	1287.0005	1308.2704	1319.7925	1341.4705	1365.1923	1378.529	1398.054	1413.9828	1415.5687	1421.7958	1429.0988	1482.689	1486.6858	1495.1512	1498.0139	1501.9959	1506.2062	1511.9355	2943.0278	2951.1476	2971.448	2990.304	3008.8845	3028.4099	3035.5602	3042.605	3046.7824	3069.7957	3070.4438	3075.8818	3102.4105	3106.55
CCC1COCCOC1	CCC1COCCOC1	
InChI=1S/C7H14O2/c1-2-7-5-8-3-4-9-6-7/h7H,2-6H2,1H3	InChI=1S/C7H14O2/c1-2-7-5-8-3-4-9-6-7/h7H,2-6H2,1H3
