16
gdb 10906	3.25525	2.01365	1.43254	2.7236	65.45	-0.2371	-0.0244	0.2127	896.4736	0.128219	-383.726727	-383.718713	-383.717769	-383.75892	29.171	
C	-0.003166552	 1.6309522557	-0.0696037903	-0.411258
C	 0.0189861565	 0.108931419	-0.0438452415	-0.135988
C	 0.7457344719	-0.6438655086	-1.1733388822	-0.052775
O	 2.1129965693	-0.2452111717	-1.1048645965	-0.276036
C	 1.6836577434	-1.342867647	-0.2542291823	 0.283263
C	 2.4221018345	-2.6367336589	-0.3103462038	-0.514367
C	 1.0074432669	-0.6283379111	 0.9195831883	 0.375879
O	 1.0970843458	-0.7076302233	 2.1086127214	-0.302581
H	 0.9819064919	 2.0202903974	-0.3380176659	 0.139129
H	-0.7352070824	 2.0058132792	-0.7921246388	 0.119033
H	-0.2711533329	 2.0223639566	 0.9163545001	 0.134881
H	-0.9818266237	-0.3038395814	 0.1396246649	 0.102504
H	 0.364009971	-0.9894637641	-2.1270633757	 0.113884
H	 2.6267505676	-2.9165423749	-1.3469802561	 0.138779
H	 3.3758050104	-2.5566097821	 0.2208548785	 0.14785
H	 1.8389400617	-3.4314342346	 0.1647056401	 0.137802
106.1574	167.5344	193.4261	202.7242	211.8904	267.8942	326.272	496.2331	537.823	628.4472	670.0028	749.8034	770.6794	832.8444	892.6236	919.1796	982.4091	1019.9582	1063.4919	1066.2314	1097.16	1140.0857	1201.157	1240.5518	1258.8733	1342.8381	1397.0563	1405.0528	1450.9922	1479.0091	1488.8045	1494.1375	1503.2015	1894.6059	3034.5195	3041.5894	3043.121	3107.1855	3109.996	3125.6994	3128.5406	3191.898
CC1C2OC2(C)C1=O	C[C@H]1[C@H]2O[C@@]2(C)C1=O	
InChI=1S/C6H8O2/c1-3-4(7)6(2)5(3)8-6/h3,5H,1-2H3	InChI=1S/C6H8O2/c1-3-4(7)6(2)5(3)8-6/h3,5H,1-2H3/t3-,5-,6+/m1/s1
