17
gdb 25743	2.61962	1.53592	0.97995	4.6549	77.96	-0.2306	-0.026	0.2046	1173.5779	0.136122	-418.085632	-418.076773	-418.075829	-418.119675	31.72	
C	 0.0050334964	 1.5305127062	-0.0807394089	-0.471679
C	 0.003347962	 0.0197648222	 0.042718276	 0.304333
O	 0.002162951	-0.5332726658	 1.1301900002	-0.333909
C	 0.0028375741	-0.7432239308	-1.2179923871	 0.11137
C	 0.0016837753	-2.1204198686	-1.3725137967	 0.246187
C	 0.0016400368	-3.2461862936	-0.3961721643	-0.519974
N	 0.0015653678	-2.3108267746	-2.7308819299	-0.292065
C	 0.0021008985	-1.0792585372	-3.3348021266	-0.00083
N	 0.0028853668	-0.1165234341	-2.4550782393	-0.312338
H	 0.8843381322	 1.8653446938	-0.6396832935	 0.144535
H	-0.8653631721	 1.8674592394	-0.6519591182	 0.14469
H	-0.0007601871	 1.9704387356	 0.9170035213	 0.12645
H	-0.87805689	-3.8885226973	-0.5240749338	 0.130285
H	 0.8906615991	-3.8779702667	-0.5120461319	 0.130848
H	-0.0069531295	-2.8338512019	 0.6119008228	 0.188319
H	 0.0008048604	-3.2042593333	-3.1964404112	 0.267934
H	 0.0018104984	-0.9663138135	-4.408901039	 0.135843
69.0668	102.7201	118.1284	181.6623	198.4653	266.4784	302.3499	410.8225	493.8795	567.3829	576.1748	640.2822	669.8989	692.4704	743.0333	815.0942	935.9129	962.6676	997.8223	1044.224	1069.104	1087.1437	1114.8778	1199.4899	1270.2694	1326.4992	1378.3759	1383.7239	1408.6392	1436.1478	1456.3969	1466.7153	1482.5347	1501.2259	1541.823	1602.5822	1759.3743	3024.1485	3049.2602	3072.1337	3112.2325	3156.7493	3165.1954	3248.6831	3648.9971
CC(=O)C1=C(C)NC=N1	CC(=O)c1c(C)[nH]cn1	
InChI=1S/C6H8N2O/c1-4-6(5(2)9)8-3-7-4/h3H,1-2H3,(H,7,8)	InChI=1S/C6H8N2O/c1-4-6(5(2)9)8-3-7-4/h3H,1-2H3,(H,7,8)
