14
gdb 131439	3.47218	1.5888	1.09738	2.637	70.55	-0.225	-0.0356	0.1895	1014.6561	0.10294	-436.685258	-436.678699	-436.677755	-436.716091	26.048	
O	 0.0915534423	 1.3657906696	 0.0680590334	-0.419771
C	 0.0733015079	 0.0234997297	 0.0677585414	 0.300637
N	 0.0765126899	-0.6536570519	-1.068538112	-0.270498
O	 0.0538849593	-2.022412068	-0.702898552	-0.242467
C	 0.0388002523	-2.0650751677	 0.6282542536	 0.417238
C	 0.049444027	-0.8258291911	 1.1949892185	 0.084927
C	 0.0309482379	-0.9822109056	 2.6839227124	-0.429434
C	 0.0086500581	-2.4996215906	 2.8265382074	-0.068455
C	 0.0135455531	-3.1192218601	 1.6259366092	-0.209354
H	 0.1055751024	 1.6553987892	-0.8545713236	 0.310792
H	 0.9095602712	-0.5515852598	 3.181194288	 0.143331
H	-0.8463104074	-0.5276172329	 3.161870516	 0.143327
H	-0.0086934463	-2.9923029181	 3.7901014922	 0.114908
H	 0.0011902223	-4.1826068726	 1.4355107555	 0.124819
171.0965	232.2284	278.3397	359.0696	443.1079	476.0876	535.1045	622.6452	653.7691	662.6237	692.7693	764.0032	799.364	861.8238	923.5633	930.8488	937.8004	946.2619	1069.4729	1128.9143	1137.0649	1201.3954	1236.0331	1311.596	1317.4063	1418.685	1432.9593	1502.3791	1568.69	1580.3769	1653.599	3034.3482	3061.9348	3218.8125	3247.4467	3773.7969
OC1=NOC2=C1CC=C2	Oc1noc2c1CC=C2	
InChI=1S/C6H5NO2/c8-6-4-2-1-3-5(4)9-7-6/h1,3H,2H2,(H,7,8)	InChI=1S/C6H5NO2/c8-6-4-2-1-3-5(4)9-7-6/h1,3H,2H2,(H,7,8)
