17
gdb 128321	6.29833	0.85951	0.76681	2.4484	72.2	-0.1968	0.0285	0.2252	1459.2538	0.137285	-451.345104	-451.335824	-451.33488	-451.379929	32.361	
C	-0.0836730112	 1.4014568773	 0.1282836304	-0.315872
N	-0.0559709696	-0.0257329878	-0.1335881434	-0.372241
C	-1.2237351565	-0.7430741534	-0.0565061413	 0.419615
N	-2.4280616854	-0.1809704299	-0.0846698704	-0.31376
N	-3.2371913124	-1.284015798	-0.0503657402	-0.227417
C	-2.5045806498	-2.4031927041	 0.0181082254	 0.37685
C	-3.1118543203	-3.7677172229	 0.0653737044	-0.193987
O	-4.5100990466	-3.6069836021	 0.2514537827	-0.427413
N	-1.2159306519	-2.1109736157	 0.0163076825	-0.403761
H	 0.91943773	 1.8081208781	-0.0199856157	 0.117079
H	-0.7624696804	 1.887257534	-0.5772394639	 0.148385
H	-0.424988618	 1.6521494958	 1.1436962216	 0.114869
H	 0.7335035591	-0.5326685298	 0.2355314904	 0.245512
H	-4.2390002664	-1.2005648723	-0.0349787838	 0.282216
H	-2.8844196336	-4.297521422	-0.8720080234	 0.123842
H	-2.6470885922	-4.338538144	 0.8823435423	 0.126099
H	-4.9331106248	-4.4616562132	 0.1351940423	 0.299984
43.8063	94.224	136.3308	157.4477	190.6675	235.4678	247.9637	364.3461	372.0783	499.1178	527.4432	592.1241	678.4758	702.7153	772.1938	778.3717	995.6744	1039.1438	1058.6957	1092.3462	1100.1625	1156.014	1161.896	1189.3428	1206.2836	1231.131	1282.1566	1353.3043	1427.8186	1452.6192	1477.717	1481.2993	1507.7126	1514.6901	1536.4395	1600.8553	1620.5099	2988.5064	2994.3473	3017.5985	3085.9695	3128.455	3626.4127	3690.0511	3851.0526
CNC1=NNC(CO)=N1	CNc1n[nH]c(CO)n1	
InChI=1S/C4H8N4O/c1-5-4-6-3(2-9)7-8-4/h9H,2H2,1H3,(H2,5,6,7,8)	InChI=1S/C4H8N4O/c1-5-4-6-3(2-9)7-8-4/h9H,2H2,1H3,(H2,5,6,7,8)
