25
gdb 114992	3.07932	0.98751	0.79425	0.2593	95.1	-0.2348	0.0303	0.2651	1558.9708	0.229966	-352.388693	-352.378961	-352.378017	-352.423057	37.681	
C	-0.0677273288	 1.562194739	 0.1261292277	-0.390488
C	-0.0137434622	 0.0363403006	-0.00375977	-0.182883
C	 0.7290910973	-0.4772589651	-1.2469104993	 0.026469
C	 2.209719376	-0.055825483	-1.2742160786	-0.244677
C	 3.003015667	-0.7944738601	-2.320959507	-0.083829
C	 2.5604342932	-1.876583603	-2.9591513279	-0.030061
C	 1.2276966681	-2.5310496466	-2.6837317644	-0.028605
C	 1.3493157318	-4.0626866917	-2.678232474	-0.399516
C	 0.6275685632	-2.0054450248	-1.3697487562	-0.198584
H	 0.9285781631	 1.9982394198	 0.2486945924	 0.118017
H	-0.5219885006	 2.0181728254	-0.7610426326	 0.112379
H	-0.6641675559	 1.8606426626	 0.994043772	 0.110366
H	 0.453898225	-0.3920164669	 0.8939514374	 0.090658
H	-1.0388225509	-0.3560746325	-0.0256498545	 0.089259
H	 0.2445421221	-0.0399162357	-2.1334499131	 0.067498
H	 2.297074777	 1.0233485485	-1.4510885734	 0.102013
H	 2.6611291123	-0.223841583	-0.2829495981	 0.100414
H	 3.986986383	-0.3957224831	-2.5591093217	 0.079921
H	 3.1816071296	-2.3429116037	-3.7221721594	 0.075978
H	 0.5417542576	-2.2642189749	-3.5042981473	 0.077719
H	 2.0333301862	-4.3973409605	-1.8903969035	 0.115659
H	 0.3759776915	-4.5331818773	-2.5027148292	 0.109136
H	 1.7339742042	-4.4338214317	-3.6342177416	 0.109075
H	 1.1598622908	-2.4674880205	-0.5254466014	 0.089543
H	-0.4193593707	-2.3227848517	-1.2878415662	 0.084538
80.058	110.1462	137.2954	197.7681	240.1203	253.7088	287.258	314.4793	382.0501	427.7759	447.5865	482.1698	541.7896	688.8161	734.1067	775.224	831.3405	870.5258	904.9562	926.5195	934.2761	979.402	1001.5298	1007.3128	1037.3059	1051.4553	1068.6464	1107.7018	1129.537	1139.0629	1162.7746	1191.8148	1233.7456	1265.2363	1285.5926	1306.4814	1330.9367	1334.3427	1355.5318	1375.1015	1383.9786	1397.4301	1403.5908	1410.696	1424.4348	1473.8345	1483.0708	1492.6482	1497.7841	1500.7129	1501.2919	1508.2907	1724.2218	2964.8599	2976.8057	2987.5399	3002.6418	3011.0966	3026.1173	3030.9152	3037.7597	3042.1608	3052.7352	3095.8671	3096.6306	3097.2222	3104.4223	3128.8433	3154.5047
CCC1CC=CC(C)C1	CC[C@H]1CC=C[C@@H](C)C1	
InChI=1S/C9H16/c1-3-9-6-4-5-8(2)7-9/h4-5,8-9H,3,6-7H2,1-2H3	InChI=1S/C9H16/c1-3-9-6-4-5-8(2)7-9/h4-5,8-9H,3,6-7H2,1-2H3/t8-,9+/m1/s1
