21
gdb 66381	2.67707	1.19094	1.17676	1.4343	78.28	-0.2461	-0.0249	0.2212	1192.4819	0.182507	-424.245761	-424.236761	-424.235817	-424.279647	34.172	
C	 0.0394120565	 1.5511763624	 0.0103712009	-0.425381
C	-0.0496399867	 0.0215822382	 0.0026880896	 0.149645
C	 0.6424299476	-0.5574032831	-1.2650474623	-0.23494
C	 0.9035615871	-2.0651917799	-1.185466701	-0.092357
O	 1.6306168789	-2.4096440409	-0.020433334	-0.238325
C	 0.9174898831	-2.07779824	 1.1568056022	-0.092347
C	 0.6575791405	-0.5709824075	 1.2557520299	-0.23492
C	-1.5147621788	-0.3983526092	 0.009285145	 0.145178
O	-2.4474922985	 0.3652749421	 0.0194664842	-0.254831
H	 1.0863378553	 1.8696350133	 0.0060113872	 0.108647
H	-0.4573990218	 1.9780895992	-0.8651332126	 0.12486
H	-0.4472403671	 1.9686965957	 0.8960429413	 0.12489
H	 0.0557810989	-0.3252650489	-2.1622955967	 0.106076
H	 1.6078730987	-0.0496488711	-1.375192446	 0.112089
H	-0.0407040863	-2.6337158509	-1.2223287032	 0.091257
H	 1.5122714758	-2.3882798361	-2.0350197744	 0.112466
H	-0.0263510137	-2.6466713495	 1.1987518316	 0.091254
H	 1.5362023305	-2.410058325	 1.9955295412	 0.112462
H	 1.6243714505	-0.0644784583	 1.3596722521	 0.112089
H	 0.0818249329	-0.3484301966	 2.1624330098	 0.106087
H	-1.6990538935	-1.4955315738	 0.0040185352	 0.076099
43.2949	132.8255	221.4104	225.4469	261.5207	269.2186	332.8481	363.9553	386.8718	413.512	480.6804	578.7763	607.891	747.3784	806.6526	851.4048	868.7513	907.1308	990.7009	1004.5417	1016.5241	1019.2663	1037.7041	1074.1128	1133.6293	1149.3302	1205.9091	1218.8825	1222.8644	1274.3792	1314.7306	1329.8152	1348.3251	1386.7757	1387.8747	1411.1412	1423.5635	1442.6173	1467.2075	1479.9105	1489.0576	1493.8584	1497.1791	1511.6507	1821.332	2878.8224	2964.9922	2972.644	3026.7563	3028.3345	3042.5883	3070.2392	3071.347	3083.0504	3085.4354	3115.0921	3119.4643
CC1(CCOCC1)C=O	CC1(CCOCC1)C=O	
InChI=1S/C7H12O2/c1-7(6-8)2-4-9-5-3-7/h6H,2-5H2,1H3	InChI=1S/C7H12O2/c1-7(6-8)2-4-9-5-3-7/h6H,2-5H2,1H3
