16
gdb 43017	2.35873	2.01563	1.37359	3.8275	69.12	-0.2391	-0.0337	0.2054	943.0626	0.126109	-437.862369	-437.855448	-437.854504	-437.893658	27.3	
O	-0.0211434567	-0.0590528822	-0.0221813121	-0.326432
C	-0.0415535598	 1.1514910236	-0.0922595614	 0.438746
C	-1.3301282647	 1.9017682056	-0.2115271016	-0.161854
N	-1.4893824005	 3.1845583007	 0.5179307168	-0.313893
C	-1.3470215627	 3.2178798566	-0.9322612304	-0.032181
C	-0.0688670839	 3.8081011962	-1.5017132327	-0.257574
C	 1.2173951701	 3.2229970149	-0.9547279251	 0.051017
O	 1.3819041004	 3.1737850346	 0.450246103	-0.220999
C	 1.2385244707	 1.9247509458	-0.2355831362	-0.080563
H	-2.1898785879	 1.2436178284	-0.297900468	 0.104432
H	-2.4673822763	 3.2842877932	 0.7791370772	 0.24159
H	-2.2375975805	 3.4250737481	-1.5226665232	 0.098784
H	-0.0677856632	 3.6576701417	-2.5887652063	 0.116137
H	-0.0639245767	 4.8928130093	-1.3347061172	 0.128943
H	 2.119525844	 3.5021407631	-1.5014858306	 0.103573
H	 2.1266543378	 1.2959367004	-0.2567754421	 0.110274
111.0474	231.9695	247.0667	342.3588	385.2497	432.8656	461.561	540.4274	630.9015	744.0418	795.31	803.8583	840.9739	876.0519	900.7055	924.195	959.7491	985.0984	1037.2998	1047.3835	1102.2312	1139.3599	1168.3893	1184.1294	1245.0538	1250.8646	1276.6203	1290.0859	1360.6586	1379.3086	1395.7574	1427.8071	1464.1315	1474.1494	1790.932	3025.7608	3063.1365	3098.5339	3123.3045	3139.9261	3158.6435	3498.7268
O=C1C2NC2CC2OC12	O=C1[C@H]2N[C@H]2C[C@H]2O[C@@H]12	
InChI=1S/C6H7NO2/c8-5-4-2(7-4)1-3-6(5)9-3/h2-4,6-7H,1H2	InChI=1S/C6H7NO2/c8-5-4-2(7-4)1-3-6(5)9-3/h2-4,6-7H,1H2/t2-,3+,4-,6+/m0/s1
