18
gdb 118813	2.29745	1.03281	0.80893	4.4125	73.3	-0.2716	0.023	0.2945	1418.1736	0.145623	-439.076194	-439.06637	-439.065426	-439.111344	35.353	
O	 0.1198253252	 1.3900946116	 0.1850726657	-0.413904
C	 0.0366332255	-0.0207412938	 0.2434048347	-0.066346
C	-1.3340010034	-0.5489226891	-0.1961621933	-0.272169
C	-1.4425930761	-2.0562903025	-0.0927819629	 0.398366
O	-0.5995753128	-2.774989032	-0.9533074834	-0.467998
C	-1.8075850664	-2.713663259	 1.2083916431	-0.341771
C	-2.7999286262	-2.7246152892	 0.0445808865	-0.226422
C	-4.0048623489	-1.9499929186	 0.1155863128	 0.296141
N	-4.973106901	-1.3188716244	 0.1725021416	-0.344257
H	-0.0033146146	 1.658409826	-0.7313508319	 0.285669
H	 0.831289954	-0.4914274617	-0.3587642836	 0.081536
H	 0.2216395106	-0.285582574	 1.2905639952	 0.115834
H	-2.1087577381	-0.0710411078	 0.4107501679	 0.132196
H	-1.5173456672	-0.2619989512	-1.2399914933	 0.109666
H	 0.2894024073	-2.7676600396	-0.581966633	 0.291938
H	-1.3473220318	-3.6660593634	 1.4438582669	 0.131658
H	-2.0481412823	-2.0861186146	 2.0587609197	 0.142916
H	-2.890701294	-3.6620560368	-0.4925014029	 0.146949
80.7701	87.5315	101.971	152.6249	197.353	250.5969	300.3887	328.2493	350.2079	380.2884	443.3426	457.8353	551.5181	617.0358	747.5633	790.0076	818.0265	894.4134	934.0139	953.037	1020.1442	1032.5524	1071.3556	1082.2963	1094.3461	1116.6987	1161.9878	1248.6234	1278.3942	1315.4551	1326.7099	1345.4857	1396.4585	1407.3795	1423.7237	1474.7877	1479.728	1515.0679	2352.9547	2965.1062	3028.2145	3064.5901	3098.8127	3143.6587	3182.1177	3240.0025	3803.6638	3814.2001
OCCC1(O)CC1C#N	OCC[C@@]1(O)C[C@H]1C#N	
InChI=1S/C6H9NO2/c7-4-5-3-6(5,9)1-2-8/h5,8-9H,1-3H2	InChI=1S/C6H9NO2/c7-4-5-3-6(5,9)1-2-8/h5,8-9H,1-3H2/t5-,6+/m0/s1
