21
gdb 109432	2.12986	1.33569	1.02366	2.9787	79.11	-0.2348	-0.0165	0.2182	1279.3672	0.179337	-424.24429	-424.234229	-424.233285	-424.279063	37.671	
C	-0.1478653769	 1.5850309356	 0.0538216605	-0.388865
C	-0.006056293	 0.0657687267	-0.0988267324	-0.211946
C	 0.6245382686	-0.5790620079	 1.1306427314	-0.104494
C	-0.1689155119	-0.6710092495	 2.4390879268	 0.39329
O	-1.0009671895	 0.0235862108	 2.9529025697	-0.306291
C	 0.3815802033	-2.0696957388	 2.7436507915	-0.401984
C	 0.8683535021	-2.1220376474	 1.2515338941	 0.357879
C	-0.0119115678	-2.9924477251	 0.3612246503	-0.446833
O	 2.2407793564	-2.4081845263	 1.0601768256	-0.478545
H	 0.830910855	 2.061527326	 0.1781182682	 0.113363
H	-0.6239475609	 2.0248831456	-0.8277381476	 0.110116
H	-0.7541036956	 1.8278259094	 0.9305393167	 0.147491
H	-0.9938767702	-0.3743157275	-0.2796269001	 0.100289
H	 0.6064906197	-0.169013021	-0.9783259478	 0.105522
H	 1.5884136053	-0.1016173174	 1.3565200961	 0.114241
H	 1.2325966435	-2.0245867704	 3.4305375098	 0.132296
H	-0.3340532317	-2.8179905992	 3.0937533231	 0.119374
H	-1.073864017	-2.7612021174	 0.4896863618	 0.127764
H	 0.2473396198	-2.8555771208	-0.6923714221	 0.130767
H	 0.123134024	-4.0513895448	 0.614272901	 0.10909
H	 2.3639931168	-3.3614061805	 1.1272843532	 0.277476
65.0844	97.0548	149.6487	181.1661	262.0131	262.1729	285.3561	298.3356	319.4349	358.3559	404.4387	427.7555	505.1917	594.0108	625.1851	738.1099	777.6883	797.9982	854.6617	891.5234	957.2798	976.2006	994.053	1033.4651	1070.9088	1092.1422	1119.3731	1153.5147	1171.1245	1192.0492	1219.6246	1265.4074	1297.4855	1333.6006	1364.3097	1378.09	1410.9305	1413.6616	1433.8815	1487.0644	1490.8621	1497.8893	1499.8492	1513.3928	1879.22	3020.1361	3024.6044	3026.6428	3036.2193	3056.2702	3060.6747	3091.7159	3102.0087	3115.9367	3119.4318	3124.8155	3800.6924
CCC1C(=O)CC1(C)O	CC[C@H]1C(=O)C[C@]1(C)O	
InChI=1S/C7H12O2/c1-3-5-6(8)4-7(5,2)9/h5,9H,3-4H2,1-2H3	InChI=1S/C7H12O2/c1-3-5-6(8)4-7(5,2)9/h5,9H,3-4H2,1-2H3/t5-,7-/m0/s1
