16
gdb 46419	4.18086	0.75558	0.67967	3.8312	70.8	-0.2734	-0.0482	0.2252	1570.6202	0.12281	-437.89459	-437.885766	-437.884821	-437.929486	30.608	
O	-0.2168892738	-0.0054103144	-0.1617136639	-0.26293
C	-0.0800479258	 1.1688804073	-0.0208074148	 0.337596
C	-0.9640314656	 2.3573570028	 0.3775192984	-0.189215
O	 0.1825163907	 3.2285853354	 0.2676382679	-0.293178
C	 1.085878165	 2.168480084	-0.1352249062	-0.001818
C	 2.2586763197	 1.9825372841	 0.8163426383	-0.205275
C	 3.1283799565	 3.2552059469	 0.868974691	-0.340539
C	 4.2415043415	 3.1296718432	 1.8058760711	 0.257445
N	 5.1168530351	 3.0123964347	 2.5509146733	-0.299586
H	-1.7596251102	 2.6042802743	-0.3363704976	 0.141143
H	-1.3816760784	 2.3213717771	 1.3910328925	 0.142867
H	 1.4350848869	 2.3162094672	-1.1679534656	 0.11218
H	 1.8885162152	 1.7534957355	 1.8206422005	 0.130699
H	 2.853746704	 1.1261967385	 0.4829555537	 0.141048
H	 3.5308331684	 3.4836549977	-0.1248783394	 0.153862
H	 2.5065318307	 4.1065181757	 1.1648149206	 0.175701
59.5838	87.4874	90.1573	125.8185	202.607	252.5725	377.7404	407.1684	477.2822	535.935	570.3298	694.4752	771.9927	819.6245	889.9724	930.5707	975.7719	1006.6154	1037.6247	1071.2216	1082.978	1107.2596	1138.627	1200.8745	1230.146	1279.0276	1303.4734	1313.7398	1353.3568	1388.9771	1468.7728	1480.0138	1483.9827	1929.1842	2364.3633	3002.8697	3025.0934	3044.6424	3057.2044	3073.0079	3086.5889	3108.5442
O=C1COC1CCC#N	O=C1CO[C@H]1CCC#N	
InChI=1S/C6H7NO2/c7-3-1-2-6-5(8)4-9-6/h6H,1-2,4H2	InChI=1S/C6H7NO2/c7-3-1-2-6-5(8)4-9-6/h6H,1-2,4H2/t6-/m0/s1
