17
gdb 128021	4.78524	0.90271	0.76302	4.255	82.03	-0.1948	0.0206	0.2154	1455.6124	0.137857	-414.201809	-414.193214	-414.192269	-414.235563	31.283	
C	-0.2419478345	 1.627801924	 0.0641021035	-0.31145
N	 0.0116288631	 0.2041775031	 0.0407898748	-0.213006
C	-0.9888171129	-0.5628276955	-0.1090527549	 0.097888
N	-0.9192984457	-1.9321484518	-0.1527424565	-0.439482
C	 0.2244256125	-2.7251597171	-0.0452706175	 0.279477
C	 0.2539628727	-4.1080704586	-0.0945665546	-0.147954
N	 1.5599410484	-4.4551161471	 0.0491374073	-0.173974
N	 2.3777404021	-3.4025093029	 0.1877929209	-0.221866
C	 1.5774557021	-2.3398028801	 0.1321673038	-0.064512
H	 0.3210075023	 2.122983368	-0.7366643669	 0.121822
H	-1.3069072128	 1.8919986857	-0.0539390451	 0.088473
H	 0.1109630312	 2.0568023126	 1.0100249278	 0.121822
H	-2.0222345026	-0.2021423263	-0.2201418222	 0.074196
H	-1.7926907493	-2.4144576291	-0.2760398425	 0.24959
H	-0.527084808	-4.8414540018	-0.2164140558	 0.122149
H	 1.9480605968	-5.3821063982	 0.0606721671	 0.274279
H	 1.9617658345	-1.3390262848	 0.2166810808	 0.142548
54.486	134.3824	137.914	198.7917	267.4445	308.3332	350.0291	366.4038	453.1415	473.3293	646.8033	649.0159	692.1222	734.243	788.2981	898.2139	946.0291	974.2554	1000.2893	1048.4206	1067.5829	1140.4326	1148.8387	1159.9389	1212.4829	1262.7923	1318.0961	1389.8528	1401.9945	1422.6333	1449.5876	1479.7467	1505.0711	1508.2959	1536.4412	1645.2682	1759.2542	2955.6103	3004.5864	3045.0799	3062.4528	3258.9829	3308.5053	3662.934	3683.8598
CN=CNC1=CNN=C1	CN=CNc1c[nH]nc1	
InChI=1S/C5H8N4/c1-6-4-7-5-2-8-9-3-5/h2-4H,1H3,(H,6,7)(H,8,9)	InChI=1S/C5H8N4/c1-6-4-7-5-2-8-9-3-5/h2-4H,1H3,(H,6,7)(H,8,9)
