20
gdb 23118	1.90555	1.54425	0.91738	0.8078	87.46	-0.2142	-0.0156	0.1986	1313.4117	0.170765	-403.142083	-403.132792	-403.131848	-403.176366	34.539	
C	 0.0314446196	 1.5413264137	 0.2137570562	-0.374347
C	-0.0183900586	 0.0249034242	-0.0450349994	-0.29598
C	-1.4129210503	-0.5293965571	-0.033365362	 0.270343
C	-2.1346968125	-0.9673716	-1.0782872863	-0.171902
C	-3.511925951	-1.4489517166	-0.6996936581	-0.274564
C	-3.5685115788	-1.248986624	 0.8361557564	-0.312196
C	-2.2131628839	-0.6725476231	 1.1887787299	 0.340113
N	-1.7629735644	-0.3519547083	 2.343117215	-0.248135
O	-2.7235839308	-0.6049134053	 3.34053608	-0.392683
H	 1.0652653257	 1.9000558672	 0.1998964975	 0.10937
H	-0.527752487	 2.087419038	-0.5527297928	 0.11214
H	-0.4016840353	 1.7793313581	 1.1880715166	 0.138887
H	 0.4501461952	-0.2017819104	-1.0090684637	 0.095729
H	 0.5701063675	-0.4837541603	 0.7276691214	 0.115876
H	-1.7768950518	-0.9840137707	-2.1025439756	 0.095038
H	-4.293479176	-0.8810318262	-1.2199095193	 0.113196
H	-3.6632065469	-2.4974672356	-0.9853339975	 0.113259
H	-4.3651079723	-0.566773739	 1.148397796	 0.130359
H	-3.7377695639	-2.1821527553	 1.3819133309	 0.13096
H	-2.2633532744	-0.3295482692	 4.1402796046	 0.304538
74.2476	98.5838	145.7262	183.7891	223.328	241.0949	306.7704	329.1449	382.7087	491.5871	551.1436	571.0512	665.5827	702.9602	788.5932	795.6272	815.805	874.9719	928.7897	947.3565	987.194	1018.5828	1027.6311	1062.09	1095.7126	1126.5584	1157.2066	1230.0758	1232.5682	1280.6497	1288.7355	1326.1674	1353.5988	1359.3754	1403.094	1427.4569	1465.1144	1479.8659	1490.3524	1497.4629	1511.5428	1683.1018	1719.6613	3023.4369	3032.5377	3040.2395	3044.9587	3061.5839	3071.7565	3094.1654	3106.7705	3130.8137	3188.4696	3819.9582
CCC1=CCCC1=NO	CCC1=CCCC1=NO	
InChI=1S/C7H11NO/c1-2-6-4-3-5-7(6)8-9/h4,9H,2-3,5H2,1H3	InChI=1S/C7H11NO/c1-2-6-4-3-5-7(6)8-9/h4,9H,2-3,5H2,1H3
