19
gdb 71768	3.18292	1.82816	1.6042	1.3544	76.45	-0.2163	0.0887	0.305	916.3513	0.16195	-385.884262	-385.87759	-385.876646	-385.914824	28.366	
C	-0.0265670212	 1.4941050453	 0.0109977564	-0.489377
C	-0.0034388939	-0.0136475615	-0.032389666	 0.269865
C	 1.0067535653	-0.7195175041	-0.9344423735	-0.277348
C	 0.4873280758	-2.1434947814	-1.0600016637	-0.118066
C	 0.0814260627	-2.7901934466	 0.2379266473	 0.085993
O	 0.2505243452	-2.0397473403	 1.414450508	-0.248777
C	-0.3724848547	-0.7974966459	 1.2034235587	 0.047083
C	-1.2896135562	-0.8478257158	-0.0031408981	-0.156189
C	-0.9853200772	-2.1797187395	-0.6461077518	-0.113922
H	 0.9337623797	 1.8965531584	 0.353969177	 0.1202
H	-0.2311851132	 1.9163531673	-0.9800401483	 0.11645
H	-0.8003494382	 1.8614633461	 0.6932570485	 0.114722
H	 1.0454002399	-0.2306031505	-1.9160585529	 0.096622
H	 2.017249299	-0.6881305791	-0.5083569687	 0.106687
H	 0.8551196124	-2.7805184819	-1.8570566678	 0.083064
H	 0.2033084521	-3.8540472285	 0.4019916255	 0.098142
H	-0.6133166282	-0.2904753956	 2.1311581976	 0.094203
H	-2.2829958858	-0.4191748809	-0.01788668	 0.083593
H	-1.7459623134	-2.7557035056	-1.1547686081	 0.087057
202.1486	221.6924	284.9087	302.8059	483.3838	507.2195	564.0816	690.8263	720.7879	731.6539	745.8024	767.6619	791.954	854.9625	869.5632	926.4013	950.0226	959.2295	990.8587	1007.1132	1025.0963	1046.5517	1064.2362	1070.197	1072.624	1099.0042	1119.1742	1163.1183	1197.7634	1226.9072	1253.4884	1283.0702	1290.986	1320.0675	1341.7056	1408.0568	1417.0738	1426.1914	1488.0176	1492.4764	1501.8836	3017.9339	3021.7509	3056.3695	3079.9761	3093.0472	3166.7833	3173.9779	3187.7993	3197.2101	3212.1794
CC12CC3C4OC1C2C34	C[C@@]12C[C@H]3[C@H]4O[C@@H]1[C@@H]2[C@@H]34	
InChI=1S/C8H10O/c1-8-2-3-4-5(8)7(8)9-6(3)4/h3-7H,2H2,1H3	InChI=1S/C8H10O/c1-8-2-3-4-5(8)7(8)9-6(3)4/h3-7H,2H2,1H3/t3-,4-,5+,6-,7-,8+/m1/s1
