17
gdb 9071	4.88791	0.84077	0.75387	2.7893	70.12	-0.2641	-0.0363	0.2278	1436.0213	0.140095	-363.892449	-363.883228	-363.882284	-363.927496	31.327	
C	 0.1145628943	 1.5553112772	 0.113853861	-0.391553
C	-0.0027824049	 0.0315084481	-0.0860371172	-0.141438
C	-1.4591495463	-0.4904389184	-0.0316123334	-0.194363
C	-2.1206415021	-0.3062075947	 1.3434960237	-0.291651
C	-3.4640530763	-1.0038829944	 1.4080092363	 0.159743
O	-4.4981120297	-0.4735124574	 1.7165863764	-0.228592
C	 0.6089011714	-0.3586541961	-1.3617846177	 0.266443
N	 1.0790286821	-0.6640120166	-2.3724972945	-0.317125
H	 1.1555118017	 1.8767230523	 0.0332958139	 0.14321
H	-0.4672109406	 2.0896184373	-0.6426949536	 0.141228
H	-0.2549509498	 1.8404077712	 1.1015531996	 0.132589
H	 0.5701873415	-0.4705280095	 0.7051709329	 0.128498
H	-2.0488163492	 0.02039211	-0.8012507324	 0.132886
H	-1.4580036357	-1.5544616642	-0.294401711	 0.12648
H	-1.4813176809	-0.7605196634	 2.1156567867	 0.123146
H	-2.2705890658	 0.7451537279	 1.5996936026	 0.132261
H	-3.4306026598	-2.0860367793	 1.1392313067	 0.07824
54.1684	68.6139	95.3733	141.9389	200.4003	229.0686	299.6582	304.7759	381.2916	511.5805	553.3958	580.8544	765.2322	812.0367	854.8628	921.404	983.7785	1015.258	1046.175	1103.9341	1122.5538	1161.1246	1219.8248	1262.0271	1303.4778	1333.9661	1346.5108	1387.2402	1415.0814	1431.2187	1464.9069	1490.2363	1496.1313	1503.4263	1840.57	2357.2416	2858.3156	3006.2682	3023.3668	3040.2593	3052.3441	3080.2895	3111.83	3128.5556	3134.0969
CC(CCC=O)C#N	C[C@@H](CCC=O)C#N	
InChI=1S/C6H9NO/c1-6(5-7)3-2-4-8/h4,6H,2-3H2,1H3	InChI=1S/C6H9NO/c1-6(5-7)3-2-4-8/h4,6H,2-3H2,1H3/t6-/m0/s1
