24
gdb 8713	1.88449	1.85639	1.18248	1.3628	81.25	-0.2581	0.0666	0.3247	1193.3764	0.220987	-351.419544	-351.408784	-351.40784	-351.454922	39.686	
C	-1.6672221656	-0.5650421066	-0.5561211716	-0.412461
C	-0.1960564812	-0.2199689615	-0.2948139041	-0.189485
C	 0.7946263747	-0.5756271509	-1.4304538858	 0.356411
O	 0.4246751114	 0.1049663637	-2.6390561395	-0.468484
C	 2.2097769689	-0.0601046734	-1.0975588296	-0.178062
C	 2.3327722043	 1.4558732897	-0.9059040213	-0.395508
C	 0.8149549666	-2.1045300334	-1.6753518768	-0.208974
C	 1.7263920155	-2.5744538112	-2.8142440631	-0.389813
H	-2.0382100276	-0.0827160148	-1.4681535802	 0.108055
H	-1.8410436681	-1.641204771	-0.6464228614	 0.12087
H	-2.2921481997	-0.2037152014	 0.2662100721	 0.118176
H	-0.1270975318	 0.8563115873	-0.1123746879	 0.103589
H	 0.1366482385	-0.7166096753	 0.6254812464	 0.090863
H	-0.4390399993	-0.2207247107	-2.911403373	 0.276121
H	 2.5665437925	-0.5847262479	-0.2025653132	 0.087261
H	 2.870879369	-0.3554880036	-1.9177033551	 0.103372
H	 1.8953636852	 1.9852425541	-1.7559549014	 0.135607
H	 1.8366972276	 1.8047634585	 0.0046351891	 0.111726
H	 3.3863048876	 1.7428075508	-0.8302275315	 0.105015
H	 1.089639418	-2.6079235889	-0.7395828851	 0.092088
H	-0.2100931886	-2.4274601622	-1.8976838652	 0.084827
H	 1.5394085556	-1.9907697721	-3.7199316618	 0.125194
H	 2.7862406802	-2.4746811666	-2.5637666366	 0.118145
H	 1.5432041661	-3.6291391228	-3.0416627834	 0.105468
49.4414	97.5353	112.3342	209.3801	216.0972	225.8822	246.2107	248.542	311.3706	321.7954	362.4105	371.1457	409.9116	534.3034	541.7086	692.5146	772.731	780.2125	792.0468	923.3108	930.8202	952.8929	1020.7162	1028.3159	1038.8031	1052.6116	1082.2488	1091.7691	1148.116	1194.8049	1207.3737	1278.8346	1305.7657	1328.6023	1340.8094	1367.1777	1380.9201	1399.9066	1408.9161	1410.0726	1421.4982	1477.2428	1478.5044	1484.3639	1500.5724	1504.3325	1505.3368	1509.8877	1511.0829	1514.7355	3017.5453	3028.2114	3033.1783	3035.3401	3043.6016	3044.2687	3052.1515	3077.6792	3082.8672	3095.7017	3104.7724	3108.7784	3114.6397	3120.929	3128.5494	3818.0281
CCC(O)(CC)CC	CCC(O)(CC)CC	
InChI=1S/C7H16O/c1-4-7(8,5-2)6-3/h8H,4-6H2,1-3H3	InChI=1S/C7H16O/c1-4-7(8,5-2)6-3/h8H,4-6H2,1-3H3
