17
gdb 60994	2.4903	1.16584	0.90891	2.1195	75.52	-0.2537	-0.0373	0.2164	1282.3949	0.133013	-421.783787	-421.774552	-421.773608	-421.818308	33.855	
O	 1.4751882412	 1.5298678113	-0.6069263731	-0.437104
C	 0.507252914	 0.7744273647	 0.069779492	 0.025392
C	-0.0452291227	-0.3097633929	-0.8405337099	 0.129949
O	 0.3562919037	-0.4495732689	-1.9710921368	-0.262619
C	 1.0822098435	 0.1535337885	 1.3319862102	-0.024083
C	 1.1232634409	 0.9447059848	 2.6041058992	-0.299624
C	 0.1754526201	-0.2392805953	 2.4971018241	-0.19798
C	-1.2443585274	-0.0398161696	 2.4367544898	 0.325885
C	-2.4382044877	 0.1057621179	 2.3887817003	-0.467001
H	 1.5282850373	 1.142922872	-1.4957885182	 0.293775
H	-0.351015727	 1.4053640253	 0.3578983056	 0.104842
H	-0.8303391841	-0.958745406	-0.4077533167	 0.115161
H	 1.9154264202	-0.5177936365	 1.1451257846	 0.105957
H	 1.9832189734	 0.8386851102	 3.2549371069	 0.127217
H	 0.6777106545	 1.9328629019	 2.5939219166	 0.137021
H	 0.4770335388	-1.1357841663	 3.0306919833	 0.121235
H	-3.4906601887	 0.2430117589	 2.3561459721	 0.201975
55.9148	103.1506	106.9729	181.9057	229.4958	297.7315	332.6772	377.5552	401.3629	467.1076	524.6769	589.7889	616.4901	655.0691	752.4035	775.6988	806.9753	847.305	917.3868	961.1686	967.354	1036.7164	1073.0393	1121.7822	1126.9039	1150.1459	1167.6831	1225.2178	1275.1284	1304.6334	1369.9583	1386.9254	1404.5649	1447.0422	1486.1647	1811.1275	2232.3957	2957.8322	2972.5938	3143.6777	3146.3553	3156.6953	3234.8825	3503.4601	3682.6404
OC(C=O)C1CC1C#C	O[C@@H](C=O)[C@H]1C[C@H]1C#C	
InChI=1S/C7H8O2/c1-2-5-3-6(5)7(9)4-8/h1,4-7,9H,3H2	InChI=1S/C7H8O2/c1-2-5-3-6(5)7(9)4-8/h1,4-7,9H,3H2/t5-,6+,7+/m1/s1
