14
gdb 25510	4.51374	1.17509	0.93236	3.6015	74.5	-0.2487	-0.0445	0.2042	1166.1706	0.103803	-432.94809	-432.940896	-432.939952	-432.980613	26.037	
O	-0.4700036421	 0.1073724358	 0.0007316243	-0.264173
C	-0.1225440619	 1.2572798685	 0.0067994939	 0.159954
N	 1.1725912636	 1.7472863713	-0.0005227435	-0.379904
C	 2.3961923906	 1.0838306428	-0.0158220988	 0.478759
N	 2.4243808517	-0.2470302056	-0.0277535533	-0.271337
C	 3.6393572339	-0.7952365261	-0.0419661339	 0.017793
C	 4.8087810762	-0.0441026185	-0.0444855938	-0.139816
C	 4.6457407734	 1.3373342631	-0.0311531206	 0.014168
N	 3.4486307643	 1.9173986553	-0.0167384147	-0.322278
H	-0.8345256983	 2.1079437343	 0.0196081161	 0.08167
H	 1.2775487869	 2.7518973368	 0.0071291726	 0.263457
H	 3.6693904135	-1.88256203	-0.0517524794	 0.126274
H	 5.7876777694	-0.505742744	-0.0561543339	 0.113151
H	 5.5033841887	 2.0062927164	-0.032044625	 0.122283
48.9423	159.2838	167.9026	275.2292	360.6196	415.2484	546.7708	555.0288	642.5236	671.1298	812.2633	821.5581	834.9269	889.0199	1001.5246	1004.2152	1013.6962	1026.1145	1089.4543	1119.099	1141.9984	1257.1483	1287.7424	1360.164	1442.1289	1446.7304	1480.9764	1533.7082	1611.6282	1630.3517	1843.7844	2922.7417	3157.2539	3158.9525	3219.1883	3615.1286
O=CNC1=NC=CC=N1	O=CNc1ncccn1	
InChI=1S/C5H5N3O/c9-4-8-5-6-2-1-3-7-5/h1-4H,(H,6,7,8,9)	InChI=1S/C5H5N3O/c9-4-8-5-6-2-1-3-7-5/h1-4H,(H,6,7,8,9)
