13
gdb 7703	3.56002	2.08545	1.32558	3.274	63.85	-0.2734	-0.0529	0.2205	852.1843	0.096552	-398.656156	-398.649539	-398.648595	-398.687642	24.255	
N	-0.1060606684	 1.313151151	 0.197856568	-0.496998
C	-0.0926966684	 0.0727362644	-0.0505891578	 0.392075
O	 1.0691234366	-0.5244041489	-0.5303093864	-0.24188
C	 1.1960768039	-1.8571471868	-0.8324405985	 0.418507
O	 2.2487185844	-2.2515196692	-1.2379984442	-0.302175
C	-0.0110399286	-2.7561116186	-0.6336866864	-0.416157
C	-1.2387513427	-2.0801223523	-0.1175129411	-0.079258
C	-1.2626325697	-0.7750859902	 0.1471725739	-0.099049
H	 0.8047187259	 1.7295396724	-0.0040681904	 0.237166
H	-0.2026981347	-3.2464201278	-1.5969935624	 0.165717
H	 0.3055453299	-3.568434122	 0.0333802952	 0.165708
H	-2.1204911065	-2.6944275172	 0.0363751969	 0.123353
H	-2.1398093217	-0.2633590649	 0.5215794933	 0.132992
56.9343	123.473	317.311	367.8708	497.3436	511.4879	536.8406	545.0535	650.0634	707.8964	814.9798	888.5704	915.9803	947.966	967.6422	978.8072	1022.9775	1106.5752	1148.6023	1206.1213	1212.2303	1348.8848	1353.9723	1416.2426	1436.6691	1704.2987	1749.1879	1869.9073	3032.9542	3055.4086	3181.0263	3227.6706	3480.4154
N=C1OC(=O)CC=C1	[NH]C1=C[CH]CC(=O)O1	
InChI=1S/C5H5NO2/c6-4-2-1-3-5(7)8-4/h1-2,6H,3H2	InChI=1S/C5H5NO2/c6-4-2-1-3-5(7)8-4/h1-2,6H,3H2
