16
gdb 83055	2.77933	1.51706	1.25885	1.781	75.5	-0.2413	0.0052	0.2465	1036.0628	0.123484	-400.708833	-400.700778	-400.699834	-400.741281	30.618	
C	-0.0810089435	 1.5416995857	 0.0390925746	-0.417989
C	 0.0728492479	 0.0399015563	 0.0592577317	-0.090251
C	 1.3465018149	-0.6848934748	-0.2427325525	 0.006352
O	 2.5545880929	 0.0451883985	-0.1166641446	-0.205344
C	 2.6254801344	 0.4048580208	 1.1931425667	 0.076858
N	 1.7175071311	 0.0156668957	 1.9926808485	-0.293934
C	 0.7704546405	-0.7364104308	 1.1892832003	 0.115462
C	 0.1383455623	-1.8746213684	 1.7826304478	 0.211862
C	-0.4063676036	-2.8351625466	 2.2582007182	-0.37467
H	 0.7796886709	 2.0540675077	 0.4724374953	 0.136755
H	-0.199364711	 1.895981402	-0.9900777815	 0.126663
H	-0.9668788392	 1.8411093704	 0.6068890554	 0.132878
H	-0.7915586518	-0.5075773706	-0.3066780252	 0.109369
H	 1.4201249949	-1.5117520349	-0.9369275731	 0.125988
H	 3.4835624907	 1.0132554252	 1.4509583572	 0.149385
H	-0.8808816315	-3.6816046962	 2.6891666112	 0.190616
129.8749	132.2228	158.9072	209.5864	242.7186	411.7867	448.155	492.5464	558.5809	574.7906	582.4657	674.047	690.5847	728.597	762.594	878.6854	907.2737	944.4707	962.249	977.57	1002.2403	1092.2867	1098.9171	1121.5837	1143.1642	1233.5451	1259.2515	1309.2872	1355.8712	1417.7373	1429.5772	1489.5118	1498.4586	1665.7955	2242.0797	3045.2687	3106.442	3131.8178	3154.7609	3202.9319	3231.7419	3503.0617
CC1C2OC=NC12C#C	C[C@H]1[C@H]2OC=N[C@@]12C#C	
InChI=1S/C7H7NO/c1-3-7-5(2)6(7)9-4-8-7/h1,4-6H,2H3	InChI=1S/C7H7NO/c1-3-7-5(2)6(7)9-4-8-7/h1,4-6H,2H3/t5-,6+,7-/m0/s1
