18
gdb 80635	2.79909	1.58322	1.2712	4.6829	75.49	-0.2375	0.0326	0.2701	1022.4703	0.151395	-398.109101	-398.101569	-398.100625	-398.140971	29.94	
N	-0.1596704505	 1.457650189	 0.1176205713	-0.510447
C	-0.0486191801	 0.0256791802	-0.0133304182	 0.031728
C	-1.4316793077	-0.6165909377	-0.2296853178	 0.005952
C	-1.1211049382	-2.0644010036	-0.6761655838	-0.249436
C	-0.6060155057	-1.2877070172	-1.9138935238	-0.012304
N	-1.6602707861	-0.2328978818	-1.6786868935	-0.329447
C	 0.6421297464	-0.5731519932	-1.3399624868	-0.183883
C	 1.2087249685	 0.4448226872	-2.2076833787	 0.281832
N	 1.6774795186	 1.2625787491	-2.8775155371	-0.335486
H	 0.7547704375	 1.8970857001	 0.1465240262	 0.238156
H	-0.6413894408	 1.8270193094	-0.6981629415	 0.250298
H	 0.4520231287	-0.3767492697	 0.8712518586	 0.088522
H	-2.198899552	-0.3550731946	 0.4974208383	 0.088196
H	-0.4245410866	-2.6756123528	-0.0914491439	 0.097565
H	-2.0283729205	-2.6307763298	-0.8988000011	 0.106338
H	-0.5228809221	-1.7188023067	-2.9110208449	 0.091599
H	-2.5570957286	-0.6217018697	-1.9700005541	 0.222627
H	 1.4270350592	-1.2939202783	-1.0931746393	 0.11819
111.5758	143.4195	221.482	325.8517	349.0493	396.9749	466.0371	470.527	548.0805	626.1694	736.6625	777.455	816.8527	849.2417	862.3896	890.3327	912.9756	928.7487	958.6807	989.7511	1042.3059	1063.8422	1079.3467	1096.9666	1115.3319	1153.6283	1187.9712	1210.8847	1237.1016	1244.715	1280.4721	1296.3423	1330.0436	1340.5264	1360.2159	1430.6959	1498.1731	1652.568	2354.0971	3038.2382	3067.3056	3079.9481	3113.1493	3126.9952	3136.8115	3463.0379	3495.4547	3576.0969
NC1C2CC(N2)C1C#N	N[C@H]1[C@@H]2C[C@@H](N2)[C@H]1C#N	
InChI=1S/C6H9N3/c7-2-3-4-1-5(9-4)6(3)8/h3-6,9H,1,8H2	InChI=1S/C6H9N3/c7-2-3-4-1-5(9-4)6(3)8/h3-6,9H,1,8H2/t3-,4-,5+,6-/m1/s1
