12
gdb 129150	2.6391	0.81761	0.67669	3.9805	66.8	-0.2526	-0.0688	0.1838	1544.3307	0.070151	-468.851331	-468.840202	-468.839258	-468.892368	32.938	
N	 0.2549979578	 1.1085839873	 1.0642864424	-0.479855
C	-0.5655264497	 0.4115967272	 0.5341333954	 0.437931
N	 2.5318376704	-1.0969648831	-0.1794617322	-0.013621
N	 2.9366151736	-2.1162670223	-0.2391185316	 0.012127
O	-0.3697558825	-2.4159371013	 0.5177060012	-0.280803
C	-1.3635902722	-1.8491684123	 0.1258417881	 0.101538
C	-1.5381065444	-0.377310714	 0.0727775603	-0.125976
C	-2.7664278741	 0.2083335551	-0.4938866396	 0.097561
O	-3.6808200614	-0.4544018007	-0.9271485683	-0.267907
H	 1.0870298748	 1.4586591257	 0.5994749703	 0.310488
H	-2.2539858805	-2.3901211835	-0.2437273545	 0.123595
H	-2.8016170117	 1.3174895917	-0.4951885714	 0.084922
11.9701	37.3794	47.3442	49.6946	79.5658	134.6236	139.8797	172.4826	194.9259	294.9042	432.1426	551.2215	573.1476	657.6027	708.0176	810.4416	834.1281	1019.5278	1045.2031	1219.8336	1329.6437	1410.56	1454.1894	1774.1326	1781.5988	2148.6961	2434.9104	2908.0165	2975.1946	3561.7714	11.9705	37.3794	47.344	49.6942	79.5655	134.6232	139.8794	172.4834	194.9258	294.9041	432.1425	551.2219	573.1476	657.6032	708.0174	810.4412	834.1279	1019.5279	1045.2021	1219.8337	1329.6435	1410.5588	1454.1896	1774.1321	1781.5988	2148.6958	2434.9103	2908.0165	2975.1942	3561.771
N=C1N=NOC=C1C=O	[NH][C][C](C=O)C=O.N#N	
InChI=1S/C4H3N3O2/c5-4-3(1-8)2-9-7-6-4/h1-2,5H	InChI=1S/C4H3NO2.N2/c5-1-4(2-6)3-7;1-2/h2-3,5H;
