18
gdb 32682	3.48692	1.30694	1.13776	2.6957	78.32	-0.216	0.0371	0.253	1120.0828	0.150475	-398.11537	-398.107394	-398.10645	-398.14836	29.676	
C	-0.4958586311	 0.6611089716	 0.239326075	-0.330942
N	 0.8514277317	 0.5438414129	-0.3118941287	-0.276021
C	 1.0636969137	-0.5392721628	-1.235730555	-0.131239
C	 1.0321327689	-2.0126206796	-0.6349825284	-0.185882
N	-0.0248324676	-2.3075180249	-1.6193118277	 0.025154
C	-0.8449507062	-3.1162523392	-2.3653433579	-0.177123
C	-1.3452026864	-2.2552812112	-3.3278222745	-0.093544
N	-0.8327132044	-0.9719116089	-3.2140445596	-0.383194
C	-0.0444554012	-1.074324616	-2.1686851225	 0.348383
H	-1.2845543896	 0.7382876752	-0.5243966538	 0.127738
H	-0.7218727039	-0.2083225054	 0.8659021874	 0.123392
H	-0.5390288067	 1.544333776	 0.8819938165	 0.121928
H	 1.1252017488	 1.4171925699	-0.7449861207	 0.230256
H	 2.0022156615	-0.3519113131	-1.7653885254	 0.104714
H	 1.9472833447	-2.5929129568	-0.7783846761	 0.13039
H	 0.7037315816	-2.0804249469	 0.4045991226	 0.130925
H	-1.0257064419	-4.1574540106	-2.1603439733	 0.129695
H	-2.0612730018	-2.4964245302	-4.0999892978	 0.105372
73.3199	111.4899	144.6526	202.882	271.8166	309.5091	506.3609	536.1233	623.3119	680.2051	705.147	722.7238	753.5934	793.366	837.7445	869.6386	945.2895	999.3883	1013.2258	1058.2945	1112.5716	1135.808	1143.598	1152.3852	1177.5827	1195.3015	1221.6006	1248.079	1281.8507	1378.5674	1400.0028	1435.064	1462.0003	1467.8937	1488.1526	1496.6724	1509.7991	1521.4851	1556.2279	2991.8416	3062.5811	3069.5784	3072.1267	3111.9383	3121.5301	3241.2038	3285.799	3551.5446
CNC1CN2C=CN=C12	CN[C@H]1Cn2ccnc12	
InChI=1S/C6H9N3/c1-7-5-4-9-3-2-8-6(5)9/h2-3,5,7H,4H2,1H3	InChI=1S/C6H9N3/c1-7-5-4-9-3-2-8-6(5)9/h2-3,5,7H,4H2,1H3/t5-/m0/s1
