15
gdb 49921	3.98622	1.01784	0.90104	2.6152	69.97	-0.252	-0.0466	0.2054	1246.1118	0.112849	-453.985962	-453.977879	-453.976935	-454.019783	28.102	
O	-0.6857727899	 0.70224986	 0.6618101031	-0.232911
C	 0.2085199221	 0.8682024658	-0.1250767054	 0.158375
C	 1.3015155611	 1.9251549393	 0.0279918176	-0.072676
C	 1.3383053209	 2.5785506163	 1.4339022048	-0.225348
N	 2.6712857975	 2.1653030692	 1.8984326759	-0.083171
C	 3.2346132165	 2.4282385418	 3.1255502594	 0.154382
O	 4.3395999796	 2.0695238498	 3.4584475023	-0.304794
C	 3.2831472905	 1.4417157106	 0.8790400049	 0.095259
N	 2.6106659468	 1.2772845771	-0.1909890621	-0.277452
H	 0.315029265	 0.2496790461	-1.0393374424	 0.110787
H	 1.133738449	 2.6605404864	-0.7706877845	 0.12084
H	 1.2577102781	 3.6676031517	 1.3959325341	 0.131519
H	 0.5423923365	 2.1784466719	 2.0676492475	 0.156281
H	 2.5557316654	 3.0106867986	 3.7755036734	 0.094311
H	 4.2832430908	 1.0635109055	 1.0494339513	 0.174599
44.6356	99.9482	159.0055	193.7135	243.1383	275.1985	355.6272	492.5856	544.6319	645.8442	739.7639	805.0965	828.1141	926.7744	941.9953	974.3377	1004.7951	1031.5277	1079.8258	1090.9028	1211.7625	1229.9227	1255.2605	1285.2492	1309.8481	1339.134	1400.471	1414.7239	1438.8534	1522.2855	1686.3045	1803.8156	1832.9777	2935.8377	2965.7076	3017.4328	3061.1496	3109.927	3236.9231
O=CC1CN(C=O)C=N1	O=C[C@H]1CN(C=O)C=N1	
InChI=1S/C5H6N2O2/c8-2-5-1-7(4-9)3-6-5/h2-5H,1H2	InChI=1S/C5H6N2O2/c8-2-5-1-7(4-9)3-6-5/h2-5H,1H2/t5-/m1/s1
