16
gdb 77800	2.50839	1.41892	1.08025	3.9271	71.95	-0.2564	-0.0415	0.2149	1122.5401	0.122914	-437.890551	-437.882198	-437.881253	-437.923633	30.793	
C	 0.0747124495	 1.5536095642	 0.0865408695	-0.422355
C	 0.0950762347	 0.0421760602	 0.0952248826	-0.061055
C	 1.3014538288	-0.8106954629	-0.2299969769	-0.296084
C	 2.5465547228	-0.1726562555	 0.4008339907	 0.433108
O	 3.5925744858	 0.2430038941	-0.0056679167	-0.339104
N	 1.9846822983	-0.2245435313	 1.6786596466	-0.381792
C	 0.7276616255	-0.7861204759	 1.2051168278	 0.26197
C	 0.0277779036	-1.8689236095	 1.9118868901	 0.084528
O	 0.3013604748	-2.2501207733	 3.0224710198	-0.262329
H	 0.9934723516	 1.9786942403	 0.4974678406	 0.137686
H	-0.0328456609	 1.923516948	-0.9376722145	 0.139789
H	-0.7693385701	 1.9298726588	 0.6729095087	 0.131367
H	-0.8223287957	-0.4120742153	-0.2800198954	 0.111067
H	 1.278135153	-1.6262613562	-0.9395635235	 0.132077
H	 2.0980583433	 0.4615052704	 2.4135247298	 0.256013
H	-0.8139708749	-2.3067179761	 1.3283491508	 0.075112
92.429	140.5019	177.0196	187.413	243.0901	277.5973	393.304	451.4637	481.7949	487.1994	602.3123	690.8108	711.0708	768.9139	833.84	883.8528	926.4563	957.6936	1007.823	1050.5298	1055.0933	1082.9557	1117.0943	1136.7434	1218.0617	1265.5804	1303.3045	1347.6919	1409.8638	1424.563	1448.0313	1490.0668	1499.4883	1813.9727	1904.7743	2872.5969	3044.5992	3109.4822	3111.2989	3129.8312	3221.0749	3581.5086
CC1C2C(=O)NC12C=O	C[C@H]1[C@H]2C(=O)N[C@@]12C=O	
InChI=1S/C6H7NO2/c1-3-4-5(9)7-6(3,4)2-8/h2-4H,1H3,(H,7,9)	InChI=1S/C6H7NO2/c1-3-4-5(9)7-6(3,4)2-8/h2-4H,1H3,(H,7,9)/t3-,4-,6-/m0/s1
