20
gdb 9758	3.78844	1.48093	1.39472	1.2123	76.22	-0.2448	0.016	0.2608	1013.6886	0.176633	-349.021748	-349.013132	-349.012188	-349.054604	32.624	
C	 0.1309821751	 1.5645903144	-0.1637103075	-0.408756
C	 0.0194176137	 0.0540653052	 0.0627535247	-0.204042
C	-1.4230206025	-0.4819136286	 0.0954993485	 0.374874
O	-2.1017455788	-0.1252729945	-1.1271682834	-0.481144
C	-1.4826128212	-2.0251510562	 0.1990929082	-0.24114
C	-2.688244463	-2.3529664854	 1.112095237	-0.263756
C	-2.9316868353	-1.0487314108	 1.830373424	-0.063908
C	-2.2380752747	-0.0438579336	 1.2997315324	-0.1318
H	 1.178861268	 1.8771304571	-0.1970643305	 0.115845
H	-0.3271935246	 1.8507498019	-1.1155525976	 0.117033
H	-0.3535451077	 2.136841791	 0.6352705442	 0.112865
H	 0.5521084921	-0.4697358427	-0.7406883982	 0.099871
H	 0.5136961346	-0.2198703288	 1.0029665241	 0.093109
H	-2.4094936499	 0.7825510511	-1.0421675814	 0.274475
H	-1.5593534387	-2.4637535325	-0.7979733296	 0.111128
H	-0.5601876448	-2.3933976689	 0.6584114338	 0.097525
H	-3.5764639011	-2.6459188622	 0.536931948	 0.11519
H	-2.4801748599	-3.1812782391	 1.7988017018	 0.101926
H	-3.6211750837	-0.9600210756	 2.66381374	 0.093331
H	-2.2741590177	 0.9882649983	 1.6334479016	 0.087375
81.6319	110.6078	185.7704	207.5562	262.546	271.5286	351.3545	378.91	446.0306	503.2566	623.3742	717.0883	765.0992	786.2982	799.1089	841.7814	926.3606	946.3224	968.8526	975.7233	986.5365	1024.8714	1043.6913	1100.2158	1116.2687	1140.3238	1176.3307	1204.7126	1243.8301	1302.5001	1307.9757	1314.8354	1344.2548	1381.6784	1391.4763	1406.1931	1470.555	1475.7113	1490.5612	1501.9101	1511.3633	1684.077	3022.143	3022.3375	3033.7692	3051.0413	3060.0137	3064.5788	3099.8557	3107.7948	3115.9661	3170.1103	3196.0257	3820.1127
CCC1(O)CCC=C1	CC[C@@]1(O)CCC=C1	
InChI=1S/C7H12O/c1-2-7(8)5-3-4-6-7/h3,5,8H,2,4,6H2,1H3	InChI=1S/C7H12O/c1-2-7(8)5-3-4-6-7/h3,5,8H,2,4,6H2,1H3/t7-/m0/s1
