23
gdb 121925	3.60048	0.6243	0.55982	1.1234	82.87	-0.2623	0.0797	0.342	1995.1987	0.203452	-425.402468	-425.391534	-425.39059	-425.439708	38.58	
C	-0.0399001216	 1.8069697348	-0.0889421564	-0.401617
C	 0.0195416779	 0.2728061285	-0.0541650767	-0.00905
C	-1.3708971039	-0.3874782858	 0.0191734152	-0.186955
C	-2.1490400829	-0.0935724211	 1.3055208983	-0.179489
C	-3.4620045453	-0.8621567366	 1.3817319571	-0.074144
O	-4.1102984909	-0.5032598102	 2.5933420797	-0.422415
C	 0.7649721253	-0.2413715032	-1.2684800615	 0.097269
C	 2.198274876	-0.5554473807	-1.2444653525	-0.184815
O	 1.2183133418	-1.5965680061	-1.2227293279	-0.245476
H	 0.9638385882	 2.2382338133	-0.1605006896	 0.114926
H	-0.616217622	 2.1579245179	-0.953283815	 0.114304
H	-0.51216777	 2.2107159305	 0.8101353784	 0.125021
H	 0.5901512026	-0.0403594701	 0.830701297	 0.076156
H	-1.9633935535	-0.0704313344	-0.8514648829	 0.088798
H	-1.2316250992	-1.4711196507	-0.0802780726	 0.113536
H	-1.5427888189	-0.3569495402	 2.1813486932	 0.104671
H	-2.3775140441	 0.9744545171	 1.3926275793	 0.107147
H	-4.0878314698	-0.6164583022	 0.5075560891	 0.082356
H	-3.2613564839	-1.9453432421	 1.3419916552	 0.086081
H	-4.9339166416	-0.9960032444	 2.6506581463	 0.284667
H	 0.3279001201	 0.0411217781	-2.2301322066	 0.085522
H	 2.7896190299	-0.4881674225	-2.1567718701	 0.112443
H	 2.7587484059	-0.4244683699	-0.319217117	 0.111066
51.6683	62.3351	92.6009	109.2083	138.7329	196.3928	214.6991	263.6573	286.2414	300.5425	344.9149	443.6113	499.7325	525.5859	755.805	802.134	857.2486	867.768	891.7213	956.0353	971.1415	1003.8937	1016.3528	1050.2416	1076.0274	1090.9011	1125.0699	1154.3628	1166.3287	1180.4081	1190.5962	1221.144	1236.2122	1285.2421	1293.3629	1303.5565	1318.7004	1325.9332	1359.7578	1392.619	1410.7744	1447.7857	1462.1249	1483.7549	1499.8334	1501.0024	1503.377	1528.9174	1529.9627	2957.0828	2983.1079	3002.0108	3016.2305	3031.1469	3033.6198	3049.9146	3073.3715	3079.812	3082.0316	3095.1517	3116.2544	3164.6033	3830.778
CC(CCCO)C1CO1	C[C@@H](CCCO)[C@H]1CO1	
InChI=1S/C7H14O2/c1-6(3-2-4-8)7-5-9-7/h6-8H,2-5H2,1H3	InChI=1S/C7H14O2/c1-6(3-2-4-8)7-5-9-7/h6-8H,2-5H2,1H3/t6-,7+/m0/s1
