15
gdb 16880	4.21959	1.93664	1.46389	3.6145	61.57	-0.2332	0.0239	0.2571	829.925	0.120813	-399.811024	-399.804478	-399.803534	-399.841744	25.372	
O	-0.0108299538	-0.0390843282	-0.2251902292	-0.366417
C	-0.0224187489	 1.1620872198	-0.0488347197	 0.385157
C	-1.3166669124	 1.9657922114	 0.0981226504	-0.197699
O	-1.1751789717	 3.0702792207	 0.9834785868	-0.248523
C	-0.1851385202	 3.9597752276	 0.5656205813	 0.104299
C	 1.0405569399	 4.0782148167	 1.4294248242	-0.319765
C	 1.1050720807	 3.349430739	 0.0975812391	-0.024851
N	 1.1102926693	 1.9206783646	 0.0587789349	-0.309459
H	-1.6580075054	 2.2906310989	-0.8970735173	 0.11717
H	-2.0728744528	 1.3044104685	 0.5222215635	 0.145655
H	-0.5597677885	 4.8425688947	 0.0498975707	 0.099342
H	 1.527263893	 5.0435489921	 1.5104534061	 0.120382
H	 1.0523465113	 3.4637914643	 2.3218568322	 0.134318
H	 1.629505718	 3.8346357431	-0.7216204479	 0.108663
H	 1.9855155615	 1.4167617768	 0.044380665	 0.251726
100.5612	197.0013	309.6866	423.915	452.1282	474.4862	515.5201	534.644	640.7418	722.1749	796.7836	830.2718	872.2802	905.0449	992.7248	1035.9882	1044.3136	1060.5675	1077.5874	1130.2913	1148.1007	1185.3487	1241.8201	1264.173	1328.414	1367.4162	1392.7355	1409.9233	1447.2905	1472.3638	1486.3996	1809.3051	2992.2248	3112.7412	3133.2753	3135.327	3143.2948	3240.7065	3603.3626
O=C1COC2CC2N1	O=C1CO[C@H]2C[C@H]2N1	
InChI=1S/C5H7NO2/c7-5-2-8-4-1-3(4)6-5/h3-4H,1-2H2,(H,6,7)	InChI=1S/C5H7NO2/c7-5-2-8-4-1-3(4)6-5/h3-4H,1-2H2,(H,6,7)/t3-,4+/m1/s1
