18
gdb 114379	6.48149	0.77676	0.73654	4.5369	75.42	-0.2408	0.0034	0.2441	1503.234	0.146599	-439.047056	-439.038255	-439.037311	-439.081016	31.895	
O	 0.0918393085	 1.283633449	-0.3244054079	-0.417554
C	 0.0207507639	-0.0797016654	 0.0592940951	-0.099505
C	-1.4439077285	-0.47603781	 0.0765899275	 0.007968
C	-2.1081253969	-0.4973287099	-1.3496600673	-0.253538
C	-2.305951852	-2.012321148	-1.2096596319	-0.028771
C	-1.6732606893	-1.9950637086	 0.1614732636	-0.077591
N	-3.1021097315	-2.2295611936	-0.0145846068	-0.077262
C	-3.7309254669	-3.4271439616	 0.2723522911	 0.133379
O	-4.3348069512	-4.1052894671	-0.5241003104	-0.29533
H	 1.0178271283	 1.5395920286	-0.3657446898	 0.290198
H	 0.5700030259	-0.7249638302	-0.6473564711	 0.085564
H	 0.4594190139	-0.2404883659	 1.0577695637	 0.089805
H	-1.9798884401	 0.1048385966	 0.8314000825	 0.093386
H	-3.0231818037	 0.0836122913	-1.4769698211	 0.118081
H	-1.3930042123	-0.2244748955	-2.1277282174	 0.119366
H	-2.2841775636	-2.7808309497	-1.9717725975	 0.122387
H	-1.0560636237	-2.744125989	 0.6464023112	 0.1075
H	-3.6870868108	-3.6581572509	 1.3545271764	 0.081918
69.9324	97.5033	153.6088	180.0155	224.7636	267.5752	293.9717	331.828	439.6985	491.9081	670.2802	748.6494	778.2206	840.6959	864.0419	917.1547	951.1131	970.7108	1009.5759	1033.2984	1045.2404	1059.4846	1083.1595	1113.2477	1151.6767	1181.4116	1207.4082	1229.1358	1257.4969	1261.5576	1276.3187	1299.8554	1351.863	1417.0938	1422.604	1464.2141	1478.7631	1523.5071	1793.1762	2945.8146	2954.3982	2983.1812	3079.3126	3083.7135	3137.6001	3173.6203	3208.4661	3831.4478
OCC1CC2C1N2C=O	OC[C@H]1C[C@H]2[C@@H]1N2C=O	
InChI=1S/C6H9NO2/c8-2-4-1-5-6(4)7(5)3-9/h3-6,8H,1-2H2	InChI=1S/C6H9NO2/c8-2-4-1-5-6(4)7(5)3-9/h3-6,8H,1-2H2/t4-,5+,6-,7?/m1/s1
