21
gdb 122033	2.63178	0.75447	0.6104	2.3474	86.72	-0.2514	-0.0311	0.2202	1848.5294	0.178554	-387.073322	-387.06227	-387.061326	-387.111002	38.437	
C	 0.0231939648	 1.585683487	 0.0455959066	-0.381204
C	-0.0042954378	 0.0567244994	-0.0297660455	-0.172365
C	-1.4226659461	-0.520076999	 0.0422116645	-0.172529
C	-1.4439463715	-2.0504206512	-0.022552512	-0.204787
C	-2.8774559128	-2.6516517603	 0.0364497359	-0.257622
C	-3.633921773	-2.2860885319	-1.244542229	 0.172289
O	-4.5103724505	-1.4675275933	-1.3056680713	-0.244651
C	-2.8472148262	-4.1030937227	 0.1702329386	 0.289355
C	-2.8217068733	-5.3034832315	 0.2324106201	-0.428424
H	 1.0467122668	 1.9689348441	-0.0095886591	 0.113295
H	-0.5453829505	 2.032403912	-0.7773571217	 0.118173
H	-0.4169107481	 1.9438121028	 0.982812791	 0.116126
H	 0.4738147543	-0.2736785799	-0.961406678	 0.097077
H	 0.599718734	-0.3629309016	 0.7855569547	 0.096917
H	-1.9037157641	-0.1911228397	 0.9733415875	 0.101249
H	-2.0287171937	-0.1012188538	-0.7710952083	 0.112773
H	-0.9533543358	-2.4016819842	-0.9395859235	 0.110465
H	-0.8711564357	-2.4724927126	 0.8101221475	 0.118288
H	-3.42472016	-2.2011099812	 0.8724987917	 0.123744
H	-3.2800530231	-2.8395402138	-2.1431269384	 0.09023
H	-2.8043744977	-6.3625744487	 0.3094021187	 0.201602
43.8576	59.1606	74.8143	96.4543	137.802	173.267	210.3204	242.5311	283.2844	357.7118	394.2129	455.7531	505.4668	562.9917	633.9959	650.2878	731.6922	781.3497	889.2455	901.2641	948.6068	981.8378	1006.7068	1023.3239	1066.1003	1080.4986	1126.9593	1152.3924	1226.7298	1260.8711	1280.9259	1315.1179	1328.319	1334.8323	1365.3124	1400.3018	1413.3001	1417.1155	1483.42	1486.14	1499.0407	1499.7591	1512.4435	1837.431	2233.7583	2884.3132	3011.7442	3018.0115	3029.9082	3031.702	3037.9349	3050.0875	3057.8015	3081.5273	3098.4816	3104.1519	3503.9805
CCCCC(C=O)C#C	CCCC[C@@H](C=O)C#C	
InChI=1S/C8H12O/c1-3-5-6-8(4-2)7-9/h2,7-8H,3,5-6H2,1H3	InChI=1S/C8H12O/c1-3-5-6-8(4-2)7-9/h2,7-8H,3,5-6H2,1H3/t8-/m0/s1
