21
gdb 73307	3.04152	1.50085	1.31333	1.1583	81.45	-0.24	0.0754	0.3155	1068.8416	0.18323	-387.079208	-387.071077	-387.070133	-387.111021	33.453	
C	-0.0375281713	 1.4454241985	 0.0411672625	-0.491213
C	-0.0073858657	-0.0632285341	-0.0236297362	 0.363449
C	 1.0256559958	-0.7362479798	-0.9409210132	-0.296538
C	 0.3606877692	-2.0698745081	-1.3633914172	-0.267298
C	-0.7369508081	-2.2731336961	-0.3089813504	 0.408204
O	-1.715191569	-3.2288547087	-0.6171257601	-0.498027
C	-0.1179875595	-2.3081727374	 1.1323272355	-0.306895
C	-0.4142093581	-0.8122121885	 1.2406084992	-0.100671
C	-1.2866843622	-0.8536478575	-0.0051949556	-0.155721
H	 0.9087836988	 1.8440267617	 0.4257995534	 0.116179
H	-0.2013188952	 1.881361534	-0.9511246262	 0.114784
H	-0.8377787379	 1.8014401586	 0.6980640635	 0.11584
H	 1.2375095576	-0.1036298297	-1.8088488201	 0.096895
H	 1.9797314119	-0.8944622643	-0.4253978798	 0.097648
H	-0.109884291	-1.9804676075	-2.3486994801	 0.100956
H	 1.0655331981	-2.9090633094	-1.3993849015	 0.0837
H	-1.2761894051	-4.077503949	-0.7402012277	 0.274946
H	-0.7666881414	-2.8871883384	 1.7948589468	 0.103824
H	 0.918838506	-2.6503725664	 1.2399540985	 0.078701
H	-0.5878264948	-0.2689836625	 2.1631534907	 0.077214
H	-2.2869957182	-0.4866382951	-0.1934403218	 0.084022
195.1335	208.0572	226.955	232.2009	293.7189	324.9233	382.6633	418.3288	444.3597	547.4032	581.6645	634.8833	715.624	789.5279	833.9445	863.7409	870.1856	910.1453	927.4358	950.7834	982.016	994.3218	1012.5513	1035.1585	1052.7071	1097.122	1116.9464	1148.9482	1152.894	1202.5353	1211.5142	1236.3543	1243.8018	1261.1526	1287.1138	1320.2145	1327.9555	1387.3048	1411.9923	1418.9286	1484.6038	1485.5943	1491.5437	1501.6925	1509.678	3019.7036	3021.2495	3027.803	3040.0618	3065.8167	3079.5913	3085.1088	3096.3208	3098.1112	3163.0499	3202.3919	3803.0441
CC12CCC3(O)CC1C23	C[C@@]12CC[C@@]3(O)C[C@@H]1[C@@H]23	
InChI=1S/C8H12O/c1-7-2-3-8(9)4-5(7)6(7)8/h5-6,9H,2-4H2,1H3	InChI=1S/C8H12O/c1-7-2-3-8(9)4-5(7)6(7)8/h5-6,9H,2-4H2,1H3/t5-,6+,7-,8-/m1/s1
