18
gdb 82283	2.43601	1.8452	1.17996	4.4015	78.36	-0.2367	-0.0516	0.1851	1049.799	0.149163	-401.95998	-401.952153	-401.951209	-401.992393	30.417	
C	 0.2306375785	 1.5783205714	-0.0224997755	-0.393562
C	 0.0899975801	 0.0518553765	 0.0033154342	-0.115779
C	 0.6952734897	-0.5927948801	-1.2270584304	-0.036842
N	 2.1568824487	-0.6815219865	-1.2634216367	-0.32657
C	 1.3474152995	-1.9293348763	-1.1292049533	-0.110171
C	 1.4016755246	-2.5905733791	 0.1914636384	-0.011394
C	 1.089918655	-1.9386927972	 1.3184097563	-0.166166
C	 0.6125423699	-0.5392023114	 1.3257076583	 0.378552
O	 0.5569811564	 0.0990762879	 2.3584143889	-0.340771
H	 1.285222114	 1.854773904	-0.1133111303	 0.133019
H	-0.3128018355	 2.0050751487	-0.871255687	 0.102761
H	-0.1575545641	 2.0076439859	 0.9019705294	 0.14178
H	-0.9820576974	-0.202570689	 0.0050193408	 0.104637
H	 0.1823703976	-0.3629376874	-2.1595934018	 0.090095
H	 2.4895071605	-0.5980777448	-2.2214209025	 0.236055
H	 1.3063438461	-2.5834444998	-1.99518114	 0.092917
H	 1.7325981246	-3.6253901002	 0.2264277718	 0.109298
H	 1.1901261216	-2.3989653926	 2.2959991294	 0.112141
64.5336	185.9973	206.5399	269.1883	293.956	371.432	427.124	491.7268	520.2248	606.3477	654.749	722.6714	778.9194	822.7602	837.0257	855.6581	928.2192	944.5721	958.8861	1011.4393	1034.8186	1091.3032	1098.9174	1119.7993	1151.3412	1167.0474	1202.4803	1232.6796	1260.6331	1306.0135	1339.0092	1388.707	1397.6898	1420.2329	1458.8507	1490.2911	1504.4098	1683.3487	1767.995	2988.2945	3045.3024	3112.373	3116.5879	3146.4277	3148.1621	3163.2912	3193.1861	3494.0036
CC1C2NC2C=CC1=O	C[C@H]1[C@H]2N[C@H]2C=CC1=O	
InChI=1S/C7H9NO/c1-4-6(9)3-2-5-7(4)8-5/h2-5,7-8H,1H3	InChI=1S/C7H9NO/c1-4-6(9)3-2-5-7(4)8-5/h2-5,7-8H,1H3/t4-,5+,7-/m1/s1
