20
gdb 118278	1.72988	1.32449	0.93674	2.9907	75.69	-0.2535	0.0154	0.2689	1353.8781	0.168148	-440.274822	-440.264139	-440.263195	-440.312071	36.713	
C	-1.1328620375	-0.8815746123	 1.3117943777	-0.251608
O	 0.2592313991	-0.7941041661	 1.5471923662	-0.238063
C	 1.0083220864	-0.3139590186	 0.4442968429	-0.066714
C	 1.3466867169	-1.3798467736	-0.6058427613	 0.089783
C	 1.9958327763	-0.7548056565	-1.8353108971	-0.399554
O	 2.2928785345	-2.3338498113	-0.1046345804	-0.256251
C	 1.8078655188	-3.2855034605	 0.8142722404	-0.186092
C	 0.7717432492	-4.1658661325	 0.2355011434	 0.244963
N	-0.0537645536	-4.8342377258	-0.2201699157	-0.315725
H	-1.3872016601	-1.6259494694	 0.5446925604	 0.12529
H	-1.5974028856	-1.1823683433	 2.2535928688	 0.134733
H	-1.5452052474	 0.091751861	 1.0057331921	 0.111008
H	 0.4779208524	 0.5202700383	-0.0419966952	 0.091211
H	 1.9473230926	 0.0724448108	 0.8561522984	 0.115576
H	 0.4307626391	-1.9088595189	-0.9070621952	 0.097096
H	 1.308853812	-0.0588047066	-2.3246932277	 0.120949
H	 2.9038904108	-0.2103759707	-1.5569054404	 0.128139
H	 2.2710311139	-1.5339886196	-2.5493103527	 0.13585
H	 2.6659733678	-3.9011249635	 1.1012105985	 0.153664
H	 1.3928670844	-2.819849691	 1.714682947	 0.165744
23.7602	60.7003	101.6029	123.9337	175.0672	204.142	218.2223	260.061	318.5172	328.8299	375.789	418.1484	459.0116	524.5211	630.2998	808.674	891.158	900.0437	926.9381	966.1591	1041.1515	1083.6714	1112.7579	1139.4664	1153.3793	1167.6023	1182.4442	1223.3747	1296.3834	1322.8486	1333.6701	1379.4024	1404.7995	1411.5242	1416.5292	1467.8403	1474.065	1483.2657	1487.0668	1494.7761	1501.3874	1508.8815	2352.891	2978.8296	2987.171	3005.346	3042.6707	3046.3315	3051.1519	3072.8731	3097.3602	3117.9176	3120.5815	3133.253
COCC(C)OCC#N	COC[C@@H](C)OCC#N	
InChI=1S/C6H11NO2/c1-6(5-8-2)9-4-3-7/h6H,4-5H2,1-2H3	InChI=1S/C6H11NO2/c1-6(5-8-2)9-4-3-7/h6H,4-5H2,1-2H3/t6-/m1/s1
