19
gdb 36618	5.29458	0.7523	0.72119	5.0016	80.67	-0.2643	0.039	0.3033	1567.157	0.160292	-382.05043	-382.041796	-382.040852	-382.084634	31.866	
N	 0.002481304	-1.2097525606	 0.1841247416	-0.306186
C	 0.0180756813	-0.0547374795	 0.2207877198	 0.256513
C	 0.0596883835	 1.4045364426	 0.2532245099	-0.339217
C	 1.400007097	 1.974973236	-0.2643822731	-0.299368
C	 1.3988063276	 3.4757110068	-0.236446759	 0.359837
C	 0.7176627274	 4.4176466848	-1.250593489	-0.299334
C	 1.8799861486	 5.4432380796	-1.0308461816	-0.234283
C	 2.5076253517	 4.469877589	-0.0237604708	-0.099777
N	 1.5727513156	 4.1462619558	 1.0511344597	-0.35648
H	-0.7752837458	 1.7871712065	-0.3453877706	 0.149987
H	-0.1028586998	 1.7421329026	 1.2825769698	 0.165599
H	 2.2121986441	 1.6022442657	 0.3661717073	 0.132876
H	 1.5814817161	 1.6157369375	-1.2831283925	 0.119065
H	 0.7070253335	 4.0203608154	-2.2688165565	 0.112263
H	-0.2960419805	 4.7437826211	-0.9937519998	 0.097875
H	 2.4818477547	 5.5850423996	-1.9312746298	 0.113842
H	 1.6120122421	 6.4270831163	-0.631618965	 0.102781
H	 3.5647940606	 4.3125287968	 0.1595289908	 0.100059
H	 0.8933712184	 4.888106554	 1.2140308689	 0.223949
59.002	80.5178	101.2888	197.9232	252.2353	323.7672	387.9734	405.9041	474.7249	522.9759	708.5237	755.6441	768.6373	784.8839	833.7984	923.1566	933.4128	950.1508	965.5813	983.3411	1011.0407	1048.5073	1066.5849	1102.2229	1125.1733	1178.5394	1191.4777	1222.3562	1231.5065	1251.8747	1279.2769	1284.7828	1299.3215	1336.2847	1370.7768	1441.7204	1468.3754	1478.6043	1483.1974	1501.0413	2361.6944	3039.7902	3042.1717	3050.7411	3052.3806	3081.4074	3095.9039	3105.7553	3114.5208	3175.8189	3453.9597
N#CCCC12CCC1N2	N#CCC[C@]12CC[C@H]1N2	
InChI=1S/C7H10N2/c8-5-1-3-7-4-2-6(7)9-7/h6,9H,1-4H2	InChI=1S/C7H10N2/c8-5-1-3-7-4-2-6(7)9-7/h6,9H,1-4H2/t6-,7+/m1/s1
