21
gdb 93873	1.95015	1.72832	1.00953	4.2977	83.38	-0.228	0.0317	0.2597	1229.5827	0.183206	-383.290547	-383.281152	-383.280208	-383.325765	34.714	
C	 0.0245029046	 1.6211052218	-0.1413904792	-0.412484
C	-0.0184252145	 0.0947801039	-0.140608168	-0.003336
C	 0.8379895661	-0.5713855183	-1.2365628989	-0.217375
C	 1.1285532576	-1.9518825679	-0.6558408491	-0.158957
N	 1.4062511932	-1.6527473244	 0.7436817885	-0.051081
C	 1.5129764665	-2.7887665953	 1.6349491311	-0.33434
C	 0.4736489649	-0.6097735529	 1.1769342231	-0.120228
C	 1.1293400073	 0.287788029	 2.1431516961	 0.305276
N	 1.6309174642	 0.9838145309	 2.9176524085	-0.343249
H	 1.0437163566	 1.9899863192	 0.0070765662	 0.139719
H	-0.340464739	 2.0046335018	-1.099443277	 0.115725
H	-0.6009122831	 2.0452596895	 0.6498034662	 0.128433
H	-1.0574656824	-0.2222774923	-0.2814535185	 0.087092
H	 0.3212783451	-0.6071945628	-2.1987257176	 0.104104
H	 1.7753170297	-0.0213217699	-1.3706539172	 0.114834
H	 0.2541604742	-2.6206454285	-0.782017448	 0.077341
H	 1.9911260429	-2.448553998	-1.1120009234	 0.109267
H	 2.2815011254	-3.4740653037	 1.2651927456	 0.126046
H	 1.8143932436	-2.453830431	 2.6321900905	 0.138616
H	 0.5660967272	-3.3538992857	 1.7315609282	 0.094609
H	-0.4034425501	-1.0332662753	 1.698772893	 0.099987
14.8817	138.5694	182.084	200.272	241.8907	245.7489	274.7176	330.2978	369.5606	413.3749	475.7342	560.5914	590.3717	628.7565	796.3033	852.3503	909.6139	915.5504	961.055	993.	1001.3531	1056.3102	1097.2174	1135.9779	1142.5902	1155.666	1201.9743	1211.5245	1245.0594	1263.2262	1310.5774	1326.0494	1340.2983	1362.6023	1380.7381	1381.942	1419.897	1461.1214	1487.7913	1492.395	1495.5367	1499.1715	1501.1547	1523.8699	2353.8422	2906.8625	2925.8294	2929.7735	3039.0631	3040.5673	3053.1021	3066.4515	3068.8396	3108.0057	3108.9215	3110.5251	3117.3957
CC1CCN(C)C1C#N	C[C@H]1CCN(C)[C@H]1C#N	
InChI=1S/C7H12N2/c1-6-3-4-9(2)7(6)5-8/h6-7H,3-4H2,1-2H3	InChI=1S/C7H12N2/c1-6-3-4-9(2)7(6)5-8/h6-7H,3-4H2,1-2H3/t6-,7-/m0/s1
