18
gdb 40038	3.59874	1.5454	1.43404	2.0036	74.08	-0.2268	0.0867	0.3135	956.6275	0.149801	-401.879272	-401.872667	-401.871723	-401.910087	27.49	
C	 0.080129911	 1.5368643014	 0.0152732653	-0.257286
O	 1.2119771415	 0.6569836758	-0.0215216648	-0.289861
C	-0.094025907	 0.0805917753	 0.015578218	 0.439373
C	-0.4846874568	-0.7776529453	 1.2324197793	-0.265494
N	-1.4373297229	-1.7812192236	 0.7228081307	-0.130481
C	-2.636634398	-1.0718359158	 0.1311546568	-0.184094
C	-2.0096219777	-1.1629175568	-1.2508951053	-0.095374
C	-0.9702434345	-2.0866579874	-0.669797978	-0.043415
C	-0.541085637	-0.7373301123	-1.1684689189	-0.131177
H	-0.0421238751	 2.100054419	 0.9404031024	 0.110921
H	-0.097969152	 2.1060646636	-0.8969567475	 0.111324
H	 0.41063398	-1.2853672632	 1.6085155093	 0.121684
H	-0.9292509047	-0.2076047322	 2.0526113586	 0.11003
H	-3.5279139958	-1.6969408728	 0.2359796702	 0.112566
H	-2.8407578	-0.0799009237	 0.5512274208	 0.100026
H	-2.5234254413	-1.2269051483	-2.2025994162	 0.092221
H	-0.5919066639	-3.0575442764	-0.9608709492	 0.09742
H	-0.0078213558	-0.6385152575	-2.1062200615	 0.101618
116.3728	259.4757	327.0251	370.5194	403.4996	505.2202	517.492	672.7491	753.3796	768.4479	810.0338	827.946	848.392	871.9421	916.4923	919.9837	959.2809	984.7299	1000.8994	1027.2104	1042.8203	1063.6677	1071.5182	1102.9341	1118.4916	1129.0353	1162.179	1196.2454	1214.0719	1233.7842	1246.3127	1285.6471	1308.1404	1317.3612	1362.5575	1437.0505	1484.2715	1510.2618	1533.1145	3029.6331	3045.9333	3072.8782	3086.8983	3102.7505	3157.7626	3180.3409	3192.728	3205.7374
C1OC11CN2CC3C2C13	C1O[C@]21CN1C[C@@H]3[C@H]1[C@H]23	
InChI=1S/C7H9NO/c1-4-5-6(4)8(1)2-7(5)3-9-7/h4-6H,1-3H2	InChI=1S/C7H9NO/c1-4-5-6(4)8(1)2-7(5)3-9-7/h4-6H,1-3H2/t4-,5+,6-,7-/m0/s1
