21
gdb 31694	4.55151	0.82531	0.75489	0.5789	87.27	-0.2074	0.0267	0.234	1613.8923	0.182303	-387.137867	-387.128249	-387.127305	-387.173224	34.993	
C	 0.0887897918	 1.533421112	 0.2244983997	-0.370702
C	-0.0168062492	 0.0337735339	-0.1029490256	-0.290333
C	-1.421150174	-0.4563530852	-0.1942786885	 0.38985
C	-2.1743910192	-0.9696097979	-1.2039908119	-0.395331
C	-3.4812614305	-1.2449342149	-0.6635652575	 0.276543
C	-4.6619515088	-1.8325976924	-1.3787275364	-0.299825
C	-4.4454738838	-3.2912684383	-1.8151302665	-0.364497
C	-3.4083798462	-0.8716884834	 0.640931441	-0.129351
O	-2.1694763165	-0.3914850043	 0.9460747652	-0.187904
H	 1.1361287414	 1.8401396304	 0.3041438038	 0.111315
H	-0.3875035294	 2.1373939026	-0.5537966339	 0.120601
H	-0.4059498949	 1.7571386385	 1.173539267	 0.131861
H	 0.4753920259	-0.1793452948	-1.0572612061	 0.11191
H	 0.5217314513	-0.5405605038	 0.6623806682	 0.1153
H	-1.844582229	-1.1326836566	-2.2192315432	 0.100629
H	-5.5422284215	-1.7737192454	-0.7284315602	 0.100728
H	-4.8951872455	-1.2260702805	-2.2635228412	 0.10577
H	-3.5850162369	-3.3794921277	-2.4859701998	 0.118279
H	-4.2566732386	-3.9330022901	-0.9490181814	 0.119938
H	-5.3240526029	-3.6766808617	-2.3422309419	 0.10978
H	-4.1209733935	-0.8802844404	 1.449891129	 0.125439
46.5373	65.1851	110.5698	171.1212	181.174	217.2218	287.2725	358.8821	389.0507	429.3928	577.7247	659.8287	679.1204	719.9479	740.4945	784.1754	790.6432	814.7934	940.3119	953.7542	978.8681	1007.7505	1065.3567	1067.6119	1088.1248	1090.3201	1163.471	1169.2232	1229.4129	1276.2182	1287.3841	1310.2227	1354.256	1362.3762	1403.0786	1407.6082	1417.363	1475.2034	1484.2453	1495.4172	1496.1917	1506.0178	1506.9541	1585.5676	1658.0361	3020.1743	3021.7933	3035.5646	3040.8322	3059.4279	3078.1016	3105.9642	3110.5611	3111.5549	3122.1603	3243.3894	3268.7472
CCC1=CC(CC)=CO1	CCc1cc(CC)co1	
InChI=1S/C8H12O/c1-3-7-5-8(4-2)9-6-7/h5-6H,3-4H2,1-2H3	InChI=1S/C8H12O/c1-3-7-5-8(4-2)9-6-7/h5-6H,3-4H2,1-2H3
