18
gdb 15368	5.3819	0.93295	0.87034	3.8246	70.13	-0.2415	-0.016	0.2255	1329.4316	0.15125	-384.920333	-384.911365	-384.91042	-384.954933	31.12	
C	 0.1336590629	 1.0763711194	-0.5200864917	-0.232536
O	-0.1202103638	 0.1135522171	 0.4845187375	-0.234747
C	-1.3809230405	-0.4636525225	 0.382599209	 0.116368
C	-1.5857910421	-1.6136290644	-0.5731400384	-0.324925
C	-1.5329238747	-1.8520856201	 0.9292511814	-0.061519
C	-0.3487949526	-2.5628426002	 1.5577741384	-0.293128
C	-0.4072242198	-4.0602181528	 1.3475618868	 0.165238
O	-0.2842873187	-4.8847926273	 2.2164882946	-0.241763
H	 1.1413798587	 1.4611372822	-0.348458723	 0.130636
H	 0.0793427455	 0.6370193675	-1.5262504487	 0.110991
H	-0.5806971184	 1.9114112141	-0.4674367606	 0.10981
H	-2.2061419098	 0.2351617421	 0.5284818009	 0.089868
H	-2.5333659364	-1.715999282	-1.090049843	 0.117124
H	-0.7182312358	-1.917115059	-1.1501937124	 0.120161
H	-2.4859650721	-2.0600876777	 1.4076870232	 0.100409
H	 0.5728257516	-2.1896516443	 1.0931620223	 0.133694
H	-0.2813847776	-2.3640837065	 2.6314966683	 0.123016
H	-0.5800355666	-4.3653835555	 0.2890109154	 0.071303
56.3507	68.5399	115.2671	137.9491	200.3806	227.1637	301.3056	369.1299	475.6344	499.2636	591.2747	761.1728	790.9202	832.411	890.2184	945.7111	1001.268	1019.8598	1054.2334	1082.4359	1105.1647	1133.9987	1156.0206	1173.1646	1184.0998	1220.144	1241.9739	1261.5651	1290.0364	1377.3367	1410.4956	1429.6068	1458.7251	1474.8381	1486.683	1491.8222	1508.9981	1834.1415	2860.4334	2986.9325	3038.5848	3038.9867	3087.3215	3097.0442	3121.9244	3132.5053	3146.9123	3221.2104
COC1CC1CC=O	CO[C@H]1C[C@H]1CC=O	
InChI=1S/C6H10O2/c1-8-6-4-5(6)2-3-7/h3,5-6H,2,4H2,1H3	InChI=1S/C6H10O2/c1-8-6-4-5(6)2-3-7/h3,5-6H,2,4H2,1H3/t5-,6+/m1/s1
