16
gdb 117619	2.19108	1.10818	0.91673	3.6893	71.38	-0.2751	-0.0149	0.2601	1316.1013	0.119923	-437.83836	-437.827852	-437.826908	-437.87423	36.4	
O	-0.1261550102	 1.4935925716	 0.0580378074	-0.423841
C	 0.0354485713	 0.0838792476	 0.0395467108	-0.101797
C	-1.365787226	-0.5089353584	-0.069237729	-0.190345
C	-1.3857224256	-2.0575288425	-0.0087190304	 0.002754
O	-0.7538613176	-2.5390519801	 1.1780421338	-0.434395
C	-2.7687943349	-2.5446602466	-0.1027775025	 0.301128
C	-3.9119968265	-2.9113742543	-0.1191360461	-0.419606
C	-0.6000859668	-2.6152321825	-1.1377572418	 0.321159
N	 0.0083835117	-3.0148539127	-2.0336813639	-0.339203
H	 0.7470097024	 1.8934679859	 0.1059218674	 0.290839
H	 0.6460152979	-0.2409151732	-0.8159858207	 0.114268
H	 0.51942817	-0.2839813035	 0.9545001305	 0.107973
H	-1.9806343895	-0.141878053	 0.7591091397	 0.120218
H	-1.8398076345	-0.1784070434	-0.998307783	 0.136195
H	-1.410402507	-2.5017966549	 1.8831493239	 0.298483
H	-4.9189579947	-3.2501853701	-0.1493301261	 0.216172
73.2968	96.1033	113.2374	127.9955	144.4371	193.9372	228.5107	250.2871	291.468	353.5425	415.7977	480.9111	521.8682	570.8207	626.9214	657.7231	693.0166	746.4183	801.9119	959.6444	997.6651	1053.6505	1087.3303	1103.2242	1139.3921	1224.1737	1250.2219	1306.814	1330.6547	1383.7454	1464.3833	1478.2158	1533.2911	2241.1205	2368.4697	2993.8493	3032.4676	3056.0349	3107.0466	3496.8764	3809.8775	3833.6634
OCCC(O)(C#C)C#N	OCC[C@@](O)(C#C)C#N	
InChI=1S/C6H7NO2/c1-2-6(9,5-7)3-4-8/h1,8-9H,3-4H2	InChI=1S/C6H7NO2/c1-2-6(9,5-7)3-4-8/h1,8-9H,3-4H2/t6-/m0/s1
