19
gdb 56848	2.82406	1.24872	1.0376	4.9429	78.94	-0.2437	0.0316	0.2753	1208.6632	0.159876	-382.036169	-382.027527	-382.026583	-382.07004	32.193	
C	 0.3341710271	 0.5540275602	-1.3422309488	-0.399578
C	 0.0374970788	 0.048765402	 0.0853568861	-0.189249
C	 0.1634575385	 1.1425329931	 1.0579051195	 0.287017
N	 0.2666768756	 2.0106761558	 1.813722506	-0.321953
C	-1.3559117716	-0.5693051006	 0.1536431346	 0.027319
C	-1.6565101206	-1.994114336	-0.0981231298	-0.052477
C	-0.5846570501	-2.9374931313	 0.4451276901	-0.258211
C	-0.7802111698	-2.2267104618	 1.8075323824	-0.158736
N	-1.8937782896	-1.3589965942	 1.2738788292	-0.151088
H	 1.3304558219	 0.9983949111	-1.3994980425	 0.139749
H	 0.2804681433	-0.2816169804	-2.0449386527	 0.131607
H	-0.3952260531	 1.3099330734	-1.6457284467	 0.141336
H	 0.7941277415	-0.6969303422	 0.3471415155	 0.128429
H	-2.1200950026	 0.1199485071	-0.201570344	 0.111377
H	-2.483336779	-2.2959942163	-0.7338679536	 0.101366
H	-0.9151304499	-3.9769691014	 0.466365052	 0.120345
H	 0.4004657106	-2.9019548243	-0.0314820979	 0.105119
H	-1.1822667118	-2.8789267183	 2.5838876674	 0.121172
H	 0.0626298611	-1.669675846	 2.2273496233	 0.116457
41.1392	125.5832	171.6581	218.3281	221.5118	273.5352	310.2013	433.408	491.1687	541.6621	595.7827	748.6027	779.4024	786.2981	793.9414	845.5469	904.9092	962.7191	969.905	1007.9068	1015.3502	1064.909	1081.9989	1099.0397	1128.7424	1152.3452	1177.8206	1216.4532	1250.9499	1270.1228	1289.4453	1299.662	1324.0898	1362.4005	1407.8586	1445.0287	1491.1712	1492.8592	1499.218	1514.6708	2357.5013	3047.6978	3049.7593	3060.4107	3070.8647	3110.7427	3125.0533	3127.6733	3129.3985	3132.5408	3158.6758
CC(C#N)C1C2CCN12	C[C@@H](C#N)[C@H]1[C@H]2CCN12	
InChI=1S/C7H10N2/c1-5(4-8)7-6-2-3-9(6)7/h5-7H,2-3H2,1H3	InChI=1S/C7H10N2/c1-5(4-8)7-6-2-3-9(6)7/h5-7H,2-3H2,1H3/t5-,6+,7-,9?/m0/s1
