16
gdb 103056	2.64336	1.55296	1.17572	2.9069	69.93	-0.2534	0.004	0.2574	1052.9944	0.1231	-437.829807	-437.821476	-437.820532	-437.862894	30.273	
C	 0.1506478792	 1.1000269068	 0.4058471302	-0.265233
O	-0.0792885578	-0.106572531	-0.3204115698	-0.277918
C	-1.3337931494	-0.6486080886	-0.1176690912	 0.274971
C	-2.4230989705	 0.0120976687	-0.8094100181	 0.246984
N	-3.286645273	 0.5646029676	-1.345642983	-0.341223
C	-1.4685442725	-2.1554384304	 0.0001730102	-0.208763
C	-0.2776076738	-2.6612278204	 0.8102125141	-0.105539
O	-0.5782946325	-1.7359649729	 1.8971844678	-0.283137
C	-1.7307707309	-1.2878559488	 1.2126326899	 0.028557
H	 1.1644098819	 1.4181188967	 0.1574476009	 0.138074
H	-0.5562341676	 1.884279219	 0.1071240182	 0.13186
H	 0.0745706821	 0.9234930653	 1.4845648467	 0.136148
H	-2.1219567622	-2.7362516566	-0.6351854441	 0.131488
H	-0.4013610393	-3.693200207	 1.150726832	 0.125636
H	 0.718569235	-2.5011171096	 0.3923026623	 0.135422
H	-2.6174312786	-1.0282256388	 1.778984164	 0.132673
96.2072	144.7697	151.4922	179.5387	209.0504	284.8599	351.6914	459.133	487.4997	552.9432	596.7861	702.7495	799.5162	836.4854	921.2557	943.8059	977.2217	992.7656	1027.175	1065.9036	1074.2648	1109.4923	1151.276	1164.9332	1178.1401	1219.9412	1245.3307	1266.3082	1309.5027	1388.2695	1477.1012	1490.9768	1498.9205	1501.6433	2343.3804	3016.7453	3058.4874	3087.0364	3123.1055	3140.0815	3189.3866	3219.5445
COC1(C#N)C2COC12	CO[C@@]1(C#N)[C@H]2CO[C@@H]12	
InChI=1S/C6H7NO2/c1-8-6(3-7)4-2-9-5(4)6/h4-5H,2H2,1H3	InChI=1S/C6H7NO2/c1-8-6(3-7)4-2-9-5(4)6/h4-5H,2H2,1H3/t4-,5+,6-/m0/s1
