17
gdb 60854	2.49471	1.32978	1.04032	2.7223	65.2	-0.233	-0.051	0.182	1154.632	0.132563	-496.075803	-496.066555	-496.065611	-496.109801	34.622	
O	-0.4990771555	 1.2716101179	 0.1532376997	-0.44002
C	-0.066681082	-0.06293929	 0.0368009229	-0.008958
C	 0.8684150011	-0.1759430434	-1.1508510829	 0.137747
O	 1.1601544376	 0.7931701056	-1.8113605888	-0.26291
C	 0.636977217	-0.5707994312	 1.3061519664	 0.277863
O	 0.8972350424	-1.9496215024	 1.2356439804	-0.463316
C	 1.5977509921	 0.3353489977	 2.0509340035	-0.403331
C	 0.2502283311	-0.0220836504	 2.6541260667	 0.11101
O	-0.7587409953	 0.9038485815	 2.8619353815	-0.429235
H	-0.0380542498	 1.7601879019	-0.550366138	 0.303327
H	-0.9246643964	-0.7309595859	-0.1431487157	 0.119809
H	 1.277955082	-1.1798358517	-1.3671034588	 0.109811
H	 1.8207211264	-2.0758777341	 0.993007384	 0.288115
H	 2.492842058	-0.1050483425	 2.4794291689	 0.1141
H	 1.7162974347	 1.3434171747	 1.6664369388	 0.124221
H	 0.2706713861	-0.7603254914	 3.4497400794	 0.119395
H	-0.8575656096	 1.4155329935	 2.046640042	 0.302373
58.6512	115.9237	194.4415	215.1591	256.2185	276.0174	338.2639	353.4121	383.6687	466.3874	472.3422	497.855	534.3512	571.3958	676.1296	780.1507	816.0236	874.4098	917.4889	924.7804	992.879	1028.7507	1047.1864	1101.0478	1141.5933	1172.8201	1198.7757	1259.0476	1306.1808	1317.9002	1334.7918	1369.5665	1383.9219	1429.236	1441.0594	1489.0082	1805.7636	2967.7979	2988.1297	3122.6002	3167.7986	3217.1039	3647.7198	3734.2694	3800.4039
OC(C=O)C1(O)CC1O	O[C@@H](C=O)[C@@]1(O)C[C@H]1O	
InChI=1S/C5H8O4/c6-2-4(8)5(9)1-3(5)7/h2-4,7-9H,1H2	InChI=1S/C5H8O4/c6-2-4(8)5(9)1-3(5)7/h2-4,7-9H,1H2/t3-,4+,5-/m1/s1
