22
gdb 98590	2.83387	0.99965	0.95654	3.1677	85.86	-0.2407	0.0322	0.2729	1416.649	0.192992	-404.379779	-404.369039	-404.368095	-404.416055	38.32	
C	 0.6549654228	 0.8143653618	 2.3561663652	-0.332758
N	 0.3319421261	-0.4714305396	 1.7731667005	-0.324246
C	-0.9479535589	-0.9551211538	 1.7128540309	 0.441111
O	-1.898365192	-0.3198306438	 2.1531249379	-0.396803
C	-1.0504478824	-2.3011481865	 1.0703810757	-0.168125
C	-2.0643398111	-3.3484290523	 1.5400644763	-0.020035
C	-2.993901457	-3.1273395492	 2.7141239636	-0.416197
C	-2.2479501455	-2.6953321767	 0.2009472768	-0.020063
C	-3.3823974878	-1.7455262927	-0.1189284097	-0.416218
H	 1.1173280831	 1.4834007946	 1.6211720294	 0.122179
H	-0.2803108075	 1.2565809664	 2.7008994326	 0.171207
H	 1.3361292638	 0.7086523797	 3.2084750239	 0.122172
H	 1.0777423926	-1.0317989811	 1.3976149035	 0.243198
H	-0.0962211352	-2.7049662886	 0.7426090853	 0.066735
H	-1.6653468485	-4.3595858666	 1.4956092552	 0.083451
H	-3.2864905792	-2.0825564966	 2.8099723224	 0.161197
H	-3.8942514112	-3.7423525397	 2.6044511467	 0.108626
H	-2.5045843307	-3.422295212	 3.6488533315	 0.110638
H	-1.9588759177	-3.3157192971	-0.6447235592	 0.083453
H	-3.5755203399	-1.0527400477	 0.6990683175	 0.161216
H	-3.143366283	-1.151517196	-1.007840064	 0.11063
H	-4.2974909607	-2.3086129726	-0.334414202	 0.10863
44.7334	72.7681	129.0042	151.2988	168.5382	187.1293	205.7304	233.6008	305.7923	371.1729	375.0788	447.8799	456.4294	516.9378	717.8689	718.4787	782.6616	799.684	863.3198	939.4342	952.2713	985.5752	1042.4863	1075.0919	1090.0262	1118.1411	1137.1142	1154.4657	1157.4878	1171.3156	1195.3662	1222.4201	1273.1277	1377.1912	1403.0407	1418.6201	1422.7591	1435.7038	1441.478	1486.5711	1492.2532	1499.532	1500.8926	1505.6576	1519.0404	1557.1267	1745.9357	3023.2437	3033.1841	3035.5638	3072.7124	3085.5816	3087.1204	3114.9915	3119.459	3136.6399	3153.8921	3159.7835	3166.525	3656.6995
CNC(=O)C1C(C)C1C	CNC(=O)[C@H]1[C@@H](C)[C@H]1C	
InChI=1S/C7H13NO/c1-4-5(2)6(4)7(9)8-3/h4-6H,1-3H3,(H,8,9)	InChI=1S/C7H13NO/c1-4-5(2)6(4)7(9)8-3/h4-6H,1-3H3,(H,8,9)/t4-,5+,6-
