15
gdb 46602	2.80835	1.86325	1.47766	4.9425	63.88	-0.2604	-0.0087	0.2517	894.7083	0.113783	-457.731986	-457.725262	-457.724317	-457.763087	26.255	
O	 0.0095269214	-0.0063109388	 0.10679636	-0.327252
C	 0.0184425733	 1.1804466071	-0.0136567982	 0.393707
O	-1.1366200158	 1.9246813393	-0.1266464806	-0.23838
C	-0.8848939892	 3.2711467559	-0.6156204107	-0.149703
C	 0.6086417398	 3.4818580585	-0.5134532576	 0.098017
C	 1.2507055619	 3.3151660895	 0.8413151743	-0.369706
C	 1.165093628	 2.1437290927	-0.0840243512	 0.24387
O	 2.1985437663	 2.1197282232	-1.0663226141	-0.311312
C	 1.6616864369	 3.3596044671	-1.6263714235	-0.136657
H	-1.2361860502	 3.3319923651	-1.651054339	 0.127952
H	-1.4795392977	 3.9508482308	-0.0002475999	 0.132067
H	 2.2370096253	 3.7299184077	 1.0193163895	 0.142268
H	 0.5781787118	 3.3214560453	 1.6921597341	 0.146918
H	 1.2244237495	 3.180889202	-2.6147624495	 0.124883
H	 2.4252739088	 4.1413196245	-1.6866453034	 0.123327
136.4145	169.987	289.7305	327.1093	373.4441	459.4417	580.1028	630.7328	661.4322	724.1208	766.6397	808.9584	878.95	927.7539	934.6905	959.6445	984.4942	997.2546	1005.2094	1038.7992	1076.9803	1145.0432	1162.3652	1220.9713	1261.7834	1295.3349	1335.0445	1371.0746	1389.6722	1467.0445	1507.3886	1517.5441	1889.0814	3035.5747	3050.7015	3093.4224	3102.6001	3136.4277	3232.1779
O=C1OCC23CC12OC3	O=C1OC[C@@]23C[C@@]12OC3	
InChI=1S/C6H6O3/c7-4-6-1-5(6,2-8-4)3-9-6/h1-3H2	InChI=1S/C6H6O3/c7-4-6-1-5(6,2-8-4)3-9-6/h1-3H2/t5-,6-/m1/s1
