19
gdb 117137	3.84969	0.85786	0.72518	2.8269	76.32	-0.2549	-0.0092	0.2456	1560.0308	0.157726	-456.381499	-456.371263	-456.370319	-456.417554	35.39	
C	-0.2406220401	 1.4940940435	-0.235974216	-0.392844
C	-0.0287494443	 0.0018740848	-0.0689254247	-0.029618
O	-1.3258597912	-0.6225433769	-0.1024376071	-0.248821
C	-1.3584822642	-1.947613464	 0.1046249546	 0.487988
N	-0.2995491819	-2.6315532922	 0.2591000612	-0.569089
N	-2.6985497387	-2.3863758715	 0.1111592753	-0.153315
C	-3.7873005315	-1.4466747979	 0.3894051514	-0.345616
C	-3.0158665685	-3.6821495272	-0.2453895748	 0.157371
O	-4.1354113077	-4.1372392025	-0.2541751726	-0.318954
H	 0.7259443852	 2.006137873	-0.2237893233	 0.12599
H	-0.7356362217	 1.7159778066	-1.1855791949	 0.130516
H	-0.8537311939	 1.8970128546	 0.5751882113	 0.128174
H	 0.5856649304	-0.4201279027	-0.8699226135	 0.127167
H	 0.4578447738	-0.2461631591	 0.8792356653	 0.126365
H	-0.4894471671	-3.6001056499	 0.4938310281	 0.228518
H	-3.90102737	-0.7259915137	-0.4236238201	 0.145074
H	-4.69685447	-2.0374624991	 0.4882955512	 0.166769
H	-3.5885319196	-0.9041726599	 1.3154704285	 0.138303
H	-2.1282752989	-4.2636966959	-0.5445158398	 0.096022
50.6618	91.3511	112.2582	118.0127	136.97	207.9783	261.0747	277.4731	337.3446	344.0657	373.1803	451.4553	541.2579	738.0741	763.6537	792.6478	817.7819	867.0009	896.4067	1024.2152	1038.8243	1073.274	1100.755	1135.1154	1156.8323	1184.5134	1233.5542	1290.2814	1322.3756	1361.4977	1403.7783	1423.0228	1441.9277	1458.8279	1486.4094	1494.8067	1496.9466	1512.4554	1521.6785	1721.4879	1805.6014	2996.9181	3047.0561	3057.0527	3062.1498	3094.5543	3122.4014	3126.9506	3129.7255	3172.045	3558.1462
CCOC(=N)N(C)C=O	CCOC(=N)N(C)C=O	
InChI=1S/C5H10N2O2/c1-3-9-5(6)7(2)4-8/h4,6H,3H2,1-2H3	InChI=1S/C5H10N2O2/c1-3-9-5(6)7(2)4-8/h4,6H,3H2,1-2H3
