20
gdb 78941	2.57315	2.00134	1.50288	1.635	81.25	-0.2213	0.0842	0.3055	968.8953	0.171516	-365.937232	-365.929618	-365.928673	-365.968807	30.889	
C	-0.0644976388	 1.5932169596	 0.0574628654	-0.425959
C	 0.0292593729	 0.0758914635	 0.0533319158	 0.023826
C	 1.0784171943	-0.6447684685	-0.8162795093	-0.010309
C	 1.147004902	-1.8315688613	 0.1884720127	-0.07442
C	 2.6396877758	-1.4987778574	 0.4230548736	-0.120888
N	 2.4570477943	-0.2104102998	-0.3230312398	-0.195322
C	 2.217456013	-0.2851597998	 1.1644634172	 0.357377
C	 2.9771321938	 0.6240703738	 2.0768424885	-0.514365
C	 0.7244322732	-0.6976175625	 1.2072963624	-0.14124
H	 0.9259256098	 2.047195208	 0.1535765068	 0.134394
H	-0.5089520948	 1.9616989327	-0.873637514	 0.115117
H	-0.6869363419	 1.9511125013	 0.8850645874	 0.111799
H	-0.9502327094	-0.3826845344	-0.1354073735	 0.071976
H	 1.0192205882	-0.7213894448	-1.9017478157	 0.069045
H	 0.653622575	-2.7954166977	 0.0971406037	 0.070158
H	 3.5621275275	-2.0679160901	 0.4059206111	 0.09061
H	 4.0108446795	 0.7268161328	 1.7340655445	 0.132425
H	 2.5305243154	 1.6241189873	 2.1050258538	 0.123681
H	 2.9908574412	 0.2320872208	 3.0997913862	 0.11726
H	 0.2560998789	-0.8861001633	 2.1726057032	 0.064835
159.9678	180.6793	210.6231	227.4255	289.7209	316.8615	536.0786	579.8669	614.3549	695.0311	735.2172	751.5598	816.7074	825.9151	858.3857	866.1604	899.9653	912.1369	936.6422	983.8639	1017.4305	1026.1438	1034.1466	1070.9751	1082.6622	1099.4498	1129.2273	1153.3018	1171.5516	1174.2272	1209.7745	1241.6856	1250.2393	1276.7884	1291.6701	1379.358	1400.301	1408.0288	1439.8129	1481.9693	1490.9711	1494.1735	1502.3816	3026.8155	3029.926	3032.4551	3090.8437	3091.6167	3111.3292	3113.2471	3116.1284	3123.8501	3150.4567	3176.7392
CC1C2C3C4N2C4(C)C13	C[C@H]1[C@@H]2[C@H]3[C@H]4N2[C@@]4(C)[C@@H]13	
InChI=1S/C8H11N/c1-3-5-4-6(3)9-7(4)8(5,9)2/h3-7H,1-2H3	InChI=1S/C8H11N/c1-3-5-4-6(3)9-7(4)8(5,9)2/h3-7H,1-2H3/t3-,4+,5+,6-,7-,8+,9?/m1/s1
