20
gdb 115321	2.74791	1.27778	0.99252	2.1901	75.36	-0.2136	-0.0269	0.1867	1256.3619	0.170346	-440.28914	-440.279633	-440.278689	-440.323988	34.498	
C	 0.0703953007	 1.5390560957	-0.1576415242	-0.246948
O	 0.0334325822	 0.1402676732	 0.0774923676	-0.239748
C	 0.5254319522	-0.6410880791	-0.9759559462	 0.023735
C	 0.7767823443	-2.092400632	-0.5417347055	-0.224445
N	 0.6628934232	-2.9134816009	-1.7601914797	-0.302111
C	-0.3799273162	-2.2948592252	-2.601904395	-0.095494
C	-1.7420368173	-2.986415092	-2.4527125142	-0.36721
C	-0.4650690751	-0.8279530966	-2.1472026912	 0.379182
O	-1.2059150718	 0.0121722884	-2.5912246105	-0.321314
H	 1.0992510784	 1.8778104297	-0.3584141095	 0.099955
H	-0.5701096195	 1.8254041914	-0.9971737453	 0.143907
H	-0.2862557827	 2.0194389063	 0.7564273083	 0.126177
H	 1.45567692	-0.2094253051	-1.3916030392	 0.079154
H	 1.7478406988	-2.2416999502	-0.0670141026	 0.112992
H	 0.0044981577	-2.3782258236	 0.1824409747	 0.126596
H	 1.5485102489	-2.8961222349	-2.2531872033	 0.22304
H	-0.0850878691	-2.3240244553	-3.6567899873	 0.100798
H	-2.0561203607	-3.0115420018	-1.4047514166	 0.124166
H	-2.5006144226	-2.4451996674	-3.0246724511	 0.134362
H	-1.6799790316	-4.0160282606	-2.8131422992	 0.123206
39.8869	107.9667	152.3408	181.1537	212.1885	230.2826	253.8825	298.9536	386.0895	433.0834	500.81	574.2881	637.016	647.5935	777.3406	809.7678	865.2809	927.1501	999.7967	1017.274	1061.4056	1067.6616	1085.2022	1128.221	1130.2406	1174.3046	1181.8254	1217.4025	1239.3285	1272.9084	1301.2677	1311.9353	1357.0498	1381.2506	1397.7669	1458.5233	1476.9757	1482.6045	1487.6149	1494.4503	1503.1259	1517.9552	1841.2083	2925.2781	2982.0227	3041.2382	3045.8316	3048.5931	3081.7885	3117.5214	3119.2457	3127.5378	3131.2011	3530.6251
COC1CNC(C)C1=O	CO[C@H]1CN[C@@H](C)C1=O	
InChI=1S/C6H11NO2/c1-4-6(8)5(9-2)3-7-4/h4-5,7H,3H2,1-2H3	InChI=1S/C6H11NO2/c1-4-6(8)5(9-2)3-7-4/h4-5,7H,3H2,1-2H3/t4-,5-/m0/s1
