21
gdb 120195	3.7928	0.92017	0.83635	1.9112	80.19	-0.2417	0.0782	0.3199	1464.779	0.181891	-424.165273	-424.156204	-424.15526	-424.199565	34.239	
C	-0.0669714561	 1.5152459433	-0.0430931689	-0.385547
C	-0.1171339895	 0.0269769165	 0.2578762428	-0.043868
O	-1.3034792853	-0.5055754708	-0.3031218164	-0.27082
C	-1.4130307154	-1.8932876659	-0.1656129075	 0.195245
C	-2.025021631	-2.4961004423	 1.1485254713	-0.157122
C	-3.3842223292	-1.8864213819	 0.6981160914	-0.234383
C	-2.7719828525	-2.5005356215	-0.599147005	-0.12386
C	-2.4145157408	-3.7283682229	 0.2709143874	 0.145756
O	-1.4208211982	-4.5801805999	-0.2442757304	-0.440774
H	 0.8411886677	 1.9592629515	 0.3756088203	 0.113049
H	-0.0734101154	 1.6876193216	-1.1231000699	 0.126928
H	-0.933214278	 2.0242287718	 0.3893014229	 0.125155
H	 0.7622055533	-0.4842646557	-0.1681394586	 0.087383
H	-0.0954773341	-0.1481745653	 1.3457370385	 0.087375
H	-0.5165113254	-2.3964148879	-0.5407527707	 0.081283
H	-1.5994517441	-2.506157325	 2.1534940372	 0.063507
H	-4.2888413069	-2.3637929092	 1.0853937429	 0.085428
H	-3.4507553735	-0.801374633	 0.7194675492	 0.11728
H	-3.1996899774	-2.5076418245	-1.6018477958	 0.075318
H	-3.2795420298	-4.2941912633	 0.6397457912	 0.068162
H	-1.1666966684	-5.1964473155	 0.4493837979	 0.284506
64.7743	78.9943	126.7309	238.8127	254.5173	262.1851	327.7236	366.5237	389.5446	447.8905	558.3713	654.017	766.0433	818.2605	838.941	870.9544	892.8106	901.7169	909.9165	942.4094	1022.3354	1044.8979	1063.1349	1069.5839	1101.3189	1111.8576	1149.2179	1154.6857	1174.6045	1190.9364	1195.1307	1215.1866	1223.8361	1247.008	1271.8569	1296.8355	1317.1317	1384.7632	1405.6282	1433.3023	1444.2934	1483.6804	1499.8075	1510.5596	1530.2533	2961.9455	2988.9288	3020.2383	3044.2737	3062.5541	3064.8328	3097.2819	3116.5505	3118.3706	3121.127	3168.3895	3823.5301
CCOC1C2CC1C2O	CCO[C@H]1[C@H]2C[C@@H]1[C@H]2O	
InChI=1S/C7H12O2/c1-2-9-7-4-3-5(7)6(4)8/h4-8H,2-3H2,1H3	InChI=1S/C7H12O2/c1-2-9-7-4-3-5(7)6(4)8/h4-8H,2-3H2,1H3/t4-,5+,6-,7-
