14
gdb 27138	3.32494	1.30444	0.93689	1.5507	69.14	-0.1908	-0.0034	0.1874	1145.4481	0.102954	-470.067915	-470.060129	-470.059185	-470.1005	28.723	
O	 0.0961992428	 1.3892451299	-0.0045633191	-0.452312
C	 0.0722898546	 0.0331501246	-0.0056058277	 0.244223
C	 0.033707424	-0.7700495863	-1.1182991902	 0.341654
N	 0.0090046184	-0.4576413238	-2.4783136805	-0.40721
C	-0.0256905121	-1.3660326861	-3.487629918	 0.142629
O	-0.0401989289	-2.5767465489	-3.3341303317	-0.347893
N	 0.0217239338	-2.0607610009	-0.6327195307	-0.294932
C	 0.052910669	-1.9728967057	 0.7212051203	 0.003902
N	 0.0840512319	-0.7157500446	 1.1291092696	-0.33797
H	 0.1161034569	 1.6607105062	 0.9209059096	 0.304247
H	 0.0182592355	 0.5247545506	-2.7061186281	 0.2769
H	-0.0397219131	-0.8834373368	-4.4799245453	 0.09604
H	-0.0032317752	-2.8640480867	-1.2454071679	 0.292847
H	 0.0515905824	-2.8424081913	 1.3586275397	 0.137876
75.3779	177.1715	192.5914	263.0942	307.499	317.6392	400.4057	471.1564	556.1613	604.9138	618.4045	693.7914	731.7946	733.194	771.3595	884.7125	966.3464	997.4926	1077.4399	1129.6867	1159.43	1259.0144	1274.032	1374.6889	1391.5728	1425.5596	1469.8566	1532.3378	1547.4517	1707.6363	1770.3682	2988.8074	3269.4304	3606.8345	3635.1311	3809.1499
OC1=C(NC=O)NC=N1	Oc1c(NC=O)[nH]cn1	
InChI=1S/C4H5N3O2/c8-2-7-3-4(9)6-1-5-3/h1-2,9H,(H,5,6)(H,7,8)	InChI=1S/C4H5N3O2/c8-2-7-3-4(9)6-1-5-3/h1-2,9H,(H,5,6)(H,7,8)
