19
gdb 53448	4.64833	0.79692	0.71223	1.9981	81.3	-0.2459	0.0408	0.2867	1607.8577	0.15928	-423.002608	-422.993501	-422.992557	-423.038398	32.629	
C	-0.0409014545	 1.4753932419	-0.0087439678	-0.502637
C	-0.04514288	 0.0202460588	 0.006815904	 0.171658
C	-0.0625490272	-1.1829336109	 0.0154839451	-0.004849
C	-0.0384973887	-2.6387760191	 0.041186122	-0.075262
C	 0.8365628598	-3.2050300592	 1.1770094076	-0.204781
C	 0.6813984061	-4.727376455	 1.2068342808	-0.095819
O	-0.6913923426	-5.0896552963	 1.2695089478	-0.232524
C	-1.4043949634	-4.5320322443	 0.199165138	 0.024938
O	-1.377140951	-3.1282501557	 0.1902107059	-0.248114
H	 0.5989303177	 1.8813807781	 0.7823471933	 0.149355
H	 0.3236951416	 1.8636584373	-0.9660107749	 0.149541
H	-1.0508790431	 1.8701321418	 0.1464718772	 0.155214
H	 0.3599266793	-3.0102614162	-0.9210605074	 0.088817
H	 1.8831560768	-2.9228942474	 1.0240837904	 0.106283
H	 0.496917066	-2.7764319089	 2.1242822298	 0.122662
H	 1.1441951304	-5.1718367082	 0.3083959376	 0.088569
H	 1.1619949371	-5.1642460522	 2.0857748052	 0.114359
H	-1.0027757397	-4.918914742	-0.7587385408	 0.072552
H	-2.4485366947	-4.8269725724	 0.3180452059	 0.120038
15.3517	82.0207	88.2846	205.1253	259.4395	296.4358	331.3534	372.6261	417.8975	471.1654	525.0123	534.8741	649.8375	820.5343	850.2069	902.9148	931.2464	997.9805	1044.6509	1051.3359	1054.3797	1056.9917	1103.5838	1136.1594	1184.4979	1197.2974	1231.7235	1267.2728	1310.3007	1333.5277	1364.1019	1389.959	1398.9571	1413.8808	1444.9878	1468.0686	1476.4131	1478.2791	1495.1498	1507.7306	2378.5093	2904.7618	2929.1052	2958.7184	3028.5	3054.2759	3089.5323	3091.7006	3094.1081	3108.7265	3116.1732	15.3389	82.0205	88.2846	205.1251	259.4396	296.4353	331.3529	372.6259	417.8971	471.1652	525.0122	534.8737	649.8375	820.5343	850.2068	902.9146	931.2464	997.9802	1044.6509	1051.336	1054.3798	1056.9917	1103.5838	1136.1593	1184.4977	1197.2973	1231.7232	1267.2727	1310.3006	1333.5275	1364.1015	1389.9588	1398.9569	1413.8811	1444.9878	1468.0681	1476.4136	1478.2796	1495.1496	1507.7304	2378.5091	2904.7617	2929.1053	2958.7183	3028.5	3054.2759	3089.5323	3091.7006	3094.1081	3108.7265	3116.1732
CC#CC1CCOCO1	CC#C[C@H]1CCOCO1	
InChI=1S/C7H10O2/c1-2-3-7-4-5-8-6-9-7/h7H,4-6H2,1H3	InChI=1S/C7H10O2/c1-2-3-7-4-5-8-6-9-7/h7H,4-6H2,1H3/t7-/m0/s1
