18
gdb 15632	3.27009	1.61381	1.15196	2.3626	70.62	-0.2247	0.0262	0.2509	1044.0782	0.152805	-384.940073	-384.931522	-384.930578	-384.973393	30.661	
C	 0.1009626223	 1.5541797557	-0.1024419486	-0.3948
C	-0.0209879902	 0.0420120275	 0.0957595739	 0.053321
O	 0.4907138147	-0.633908466	-1.0556719417	-0.281083
C	 1.4565295226	-1.6103049928	-0.6735745396	-0.116783
C	 1.6090937882	-1.4529815383	 0.8103897112	-0.199189
C	 0.7727831402	-0.5209248169	 1.2542060262	 0.298333
C	 0.5657360331	-0.0677304209	 2.6608388497	-0.183393
O	 1.3686111326	-0.8445839674	 3.5307323058	-0.413595
H	 1.1525721295	 1.8500543107	-0.1645200083	 0.119343
H	-0.3975169031	 1.8469697746	-1.0305400951	 0.127112
H	-0.3710354935	 2.0977100573	 0.7233708622	 0.107708
H	-1.0919854846	-0.2069491813	 0.2092074405	 0.073836
H	 1.1067930015	-2.6186043871	-0.9511459463	 0.100875
H	 2.3941071325	-1.4343465547	-1.2233879824	 0.103723
H	 2.2914566251	-2.0342019157	 1.414820674	 0.116467
H	 0.8113947717	 1.005463029	 2.7418745225	 0.101093
H	-0.5063823541	-0.1557053917	 2.9146924397	 0.096575
H	 1.2561147117	-0.5058480922	 4.4232803664	 0.290458
79.4925	88.4138	177.4829	207.3023	238.9459	246.3242	278.0079	368.2471	445.5265	547.4085	662.8503	767.782	809.3028	829.2378	878.7568	949.6352	1023.1192	1041.1744	1049.1111	1057.6802	1094.646	1117.5229	1123.3337	1193.1077	1197.1155	1221.5209	1253.3454	1291.2032	1345.8906	1373.1467	1382.5883	1398.9793	1469.3093	1485.2118	1495.0725	1508.6967	1523.3746	1737.7713	2927.5809	2939.7101	2956.5288	2964.4247	2988.7766	3034.6331	3106.6517	3120.9557	3238.3926	3838.1444
CC1OCC=C1CO	C[C@H]1OCC=C1CO	
InChI=1S/C6H10O2/c1-5-6(4-7)2-3-8-5/h2,5,7H,3-4H2,1H3	InChI=1S/C6H10O2/c1-5-6(4-7)2-3-8-5/h2,5,7H,3-4H2,1H3/t5-/m1/s1
