17
gdb 46580	2.82392	1.81503	1.44795	3.7159	73.1	-0.2376	0.0205	0.2582	937.3755	0.138786	-417.959083	-417.952122	-417.951178	-417.990269	27.996	
N	-0.0596879668	 1.266111304	 0.2796994418	-0.54478
C	-0.0232898442	 0.0334619819	 0.0189040915	 0.370448
O	 1.1381991501	-0.6886040343	-0.2022118942	-0.257745
C	 0.8678353258	-1.960905782	-0.8504545895	-0.158043
C	-0.6076604314	-2.210721477	-0.6557164816	 0.162051
C	-1.1542816934	-2.153414401	 0.74076892	-0.358277
C	-1.1674447838	-0.9050204404	-0.1059705771	 0.196454
N	-2.2163144224	-0.8436908234	-1.1257805879	-0.357635
C	-1.7472758954	-2.1489697417	-1.6914007811	-0.225964
H	 0.8780390958	 1.6689177517	 0.2358211359	 0.224021
H	 1.1212343551	-1.8800233579	-1.9142859226	 0.118297
H	 1.5284218023	-2.6980178985	-0.3855727255	 0.121783
H	-2.1026904255	-2.6339425084	 0.9614631391	 0.119457
H	-0.4274554135	-2.1819326356	 1.5452975645	 0.138574
H	-3.1609525674	-0.8449958514	-0.7529670057	 0.225404
H	-1.3994993182	-2.0332316829	-2.723256225	 0.118349
H	-2.4656949171	-2.9756619831	-1.6496626527	 0.107605
130.2081	183.7395	271.5043	321.5439	373.3197	435.867	583.582	603.4243	656.9333	695.9383	720.1203	786.4482	839.3805	868.6609	901.2542	933.6376	944.4517	961.2739	968.9524	986.112	1012.0268	1023.7916	1069.661	1140.7641	1162.8617	1217.9685	1219.6297	1288.5079	1294.2113	1346.2516	1359.2267	1380.0769	1402.9812	1475.3187	1505.5821	1517.8268	1782.9795	3026.4141	3034.7953	3075.235	3089.5576	3126.5531	3220.8075	3472.573	3507.9241
N=C1OCC23CC12NC3	[NH][C]1OC[C@@]23C[C@@]12NC3	
InChI=1S/C6H8N2O/c7-4-6-1-5(6,2-8-6)3-9-4/h7-8H,1-3H2	InChI=1S/C6H8N2O/c7-4-6-1-5(6,2-8-6)3-9-4/h7-8H,1-3H2/t5-,6+/m0/s1
