16
gdb 6628	7.01137	0.76207	0.69627	2.3353	71.45	-0.2553	0.0155	0.2708	1595.0278	0.126922	-383.753971	-383.744076	-383.743132	-383.791786	31.746	
C	-0.0481264978	 1.4412247105	 0.1624050224	-0.49884
C	-0.0470125853	-0.0065151801	 0.017579303	 0.132126
C	-0.0515028419	-1.2037069213	-0.1009335329	 0.012885
C	-0.0152620817	-2.6467161946	-0.2533921098	-0.230844
O	-1.3360637696	-3.1794806129	-0.0017433168	-0.236315
C	-1.4348575117	-4.5217777495	-0.1129749653	 0.441389
C	-2.846922343	-4.9757068295	 0.1676066026	-0.476719
O	-0.5072200944	-5.2364714405	-0.3984404767	-0.347773
H	 0.6443729255	 1.7642750528	 0.9471906337	 0.151543
H	 0.2468922899	 1.9356942989	-0.7694044323	 0.151541
H	-1.0459602006	 1.8056444358	 0.4298465951	 0.154753
H	 0.2982916983	-2.9383469428	-1.2617731682	 0.147075
H	 0.6920231316	-3.1086918917	 0.4441197903	 0.147075
H	-3.5391640139	-4.5008373615	-0.5332516971	 0.151848
H	-2.904295787	-6.0592555319	 0.0726559522	 0.148408
H	-3.1449389983	-4.6713889116	 1.1748200797	 0.151848
18.2334	31.2567	55.6642	80.8785	165.3856	205.3474	222.717	305.8948	378.908	389.3501	520.5564	607.89	625.9957	781.9209	939.2127	977.4072	1009.4045	1046.6368	1051.5536	1056.3119	1065.4853	1183.1946	1249.1071	1264.6691	1385.6498	1408.3047	1414.397	1469.4312	1475.5654	1475.7153	1478.4258	1489.7434	1821.7929	2382.0996	3029.4195	3041.0655	3057.808	3073.7109	3091.4977	3092.2712	3123.145	3169.371
CC#CCOC(C)=O	CC#CCOC(=O)C	
InChI=1S/C6H8O2/c1-3-4-5-8-6(2)7/h5H2,1-2H3	InChI=1S/C6H8O2/c1-3-4-5-8-6(2)7/h5H2,1-2H3
