14
gdb 78128	2.86856	1.34045	1.10538	6.0684	67.42	-0.2655	-0.0388	0.2267	1076.6277	0.100233	-436.67596	-436.668126	-436.667182	-436.708635	28.907	
O	-0.2627926833	 1.4066756228	 0.0838290931	-0.409233
C	-0.0880062549	 0.0304592825	-0.0226209112	 0.085388
C	-1.2721476793	-0.8466016356	-0.0016095398	-0.090557
C	-0.392864659	-0.751647612	-1.2985851811	-0.244436
C	-1.5589767789	-0.1439409977	-2.005531895	 0.432647
O	-1.8120489686	 0.0858659841	-3.146990041	-0.290999
C	-2.4515221223	-0.1297968875	-0.6998260309	-0.296653
C	-3.661784055	-0.9171115442	-0.8314387055	 0.281439
N	-4.6195119903	-1.5560498057	-0.9360104765	-0.314611
H	 0.431848223	 1.8470477675	-0.4177312397	 0.30199
H	 0.7827137882	-0.3651814638	 0.5007862252	 0.12031
H	-1.3880464838	-1.6989649631	 0.6530984201	 0.137739
H	 0.325038759	-1.437343474	-1.731020517	 0.125701
H	-2.6745400147	 0.8653801967	-0.3098497906	 0.161274
88.2186	131.4289	148.8996	252.0006	312.3027	386.2926	406.5408	478.9568	519.2302	594.7722	658.6038	694.9006	757.1864	854.5157	885.5046	910.1237	946.6697	988.0761	1035.0426	1058.4906	1086.9148	1107.3262	1158.2923	1208.7688	1257.4593	1260.3826	1315.9071	1334.2478	1455.5461	1901.0599	2357.906	3101.3941	3108.7291	3201.1049	3223.1127	3811.1148
OC1C2C1C(=O)C2C#N	O[C@H]1[C@@H]2[C@H]1C(=O)[C@H]2C#N	
InChI=1S/C6H5NO2/c7-1-2-3-4(5(2)8)6(3)9/h2-4,6,9H	InChI=1S/C6H5NO2/c7-1-2-3-4(5(2)8)6(3)9/h2-4,6,9H/t2-,3-,4-,6-/m0/s1
