17
gdb 22934	2.72194	1.52559	1.10012	1.7988	79.5	-0.2268	-0.0381	0.1887	1101.6074	0.136158	-417.952065	-417.943961	-417.943017	-417.984376	31.445	
C	-0.0527524994	 1.5122584902	-0.0284403963	-0.487816
C	 0.0947015599	 0.0152251989	-0.0171958791	 0.220362
N	-0.7746223221	-0.8246814365	 0.8588898346	-0.361775
C	 0.7034460813	-0.7869990237	 1.0785597667	-0.145942
C	 1.3917737933	-1.9453659101	 0.4330303281	-0.05396
C	 1.22396762	-1.9162164501	-0.899187011	-0.169357
C	 0.4600525641	-0.7212130426	-1.2794130137	 0.389592
N	 0.1366805642	-0.2645095235	-2.4289748762	-0.252652
O	 0.5751514419	-1.1025068774	-3.4626215695	-0.386611
H	 0.8377579673	 1.9896336849	-0.4483378456	 0.132548
H	-0.9073300364	 1.8109581573	-0.6431193273	 0.142646
H	-0.2031375675	 1.8965135761	 0.9857865065	 0.108329
H	-1.2137094034	-0.1974202778	 1.5341535157	 0.225745
H	 1.086651397	-0.3345952707	 1.986860965	 0.0939
H	 1.9119138067	-2.7161704729	 0.9885431547	 0.112328
H	 1.5646533941	-2.6507655438	-1.6140797573	 0.124575
H	 0.2608670189	-0.6408673683	-4.2469731853	 0.308088
121.4974	184.2085	207.3184	222.5819	299.8816	320.2806	379.5363	439.4486	475.5866	519.668	593.0102	699.2793	750.5746	762.1179	824.3459	851.5069	857.321	914.9411	967.9501	973.3548	984.1997	1042.5626	1056.0792	1105.7445	1116.4447	1156.8589	1196.2554	1287.5187	1338.7568	1376.5425	1403.1563	1415.0898	1434.4072	1478.7979	1499.7529	1624.9054	1727.1348	3035.5569	3106.5729	3109.1476	3170.8094	3208.2705	3250.9556	3455.523	3821.0867
CC12NC1C=CC2=NO	C[C@]12N[C@H]1C=CC2=NO	
InChI=1S/C6H8N2O/c1-6-4(7-6)2-3-5(6)8-9/h2-4,7,9H,1H3	InChI=1S/C6H8N2O/c1-6-4(7-6)2-3-5(6)8-9/h2-4,7,9H,1H3/t4-,6-/m0/s1
