18
gdb 68534	2.66473	2.00532	1.71215	1.5859	74.08	-0.2322	0.0161	0.2483	889.2959	0.149006	-401.902538	-401.895656	-401.894711	-401.933191	29.19	
C	-0.0121174489	 1.4925420868	-0.0466166587	-0.506945
C	 0.0198232847	-0.0134312206	 0.0532354966	 0.34877
O	 0.6661698833	-0.6111145454	-1.0994938384	-0.277043
C	 0.5498907223	-1.9720491777	-0.645182403	-0.017645
C	 1.1469501838	-1.8746545284	 0.7539419746	-0.063915
C	 0.8118684366	-0.6627925509	 1.1892894202	-0.098402
C	-1.010445753	-2.0832401819	-0.5222779043	-0.048781
N	-1.5709127872	-1.9150315189	 0.8378975984	-0.328627
C	-1.3740940354	-0.7415552509	-0.0413648437	-0.081347
H	 1.0026358747	 1.8927807588	-0.1174240412	 0.132626
H	-0.5693702365	 1.8085827817	-0.933759818	 0.124354
H	-0.4948133751	 1.9232902783	 0.8360312699	 0.122175
H	 1.0080347857	-2.6576215779	-1.3564106931	 0.072672
H	 1.6200365682	-2.6816731625	 1.2952622798	 0.106062
H	 0.9474358691	-0.234955543	 2.1729505258	 0.103095
H	-1.5683671972	-2.6182659171	-1.2813007779	 0.095334
H	-2.5568328284	-2.1758996291	 0.8151233057	 0.227345
H	-2.2274167166	-0.1841544315	-0.4113499227	 0.090271
206.5918	249.108	274.5148	331.2127	345.1064	517.1245	545.4612	609.656	626.8443	700.1947	733.0265	764.9702	793.7504	838.3563	864.6433	872.7601	883.7307	911.5685	918.7761	923.3085	942.0657	997.4456	1057.4014	1086.6368	1105.8722	1136.7121	1140.8531	1185.0181	1216.86	1254.1148	1283.8768	1304.4695	1308.9733	1347.6551	1391.9154	1415.1075	1482.3694	1497.4478	1648.7513	3042.3127	3112.9145	3122.0853	3132.5522	3170.5763	3186.5042	3218.9515	3244.9472	3460.8488
CC12OC(C=C1)C1NC21	C[C@@]12O[C@@H](C=C1)[C@H]1N[C@@H]21	
InChI=1S/C7H9NO/c1-7-3-2-4(9-7)5-6(7)8-5/h2-6,8H,1H3	InChI=1S/C7H9NO/c1-7-3-2-4(9-7)5-6(7)8-5/h2-6,8H,1H3/t4-,5+,6+,7+/m0/s1
