21
gdb 97635	2.94525	0.6843	0.57606	2.7751	90.42	-0.2412	-0.0252	0.2161	1988.896	0.17898	-387.084628	-387.07328	-387.072336	-387.124328	38.426	
C	 0.0379691802	 1.5639406136	 0.0601352026	-0.364481
C	-0.0049174131	 0.0274349455	-0.0304695506	-0.316708
C	-1.3622922469	-0.5089285157	-0.0285607062	 0.131863
C	-2.4923468181	-0.9282186501	-0.0459587684	-0.003138
C	-3.860357068	-1.4348113953	-0.0070441552	-0.236058
C	-3.9033700019	-2.9882127361	 0.0537434412	-0.183689
C	-5.3143937498	-3.5584475533	-0.1063916056	-0.394424
C	-4.563877488	-0.864135352	 1.2263849445	 0.173674
O	-5.6457807192	-0.3417218179	 1.2162625487	-0.248679
H	 1.0734823043	 1.9167444875	 0.0545501988	 0.115882
H	-0.4861566055	 2.0174713268	-0.7852885606	 0.130566
H	-0.4404831871	 1.9125671099	 0.9792784976	 0.129551
H	 0.5119191879	-0.3012779192	-0.9412883348	 0.131457
H	 0.5577978031	-0.4058711358	 0.8063242424	 0.130151
H	-4.4255096305	-1.0949689923	-0.883171485	 0.11692
H	-3.2460688394	-3.3685234098	-0.7344675611	 0.117406
H	-3.4611727783	-3.313065011	 1.0036265053	 0.110072
H	-5.297312301	-4.6503095018	-0.0420011721	 0.117145
H	-5.9944164733	-3.1864156987	 0.6659708524	 0.134313
H	-5.7410535159	-3.2862488794	-1.0774842176	 0.12372
H	-3.9817611096	-0.993234895	 2.1670579739	 0.084457
8.2064	47.5544	78.7467	85.3362	121.7054	164.0928	213.763	227.7686	281.3211	331.583	344.5033	442.152	466.7973	487.2132	544.774	771.2453	781.2312	784.7764	874.9799	945.5216	968.0804	1014.2175	1059.133	1082.0678	1103.6256	1104.841	1137.3805	1173.2124	1247.9728	1285.9332	1294.6837	1320.0864	1349.9957	1360.0347	1409.0331	1415.91	1419.163	1473.8858	1488.1987	1494.7143	1498.476	1504.6404	1505.2918	1835.2538	2359.066	2877.4146	3020.7068	3033.5261	3039.2433	3044.6123	3045.5109	3048.0384	3077.9095	3108.645	3114.9382	3119.241	3125.2438
CCC#CC(CC)C=O	CCC#C[C@@H](CC)C=O	
InChI=1S/C8H12O/c1-3-5-6-8(4-2)7-9/h7-8H,3-4H2,1-2H3	InChI=1S/C8H12O/c1-3-5-6-8(4-2)7-9/h7-8H,3-4H2,1-2H3/t8-/m1/s1
