20
gdb 40833	3.8478	1.09076	0.90962	1.0641	75.74	-0.2488	0.0813	0.33	1310.9861	0.172963	-440.257906	-440.249804	-440.24886	-440.291008	31.093	
C	 0.0940195357	 1.4887475252	 0.0228265702	-0.235283
N	 1.2458146203	 0.5719135246	-0.0167709706	-0.315272
C	-0.1157124619	 0.0236329361	 0.0257042562	-0.043145
C	-0.4835099723	-0.7044502725	 1.2883056665	 0.232376
O	-1.8641029784	-0.5288141851	 1.5148920434	-0.255695
C	-2.2926778791	-1.2013546614	 2.691689283	-0.07478
C	-1.9528543119	-2.6913371384	 2.6128354557	-0.206055
C	-0.4670895863	-2.8299294857	 2.2742822137	-0.077247
O	-0.1499068191	-2.0617103282	 1.1209231676	-0.255126
H	-0.0086950599	 2.0509135444	 0.9467706679	 0.120538
H	-0.1795480069	 2.0384639088	-0.8734600192	 0.11309
H	 1.6166555884	 0.5084596896	-0.9604799186	 0.234998
H	-0.5231080733	-0.4359051708	-0.8713230124	 0.095106
H	 0.0861139736	-0.2911698273	 2.143256286	 0.058013
H	-1.8071558895	-0.7515145685	 3.5751440419	 0.087721
H	-3.3690899136	-1.0296223809	 2.773749826	 0.109721
H	-2.1826755527	-3.190644688	 3.5608040636	 0.097099
H	-2.5506178789	-3.1593047595	 1.8237300801	 0.113394
H	 0.1478571779	-2.4942035191	 3.1268458671	 0.090323
H	-0.1924016623	-3.8628681432	 2.045597082	 0.110225
67.4482	116.8157	167.8443	256.8518	287.3729	350.1127	440.7716	448.3919	490.917	532.9978	650.3844	857.3008	864.9612	883.5251	896.4183	902.5062	937.5777	948.7664	968.8266	997.5854	1037.3045	1054.4529	1070.8884	1115.4814	1132.3225	1159.8814	1175.6337	1239.1785	1240.7596	1258.8363	1264.3767	1282.9482	1302.3555	1352.5171	1368.9469	1371.4591	1408.8431	1415.3915	1468.9526	1477.5304	1494.8658	1505.2391	1522.4987	2920.4909	2957.7625	2966.5476	3042.4314	3088.2992	3091.1596	3097.7106	3112.2423	3146.3808	3196.478	3514.3581
C1NC1C1OCCCO1	C1N[C@H]1C1OCCCO1	
InChI=1S/C6H11NO2/c1-2-8-6(9-3-1)5-4-7-5/h5-7H,1-4H2	InChI=1S/C6H11NO2/c1-2-8-6(9-3-1)5-4-7-5/h5-7H,1-4H2/t5-/m1/s1
