20
gdb 31044	2.30533	1.32004	0.85262	0.6357	85.64	-0.1559	0.0566	0.2125	1374.9622	0.171248	-399.353873	-399.343599	-399.342654	-399.389375	37.014	
C	-0.0207154807	 1.4590447342	 0.0646767197	-0.314768
N	 0.0411149296	 0.0129210695	-0.046007149	-0.392277
C	-1.1786159082	-0.6919351735	 0.0212302873	 0.233928
C	-1.2983082205	-2.0690849978	-0.0145773561	 0.214923
C	-0.2520795593	-3.1274456342	-0.1039567244	-0.51769
N	-2.6530083016	-2.3501155413	 0.0413677866	-0.312665
C	-3.3831434045	-1.1950617954	 0.0860280621	 0.26669
N	-4.7929777869	-1.2748817379	 0.1704856438	-0.613752
C	-2.495929886	-0.1379205847	 0.0763910638	-0.305036
H	 0.9941390624	 1.8645082632	 0.0252511281	 0.112108
H	-0.5767241209	 1.8714222899	-0.7842357989	 0.126878
H	-0.5030268063	 1.8232231086	 0.9881188365	 0.100259
H	 0.7319406201	-0.3721657324	 0.5837646302	 0.225154
H	-0.0090058203	-3.5925928972	 0.8626408813	 0.116318
H	-0.5502840713	-3.9358705346	-0.78301716	 0.117779
H	 0.6722031219	-2.6966140988	-0.5015363014	 0.133631
H	-3.0615062067	-3.2654696761	 0.1183798185	 0.250411
H	-5.165106676	-0.4686464137	 0.6584812333	 0.241949
H	-5.2299504052	-1.295475469	-0.7475503771	 0.239643
H	-2.7642548798	 0.9067736214	 0.0857211658	 0.076517
56.4814	85.0866	125.796	173.3797	181.4066	203.0964	246.0848	259.0023	319.1604	365.7758	457.3711	521.7532	559.3088	627.4707	641.1565	648.882	707.7263	758.0614	821.8184	833.4394	992.8048	1039.3482	1058.9107	1071.7386	1120.1633	1151.9794	1176.8193	1201.4623	1204.2441	1255.0297	1350.3526	1412.6563	1448.9845	1456.0803	1476.3662	1483.2546	1485.2042	1497.0816	1511.0367	1521.3649	1557.9169	1642.173	1662.1588	2953.5262	2992.299	3045.4134	3058.2525	3097.0907	3106.2607	3252.002	3477.3011	3561.3951	3579.2735	3676.9607
CNC1=C(C)NC(N)=C1	CNc1c(C)[nH]c(N)c1	
InChI=1S/C6H11N3/c1-4-5(8-2)3-6(7)9-4/h3,8-9H,7H2,1-2H3	InChI=1S/C6H11N3/c1-4-5(8-2)3-6(7)9-4/h3,8-9H,7H2,1-2H3
