17
gdb 126764	2.67189	1.34643	0.95565	3.0335	71.95	-0.2325	0.0064	0.2389	1243.8803	0.135605	-455.204154	-455.195266	-455.194321	-455.238501	31.49	
C	-0.0983555715	 1.5701714319	 0.2238835514	-0.378987
C	-0.092119186	 0.070299619	-0.0691501686	-0.148867
N	-1.4207795682	-0.5107100847	-0.0544039372	-0.091099
N	-2.1557154344	-0.6190111205	 1.1129043733	-0.290635
C	-3.2620005115	-1.1557572125	 0.7355633127	 0.416933
C	-4.4249766058	-1.5075151947	 1.582968787	-0.487783
O	-3.3235652547	-1.4131466858	-0.5997034518	-0.232592
C	-2.1037087947	-0.9855036287	-1.137791405	 0.47349
O	-1.8025911986	-1.0567869329	-2.2968595003	-0.405577
H	 0.9258195642	 1.9547330384	 0.2247850427	 0.123788
H	-0.6698907567	 2.1132337497	-0.5342542249	 0.132424
H	-0.5422088182	 1.7691666809	 1.2028723174	 0.140912
H	 0.3048989916	-0.1376865619	-1.0659142498	 0.150903
H	 0.5237960191	-0.4638932721	 0.6620053072	 0.127194
H	-5.3221779098	-0.9776016618	 1.2474492635	 0.155073
H	-4.6343665673	-2.5805349527	 1.5264404617	 0.155296
H	-4.2105379175	-1.2356000115	 2.6170044407	 0.159525
51.7208	88.329	158.1281	195.2892	203.0082	275.9429	302.4358	311.552	403.344	576.2428	616.1454	665.8402	676.9464	751.5248	794.6014	842.3938	944.229	974.6111	1011.2017	1068.9151	1073.8976	1081.5861	1113.1149	1233.3302	1339.1671	1348.2776	1392.7586	1411.551	1414.1304	1423.9828	1470.7842	1479.1754	1480.9888	1490.445	1505.5123	1687.8142	1894.0331	3045.9015	3047.0231	3052.7457	3104.2759	3109.4932	3120.9496	3133.7689	3156.7912
CCN1N=C(C)OC1=O	CCn1nc(C)oc1=O	
InChI=1S/C5H8N2O2/c1-3-7-5(8)9-4(2)6-7/h3H2,1-2H3	InChI=1S/C5H8N2O2/c1-3-7-5(8)9-4(2)6-7/h3H2,1-2H3
