18
gdb 52743	1.72332	1.3034	0.81824	3.9044	82.27	-0.2398	-0.0279	0.2119	1433.0195	0.144318	-401.891891	-401.88167	-401.880726	-401.929727	34.459	
C	 0.8349111474	 0.8477594438	 0.690056389	-0.499369
C	 0.4304036781	-0.5216894699	 0.4075480921	 0.027384
C	 0.0869230591	-1.6584247007	 0.1968757066	 0.081612
C	-0.3548879146	-3.0228934035	-0.10774185	-0.190913
C	-1.6682340238	-2.9422369519	-0.9043783745	 0.181479
O	-2.7540044023	-3.1499790316	-0.4392632338	-0.23839
N	 0.5630565999	-3.8637273938	-0.8907704487	-0.090981
C	 1.4773832678	-3.2275406031	-1.839256568	-0.224766
C	 1.9872752136	-3.8188174931	-0.5726389533	-0.220369
H	 1.91056384	 0.9105301202	 0.8868600791	 0.15424
H	 0.6102606362	 1.5114352769	-0.1517289347	 0.154623
H	 0.3123833971	 1.2364614001	 1.5706336092	 0.158832
H	-0.5813652364	-3.5579866049	 0.8208160584	 0.128657
H	-1.5201046761	-2.666146503	-1.9710307629	 0.086973
H	 1.596931278	-3.751530346	-2.7826044224	 0.120774
H	 1.477686914	-2.1423078281	-1.9036849526	 0.12456
H	 2.3151721403	-3.119398781	 0.1930267583	 0.123398
H	 2.4900164317	-4.7812879404	-0.5698407819	 0.122256
15.4608	59.3633	75.7951	92.7799	117.4727	209.0891	271.7919	283.9825	361.5645	408.8702	448.9792	496.1732	542.5205	753.7397	819.3883	830.2287	900.8818	1007.5477	1013.4167	1044.9558	1050.9545	1053.4529	1076.434	1114.2237	1129.0211	1154.5019	1176.4734	1186.8084	1256.4061	1310.0843	1328.0534	1411.2635	1414.0436	1475.2305	1476.9804	1482.1341	1510.1515	1845.494	2350.6833	2898.1987	3031.3737	3057.098	3093.942	3095.5914	3107.7838	3111.4117	3191.3619	3204.9274
CC#CC(C=O)N1CC1	CC#C[C@@H](C=O)N1CC1	
InChI=1S/C7H9NO/c1-2-3-7(6-9)8-4-5-8/h6-7H,4-5H2,1H3	InChI=1S/C7H9NO/c1-2-3-7(6-9)8-4-5-8/h6-7H,4-5H2,1H3/t7-/m0/s1
