12
gdb 34673	1.73233	1.73191	1.28805	7.6956	68.06	-0.3311	-0.0453	0.2858	1024.2982	0.077584	-394.541069	-394.532981	-394.532037	-394.574379	28.009	
N	-0.1298918379	-1.1747120699	-0.102883622	-0.302106
C	-0.0487045532	-0.0244860237	-0.0321248728	 0.330508
C	 0.016793286	 1.4086816706	 0.0321101418	-0.198975
C	 0.5123448261	 2.1131318318	 1.2913281681	-0.19882
C	 0.9250027716	 1.3598248779	 2.4422544946	 0.330453
N	 1.2438327635	 0.7781874638	 3.388120515	-0.302109
C	 1.360345292	 2.1314123019	 0.0232571814	-0.198914
C	 2.591536273	 1.3957451925	-0.0498339102	 0.330335
N	 3.5949440922	 0.8285941412	-0.1281380606	-0.302037
H	-0.7843335837	 1.914343976	-0.496277218	 0.170562
H	 0.0119852582	 3.0462985698	 1.5269603828	 0.170545
H	 1.3744632522	 3.075631868	-0.5105151501	 0.170558
91.2491	91.3368	113.1574	231.3068	265.2094	265.4196	453.3902	453.5086	471.5382	655.1672	658.8008	658.8266	775.5675	776.037	821.3991	979.7375	979.9026	1093.7265	1094.1249	1118.8754	1224.8675	1366.2072	1366.4225	1399.895	2371.1593	2371.543	2371.6163	3174.9543	3175.03	3185.3991
N#CC1C(C#N)C1C#N	N#C[C@H]1[C@@H](C#N)[C@H]1C#N	
InChI=1S/C6H3N3/c7-1-4-5(2-8)6(4)3-9/h4-6H	InChI=1S/C6H3N3/c7-1-4-5(2-8)6(4)3-9/h4-6H/t4-,5+,6-
