22
gdb 101591	4.31893	0.65808	0.65334	3.1221	80.44	-0.2462	0.0331	0.2793	1818.4186	0.192133	-441.52027	-441.508896	-441.507952	-441.558274	39.512	
C	-0.0975967016	 1.4764649242	-0.3031049649	-0.333828
N	-0.2299688377	 0.0335466051	-0.3502371589	-0.313068
C	-1.2784007898	-0.6299125167	 0.2175350247	 0.423172
O	-2.1905978351	-0.0603135898	 0.7928329019	-0.379898
C	-1.2139518335	-2.1532491404	 0.107181439	-0.33429
C	-2.5995130648	-2.7762327767	-0.1175171919	 0.023712
C	-3.1569117736	-2.4556544363	-1.5088416338	-0.392779
C	-2.5542429099	-4.2886346013	 0.1350977896	-0.069397
O	-3.8216853817	-4.9142376116	 0.0107720598	-0.418826
H	 0.8142148311	 1.7783941203	 0.224561764	 0.124792
H	-0.0784949882	 1.9085349381	-1.3098782285	 0.125199
H	-0.9647728729	 1.8622959149	 0.2338819279	 0.172224
H	 0.4802308788	-0.5028562536	-0.8192141992	 0.24437
H	-0.5201185623	-2.4613014101	-0.6854858841	 0.090197
H	-0.7925598875	-2.5182863518	 1.0538944525	 0.122891
H	-3.2631386381	-2.3260788908	 0.6332577353	 0.094889
H	-4.1169826624	-2.9555379544	-1.6569895274	 0.126165
H	-3.3015377085	-1.3793272301	-1.6369746841	 0.124977
H	-2.4757589439	-2.806775062	-2.2944381411	 0.102575
H	-1.9137797973	-4.778235236	-0.6091135296	 0.103461
H	-2.1105991988	-4.486165554	 1.1250094784	 0.081656
H	-4.4034509722	-4.526264737	 0.6728394006	 0.281804
28.0754	54.1046	87.7443	102.1707	146.243	170.406	239.7546	254.3289	278.8382	322.4311	329.9262	387.1803	432.2059	447.3178	538.5244	630.5451	720.0248	852.6401	892.4888	900.6499	921.0301	961.7854	1054.4442	1064.509	1112.6372	1121.7621	1145.763	1155.1301	1170.9016	1192.9098	1246.8717	1266.2232	1296.5861	1375.488	1381.563	1396.7704	1407.27	1425.1749	1437.4866	1463.227	1492.1108	1494.7662	1500.6862	1504.7471	1509.8134	1559.5063	1773.837	2966.637	3013.2112	3019.332	3026.8967	3029.074	3049.6913	3059.0632	3078.3124	3099.9837	3127.9845	3154.2743	3653.8059	3809.8126
CNC(=O)CC(C)CO	CNC(=O)C[C@@H](C)CO	
InChI=1S/C6H13NO2/c1-5(4-8)3-6(9)7-2/h5,8H,3-4H2,1-2H3,(H,7,9)	InChI=1S/C6H13NO2/c1-5(4-8)3-6(9)7-2/h5,8H,3-4H2,1-2H3,(H,7,9)/t5-/m1/s1
