21
gdb 104084	2.3556	1.40293	1.14277	1.594	78.96	-0.2473	0.0132	0.2605	1169.5853	0.181741	-424.230394	-424.220825	-424.219881	-424.264383	36.542	
C	 0.0288333569	 1.5598208317	-0.0393202056	-0.429203
C	 0.0389318824	 0.029236515	-0.0172934394	 0.255092
C	-1.4026363068	-0.5026218712	-0.0503311717	-0.107786
O	-2.0207393856	-0.104490263	-1.2669579938	-0.424921
C	 0.8397045438	-0.5903089751	-1.2016071848	-0.300591
C	 1.5873711687	-1.7400037569	-0.577704177	-0.063103
C	 1.4893600011	-1.7526049954	 0.7514215733	-0.116514
C	 0.7178782805	-0.5646968276	 1.2716403209	 0.054528
O	 1.5635573757	 0.3384119927	 1.9836634182	-0.430843
H	 1.0441189658	 1.9649449977	-0.0316318723	 0.098226
H	-0.4819745589	 1.9171698114	-0.9371136542	 0.127301
H	-0.49019548	 1.9639704881	 0.835630682	 0.113435
H	-1.3903914715	-1.600411507	 0.0426299047	 0.087113
H	-1.9504877355	-0.1000613282	 0.8166095352	 0.087417
H	-2.9127470297	-0.4624001601	-1.2824864686	 0.287618
H	 0.1700384169	-0.9037699579	-2.0088284412	 0.123637
H	 1.5339128545	 0.13265353	-1.6514588215	 0.098641
H	 2.1405086051	-2.4634267759	-1.1685489129	 0.095401
H	 1.9566786852	-2.467299121	 1.419820943	 0.095112
H	-0.0442328103	-0.8412833204	 2.0104109897	 0.075235
H	 2.3709324719	 0.4399730932	 1.4675673063	 0.274204
64.6697	134.0177	197.2207	229.4449	235.6378	250.1487	295.364	333.9515	361.1834	370.4786	382.4414	526.135	535.4117	643.9321	746.6869	782.0265	796.1943	877.5552	928.4702	961.7336	977.3794	977.9993	986.3466	1015.7823	1040.8028	1087.6851	1131.5741	1133.0182	1160.4461	1194.681	1236.4396	1250.0295	1261.5877	1287.8975	1316.0932	1349.8171	1369.592	1408.0535	1434.6652	1452.2897	1484.3275	1490.951	1501.5796	1518.4227	1681.7235	2962.9291	2997.4186	3015.6843	3032.0811	3042.6045	3075.5768	3108.8092	3123.8374	3175.0318	3203.2884	3800.7558	3835.2925
CC1(CO)CC=CC1O	C[C@@]1(CO)CC=C[C@H]1O	
InChI=1S/C7H12O2/c1-7(5-8)4-2-3-6(7)9/h2-3,6,8-9H,4-5H2,1H3	InChI=1S/C7H12O2/c1-7(5-8)4-2-3-6(7)9/h2-3,6,8-9H,4-5H2,1H3/t6-,7+/m1/s1
