18
gdb 106932	4.1205	1.10813	0.99263	4.0712	72.03	-0.2659	-0.0051	0.2608	1220.7201	0.148594	-439.108896	-439.100664	-439.09972	-439.141995	30.78	
C	 0.2887115503	 1.5036199824	 0.2195298806	-0.387588
C	-0.1515684732	 0.0688189692	-0.0994672515	-0.265654
C	 0.5213935733	-0.4878966074	-1.3307444819	 0.326916
C	 0.2332258364	 0.1206255378	-2.6984077826	-0.153004
O	 0.5298333107	-0.8932713237	-3.6713216916	-0.237602
C	 0.6508425867	-2.1260573179	-3.0779999817	 0.458544
O	 0.6642141367	-3.1410107577	-3.7094388379	-0.337546
C	 0.772237245	-1.9333339008	-1.5966315861	-0.260583
N	 1.8678914066	-1.0310736711	-1.1745144838	-0.361772
H	 1.3728195436	 1.5509760013	 0.3601683693	 0.134905
H	 0.0199785493	 2.1992741409	-0.5828851178	 0.118051
H	-0.1879277004	 1.860755132	 1.1365812638	 0.122966
H	 0.0897316979	-0.5853348666	 0.7441151933	 0.119756
H	-1.2393483977	 0.0283883537	-0.2369125226	 0.10531
H	-0.8222365198	 0.4022391922	-2.7930326734	 0.124973
H	 0.8508164607	 0.9963604847	-2.9221978404	 0.127204
H	 0.5288113265	-2.7566675223	-0.936906222	 0.120876
H	 2.4683819672	-0.7998075868	-1.9647776337	 0.244249
73.1246	120.2935	184.1789	208.0393	249.6437	332.6169	388.0782	407.0358	498.4274	603.9464	678.1694	734.0631	782.5291	794.8932	831.2914	884.0157	951.7838	958.8527	1017.1501	1041.9713	1050.3996	1075.6263	1114.593	1147.9592	1149.07	1178.3961	1226.386	1269.929	1281.0565	1348.7877	1354.3707	1380.2362	1410.378	1446.364	1476.4905	1500.3607	1507.225	1515.7174	1884.3968	3031.9647	3036.304	3038.0134	3080.01	3083.7227	3108.0216	3118.1103	3199.7353	3471.5112
CCC12COC(=O)C1N2	CC[C@]12COC(=O)[C@H]1N2	
InChI=1S/C6H9NO2/c1-2-6-3-9-5(8)4(6)7-6/h4,7H,2-3H2,1H3	InChI=1S/C6H9NO2/c1-2-6-3-9-5(8)4(6)7-6/h4,7H,2-3H2,1H3/t4-,6+/m1/s1
