20
gdb 32679	3.42145	1.23451	0.9654	2.0188	87.12	-0.1955	0.0528	0.2482	1262.0584	0.17276	-366.021772	-366.013422	-366.012477	-366.055299	31.607	
C	 0.0821384694	 1.6156707334	-0.0171141193	-0.380566
C	-0.2012561735	 0.1204823249	 0.1490267832	-0.181334
C	 0.6783863176	-0.5260288616	 1.2184318267	-0.156514
C	 0.6555458228	-2.1070105888	 1.2916094726	-0.205553
N	 2.0846675973	-2.0607402706	 0.9517112646	 0.022925
C	 3.3108589369	-2.6370410647	 0.7767945624	-0.162173
C	 4.1885095876	-1.57724033	 0.5961750261	-0.127133
C	 3.4727744414	-0.3393832787	 0.6863642632	-0.345542
C	 2.1628792095	-0.703096095	 0.9093198812	 0.357884
H	 1.1230096411	 1.7831073551	-0.3125852845	 0.129555
H	-0.5599588302	 2.0571603204	-0.7850831466	 0.114142
H	-0.0926419236	 2.1595731763	 0.9178545245	 0.114265
H	-1.2556547949	-0.031649308	 0.4148663425	 0.093764
H	-0.0380534535	-0.394657334	-0.8057458793	 0.10136
H	 0.4798833994	-0.0651525367	 2.1932875721	 0.086868
H	 0.4477079401	-2.5301004484	 2.2789172562	 0.121684
H	 0.0338621826	-2.601691855	 0.5386410726	 0.119033
H	 3.4717633997	-3.7025406964	 0.7740222928	 0.115169
H	 5.2472669306	-1.6792088309	 0.4072170756	 0.089955
H	 3.8901159696	 0.6513660486	 0.6004492735	 0.092211
70.4738	85.5691	126.5768	192.6607	252.2231	357.4688	406.8682	506.7248	603.7398	662.5293	693.6772	705.9845	758.8512	769.3394	813.6013	822.6207	853.0814	916.4497	966.1455	983.4086	1012.0457	1054.5779	1070.4582	1095.2205	1118.9776	1141.3478	1179.7576	1216.5035	1233.2395	1262.9084	1286.3767	1306.7516	1341.5448	1378.8196	1410.6687	1414.4423	1451.8892	1469.3818	1485.3599	1499.1698	1507.5723	1519.473	1572.5974	3017.351	3031.7398	3033.5549	3043.3853	3058.3945	3096.3665	3101.4881	3108.8078	3235.7471	3256.9326	3272.0642
CCC1CN2C=CC=C12	CC[C@H]1Cn2cccc12	
InChI=1S/C8H11N/c1-2-7-6-9-5-3-4-8(7)9/h3-5,7H,2,6H2,1H3	InChI=1S/C8H11N/c1-2-7-6-9-5-3-4-8(7)9/h3-5,7H,2,6H2,1H3/t7-/m0/s1
