20
gdb 122483	3.60659	0.68704	0.60948	1.8064	83.08	-0.2298	0.0333	0.2632	1810.1201	0.168509	-403.07255	-403.062356	-403.061412	-403.108607	36.586	
O	-0.1955465028	 1.5106366991	-0.3757632969	-0.420303
C	-0.0455003568	 0.1783432027	 0.090903907	-0.074088
C	-1.3859402322	-0.5256317817	-0.073396265	-0.167178
C	-1.3415687848	-1.9831016302	 0.3825894492	-0.145199
N	-2.6649788485	-2.5891130741	 0.2440836951	-0.083495
C	-2.9682883925	-3.2311216009	-1.0219379278	-0.24353
C	-2.7595258039	-4.0607674619	 0.2117600032	-0.179578
C	-1.5989258197	-4.9010050903	 0.3308175591	 0.345012
C	-0.6451330855	-5.6208012392	 0.472231173	-0.47497
H	 0.6451748107	 1.9639349073	-0.2654057326	 0.285179
H	 0.7315096722	-0.3579090325	-0.4788856027	 0.083944
H	 0.2591635307	 0.1590275377	 1.1504782326	 0.085345
H	-2.1489970731	 0.0145902611	 0.49626662	 0.11789
H	-1.6808628405	-0.4733384315	-1.1282467025	 0.107149
H	-0.5712635471	-2.5360634154	-0.1793628131	 0.09613
H	-1.0636702555	-2.040619017	 1.4418549256	 0.107894
H	-3.9736368678	-3.0881158867	-1.4087336489	 0.12227
H	-2.1833983305	-3.280052716	-1.7751749376	 0.119782
H	-3.6400695419	-4.4409119487	 0.7249586209	 0.118085
H	 0.1970935195	-6.257437512	 0.5858344317	 0.199658
57.2854	79.2144	89.4422	132.1042	166.5568	207.559	266.556	306.7816	318.0683	407.4149	463.2351	531.6258	595.1722	631.8268	662.3196	758.2967	772.6949	826.2643	881.4368	917.7422	1019.2161	1023.4266	1042.8304	1064.2313	1087.7108	1114.1318	1127.2514	1139.3321	1186.0967	1239.4653	1242.0765	1308.8689	1311.9108	1319.428	1322.0437	1370.0248	1406.7378	1467.1598	1488.8977	1500.1705	1514.6497	1530.7191	2230.9714	2956.3641	2973.0817	2981.8441	3039.9124	3052.4684	3092.8676	3094.792	3127.4749	3185.1421	3503.5191	3830.469
OCCCN1CC1C#C	OCCCN1C[C@H]1C#C	
InChI=1S/C7H11NO/c1-2-7-6-8(7)4-3-5-9/h1,7,9H,3-6H2	InChI=1S/C7H11NO/c1-2-7-6-8(7)4-3-5-9/h1,7,9H,3-6H2/t7-,8?/m1/s1
