18
gdb 49730	2.40588	1.63807	1.50705	3.7717	77.47	-0.2408	-0.0002	0.2406	988.9207	0.149458	-401.958281	-401.950672	-401.949728	-401.990377	29.366	
O	 0.2272601165	 0.1087540075	 0.4444490413	-0.305176
C	 0.2098718137	 1.2850950806	 0.1732987032	 0.1492
N	 1.242316577	 1.9835697465	-0.4084688824	-0.067988
C	 1.8681433298	 3.2317030874	-0.0507668728	-0.044254
C	 1.6813643839	 3.8755419534	 1.3096675133	-0.228405
C	 1.6584392774	 2.8670097291	 2.4757351315	-0.2812
C	 2.7150338615	 1.804840376	 2.3494661612	-0.066478
C	 3.1615714493	 1.3787548604	 1.1666256555	-0.0244
C	 2.6697827942	 1.9445563534	-0.1151392513	-0.07872
H	-0.6886006522	 1.9242864753	 0.2967660847	 0.076763
H	 1.9755106108	 3.9322647418	-0.8779057914	 0.101272
H	 2.5205677234	 4.5697355828	 1.4447809658	 0.116931
H	 0.7706305245	 4.4841631392	 1.3224221353	 0.111819
H	 1.7673351008	 3.4067366861	 3.4222123651	 0.109107
H	 0.670523936	 2.3851817058	 2.527462441	 0.131383
H	 3.0900057972	 1.3544691601	 3.2636755873	 0.09951
H	 3.9075737644	 0.5934657394	 1.1027792526	 0.09814
H	 3.2894910317	 1.7662405252	-0.9901492499	 0.102495
105.3167	134.6584	200.2617	255.5091	305.5391	387.3425	473.2364	505.0663	613.0652	637.2549	704.2898	734.9676	811.7174	860.4699	866.7098	919.0252	982.7602	988.8554	998.536	1024.0879	1050.1782	1056.5861	1085.2317	1134.1469	1159.1889	1203.0214	1218.7837	1266.6839	1334.7253	1353.5344	1378.0664	1384.8113	1418.282	1422.037	1452.9492	1483.6472	1489.629	1709.5392	1794.9659	2919.6541	3001.0764	3029.4556	3065.7892	3071.5662	3114.5723	3140.4697	3166.932	3190.3369
O=CN1C2CCC=CC12	O=CN1[C@H]2CCC=C[C@@H]12	
InChI=1S/C7H9NO/c9-5-8-6-3-1-2-4-7(6)8/h1,3,5-7H,2,4H2	InChI=1S/C7H9NO/c9-5-8-6-3-1-2-4-7(6)8/h1,3,5-7H,2,4H2/t6-,7+,8?/m1/s1
