20
gdb 31666	2.32706	1.37343	0.87824	2.3	85.01	-0.1842	0.052	0.2362	1353.0595	0.169976	-403.175398	-403.165408	-403.164463	-403.210625	35.495	
C	-0.104771442	 1.3639548589	 0.0074414089	-0.240848
O	-0.0469167823	-0.0457993636	 0.0147837609	-0.261967
C	 0.624559705	-0.5948582861	 1.0630969626	 0.265732
C	 1.2713169591	 0.0253229857	 2.1125227205	-0.245517
N	 1.8195433968	-0.9706736473	 2.8980967763	 0.007597
C	 2.4726004561	-0.7570154819	 4.1681385991	-0.333084
C	 1.5071725953	-2.1890897228	 2.3555257989	-0.169022
C	 0.7688628463	-2.0057591204	 1.2070223497	 0.135077
C	 0.2359033583	-3.0482909893	 0.2747493979	-0.498479
H	 0.9009878955	 1.8052670669	-0.0425816432	 0.113654
H	-0.6711997116	 1.6553364439	-0.8790963138	 0.127476
H	-0.610885381	 1.7480966115	 0.9047014167	 0.113427
H	 1.3947034038	 1.0635194422	 2.368823103	 0.110249
H	 1.7548217155	-0.5677908697	 4.9766201491	 0.131784
H	 3.0587977036	-1.6421768168	 4.4257735022	 0.136812
H	 3.1538684051	 0.0969351946	 4.1036996804	 0.134248
H	 1.8362300804	-3.101373712	 2.8295762922	 0.11123
H	-0.8548749987	-2.9897819561	 0.1825130429	 0.124972
H	 0.6425563492	-2.9353601841	-0.7371359932	 0.12476
H	 0.4882385657	-4.0531824437	 0.6258765385	 0.1119
82.5087	85.8793	106.3216	149.1736	179.5702	211.4891	242.179	251.0691	347.8502	364.3728	540.5594	596.0934	601.5933	612.2278	616.2619	702.193	740.4454	818.9765	1005.6615	1027.3806	1065.0079	1073.6588	1094.0314	1148.1061	1181.4641	1182.0435	1202.3043	1234.5601	1253.1511	1393.924	1413.4823	1416.6588	1431.4198	1460.7482	1479.3638	1482.1618	1482.6686	1489.8485	1501.5646	1510.1113	1520.2791	1589.9883	1629.3179	2987.8234	3016.2617	3023.9171	3039.124	3070.4323	3081.494	3103.7231	3124.4439	3126.9026	3245.6581	3273.31
COC1=CN(C)C=C1C	COc1cn(C)cc1C	
InChI=1S/C7H11NO/c1-6-4-8(2)5-7(6)9-3/h4-5H,1-3H3	InChI=1S/C7H11NO/c1-6-4-8(2)5-7(6)9-3/h4-5H,1-3H3
