20
gdb 96944	3.96254	1.04194	1.00245	2.2995	83.79	-0.2428	0.0239	0.2667	1307.2074	0.168706	-403.124	-403.114478	-403.113533	-403.158186	35.157	
C	-0.1402368378	 1.3910477233	 0.0149031102	-0.340191
N	-0.0807705374	-0.0570078711	-0.1238824667	-0.346262
C	-1.1269369073	-0.726082982	 0.0092611999	 0.478672
O	-2.4458667292	-0.3034707748	 0.268237817	-0.285319
C	-2.911187933	-1.6611590146	 0.0825527837	 0.041116
C	-1.4930859655	-2.1661510305	-0.1000866866	-0.282275
C	-2.3488279188	-2.5783269714	 1.1194568889	 0.284078
C	-2.0311956464	-2.1073538935	 2.5230671544	-0.458808
C	-2.8476615772	-4.0101408683	 1.024409415	-0.456414
H	 0.4803084809	 1.6950651261	 0.8654524417	 0.127564
H	 0.2955760882	 1.8527985945	-0.877624474	 0.126839
H	-1.1524168798	 1.7860229199	 0.1597499907	 0.127333
H	-3.8099475584	-1.7972285945	-0.5053784558	 0.116409
H	-1.0656455071	-2.8851835596	-0.7843025731	 0.113671
H	-1.7667131326	-1.0491381164	 2.5445678521	 0.1415
H	-2.8996456528	-2.250918549	 3.1759010592	 0.116949
H	-1.1982454211	-2.6807293708	 2.9431853841	 0.122139
H	-2.0888817483	-4.7109563747	 1.3885901461	 0.12894
H	-3.7477422805	-4.1441934493	 1.634006183	 0.124996
H	-3.0926663259	-4.2887595433	-0.00566391	 0.119066
84.7765	93.2089	163.6895	188.4443	216.0664	225.7978	277.2098	297.3671	339.3634	420.3459	476.7951	544.0445	669.0295	718.8646	738.9621	826.6545	848.7793	911.3552	959.0507	973.5319	985.2525	1023.659	1031.5378	1039.2634	1084.6079	1102.3498	1132.1984	1149.7215	1171.7811	1200.1172	1274.9662	1292.886	1391.9155	1409.6038	1425.7254	1439.2444	1480.8942	1488.2488	1492.8908	1497.641	1500.6918	1511.2725	1850.78	3017.5974	3028.8966	3036.1468	3081.782	3088.9163	3092.8956	3096.8362	3101.2667	3138.9084	3198.1002	3221.5821
CN=C1OC2C1C2(C)C	CN=C1O[C@H]2[C@@H]1C2(C)C	
InChI=1S/C7H11NO/c1-7(2)4-5(7)9-6(4)8-3/h4-5H,1-3H3	InChI=1S/C7H11NO/c1-7(2)4-5(7)9-6(4)8-3/h4-5H,1-3H3/t4-,5-/m0/s1
