19
gdb 85725	2.16151	1.3815	0.95056	2.9278	82.21	-0.2436	-0.0238	0.2198	1267.2252	0.15672	-385.856231	-385.846714	-385.845769	-385.891054	34.9	
C	-0.0180681705	 1.5900772284	-0.05258983	-0.419623
C	 0.1047966376	 0.0762113166	 0.0413163773	 0.027244
C	 1.0828690996	-0.6750448269	-0.8982132718	-0.248524
C	 1.4094300205	-1.6501400846	 0.2744111119	-0.185682
C	 2.7686709402	-2.122078582	 0.4474121213	 0.306035
C	 3.9018288044	-2.4999961642	 0.5884635165	-0.437504
C	 0.8234719582	-0.5868772404	 1.2779397211	-0.130979
C	 1.8655609873	 0.2976116198	 1.9127201685	 0.171587
O	 1.8009576279	 0.7020861805	 3.0463031088	-0.259936
H	 0.9590508798	 2.0829879875	-0.0244705664	 0.121418
H	-0.5046025433	 1.8769699121	-0.9910070306	 0.120637
H	-0.6175886043	 1.9913749079	 0.771153538	 0.131288
H	-0.8903938047	-0.3744937066	-0.0352126686	 0.088918
H	 0.6837046153	-1.1158418548	-1.8140155513	 0.109981
H	 1.9526092967	-0.0630483184	-1.1529863168	 0.115245
H	 0.7250313794	-2.5039815739	 0.2454935397	 0.114482
H	 4.9001832988	-2.8385349008	 0.7164527405	 0.199164
H	 0.173376979	-0.9674829513	 2.067449969	 0.093051
H	 2.719252248	 0.5787145711	 1.2572694229	 0.083198
54.3388	73.9759	123.7471	191.7586	228.2383	238.0101	309.0301	330.6575	430.9473	453.3079	506.5207	530.6543	623.5773	637.5494	653.2447	742.3276	872.7169	878.9265	927.8802	956.9072	988.4168	1017.9475	1050.2013	1089.6596	1136.629	1145.8722	1154.8736	1226.7127	1238.9899	1257.579	1269.8986	1318.9303	1337.3127	1383.0084	1415.3993	1440.7285	1492.5428	1497.6484	1498.94	1824.2103	2232.432	2885.8051	3032.6585	3044.4406	3052.9801	3064.156	3099.4276	3101.588	3104.7508	3120.8987	3503.3575
CC1CC(C#C)C1C=O	C[C@H]1C[C@@H](C#C)[C@H]1C=O	
InChI=1S/C8H10O/c1-3-7-4-6(2)8(7)5-9/h1,5-8H,4H2,2H3	InChI=1S/C8H10O/c1-3-7-4-6(2)8(7)5-9/h1,5-8H,4H2,2H3/t6-,7+,8-/m0/s1
