21
gdb 101451	2.28421	1.21698	0.9299	1.5287	74.67	-0.2449	0.0579	0.3029	1323.0391	0.18077	-461.33265	-461.322447	-461.321503	-461.367934	37.521	
O	 0.416500691	 0.3030987917	 0.95523721	-0.407943
C	-0.0682617938	 0.1290783446	-0.3667828811	-0.089059
C	-1.4555772681	-0.5261455115	-0.4457892902	 0.064932
O	-1.9168898193	-0.4883067444	-1.795578263	-0.43212
C	-1.4878752776	-1.943821419	 0.1059670816	 0.026786
C	-1.1736211761	-2.249776487	 1.5996505289	-0.22394
C	-2.2807007303	-3.3370804067	 1.5587594098	-0.254564
C	-2.8669574843	-2.6342462771	 0.3021058344	 0.106233
O	-3.8295856677	-1.6466576575	 0.6292677221	-0.431619
H	-0.163795327	 0.929709674	 1.3992480347	 0.285654
H	-0.1096072311	 1.0796628578	-0.9186913653	 0.096342
H	 0.6693301761	-0.508840654	-0.8716482556	 0.094043
H	-2.1741217715	 0.0860972717	 0.1110272605	 0.096946
H	-1.3499961073	-1.0702180331	-2.3144278763	 0.275812
H	-0.8634694475	-2.5847137949	-0.5326696611	 0.057224
H	-0.1568417295	-2.554887388	 1.8488814986	 0.103203
H	-1.4545772029	-1.4159338121	 2.2452057642	 0.103612
H	-1.8813225482	-4.3276489997	 1.320565247	 0.097622
H	-2.9490635651	-3.4223049129	 2.4202324016	 0.088776
H	-3.2251079164	-3.2737861612	-0.5150321263	 0.058262
H	-4.6171353734	-2.0962194307	 0.9508440356	 0.283797
53.1154	119.2173	128.6214	152.4511	201.0213	254.8584	267.2248	290.4464	303.5565	364.3255	391.2398	427.2872	499.9184	573.7493	687.1219	760.0632	860.1027	895.0359	931.9101	949.7774	972.1041	1010.5948	1027.4219	1063.0098	1079.7559	1102.2989	1123.7104	1155.3731	1177.6158	1195.2317	1213.6211	1251.3168	1256.4588	1268.5092	1283.6476	1318.141	1333.3335	1375.8124	1395.3688	1412.9363	1418.6947	1421.42	1469.1559	1488.5016	1505.1812	2994.7478	3000.405	3014.3446	3040.5893	3050.8255	3064.8977	3083.1259	3101.6689	3137.8738	3793.4264	3816.3489	3820.4126
OCC(O)C1CCC1O	OC[C@@H](O)[C@H]1CC[C@H]1O	
InChI=1S/C6H12O3/c7-3-6(9)4-1-2-5(4)8/h4-9H,1-3H2	InChI=1S/C6H12O3/c7-3-6(9)4-1-2-5(4)8/h4-9H,1-3H2/t4-,5+,6+/m0/s1
