23
gdb 42033	3.05157	1.34199	0.99971	1.9365	84.72	-0.2372	0.0845	0.3217	1236.4158	0.210257	-388.319739	-388.311897	-388.310953	-388.351936	31.755	
C	 0.0058404435	 1.557659584	 0.1017870839	-0.106778
O	 1.3699709314	 1.938820441	-0.1179124605	-0.272656
C	 2.2250518548	 0.7955572784	 0.0092917705	-0.10678
C	 1.3663791825	-0.2870900512	 0.658350756	 0.041275
C	 1.7185413882	-1.7614270257	 0.48864504	-0.238895
C	 0.6117245389	-2.6185945323	 1.1364677443	-0.187915
C	-0.7974050438	-2.2651472951	 0.6221093509	-0.187916
C	-1.1152981099	-0.759722941	 0.7320881301	-0.238895
C	-0.0064327837	 0.0320367277	 0.0465047611	 0.041271
H	-0.3316394379	 1.9225626569	 1.085257368	 0.085369
H	-0.6162570673	 2.0306696534	-0.6662445802	 0.097752
H	 2.5787144568	 0.4793767831	-0.985302159	 0.085365
H	 3.0998611287	 1.0791648265	 0.6050178374	 0.097754
H	 1.3068601727	-0.0685652375	 1.7358610613	 0.072014
H	 1.8005569302	-1.9999166933	-0.5809494458	 0.093396
H	 2.6892559157	-1.9970130169	 0.940283462	 0.092542
H	 0.8107360045	-3.6824895952	 0.9666802428	 0.092442
H	 0.6435238289	-2.4684334021	 2.2243819281	 0.095132
H	-0.8790823955	-2.5646793154	-0.4318007312	 0.095132
H	-1.5468390561	-2.8496061475	 1.1671437208	 0.092442
H	-2.0941982308	-0.5486485442	 0.2860309063	 0.092542
H	-1.1787177639	-0.4655461999	 1.7890053674	 0.093396
H	 0.026308222	-0.2666898337	-1.0127469343	 0.072013
115.9035	164.4538	195.2914	316.8543	317.2751	333.3522	416.5469	473.0299	493.8237	587.9883	669.7574	789.6376	841.8268	848.1423	867.8262	924.0284	930.1215	941.9011	982.8843	990.3658	1056.3331	1061.9623	1071.8897	1086.8873	1118.0245	1118.8942	1158.1486	1177.3601	1194.7674	1215.9085	1240.3273	1275.1853	1286.7838	1321.0854	1324.8084	1337.8184	1356.8772	1366.6111	1371.9663	1372.4813	1389.228	1405.6699	1418.4326	1485.5283	1486.7244	1491.268	1502.434	1522.5376	1531.8738	2968.8558	2973.7746	2981.6257	2993.499	3011.8554	3013.953	3014.65	3018.8892	3054.4007	3054.8427	3060.4754	3060.876	3064.7567	3070.9249
C1OCC2CCCCC12	C1OC[C@@H]2CCCC[C@@H]12	
InChI=1S/C8H14O/c1-2-4-8-6-9-5-7(8)3-1/h7-8H,1-6H2	InChI=1S/C8H14O/c1-2-4-8-6-9-5-7(8)3-1/h7-8H,1-6H2/t7-,8-/m0/s1
