15
gdb 127797	3.22849	1.26681	1.01129	3.7472	71.12	-0.2695	-0.0165	0.253	1134.9643	0.113836	-413.001448	-412.99326	-412.992316	-413.035034	28.676	
C	 0.3180211828	 1.3656103038	 0.1871205213	-0.350501
N	 0.0899071229	-0.0663123758	 0.1295183984	-0.001369
N	-0.0540520761	-0.6753569004	-1.0663831117	-0.137314
N	-0.2405984429	-1.9449415138	-0.8476942314	-0.184865
C	-0.2154386649	-2.1680070504	 0.4917885183	-0.149011
C	-0.0050456913	-0.9720433461	 1.1382718014	 0.325173
C	 0.0801679828	-0.6353737614	 2.5970060557	-0.45309
C	 1.3622589364	-0.0369624339	 2.9862014435	 0.271963
N	 2.3671075955	 0.4540445917	 3.2752224546	-0.302216
H	 1.2700755206	 1.5855196005	 0.6762749679	 0.174792
H	 0.3384751142	 1.7242498354	-0.8414277773	 0.177016
H	-0.4908443842	 1.8646395362	 0.7291734155	 0.145924
H	-0.3466085446	-3.1531356162	 0.9107392287	 0.130692
H	-0.7204415557	 0.0543980968	 2.8942591817	 0.172154
H	-0.0690019355	-1.5509270163	 3.1773392234	 0.180652
55.7788	108.1579	128.5978	221.1324	243.3336	293.6587	378.1783	414.5717	478.8082	651.9557	713.4742	716.0454	771.7911	850.443	929.5405	938.2579	982.7493	1033.7026	1142.1935	1153.343	1189.7213	1241.6809	1272.2579	1309.8247	1317.8394	1360.9537	1442.6426	1452.7267	1487.055	1496.8149	1505.0317	1587.6053	2365.1028	3032.0003	3051.4341	3093.0166	3121.3725	3169.7908	3265.7042
CN1N=NC=C1CC#N	Cn1nncc1CC#N	
InChI=1S/C5H6N4/c1-9-5(2-3-6)4-7-8-9/h4H,2H2,1H3	InChI=1S/C5H6N4/c1-9-5(2-3-6)4-7-8-9/h4H,2H2,1H3
