20
gdb 56652	3.02867	1.12884	0.95133	2.1413	81.52	-0.237	0.0245	0.2615	1304.4305	0.167587	-403.08925	-403.07871	-403.077765	-403.124582	38.563	
C	 0.0049173153	 1.433013552	-0.315337929	-0.408349
C	 0.1796983602	-0.0344020884	-0.0034049063	-0.032958
N	 1.5609822948	-0.5584028457	 0.0866111007	-0.375792
C	 0.7097222901	-0.5678754479	 1.28354397	 0.303053
C	 1.1303398652	 0.3311548513	 2.4262907609	-0.462921
C	 0.1631495558	-1.9267000303	 1.7520921899	-0.097083
O	-0.2366348523	-2.6841502656	 0.6098242934	-0.431332
C	 1.1493568594	-2.6756316054	 2.5394830841	 0.298031
C	 1.9357651263	-3.3351961446	 3.1657448521	-0.461906
H	 0.7819197764	 2.0439732039	 0.1481977589	 0.124569
H	 0.0598444441	 1.5953632631	-1.3973212074	 0.120675
H	-0.9721527406	 1.7927831823	 0.0262578362	 0.112817
H	-0.5350506581	-0.6830730184	-0.5027805326	 0.101501
H	 1.5785571362	-1.496839104	-0.3085995923	 0.232344
H	 1.5446661075	 1.2669537397	 2.0505999688	 0.131154
H	 0.2793730628	 0.5658322316	 3.076519888	 0.110929
H	 1.8988698246	-0.1542014202	 3.0355155517	 0.131874
H	-0.7123015156	-1.7313224969	 2.3933443069	 0.102942
H	-0.2319043315	-3.6134565567	 0.8581660081	 0.295239
H	 2.6380589793	-3.9051877497	 3.7229732579	 0.205215
51.9719	123.1378	139.8557	154.241	192.3191	220.0845	231.0761	261.5108	300.8266	364.5913	396.6531	452.6256	471.3207	566.9473	620.8179	631.4453	679.506	742.6261	807.6363	865.6985	917.0106	976.231	988.6667	1036.7987	1059.7209	1093.3156	1099.3955	1123.7126	1145.1348	1242.9607	1258.6504	1281.874	1334.6688	1364.8475	1390.5999	1409.6307	1421.5078	1459.0826	1478.7059	1488.6206	1498.5273	1512.3339	2229.8698	2963.0905	3033.8455	3037.6391	3092.0539	3100.3189	3124.6928	3145.5906	3153.0192	3488.8186	3500.2149	3836.117
CC1NC1(C)C(O)C#C	C[C@H]1N[C@]1(C)[C@@H](O)C#C	
InChI=1S/C7H11NO/c1-4-6(9)7(3)5(2)8-7/h1,5-6,8-9H,2-3H3	InChI=1S/C7H11NO/c1-4-6(9)7(3)5(2)8-7/h1,5-6,8-9H,2-3H3/t5-,6+,7+/m1/s1
