19
gdb 94157	2.07456	1.57177	1.35557	1.6388	71.1	-0.2416	-0.0274	0.2142	1084.5003	0.155707	-460.166763	-460.156889	-460.155945	-460.202018	35.539	
C	 0.1841228891	 1.3869927283	 0.1396955063	-0.475801
C	-0.2779243447	-0.0425301142	 0.0197182593	 0.35529
O	-0.8305949004	-0.6428026858	 0.9212837495	-0.34196
C	-0.0358264553	-0.7601839782	-1.3044689427	 0.266629
C	-1.3322359097	-0.8247267057	-2.1045428458	-0.440302
O	 1.0490970879	-0.1845707394	-2.072437894	-0.325552
C	 1.8438365825	-1.3891135769	-1.9503827291	-0.09099
C	 0.7459939975	-2.1053739517	-1.1464903889	 0.041795
O	 1.1525223303	-2.4704865377	 0.1411663805	-0.434049
H	 1.2781058417	 1.4131183479	 0.1021389793	 0.161812
H	-0.1612268695	 1.9800036528	-0.7133606369	 0.147111
H	-0.170940339	 1.8148405979	 1.0776701141	 0.139464
H	-1.6711774925	 0.1796615355	-2.3781300891	 0.129909
H	-1.1743493029	-1.391590332	-3.026422843	 0.126792
H	-2.1144777596	-1.3101515643	-1.5138218632	 0.140566
H	 2.0893012472	-1.8120150947	-2.9299774713	 0.107759
H	 2.7588339718	-1.2267601132	-1.3708906333	 0.115991
H	 0.2619210645	-2.93845877	-1.674198226	 0.07512
H	 0.3912248814	-2.3482852984	 0.7261574644	 0.300416
49.9997	62.4181	109.9146	196.8263	222.2183	228.2908	252.062	311.0185	389.4354	415.3451	438.9949	491.7082	544.4204	625.4506	635.2176	778.9044	877.2198	906.3898	924.3027	974.4938	1007.658	1015.8981	1052.9967	1112.1019	1146.3279	1151.1557	1173.8595	1204.2729	1226.9947	1291.1232	1336.129	1362.3707	1382.4336	1395.6287	1421.464	1449.4846	1463.3666	1481.698	1491.3406	1511.318	1779.6555	3002.9211	3035.671	3038.7372	3046.8309	3090.4742	3107.9447	3111.5427	3124.6261	3158.501	3738.3663
CC(=O)C1(C)OCC1O	CC(=O)[C@@]1(C)OC[C@H]1O	
InChI=1S/C6H10O3/c1-4(7)6(2)5(8)3-9-6/h5,8H,3H2,1-2H3	InChI=1S/C6H10O3/c1-4(7)6(2)5(8)3-9-6/h5,8H,3H2,1-2H3/t5-,6-/m1/s1
