19
gdb 51623	6.57411	0.70475	0.69416	4.0533	78.95	-0.2751	0.0101	0.2852	1629.4396	0.158233	-423.023441	-423.014718	-423.013774	-423.057941	32.154	
O	-1.1924537799	 0.6377148772	-0.4669718074	-0.276082
C	-0.6297388116	 1.6670348055	-0.2448065976	 0.161683
O	 0.6865097351	 1.7366213937	 0.0271115485	-0.187098
C	 1.2687835899	 3.0111174231	 0.2797309464	 0.148617
C	 2.101518377	 3.11982155	 1.5796487403	-0.331089
C	 3.1709937946	 3.8485830594	 0.7515193371	 0.37725
C	 3.6622129867	 5.2458266058	 0.9990619316	-0.317542
C	 4.6156785856	 4.0715129183	 1.0658097626	-0.329271
C	 2.530288858	 3.3465132032	-0.5516072652	-0.331107
H	-1.1213809093	 2.6601708429	-0.2384374025	 0.076192
H	 0.5022441654	 3.7904122583	 0.2083908228	 0.091607
H	 1.6497167014	 3.6483791769	 2.4228637726	 0.106118
H	 2.428169441	 2.1277956368	 1.9062117723	 0.12233
H	 3.742077773	 5.9199896052	 0.1519036702	 0.114047
H	 3.3845736531	 5.7305991841	 1.9299092039	 0.114047
H	 4.9804373576	 3.7643011556	 2.040852223	 0.115928
H	 5.3376480318	 3.9535456418	 0.2639434783	 0.115923
H	 2.9970498166	 2.4285234905	-0.9216246305	 0.12233
H	 2.4143870341	 4.0525527316	-1.3777867465	 0.106118
41.85	58.3817	149.9955	244.2632	258.5776	280.7065	330.7659	400.4086	419.1774	541.283	618.7087	775.67	791.5273	821.4359	868.7329	894.7264	918.8079	938.5605	993.6961	1028.8354	1044.7165	1054.0039	1064.3266	1079.8844	1082.801	1138.7219	1182.0859	1187.6746	1223.1647	1239.5159	1240.4689	1256.8463	1285.0279	1379.1728	1394.5056	1443.3728	1463.8401	1471.259	1495.9527	1506.9005	1865.9763	2940.669	3046.435	3052.2048	3057.0435	3110.175	3112.2912	3121.2618	3126.0323	3199.5894	3214.4092
O=COC1CC2(CC2)C1	O=COC1CC2(CC2)C1	
InChI=1S/C7H10O2/c8-5-9-6-3-7(4-6)1-2-7/h5-6H,1-4H2	InChI=1S/C7H10O2/c8-5-9-6-3-7(4-6)1-2-7/h5-6H,1-4H2
