16
gdb 86290	1.91729	1.66538	1.18368	5.7104	65.23	-0.2744	0.0087	0.2831	1079.134	0.122689	-475.012534	-475.003581	-475.002637	-475.046105	33.255	
O	-0.2949453269	 1.4341614123	-0.0144275324	-0.436792
C	-0.0771990604	 0.0396876262	-0.0387215791	 0.072333
C	 0.3187693364	-0.68634575	 1.2696946206	-0.333069
C	-0.7925340319	-1.7451386208	 0.983683815	 0.130748
O	-1.6144546132	-2.1668808539	 2.0178124705	-0.423662
C	-1.4383617014	-0.733233442	-0.0330632037	 0.196221
O	-2.4229750171	 0.0112658669	 0.6441714451	-0.473055
C	-1.9298290981	-1.2522742225	-1.3099199349	 0.245635
N	-2.2743887206	-1.687120659	-2.3239793269	-0.336415
H	 0.3553902105	 1.8428510326	 0.5649873655	 0.303804
H	 0.5451445866	-0.2454741398	-0.8930764736	 0.107715
H	 1.3460612469	-1.0415531776	 1.3586159199	 0.119961
H	 0.0581204397	-0.0901626896	 2.1488385637	 0.112044
H	-0.3957956318	-2.6282027799	 0.4778564003	 0.114009
H	-2.2056695613	-1.4251074798	 2.2108033582	 0.296564
H	-2.1580376573	 0.9410668467	 0.5509971618	 0.303958
87.0013	123.7691	159.3087	177.5825	266.6245	293.4397	357.8258	398.0044	435.6111	494.7184	515.8271	537.3906	543.9805	595.485	658.8966	747.852	858.906	911.5261	938.4924	1032.7635	1084.5512	1109.6742	1127.7522	1157.2152	1178.1412	1211.7897	1237.214	1274.9251	1327.7783	1350.6	1380.9997	1394.2368	1446.4476	1473.194	2352.5205	3056.7008	3067.5715	3093.7739	3137.1142	3682.5607	3742.2239	3832.4543
OC1CC(O)C1(O)C#N	O[C@H]1C[C@@H](O)[C@]1(O)C#N	
InChI=1S/C5H7NO3/c6-2-5(9)3(7)1-4(5)8/h3-4,7-9H,1H2	InChI=1S/C5H7NO3/c6-2-5(9)3(7)1-4(5)8/h3-4,7-9H,1H2/t3-,4+,5-
