19
gdb 40321	2.91198	1.28755	1.03595	1.9665	75.3	-0.2433	0.0722	0.3155	1193.1156	0.159975	-419.118334	-419.109848	-419.108904	-419.15229	31.678	
C	 0.1478131796	 1.4103741387	-0.0934092454	-0.256253
N	 1.1167232119	 0.3201710162	-0.2874771131	-0.311679
C	-0.2481426097	 0.0034472502	 0.16901945	-0.111128
C	-0.391675828	-0.6156628103	 1.5297986569	 0.324128
C	-0.1281143748	 0.1608937046	 2.7651111527	-0.278663
N	-1.5109819442	-0.1891875651	 2.3901804346	-0.354282
C	-0.1094282236	-2.0912863588	 1.5206145313	 0.013103
C	-0.9246611164	-3.0531826588	 2.2669346607	-0.170143
O	-1.0767276436	-2.9099394433	 0.8507026783	-0.250933
H	 0.3852373697	 2.0881038203	 0.7211067093	 0.120604
H	-0.2811174937	 1.8965424871	-0.9660337184	 0.116382
H	 1.2125474706	 0.1078878721	-1.2770180423	 0.236016
H	-0.9157283727	-0.4500676149	-0.5625036831	 0.108544
H	 0.2463171442	-0.3562007801	 3.6441593951	 0.119121
H	 0.1952766981	 1.1931311462	 2.6797318742	 0.117043
H	-1.9633065816	 0.6193021382	 1.9682850656	 0.231964
H	 0.9247430189	-2.3455849526	 1.2848757424	 0.102618
H	-0.4786994386	-3.9918933164	 2.5934957252	 0.107275
H	-1.7545149259	-2.6781855735	 2.8595417661	 0.136283
49.984	72.3995	167.7622	200.3087	273.7554	285.4493	347.4738	450.5153	489.6514	614.1268	668.7889	821.1078	859.4167	869.0263	887.5718	898.8749	912.7441	946.4716	953.0665	980.7124	993.9776	1034.1861	1071.3674	1113.0543	1122.122	1125.5208	1136.8443	1161.0571	1176.609	1191.2351	1254.6719	1270.7835	1285.5304	1286.3058	1305.5742	1380.4531	1431.1679	1456.5806	1504.4332	1517.306	1522.5888	3090.5819	3107.4171	3109.7636	3118.4518	3120.02	3191.5727	3195.4784	3204.5553	3488.5291	3503.7553
C1NC1C1(CN1)C1CO1	C1N[C@H]1[C@]1(CN1)[C@H]1CO1	
InChI=1S/C6H10N2O/c1-4(7-1)6(3-8-6)5-2-9-5/h4-5,7-8H,1-3H2	InChI=1S/C6H10N2O/c1-4(7-1)6(3-8-6)5-2-9-5/h4-5,7-8H,1-3H2/t4-,5-,6-/m1/s1
