15
gdb 15515	3.64677	1.87967	1.28288	6.0316	63.15	-0.2465	-0.0309	0.2155	908.3714	0.11993	-399.865565	-399.858299	-399.857355	-399.897488	25.966	
O	-0.1883461809	 0.0120900861	 0.1436172106	-0.265447
C	-0.0379086981	 1.2025774216	 0.1041752406	 0.15847
N	 1.1752365855	 1.8820843732	 0.0736145181	-0.12354
C	 1.2293188116	 3.3458561753	-0.0196427704	-0.175235
C	 2.6645861717	 3.6813276877	 0.4224938064	-0.227577
C	 3.4650156073	 2.4478207347	-0.0118194881	-0.330653
C	 2.4640991528	 1.2945470691	 0.0648428578	 0.424736
O	 2.7063058014	 0.1205664811	 0.0993776411	-0.316774
H	-0.8843835752	 1.9204757979	 0.0944387523	 0.079726
H	 1.0454690354	 3.6719270873	-1.0516226027	 0.123177
H	 0.4689427973	 3.8027303473	 0.6188587443	 0.128844
H	 3.0199586283	 4.6146434812	-0.0174318512	 0.118669
H	 2.6994231515	 3.7873312536	 1.5110799331	 0.125348
H	 3.8017285884	 2.5272152014	-1.0528425511	 0.138827
H	 4.340773533	 2.2274297924	 0.5997354095	 0.141428
79.5533	158.1627	190.4517	217.6961	248.0809	461.2664	486.0533	544.7688	641.9699	709.8459	750.8769	852.0437	899.4836	941.9913	1026.0362	1031.0648	1086.0917	1102.2402	1176.2471	1194.4143	1223.7394	1249.3546	1303.9197	1310.8256	1349.4636	1390.6656	1456.7562	1465.4149	1497.8553	1525.5066	1804.8455	1882.3217	2913.6871	3020.141	3045.6736	3062.4123	3091.8896	3119.9319	3130.6007
O=CN1CCCC1=O	O=CN1CCCC1=O	
InChI=1S/C5H7NO2/c7-4-6-3-1-2-5(6)8/h4H,1-3H2	InChI=1S/C5H7NO2/c7-4-6-3-1-2-5(6)8/h4H,1-3H2
