16
gdb 87946	3.72149	1.17218	1.06859	4.7089	67.2	-0.2481	0.0508	0.2989	1139.2661	0.124067	-475.016224	-475.008252	-475.007308	-475.049063	29.982	
O	-0.0164960527	 1.2437357234	-0.3639759742	-0.417278
C	-0.0555828726	-0.1245519891	-0.0990606209	 0.023205
C	-0.4378734791	-0.6132393327	 1.2921385968	-0.402209
C	-1.4112566638	-0.7021204875	 0.161745134	 0.387856
C	-2.6916494596	 0.0951490622	 0.0290811646	-0.177292
O	-3.4191731401	-0.6551726212	-0.9521365685	-0.252369
C	-2.8528033544	-1.8865009027	-1.098603771	 0.481934
N	-3.2766381036	-2.8416567402	-1.7952940032	-0.577093
O	-1.713110864	-1.9775866028	-0.3644180911	-0.251202
H	 0.7636160347	 1.6144612482	 0.0621932064	 0.296843
H	 0.6346192297	-0.7459459244	-0.6680246423	 0.114858
H	 0.0069637284	-1.5375385788	 1.6435538385	 0.140959
H	-0.6294580924	 0.1357099338	 2.0545322444	 0.126678
H	-3.2702968851	 0.128383791	 0.9595754374	 0.12097
H	-2.5198526671	 1.1074759877	-0.3390821799	 0.151964
H	-4.1574327984	-2.5873366968	-2.235807881	 0.232177
69.8436	132.3793	206.9335	211.2429	283.3849	357.4302	445.0467	463.6259	516.7723	548.2689	716.1852	726.0844	802.5337	822.7564	833.575	888.2908	923.2135	957.199	1001.7756	1032.9901	1046.443	1086.3772	1092.2258	1107.9906	1176.4463	1212.5031	1235.2176	1277.384	1292.9929	1357.7231	1404.7886	1417.9862	1496.3127	1525.8355	1803.8046	3037.1302	3120.469	3127.6408	3130.2899	3227.2888	3538.237	3804.4475
OC1CC11COC(=N)O1	O[C@H]1C[C@]21CO[C]([NH])O2	
InChI=1S/C5H7NO3/c6-4-8-2-5(9-4)1-3(5)7/h3,6-7H,1-2H2	InChI=1S/C5H7NO3/c6-4-8-2-5(9-4)1-3(5)7/h3,6-7H,1-2H2/t3-,5+/m0/s1
