15
gdb 83732	2.69808	1.77933	1.29241	3.4523	60.46	-0.272	-0.0076	0.2645	953.8325	0.113204	-494.909707	-494.902423	-494.901479	-494.94171	27.303	
O	 0.101353829	 1.3928921732	 0.2730676905	-0.426137
C	-0.0158303364	 0.0201127499	 0.0558238784	 0.012527
C	-1.433816465	-0.5134352127	-0.0578433244	 0.060031
O	-2.2914513139	 0.2511877306	-0.9292591312	-0.280276
C	-2.4634261151	-0.8775698729	-1.8194843074	-0.090349
C	-1.3355261138	-1.6398106273	-1.1153233811	 0.041173
O	-0.0767739145	-1.4676765176	-1.7888993528	-0.224676
C	 0.6050560909	-0.4140779072	-1.2743342885	 0.39269
O	 1.5553253727	 0.0891012562	-1.7999252192	-0.342374
H	 0.8308828096	 1.6953705316	-0.2859135564	 0.302277
H	 0.4967420769	-0.5622280411	 0.845024144	 0.101707
H	-1.9149913623	-0.7463273477	 0.8959103729	 0.09564
H	-3.4523269413	-1.33946162	-1.7072309537	 0.113811
H	-2.2822659392	-0.6210174073	-2.8672141748	 0.132333
H	-1.4590532575	-2.6903762878	-0.8580514863	 0.111621
96.1333	144.3762	213.1671	265.0916	332.2775	399.0313	502.2493	517.7889	627.8779	638.1463	753.2136	827.1015	860.3346	898.0104	907.8688	971.6538	1004.5985	1044.3707	1092.7325	1101.3732	1145.1716	1168.091	1184.0186	1232.3216	1250.8227	1255.3825	1324.3717	1354.7486	1364.6903	1382.9067	1431.9752	1506.9343	1881.7302	2929.8731	3025.9414	3075.7934	3097.0899	3133.9974	3747.4523
OC1C2OCC2OC1=O	O[C@H]1[C@H]2OC[C@H]2OC1=O	
InChI=1S/C5H6O4/c6-3-4-2(1-8-4)9-5(3)7/h2-4,6H,1H2	InChI=1S/C5H6O4/c6-3-4-2(1-8-4)9-5(3)7/h2-4,6H,1H2/t2-,3+,4+/m1/s1
