22
gdb 40312	2.91932	1.27008	1.05867	0.9763	86.01	-0.2174	0.0913	0.3086	1239.9619	0.19396	-367.145187	-367.136345	-367.135401	-367.179127	34.612	
C	-0.2866251547	 1.1805077485	-0.299262503	-0.252137
C	 1.1802841132	 0.9902901488	-0.0025683411	-0.286547
C	 0.2189809704	-0.1559278642	 0.1769520447	-0.023172
C	-0.1783483446	-0.7018268806	 1.5205437822	 0.338558
C	 0.914390714	-1.2268185332	 2.4343280615	-0.320323
C	 0.1522117971	 0.0344191834	 2.7846764183	-0.316271
N	-1.4871092634	-1.3268113318	 1.4276917005	-0.107284
C	-1.5502372054	-2.7337312466	 1.0430174847	-0.223294
C	-1.9309853735	-2.2978606515	 2.4152258035	-0.238482
H	-0.8677350744	 1.765810566	 0.4048517245	 0.116241
H	-0.6017426527	 1.2806019118	-1.3318549374	 0.108357
H	 1.8742558997	 0.9376540943	-0.8344565099	 0.107883
H	 1.589427308	 1.4795701691	 0.8746201813	 0.110514
H	 0.2789881945	-0.9311279004	-0.583781194	 0.08094
H	 0.7435103846	-2.1104700971	 3.0391204131	 0.109986
H	 1.9366302968	-1.1222480403	 2.08752766	 0.113687
H	 0.6646148531	 0.9885683915	 2.7361572034	 0.114158
H	-0.5755215018	-0.0331361297	 3.5865600195	 0.114955
H	-2.308367602	-2.9949650019	 0.3100362003	 0.114222
H	-0.611025058	-3.2766505651	 0.9496124696	 0.110916
H	-1.2665430804	-2.5830711456	 3.2277390966	 0.111635
H	-2.9765928806	-2.2190198754	 2.7006095719	 0.115459
53.4168	70.4606	181.1319	208.3248	277.093	288.5068	337.7699	434.4404	470.9803	554.9898	608.6505	747.7478	784.9153	792.6989	822.9017	829.8953	886.3895	906.5929	922.484	941.8896	954.801	968.1654	992.472	1039.3736	1047.3904	1059.9941	1077.8457	1078.8856	1108.3778	1118.9368	1122.5388	1139.1152	1170.576	1177.3399	1186.1398	1195.5253	1213.2334	1231.2898	1322.3743	1353.5332	1417.7151	1456.7188	1468.7766	1486.9204	1503.718	1510.0815	1523.1571	3094.419	3102.0214	3125.585	3132.5129	3134.2647	3135.544	3138.3159	3174.6113	3188.9881	3208.1755	3210.0873	3222.4175	3225.4158
C1CC1C1(CC1)N1CC1	C1CC1C1(CC1)N1CC1	
InChI=1S/C8H13N/c1-2-7(1)8(3-4-8)9-5-6-9/h7H,1-6H2	InChI=1S/C8H13N/c1-2-7(1)8(3-4-8)9-5-6-9/h7H,1-6H2
