16
gdb 66491	3.05092	1.77686	1.41793	1.0679	67.05	-0.2183	0.0651	0.2834	916.0915	0.124396	-437.774131	-437.767239	-437.766295	-437.804882	28.71	
O	-0.1250266641	 1.4104354695	-0.0210533492	-0.45634
C	 0.0290097647	 0.0523068884	-0.0510858656	 0.387719
C	 0.0690432627	-1.00639268	 1.0115250512	-0.128069
C	-1.0286159304	-1.02441089	-0.0741342517	-0.175429
C	-0.2866604103	-1.8965464043	-1.108840606	 0.381042
O	-0.9633725037	-2.1278475245	-2.2912769379	-0.475378
C	 0.4972973308	-2.9466388681	-0.2861003306	-0.240949
N	 1.185622584	-1.7887839209	 0.3902990484	-0.150973
C	 0.9350701482	-0.9205423893	-0.8609856021	-0.19854
H	 0.6219744029	 1.7929688676	 0.454255068	 0.292515
H	-0.120973703	-0.9760974436	 2.0768589099	 0.097158
H	-2.0880976717	-0.9671524268	 0.1323407003	 0.100862
H	-0.3792086213	-2.6054876751	-2.8900562752	 0.284816
H	-0.0408612797	-3.6298621604	 0.3772933337	 0.105896
H	 1.2272510223	-3.5003680538	-0.8869602778	 0.097557
H	 1.7638980985	-0.7176606789	-1.5378165753	 0.078114
202.534	294.3085	301.6585	318.5396	363.328	396.1862	474.9512	590.6022	600.2608	610.3116	722.8679	782.7967	818.3417	855.2237	855.7466	891.5441	901.5793	930.0257	1005.445	1017.2915	1039.684	1048.5556	1085.931	1100.5761	1111.0247	1142.96	1170.4222	1215.049	1225.7597	1250.738	1305.7829	1311.3804	1399.8416	1489.3682	1497.734	3039.9109	3102.1163	3126.6912	3195.3559	3222.0017	3783.7908	3805.3343
OC12C3C1C1(O)CN3C21	O[C@@]12[C@H]3[C@@H]1[C@]1(O)CN3[C@H]21	
InChI=1S/C6H7NO2/c8-5-1-7-3-2(5)6(3,9)4(5)7/h2-4,8-9H,1H2	InChI=1S/C6H7NO2/c8-5-1-7-3-2(5)6(3,9)4(5)7/h2-4,8-9H,1H2/t2-,3-,4+,5-,6-/m1/s1
