23
gdb 101433	2.8835	0.98293	0.82171	2.4725	81.56	-0.253	0.0582	0.3112	1477.0334	0.205196	-425.412581	-425.402512	-425.401568	-425.447612	37.94	
C	-0.1063369626	 1.5836896101	-0.0522082028	-0.40054
C	-0.0078387024	 0.0608948665	-0.005576925	 0.001987
C	 1.1299029169	-0.5322029875	-0.8913761792	-0.224292
C	 2.0099054082	-0.6901470302	 0.3770434437	-0.242577
C	 0.7270080388	-0.5376903136	 1.2431377148	 0.009161
C	 0.7985450428	 0.2506768485	 2.5384261863	 0.078369
O	-0.508100597	 0.5149181934	 3.0777208706	-0.446635
C	 1.6427512511	-0.4333319522	 3.6176799898	-0.062202
O	 1.6176212702	 0.3044083208	 4.8199509907	-0.426129
H	 0.8740400123	 2.0604276772	 0.0601250712	 0.111717
H	-0.5159654561	 1.9076853904	-1.0149171157	 0.10907
H	-0.7556900123	 1.9598694634	 0.7435089221	 0.133288
H	-0.9990157448	-0.366184235	-0.1851607622	 0.063998
H	 0.858364109	-1.4983382476	-1.3255299437	 0.098984
H	 1.5140994285	 0.1089393902	-1.6893007446	 0.09625
H	 2.5844606087	-1.6127173887	 0.486236072	 0.099873
H	 2.6919773141	 0.1551652442	 0.5125331423	 0.105417
H	 0.3135811242	-1.5324345787	 1.4627098168	 0.058684
H	 1.2184131218	 1.2463996579	 2.357114011	 0.093991
H	-0.9884249244	-0.3215272057	 3.0975488215	 0.280641
H	 1.2653885758	-1.462733799	 3.767381278	 0.067513
H	 2.6875593993	-0.5124108047	 3.2978917027	 0.109635
H	 0.7035813777	 0.6056648402	 4.9095881797	 0.283798
77.8206	93.2275	120.6458	139.3949	239.0183	258.6163	279.9919	324.4765	341.9067	374.0005	401.7724	482.5956	523.5416	579.5833	685.3697	784.1106	816.8525	873.9295	886.3388	914.4709	956.7887	970.5604	1018.7778	1036.5045	1064.0964	1084.9644	1107.5654	1116.1535	1147.2978	1172.9865	1210.7324	1221.9496	1237.1558	1262.6958	1275.7723	1281.3957	1289.957	1305.6278	1365.8418	1380.9321	1390.3852	1411.9941	1420.8195	1444.1232	1482.2941	1499.7455	1500.3938	1505.3779	1507.1879	2925.4257	2998.0169	3029.9996	3047.8258	3051.6913	3056.924	3059.8163	3071.285	3093.0411	3097.5377	3111.7781	3114.7846	3758.5053	3786.2888
CC1CCC1C(O)CO	C[C@H]1CC[C@H]1[C@@H](O)CO	
InChI=1S/C7H14O2/c1-5-2-3-6(5)7(9)4-8/h5-9H,2-4H2,1H3	InChI=1S/C7H14O2/c1-5-2-3-6(5)7(9)4-8/h5-9H,2-4H2,1H3/t5-,6+,7-/m0/s1
