17
gdb 23389	3.05117	1.3711	1.29159	0.286	77.05	-0.2312	0.0045	0.2356	1046.069	0.137873	-417.932895	-417.925496	-417.924552	-417.964629	29.442	
O	-0.1468817001	 1.3736431277	-0.0977849084	-0.402477
N	 0.0344179758	-0.027948378	-0.0143541848	-0.294719
C	-1.0749593115	-0.6192792506	 0.1101802671	 0.476333
C	-1.4534645341	-2.0835083917	 0.0401258712	-0.110803
C	-1.892986321	-2.6142909878	 1.4158904567	-0.236338
C	-2.8248608212	-1.6150210074	 2.0662119525	-0.06856
C	-3.1437204124	-0.4923309214	 1.4227662325	-0.019768
C	-2.5601885943	-0.3062334009	 0.0346228142	-0.164542
N	-2.7164746428	-1.6416392437	-0.6891023838	-0.319441
H	 0.758870095	 1.6850886171	-0.1973752084	 0.305113
H	-0.8012004215	-2.7739556248	-0.4977124532	 0.087142
H	-2.3901506772	-3.5849539072	 1.2932427326	 0.118336
H	-1.0111738643	-2.7862685187	 2.0471016941	 0.117491
H	-3.2133122442	-1.8388658694	 3.0552542101	 0.095829
H	-3.7843689786	 0.2728916464	 1.8458967012	 0.099763
H	-2.9029125294	 0.5807904426	-0.4955515456	 0.091831
H	-2.4461712881	-1.4786600123	-1.6597917182	 0.224811
105.0119	173.7194	259.618	315.9435	354.526	394.3087	487.9922	495.2077	556.3619	615.925	677.3475	769.7696	795.156	849.008	856.2558	883.4018	941.7786	955.9239	959.0777	971.7013	993.948	1073.9145	1102.5953	1130.4752	1146.5695	1172.6787	1207.9095	1233.3695	1280.0605	1334.934	1343.9025	1368.256	1400.4599	1408.1865	1464.9109	1698.9088	1794.392	3019.7054	3052.5564	3100.1186	3132.9327	3169.2471	3199.7615	3450.0249	3821.3079
ON=C1C2CC=CC1N2	ON=C1[C@H]2CC=C[C@@H]1N2	
InChI=1S/C6H8N2O/c9-8-6-4-2-1-3-5(6)7-4/h1-2,4-5,7,9H,3H2	InChI=1S/C6H8N2O/c9-8-6-4-2-1-3-5(6)7-4/h1-2,4-5,7,9H,3H2/t4-,5+/m0/s1
