19
gdb 89091	5.95447	0.59714	0.5675	2.6845	79.93	-0.2579	0.0295	0.2874	1936.8872	0.155181	-422.953211	-422.942979	-422.942035	-422.989788	35.679	
C	 0.0880898452	 1.4351611913	-0.2699560274	-0.421782
C	 0.0041461183	-0.02284146	 0.1093400038	 0.075991
O	 1.223425569	-0.7702762873	 0.1567394168	-0.253936
C	 0.4911550138	-0.5982086116	 1.3731578331	 0.050205
C	 1.132551501	 0.2069193721	 2.4715856081	-0.074688
O	 1.8493367595	-0.6886873605	 3.2986079671	-0.246723
C	 2.5012941771	-0.0301115459	 4.3665745768	-0.203558
C	 3.1937110355	-1.0009316068	 5.2030630141	 0.28205
C	 3.7734791589	-1.7786545691	 5.9104822549	-0.4115
H	 0.9177873554	 1.941199047	 0.2272961041	 0.127309
H	 0.2330671323	 1.5327877873	-1.3508525464	 0.133231
H	-0.8432252182	 1.9508258242	-0.011304006	 0.123512
H	-0.8137037912	-0.5605629115	-0.3758012677	 0.090077
H	 0.0124983691	-1.5079221157	 1.7390931865	 0.100371
H	 1.8036222207	 0.9679919785	 2.0477868794	 0.099804
H	 0.3546628324	 0.7288231116	 3.0574868623	 0.090601
H	 3.2234950168	 0.7098596471	 3.9807384725	 0.120906
H	 1.7718474261	 0.531349223	 4.9765147471	 0.116666
H	 4.2850549184	-2.4730015438	 6.5301084609	 0.201464
34.7523	80.6804	82.9572	114.0868	157.776	179.8206	266.5095	324.945	334.6997	380.7201	473.5312	492.3118	583.7929	609.6594	677.5952	768.4404	843.3301	918.0758	974.6212	989.2265	1018.6466	1023.904	1040.7977	1103.731	1126.1583	1143.4629	1172.1844	1187.6183	1251.4373	1268.762	1306.1773	1354.2281	1396.8927	1413.6687	1440.1852	1473.4836	1489.9276	1492.8182	1509.9369	1519.7504	2249.2902	2944.3434	2951.7374	2968.1633	3014.4264	3040.0588	3079.0488	3100.2957	3106.1067	3135.1682	3506.5788
CC1OC1COCC#C	C[C@H]1O[C@H]1COCC#C	
InChI=1S/C7H10O2/c1-3-4-8-5-7-6(2)9-7/h1,6-7H,4-5H2,2H3	InChI=1S/C7H10O2/c1-3-4-8-5-7-6(2)9-7/h1,6-7H,4-5H2,2H3/t6-,7+/m1/s1
