14
gdb 13223	8.49097	0.83806	0.81537	1.9441	80.71	-0.2457	-0.0289	0.2168	1363.0101	0.105787	-345.323308	-345.315398	-345.314454	-345.356539	27.88	
C	-0.1663097386	-3.8801308656	-0.2061805731	-0.560503
C	-0.088729606	-2.6772782919	-0.1329964337	 0.306552
C	-0.0034045458	-1.3225344264	-0.0510718333	-0.308795
C	 0.075317564	-0.1168507902	 0.0277323424	 0.490745
C	 0.1526990056	 1.3285784466	 0.1186644765	-0.086583
C	-0.1857176155	 1.9801117749	 1.4909979035	-0.285444
C	 1.2554920825	 2.5202445778	 1.4278480537	-0.059289
O	 1.5100761718	 1.8361026634	 0.1802755102	-0.273607
H	-0.231643663	-4.9379087995	-0.2711733626	 0.19442
H	-0.388060438	 1.7775284982	-0.7257534812	 0.110981
H	-0.9826762913	 2.7232927621	 1.4608874211	 0.120686
H	-0.3801514469	 1.2638020721	 2.2885958112	 0.129089
H	 1.3476740208	 3.6073465234	 1.3193584181	 0.107584
H	 1.9304717605	 2.1815734351	 2.2215876671	 0.114163
49.0604	89.0221	115.0433	237.6461	258.9498	436.1604	478.2478	523.7929	551.1705	589.7163	611.6882	682.0987	794.4546	828.9277	926.4139	941.6706	1010.1626	1025.4213	1082.6503	1161.83	1190.3633	1214.1177	1253.7605	1257.6416	1351.4186	1362.4779	1487.864	1530.7145	2180.7256	2356.6799	3006.2765	3026.3274	3068.52	3094.6144	3155.2193	3504.1534
C#CC#CC1CCO1	C#CC#C[C@H]1CCO1	
InChI=1S/C7H6O/c1-2-3-4-7-5-6-8-7/h1,7H,5-6H2	InChI=1S/C7H6O/c1-2-3-4-7-5-6-8-7/h1,7H,5-6H2/t7-/m0/s1
