18
gdb 19068	3.49947	2.42294	2.03288	1.7876	69.54	-0.2602	0.0866	0.3468	748.0927	0.157352	-347.784954	-347.779091	-347.778147	-347.814474	25.019	
C	-0.0455793809	 1.533249492	-0.030981672	-0.220884
C	 1.5101119967	 1.4989444336	-0.0022515602	-0.012612
C	 1.381502971	 0.1280580348	 0.7290715379	-0.223724
C	 0.0153105733	-0.0181930195	-0.0106415092	-0.050881
C	 0.3118759376	-0.5439087061	-1.4110896063	 0.051996
O	 0.0195732127	 0.3157154458	-2.518210163	-0.255863
C	 1.39283322	 0.142860389	-2.1341829515	 0.052041
C	 2.0770226041	 1.3014689717	-1.4196731291	-0.238937
H	-0.4544760161	 1.9202513767	 0.9057342987	 0.091831
H	-0.537346074	 2.0054730271	-0.8815739315	 0.114548
H	 2.0328608871	 2.3065789453	 0.5158323867	 0.060015
H	 2.1476647415	-0.6323084717	 0.5458952149	 0.088114
H	 1.2483236005	 0.2579023296	 1.8060028185	 0.097995
H	-0.7943965639	-0.5682405628	 0.4732472631	 0.060296
H	 0.1179727869	-1.5998314421	-1.5958856302	 0.087242
H	 1.9846062646	-0.3983034969	-2.8713540474	 0.089877
H	 1.9743983859	 2.2194097077	-2.0117793198	 0.109853
H	 3.150190563	 1.0803176455	-1.3581358296	 0.099093
243.3322	305.4359	400.6811	407.0805	460.3726	558.9029	631.8274	768.4873	803.7527	821.2211	842.4681	870.8185	894.951	919.4667	923.5579	950.8098	986.7392	1026.4221	1064.6317	1077.9401	1096.4689	1111.3487	1128.1605	1146.7697	1153.7337	1225.9057	1249.7	1268.243	1282.5457	1301.5166	1315.6943	1340.9334	1363.8943	1384.8053	1452.4022	1472.812	1477.123	1508.475	3022.1042	3044.8794	3060.5724	3065.4049	3075.9298	3082.9372	3106.3549	3110.8532	3123.0603	3138.0833
C1C2CC1C1OC1C2	C1[C@H]2C[C@@H]1[C@H]1O[C@H]1C2	
InChI=1S/C7H10O/c1-4-2-5(1)7-6(3-4)8-7/h4-7H,1-3H2	InChI=1S/C7H10O/c1-4-2-5(1)7-6(3-4)8-7/h4-7H,1-3H2/t4-,5+,6-,7+/m0/s1
