20
gdb 58487	2.20434	1.32301	1.08479	4.152	80.18	-0.2729	0.0332	0.3062	1225.0653	0.168779	-403.158395	-403.148261	-403.147317	-403.19313	37.276	
C	 0.1350790021	 1.4442658671	-0.3166045866	-0.413493
C	 0.0113077031	-0.0037166611	 0.1660273438	 0.0608
O	 0.4126994142	-0.1359276756	 1.5262461165	-0.441274
C	-1.4122750797	-0.5382195751	 0.0931290044	 0.365357
C	-2.4232907961	 0.1406382714	 0.9981183565	-0.470714
C	-1.8783675628	-1.0869566217	-1.2222326978	-0.335835
C	-1.5801698527	-2.0488848789	-0.0781731283	-0.224383
C	-0.4424089998	-2.9200790917	-0.1620464156	 0.301578
N	 0.4716611957	-3.6261624813	-0.236660277	-0.355531
H	 1.1828013143	 1.7626804763	-0.2878215838	 0.111925
H	-0.2156168946	 1.5487722496	-1.3483726931	 0.120306
H	-0.439355344	 2.1213823452	 0.3211903233	 0.129017
H	 0.6427428095	-0.6387099859	-0.473381841	 0.085916
H	 1.3433267935	 0.0995818652	 1.5898494458	 0.28786
H	-2.5796262466	 1.183339961	 0.7033704706	 0.12337
H	-3.3934363293	-0.3627607606	 0.9490059774	 0.113721
H	-2.0754229579	 0.1264865281	 2.0336069176	 0.150526
H	-2.9193480418	-0.9633951682	-1.4997341534	 0.125947
H	-1.185823262	-1.0937105543	-2.0567180901	 0.134506
H	-2.4327425448	-2.4941932297	 0.4235101606	 0.130401
71.5884	113.6329	140.3314	204.47	223.3899	228.256	250.4953	274.6296	308.9929	341.542	392.0625	463.346	520.5911	567.1082	618.3061	705.2719	793.5131	859.6795	890.056	929.9619	944.3852	996.1912	1034.3427	1072.1245	1083.0767	1102.9326	1123.8415	1131.1522	1138.7662	1207.4078	1300.1728	1320.2795	1373.7284	1397.6092	1404.3897	1411.5129	1441.0061	1482.1996	1488.6535	1493.0804	1499.977	1512.3279	2349.6167	2989.8906	3034.9679	3041.9634	3100.3129	3103.1025	3122.4247	3129.5211	3136.9592	3166.9345	3225.7261	3827.4056
CC(O)C1(C)CC1C#N	C[C@@H](O)[C@@]1(C)C[C@H]1C#N	
InChI=1S/C7H11NO/c1-5(9)7(2)3-6(7)4-8/h5-6,9H,3H2,1-2H3	InChI=1S/C7H11NO/c1-5(9)7(2)3-6(7)4-8/h5-6,9H,3H2,1-2H3/t5-,6+,7-/m1/s1
