17
gdb 51742	2.95034	1.09789	0.88427	3.474	70.69	-0.2705	0.0034	0.2738	1296.7654	0.134362	-458.949135	-458.940671	-458.939727	-458.983366	30.486	
O	-0.5582194275	 0.2752250759	-0.4688091017	-0.271113
C	-0.3064670686	 1.4182092863	-0.2392805803	 0.167297
O	 0.9524350461	 1.8580063604	-0.0272882576	-0.191293
C	 1.1590811824	 3.2389295851	 0.2260702541	 0.054205
C	 2.0345650283	 3.6005640016	 1.4533761204	-0.261617
C	 2.7637968449	 4.6680387181	 0.5795989062	-0.328497
C	 2.1904840335	 3.9512317569	-0.647000521	 0.4256
C	 2.878674987	 3.4121029128	-1.8179822516	-0.256074
O	 1.9411198003	 4.4999754278	-1.9191790798	-0.272195
H	-1.0586305027	 2.2282287333	-0.1746839678	 0.084384
H	 0.200919524	 3.7734480667	 0.2246461719	 0.099964
H	 1.5139619187	 3.9455975477	 2.3471411616	 0.115036
H	 2.6883715712	 2.7650989205	 1.7112972331	 0.131755
H	 2.3395280841	 5.66861954	 0.6987276974	 0.123947
H	 3.8498691764	 4.7284964788	 0.6621398305	 0.120244
H	 3.9194713612	 3.6778543087	-1.9961466881	 0.122173
H	 2.5480384604	 2.4700630694	-2.2500485172	 0.136184
41.3126	98.0261	139.5773	188.5505	246.5271	311.3236	369.8273	389.7348	486.3036	561.6342	653.0747	750.8055	843.3757	860.8407	895.9067	906.0969	952.9913	969.4226	1042.0195	1078.646	1098.6674	1129.6319	1133.0299	1156.4586	1166.8867	1185.6836	1209.0048	1236.3162	1269.5378	1272.2056	1383.8874	1436.5884	1441.0309	1477.5136	1496.398	1537.8785	1869.7924	2951.5998	3033.9721	3071.3042	3084.4307	3091.8105	3126.6591	3146.0796	3185.5295
O=COC1CCC11CO1	O=CO[C@H]1CC[C@]21CO2	
InChI=1S/C6H8O3/c7-4-8-5-1-2-6(5)3-9-6/h4-5H,1-3H2	InChI=1S/C6H8O3/c7-4-8-5-1-2-6(5)3-9-6/h4-5H,1-3H2/t5-,6+/m0/s1
