20
gdb 85983	2.82082	1.20987	1.02467	0.8582	75.47	-0.2213	0.0771	0.2983	1244.2051	0.169365	-440.227047	-440.217933	-440.216989	-440.260981	34.286	
C	 0.1179622263	 1.4876711978	 0.1417761472	-0.320121
N	-0.0039840468	 0.0466484544	 0.1506811161	-0.092952
C	-1.2584065475	-0.5540860484	 0.6504892916	-0.232862
C	-0.4068021999	-1.7180353014	 1.2340723288	 0.378903
O	-0.2957251851	-2.8295199515	 0.3680485569	-0.494755
C	 0.7803219355	-0.7220468932	 1.1414161501	-0.239376
C	-0.8056464188	-2.2699846902	 2.5768398553	 0.048565
C	 0.1574965647	-2.48428722	 3.6607523441	-0.180698
O	-0.7432748393	-1.3709047029	 3.6816025339	-0.237376
H	 1.1296749003	 1.7728855717	-0.1658537647	 0.120472
H	-0.5851890182	 1.9157192997	-0.5806190772	 0.120665
H	-0.0827489985	 1.9439303787	 1.1293834214	 0.097582
H	-1.7404128559	 0.0368536841	 1.4454464304	 0.102358
H	-1.9965894945	-0.8135266154	-0.1166051838	 0.098576
H	-0.0925809464	-2.483263751	-0.5086122553	 0.2902
H	 1.7335571363	-1.1212024364	 0.7781784132	 0.098261
H	 0.9323811432	-0.1816040925	 2.0884927365	 0.102327
H	-1.6967968506	-2.8982428584	 2.5467982637	 0.101122
H	-0.0330595681	-3.2521598853	 4.4081493581	 0.120547
H	 1.2051264333	-2.2314672699	 3.5070961037	 0.118563
74.227	87.1366	183.6738	227.3522	235.676	300.4585	309.8455	354.391	397.7222	410.1579	495.9315	520.2113	599.288	734.2602	874.9057	892.0857	907.0706	926.1475	968.4535	985.1329	997.5517	1054.8968	1097.9237	1118.8317	1129.8535	1141.3981	1161.5032	1171.4922	1195.1814	1212.73	1218.8496	1253.6105	1290.5956	1297.995	1324.3995	1397.035	1450.121	1466.0944	1485.3249	1490.3174	1498.6767	1520.2034	1529.5198	2932.4086	2977.6649	2989.5905	3056.5441	3060.5754	3063.9767	3090.7362	3097.6057	3106.777	3179.023	3799.4454
CN1CC(O)(C1)C1CO1	CN1CC(O)(C1)[C@H]1CO1	
InChI=1S/C6H11NO2/c1-7-3-6(8,4-7)5-2-9-5/h5,8H,2-4H2,1H3	InChI=1S/C6H11NO2/c1-7-3-6(8,4-7)5-2-9-5/h5,8H,2-4H2,1H3/t5-/m1/s1
