19
gdb 72244	2.38413	1.73908	1.48326	0.6252	74.53	-0.217	0.0794	0.2964	996.514	0.159462	-422.997332	-422.989282	-422.988338	-423.029369	31.765	
C	-0.1039596493	 1.5060992907	-0.0137993966	-0.520911
C	-0.0161460424	 0.0110216693	 0.0192017764	 0.246903
C	-0.0150217974	-0.9499322019	-1.1281188853	-0.018626
O	 1.105404633	-1.8112066234	-1.1417391461	-0.271425
C	 1.8278278266	-1.5575999304	 0.0720747114	-0.079927
C	 0.8019468229	-0.8967235869	 0.9910910065	-0.121367
C	-0.4515054728	-1.8210443784	 1.1584433177	-0.298234
C	-1.0662008825	-1.1006903465	-0.0373944824	 0.29633
O	-2.4191368159	-0.9345273612	-0.275681166	-0.463342
H	 0.8575778401	 1.9592576925	-0.2821659186	 0.120558
H	-0.8443837414	 1.833096012	-0.7503874868	 0.131063
H	-0.4052889043	 1.9118505307	 0.9586621985	 0.121097
H	-0.3497642645	-0.6432623215	-2.112985255	 0.100129
H	 2.2038555223	-2.5128197567	 0.453247079	 0.105872
H	 2.6841312966	-0.8939770999	-0.1242212452	 0.090661
H	 1.2097364647	-0.4483709402	 1.8969021334	 0.075949
H	-0.2869680885	-2.9022965936	 1.084569454	 0.092346
H	-1.0007187227	-1.593137965	 2.075406004	 0.106443
H	-2.7329917847	-1.6880127895	-0.7884292389	 0.286481
165.2935	179.2913	206.0577	241.6945	254.4144	322.3673	339.1306	422.5136	531.875	554.4742	644.09	717.1588	740.678	775.8094	837.5559	868.6645	934.309	944.5746	965.9548	996.2961	1016.3261	1065.7782	1068.8578	1112.2688	1125.7695	1161.891	1177.9496	1218.2787	1227.4268	1230.8186	1258.1985	1291.0005	1306.9663	1344.7313	1371.5943	1413.6119	1468.2548	1486.9247	1494.7795	1511.3009	1516.7174	2984.8269	3023.1369	3033.7915	3070.5244	3081.0302	3101.399	3101.5385	3117.7726	3181.8119	3788.4276
CC12C3OCC1CC23O	C[C@@]12[C@H]3OC[C@@H]1C[C@@]23O	
InChI=1S/C7H10O2/c1-6-4-2-7(6,8)5(6)9-3-4/h4-5,8H,2-3H2,1H3	InChI=1S/C7H10O2/c1-6-4-2-7(6,8)5(6)9-3-4/h4-5,8H,2-3H2,1H3/t4-,5+,6-,7-/m0/s1
