21
gdb 109187	3.4738	0.90474	0.77595	0.9305	91.71	-0.2323	0.0257	0.258	1531.3402	0.181892	-349.945317	-349.935846	-349.934902	-349.979924	35.675	
C	 0.0152129673	 1.5195952341	 0.2770215563	-0.374206
C	-0.0388677403	 0.0322402745	-0.1149706856	-0.292807
C	-1.4235711571	-0.5443807825	-0.0865899139	 0.342353
C	-2.1122253805	-1.0396338423	-1.1176169353	-0.183447
C	-3.4977527585	-1.4960842847	-0.7364873535	-0.260466
C	-3.4171717315	-1.5525457762	 0.8213928245	-0.160342
C	-2.2506359817	-0.585773524	 1.1845485824	-0.311256
C	-4.6708755404	-1.2735166403	 1.5050601824	 0.31018
C	-5.7070743388	-1.0304990152	 2.0651419338	-0.460961
H	 1.0428467713	 1.8934354926	 0.2388124008	 0.11397
H	-0.5926989869	 2.1250864402	-0.4026278856	 0.120835
H	-0.3594931451	 1.6797457567	 1.2929282861	 0.121764
H	 0.387886288	-0.0991294803	-1.1156788225	 0.101384
H	 0.6034014461	-0.534096612	 0.5748874036	 0.101977
H	-1.7460221418	-1.0823894826	-2.1384097403	 0.085429
H	-4.2613930944	-0.7779432568	-1.064230107	 0.116014
H	-3.7772107523	-2.4654387578	-1.1625044676	 0.10829
H	-3.0931223904	-2.5656826912	 1.0897688032	 0.107089
H	-1.6873466289	-0.9352855681	 2.0572809656	 0.105332
H	-2.6345383704	 0.4105574354	 1.4391615695	 0.118092
H	-6.6219731939	-0.8214333195	 2.5613734533	 0.190777
65.7293	76.911	132.2328	177.3741	223.0594	252.7321	304.266	361.4236	457.8319	504.395	521.4964	579.1395	621.0023	626.0509	636.242	787.6751	838.4992	843.9782	866.5358	928.9795	964.6943	980.2333	1024.73	1042.1822	1056.6678	1076.2125	1094.8868	1146.043	1194.4358	1203.1967	1262.9039	1290.774	1296.0144	1308.3887	1346.918	1353.5135	1360.6021	1408.2576	1480.0147	1487.8433	1495.8992	1500.0477	1508.2614	1717.7374	2234.3974	3004.0903	3016.9867	3022.2099	3026.1423	3037.4815	3058.9486	3061.6033	3067.8772	3108.8088	3109.7386	3181.3241	3505.8907
CCC1=CCC(C1)C#C	CCC1=CC[C@@H](C1)C#C	
InChI=1S/C9H12/c1-3-8-5-6-9(4-2)7-8/h1,6,8H,4-5,7H2,2H3	InChI=1S/C9H12/c1-3-8-5-6-9(4-2)7-8/h1,6,8H,4-5,7H2,2H3/t8-/m0/s1
