15
gdb 15542	2.97736	2.12413	1.43844	3.5537	66.37	-0.2322	0.0018	0.234	866.2825	0.120336	-358.860117	-358.852514	-358.85157	-358.892387	26.696	
C	 0.0629715968	 1.3916410438	 0.0937987642	-0.34627
N	-0.1657259107	-0.0381607155	 0.0516177086	-0.047664
C	 0.0349315901	-0.8267532613	-1.0682655888	 0.076376
N	 0.1409962047	-2.0863393602	-0.9042637673	-0.258893
C	 0.018700328	-2.3199301045	 0.5407118824	-0.177435
C	 0.0663911306	-0.8995542754	 1.2131369274	-0.154895
C	 1.360784086	-0.6156505222	 1.8625176186	 0.276268
N	 2.3735588624	-0.3822422309	 2.3685841883	-0.323334
H	 1.0858437524	 1.6458399328	 0.4039069816	 0.147033
H	-0.1129857936	 1.8048756675	-0.9021975111	 0.141166
H	-0.6371209057	 1.8702149003	 0.7864490132	 0.136498
H	 0.0551897937	-0.341737454	-2.0401701735	 0.133173
H	-0.9408087185	-2.8034394129	 0.7561644847	 0.125578
H	 0.8135960928	-2.9735456974	 0.9054818896	 0.139428
H	-0.717704519	-0.7710921101	 1.966431062	 0.13297
85.4669	117.8177	159.573	198.4565	264.8765	335.4312	474.403	497.4828	590.758	650.915	791.8625	828.218	939.2369	950.2341	971.6725	997.0056	1056.3109	1073.9195	1156.6141	1211.5039	1222.8411	1245.1076	1320.1446	1323.7296	1351.9159	1395.4709	1466.3456	1481.122	1493.8129	1523.41	1694.7748	2348.7066	3009.6613	3041.3327	3057.227	3075.9429	3108.156	3123.8467	3186.0423
CN1C=NCC1C#N	CN1[CH][N]C[C@H]1C#N	
InChI=1S/C5H7N3/c1-8-4-7-3-5(8)2-6/h4-5H,3H2,1H3	InChI=1S/C5H7N3/c1-8-4-7-3-5(8)2-6/h4-5H,3H2,1H3/t5-/m1/s1
