18
gdb 11035	4.05127	1.72606	1.44389	1.177	67.31	-0.2291	0.0665	0.2956	911.7136	0.153592	-384.927576	-384.919812	-384.918868	-384.95921	29.986	
C	 0.033707267	 1.5943015635	 0.1860442217	-0.465049
C	 0.121663368	 0.1041720381	 0.0271936284	 0.45018
C	-0.8966860573	-0.8409930276	 0.6089015832	-0.349698
C	 0.5481733193	-0.8702652049	 1.0908584127	-0.11509
C	 1.4548338233	-1.8684304872	 0.4089674697	 0.08464
O	 1.134200675	-3.2024175799	 0.7767011389	-0.428588
C	 1.2022523366	-1.5858142111	-1.0988719261	-0.133681
O	 0.7077752292	-0.2600092878	-1.2086305799	-0.292583
H	 1.025738908	 2.0505663614	 0.108919931	 0.122628
H	-0.6006245217	 2.0268525199	-0.5946040307	 0.128971
H	-0.3963158468	 1.853531886	 1.1571730725	 0.117656
H	-1.6290264034	-0.4237943771	 1.2915577318	 0.111171
H	-1.2617191699	-1.671776745	 0.0159518865	 0.124386
H	 0.7822732416	-0.5561922369	 2.1010235422	 0.087753
H	 2.4982087217	-1.6428008994	 0.6743667831	 0.071265
H	 1.798851038	-3.7860622266	 0.3970173739	 0.283239
H	 2.1022482095	-1.6628702968	-1.7172112396	 0.101538
H	 0.469491662	-2.3210524485	-1.4619024993	 0.101262
117.0568	194.7717	206.0757	254.6691	264.8685	360.9453	397.615	430.7682	534.2688	602.5414	643.8643	715.5075	833.5123	837.0387	917.1563	933.9393	967.9763	991.8729	1007.3576	1043.1518	1075.5907	1082.0755	1109.6762	1123.151	1142.064	1231.7513	1238.4666	1248.3793	1284.3633	1341.1129	1358.8107	1395.4753	1428.4708	1436.7268	1477.6093	1485.1406	1506.1434	1523.0259	2988.2151	3000.1414	3037.6888	3074.0093	3102.6252	3119.6364	3136.5906	3178.9202	3223.1765	3814.8984
CC12CC1C(O)CO2	C[C@]12C[C@H]1[C@@H](O)CO2	
InChI=1S/C6H10O2/c1-6-2-4(6)5(7)3-8-6/h4-5,7H,2-3H2,1H3	InChI=1S/C6H10O2/c1-6-2-4(6)5(7)3-8-6/h4-5,7H,2-3H2,1H3/t4-,5-,6-/m0/s1
