19
gdb 102146	2.01764	1.27384	0.89289	3.7856	78.75	-0.2389	0.0403	0.2792	1347.2747	0.15757	-419.208638	-419.198291	-419.197347	-419.244755	37.24	
C	 0.0458339123	 1.2887655317	 0.2672683851	-0.379622
C	 0.024681949	-0.2083075222	-0.0675052698	-0.174187
N	 0.6182485887	-0.5342410088	-1.3584554261	-0.09879
C	 2.0516755739	-0.8047153807	-1.409276489	-0.322312
C	 2.4526457558	-1.9617837404	-0.6073963247	 0.318336
C	 2.7846484305	-2.8975913061	 0.069820726	-0.46343
C	-0.0921282227	-0.6494822678	-2.5361200588	 0.45792
N	-1.450535158	-0.3618991147	-2.4480130735	-0.57203
O	 0.4115595845	-1.0160656667	-3.5855211335	-0.408425
H	 1.069394325	 1.6757083818	 0.2769055455	 0.128828
H	-0.5210628527	 1.8754968288	-0.4636729565	 0.115086
H	-0.390153866	 1.4654060397	 1.2557332688	 0.122841
H	 0.5775365869	-0.7662433988	 0.6955886259	 0.128469
H	-0.9971778313	-0.5971843664	-0.0415581795	 0.125182
H	 2.2934158444	-0.9707587952	-2.4618163963	 0.18196
H	 2.6137453518	 0.0778753436	-1.0730438116	 0.126518
H	 3.0816051054	-3.7362998277	 0.6496053451	 0.201039
H	-1.7554356285	 0.3548050046	-1.8086681976	 0.251894
H	-1.865668799	-0.2939923647	-3.3649711997	 0.260722
41.1595	72.5308	101.443	106.8204	211.624	224.1084	299.4003	330.0455	373.5777	386.1323	429.9354	457.2384	560.5379	598.4983	604.9362	613.398	665.7017	768.2962	774.673	802.1866	929.796	943.7191	989.6284	1073.1449	1090.2594	1104.5658	1189.7974	1243.3578	1309.9236	1331.0438	1371.024	1398.3114	1410.9207	1456.6271	1470.9192	1490.9882	1498.5913	1517.205	1624.6815	1776.511	2236.2493	3003.8339	3034.2411	3051.4259	3085.2012	3106.2757	3106.7381	3114.7215	3504.1132	3584.3472	3694.7769
CCN(CC#C)C(N)=O	CCN(CC#C)C(=O)N	
InChI=1S/C6H10N2O/c1-3-5-8(4-2)6(7)9/h1H,4-5H2,2H3,(H2,7,9)	InChI=1S/C6H10N2O/c1-3-5-8(4-2)6(7)9/h1H,4-5H2,2H3,(H2,7,9)
