17
gdb 13801	4.03456	1.226	1.10604	3.1521	65.84	-0.2441	0.0267	0.2708	1100.4676	0.141296	-401.015625	-401.006422	-401.005478	-401.050371	31.994	
N	-0.0216229429	 1.2722388627	 0.3438261621	-0.534426
C	 0.0106989973	 0.0833681434	-0.3278998047	 0.421769
O	 0.9816352857	-0.2549557451	-0.9854129105	-0.37905
C	-1.2293826554	-0.7457281844	-0.1846446259	-0.146195
C	-1.565773273	-1.7206371704	-1.2970698463	-0.274938
C	-1.1476312969	-2.2537174002	 0.0340246394	 0.018801
C	 0.1623183201	-2.9788527096	 0.2128389057	-0.115945
O	-0.0809446667	-4.3508419472	-0.0874538614	-0.426791
H	 0.7669399068	 1.8906399341	 0.2499522199	 0.260183
H	-0.8294195902	 1.5879384795	 0.8496500182	 0.25795
H	-2.062986626	-0.253778227	 0.3072706894	 0.075929
H	-2.6020053418	-1.804192084	-1.6034683341	 0.11289
H	-0.8342643384	-1.7695134892	-2.0961788627	 0.141832
H	-1.9416958157	-2.6490810136	 0.6620313052	 0.095887
H	 0.9211462781	-2.5421217413	-0.4446737378	 0.12829
H	 0.5099946602	-2.8624264862	 1.2528345286	 0.078881
H	 0.7634010589	-4.8099327914	-0.057554345	 0.284932
53.2791	71.8111	87.9422	150.1035	213.4467	230.1611	274.1672	383.3855	401.816	486.737	581.6717	637.8746	751.1183	802.2855	810.9883	873.9794	919.6894	971.5644	1019.6909	1064.3872	1072.3461	1077.1643	1127.7221	1134.8572	1168.0328	1226.0191	1267.2615	1274.3289	1292.5352	1391.4572	1438.9388	1467.209	1488.7896	1532.352	1616.4371	1774.2197	2963.6685	3072.5951	3139.0994	3141.0127	3152.2764	3233.1009	3608.2373	3746.3743	3829.8369
NC(=O)C1CC1CO	NC(=O)[C@H]1C[C@H]1CO	
InChI=1S/C5H9NO2/c6-5(8)4-1-3(4)2-7/h3-4,7H,1-2H2,(H2,6,8)	InChI=1S/C5H9NO2/c6-5(8)4-1-3(4)2-7/h3-4,7H,1-2H2,(H2,6,8)/t3-,4-/m0/s1
