19
gdb 97846	3.54645	0.75092	0.67014	2.1468	82.27	-0.2402	0.0303	0.2705	1738.1896	0.157069	-422.971386	-422.961213	-422.960269	-423.008711	35.041	
C	 0.129267191	 1.6136211947	-0.1338236594	-0.36513
C	-0.0800621123	 0.0974372285	 0.0320934805	-0.315836
C	 0.5839441694	-0.4516498286	 1.2083677954	 0.062441
C	 1.1375939347	-0.892851323	 2.1831514325	 0.145037
C	 1.8019247756	-1.4068722871	 3.3662023578	-0.129558
O	 0.9241048753	-1.5522169196	 4.5190884311	-0.272599
C	 0.9587767513	-2.9916846931	 4.4334148976	-0.104602
C	 2.1002073789	-2.9372289206	 3.3958487943	 0.078225
O	 1.9350645106	-3.5953136247	 2.1723135643	-0.414173
H	 1.1922044764	 1.8509438633	-0.2303646976	 0.127297
H	-0.3874937623	 1.9744132149	-1.0282095489	 0.113341
H	-0.2597504024	 2.1560533701	 0.7320363026	 0.130349
H	-1.1540018684	-0.1217946002	 0.0901311	 0.131912
H	 0.2841634836	-0.4253510876	-0.8617697268	 0.132091
H	 2.6606285338	-0.7742482154	 3.6222129499	 0.102187
H	 1.1702488295	-3.4562075637	 5.4030685188	 0.098863
H	 0.0323246335	-3.4053575596	 4.013843486	 0.107398
H	 3.0831705736	-3.1383979135	 3.8386048354	 0.08229
H	 2.2987042682	-4.4822643848	 2.2493463465	 0.290469
19.7428	62.8712	75.3793	125.6471	154.4582	182.3415	228.4614	317.2167	357.6405	414.2088	472.7933	523.7123	580.6301	711.6479	779.8168	783.8064	878.357	913.2745	967.2512	992.2576	1016.5646	1076.7496	1080.5747	1102.7913	1155.9147	1171.615	1176.7369	1207.445	1261.1022	1285.4043	1303.4393	1334.2963	1348.715	1359.4009	1408.4773	1443.0212	1471.3362	1494.8898	1505.2998	1514.3968	2361.5145	3012.9663	3019.7674	3020.5105	3033.9772	3044.2638	3048.0514	3071.6189	3117.3766	3124.3347	3831.3685
CCC#CC1OCC1O	CCC#C[C@H]1OC[C@H]1O	
InChI=1S/C7H10O2/c1-2-3-4-7-6(8)5-9-7/h6-8H,2,5H2,1H3	InChI=1S/C7H10O2/c1-2-3-4-7-6(8)5-9-7/h6-8H,2,5H2,1H3/t6-,7-/m1/s1
