20
gdb 6763	7.25167	0.64153	0.60026	1.2196	72.53	-0.2428	-0.0082	0.2346	1824.4937	0.173815	-386.163111	-386.152722	-386.151778	-386.200111	35.024	
C	-0.0866683299	 1.5281231395	 0.0109187982	-0.472512
C	 0.0786623254	 0.0171844414	 0.0023018517	 0.376044
O	 1.1703337965	-0.5041969889	-0.0116699581	-0.290207
C	-1.2072860799	-0.8009944067	 0.0099165591	-0.301104
C	-0.9800548278	-2.3118638018	-0.0006824212	-0.17528
C	-2.2880285867	-3.1072475036	 0.0073387725	-0.173456
C	-2.0617695938	-4.6130794511	-0.0032500503	-0.074445
O	-3.3319482005	-5.2474457049	 0.0053166377	-0.422188
H	 0.8924871495	 2.0081731352	 0.0040354495	 0.141816
H	-0.6637428872	 1.8541342694	-0.861772718	 0.137024
H	-0.6474203453	 1.8459079761	 0.8971661344	 0.13695
H	-1.7959576718	-0.4975561662	 0.8879430278	 0.118381
H	-1.8125689763	-0.4878322232	-0.8532837953	 0.118416
H	-0.3816876494	-2.5750253413	-0.8806279152	 0.110442
H	-0.3650693026	-2.5847554349	 0.8647201968	 0.11043
H	-2.8841353977	-2.8533631907	 0.8930768435	 0.102177
H	-2.9008950945	-2.8435209157	-0.8639686943	 0.102176
H	-1.4806418158	-4.8944602083	-0.8970308832	 0.085135
H	-1.4637210358	-4.9043887914	 0.876068705	 0.085135
H	-3.1929662465	-6.1988253231	-0.0011420805	 0.285067
34.3727	58.5137	96.0648	97.1151	131.2937	137.6568	233.0274	265.4956	284.5628	419.1788	472.6123	479.1646	601.3965	725.8976	781.9498	825.7309	886.3456	936.6312	990.2632	1012.4474	1052.5427	1066.9584	1097.989	1144.5926	1174.5476	1203.8097	1233.5987	1276.7725	1295.336	1316.2534	1325.1746	1359.3663	1382.9764	1400.7408	1450.7884	1465.4777	1466.4171	1477.5436	1486.7181	1502.763	1529.8096	1811.3711	2958.796	2983.5784	3007.8466	3023.4745	3032.808	3036.8489	3041.6218	3056.7729	3084.1872	3096.8806	3152.0601	3829.9262
CC(=O)CCCCO	CC(=O)CCCCO	
InChI=1S/C6H12O2/c1-6(8)4-2-3-5-7/h7H,2-5H2,1H3	InChI=1S/C6H12O2/c1-6(8)4-2-3-5-7/h7H,2-5H2,1H3
