21
gdb 107706	3.1157	1.35276	1.13666	1.4684	82.94	-0.2235	0.0953	0.3188	1184.18	0.180846	-387.02	-387.011183	-387.010239	-387.053229	34.202	
C	-0.11688754	 1.5520216937	-0.1043077052	-0.379264
C	-0.1099608181	 0.0191349186	-0.067708677	-0.329989
C	-1.4852789063	-0.5593785428	 0.062388179	 0.496344
O	-2.4718157287	-0.2643868841	-0.9814910671	-0.396541
C	-3.1925691285	-1.1149210014	-0.0344183509	 0.468806
C	-4.6198512142	-1.4582906783	-0.3138145922	-0.525435
C	-1.9606840084	-2.0362121335	 0.2600037152	-0.190392
C	-2.1074647761	-1.8568135679	 1.7858616912	-0.286698
C	-2.5271291799	-0.4792716502	 1.2317312	-0.178371
H	 0.8924110426	 1.9445044972	-0.2581115238	 0.110714
H	-0.7548202828	 1.9119434248	-0.9158758111	 0.140227
H	-0.5016108009	 1.9667810664	 0.8329930152	 0.116482
H	 0.3437069123	-0.3770357689	-0.9846515519	 0.112071
H	 0.5004090076	-0.3449013164	 0.7683014573	 0.106039
H	-4.7072526609	-1.9932802786	-1.2645450923	 0.133524
H	-5.0219075748	-2.0952769721	 0.4804301559	 0.127132
H	-5.2288511691	-0.5507666789	-0.371694067	 0.133395
H	-1.6439522986	-2.904369551	-0.319880546	 0.074161
H	-2.8879931846	-2.4463233672	 2.2751863777	 0.095809
H	-1.1862958374	-1.8889646232	 2.3742959261	 0.096908
H	-2.8557752333	 0.419211944	 1.755762757	 0.075076
82.9117	139.4823	174.9909	204.2523	244.3803	268.688	286.5946	394.9686	499.484	544.5988	596.5592	656.0246	724.0219	757.7192	760.1316	810.603	857.761	887.9792	920.7157	943.5472	970.2927	1003.4048	1023.0889	1073.4431	1090.8588	1099.021	1116.2218	1126.9039	1138.5253	1166.3288	1196.7785	1235.984	1254.3523	1263.8434	1307.9915	1358.2181	1401.4592	1408.4331	1443.668	1470.7412	1473.9775	1491.7159	1495.8654	1508.1167	1513.1002	3026.5523	3037.3834	3041.6856	3049.7488	3061.8184	3103.4271	3106.2184	3109.4356	3110.1615	3111.7708	3112.8014	3123.5664
CCC12OC3(C)C1CC23	CC[C@@]12O[C@@]3(C)[C@@H]1C[C@@H]23	
InChI=1S/C8H12O/c1-3-8-5-4-6(8)7(5,2)9-8/h5-6H,3-4H2,1-2H3	InChI=1S/C8H12O/c1-3-8-5-4-6(8)7(5,2)9-8/h5-6H,3-4H2,1-2H3/t5-,6+,7-,8+
