15
gdb 130436	3.17485	1.49996	1.05173	4.9232	70.03	-0.231	-0.0515	0.1795	1074.9774	0.115711	-450.145737	-450.138479	-450.137535	-450.177591	27.476	
N	-1.1296148035	 1.0855708788	 0.4926687541	-0.53283
H	-1.8744840495	 0.9875468466	 2.1050852173	 0.318173
H	-0.9501405512	 0.1517581288	 0.1347639989	 0.255856
H	-1.5068323386	 1.6329955397	-0.2732085691	 0.25507
C	 0.1165569625	 1.6938195116	 1.004321064	-0.266583
C	 0.4998542543	 1.1010681124	 2.3403857499	 0.218761
N	 1.7873815422	 0.9416712481	 2.5845241694	-0.237699
N	 2.1877032243	 0.5024036718	 3.7836635531	-0.216846
C	 1.2388432406	 0.2548193012	 4.6799596433	 0.098586
N	-0.0849287391	 0.3511661832	 4.519271908	-0.2877
C	-0.4726365764	 0.7644708167	 3.3263610938	 0.373966
O	-1.7742484158	 0.8519000686	 3.0860070477	-0.391428
H	 0.9751380783	 1.6040127355	 0.328997743	 0.138314
H	-0.0839570239	 2.7647433139	 1.1365042275	 0.140351
H	 1.5899759459	-0.0747592269	 5.6542375291	 0.134009
112.5052	140.723	274.0852	290.4946	342.7374	413.9533	453.8518	481.1022	584.2135	608.6214	662.7404	751.3374	822.7938	882.0571	939.0503	979.3427	994.5511	1005.9911	1036.0977	1105.0542	1149.8089	1178.3477	1246.4757	1304.7042	1346.7092	1402.292	1414.624	1456.5304	1484.6938	1495.3617	1580.6369	1632.0101	1653.4156	3025.8188	3068.7698	3175.931	3205.1232	3502.6499	3585.9279
[NH3+]CC1=N[N-]C=NC1=O	NCc1nncnc1O	
InChI=1S/C4H6N4O/c5-1-3-4(9)6-2-7-8-3/h2H,1,5H2,(H,6,7,9)	InChI=1S/C4H6N4O/c5-1-3-4(9)6-2-7-8-3/h2H,1,5H2,(H,6,7,9)
