17
gdb 35558	3.45662	1.27159	1.06903	1.7205	80.64	-0.2432	-0.001	0.2422	1145.2576	0.13579	-384.617734	-384.60998	-384.609036	-384.650105	30.085	
C	 0.2206805092	-1.1501595968	 0.0124103351	-0.425198
C	 0.1082639695	 0.0461073741	 0.0078906097	 0.33493
C	-0.0307227856	 1.489410044	-0.0209517372	-0.136456
O	-0.2905080733	 2.1068860793	 1.2917024708	-0.32319
C	 0.6844560128	 3.1770184612	 1.0112939923	 0.116234
C	 1.9117225303	 3.4163189639	 1.904267564	-0.249956
C	 3.0994500065	 3.2724850022	 0.8894009759	-0.24607
C	 2.5446202724	 2.2929035888	-0.1462507468	-0.202238
C	 1.2203800593	 2.3421989976	-0.1012574744	 0.181174
H	 0.320865372	-2.2074438592	 0.0237167247	 0.202384
H	-0.8254841631	 1.7812101523	-0.721404611	 0.110161
H	 0.1419410845	 4.0965445434	 0.7554147338	 0.080011
H	 1.9041816192	 4.3742807755	 2.4310813011	 0.097977
H	 1.9670909426	 2.6127703971	 2.6451899277	 0.125053
H	 3.3732349647	 4.2417408777	 0.4518746855	 0.113282
H	 4.0042984882	 2.8811429073	 1.3651502263	 0.112646
H	 3.1612241708	 1.6020008317	-0.7077445074	 0.109254
91.4072	116.0372	196.8527	275.7204	326.3638	370.1796	505.4548	521.3983	592.8262	619.2491	672.4298	678.5925	769.0646	822.0346	850.6297	869.3651	890.1206	917.7265	930.0732	959.9463	993.3679	1051.4189	1071.5513	1101.318	1157.7307	1208.1943	1219.7822	1243.5923	1271.7351	1306.3927	1328.3224	1343.8184	1380.1679	1478.203	1494.1403	1741.5369	2239.7399	3003.7303	3015.4116	3020.8898	3057.3009	3075.7748	3112.0234	3210.5821	3502.8253
C#CC1OC2CCC=C12	C#C[C@H]1O[C@H]2CC[CH][C]12	
InChI=1S/C8H8O/c1-2-7-6-4-3-5-8(6)9-7/h1,4,7-8H,3,5H2	InChI=1S/C8H8O/c1-2-7-6-4-3-5-8(6)9-7/h1,4,7-8H,3,5H2/t7-,8+/m1/s1
