21
gdb 73810	2.36316	1.68007	1.17551	1.4575	85.02	-0.2066	0.0275	0.2342	1132.9912	0.181444	-387.07445	-387.065305	-387.06436	-387.10763	35.444	
C	-0.0420615243	 1.4830914882	 0.1141278176	-0.518786
C	 0.0122013329	-0.002403808	 0.0083131882	 0.238046
C	 0.0097376474	-0.8291278629	-1.0459207399	 0.149484
C	-0.0563670217	-0.6054434066	-2.5165369604	-0.527514
C	 0.0771388493	-2.2292606887	-0.3820351115	 0.332328
O	 0.0179946273	-3.3674025605	-1.1835933862	-0.48187
C	-0.9630059717	-2.0585730098	 0.760191965	-0.239617
C	 0.0791866451	-0.9752322875	 1.2042020116	-0.121289
C	 1.1763784478	-1.9769349266	 0.7114001883	-0.274646
H	 0.838861375	 1.8820178676	 0.6343565514	 0.124413
H	-0.0914348051	 1.9578214892	-0.8702055939	 0.121213
H	-0.9169809204	 1.8129733885	 0.6897750113	 0.125283
H	-0.1590293621	 0.4557741579	-2.759683707	 0.125546
H	 0.8448069239	-0.9713570999	-3.0292230269	 0.113118
H	-0.9037396679	-1.1415628388	-2.9617198438	 0.135523
H	 0.7427631694	-3.3328693678	-1.8170561744	 0.277869
H	-1.9627445914	-1.7170517424	 0.4830165153	 0.090735
H	-1.0091483593	-2.9233130918	 1.4296857022	 0.094152
H	 0.0873653581	-0.5610176839	 2.2111217851	 0.060955
H	 1.321231478	-2.8337032929	 1.3771970552	 0.092504
H	 2.1325139498	-1.5573490633	 0.3876272129	 0.082555
141.6316	157.0328	174.3426	180.3586	222.708	233.5218	261.4327	370.9426	430.8703	502.2241	534.9589	544.2666	609.3143	666.6828	702.7561	830.5524	833.2457	895.4773	913.7918	941.6466	971.4626	995.8452	1046.8013	1052.2542	1060.014	1073.2637	1121.0624	1128.6196	1150.6571	1174.6241	1213.3162	1222.94	1240.1453	1289.1981	1329.315	1355.7386	1408.7766	1417.8941	1473.1329	1476.5414	1477.2011	1487.9499	1489.3582	1514.5598	1741.662	3002.7888	3009.8631	3039.9869	3051.4587	3051.6223	3052.0787	3101.709	3107.009	3111.1396	3120.8992	3128.9897	3807.0623
CC1=C(C)C2(O)CC1C2	CC1=C(C)[C@]2(O)C[C@H]1C2	
InChI=1S/C8H12O/c1-5-6(2)8(9)3-7(5)4-8/h7,9H,3-4H2,1-2H3	InChI=1S/C8H12O/c1-5-6(2)8(9)3-7(5)4-8/h7,9H,3-4H2,1-2H3/t7-,8-
