15
gdb 12727	3.18275	2.21486	1.61722	2.1334	61.61	-0.2302	-0.0314	0.1988	802.6387	0.118503	-399.768238	-399.761011	-399.760067	-399.799771	27.214	
O	 0.4382087402	 1.2937637882	-0.3231293032	-0.465383
C	 0.1100857648	-0.0253139127	-0.0687582321	 0.30717
C	 0.3201935181	-0.981935714	-1.2701613342	-0.229929
N	-1.0004914705	-1.6454199903	-1.0668794756	-0.312453
C	-1.3243495196	-0.7466297186	 0.0653020772	-0.098548
C	-0.8849157744	-1.3761755884	 1.4149683939	-0.325811
C	 0.4116850294	-0.5523534064	 1.3307297334	 0.310245
O	 1.2022763298	-0.1580808766	 2.144926604	-0.313006
H	 0.7569322716	 1.6799147489	 0.5034449456	 0.296585
H	 0.3824514505	-0.3803132251	-2.1822476282	 0.126129
H	 1.1781227878	-1.6605240862	-1.2313794129	 0.117491
H	-1.6144577525	-1.4983889144	-1.8598158283	 0.226138
H	-2.2783565592	-0.2210029825	 0.0416925049	 0.087451
H	-1.4803096414	-1.0961790488	 2.2889516078	 0.134164
H	-0.7708683245	-2.461718583	 1.3819548377	 0.139757
76.5766	153.6329	235.2793	300.5613	354.2843	410.8724	471.4939	497.7702	633.2949	685.5967	731.6413	779.8054	846.6566	882.874	936.8539	1003.2981	1011.1169	1032.8522	1039.6208	1059.1556	1109.7224	1142.0752	1164.4167	1214.8185	1264.4273	1313.3705	1356.5351	1383.1853	1386.1048	1427.0813	1499.7766	1860.1166	3042.1767	3065.6807	3094.5321	3120.6783	3129.7587	3536.6872	3762.297
OC12CNC1CC2=O	O[C@]12CN[C@H]1CC2=O	
InChI=1S/C5H7NO2/c7-4-1-3-5(4,8)2-6-3/h3,6,8H,1-2H2	InChI=1S/C5H7NO2/c7-4-1-3-5(4,8)2-6-3/h3,6,8H,1-2H2/t3-,5+/m0/s1
