15
gdb 31587	3.34504	1.19992	0.89241	1.5152	65.47	-0.1967	0.0331	0.2297	1242.2696	0.112552	-491.103176	-491.094467	-491.093523	-491.1365	31.522	
C	-0.0216983206	 1.3240452971	 0.0158052372	-0.235093
O	-0.0888162581	-0.1038068648	 0.0882798231	-0.247535
C	-1.3115778864	-0.6098848592	 0.0325163279	 0.503181
N	-2.4418597718	 0.0236477564	-0.0782394319	-0.472969
C	-3.3737007067	-1.0045306122	-0.0862532306	 0.30704
O	-4.6885883301	-0.7383627729	-0.1898009853	-0.424453
C	-2.7786396234	-2.2164636409	 0.0193025048	 0.168282
N	-3.2347629508	-3.5162791094	 0.0583442772	-0.596456
O	-1.3779259744	-1.9333031156	 0.0991234029	-0.222535
H	 1.0380228053	 1.5713558427	 0.0739390922	 0.139792
H	-0.4480765577	 1.6819289362	-0.9254602506	 0.143253
H	-0.5676401151	 1.7775503061	 0.8477611002	 0.143236
H	-4.7689035607	 0.2209589906	-0.2469017479	 0.302913
H	-3.044082649	-4.0011972033	 0.9281740129	 0.245672
H	-2.9317973003	-4.0901177608	-0.7207730621	 0.245672
96.7534	144.6412	201.6815	212.1355	245.2879	272.5498	282.0705	347.3928	400.7775	414.7632	568.6458	658.708	675.0354	685.3201	722.3811	762.0137	823.7113	992.8883	1037.1957	1111.7777	1164.4533	1182.9237	1211.5784	1225.1815	1362.2235	1412.5001	1429.1412	1478.4526	1479.8796	1501.9514	1637.5815	1664.0529	1792.0072	3046.2583	3119.2437	3160.7623	3500.6819	3567.2511	3812.6928
COC1=NC(O)=C(N)O1	COc1nc(O)c(N)o1	
InChI=1S/C4H6N2O3/c1-8-4-6-3(7)2(5)9-4/h7H,5H2,1H3	InChI=1S/C4H6N2O3/c1-8-4-6-3(7)2(5)9-4/h7H,5H2,1H3
