21
gdb 90006	2.80913	1.36275	1.09707	2.6124	83.15	-0.235	-0.0212	0.2138	1193.6035	0.181844	-387.097263	-387.088337	-387.087393	-387.131515	33.957	
C	-0.4269536215	 1.4561710887	 0.0820525692	-0.408364
C	-0.1135386876	-0.0365239654	 0.0837598074	 0.041388
C	 1.0159865917	-0.4580292886	-0.9024793199	-0.297852
C	 2.0104614296	-0.5684835041	 0.2909450481	 0.258796
C	 3.1398440928	-1.6340051754	 0.3851724958	-0.33109
C	 4.2209083095	-0.5175008424	 0.5188689329	-0.339661
C	 3.0874718727	 0.5162137261	 0.423725532	 0.352953
O	 3.0494820895	 1.715205316	 0.4440246071	-0.303595
C	 0.7938843968	-0.5022023696	 1.2609973141	-0.297847
H	 0.489656752	 2.045819055	 0.1881912992	 0.148534
H	-0.9163392539	 1.7523054493	-0.8524716544	 0.108466
H	-1.0971740794	 1.7163609181	 0.9088744681	 0.108464
H	-1.0375805969	-0.6118289839	-0.0228444706	 0.065748
H	 0.8409172401	-1.4338805325	-1.3648449813	 0.099969
H	 1.2768296487	 0.262647386	-1.6827804532	 0.107448
H	 3.059924494	-2.2895214956	 1.2555164075	 0.107753
H	 3.241049374	-2.2535008114	-0.5090162482	 0.107752
H	 4.7676008496	-0.4858732204	 1.4659545667	 0.13186
H	 4.9483227976	-0.4499306369	-0.295469631	 0.131874
H	 0.8878186111	 0.1852620466	 2.1064872283	 0.107441
H	 0.5326126795	-1.4952076996	 1.6383500222	 0.099964
33.4353	94.5265	152.3796	231.7949	250.6804	292.8873	356.0402	358.2645	470.9722	509.8294	539.9154	701.4706	734.8327	774.8945	808.4289	821.5642	870.1288	899.5416	909.2122	932.8039	946.8764	1030.1409	1045.5854	1066.1067	1088.5665	1141.0749	1148.917	1179.5428	1184.3088	1217.4266	1218.1435	1240.5235	1251.3676	1277.5288	1279.9083	1293.837	1366.0196	1417.5499	1436.5961	1462.859	1480.5778	1485.4977	1500.951	1511.2754	1870.8025	3025.7421	3045.6492	3046.5624	3057.8919	3059.3303	3067.5678	3091.1141	3102.0453	3102.2313	3104.267	3110.352	3121.7942
CC1CC2(CCC2=O)C1	C[C@H]1C[C@]2(CCC2=O)C1	
InChI=1S/C8H12O/c1-6-4-8(5-6)3-2-7(8)9/h6H,2-5H2,1H3	InChI=1S/C8H12O/c1-6-4-8(5-6)3-2-7(8)9/h6H,2-5H2,1H3/t6-,8+
