13
gdb 42555	2.74071	1.79044	1.34277	5.1303	65.71	-0.2606	-0.0378	0.2228	913.9737	0.089711	-415.556206	-415.549492	-415.548548	-415.587611	25.42	
O	 0.0395622583	 0.0873256319	-0.1250524867	-0.31123
C	 0.0064469847	 1.2795703513	-0.0967152416	 0.449394
C	-1.0758942327	 2.3058943556	 0.0995891119	-0.165021
C	-0.0752563578	 3.1430116638	 0.8551427976	-0.054086
C	 1.0810172507	 2.3819993684	 0.0965735848	-0.212267
C	 0.767352476	 3.3454822965	-1.0644429669	-0.113376
C	 0.7780338446	 2.8432568972	-2.4356718388	 0.299242
N	 0.7918663589	 2.441650108	-3.5189513187	-0.304737
N	-0.5901871382	 3.6233183734	-0.4377686899	-0.130007
H	-2.1413484611	 2.1981210948	 0.2430483319	 0.138508
H	-0.1560748465	 3.6472318194	 1.8067630814	 0.13893
H	 2.0875027646	 2.1415559873	 0.4243099242	 0.118591
H	 1.3310683684	 4.2797298625	-1.0106797692	 0.146058
101.052	149.4564	218.3009	372.5939	439.9244	502.0437	546.2733	624.1718	734.4646	771.4457	782.5087	830.4149	836.8317	889.7485	936.7681	953.3909	976.3665	1028.6098	1043.3325	1070.1856	1115.2896	1156.0989	1185.4539	1223.9934	1239.074	1284.81	1363.5596	1902.0553	2358.9479	3090.9394	3179.1089	3230.3294	3240.833
O=C1C2C3C1C(C#N)N23	O=C1[C@H]2[C@H]3[C@@H]1[C@@H](C#N)N23	
InChI=1S/C6H4N2O/c7-1-2-3-4-5(6(3)9)8(2)4/h2-5H	InChI=1S/C6H4N2O/c7-1-2-3-4-5(6(3)9)8(2)4/h2-5H/t2-,3+,4-,5-,8?/m1/s1
