22
gdb 110926	2.70469	1.03812	0.90927	2.7417	82.15	-0.2237	0.0688	0.2925	1405.3716	0.194069	-404.292004	-404.282384	-404.28144	-404.326951	35.691	
C	-0.6965153683	 1.4643257913	-0.1808845876	-0.376641
C	-0.3753868404	 0.0686574331	-0.7324337136	-0.224036
C	-1.5650784975	-0.8621107633	-0.6173687304	 0.046593
C	-1.6118377077	-2.3414987465	-0.5897960077	-0.124482
C	-0.4994505763	-3.0348656073	 0.1955956412	 0.044928
C	 0.8928326674	-3.1873166153	-0.3898968751	-0.11292
O	 1.6748663788	-3.8842099065	 0.571852077	-0.421859
C	-0.8168185471	-2.0478868589	 1.3472184713	-0.192061
N	-2.0316129822	-1.5063774819	 0.6285443423	-0.155386
H	 0.1576767437	 2.1390677129	-0.2912379249	 0.110926
H	-1.5469277784	 1.9100358937	-0.7079792939	 0.117983
H	-0.9572054288	 1.4155785583	 0.8809781811	 0.130529
H	-0.1035289865	 0.1428418351	-1.7933284643	 0.099943
H	 0.5038619408	-0.3301202102	-0.2225831111	 0.103671
H	-2.4360833183	-0.4477434817	-1.1284469686	 0.090554
H	-2.3513937473	-2.8806204099	-1.1765218866	 0.088944
H	-0.8338227086	-4.0356669868	 0.4850099582	 0.095162
H	 0.8244428277	-3.7496127604	-1.3365023885	 0.085649
H	 1.3381917517	-2.2109034537	-0.6258456654	 0.088364
H	 2.5709170323	-3.9639193011	 0.2323710778	 0.28736
H	-1.1272706836	-2.53202666	 2.2738631301	 0.113609
H	-0.0560843616	-1.299005221	 1.5869595185	 0.103172
66.0368	73.385	130.7808	160.4817	211.2279	242.6867	278.5462	304.8812	400.9486	428.7942	487.4416	563.5694	688.7917	750.6806	785.5413	806.9097	867.7125	892.3937	908.5926	963.7579	991.0233	1020.7273	1049.112	1076.1236	1079.4924	1107.7851	1129.4622	1131.6623	1167.1569	1191.8708	1226.6429	1258.0471	1261.1431	1279.9212	1292.0237	1304.3546	1339.5484	1366.333	1386.7197	1412.2126	1454.8524	1464.4627	1478.8475	1497.4657	1504.2952	1515.2327	1524.1405	2961.5905	3014.4965	3030.339	3035.7038	3059.7819	3065.0226	3085.5508	3094.486	3110.5999	3114.2639	3121.5032	3138.2147	3831.132
CCC1C2C(CO)CN12	CC[C@H]1[C@H]2[C@@H](CO)CN12	
InChI=1S/C7H13NO/c1-2-6-7-5(4-9)3-8(6)7/h5-7,9H,2-4H2,1H3	InChI=1S/C7H13NO/c1-2-6-7-5(4-9)3-8(6)7/h5-7,9H,2-4H2,1H3/t5-,6+,7-,8?/m1/s1
