14
gdb 44033	3.25663	1.75885	1.56576	3.7054	66.32	-0.239	-0.0524	0.1866	857.2784	0.099667	-436.507329	-436.500778	-436.499834	-436.538298	26.031	
O	 0.0055970712	 0.0556564851	-0.3736876411	-0.255962
C	-0.016307265	 1.2095564584	-0.0999190716	 0.36144
C	-1.124706434	 2.2244877442	 0.3429902402	-0.426605
C	 0.0009747393	 3.1311080265	 0.8829972667	 0.169407
N	 0.7279008817	 2.8927005828	 2.1741177653	-0.366557
C	 1.8471824175	 3.1084643288	 1.2042590744	-0.126422
C	 1.0407681183	 4.1124342269	 0.2595511776	 0.028902
O	 1.2232358017	 3.3334883655	-0.9525232537	-0.334331
C	 1.0763528101	 2.3259607692	 0.0997235416	 0.20912
H	-1.6602994675	 2.6412990253	-0.5138850427	 0.159706
H	-1.8416797473	 1.8447451901	 1.0729185206	 0.154452
H	 0.6258508977	 3.6898290767	 2.8049550806	 0.22161
H	 2.9031399655	 3.1065219808	 1.4853464446	 0.10285
H	 1.0722274508	 5.2035155098	 0.1823548975	 0.10239
85.6434	253.5512	314.1229	386.1536	431.5696	503.6037	577.4829	591.2265	692.5932	718.8858	743.1961	816.2271	843.4758	875.7861	932.7518	937.0162	972.899	1009.8428	1040.4158	1075.0457	1091.123	1124.6382	1156.4631	1169.1011	1198.9385	1226.0897	1273.8008	1281.9545	1306.7797	1405.8613	1903.1882	3069.0904	3077.4746	3094.6471	3142.1286	3425.8749
O=C1CC23NC4C2OC134	O=C1C[C@]23N[C@@H]4[C@H]2O[C@]134	
InChI=1S/C6H5NO2/c8-2-1-5-4-3(7-5)6(2,5)9-4/h3-4,7H,1H2	InChI=1S/C6H5NO2/c8-2-1-5-4-3(7-5)6(2,5)9-4/h3-4,7H,1H2/t3-,4-,5+,6+/m1/s1
