16
gdb 45901	2.61415	1.66185	1.12148	1.8207	73.25	-0.234	-0.0173	0.2167	1050.462	0.127748	-434.100952	-434.093335	-434.092391	-434.133361	28.83	
O	 0.0279177708	 0.0704113858	-0.8039024462	-0.383794
C	-0.0621000713	 1.0259609107	-0.0578398885	 0.428989
N	-1.2839056362	 1.6047061895	 0.1972661178	-0.342674
C	-1.6855586824	 2.4958209044	 1.2104683439	-0.005381
C	-1.136503569	 3.6901030382	 1.4148477808	-0.061858
C	-0.0184994099	 4.2318630489	 0.5724249721	-0.244344
N	 1.3044487495	 3.8661971435	 1.0833858613	-0.231916
C	 1.6812283156	 2.6606607359	 1.0577851567	 0.103549
N	 1.0973599252	 1.4614777766	 0.6182135762	-0.355597
H	-2.0094692516	 1.0671272174	-0.2549060538	 0.262713
H	-2.5131299425	 2.1390175258	 1.8186304916	 0.113769
H	-1.4830967566	 4.2810096546	 2.2559514633	 0.106861
H	-0.1417907933	 3.874909567	-0.4606490381	 0.116795
H	-0.066801601	 5.3238265653	 0.5488582098	 0.111494
H	 2.6834909922	 2.4436074422	 1.4323021881	 0.117978
H	 1.7922543004	 0.7418448341	 0.4700386851	 0.263419
94.1039	101.8009	223.4954	258.0488	292.1083	482.7377	495.2721	521.6394	579.9401	582.5521	645.8493	719.2995	762.8425	790.407	820.2515	879.6958	937.7757	962.1873	971.656	979.1563	1065.6071	1112.0089	1170.9952	1248.1995	1266.0022	1333.533	1371.0553	1433.3381	1466.5307	1476.0129	1498.2927	1504.0994	1732.1761	1762.1206	1795.2255	2998.5724	3079.2479	3110.573	3152.7779	3194.5645	3593.3691	3609.7511
O=C1NC=CCN=CN1	O=C1NC=CCN=CN1	
InChI=1S/C5H7N3O/c9-5-7-3-1-2-6-4-8-5/h1,3-4H,2H2,(H2,6,7,8,9)/b3-1-	InChI=1S/C5H7N3O/c9-5-7-3-1-2-6-4-8-5/h1,3-4H,2H2,(H2,6,7,8,9)/b3-1-
