18
gdb 14102	3.41209	1.58695	1.38156	1.9261	68.04	-0.2499	0.078	0.3279	984.0224	0.151711	-384.908305	-384.89996	-384.899016	-384.94103	30.522	
C	 0.0038791151	 1.5631687412	-0.1219431069	-0.417845
C	 0.0272599946	 0.0613916293	-0.012026514	-0.011749
O	 1.3221866202	-0.5757049419	-0.067829983	-0.284736
C	 0.5964546367	-0.6385014263	 1.1394080628	 0.335397
C	 1.0807301889	-0.1342190878	 2.4937280704	-0.154856
O	 0.5347378264	-1.3100433395	 3.1296907816	-0.298377
C	 0.1866800145	-1.9255691616	 1.8589180637	 0.077334
C	-1.2540750601	-2.3897672426	 1.8065520104	-0.407158
H	 0.7802516656	 2.0136264951	 0.5021179636	 0.128737
H	 0.1727132568	 1.8764459237	-1.1572016477	 0.133764
H	-0.9694755231	 1.9543912285	 0.1934300776	 0.125705
H	-0.7344157766	-0.462795133	-0.5920598543	 0.094383
H	 2.1733676049	-0.0761351938	 2.5830957763	 0.111936
H	 0.6334367543	 0.7907526434	 2.8773070465	 0.107381
H	 0.87290205	-2.7536836164	 1.6293737645	 0.08758
H	-1.9396183174	-1.5584690719	 1.9952701131	 0.119115
H	-1.4813154501	-2.8208268405	 0.8255531887	 0.121535
H	-1.4299370806	-3.1604872158	 2.5632749467	 0.131852
90.878	136.3141	179.4172	189.9578	224.3094	253.3271	376.1728	438.5094	464.5593	507.1251	569.7297	776.3466	800.0492	871.1387	889.7977	962.4351	998.4868	1007.7283	1036.0026	1087.5928	1102.1561	1128.2128	1137.5483	1153.5576	1161.0185	1205.8877	1278.7698	1319.642	1366.2038	1378.8122	1404.2267	1410.9788	1474.8791	1483.8961	1490.5877	1493.2794	1514.1145	1537.8752	3000.689	3013.2381	3036.4086	3037.5221	3057.9156	3092.7755	3103.0675	3108.5717	3117.146	3124.4498
CC1OC11COC1C	C[C@H]1O[C@]21CO[C@H]2C	
InChI=1S/C6H10O2/c1-4-6(3-7-4)5(2)8-6/h4-5H,3H2,1-2H3	InChI=1S/C6H10O2/c1-4-6(3-7-4)5(2)8-6/h4-5H,3H2,1-2H3/t4-,5+,6+/m0/s1
