14
gdb 11627	3.48803	1.88908	1.50743	2.8543	70.06	-0.2401	0.0044	0.2446	847.6435	0.10664	-345.337604	-345.330779	-345.329835	-345.368506	26.304	
O	-0.0215250587	-0.0094060758	 0.0045539519	-0.310257
C	-0.030798778	 1.1778855333	 0.0111496683	 0.427875
C	-0.9961162594	 2.3690718387	 0.0267556234	-0.189555
C	-0.0205183194	 2.972210604	 1.0915437089	-0.260557
C	 0.9626756428	 2.3831354851	 0.0087254396	 0.116451
C	-0.0403237644	 2.9841683542	-1.0490913732	-0.260544
C	 2.3884173544	 2.4083020984	-0.0044322972	 0.044303
C	 3.5914123805	 2.4074518368	-0.0157178613	-0.340599
H	-2.0822079155	 2.3792861826	 0.0368810862	 0.105649
H	-0.019730747	 4.0633768868	 1.1373922207	 0.117116
H	 0.0006590758	 2.5193145505	 2.0838477174	 0.123946
H	-0.037537098	 2.5423829864	-2.0466116393	 0.123946
H	-0.0402568744	 4.0757784044	-1.0827456687	 0.11711
H	 4.6533790812	 2.4023707646	-0.0256665267	 0.185117
130.752	168.3794	193.7431	359.3158	494.0201	503.5029	521.8957	618.5025	625.3479	650.2349	740.7961	755.7463	787.6651	808.9743	926.1098	932.282	987.4654	1007.7122	1035.6077	1077.4985	1129.6372	1132.0536	1187.535	1198.3398	1231.8749	1315.8278	1495.1137	1530.718	1927.0872	2235.3209	3070.1074	3070.7135	3145.1683	3145.8873	3168.6051	3500.161
O=C1C2CC1(C2)C#C	O=C1[C@H]2C[C@@]1(C2)C#C	
InChI=1S/C7H6O/c1-2-7-3-5(4-7)6(7)8/h1,5H,3-4H2	InChI=1S/C7H6O/c1-2-7-3-5(4-7)6(7)8/h1,5H,3-4H2/t5-,7+
