16
gdb 57226	3.02026	0.8161	0.74726	3.7894	91.7	-0.2598	-0.0331	0.2268	1552.1933	0.121071	-363.575109	-363.565203	-363.564259	-363.609897	35.751	
C	-0.0319962881	 1.5481737996	 0.0035342997	-0.395207
C	 0.0019260532	-0.0043229155	 0.0017930283	-0.17878
C	 0.74441077	-0.5297596527	 1.2603638048	-0.395209
C	-1.3882185557	-0.5082565934	 0.0273689805	 0.299062
N	-2.4784955268	-0.8873202602	 0.0742399708	-0.337138
C	 0.6640864358	-0.4911062467	-1.2120137333	 0.581553
C	 1.2453325492	-0.8719285404	-2.2014854941	-0.373668
C	 1.8940232729	-1.3035897202	-3.3170662024	 0.308059
C	 2.4704694992	-1.6857504927	-4.3062854664	-0.561193
H	 0.991565579	 1.9299439972	-0.0102592109	 0.137838
H	-0.560768925	 1.9255448173	-0.8734928506	 0.149761
H	-0.5369397309	 1.9075058765	 0.9038387751	 0.139051
H	 0.2411503175	-0.1750334876	 2.163432682	 0.139046
H	 0.7643792985	-1.6209343058	 1.2715767493	 0.149758
H	 1.7717692056	-0.1581478446	 1.2527556179	 0.137838
H	 2.9751828257	-2.0234861406	-5.1775190807	 0.199228
70.2183	89.1315	179.5767	187.2126	235.6087	237.0806	248.3066	286.1534	335.4909	439.3187	476.5061	506.0396	553.472	554.2782	584.7312	609.5837	612.4746	644.8087	815.5023	932.1449	944.6871	1040.6668	1082.5406	1134.6474	1212.8553	1274.8434	1395.9226	1419.0544	1478.1343	1482.0325	1492.6002	1506.3187	2185.065	2358.5877	2367.9798	3052.1286	3054.9184	3133.2621	3137.49	3144.2976	3145.4585	3502.6789
CC(C)(C#N)C#CC#C	CC(C)(C#N)C#CC#C	
InChI=1S/C8H7N/c1-4-5-6-8(2,3)7-9/h1H,2-3H3	InChI=1S/C8H7N/c1-4-5-6-8(2,3)7-9/h1H,2-3H3
