20
gdb 82920	2.91936	1.42521	1.17793	1.1696	78.77	-0.2212	0.074	0.2952	1139.9897	0.170608	-403.121655	-403.113328	-403.112384	-403.154017	32.749	
C	-0.1030743937	 1.4741657314	-0.0299166939	-0.41984
C	-0.0287300648	-0.028719099	-0.1467733161	 0.022093
C	 0.8719199713	-0.7042539518	-1.1209943757	-0.130757
N	 1.2192087949	-0.6495235503	 0.3198650408	-0.130574
C	 1.1252585667	-2.0269148269	 0.8581762139	-0.198967
C	 0.713158738	-2.9469079591	-0.2786358788	-0.029934
O	-0.5894512408	-2.6680585264	-0.8138917211	-0.295361
C	 0.5610456771	-2.138012369	-1.5022184472	 0.421137
C	 0.7860910218	-2.6158714794	-2.9094315897	-0.49761
H	 0.8658279448	 1.9291599978	-0.2529127928	 0.122668
H	-0.8485630597	 1.8811394125	-0.7216881342	 0.115306
H	-0.3881714153	 1.7692308311	 0.9857655497	 0.120189
H	-0.9497334375	-0.5662999124	 0.0633958425	 0.107141
H	 1.4969551568	-0.1314447952	-1.8021125252	 0.081851
H	 2.1154660406	-2.3200939079	 1.2270052724	 0.109947
H	 0.4276568064	-2.0689964676	 1.701579923	 0.117304
H	 1.0056742768	-3.9959884068	-0.2813431584	 0.093455
H	 0.1206416294	-2.0955529883	-3.6066756593	 0.13264
H	 1.81755228	-2.4241722856	-3.2230856905	 0.127228
H	 0.588894017	-3.6876014672	-2.9861675295	 0.132084
165.4067	179.7825	198.3631	214.3377	240.7256	303.7676	330.1875	410.8981	439.8556	526.9385	597.5515	712.6449	749.3415	778.9187	803.7716	864.9196	887.4923	930.959	965.8614	984.9682	1028.0114	1048.2435	1060.1174	1073.0833	1098.3229	1115.2624	1154.7903	1167.109	1217.5235	1225.7997	1271.1546	1292.0713	1330.3672	1332.8751	1404.7138	1410.6443	1425.5891	1465.5717	1483.567	1486.1992	1488.9638	1495.7894	1498.1393	3032.4727	3033.6005	3037.8192	3077.2586	3096.364	3100.0782	3114.2334	3123.3575	3127.3067	3133.818	3151.4849
CC1C2N1CC1OC21C	C[C@H]1[C@H]2N1C[C@H]1O[C@@]21C	
InChI=1S/C7H11NO/c1-4-6-7(2)5(9-7)3-8(4)6/h4-6H,3H2,1-2H3	InChI=1S/C7H11NO/c1-4-6-7(2)5(9-7)3-8(4)6/h4-6H,3H2,1-2H3/t4-,5+,6+,7+,8?/m0/s1
