14
gdb 8251	6.00916	1.11202	0.99151	3.1817	62.95	-0.2651	0.0149	0.28	1102.1941	0.10753	-378.759702	-378.752171	-378.751227	-378.792333	26.758	
O	 0.1958945361	-0.0197026329	-0.0530847413	-0.343789
C	 0.0461730502	 1.1676358332	 0.0047111932	 0.437008
C	-1.1566264992	 2.143345493	 0.0900261148	-0.416386
C	-0.0908754099	 3.2767667384	 0.0274911936	 0.060644
C	-0.0220270096	 4.2122350414	 1.2452296852	-0.347758
C	 1.1866287145	 5.0336518926	 1.2264254467	 0.255854
N	 2.1558974637	 5.6609643623	 1.179091874	-0.297977
N	 0.9283541455	 2.2274088254	 0.0009578684	-0.321611
H	-1.8358990814	 2.0905991993	-0.7617555272	 0.14349
H	-1.7258041284	 2.0832077075	 1.0198669651	 0.135456
H	-0.1268520135	 3.8704972015	-0.891831226	 0.110429
H	-0.899751184	 4.8681782115	 1.2585070742	 0.160139
H	-0.0349103711	 3.6206896896	 2.1672774637	 0.158894
H	 1.9260077771	 2.2715866472	-0.1512532943	 0.265607
59.3021	90.2111	147.9268	307.3472	377.6814	398.0693	425.9489	482.1436	554.0883	564.757	730.162	824.7966	895.4051	919.1289	966.1637	1010.8653	1036.4401	1071.5075	1130.0697	1175.3708	1197.801	1229.3768	1272.0673	1327.0522	1386.9309	1395.3084	1456.7683	1461.2589	1908.1297	2362.7006	3045.421	3054.2308	3087.79	3093.4606	3148.4918	3606.0739
O=C1CC(CC#N)N1	O=C1C[C@@H](CC#N)N1	
InChI=1S/C5H6N2O/c6-2-1-4-3-5(8)7-4/h4H,1,3H2,(H,7,8)	InChI=1S/C5H6N2O/c6-2-1-4-3-5(8)7-4/h4H,1,3H2,(H,7,8)/t4-/m1/s1
