17
gdb 42529	3.21569	1.3414	1.1156	1.4337	76.17	-0.2377	-0.0278	0.21	1125.8337	0.134043	-421.793486	-421.785375	-421.784431	-421.826271	30.914	
O	-0.0040890843	 0.0376601715	-0.3849774169	-0.319324
C	-0.0181328187	 1.2258345138	-0.2391999011	 0.212882
C	-1.0579819911	 2.3018385472	-0.0912197208	 0.329852
C	-2.3589623812	 2.4967063499	-0.8090012252	-0.325405
C	-2.3357852176	 2.312754026	 0.6916251637	-0.325394
O	-0.0427938555	 3.3124050361	 0.0169803717	-0.350857
C	 0.9959560338	 2.3295729537	-0.1193920888	 0.329852
C	 2.2939881454	 2.3752652064	 0.62811838	-0.325394
C	 2.2710287929	 2.5592225778	-0.8725099961	-0.325405
H	-2.5478579153	 3.4944434181	-1.1895364286	 0.13749
H	-2.7119180068	 1.6836133651	-1.4343708859	 0.137307
H	-2.6725715237	 1.3713950533	 1.1125803205	 0.137307
H	-2.5093025989	 3.1883584092	 1.3073978382	 0.137492
H	 2.4606331256	 3.255457356	 1.2392309885	 0.137492
H	 2.6674828927	 1.4434928102	 1.0393196124	 0.137307
H	 2.628517896	 1.7557203249	-1.5076247947	 0.137307
H	 2.4224242668	 3.5615538508	-1.2577102068	 0.13749
75.2401	172.7653	192.2063	193.1223	213.1095	347.8377	432.7085	456.8066	508.0249	709.5662	725.0442	742.7121	766.8616	780.9466	847.226	867.3687	925.5462	926.2779	954.9335	975.1202	994.6519	999.7628	1057.6719	1060.0403	1068.1462	1069.7353	1186.1283	1191.9841	1193.0681	1255.543	1335.2687	1392.5525	1444.6229	1444.9169	1475.7056	1492.6498	1906.1689	3134.8871	3135.0003	3135.7353	3135.7452	3221.5643	3221.8412	3235.5106	3235.5779
O=C1C2(CC2)OC11CC1	O=C1C2(CC2)OC21CC2	
InChI=1S/C7H8O2/c8-5-6(1-2-6)9-7(5)3-4-7/h1-4H2	InChI=1S/C7H8O2/c8-5-6(1-2-6)9-7(5)3-4-7/h1-4H2
