19
gdb 55266	3.64954	1.05959	0.83773	3.4627	83.2	-0.1953	0.0162	0.2114	1371.44	0.160286	-419.267891	-419.258693	-419.257748	-419.302179	33.804	
C	-0.1865348069	 1.504931946	 0.1051905748	-0.48665
C	-0.0547864214	 0.0230124345	-0.0034240799	 0.233082
C	-0.0861005654	-0.721733724	-1.1120761528	-0.093878
N	 0.0739363072	-2.0912683048	-0.854671856	-0.112852
C	 0.0682367272	-2.3125473826	 0.6016640717	-0.152957
C	 0.1763841888	-0.8833053649	 1.1933197981	-0.331696
C	 0.0272823356	-3.1513535104	-1.7247877721	 0.436118
N	 0.0356460839	-2.8115279962	-3.0782551946	-0.568682
O	-0.0496829327	-4.3042634618	-1.3358299112	-0.403243
H	 0.7072767811	 1.9562164396	 0.5570610634	 0.123778
H	-0.3365709059	 1.9687705181	-0.8740047208	 0.122098
H	-1.0329760468	 1.788442915	 0.7446112791	 0.125275
H	-0.2434838127	-0.3878275152	-2.1278799136	 0.122314
H	-0.8622400134	-2.8113064728	 0.8918116127	 0.126969
H	 0.8922342482	-2.9695635876	 0.8853458364	 0.129582
H	 1.162240761	-0.6986577532	 1.6417961128	 0.110596
H	-0.5594510765	-0.7171618301	 1.9880773723	 0.112563
H	 0.6142374697	-2.030617045	-3.3517091939	 0.248937
H	 0.1816271389	-3.6300251744	-3.6513273665	 0.258646
69.6942	87.4162	144.0391	181.8708	193.2046	274.5766	324.2712	393.2167	413.2724	466.6942	524.9397	595.3148	613.7793	660.2753	773.7541	809.705	864.2315	887.2624	904.2703	976.4852	1021.4362	1027.2441	1075.7085	1100.134	1139.4844	1202.2927	1222.269	1250.2334	1265.1482	1298.1202	1330.0906	1399.4709	1416.0019	1467.2266	1476.203	1492.5316	1495.2917	1522.0351	1623.4809	1729.5847	1781.5941	3006.4315	3010.6426	3045.3156	3048.3107	3060.1833	3103.7875	3110.7565	3236.5814	3566.3427	3675.2829
CC1=CN(CC1)C(N)=O	CC1=CN(CC1)C(=O)N	
InChI=1S/C6H10N2O/c1-5-2-3-8(4-5)6(7)9/h4H,2-3H2,1H3,(H2,7,9)	InChI=1S/C6H10N2O/c1-5-2-3-8(4-5)6(7)9/h4H,2-3H2,1H3,(H2,7,9)
