22
gdb 11566	4.48917	0.9269	0.87584	1.6359	78.89	-0.2618	0.0824	0.3442	1423.906	0.198649	-350.192193	-350.182509	-350.181565	-350.227423	34.827	
C	 0.0526563364	 1.4575385944	 0.2579396127	-0.391973
C	-0.0413447437	-0.0457256173	-0.0228747047	-0.169804
C	-1.4759791537	-0.596221076	-0.1306100566	 0.056572
C	-2.2378866193	 0.0111075708	-1.3177110947	-0.39749
C	-1.4436014698	-2.1375466789	-0.2015940705	-0.229367
C	-2.7960475785	-2.79007161	-0.0442342127	 0.092407
C	-2.9837859138	-4.0239918975	 0.7290390008	-0.181667
O	-3.3637519673	-2.7586511823	 1.2714527363	-0.237422
H	 1.094367189	 1.762651774	 0.3987578548	 0.111504
H	-0.3541602	 2.0569855603	-0.5620233758	 0.11758
H	-0.4967528263	 1.7231406522	 1.1681887808	 0.115623
H	 0.5031856745	-0.2814551772	-0.9483642512	 0.089358
H	 0.4781051337	-0.5862331311	 0.778845581	 0.091904
H	-2.0079706098	-0.3304175707	 0.7936746015	 0.088181
H	-1.7353363516	-0.2242056929	-2.2643647787	 0.108363
H	-3.2620594775	-0.368143004	-1.3807102953	 0.116052
H	-2.3045356495	 1.0996072849	-1.2390394937	 0.117161
H	-1.0058878525	-2.4539508084	-1.1593488347	 0.094019
H	-0.7874182135	-2.5191715542	 0.5895804507	 0.095616
H	-3.5227031422	-2.5880424517	-0.8325369204	 0.09141
H	-3.8057282888	-4.6980382241	 0.4903720819	 0.111522
H	-2.1221249257	-4.4950740407	 1.2012449384	 0.110451
48.0902	64.3462	98.6862	154.8354	208.1032	243.5236	280.73	333.3737	349.7867	409.778	461.5639	511.8402	772.7292	786.1053	821.4569	860.1947	902.2609	917.0586	960.024	977.3812	1007.443	1045.5253	1064.9577	1087.9149	1150.1815	1158.5329	1167.7118	1173.5712	1189.7807	1255.6425	1290.2466	1296.7149	1307.1705	1355.025	1379.3584	1384.9391	1410.4512	1415.1603	1447.8309	1468.5484	1484.4793	1496.4798	1498.0862	1507.574	1515.1517	1531.0179	3003.2077	3005.5971	3016.4693	3029.2346	3033.4517	3042.0838	3059.7597	3078.5851	3094.1211	3098.4817	3100.2905	3105.9687	3113.9572	3164.1543
CCC(C)CC1CO1	CC[C@@H](C)C[C@H]1CO1	
InChI=1S/C7H14O/c1-3-6(2)4-7-5-8-7/h6-7H,3-5H2,1-2H3	InChI=1S/C7H14O/c1-3-6(2)4-7-5-8-7/h6-7H,3-5H2,1-2H3/t6-,7+/m1/s1
