17
gdb 80513	2.26767	1.47805	1.27647	3.7687	74.65	-0.2542	0.0046	0.2589	1075.399	0.135304	-417.96658	-417.957933	-417.956989	-417.999663	32.214	
C	-0.1711065736	 1.4913304923	-0.07741737	-0.33315
N	 0.1057739937	 0.0619212759	 0.0597956854	-0.122858
C	 1.3814461991	-0.5453846308	-0.1844006561	-0.096641
C	 2.572107713	 0.3064189805	 0.2893094828	-0.274962
C	 1.9983943389	 0.2731298077	 1.7310189162	 0.048173
O	 1.8072036767	 1.533849457	 2.3161511804	-0.415252
C	 0.7594003541	-0.5182069111	 1.2135919734	 0.165888
C	 0.0950773697	-1.5380761364	 1.9675645803	 0.205821
N	-0.4067194235	-2.3459975679	 2.6270656969	-0.346217
H	 0.6256563659	 2.1549387313	 0.2677054412	 0.139548
H	-0.3800640016	 1.6883299462	-1.1330496937	 0.128599
H	-1.0753668562	 1.7154949681	 0.4948043215	 0.136147
H	 1.4335241886	-1.3917619431	-0.8600153048	 0.122559
H	 3.5327371628	-0.2033657925	 0.2069358528	 0.123117
H	 2.6535334185	 1.2987883944	-0.1582346123	 0.124812
H	 2.5992779263	-0.3847649988	 2.372140024	 0.099209
H	 1.4399821778	 1.4142320071	 3.1985867119	 0.295207
118.4348	138.7737	147.9542	202.9592	248.664	285.7896	327.4045	380.7734	448.0314	530.8336	538.123	565.9782	665.0499	714.9917	782.3633	853.8695	929.481	955.612	1001.9162	1033.2267	1055.0706	1100.1636	1137.7676	1157.0652	1182.2461	1197.7882	1228.4358	1254.1297	1275.4945	1301.2848	1407.9321	1420.446	1455.8109	1479.2122	1493.2301	1508.1559	2346.5002	3020.9021	3043.5115	3082.9392	3117.5242	3122.4206	3138.2338	3183.7819	3811.3901
CN1C2CC(O)C12C#N	CN1[C@H]2C[C@@H](O)[C@@]12C#N	
InChI=1S/C6H8N2O/c1-8-4-2-5(9)6(4,8)3-7/h4-5,9H,2H2,1H3	InChI=1S/C6H8N2O/c1-8-4-2-5(9)6(4,8)3-7/h4-5,9H,2H2,1H3/t4-,5+,6-,8?/m0/s1
