20
gdb 92169	2.22318	2.09585	1.48255	0.6851	77.41	-0.227	0.0836	0.3106	985.2366	0.171589	-403.109211	-403.101284	-403.10034	-403.141052	31.772	
C	-0.335419077	 1.5141952754	 0.0348049737	-0.409265
C	 0.023467509	 0.0318238791	-0.051382291	 0.076491
O	 0.7593096087	-0.2773630269	-1.2497161186	-0.282956
C	 2.0497580148	-0.7125013026	-0.855010731	 0.063038
C	 2.7971702489	 0.3968909761	-0.08706065	-0.180503
N	 2.3069782631	-0.1350494113	 1.2343143256	-0.201658
C	 1.8976718604	-1.4077057332	 0.5182071178	-0.116501
C	 0.8648268179	-0.5330138442	 1.0950994973	 0.311918
C	 0.1946827365	-0.8225039403	 2.4127938908	-0.483488
H	 0.5452026955	 2.1453539379	 0.1723652747	 0.126398
H	-0.8461910016	 1.8258806758	-0.8803354859	 0.127675
H	-1.0137823083	 1.68759657	 0.8769569543	 0.117338
H	-0.9138539819	-0.5430387795	-0.0915736166	 0.079275
H	 2.5303674022	-1.210488574	-1.6963226833	 0.085168
H	 3.8840287463	 0.2759333184	-0.1075873662	 0.109914
H	 2.5384948543	 1.4323733283	-0.3254664945	 0.103509
H	 2.1858417855	-2.4005646751	 0.8428568139	 0.092371
H	 0.9085564821	-1.2640006651	 3.11159001	 0.135355
H	-0.1894465727	 0.0972953762	 2.8665604188	 0.126786
H	-0.6451146238	-1.5133862052	 2.2817461205	 0.119136
160.3329	197.2221	202.7577	228.2645	283.4363	314.9937	410.7486	451.4185	539.0741	589.8211	655.0981	661.1145	794.397	813.6791	852.8353	880.0795	896.2886	919.739	973.3774	996.7822	1018.1291	1021.3222	1051.8166	1096.2003	1110.1394	1115.9301	1137.0379	1165.3175	1202.4767	1227.9609	1264.2158	1301.9591	1333.0652	1356.8594	1384.6251	1403.6348	1405.5853	1420.8858	1485.1116	1488.9896	1493.764	1497.5981	1509.038	2986.4427	3035.9601	3044.9747	3050.8234	3096.9369	3104.8382	3112.5238	3125.3026	3127.6744	3137.0087	3183.2328
CC1OC2CN3C2C13C	C[C@H]1O[C@H]2CN3[C@H]2[C@]13C	
InChI=1S/C7H11NO/c1-4-7(2)6-5(9-4)3-8(6)7/h4-6H,3H2,1-2H3	InChI=1S/C7H11NO/c1-4-7(2)6-5(9-4)3-8(6)7/h4-6H,3H2,1-2H3/t4-,5+,6-,7+,8?/m1/s1
