13
gdb 133734	1.83236	1.63446	1.04411	2.6669	51.7	-0.3029	0.0101	0.3131	1089.8648	0.084812	-584.258506	-584.249804	-584.24886	-584.292638	30.479	
O	 0.1461301868	 1.3931548747	-0.2537946334	-0.411478
C	 0.0928740671	 0.0126593634	-0.0079573133	-0.077843
C	-1.3694537681	-0.5233814395	 0.0414148631	-0.313789
C	-1.3961680586	-1.9788154311	-0.0910486397	 0.280254
N	-1.3739945636	-3.1268019249	-0.2122895527	-0.301058
C	-2.0855869905	-0.1099921653	 1.3332493915	 0.295475
F	-2.0672749367	 1.231782341	 1.4683750319	-0.086954
F	-3.3590158053	-0.4983588614	 1.3361727879	-0.056809
F	-1.4850599236	-0.6276344242	 2.4082552465	-0.065623
H	-0.2204295065	 1.8546956118	 0.5072112033	 0.296887
H	 0.6015561338	-0.4766722516	-0.8413176589	 0.14529
H	 0.6059725968	-0.2788806346	 0.9184268061	 0.129263
H	-1.9221950615	-0.0756096285	-0.7913420623	 0.166386
54.3739	124.5815	140.6211	188.9688	222.9048	313.4184	360.5219	398.0926	450.5971	454.325	526.0831	539.936	583.7023	681.8046	810.1541	970.5173	1010.871	1052.3074	1092.4319	1160.3538	1174.6577	1250.1697	1260.1791	1284.4693	1364.1882	1404.8057	1435.6048	1505.3823	2370.3013	3022.7679	3075.1083	3113.2182	3830.6992
OCC(C#N)C(F)(F)F	OC[C@@H](C#N)C(F)(F)F	
InChI=1S/C4H4F3NO/c5-4(6,7)3(1-8)2-9/h3,9H,2H2	InChI=1S/C4H4F3NO/c5-4(6,7)3(1-8)2-9/h3,9H,2H2/t3-/m1/s1
