22
gdb 47918	2.08207	1.57764	1.09968	3.6891	82.07	-0.2336	0.0334	0.267	1195.1847	0.197836	-404.399477	-404.390949	-404.390005	-404.432544	33.575	
O	 0.0295427718	 0.0070440387	-0.0282944475	-0.376972
C	-0.0354378531	 1.2209401708	 0.0631440273	 0.370238
C	-1.3797503952	 1.9442725165	 0.0591356879	-0.293724
C	-1.8672050148	 2.3446228576	-1.3498127318	-0.189892
C	-1.1563708266	 3.5258860398	-2.0349371236	-0.191872
C	 0.3195444644	 3.2870583161	-2.4299741808	-0.186644
C	 1.3730832284	 3.8523110357	-1.4635525031	-0.191598
C	 1.2151290498	 3.4163973985	 0.0026873775	-0.170695
N	 1.0991826667	 1.9814120515	 0.1917596788	-0.276676
H	-2.0847776712	 1.2208035309	 0.4752713588	 0.126123
H	-1.3780697338	 2.8176076196	 0.719902473	 0.101909
H	-1.8023495899	 1.461112832	-1.9972076112	 0.117155
H	-2.9331887396	 2.5881645232	-1.2709930538	 0.0978
H	-1.72682399	 3.7549887544	-2.942127367	 0.100025
H	-1.237151202	 4.4232126365	-1.4057213474	 0.090052
H	 0.4868088166	 2.2115946916	-2.5641496033	 0.113135
H	 0.5069279491	 3.7371013294	-3.4110420444	 0.096947
H	 2.3691687282	 3.5604650688	-1.8205104756	 0.096118
H	 1.3475380975	 4.9500995276	-1.487688074	 0.098167
H	 2.073507484	 3.7700751444	 0.584245502	 0.110289
H	 0.336588909	 3.8962111562	 0.4410917598	 0.120383
H	 1.9439594106	 1.4317357601	 0.1090391085	 0.239733
77.3435	141.0663	205.5258	231.6123	248.641	351.099	374.4066	443.6245	478.1343	498.1466	562.0217	611.5515	706.7344	755.9264	768.1158	800.5488	850.7082	880.0151	908.4562	962.8362	1003.1639	1035.7758	1042.3232	1084.6459	1115.4676	1125.0973	1179.3017	1199.6188	1252.0761	1266.6311	1280.1281	1315.2206	1334.696	1363.0274	1374.1811	1382.3448	1391.2812	1398.7404	1416.7622	1466.5325	1480.5845	1485.7833	1488.8207	1491.5322	1500.472	1508.7254	1776.9088	3012.0936	3013.9319	3024.9678	3031.5974	3044.7726	3048.6756	3050.7792	3059.6024	3068.5451	3072.203	3098.9656	3108.9426	3588.5972
O=C1CCCCCCN1	O=C1CCCCCCN1	
InChI=1S/C7H13NO/c9-7-5-3-1-2-4-6-8-7/h1-6H2,(H,8,9)	InChI=1S/C7H13NO/c9-7-5-3-1-2-4-6-8-7/h1-6H2,(H,8,9)
