21
gdb 69832	2.93897	1.56964	1.26417	1.0181	80.99	-0.2243	0.0683	0.2927	1071.5404	0.185428	-383.227937	-383.220191	-383.219246	-383.25956	31.989	
C	 0.0593978279	 1.543964976	 0.034942146	-0.452598
C	-0.0064427572	 0.0323167355	 0.0085421794	 0.331329
C	-1.3037842432	-0.5719866489	-0.530856035	-0.316799
C	-2.1072164096	-1.3053987256	 0.5640666069	-0.141114
N	-1.3844690378	-2.2895179088	 1.3711106842	-0.0937
C	-0.4087182941	-3.1447137316	 0.704152045	-0.272088
C	 0.0531835409	-2.0302786444	 1.5832466771	-0.007561
C	 0.6892157565	-0.7681758484	 1.0632219913	-0.067837
N	 1.2771303461	-0.6313800738	-0.2835179082	-0.374944
H	 1.0091098667	 1.8823210537	 0.4563594405	 0.125846
H	-0.0251224219	 1.9528043866	-0.9787824261	 0.117832
H	-0.7572150156	 1.9619456031	 0.63471949	 0.113519
H	-1.936999654	 0.2191629935	-0.9451726657	 0.105942
H	-1.092948253	-1.2479753096	-1.3679696502	 0.102769
H	-2.5064117023	-0.5639608478	 1.2671264056	 0.108344
H	-2.9676276348	-1.8129817055	 0.1144317226	 0.106647
H	-0.3620926592	-4.1689932051	 1.0651436904	 0.117615
H	-0.2679857437	-3.0540767673	-0.3705760925	 0.102071
H	 0.3856314587	-2.2976952701	 2.5836468414	 0.090514
H	 1.2537149603	-0.2325884929	 1.8230553452	 0.086349
H	 1.1280326595	-1.4857615487	-0.815630368	 0.217863
165.0732	184.9727	227.3426	304.7671	346.8423	355.6167	430.3018	468.3515	482.2629	571.9113	642.9308	712.6279	721.4485	776.0912	827.2073	866.1666	905.515	932.6364	957.0246	1003.6642	1030.5442	1045.2352	1058.8001	1077.6026	1109.5551	1116.5413	1122.0232	1152.3833	1170.583	1188.8343	1225.5653	1273.9853	1302.9839	1315.4961	1355.9882	1365.381	1386.3793	1403.3721	1417.1414	1445.0049	1485.6059	1489.2827	1489.3355	1494.5328	1519.1198	3025.8775	3027.5225	3034.1822	3070.1203	3078.8716	3086.9414	3101.664	3117.6887	3120.6134	3136.47	3178.1464	3491.2668
CC12CCN3CC3C1N2	C[C@]12CCN3C[C@H]3[C@H]1N2	
InChI=1S/C7H12N2/c1-7-2-3-9-4-5(9)6(7)8-7/h5-6,8H,2-4H2,1H3	InChI=1S/C7H12N2/c1-7-2-3-9-4-5(9)6(7)8-7/h5-6,8H,2-4H2,1H3/t5-,6+,7-,9?/m0/s1
