19
gdb 41473	3.19654	1.64321	1.33678	2.1598	74.2	-0.2435	0.0649	0.3084	996.4665	0.161421	-422.996149	-422.989072	-422.988127	-423.027556	28.452	
C	 0.1428994668	 1.5663550874	 0.4226521248	-0.236457
C	 1.5893668144	 1.5467575679	-0.1761748375	-0.339233
C	 1.3701812109	 0.0857664165	-0.6118428257	 0.295847
C	 1.8323439532	-0.5748172045	-1.8916943689	-0.1961
O	 1.5514982405	-1.9590583509	-1.7066530345	-0.252313
C	 1.8427816603	-2.2674575986	-0.3447250312	-0.103645
C	 1.4779089761	-1.0254985517	 0.4679366318	 0.063431
O	 0.0744346672	-0.9213167577	 0.8027979545	-0.308045
C	-0.1099897529	 0.1424977213	-0.1497954064	 0.080388
H	 0.0884403053	 1.5920140472	 1.5128471206	 0.115359
H	-0.5046444325	 2.3465572538	 0.0160812361	 0.104929
H	 1.6975685968	 2.2249467309	-1.0276431234	 0.107811
H	 2.4179472972	 1.7312216089	 0.5129289635	 0.102582
H	 1.2945434875	-0.244143853	-2.7851886311	 0.111489
H	 2.9114984452	-0.4021642537	-2.0526863704	 0.088446
H	 1.2609746742	-3.1475217931	-0.0602371074	 0.122493
H	 2.9162448085	-2.4863865396	-0.2177317791	 0.086864
H	 2.12022618	-0.8729184404	 1.3419855344	 0.076047
H	-0.9799419886	-0.0163034207	-0.79194334	 0.080109
114.8477	202.7108	220.9492	321.2054	346.5587	438.2616	463.8991	627.8842	708.5632	736.037	777.5407	849.1694	857.9124	876.1172	908.201	933.5388	943.9573	972.8135	1009.3946	1037.021	1069.2434	1094.7554	1112.1704	1142.4634	1152.1522	1185.8333	1212.7477	1221.4114	1241.1365	1248.8523	1272.3271	1278.9492	1305.7023	1317.6842	1354.0929	1365.1859	1399.5004	1465.818	1486.984	1491.1745	1507.0464	2948.0122	2968.2733	3051.1024	3052.621	3067.8819	3080.7884	3082.9703	3097.684	3104.5333	3130.152
C1CC23COCC2OC13	C1C[C@@]23COC[C@@H]2O[C@@H]13	
InChI=1S/C7H10O2/c1-2-7-4-8-3-6(7)9-5(1)7/h5-6H,1-4H2	InChI=1S/C7H10O2/c1-2-7-4-8-3-6(7)9-5(1)7/h5-6H,1-4H2/t5-,6-,7-/m0/s1
