16
gdb 20130	4.59992	1.3168	1.15053	0.8051	60.69	-0.2627	0.0739	0.3366	1034.129	0.129447	-420.81942	-420.811669	-420.810725	-420.852086	28.125	
O	 0.0737015427	 1.627621039	-0.131556572	-0.43467
C	-0.0097692634	 0.2287087053	 0.0486494502	 0.058961
C	 0.4825948704	-0.5043027592	-1.1913121067	 0.056835
C	 0.2726449086	 0.0419699183	-2.5334075592	-0.187433
O	 1.5473363566	 0.1713807297	-1.8795669584	-0.252785
C	 0.783088156	-0.2100387814	 1.2684104115	 0.067004
C	 0.1407299551	-0.4091258345	 2.5687662843	-0.175878
O	 0.4962147738	-1.5266095558	 1.7467223762	-0.240781
H	 0.8927098997	 1.7762008995	-0.627032489	 0.293965
H	-1.0639811968	-0.0247049264	 0.2161216818	 0.100171
H	 0.6261526318	-1.5770596764	-1.0709496531	 0.119844
H	 0.2639325027	-0.6270112818	-3.3912278058	 0.125003
H	-0.2797092243	 0.9715870182	-2.6463857997	 0.130887
H	 1.8444310349	 0.0441448622	 1.2422418694	 0.100671
H	 0.7216648787	-0.3007721073	 3.4828879101	 0.119745
H	-0.9279379766	-0.2246836593	 2.6704178105	 0.118461
71.151	93.1299	169.5885	262.4406	281.5753	329.1623	430.276	498.6172	523.6374	674.9133	781.9038	855.3742	868.5442	883.7518	938.6859	974.2334	1019.0994	1078.971	1102.2712	1120.9382	1143.9719	1158.4922	1164.7149	1175.4761	1176.6956	1252.5616	1281.5557	1299.1519	1300.2091	1411.0607	1432.5465	1456.6812	1517.9169	1529.8044	3040.6122	3086.849	3099.1342	3101.8052	3133.4776	3175.6252	3196.0394	3728.1534
OC(C1CO1)C1CO1	O[C@@H]([C@H]1CO1)[C@H]1CO1	
InChI=1S/C5H8O3/c6-5(3-1-7-3)4-2-8-4/h3-6H,1-2H2	InChI=1S/C5H8O3/c6-5(3-1-7-3)4-2-8-4/h3-6H,1-2H2/t3-,4-/m1/s1
