21
gdb 97843	3.27772	0.77876	0.69556	1.7741	88.75	-0.2422	0.0435	0.2856	1724.3917	0.181624	-387.059998	-387.049967	-387.049023	-387.096707	36.33	
C	 0.0819993792	 1.4825162308	 0.1232431072	-0.363003
C	-0.0196952945	-0.0381600249	-0.0969002519	-0.31608
C	-1.3973885519	-0.5238249923	-0.0870154719	 0.069654
C	-2.5568936014	-0.8613631723	-0.0787598874	 0.052989
C	-3.9210665715	-1.3572119353	-0.0597507322	-0.226722
C	-4.548170412	-1.5710893584	-1.4791021143	-0.224633
C	-4.0939978698	-3.0530489223	-1.4362922055	-0.248741
C	-3.9663446974	-2.9271698201	 0.1058620763	 0.167555
O	-2.9343478293	-3.5700225369	 0.7872505576	-0.427838
H	 1.1287424921	 1.8002679209	 0.1068142314	 0.115475
H	-0.4560375573	 2.0248998691	-0.658804552	 0.128871
H	-0.3495893158	 1.764525992	 1.0872796165	 0.130109
H	 0.4539427068	-0.3024313288	-1.0512159255	 0.128858
H	 0.5571167249	-0.5580146734	 0.6787740149	 0.1297
H	-4.5246859891	-0.7893394112	 0.6542327454	 0.094911
H	-5.6354932545	-1.4672346299	-1.4428120709	 0.105012
H	-4.1568963399	-0.9445297427	-2.28090871	 0.109791
H	-4.7683792406	-3.816009801	-1.8308578323	 0.099202
H	-3.1071498905	-3.1811801858	-1.8906633679	 0.105966
H	-4.8990434037	-3.2164011555	 0.5994437658	 0.089845
H	-2.1146030339	-3.1148217218	 0.5513370065	 0.279079
17.7591	78.6306	88.148	144.345	162.5774	224.7079	313.416	342.2757	398.7526	417.8061	465.5016	513.1264	596.1829	644.4837	720.2008	751.4393	786.9319	884.6907	907.5734	926.934	962.4634	994.1642	1048.2242	1076.1308	1081.4635	1105.9467	1145.0581	1157.9233	1193.3651	1222.2317	1244.7135	1257.7646	1260.3751	1287.2888	1340.7884	1345.0845	1357.0925	1408.435	1442.1136	1476.7821	1478.7338	1494.4439	1494.9688	1505.6427	2345.3287	3019.2983	3045.1523	3046.2162	3055.5773	3061.2406	3067.6886	3074.9479	3116.4794	3118.7665	3125.2703	3135.753	3745.3271
CCC#CC1CCC1O	CCC#C[C@H]1CC[C@H]1O	
InChI=1S/C8H12O/c1-2-3-4-7-5-6-8(7)9/h7-9H,2,5-6H2,1H3	InChI=1S/C8H12O/c1-2-3-4-7-5-6-8(7)9/h7-9H,2,5-6H2,1H3/t7-,8+/m0/s1
