15
gdb 45938	2.3103	1.99642	1.16053	4.2547	68.31	-0.2423	-0.0536	0.1887	1005.8211	0.11257	-453.945539	-453.937591	-453.936647	-453.978517	29.167	
N	-0.1066006558	 1.3112034696	 0.0225264508	-0.544604
C	-0.0285323019	 0.0427642422	-0.032309459	 0.305219
N	 1.06791491	-0.7897068846	-0.1395540737	-0.369453
C	 0.7976212522	-2.2153736315	-0.1015017856	-0.287227
C	-0.7342397864	-2.2798886717	-0.0513393537	 0.337978
O	-1.400778332	-3.2784193981	-0.0735568443	-0.297703
C	-1.2280127197	-0.8580704294	 0.0302602274	 0.29201
C	-2.476269469	-0.4976391578	 0.732863512	-0.219525
O	-2.4150615995	-0.5199943006	-0.6807445097	-0.246743
H	 0.8112482305	 1.754912863	-0.0383825052	 0.205304
H	 2.0042800938	-0.4237980901	-0.0903111204	 0.24989
H	 1.1624585299	-2.7476135383	-0.9888737474	 0.147024
H	 1.215955783	-2.7137421375	 0.7837439958	 0.141352
H	-3.0600289435	-1.2945888095	 1.1902674375	 0.136527
H	-2.5184904518	 0.4915077443	 1.1837575756	 0.149952
64.6225	91.5522	232.1763	241.565	265.7091	335.9079	383.3886	521.2651	570.3667	598.6549	643.8227	692.7967	701.9035	830.1746	863.3959	892.8947	941.3744	1019.1918	1038.3215	1067.0965	1138.0253	1144.0542	1166.9382	1194.9337	1200.3566	1271.1739	1351.2293	1429.0379	1439.9197	1497.268	1501.3128	1757.2321	1866.486	3011.9083	3048.5856	3091.4816	3199.2372	3460.0845	3647.2676
N=C1NCC(=O)C11CO1	[NH][C]1NCC(=O)[C@]21CO2	
InChI=1S/C5H6N2O2/c6-4-5(2-9-5)3(8)1-7-4/h1-2H2,(H2,6,7)	InChI=1S/C5H6N2O2/c6-4-5(2-9-5)3(8)1-7-4/h1-2H2,(H2,6,7)/t5-/m0/s1
