19
gdb 84790	2.66304	1.5607	1.23337	2.0388	75.77	-0.2327	0.0075	0.2402	1069.7038	0.159783	-423.014351	-423.006161	-423.005217	-423.047543	31.446	
O	 0.1132013773	 1.3187047022	-0.2993307974	-0.426058
C	-0.0460595549	-0.0799123274	-0.0560722092	 0.039521
C	 0.6663433305	-0.5247755308	 1.19425053	-0.118253
C	-0.1876406297	-0.884525373	 2.1529472925	-0.065876
C	-1.6252659677	-0.8048694926	 1.7038450324	-0.328877
C	-1.5239669812	-0.5239582269	 0.1903119309	 0.39986
C	-2.625679438	 0.2776618025	-0.531774562	-0.350452
C	-2.8285975677	-1.0024514196	-1.3622651951	-0.071504
O	-1.8349807213	-1.712428043	-0.5927784866	-0.32018
H	 0.0411285988	 1.768194078	 0.550199138	 0.276735
H	 0.3145748798	-0.5713621082	-0.9649370813	 0.100569
H	 1.7462605494	-0.4917397298	 1.2835738158	 0.099575
H	 0.0932027373	-1.2013670982	 3.1519900589	 0.100157
H	-2.1766179403	-1.7375572743	 1.863998429	 0.125122
H	-2.1728081433	-0.0163839801	 2.2384132898	 0.105257
H	-3.4731405321	 0.5562043529	 0.0978595671	 0.103125
H	-2.2620004749	 1.1544988285	-1.0674291349	 0.127026
H	-3.8142624457	-1.4770752514	-1.2904206678	 0.100976
H	-2.5488453065	-0.9267440387	-2.4202861102	 0.103278
63.6001	74.8111	214.0517	253.7597	318.9596	343.5101	377.3132	443.3607	501.8959	552.1998	735.7351	769.2964	779.2655	803.1071	856.6154	878.8889	925.956	969.8273	978.4539	983.2462	1005.6452	1022.0236	1044.6447	1078.1215	1128.6191	1157.1322	1162.8524	1191.6873	1206.1642	1233.3405	1249.1971	1265.3202	1285.097	1341.4889	1353.5969	1367.476	1415.4835	1465.5978	1493.0447	1530.2955	1680.3921	3013.6409	3017.2127	3056.332	3068.8956	3071.887	3079.7321	3142.4153	3180.5444	3207.7917	3797.1742
OC1C=CCC11CCO1	O[C@H]1C=CC[C@]21CCO2	
InChI=1S/C7H10O2/c8-6-2-1-3-7(6)4-5-9-7/h1-2,6,8H,3-5H2	InChI=1S/C7H10O2/c8-6-2-1-3-7(6)4-5-9-7/h1-2,6,8H,3-5H2/t6-,7+/m0/s1
