21
gdb 115865	2.47522	1.40877	1.07299	2.6931	77.96	-0.2466	0.0838	0.3305	1198.306	0.183075	-424.221611	-424.212772	-424.211828	-424.254852	34.165	
C	 0.0128488622	 1.5343794225	 0.0937523602	-0.492055
C	 0.0106315607	 0.0274089914	 0.0153169629	 0.326794
C	-0.8483723695	-0.8059288898	 0.9400552558	-0.334342
C	 0.6540719452	-0.86522429	 1.0551477718	-0.102092
C	 1.3272574208	-1.9868872331	 0.2880198631	-0.097837
O	 0.7154825178	-1.9794571788	-1.0003959279	-0.287857
C	 0.3435959196	-0.6331897787	-1.3189585936	 0.044327
C	-0.7722903527	-0.7210485552	-2.3521607723	-0.0695
O	-0.3568558898	-1.4329490123	-3.5019152481	-0.425711
H	 0.9560224295	 1.9504331215	-0.2791813286	 0.120238
H	-0.7990962457	 1.9695557902	-0.5002873424	 0.124386
H	-0.1182868718	 1.8750880611	 1.1252146594	 0.119057
H	-1.3869174128	-0.275578927	 1.7179405438	 0.10974
H	-1.3654705556	-1.6734727794	 0.543066171	 0.120472
H	 1.1501271836	-0.4515284918	 1.9258708928	 0.088297
H	 2.4111752231	-1.803623661	 0.212387784	 0.094352
H	 1.1749219798	-2.9845171563	 0.7135339175	 0.109005
H	 1.2019265945	-0.1075514415	-1.7729877332	 0.068087
H	-1.6584651474	-1.1815401749	-1.8885310238	 0.087721
H	-1.0510233422	 0.2849535061	-2.6839735136	 0.104767
H	 0.0275654707	-2.2556908728	-3.1773209089	 0.29215
103.4409	141.6404	174.8706	205.2764	242.374	281.3862	321.9212	406.5231	435.1449	456.5574	520.338	563.7581	691.6703	748.576	833.2514	843.8933	892.768	926.4567	974.1902	990.5813	1013.7949	1051.3311	1060.8235	1076.9816	1093.3572	1102.1627	1103.5213	1132.1888	1141.3406	1221.761	1242.4872	1260.4472	1300.7121	1331.0555	1344.7829	1371.5966	1399.7569	1409.1913	1424.4344	1443.4703	1483.0369	1491.5223	1499.2324	1502.0373	1517.3655	2950.8663	2977.0254	2987.8077	3025.2064	3066.2278	3072.8226	3083.1907	3102.9546	3129.7707	3176.8151	3216.4689	3798.5537
CC12CC1COC2CO	C[C@]12C[C@H]1CO[C@H]2CO	
InChI=1S/C7H12O2/c1-7-2-5(7)4-9-6(7)3-8/h5-6,8H,2-4H2,1H3	InChI=1S/C7H12O2/c1-7-2-5(7)4-9-6(7)3-8/h5-6,8H,2-4H2,1H3/t5-,6-,7-/m0/s1
