17
gdb 65752	2.57606	1.2622	1.11399	3.6265	71.57	-0.2493	0.0117	0.2611	1162.9716	0.134836	-455.160555	-455.151428	-455.150484	-455.19471	32.686	
C	-0.0027168273	 1.6284341672	-0.0707742188	-0.444257
C	-0.0515362107	 0.1106325628	-0.0275710814	 0.233228
C	 0.6878318006	-0.6483106277	-1.1701051712	-0.202961
N	 1.6199411186	-1.1413584806	-0.1494864546	-0.332075
C	 0.9909492613	-0.5751530063	 0.9233146364	 0.401539
O	 1.1763726005	-0.6064443304	 2.1119096533	-0.365762
O	-1.3832620324	-0.3715011039	 0.0990027246	-0.237058
C	-1.9600444541	-0.2884755649	 1.3265062246	 0.099446
N	-3.1854943217	-0.5633992018	 1.4424685485	-0.440498
H	 1.0162836492	 1.9787458063	-0.2589572399	 0.130783
H	-0.6599008098	 2.0017701922	-0.861722866	 0.139861
H	-0.3340249148	 2.0488737522	 0.8831970972	 0.139827
H	 0.0719958045	-1.4229454382	-1.6327991829	 0.137342
H	 1.1496060967	-0.0159982993	-1.9336800985	 0.118464
H	 2.4017808649	-1.7772805502	-0.2026511777	 0.2594
H	-1.264983162	-0.0073246063	 2.1234136571	 0.131437
H	-3.4621996935	-0.484201161	 2.4192557393	 0.231283
75.3233	108.5576	150.8393	159.612	217.2463	235.7178	296.0265	320.9488	403.5456	453.8399	533.3177	584.2817	727.9526	772.9093	776.3922	829.4344	904.6902	935.079	965.8127	999.3284	1056.3056	1093.4668	1148.1114	1155.0691	1188.7746	1218.3872	1252.5158	1291.0573	1303.5867	1394.9757	1410.8101	1429.8609	1484.3187	1490.2642	1521.1619	1740.0714	1886.5751	3041.9353	3056.0798	3087.8343	3114.7077	3119.6689	3121.8309	3513.6006	3614.1676
CC1(CNC1=O)OC=N	C[C@]1(CNC1=O)O[CH][NH]	
InChI=1S/C5H8N2O2/c1-5(9-3-6)2-7-4(5)8/h3,6H,2H2,1H3,(H,7,8)	InChI=1S/C5H8N2O2/c1-5(9-3-6)2-7-4(5)8/h3,6H,2H2,1H3,(H,7,8)/t5-/m1/s1
