17
gdb 44064	3.36239	1.51153	1.40285	2.0148	72.66	-0.239	-0.0166	0.2224	959.3459	0.136933	-421.729841	-421.723193	-421.722249	-421.760673	27.75	
O	 0.0112622053	-0.006463328	-0.2520421709	-0.330873
C	 0.0316365875	 1.1877899338	-0.1311829066	 0.454748
C	-1.137291229	 2.184778563	-0.0845597512	-0.386591
C	-0.303229928	 3.4733316054	 0.1185380614	 0.415088
C	 0.7749628092	 3.3069239159	-1.0062081196	-0.331482
C	 1.2239229593	 2.1123053777	 0.016083453	-0.205396
C	 0.7586375247	 3.1622229035	 1.1127265502	-0.034388
C	-0.3205896549	 3.6590328654	 2.132554847	-0.182613
O	-0.9386622585	 4.4299702072	 1.0212370995	-0.356399
H	-1.7073587081	 2.1880419471	-1.0181725364	 0.129933
H	-1.8263492948	 1.9591587192	 0.7320563918	 0.131566
H	 0.4644845392	 3.011430263	-2.0130578716	 0.11548
H	 1.5309890503	 4.0912689847	-1.0389029911	 0.129925
H	 2.2214680873	 1.6782330258	-0.013069382	 0.097677
H	 1.5021962272	 3.9623681125	 1.0889804148	 0.105412
H	-1.0220957229	 2.9241603502	 2.5355566115	 0.122525
H	 0.0386892962	 4.3212636836	 2.9224049002	 0.125387
115.7437	316.8998	336.5566	367.3685	464.96	497.994	523.2238	549.1861	631.4546	637.3992	745.9502	777.0111	804.1042	855.5302	877.9225	928.0318	963.0337	988.2454	1000.6151	1033.1197	1046.4824	1087.7788	1095.7545	1130.121	1142.4961	1154.2821	1196.7525	1211.9234	1229.4284	1248.8026	1273.3753	1309.2581	1421.4173	1459.3097	1497.4556	1512.961	1871.9777	3059.1608	3060.8179	3066.7539	3070.1624	3119.2551	3130.9324	3145.2862	3150.2588
O=C1CC23CC1C2CO3	O=C1C[C@]23C[C@H]1[C@@H]2CO3	
InChI=1S/C7H8O2/c8-6-2-7-1-4(6)5(7)3-9-7/h4-5H,1-3H2	InChI=1S/C7H8O2/c8-6-2-7-1-4(6)5(7)3-9-7/h4-5H,1-3H2/t4-,5-,7+/m0/s1
