15
gdb 19172	3.39895	2.01638	1.50594	1.8271	62.4	-0.246	-0.0116	0.2343	837.8297	0.118135	-399.731098	-399.724006	-399.723061	-399.76214	27.23	
C	 0.0773731789	 1.4330460958	-0.1389277661	-0.341869
N	 0.0395942263	-0.016678451	 0.0708098686	-0.135022
C	-1.1481972411	-0.616462833	 0.826374463	-0.202833
C	-0.2054130965	-1.8472520223	 1.0619957218	 0.202841
O	 0.1002361254	-2.6503670562	-0.024244254	-0.447786
C	 0.6964150253	-0.5920736827	 1.3273854229	-0.202833
C	-0.506536077	 0.0167165618	 2.0799212544	 0.434768
O	-0.757425549	 0.7714723685	 2.9669144009	-0.317066
H	 1.0820934215	 1.7062276347	-0.4744044615	 0.133471
H	-0.626248042	 1.6836500008	-0.9381470381	 0.133473
H	-0.1717242676	 2.0308248377	 0.7495771959	 0.134778
H	-2.1609951377	-0.5836754701	 0.4293582877	 0.103793
H	-0.4298857176	-2.4813461832	 1.9193234475	 0.109551
H	 0.2891225602	-2.0362324972	-0.7495850377	 0.29094
H	 1.769750081	-0.5317052036	 1.4969823647	 0.103794
141.2889	207.1564	220.6061	294.7682	305.2025	409.5805	511.1464	562.6841	574.2668	702.8695	722.9805	735.7989	782.3594	821.6327	868.1683	991.5323	1048.1864	1097.2022	1103.671	1122.038	1154.0124	1173.2715	1175.4168	1206.1733	1208.7401	1241.8398	1312.5207	1447.0071	1457.959	1494.048	1501.4403	1906.4472	3001.1435	3084.824	3115.2198	3129.2246	3145.0267	3150.1326	3727.6308
CN1C2C(O)C1C2=O	CN1[C@H]2[C@@H](O)[C@@H]1C2=O	
InChI=1S/C5H7NO2/c1-6-2-4(7)3(6)5(2)8/h2-4,7H,1H3	InChI=1S/C5H7NO2/c1-6-2-4(7)3(6)5(2)8/h2-4,7H,1H3/t2-,3+,4+
