14
gdb 25725	2.82631	1.59558	1.0263	3.4183	67.7	-0.2418	-0.0609	0.1808	1076.8402	0.100916	-473.887631	-473.879782	-473.878838	-473.920889	27.901	
C	-0.0252290851	 1.4891063464	 0.0318204351	-0.489327
C	-0.0524951088	-0.0190251544	 0.0023891965	 0.32206
O	-0.1056898025	-0.7025433131	 1.0307369747	-0.384037
C	-0.0160577706	-0.7172802514	-1.2492445316	 0.075027
C	-0.0338649157	-2.0840815529	-1.434272218	 0.331956
O	-0.0878240203	-3.0103767951	-0.496253012	-0.385721
N	 0.0134384364	-2.3787355788	-2.77303684	-0.30524
C	 0.0571698465	-1.2074533361	-3.3375856738	 0.078615
O	 0.0439679855	-0.1509027988	-2.5114844577	-0.179503
H	 0.8864299787	 1.8629497304	-0.4463473024	 0.150058
H	-0.8712834966	 1.8974319108	-0.5310149494	 0.149758
H	-0.0677452665	 1.83153869	 1.0660128939	 0.14864
H	-0.1120390039	-2.5092576087	 0.3502046398	 0.321838
H	 0.1026751827	-0.9954458282	-4.3950082852	 0.165875
52.7827	112.6026	166.2563	177.5116	315.129	332.2083	469.6566	525.8689	573.2912	639.9771	648.31	742.8087	754.6467	787.9209	875.5008	934.8573	966.6134	1044.1861	1085.2749	1145.4257	1182.7602	1264.2741	1331.8167	1381.1182	1434.9908	1463.7957	1471.4696	1493.6854	1546.7148	1624.1872	1704.7296	3043.4075	3104.9273	3158.4468	3272.1533	3467.8532
CC(=O)C1=C(O)N=CO1	CC(=O)c1c(O)nco1	
InChI=1S/C5H5NO3/c1-3(7)4-5(8)6-2-9-4/h2,8H,1H3	InChI=1S/C5H5NO3/c1-3(7)4-5(8)6-2-9-4/h2,8H,1H3
