20
gdb 34026	3.12059	1.29808	1.08161	2.3393	85.21	-0.2346	0.0434	0.278	1178.7936	0.172642	-365.972937	-365.964734	-365.963789	-366.005373	32.871	
C	 0.0069343294	-1.200784282	 0.0439648685	-0.413272
C	 0.0150021189	 0.0017986188	 0.0513453091	 0.290257
C	 0.0062436709	 1.4438045912	 0.0115008178	 0.082024
C	-1.2156704805	 2.0694807799	-0.6799397552	-0.28905
C	-0.8699917163	 3.2180956481	-1.6402808602	-0.186846
C	 0.140807073	 4.1953114057	-1.0327488765	-0.218474
C	 1.4732884364	 3.484196751	-0.7548242833	-0.225083
C	 1.3194266367	 2.1800876167	 0.0024913122	-0.029749
N	 0.5423654841	 2.0964524417	 1.2406723549	-0.355666
H	 0.0063790517	-2.2623929831	 0.05522122	 0.18922
H	-1.7491542415	 1.2846647137	-1.222134082	 0.117503
H	-1.9076427186	 2.4243722953	 0.0955773466	 0.107479
H	-0.444636283	 2.802014807	-2.563041117	 0.10291
H	-1.7894004248	 3.7394772943	-1.927232182	 0.09725
H	 0.3155500393	 5.0385230153	-1.7086570669	 0.100952
H	-0.2667924397	 4.6288009484	-0.1090407726	 0.095157
H	 1.965480003	 3.2625047163	-1.7109216755	 0.10835
H	 2.1563401846	 4.142060532	-0.2025735479	 0.105529
H	 2.2189763527	 1.5686937034	 0.0334769941	 0.098198
H	 0.0309822038	 2.9641928863	 1.3941938558	 0.223312
102.4149	140.9606	188.1045	274.7941	345.887	373.8914	392.7979	468.6944	522.8717	576.9462	589.7888	604.0486	643.7153	675.9513	786.7056	826.6451	833.5757	886.5026	915.0985	936.267	949.8418	1021.9403	1053.753	1085.5111	1094.4853	1121.1568	1169.3647	1193.2754	1207.8334	1260.8503	1284.2922	1307.7433	1338.1471	1359.121	1372.2429	1378.5568	1386.1433	1435.5054	1482.1042	1487.4796	1492.6646	1502.5667	2235.9993	3012.2731	3016.8742	3018.1836	3024.6938	3052.7044	3071.848	3073.6081	3093.0156	3128.3327	3479.2127	3503.8959
C#CC12CCCCC1N2	C#C[C@]12CCCC[C@H]1N2	
InChI=1S/C8H11N/c1-2-8-6-4-3-5-7(8)9-8/h1,7,9H,3-6H2	InChI=1S/C8H11N/c1-2-8-6-4-3-5-7(8)9-8/h1,7,9H,3-6H2/t7-,8+/m1/s1
