18
gdb 8174	2.93986	2.42105	1.67419	1.8515	72.31	-0.2218	0.0124	0.2342	844.8245	0.153163	-347.771659	-347.764165	-347.763221	-347.802865	29.417	
C	 0.0455753358	 1.462668143	 0.0224815497	-0.518087
C	 0.0196430312	-0.0243320726	-0.0162177674	 0.331494
C	-0.0348531289	-0.9026529195	-1.0210660862	-0.207524
C	-0.0304915068	-2.2409122667	-0.2645911952	 0.023039
C	 1.1213259252	-2.0217216231	 0.755545699	-0.252809
C	 0.0490220414	-0.9785591349	 1.2153983959	 0.313291
C	-0.0769399194	-0.4400115595	 2.6125877791	-0.511929
O	-0.9704942198	-1.9689581482	 0.8283960494	-0.316724
H	 0.9503812332	 1.8380596778	 0.5181613121	 0.127073
H	 0.0133873526	 1.8876352063	-0.9845987865	 0.128553
H	-0.805995337	 1.8643498314	 0.5865282416	 0.132534
H	-0.0697021602	-0.7480957564	-2.0899140194	 0.101667
H	-0.2081810686	-3.1755331004	-0.7944191419	 0.076144
H	 1.2277458839	-2.8468148692	 1.4652582298	 0.099509
H	 2.0866708141	-1.6629924866	 0.3910815073	 0.091313
H	 0.7427989818	 0.2510345763	 2.8345039935	 0.121212
H	-1.0214707416	 0.1001846713	 2.7342777475	 0.131293
H	-0.0515222468	-1.252880419	 3.3429116016	 0.129951
159.573	179.978	200.9214	226.0367	311.2963	370.432	494.9705	547.8891	582.1811	632.5504	665.3122	765.5831	779.5274	821.2327	851.9405	903.9237	908.6838	954.6295	1002.265	1031.0325	1058.1956	1062.1073	1108.3977	1155.4156	1178.0741	1220.5501	1239.1497	1259.0356	1293.2986	1328.4597	1411.3391	1417.0731	1474.288	1477.432	1487.2821	1487.6677	1495.8473	1690.6375	3014.1014	3039.2151	3054.5757	3058.1911	3106.994	3107.4951	3119.7568	3126.3811	3135.3486	3234.5028
CC1=CC2CC1(C)O2	CC1=C[C@H]2C[C@]1(C)O2	
InChI=1S/C7H10O/c1-5-3-6-4-7(5,2)8-6/h3,6H,4H2,1-2H3	InChI=1S/C7H10O/c1-5-3-6-4-7(5,2)8-6/h3,6H,4H2,1-2H3/t6-,7-/m0/s1
