13
gdb 61109	2.49292	1.28855	1.04916	4.7755	68.63	-0.308	-0.0373	0.2707	1130.1137	0.085934	-415.575089	-415.565879	-415.564935	-415.609183	32.548	
O	 0.0063540329	 1.4070008636	 0.0197126819	-0.41646
C	 0.0071086095	 0.0025947329	 0.0176921608	 0.055603
C	 0.7083427114	-0.5704955168	-1.2617717291	-0.37875
C	 0.1039216865	-0.0049550404	-2.4575624276	 0.25178
C	-0.4207295138	 0.5204775064	-3.4027906984	-0.381301
C	 0.7625672864	-0.4390739524	 1.2077357386	 0.321387
N	 1.3800322937	-0.8183031482	 2.105497401	-0.308579
C	-1.3783959307	-0.531811541	 0.1048103379	 0.292789
N	-2.4621104686	-0.9283466782	 0.1387992024	-0.311839
H	-0.3282006814	 1.6892484528	-0.8450376368	 0.306882
H	 1.7665830428	-0.2974838813	-1.1969091404	 0.173093
H	 0.6416159922	-1.6628814951	-1.2549803835	 0.173013
H	-0.8790250009	 0.9514519977	-4.2596966867	 0.22238
73.058	113.8611	131.6778	188.5822	191.3233	273.5846	342.6275	362.8633	398.3931	452.8568	504.4108	528.0767	577.9348	627.7106	649.7657	697.8503	738.3097	902.524	955.0414	1021.992	1079.0689	1105.1916	1260.3564	1319.4052	1402.7741	1458.1521	2238.7995	2362.8741	2377.8623	3054.9638	3101.439	3498.0708	3729.2369
OC(CC#C)(C#N)C#N	OC(CC#C)(C#N)C#N	
InChI=1S/C6H4N2O/c1-2-3-6(9,4-7)5-8/h1,9H,3H2	InChI=1S/C6H4N2O/c1-2-3-6(9,4-7)5-8/h1,9H,3H2
