20
gdb 111769	2.58296	1.31872	1.04719	0.6938	76.06	-0.2124	0.0723	0.2847	1230.3448	0.16944	-440.200159	-440.190635	-440.189691	-440.234792	34.347	
C	 0.1785015371	 0.9496936296	-0.4680070329	-0.231897
O	-0.0997160016	 0.0305388522	 0.5745375677	-0.240317
C	-1.3136357664	-0.6218079228	 0.4161792315	 0.063192
C	-1.5824080051	-1.6334586227	-0.6772452896	-0.182034
N	-0.3129132917	-2.299563737	-1.0352710404	-0.321328
C	-0.2103764457	-2.8463586607	 0.3654740529	-0.241902
C	-1.4668745776	-2.0642250811	 0.7856164124	 0.343754
O	-2.4208912507	-2.5294020818	 1.6617027571	-0.278644
C	-2.1381749657	-2.2240452278	 3.0210600191	-0.25869
H	 1.1476334094	 1.4014427648	-0.243256319	 0.122954
H	 0.2308397456	 0.4391960448	-1.4370806341	 0.129716
H	-0.5797200389	 1.7457858196	-0.5187036063	 0.09847
H	-2.1991192471	-0.0259160318	 0.6543506952	 0.087778
H	-2.4212503757	-1.5655829205	-1.3602449905	 0.098619
H	-0.4978290818	-3.0621362546	-1.6795031758	 0.223949
H	-0.3882298554	-3.9243984732	 0.4120299971	 0.107678
H	 0.7295112884	-2.5953354583	 0.8638288306	 0.116331
H	-1.2189972825	-2.7178929151	 3.3650774983	 0.115126
H	-2.0314592071	-1.1418646986	 3.1733801923	 0.120292
H	-2.9806431975	-2.591814395	 3.6107851944	 0.126954
73.5137	98.0608	141.747	168.6086	180.4158	204.2062	254.3843	304.7242	378.5984	392.9655	487.3892	623.1747	671.9337	787.9307	836.1007	868.4844	922.8311	945.4641	982.455	1011.7177	1022.679	1049.4374	1063.5165	1120.0272	1152.232	1155.0668	1178.4216	1181.3181	1209.2698	1225.9033	1241.4611	1274.456	1278.9	1340.2047	1362.0418	1447.7149	1477.6088	1486.3248	1488.1238	1489.5478	1502.3162	1503.9754	1512.0335	2988.0381	2998.7336	3052.5353	3056.2576	3061.7312	3073.0107	3110.1485	3119.5314	3123.6108	3181.3726	3513.3559
COC1C2NCC12OC	CO[C@H]1[C@H]2NC[C@@]12OC	
InChI=1S/C6H11NO2/c1-8-5-4-6(5,9-2)3-7-4/h4-5,7H,3H2,1-2H3	InChI=1S/C6H11NO2/c1-8-5-4-6(5,9-2)3-7-4/h4-5,7H,3H2,1-2H3/t4-,5+,6+/m1/s1
