20
gdb 78310	2.99095	1.50339	1.24448	1.3528	79.4	-0.2153	0.0765	0.2918	1081.1482	0.171842	-403.089455	-403.081789	-403.080845	-403.120921	31.994	
C	-0.0883781142	 1.4106016106	-0.0003431103	-0.321336
N	 0.0088359593	-0.0432223898	 0.0197343747	-0.102919
C	 1.3715864099	-0.5638915476	-0.1892894321	-0.014838
C	 0.7620679182	-0.5832507886	 1.1635184755	-0.054096
C	 0.6352605125	-2.0995714358	 1.3938146625	 0.391057
O	 0.0870330675	-2.4332071415	 2.6279252074	-0.491192
C	 2.0614680358	-2.5629994177	 0.899227589	-0.281612
C	 1.4789039252	-2.0777170903	-0.4719592906	-0.077614
C	 0.1098678027	-2.6249728918	 0.0275159759	-0.288907
H	 0.7999612829	 1.9228925427	 0.4082255257	 0.096271
H	-0.2317959658	 1.7474683982	-1.0319512488	 0.122427
H	-0.9592738445	 1.7198223458	 0.5859915783	 0.126089
H	 2.1639639956	 0.1218919219	-0.4715713257	 0.084836
H	 1.0580847899	 0.0696614367	 1.9776652832	 0.088896
H	 0.0456074669	-3.3926381731	 2.6924623623	 0.279084
H	 2.9365976064	-2.0426609116	 1.2996154709	 0.08993
H	 2.2005223744	-3.6472542418	 0.9488965843	 0.085681
H	 1.9060549993	-2.3984645768	-1.4203338803	 0.066664
H	 0.0913945016	-3.7178382386	 0.0019891801	 0.078886
H	-0.8039522034	-2.1964075511	-0.3770143921	 0.122693
199.2997	216.6505	243.8383	277.4045	335.6675	367.0982	435.5876	448.5699	496.1952	583.2057	605.7922	682.7024	781.2362	822.1936	853.8665	861.7943	908.1142	927.5405	934.8191	963.4372	986.8418	1020.5409	1038.7734	1076.6985	1089.9885	1126.9935	1133.2639	1141.3565	1162.6199	1168.3536	1211.5125	1226.2969	1233.763	1266.542	1286.1295	1311.6667	1382.311	1397.1204	1452.71	1470.4154	1491.8403	1499.1122	1512.3776	2953.2799	3045.5617	3065.6404	3071.197	3104.2573	3108.699	3129.8586	3161.3695	3166.2824	3174.0389	3817.5071
CN1C2C1C1(O)CC2C1	CN1[C@H]2[C@@H]1[C@]1(O)C[C@H]2C1	
InChI=1S/C7H11NO/c1-8-5-4-2-7(9,3-4)6(5)8/h4-6,9H,2-3H2,1H3	InChI=1S/C7H11NO/c1-8-5-4-2-7(9,3-4)6(5)8/h4-6,9H,2-3H2,1H3/t4-,5-,6-,7-,8?/m1/s1
