23
gdb 73398	2.50631	1.9193	1.45698	0.0598	88.18	-0.2673	0.0853	0.3525	1024.7464	0.209587	-351.172018	-351.164546	-351.163602	-351.203222	31.829	
C	 0.0272343037	 1.5574835005	-0.065419558	-0.504445
C	 0.0314131775	 0.0459112647	 0.0099070921	 0.365994
C	 0.4956848991	-0.6986894341	-1.2536839805	-0.266724
C	 0.3556550209	-2.1715603359	-0.7746874139	-0.24216
C	-0.1539681038	-1.9122978856	 0.6444650413	-0.008968
C	 0.718035187	-0.7371460377	 1.1884225541	-0.044725
C	-0.0037470703	-0.275660381	 2.4594096467	-0.235914
C	-1.4747736009	-0.30579642	 1.9366709019	-0.235915
C	-1.2157183244	-0.7767640144	 0.5012552015	-0.044729
H	 1.0324265121	 1.9403996725	-0.2784134604	 0.11304
H	-0.6310522219	 1.9063242279	-0.8700126304	 0.113037
H	-0.3128318043	 2.0246861255	 0.8638834629	 0.114263
H	-0.1385643774	-0.4692264748	-2.1167888486	 0.089695
H	 1.5233773152	-0.4351739152	-1.5262320905	 0.089694
H	-0.3564252921	-2.7468374785	-1.3746575913	 0.091942
H	 1.3069755597	-2.7127424937	-0.7835445539	 0.091942
H	-0.3615801893	-2.7779862782	 1.2786113416	 0.049456
H	 1.8073225718	-0.8275360926	 1.2270516582	 0.046739
H	 0.1598615006	-0.9603248385	 3.297234657	 0.092334
H	 0.3107404527	 0.7203939237	 2.786039292	 0.093184
H	-2.1051799871	-1.0067299934	 2.4923362886	 0.092334
H	-1.9607949347	 0.6738562894	 1.9788432526	 0.093185
H	-2.0811016742	-0.9072018104	-0.1547219732	 0.04674
196.7733	227.5981	264.5108	266.6029	315.7386	369.1459	376.5251	583.1111	625.1622	680.9729	699.6433	752.3025	822.8311	833.4991	902.4498	905.4054	921.6213	930.7272	948.4158	960.1821	987.4138	989.2998	1004.3643	1024.5906	1026.7733	1100.648	1101.1798	1125.7307	1154.191	1187.5219	1208.3419	1237.2711	1238.2921	1254.1114	1260.2009	1262.5485	1270.3496	1286.0768	1312.8322	1318.4516	1337.6676	1377.8838	1413.2265	1486.5334	1489.02	1494.8638	1504.5239	1514.1591	1516.9249	3022.6522	3034.6643	3042.7419	3047.1637	3050.7833	3066.9239	3071.2972	3073.0719	3074.4637	3080.2491	3084.6899	3089.7236	3092.8606	3098.6313
CC12CCC3C1CCC23	C[C@@]12CC[C@H]3[C@@H]1CC[C@@H]23	
InChI=1S/C9H14/c1-9-5-4-6-7(9)2-3-8(6)9/h6-8H,2-5H2,1H3	InChI=1S/C9H14/c1-9-5-4-6-7(9)2-3-8(6)9/h6-8H,2-5H2,1H3/t6-,7-,8+,9+
