20
gdb 126365	2.77104	1.24675	0.93286	2.8582	82.61	-0.2381	0.0195	0.2576	1328.918	0.171145	-399.379847	-399.369936	-399.368992	-399.415874	34.427	
C	 0.0773261581	 1.4984289389	-0.024154569	-0.376625
C	-0.0067039113	-0.0340223675	 0.0943208771	-0.301752
C	-1.4121362846	-0.5464623439	 0.0824326798	 0.343762
N	-2.1385018725	-0.8032674608	 1.1596329859	-0.354505
C	-3.3392081135	-1.202775927	 0.649362491	 0.336445
C	-4.4949629654	-1.6079489933	 1.5013286812	-0.483098
N	-3.3945985102	-1.208197899	-0.6740913803	-0.311073
N	-2.1507170767	-0.7854162698	-1.0283382114	-0.002232
C	-1.8225650014	-0.6335685341	-2.4286283679	-0.325021
H	 1.1177683203	 1.8318635455	 0.0311408615	 0.119409
H	-0.3401764163	 1.8518120135	-0.9724534346	 0.117673
H	-0.4804148251	 1.9750659985	 0.7865190199	 0.140035
H	 0.577951362	-0.5029790768	-0.7053822286	 0.10891
H	 0.4359858569	-0.3539732329	 1.0410690111	 0.137744
H	-4.7947102222	-0.7887876913	 2.1627223185	 0.135497
H	-5.3444719696	-1.8878602574	 0.8760524912	 0.135619
H	-4.2277840328	-2.4565869247	 2.1390610324	 0.136003
H	-2.352677749	 0.2204074844	-2.861487873	 0.147252
H	-0.7485355703	-0.4781474641	-2.5364934506	 0.141171
H	-2.1125785863	-1.5371069583	-2.969272594	 0.154788
40.0827	56.4042	104.17	132.6816	177.3679	210.3548	265.436	282.1716	310.4824	416.5084	483.2877	612.6476	654.2253	705.2904	754.3481	771.0455	818.1224	975.6525	1003.7766	1041.622	1069.4127	1070.0345	1073.9784	1089.1984	1151.5966	1210.3436	1282.899	1313.299	1347.7798	1374.2513	1408.4514	1411.4312	1446.796	1474.306	1476.415	1478.5758	1480.9499	1489.5799	1498.6527	1502.7209	1513.8837	1550.8386	1566.5419	3040.7153	3043.1932	3044.9701	3049.8769	3095.9062	3100.039	3114.294	3117.3959	3124.4616	3142.5217	3153.0943
CCC1=NC(C)=NN1C	CCc1nc(C)nn1C	
InChI=1S/C6H11N3/c1-4-6-7-5(2)8-9(6)3/h4H2,1-3H3	InChI=1S/C6H11N3/c1-4-6-7-5(2)8-9(6)3/h4H2,1-3H3
