19
gdb 104773	2.84117	0.98227	0.85067	3.7347	74.16	-0.2509	-0.0243	0.2266	1380.0404	0.157321	-460.147204	-460.137443	-460.136499	-460.182143	35.354	
O	 0.2276846104	 1.3158849758	-0.5247034301	-0.424447
C	 0.1029318499	 0.0937968418	 0.1730170513	-0.132218
C	-1.3142493284	-0.4661805367	 0.1067451072	 0.295836
C	-2.3106075734	 0.2824836038	 0.9676659381	-0.149058
O	-2.3447894678	 1.6468532033	 0.537379976	-0.421814
C	-1.7989840139	-1.0512771089	-1.1766894001	-0.317039
C	-1.5770177593	-1.9748424025	 0.0147258194	-0.163071
C	-0.4838346182	-2.9747835534	-0.0237112465	 0.154072
O	-0.5289085233	-4.0407701419	 0.5401746937	-0.267459
H	-0.5178847153	 1.8640646062	-0.2451807701	 0.291426
H	 0.8188071726	-0.5927449707	-0.2862575723	 0.104393
H	 0.3936292393	 0.1986538333	 1.2326749826	 0.085421
H	-3.3076216002	-0.1731464639	 0.880211887	 0.097771
H	-2.0028076987	 0.2209028573	 2.0220926138	 0.105331
H	-2.7871981904	 2.1715662579	 1.2112611016	 0.297677
H	-2.8243277119	-0.8818864257	-1.485746015	 0.128764
H	-1.0875543877	-1.1160762635	-1.9937717008	 0.134564
H	-2.454720479	-2.3386234767	 0.5403347944	 0.103592
H	 0.3985066651	-2.6933368956	-0.6410064603	 0.076261
74.7407	92.9869	115.7492	153.9231	241.0874	252.9611	266.6499	329.8532	359.2128	372.241	434.2297	457.7971	544.3405	589.2553	771.7475	862.5478	905.9008	936.93	941.0892	966.5546	1024.1346	1044.4813	1060.3288	1079.0698	1086.4903	1089.1389	1187.0921	1205.3695	1236.7386	1248.8755	1284.2937	1344.9936	1375.2719	1389.1343	1441.5175	1461.1397	1475.1088	1489.2309	1504.2485	1520.2002	1813.7169	2875.4613	2954.4767	2983.7846	3021.8659	3089.153	3134.3585	3162.2798	3220.928	3751.2851	3831.7575
OCC1(CO)CC1C=O	OCC1(CO)C[C@H]1C=O	
InChI=1S/C6H10O3/c7-2-5-1-6(5,3-8)4-9/h2,5,8-9H,1,3-4H2	InChI=1S/C6H10O3/c7-2-5-1-6(5,3-8)4-9/h2,5,8-9H,1,3-4H2/t5-/m0/s1
