17
gdb 53308	1.84418	1.30963	0.82451	3.5958	78.75	-0.2428	0.005	0.2478	1393.0391	0.133117	-421.807428	-421.797654	-421.79671	-421.844187	33.294	
C	-0.4521469749	 1.3093969733	-0.2176476115	-0.50077
C	-0.3117227273	-0.1380813361	-0.1603036947	 0.097295
C	-0.1947135591	-1.336257986	-0.1043352932	 0.056505
C	-0.0818375727	-2.7635895742	-0.0613695838	-0.228968
C	-0.2538168221	-3.5186111673	 1.2537271979	-0.312102
C	-1.3145303018	-3.6210706369	 0.2138257096	 0.108245
O	-2.5355113572	-2.9955838784	 0.5187657863	-0.187991
C	-3.1670858098	-2.3682627884	-0.5045952621	 0.180238
O	-4.2241204075	-1.8337796778	-0.3643424073	-0.274739
H	 0.0900776506	 1.7966200808	 0.6001933633	 0.150497
H	-0.0612565419	 1.707886698	-1.1602427849	 0.150504
H	-1.5042280969	 1.6049667321	-0.1430777297	 0.160124
H	 0.6219365574	-3.1982916719	-0.7662022043	 0.118998
H	 0.3788216276	-4.3787571738	 1.4380100633	 0.127735
H	-0.4961570555	-2.9198095198	 2.1231310363	 0.148876
H	-1.4231862653	-4.5463903307	-0.3449130887	 0.116253
H	-2.6027153035	-2.421950393	-1.4523440564	 0.0893
23.4765	48.958	102.942	132.691	166.6676	196.8358	264.7588	306.4762	386.5534	426.4911	515.4125	565.6398	653.6811	716.9655	794.9412	863.8107	945.5663	1001.4397	1041.1311	1050.899	1052.1394	1066.1639	1071.9439	1122.1495	1145.8422	1171.0734	1198.0498	1245.3632	1374.4562	1394.7495	1414.9406	1426.8468	1475.8602	1476.2141	1477.8726	1869.7374	2368.6862	2985.3759	3028.1941	3089.027	3092.468	3137.1561	3145.3596	3150.9594	3245.4845
CC#CC1CC1OC=O	CC#C[C@H]1C[C@H]1OC=O	
InChI=1S/C7H8O2/c1-2-3-6-4-7(6)9-5-8/h5-7H,4H2,1H3	InChI=1S/C7H8O2/c1-2-3-6-4-7(6)9-5-8/h5-7H,4H2,1H3/t6-,7+/m0/s1
