17
gdb 85009	2.41782	1.5297	0.99481	1.3942	68.61	-0.2519	-0.0512	0.2007	1154.54	0.133851	-459.012808	-459.003923	-459.002979	-459.04678	32.485	
C	-0.3969441002	 1.5160371195	 0.0147179618	-0.401236
C	 0.1275407827	 0.085019748	 0.0508264621	-0.211879
C	 0.9636588765	-0.3533610173	-1.1716056596	 0.382426
O	 0.7366479878	-0.0305951655	-2.3062454835	-0.300727
C	 2.1336189125	-1.2300272416	-0.7053472234	-0.347074
C	 1.8951519943	-1.485526848	 0.7941733554	 0.04886
O	 3.0588196597	-1.5795101186	 1.5637006904	-0.438078
C	 1.0328261776	-0.2879400597	 1.2072548671	 0.337658
O	 1.1842824541	 0.2942534561	 2.2535236579	-0.321136
H	 0.4281249707	 2.2315896031	 0.0658951119	 0.134868
H	-0.9420554725	 1.6863780741	-0.9161265679	 0.143725
H	-1.0599757327	 1.7071570882	 0.8612125418	 0.1356
H	-0.716528879	-0.6250796085	 0.0750669182	 0.141846
H	 2.2292462874	-2.1295751859	-1.3167087574	 0.143184
H	 3.0578442538	-0.6507427248	-0.8256284291	 0.156344
H	 1.2734521027	-2.3915458347	 0.9119971495	 0.099972
H	 2.9115421147	-1.0085674244	 2.3335601548	 0.295644
60.8074	94.4718	156.1455	205.1965	234.0461	290.5607	339.611	403.3398	450.1213	490.2021	519.7756	556.7208	629.6984	677.862	774.3947	816.9983	888.579	968.0337	1005.0697	1006.9344	1084.3397	1096.1655	1141.7993	1175.3447	1196.8423	1206.3207	1238.2388	1280.529	1324.8472	1370.9958	1406.9603	1414.7683	1446.368	1492.2769	1494.6875	1821.5908	1867.1179	2941.8558	2982.5773	3048.8818	3056.5587	3118.9091	3129.1639	3141.191	3706.9232
CC1C(=O)CC(O)C1=O	C[C@H]1C(=O)C[C@@H](O)C1=O	
InChI=1S/C6H8O3/c1-3-4(7)2-5(8)6(3)9/h3,5,8H,2H2,1H3	InChI=1S/C6H8O3/c1-3-4(7)2-5(8)6(3)9/h3,5,8H,2H2,1H3/t3-,5+/m0/s1
