21
gdb 76444	2.98498	0.93096	0.87566	3.896	79.75	-0.2391	-0.0193	0.2198	1427.7271	0.17874	-424.22159	-424.210896	-424.209952	-424.257681	38.219	
C	-0.0065099483	 1.5183270316	-0.2620879718	-0.426796
C	 0.0679132866	 0.0360134656	 0.0353899167	-0.104387
C	 1.3916523641	-0.7030317247	 0.0154466037	 0.047521
O	 2.5850339664	 0.0072137371	-0.1485785873	-0.419185
C	 0.6626636145	-0.5174020121	 1.3269555854	 0.274042
C	 1.2354530907	 0.4343772675	 2.3628226808	-0.460312
C	-0.0174374122	-1.7444490129	 1.9227936798	-0.343138
C	 0.9437072795	-2.6299921055	 2.6917416195	 0.16334
O	 0.7368182404	-3.0849119452	 3.7872186639	-0.243425
H	 0.9394269993	 2.0232718459	-0.0547207718	 0.128779
H	-0.245784262	 1.6848740673	-1.3184742332	 0.115107
H	-0.7869888755	 2.0070295097	 0.3306204806	 0.123233
H	-0.7779829391	-0.5300148364	-0.3489467883	 0.079612
H	 1.4068498366	-1.7046330966	-0.4167892549	 0.080388
H	 2.6496247755	 0.2751169811	-1.0714491809	 0.291145
H	 1.8543158454	 1.2060900212	 1.9060709554	 0.138343
H	 0.4328649334	 0.9172762562	 2.9315533921	 0.117564
H	 1.8646603676	-0.1047004735	 3.0798273765	 0.125834
H	-0.8420405761	-1.4674250843	 2.5884095902	 0.11864
H	-0.4392719422	-2.3611049673	 1.1159168694	 0.114192
H	 1.8936430156	-2.8488315148	 2.1505404042	 0.079503
57.4888	67.9408	130.3441	153.2953	159.1016	203.7922	242.1547	275.2315	298.0179	318.1472	338.2281	432.1078	504.6688	553.3062	587.8127	704.9421	779.5696	820.6261	848.8897	971.22	977.8897	1004.3019	1028.8182	1056.0647	1082.4088	1107.0216	1127.5065	1164.8481	1179.3519	1213.1007	1253.6955	1273.8642	1314.3104	1347.5876	1381.2868	1412.9489	1420.4289	1426.4627	1451.4416	1464.5441	1488.82	1494.3343	1505.5172	1516.5814	1832.956	2862.6836	3009.706	3032.8569	3036.0531	3079.153	3082.6794	3086.4822	3088.4938	3117.3179	3132.1518	3153.6454	3803.7405
CC1C(O)C1(C)CC=O	C[C@H]1[C@@H](O)[C@]1(C)CC=O	
InChI=1S/C7H12O2/c1-5-6(9)7(5,2)3-4-8/h4-6,9H,3H2,1-2H3	InChI=1S/C7H12O2/c1-5-6(9)7(5,2)3-4-8/h4-6,9H,3H2,1-2H3/t5-,6+,7+/m0/s1
