13
gdb 133175	3.1139	1.40331	0.97315	5.1535	64.27	-0.2718	-0.0897	0.1821	1097.4126	0.087387	-497.858911	-497.851325	-497.850381	-497.891271	27.771	
C	 0.0243725732	 1.520852227	-0.0182287509	-0.4971
C	-0.022650019	 0.0238597073	 0.0024438671	 0.193114
C	-1.1332952048	-0.7247806492	-0.1444740528	-0.32739
C	-1.0814007389	-2.1802672305	-0.1101169826	 0.46443
O	-2.0083880543	-2.9322389922	-0.230048311	-0.326071
O	 0.1840323179	-2.7412272086	 0.0828388748	-0.261457
N	 1.3348987928	-1.9948780064	 0.2356473643	-0.124507
C	 1.198948445	-0.724437948	 0.1928218781	 0.315806
F	 2.3146916287	-0.0212678436	 0.3414204479	-0.049285
H	 0.6841213915	 1.8755562681	-0.8169113781	 0.160754
H	-0.9717561641	 1.9397781914	-0.1699343378	 0.144534
H	 0.4327863491	 1.9074538846	 0.9213061326	 0.160754
H	-2.1143685571	-0.2898443599	-0.2943562315	 0.146418
101.6595	141.6049	189.1864	273.8026	372.3727	378.6904	384.2794	443.9816	531.5406	585.6644	657.4457	709.3721	750.9805	783.6134	865.3588	914.9212	1013.6296	1028.5991	1067.0626	1199.0943	1209.8667	1286.3539	1417.1819	1427.2123	1473.8141	1483.0007	1620.6437	1701.5433	1847.1975	3044.7026	3101.9926	3141.6661	3210.6245
CC1=CC(=O)ON=C1F	Cc1cc(=O)onc1F	
InChI=1S/C5H4FNO2/c1-3-2-4(8)9-7-5(3)6/h2H,1H3	InChI=1S/C5H4FNO2/c1-3-2-4(8)9-7-5(3)6/h2H,1H3
