25
gdb 115818	4.0412	0.87905	0.79874	0.2264	93.15	-0.2581	0.0856	0.3436	1572.9184	0.230069	-352.368376	-352.358873	-352.357929	-352.403449	36.883	
C	-0.0782526297	 1.6127566624	 0.1650260471	-0.385396
C	-0.0084778598	 0.0842408248	 0.0829533348	-0.187335
C	-1.3681839462	-0.5964338656	-0.0919208076	 0.058313
C	-2.0989764421	-0.296510291	-1.4162371614	-0.210895
C	-3.2008788066	-1.3692595503	-1.4779182796	-0.292958
C	-2.5763642555	-2.6031594904	-0.8065015596	 0.393605
C	-3.4568321119	-3.6817877347	-0.2292799319	-0.315103
C	-2.6305812381	-3.9597233562	-1.4619856206	-0.31288
C	-1.3018463116	-2.1389292705	-0.0861622808	-0.307399
H	 0.9146032395	 2.0464885261	 0.3205373025	 0.109661
H	-0.4884473562	 2.0468820255	-0.7524248754	 0.11748
H	-0.7150944464	 1.9350647251	 0.9967244138	 0.111884
H	 0.6446337536	-0.2099942341	-0.7505463202	 0.090121
H	 0.4694097655	-0.3031239585	 0.9924882308	 0.090972
H	-2.0244198957	-0.2775069357	 0.7320632642	 0.064954
H	-2.4956807019	 0.7208802549	-1.4756179181	 0.092072
H	-1.397759112	-0.4234442866	-2.2524753241	 0.092286
H	-4.0760052297	-1.0315211751	-0.9085187254	 0.095967
H	-3.542031851	-1.5699557082	-2.4983542066	 0.092019
H	-3.1560275966	-4.1480277796	 0.7039537027	 0.105051
H	-4.5316188066	-3.5803327793	-0.3478628621	 0.104559
H	-3.1460336673	-4.0513504626	-2.4132172049	 0.104817
H	-1.7669493716	-4.6103416319	-1.3608438435	 0.104568
H	-0.4113537445	-2.4628212466	-0.6420234246	 0.09184
H	-1.2125113775	-2.5489037019	 0.9251242408	 0.091798
24.5183	101.0286	141.2791	184.4663	243.8889	291.1659	307.4082	383.3557	406.4527	410.1207	505.1468	554.0955	724.6637	773.9153	779.6673	834.7311	846.041	870.0379	918.1613	929.2155	948.6644	965.8071	977.6352	992.8266	1016.3314	1036.7097	1053.2921	1076.8751	1085.8217	1120.3014	1144.1997	1183.9759	1189.4552	1214.5847	1242.0956	1267.2912	1283.2935	1299.4984	1309.4143	1324.8352	1342.5946	1362.9068	1382.0806	1395.2828	1413.0106	1466.6575	1484.0663	1486.886	1492.7178	1500.3095	1502.7541	1505.4161	1508.5981	2986.5921	3006.024	3011.6312	3019.4594	3023.733	3031.1601	3041.0153	3069.0867	3072.9284	3088.6796	3096.6442	3104.067	3114.1377	3118.8337	3191.455	3207.5139
CCC1CCC2(CC2)C1	CC[C@H]1CCC2(CC2)C1	
InChI=1S/C9H16/c1-2-8-3-4-9(7-8)5-6-9/h8H,2-7H2,1H3	InChI=1S/C9H16/c1-2-8-3-4-9(7-8)5-6-9/h8H,2-7H2,1H3/t8-/m0/s1
