17
gdb 5569	3.18452	1.79309	1.23872	1.742	70.77	-0.2264	0.0111	0.2374	1000.3508	0.142485	-363.913102	-363.905032	-363.904087	-363.946061	28.85	
C	 0.2253267839	 1.5848159487	 0.2890827836	-0.367484
C	-0.0938325329	 0.1171034833	-0.0377191681	-0.294048
C	 0.5656260863	-0.3529696866	-1.2950498298	 0.182578
C	 0.0221288542	-0.774814274	-2.4676197872	 0.252854
C	-1.3557902091	-0.957765865	-2.9886107538	-0.495954
O	 1.0598611617	-1.0890997479	-3.3166873398	-0.178493
C	 2.1747506009	-0.8337413801	-2.5978128873	 0.059786
N	 1.9596235463	-0.3988516614	-1.4034460688	-0.30522
H	 1.3061285689	 1.7305992738	 0.3644072539	 0.1401
H	-0.1503937611	 2.251805439	-0.4934108653	 0.11365
H	-0.2307667086	 1.8810155538	 1.2386535647	 0.109062
H	 0.2401618484	-0.5156756297	 0.7939659705	 0.117387
H	-1.1772178329	-0.0227336702	-0.1198022619	 0.098505
H	-1.5378412405	-0.3356578242	-3.872289499	 0.141258
H	-1.542327374	-1.9987953543	-3.2757762704	 0.141336
H	-2.0842041903	-0.68111838	-2.2233828703	 0.140116
H	 3.1193924087	-1.0180226351	-3.085596611	 0.144569
53.7398	130.0391	163.1515	207.9297	239.8098	277.0404	367.7053	442.9253	624.0395	646.4108	692.3376	744.1004	791.9246	836.0293	954.0812	958.2573	985.292	1034.8249	1065.8799	1086.8488	1126.5451	1171.8479	1218.4609	1292.0467	1301.477	1353.5327	1374.0783	1406.0507	1422.5085	1472.9145	1477.0792	1490.3845	1495.856	1508.9626	1567.0256	1676.979	3029.0495	3031.7813	3039.4492	3069.4839	3081.8551	3108.295	3124.2347	3129.944	3271.4469
CCC1=C(C)OC=N1	CCc1c(C)ocn1	
InChI=1S/C6H9NO/c1-3-6-5(2)8-4-7-6/h4H,3H2,1-2H3	InChI=1S/C6H9NO/c1-3-6-5(2)8-4-7-6/h4H,3H2,1-2H3
