20
gdb 6154	3.98176	1.26144	1.2297	2.6864	71.15	-0.2448	0.0743	0.3191	1102.0012	0.175381	-386.134619	-386.125617	-386.124673	-386.168237	33.503	
C	 0.4382681778	 1.2653019253	 0.2101065856	-0.428446
C	-0.0265933819	-0.1660392742	-0.0155932311	 0.442572
C	-1.5138145994	-0.3380611294	 0.2642895432	-0.424179
C	 0.4826367837	-0.8530785475	-1.3120698747	-0.366135
C	 1.2234218538	-1.8135505113	-0.3651665857	 0.134669
C	 2.7428984332	-1.8171051681	-0.3868693311	-0.067341
O	 3.2517333051	-2.3804072182	 0.8049023837	-0.421656
O	 0.749302754	-1.0998969094	 0.8053187939	-0.354606
H	 1.5118013248	 1.3617710814	 0.0264345626	 0.11809
H	-0.090900134	 1.9528439961	-0.4587849008	 0.1165
H	 0.2394817266	 1.5721061357	 1.242238292	 0.123909
H	-2.1101086516	 0.2968618746	-0.4001338805	 0.114742
H	-1.8191777344	-1.3776188445	 0.1155030164	 0.118842
H	-1.7403087059	-0.0608769422	 1.298829123	 0.123708
H	-0.2905572492	-1.3020100452	-1.9370646489	 0.107647
H	 1.133557326	-0.2328158841	-1.9332690668	 0.105052
H	 0.852580557	-2.8465353758	-0.3594442964	 0.080424
H	 3.1123092983	-2.4260732868	-1.2202937303	 0.104894
H	 3.1086845989	-0.786915824	-0.5347876284	 0.078759
H	 2.797013627	-1.9212230927	 1.5225066042	 0.292553
51.4191	111.5054	177.4139	196.192	241.8626	313.8644	335.2973	370.231	387.0394	461.2734	468.6505	518.728	643.2796	796.4481	857.9728	893.6063	907.3988	930.6452	967.7625	988.1428	1024.8003	1035.9806	1061.8171	1096.514	1158.0743	1180.2235	1222.3744	1240.1474	1279.8025	1286.8849	1311.5917	1350.111	1397.3131	1401.5025	1412.8274	1437.7945	1472.8433	1481.1373	1489.5144	1494.3646	1499.0693	1505.3795	2960.9297	3022.6622	3030.6222	3036.0063	3064.1458	3069.2666	3100.7388	3107.912	3112.4364	3115.4066	3127.9802	3776.3564
CC1(C)CC(CO)O1	CC1(C)C[C@@H](CO)O1	
InChI=1S/C6H12O2/c1-6(2)3-5(4-7)8-6/h5,7H,3-4H2,1-2H3	InChI=1S/C6H12O2/c1-6(2)3-5(4-7)8-6/h5,7H,3-4H2,1-2H3/t5-/m0/s1
