21
gdb 81176	3.18507	1.04015	0.92655	2.8201	84.22	-0.2462	-0.0202	0.2261	1342.0579	0.181559	-387.054416	-387.04543	-387.044486	-387.089034	33.673	
C	-0.1329806487	 1.585679002	-0.0736102095	-0.447074
C	-0.0014987	 0.0742435209	 0.033749801	 0.019442
C	 1.07770735	-0.7297074411	-0.7618497851	-0.059014
C	 2.1504358457	-0.208828998	 0.2356390018	-0.272289
C	 0.9152151485	-0.6065488518	 1.1105543648	 0.321896
C	 0.7627358658	-0.5051997813	 2.6170280478	-0.409987
C	 1.8683930406	-1.2277046996	 3.3551033779	 0.162256
O	 1.7027446459	-2.1340119307	 4.1301386566	-0.239382
C	 0.8303402762	-1.8956288144	 0.2352575557	-0.253621
H	 0.8237701933	 2.1127502556	-0.03975863	 0.117997
H	-0.6247407835	 1.8573264063	-1.0141760526	 0.121416
H	-0.755359851	 1.9759983669	 0.7398296377	 0.118352
H	-0.9972224497	-0.383569515	-0.0180126795	 0.062989
H	 1.1726948115	-0.8051938948	-1.8457416909	 0.071834
H	 3.0425411541	-0.8314901071	 0.3469040323	 0.093314
H	 2.4223818832	 0.8467709747	 0.1907101715	 0.093136
H	 0.8058056709	 0.5548450707	 2.9084454464	 0.117523
H	-0.1993700145	-0.9129338375	 2.9428990341	 0.120741
H	 2.8931550334	-0.8556809463	 3.1218873435	 0.074714
H	-0.144505997	-2.389411109	 0.187488097	 0.091845
H	 1.6416022455	-2.6193835103	 0.3514938395	 0.093912
48.7582	58.6845	147.5394	175.7395	218.3758	304.9046	345.6693	408.8434	469.2338	545.655	576.0324	643.4717	763.2398	782.2245	796.2362	847.9989	907.3051	923.2583	951.0577	996.7298	1005.6491	1022.6215	1049.7237	1051.7352	1107.1856	1118.5681	1144.8548	1150.51	1156.3487	1174.3814	1209.8651	1226.5734	1244.1713	1259.9361	1291.4014	1316.5027	1404.9192	1422.0688	1429.0163	1456.9966	1490.5758	1494.6949	1510.9309	1543.3216	1833.7941	2861.5753	3007.1536	3023.1507	3033.431	3048.1832	3059.8288	3088.0545	3088.561	3105.6703	3110.8567	3114.9553	3126.3525
CC1C2CC1(CC=O)C2	C[C@H]1[C@H]2C[C@]1(CC=O)C2	
InChI=1S/C8H12O/c1-6-7-4-8(6,5-7)2-3-9/h3,6-7H,2,4-5H2,1H3	InChI=1S/C8H12O/c1-6-7-4-8(6,5-7)2-3-9/h3,6-7H,2,4-5H2,1H3/t6-,7-,8+/m0/s1
