19
gdb 37688	3.17857	2.13636	1.72468	0.4706	82.1	-0.2227	0.0226	0.2453	853.4799	0.164402	-348.740886	-348.735204	-348.73426	-348.770395	26.133	
C	-0.0445577114	 1.58381879	 0.0650844147	-0.224498
C	 1.5038862172	 1.3896171667	 0.0011488756	-0.057371
C	 1.767655945	 0.695929745	 1.342664946	-0.059663
C	 2.0930466012	-0.8020556157	 1.313564041	-0.095156
C	 2.625767923	-1.4127499221	 0.0859622833	-0.068391
C	 2.1785759056	-0.9230116336	-1.073478815	-0.121398
C	 1.196159123	 0.1805894661	-0.9703132421	-0.042885
C	-0.0300347473	 0.0227934948	 0.0154485723	-0.05737
C	 0.6426992496	-0.3064719356	 1.3531564836	-0.059662
H	-0.4560184621	 2.0549733179	 0.9626946641	 0.087971
H	-0.4629443988	 2.0439349228	-0.8348807141	 0.090809
H	 2.184849215	 2.1862838497	-0.2989563235	 0.058909
H	 2.0589113947	 1.2809274548	 2.2065898049	 0.085292
H	 2.4545194691	-1.1978499146	 2.2573163717	 0.078076
H	 3.3462684034	-2.2205829249	 0.157422895	 0.089453
H	 2.4995351846	-1.2933341934	-2.0408116996	 0.085165
H	 0.8550560496	 0.5532838156	-1.9371128019	 0.066517
H	-0.9026718917	-0.5648947094	-0.270170945	 0.058909
H	 0.0371384205	-0.5205757543	 2.2254373892	 0.085292
318.0969	379.9702	428.4595	538.7574	578.8121	592.4367	702.9857	727.1458	751.4778	771.8144	779.1932	826.024	843.7035	879.2602	899.4334	933.334	954.8227	966.8934	975.5692	1004.7831	1006.3943	1024.9956	1052.4654	1078.4056	1095.4035	1098.988	1117.9384	1147.4041	1158.969	1166.3235	1221.0721	1226.93	1252.3544	1260.5146	1316.943	1322.4051	1380.8402	1387.2606	1437.342	1499.0848	1689.4447	3046.0141	3095.5435	3106.4427	3110.6299	3115.5849	3156.7652	3174.6464	3177.5813	3188.9186	3197.4172
C1C2C3C4C=CC2C1C34	C1[C@H]2[C@@H]3[C@@H]4C=C[C@H]2[C@H]1[C@H]34	
InChI=1S/C9H10/c1-2-5-8-6-3-7(4(1)6)9(5)8/h1-2,4-9H,3H2	InChI=1S/C9H10/c1-2-5-8-6-3-7(4(1)6)9(5)8/h1-2,4-9H,3H2/t4-,5+,6-,7+,8+,9-
