19
gdb 78894	2.96225	2.03851	1.65367	0.5881	76.91	-0.2048	0.0664	0.2712	889.3615	0.162305	-381.988849	-381.982275	-381.981331	-382.019403	27.848	
C	-0.3668403614	 1.536714773	 0.0246858828	-0.419543
C	 0.0566567319	 0.0689270121	 0.0067549804	 0.039507
C	 0.8007838782	-0.4237659369	-1.2300617514	-0.044378
C	 1.4371512339	-1.7049453089	-0.9098545008	-0.056292
C	 1.7415113391	-1.5350934642	 0.5868549249	-0.03728
C	 2.8299901261	-0.523735241	 0.1993971701	 0.025668
C	 2.1923767784	 0.4883357038	 1.1278629582	-0.187309
N	 0.9271086276	-0.3410162577	 1.1329117675	-0.150801
N	 2.301233476	-0.5041611695	-1.2369954148	-0.182661
H	 0.4424220136	 2.2198079134	-0.2435247232	 0.126072
H	-1.1743243352	 1.6919210351	-0.6973959317	 0.118778
H	-0.7416607947	 1.8128468372	 1.0145635966	 0.129341
H	-0.8617219648	-0.5328773695	 0.0788264904	 0.081416
H	 0.4060957972	-0.2370452582	-2.2245520634	 0.094916
H	 1.4338390542	-2.6144060302	-1.4996008968	 0.093599
H	 1.8373023402	-2.3758435416	 1.2708461121	 0.077568
H	 3.9021375059	-0.7259733366	 0.1849056381	 0.077165
H	 2.6367507499	 0.4859844037	 2.1290493549	 0.106915
H	 2.0958158339	 1.5204839762	 0.7870457063	 0.107319
153.9194	224.4645	299.9378	392.6593	459.8225	522.4328	631.6591	646.8088	676.1536	739.5679	773.3486	806.0554	847.5697	880.0513	886.2584	918.5282	930.4709	942.3103	972.5173	1021.8687	1028.6664	1050.6841	1071.7315	1098.7144	1123.9008	1157.8707	1188.1481	1188.7838	1210.186	1244.0094	1259.3857	1281.0515	1304.1132	1314.5879	1329.6974	1371.4506	1395.7557	1409.2516	1488.8954	1499.4836	1516.1158	2983.2	3042.5975	3047.4417	3093.2858	3109.0503	3114.7792	3129.014	3131.1827	3156.0482	3178.1559
CC1C2C3C4C(CN14)N23	C[C@H]1[C@@H]2[C@@H]3[C@H]4[C@H](CN14)N23	
InChI=1S/C7H10N2/c1-3-5-7-6-4(9(5)7)2-8(3)6/h3-7H,2H2,1H3	InChI=1S/C7H10N2/c1-3-5-7-6-4(9(5)7)2-8(3)6/h3-7H,2H2,1H3/t3-,4-,5+,6+,7+,9?/m0/s1
