17
gdb 34958	3.21151	1.54043	1.47471	1.9903	76.92	-0.2369	0.0413	0.2782	956.2988	0.136544	-384.602818	-384.595817	-384.594873	-384.634122	28.425	
C	-0.0835807449	-1.2592759955	-0.2226651355	-0.444275
C	-0.0332725142	-0.0635601043	-0.1024477543	 0.323732
C	 0.0356595639	 1.3716127958	 0.062926566	-0.199767
C	-0.2631275277	 2.0215270406	 1.4554777692	-0.071504
C	 0.5459720909	 1.3651195085	 2.6036682986	-0.245001
C	 1.8155308419	 2.0890800951	 2.0987588069	 0.109007
O	 2.3734659332	 1.4389173328	 0.9315795814	-0.294008
C	 1.427244876	 2.0858711409	 0.0667532	 0.097265
C	 0.9360842357	 3.0157981475	 1.2098284675	-0.113016
H	-0.1220319798	-2.3144106021	-0.3355901412	 0.194111
H	-0.5874642965	 1.8754110451	-0.6870646494	 0.10246
H	-1.2929944821	 2.3178503217	 1.6492201242	 0.076302
H	 0.2343916677	 1.7681363752	 3.5728590244	 0.102501
H	 0.5800484179	 0.2741251511	 2.6499240899	 0.120024
H	 2.5901582145	 2.393062315	 2.8047626976	 0.079436
H	 1.8667887894	 2.3727211809	-0.8901537187	 0.084781
H	 0.9047560238	 4.1014755418	 1.2080294133	 0.077952
114.5067	138.0897	318.0693	320.1458	412.5471	534.3891	547.1695	619.162	633.0817	671.3137	719.8379	772.3486	831.2536	837.2892	847.3814	873.9329	932.9608	965.0083	981.2312	1010.9666	1026.885	1065.2095	1087.8238	1113.9191	1134.1215	1147.4154	1182.2697	1183.6036	1216.6901	1267.1009	1281.3067	1287.4186	1316.8035	1336.0928	1348.7953	1465.066	2232.1812	3027.5732	3050.9362	3092.6839	3096.0322	3114.7732	3118.3957	3158.7424	3503.5299
C#CC1C2CC3OC1C23	C#C[C@H]1[C@H]2C[C@H]3O[C@@H]1[C@@H]23	
InChI=1S/C8H8O/c1-2-4-5-3-6-7(5)8(4)9-6/h1,4-8H,3H2	InChI=1S/C8H8O/c1-2-4-5-3-6-7(5)8(4)9-6/h1,4-8H,3H2/t4-,5+,6+,7-,8-/m0/s1
