18
gdb 89697	3.48777	1.2832	1.14124	5.0614	76.82	-0.262	0.0156	0.2776	1115.558	0.148492	-401.945393	-401.937639	-401.936695	-401.977424	30.546	
C	-0.0863918803	 1.4990197332	-0.0646919312	-0.414522
C	 0.0848012018	-0.0045715291	 0.0579053172	 0.154588
O	 0.9721417772	-0.5158619876	-0.9827569564	-0.333688
C	 1.9423826751	-1.2399439037	-0.2126698121	 0.350937
C	 1.0847823689	-2.0116510014	 0.829970002	-0.273066
C	 0.8133666092	-0.5480208954	 1.30128878	-0.107971
C	 2.3039410806	-0.2584338906	 0.9361344771	-0.273233
C	 2.931385972	-1.8740949992	-1.0615771529	 0.201815
N	 3.7438931765	-2.3984323893	-1.69343432	-0.339631
H	 0.8521924565	 2.0344294892	 0.099262767	 0.123903
H	-0.4493284261	 1.7517921053	-1.0649162229	 0.137561
H	-0.822584792	 1.8543347059	 0.6641626047	 0.118809
H	-0.8917076965	-0.4920737363	-0.0596243832	 0.084649
H	 0.2530499862	-2.5965865297	 0.4326336111	 0.118124
H	 1.6816260417	-2.5918631928	 1.5337305524	 0.121621
H	 0.3930011076	-0.3164930827	 2.2779502773	 0.088296
H	 3.0044056013	-0.6820450097	 1.6558599298	 0.122304
H	 2.6017148201	 0.7478419239	 0.6405481001	 0.119502
131.944	151.7315	200.2824	240.8425	294.0249	456.4755	482.5461	495.6197	539.9129	554.4618	577.8899	655.3146	805.6811	840.7344	875.1528	880.8896	902.3229	956.012	977.4401	1004.7688	1029.0565	1053.0816	1094.91	1103.9196	1142.5892	1153.7118	1169.9635	1215.1339	1222.5722	1285.655	1290.0388	1325.6453	1397.0902	1414.1979	1471.9503	1487.9526	1495.6351	1512.1316	2367.2126	3018.0161	3042.8373	3080.1138	3091.3689	3112.9899	3125.6385	3141.2443	3152.3259	3159.5701
CC1OC2(CC1C2)C#N	C[C@H]1O[C@@]2(C[C@H]1C2)C#N	
InChI=1S/C7H9NO/c1-5-6-2-7(3-6,4-8)9-5/h5-6H,2-3H2,1H3	InChI=1S/C7H9NO/c1-5-6-2-7(3-6,4-8)9-5/h5-6H,2-3H2,1H3/t5-,6-,7+/m1/s1
