20
gdb 104578	2.28323	1.20809	1.00819	2.3358	76.	-0.236	0.033	0.269	1298.0355	0.168711	-440.301157	-440.290725	-440.289781	-440.337837	36.972	
C	-2.2257419064	 0.982210358	-1.7439654715	-0.490822
C	-2.2049793323	-0.5089178022	-1.4378672684	 0.396787
O	-2.6897102605	-1.3378541367	-2.1853032811	-0.371207
N	-1.5991157871	-0.8400090713	-0.250674516	-0.3614
C	-1.295720682	-2.2029382398	 0.095154767	 0.370429
C	-0.1286966942	-2.7988463013	-0.655512789	-0.142017
O	 1.0270191786	-2.0248745652	-0.347456863	-0.434027
C	-1.5113203706	-2.5842351994	 1.539913402	-0.316987
C	-2.4493768873	-3.0894461595	 0.4736408215	-0.282001
H	-3.1188091607	 1.2072903447	-2.3281839496	 0.149958
H	-2.2090201997	 1.6012296012	-0.8427781075	 0.120413
H	-1.3518798611	 1.238949091	-2.3527131663	 0.146147
H	-1.0312544324	-0.1346988593	 0.1936332553	 0.247905
H	 0.002116014	-3.8501689076	-0.3557345246	 0.081424
H	-0.351012677	-2.7770688862	-1.7310363872	 0.116079
H	 1.7146765753	-2.2510124979	-0.9799848132	 0.288577
H	-0.8041930501	-3.2750267895	 1.9849802478	 0.119465
H	-1.8755311605	-1.8139221647	 2.210104192	 0.113684
H	-3.4381032202	-2.6537810085	 0.411296855	 0.130439
H	-2.3988298958	-4.1335947559	 0.1861019669	 0.117152
40.8929	51.0318	76.6848	125.5566	159.3398	226.7105	237.8573	304.6539	341.4431	410.4397	414.2365	499.3184	529.6002	627.8027	631.7336	772.148	774.851	890.2615	931.5466	932.4078	968.9195	1014.698	1034.1166	1050.878	1060.6629	1067.4392	1074.324	1087.5779	1185.577	1233.481	1247.2834	1271.2149	1316.9961	1364.0182	1388.7561	1454.1048	1462.0919	1468.1445	1484.5381	1497.5657	1513.4486	1519.4498	1784.2826	2980.4511	3034.2136	3044.9425	3111.3677	3138.6886	3149.9577	3150.9886	3223.114	3241.9119	3616.3961	3835.3847
CC(=O)NC1(CO)CC1	CC(=O)NC1(CO)CC1	
InChI=1S/C6H11NO2/c1-5(9)7-6(4-8)2-3-6/h8H,2-4H2,1H3,(H,7,9)	InChI=1S/C6H11NO2/c1-5(9)7-6(4-8)2-3-6/h8H,2-4H2,1H3,(H,7,9)
