16
gdb 125161	3.49431	1.57637	1.20999	4.9367	75.73	-0.2394	-0.0113	0.2281	1019.9581	0.125499	-396.86152	-396.854247	-396.853303	-396.893856	27.345	
C	 0.0309976365	 1.4949743775	 0.0042364378	-0.495638
C	-0.0504968717	 0.0098358368	-0.1094382483	 0.184995
C	-0.1488051622	-0.8412286245	-1.1877644561	 0.186137
C	 0.2031675001	-1.41797123	-2.5502133123	-0.217171
C	 1.463004567	-2.2582428834	-2.3781713013	-0.269487
C	 0.1482592089	-2.791378197	-1.8770321696	-0.003391
N	-0.2368237162	-2.0789457506	-0.6418653243	 0.072667
N	-0.1220576166	-2.0666223338	 0.6991855987	-0.171977
N	-0.0901459399	-0.7954899096	 1.0137572462	-0.233932
H	 0.6268488902	 1.9247431453	-0.8063450051	 0.124488
H	-0.9606863856	 1.960436803	-0.0327673361	 0.137765
H	 0.4883482969	 1.7669019528	 0.9582651197	 0.147558
H	-0.1980696253	-1.1361793044	-3.5123229417	 0.122969
H	 1.8410254946	-2.7334647605	-3.2799520103	 0.132185
H	 2.2234733398	-1.9507180396	-1.667999773	 0.146722
H	-0.3334483067	-3.7089551119	-2.1815931445	 0.13611
53.8849	121.9338	204.6196	266.3704	367.3345	483.5713	490.0611	632.1474	686.0942	709.4967	718.4101	805.591	814.8337	876.6236	926.9535	976.8153	995.5063	1023.2654	1042.3473	1063.8433	1090.4022	1109.0772	1148.458	1173.2988	1207.0566	1241.3619	1281.1831	1299.4616	1323.039	1415.7701	1420.6437	1472.7296	1480.7011	1494.8219	1612.9054	3036.3961	3093.1876	3121.449	3130.3094	3213.6451	3226.3903	3235.8959
CC1=C2C3CC3N2N=N1	Cc1c2[C@H]3C[C@H]3n2nn1	
InChI=1S/C6H7N3/c1-3-6-4-2-5(4)9(6)8-7-3/h4-5H,2H2,1H3	InChI=1S/C6H7N3/c1-3-6-4-2-5(4)9(6)8-7-3/h4-5H,2H2,1H3/t4-,5+/m0/s1
