23
gdb 74900	2.50721	1.46279	1.1274	0.3414	91.57	-0.208	0.0248	0.2328	1207.3966	0.208262	-351.155778	-351.147165	-351.146221	-351.188638	34.498	
C	-0.0847837271	 1.6529665144	-0.0287175706	-0.47502
C	-0.0035795963	 0.1472124315	-0.0113084924	 0.291491
C	 0.1005023429	-0.5404273614	-1.1566045158	-0.127972
C	 0.1545735597	-2.0064574892	-1.3797436832	-0.042408
C	 0.7578401844	-3.0193615017	-0.4205270315	-0.312409
C	-0.7360067858	-2.9376710632	-0.5674924491	-0.013559
C	-1.6413880063	-2.3363409332	 0.4944976467	-0.207628
C	-0.9647736381	-1.6352349857	 1.6849188845	-0.197847
C	 0.033248227	-0.480025542	 1.3753284039	-0.312553
H	 0.7482228272	 2.1017038968	 0.5295455153	 0.118338
H	-0.062943502	 2.0528686591	-1.0461588648	 0.114664
H	-1.0041176647	 2.0064239447	 0.4573485336	 0.117496
H	 0.0995488584	 0.0406194582	-2.0772140819	 0.071171
H	 0.2587783843	-2.270574314	-2.4273218052	 0.076265
H	 1.2706242899	-3.8662554824	-0.8638026178	 0.105966
H	 1.2155854249	-2.6658434902	 0.4933639214	 0.114405
H	-1.1999840639	-3.7402007828	-1.1344666096	 0.080592
H	-2.3173032311	-1.6232869127	 0.0042667184	 0.101975
H	-2.2815715556	-3.128328654	 0.9016668933	 0.091305
H	-1.7694590063	-1.2407397518	 2.3154856994	 0.096286
H	-0.4518071987	-2.3854428084	 2.2974099391	 0.098587
H	 1.0582906722	-0.8242986257	 1.5611873462	 0.116116
H	-0.1280869848	 0.3123905138	 2.1136142003	 0.094738
91.8697	136.8676	212.7622	239.7337	265.2422	323.7579	356.3909	382.226	434.8437	558.8305	585.1986	644.4016	728.4057	765.9746	799.9668	821.4358	849.8252	866.9868	886.7668	936.9251	970.4758	1021.7743	1030.4093	1046.4151	1055.144	1059.8734	1090.6819	1131.6631	1137.8968	1149.4558	1176.7958	1224.368	1246.3072	1269.2103	1300.3742	1346.6638	1360.4526	1390.8269	1398.3414	1401.826	1412.7032	1422.0076	1476.9178	1480.6214	1486.994	1493.5017	1497.2718	1514.4601	1726.8764	3005.4944	3015.665	3019.4666	3031.4267	3046.7662	3048.2772	3056.9105	3073.8432	3106.2498	3129.1475	3134.6796	3145.0107	3157.0554	3237.7081
CC1=CC2CC2CCC1	CC1=C[C@H]2C[C@H]2CCC1	
InChI=1S/C9H14/c1-7-3-2-4-8-6-9(8)5-7/h5,8-9H,2-4,6H2,1H3	InChI=1S/C9H14/c1-7-3-2-4-8-6-9(8)5-7/h5,8-9H,2-4,6H2,1H3/t8-,9+/m1/s1
