18
gdb 100605	2.48429	1.12855	0.81709	0.7292	72.38	-0.2579	-0.0304	0.2275	1402.1409	0.144322	-476.240824	-476.230465	-476.229521	-476.277629	35.015	
C	-1.1106312693	 0.7520305037	 1.1686991587	-0.246898
O	-0.4212769969	-0.0177881627	 0.1974939714	-0.25004
C	-1.2337826996	-0.8176086804	-0.6460299385	 0.006129
C	-0.6093278678	-0.8537895517	-2.0318176724	-0.391506
C	-1.3294244867	-2.2260964712	-0.0491103874	 0.473138
O	-0.8785791558	-3.231197365	-0.522273156	-0.335621
O	-2.0002624756	-2.1776020329	 1.1506846912	-0.209493
C	-2.1122852198	-3.3354802294	 1.882135497	 0.117768
N	-2.7246747308	-3.2778068599	 2.9786124284	-0.421159
H	-0.3599049199	 1.3801224294	 1.6539922899	 0.130537
H	-1.8650617823	 1.3998159689	 0.6976817829	 0.107588
H	-1.601777264	 0.1273568117	 1.9224002831	 0.140736
H	-2.2537240835	-0.4064304809	-0.6908677607	 0.096359
H	 0.4048005835	-1.2553027323	-1.976840757	 0.143564
H	-1.1927044028	-1.4875968886	-2.7041720777	 0.127773
H	-0.5690616378	 0.1593639574	-2.4377414126	 0.122929
H	-1.6379293238	-4.1896541966	 1.3991923206	 0.146556
H	-2.7353962972	-4.1979892696	 3.416602849	 0.241639
28.494	87.7568	102.5334	112.3687	151.4988	198.7849	214.2304	282.9962	309.874	314.0182	370.6687	489.6804	541.6487	648.9947	784.3496	854.0605	856.1552	912.3566	999.5323	1046.8271	1071.87	1093.7713	1118.4089	1160.6389	1177.0509	1183.7247	1230.5213	1263.2466	1356.3517	1367.8418	1389.5368	1413.3145	1477.2689	1481.7704	1487.5004	1491.3069	1515.7115	1745.6397	1842.8927	2991.4266	2996.1789	3058.8703	3075.6521	3124.0071	3136.7743	3142.3638	3142.8821	3506.5388
COC(C)C(=O)OC=N	CO[C@@H](C)C(=O)O[CH][NH]	
InChI=1S/C5H9NO3/c1-4(8-2)5(7)9-3-6/h3-4,6H,1-2H3	InChI=1S/C5H9NO3/c1-4(8-2)5(7)9-3-6/h3-4,6H,1-2H3/t4-/m0/s1
