17
gdb 13610	3.41172	1.48076	1.27014	1.5613	66.13	-0.253	0.0075	0.2604	1025.78	0.141256	-401.00513	-400.996426	-400.995482	-401.038821	30.437	
C	-0.0615820876	 1.5219104453	 0.6532800604	-0.23929
O	-0.1080907276	 0.2204068082	 1.2514350625	-0.217407
C	 0.7880722448	-0.6584383181	 0.7700535011	 0.458434
O	 1.5818312662	-0.3973295172	-0.102323585	-0.376172
C	 0.711421669	-2.0093420458	 1.4084991792	-0.152532
N	 0.0830731751	-2.1657736982	 2.7308119257	-0.323967
C	-0.5480593084	-2.8121156918	 1.5835949029	 0.016859
C	-1.9251536824	-2.3455901332	 1.1809271805	-0.405665
H	-0.2614419875	 1.4625721923	-0.4196764064	 0.139091
H	-0.833007541	 2.1051493078	 1.1558509908	 0.133423
H	 0.9208501349	 1.9769239155	 0.8011392103	 0.142052
H	 1.6090797127	-2.5783545334	 1.1834265237	 0.106864
H	 0.6161008182	-2.8298946191	 3.2855824567	 0.238512
H	-0.3883913854	-3.8850210275	 1.473092874	 0.092067
H	-2.025369832	-1.2687757172	 1.3170074287	 0.147877
H	-2.1254820138	-2.5935152748	 0.1330520073	 0.118589
H	-2.6824307351	-2.8443534628	 1.7952039076	 0.121265
61.1773	116.7776	129.1188	176.4476	195.2478	245.3336	317.8841	367.8837	437.9894	480.8204	651.3758	753.2951	800.0443	834.3826	883.2801	949.8824	1002.7234	1020.2523	1040.3354	1086.4055	1142.3746	1175.3198	1179.8738	1210.3642	1243.751	1252.9302	1320.3154	1398.524	1416.071	1458.7578	1474.1991	1481.5235	1495.3509	1497.5844	1502.9863	1805.1157	3040.078	3052.3257	3098.0597	3100.8098	3126.7637	3154.561	3158.1086	3160.351	3507.4465
COC(=O)C1NC1C	COC(=O)[C@H]1N[C@H]1C	
InChI=1S/C5H9NO2/c1-3-4(6-3)5(7)8-2/h3-4,6H,1-2H3	InChI=1S/C5H9NO2/c1-3-4(6-3)5(7)8-2/h3-4,6H,1-2H3/t3-,4-/m0/s1
