21
gdb 9675	3.47623	1.20485	1.05498	2.3276	75.13	-0.2424	0.0711	0.3135	1216.8634	0.187711	-366.241808	-366.232191	-366.231247	-366.27642	35.141	
C	-0.0278357952	 1.4363151021	-0.5181425871	-0.384814
C	-0.0248601643	 0.1200189221	 0.2699380844	-0.228046
C	-1.3783115439	-0.5778015003	 0.2802999625	 0.330694
C	-2.4907581492	 0.1903882537	 0.9731394937	-0.467617
N	-1.7202827794	-1.2844612158	-0.974063517	-0.382332
C	-1.5076985865	-2.0655459664	 0.2660971975	-0.08269
C	-0.3836631922	-3.0743776146	 0.1932730111	-0.074368
O	-0.7037251125	-4.1082544428	-0.7244946795	-0.422128
H	 0.9792291811	 1.8614604797	-0.5628437353	 0.112775
H	-0.369099021	 1.2644417972	-1.5437222407	 0.129391
H	-0.6807014269	 2.1881974774	-0.0643113421	 0.113789
H	 0.7206404488	-0.545866021	-0.1707866193	 0.106344
H	 0.2878663917	 0.3033658457	 1.3063011679	 0.093622
H	-2.698764823	 1.138349405	 0.4658292772	 0.125573
H	-3.4186674944	-0.3901904512	 0.991520104	 0.11321
H	-2.2210849086	 0.4227431212	 2.0094701746	 0.123769
H	-2.7144608311	-1.1963619459	-1.1691324999	 0.226471
H	-2.4034142303	-2.4614907485	 0.7440222212	 0.082597
H	 0.5634179201	-2.5890456862	-0.0770799472	 0.089531
H	-0.2437689647	-3.556778268	 1.1666358879	 0.105726
H	-0.9149738385	-3.6605660934	-1.5528817738	 0.288501
51.3512	72.9721	160.6334	182.7649	212.6097	228.0256	290.5418	323.9645	378.8517	420.3283	445.4365	495.197	589.3073	690.7014	781.1082	813.3889	880.859	937.8688	982.1691	996.8405	1008.8476	1017.2222	1062.0505	1064.1531	1099.0443	1134.9846	1146.2558	1192.0904	1263.1541	1277.7303	1322.4114	1337.2401	1369.584	1386.2725	1405.1961	1415.0904	1423.8864	1470.7852	1472.8194	1488.1428	1500.4053	1501.2844	1507.7163	1511.0426	3015.5294	3026.0413	3030.0649	3039.6369	3072.0104	3090.6945	3095.5117	3098.4324	3110.4105	3111.3122	3116.2185	3493.4295	3783.8769
CCC1(C)NC1CO	CC[C@@]1(C)N[C@H]1CO	
InChI=1S/C6H13NO/c1-3-6(2)5(4-8)7-6/h5,7-8H,3-4H2,1-2H3	InChI=1S/C6H13NO/c1-3-6(2)5(4-8)7-6/h5,7-8H,3-4H2,1-2H3/t5-,6+/m0/s1
