20
gdb 39034	2.98437	1.69188	1.26377	1.787	84.74	-0.2161	0.0202	0.2363	1045.1581	0.17446	-366.009362	-366.002235	-366.00129	-366.04057	29.699	
C	 0.2020805695	 1.4022719847	-0.4545605071	-0.204729
C	 1.410542229	 2.0195522937	 0.3105770646	-0.338401
C	 2.1503599463	 0.7873123533	 0.7280050306	 0.364345
C	 3.4019056151	 0.3302656895	 0.7573662918	-0.260175
C	 3.4345971747	-1.1760909686	 0.9853454327	-0.253003
C	 1.9560319938	-1.5598421122	 1.0967828924	-0.134025
N	 1.2922474646	-0.963775428	 2.2855135702	-0.382604
C	 1.1614230474	-0.3116154047	 0.9558195795	 0.314824
C	-0.1529970317	 0.0884304484	 0.3026203672	-0.350989
H	-0.6480927161	 2.0856774962	-0.5260918969	 0.098186
H	 0.5162533048	 1.1615628037	-1.4757571554	 0.10768
H	 1.9927366018	 2.7144569655	-0.2999117178	 0.105634
H	 1.0482162238	 2.5721927152	 1.1885286488	 0.112439
H	 4.3045157933	 0.9128163216	 0.6098312961	 0.08757
H	 3.9210815934	-1.6893433349	 0.1449488215	 0.100825
H	 3.9840237803	-1.4574996231	 1.8920627065	 0.118169
H	 1.6130659025	-2.5269410139	 0.7439011721	 0.084432
H	 0.4380480397	-1.4969042074	 2.4548244037	 0.218046
H	-0.9027548623	 0.2897118023	 1.0773997016	 0.107179
H	-0.5700990401	-0.6728771714	-0.3629936622	 0.104599
138.2299	194.7565	279.4303	296.3424	395.0649	438.0077	533.234	598.3617	623.4093	665.5549	760.0703	797.2883	826.0244	838.1122	858.7255	885.3853	901.1957	917.7819	959.4678	975.3561	992.4465	1020.0753	1040.0225	1068.8062	1117.7013	1146.4672	1166.1558	1185.0809	1192.8643	1232.6912	1257.8983	1294.4723	1302.4176	1316.226	1328.2809	1340.6436	1373.8266	1420.9411	1464.3043	1479.4091	1484.8734	1500.3765	1728.432	3013.2064	3017.49	3031.5978	3047.6057	3055.1872	3081.7082	3093.0667	3102.9033	3163.0761	3191.6455	3445.517
C1CC2=CCC3NC23C1	C1CC2=CC[C@H]3N[C@@]23C1	
InChI=1S/C8H11N/c1-2-6-3-4-7-8(6,5-1)9-7/h3,7,9H,1-2,4-5H2	InChI=1S/C8H11N/c1-2-6-3-4-7-8(6,5-1)9-7/h3,7,9H,1-2,4-5H2/t7-,8+/m1/s1
