19
gdb 86714	2.71974	1.41563	1.16611	3.6665	75.71	-0.2442	-0.0193	0.2249	1122.6785	0.158509	-423.029388	-423.020974	-423.02003	-423.062713	31.674	
C	 0.1776314801	 1.5392000091	-0.1957210664	-0.399285
C	 0.1035896613	 0.0341341321	 0.0030004721	 0.1258
O	 0.6920724645	-0.6034247769	-1.1386338962	-0.262641
C	 1.1419701263	-1.888968033	-0.7780320011	 0.014847
C	 2.3318242425	-2.2999989895	-1.6267981758	 0.154142
O	 2.9570091037	-1.5734003169	-2.3500067277	-0.239064
C	 1.5134524798	-1.8046690885	 0.7074491592	-0.085972
C	 2.3590171726	-0.6101795091	 1.0744568214	-0.296939
C	 0.8586604163	-0.5375310371	 1.1955043806	-0.052264
H	 1.2174557598	 1.8728007462	-0.2454245464	 0.128677
H	-0.3222104758	 1.8236040193	-1.1255629416	 0.129884
H	-0.317275231	 2.0546550468	 0.6332487201	 0.113931
H	-0.9536935944	-0.2706631455	 0.0875549197	 0.069197
H	 0.3538263466	-2.6539052492	-0.9091302853	 0.081119
H	 2.6071555842	-3.3727926469	-1.4908133	 0.071644
H	 1.5438747365	-2.7125540712	 1.2968271734	 0.096354
H	 2.9312133579	-0.6697606059	 1.9929899015	 0.115245
H	 2.8431660358	-0.0683559767	 0.2681723492	 0.142809
H	 0.3983204331	-0.483129177	 2.1751139932	 0.092517
69.5501	102.8169	194.3404	212.7478	234.0682	287.8633	359.5963	405.9656	511.4371	612.7629	687.43	727.1478	771.9356	805.1311	837.3973	898.1493	926.862	945.3003	990.2621	1006.9166	1033.9528	1064.1291	1082.546	1091.3369	1103.412	1125.9996	1153.0899	1164.4382	1195.2307	1288.8844	1318.4945	1337.1731	1349.8282	1380.5006	1402.3867	1413.1682	1424.7268	1477.1337	1486.3991	1496.0718	1845.928	2850.8395	2932.0769	2953.1232	3045.2241	3117.988	3127.1681	3133.8189	3179.4561	3191.3016	3224.0792
CC1OC(C=O)C2CC12	C[C@H]1O[C@@H](C=O)[C@H]2C[C@@H]12	
InChI=1S/C7H10O2/c1-4-5-2-6(5)7(3-8)9-4/h3-7H,2H2,1H3	InChI=1S/C7H10O2/c1-4-5-2-6(5)7(3-8)9-4/h3-7H,2H2,1H3/t4-,5+,6+,7+/m1/s1
