21
gdb 104443	2.3787	1.38049	1.30805	3.3194	74.18	-0.2544	0.0772	0.3316	1134.4374	0.182452	-461.366852	-461.357819	-461.356875	-461.400095	35.017	
C	-0.1491109676	 1.6290327772	-0.002043967	-0.437208
C	-0.0180615561	 0.1026815502	 0.059195818	 0.39989
C	-1.4011702685	-0.5654739715	 0.1128499609	-0.062293
O	-1.3260108999	-1.9622798398	-0.0198411225	-0.425431
O	 0.5765407429	-0.421502901	-1.1278997189	-0.302615
C	 1.9780395484	-0.2087282783	-1.2565316678	-0.086721
C	 2.7130888818	-0.7275005778	-0.0233398132	-0.207526
C	 2.0749567443	-0.0985726986	 1.2138346259	-0.085115
O	 0.6716892975	-0.3208315487	 1.2186573462	-0.277053
H	 0.8204890178	 2.1318899687	 0.0048374846	 0.119143
H	-0.6763050601	 1.9234305525	-0.9126909199	 0.128181
H	-0.7131133883	 1.981542474	 0.8659240162	 0.129862
H	-1.8537292519	-0.3460348841	 1.0841679116	 0.113119
H	-2.0265672475	-0.1115201977	-0.6727380805	 0.082123
H	-0.6930641257	-2.1173540704	-0.7319492181	 0.283825
H	 2.2772907242	-0.7376225329	-2.1654575453	 0.112889
H	 2.1927919783	 0.8603150769	-1.4088522356	 0.094849
H	 2.6129440984	-1.8167953487	 0.0299893509	 0.115894
H	 3.7791213459	-0.4810487596	-0.0780881221	 0.099708
H	 2.4488039816	-0.548964321	 2.1370724957	 0.114563
H	 2.3058267345	 0.9780220806	 1.2534901608	 0.089915
118.3259	123.586	176.2456	232.1838	246.964	304.6391	334.9526	379.1636	413.8602	431.8907	478.9057	481.2768	591.4406	643.8125	734.5826	831.2431	875.4283	901.1067	905.2644	963.929	984.2735	990.059	1074.2546	1100.1183	1115.1393	1140.099	1149.6693	1182.0034	1237.459	1250.0595	1269.2476	1278.7579	1319.4341	1371.8894	1380.484	1399.1347	1402.1577	1416.3592	1449.9427	1469.1446	1484.2084	1486.5788	1495.5264	1511.3203	1517.4003	2975.7332	2977.4576	2990.1256	3042.9576	3054.4276	3086.5859	3088.9612	3090.7294	3096.7974	3127.2423	3131.715	3781.1351
CC1(CO)OCCCO1	CC1(CO)OCCCO1	
InChI=1S/C6H12O3/c1-6(5-7)8-3-2-4-9-6/h7H,2-5H2,1H3	InChI=1S/C6H12O3/c1-6(5-7)8-3-2-4-9-6/h7H,2-5H2,1H3
