19
gdb 84671	2.62332	1.94147	1.53871	1.705	78.54	-0.2199	0.0054	0.2253	943.4914	0.161251	-385.857243	-385.850126	-385.849182	-385.888431	29.385	
C	 0.2260604409	 1.5499010627	-0.0117232695	-0.385943
C	 0.036087863	 0.018219832	-0.019135835	-0.054191
C	 0.4865744177	-0.5814042805	-1.3308450975	-0.062737
C	 1.5949167808	-1.3108649172	-1.4554843103	-0.057755
C	 2.4358021576	-1.5578623266	-0.2386166853	 0.043894
O	 2.9630606442	-0.302117287	 0.3359320097	-0.301534
C	 2.1825719494	-0.5084618398	 1.5117278166	 0.08285
C	 1.6323810405	-1.8249708008	 1.0465935708	-0.174032
C	 0.7123902306	-0.6326682233	 1.1923748284	-0.0712
H	 1.2877133591	 1.7920684639	-0.1008106155	 0.143259
H	-0.309261638	 2.0201787155	-0.8432361704	 0.106956
H	-0.1549278394	 1.9794749015	 0.9209517934	 0.107619
H	-1.0431761611	-0.1762058896	 0.0656457715	 0.077129
H	-0.1406056859	-0.3754827148	-2.1952872642	 0.092463
H	 1.905527175	-1.7189737084	-2.4118919176	 0.090127
H	 3.2630456881	-2.2496588074	-0.4116867977	 0.080192
H	 2.5921292655	-0.1698605765	 2.4562561016	 0.099234
H	 1.5007264624	-2.7825750782	 1.5313071848	 0.095304
H	 0.0954630497	-0.6717028955	 2.0876901162	 0.088364
117.2528	221.4766	253.6795	324.121	358.441	458.5098	511.6213	593.395	667.4493	709.7463	726.6654	754.9246	800.4727	817.4524	887.8554	909.0863	933.768	961.2576	989.848	996.4382	1013.0613	1022.0413	1052.9084	1063.2603	1084.8447	1096.7896	1123.8316	1169.4815	1189.2086	1240.514	1271.5598	1305.1841	1322.3447	1345.7944	1365.9843	1392.8974	1411.2245	1428.0695	1492.1912	1506.2844	1704.0403	2990.8541	3032.7636	3083.0198	3096.9423	3130.6143	3134.7407	3149.8066	3180.2545	3183.105	3203.8754
CC1C=CC2OC3C2C13	C[C@H]1C=C[C@H]2O[C@@H]3[C@H]2[C@H]13	
InChI=1S/C8H10O/c1-4-2-3-5-7-6(4)8(7)9-5/h2-8H,1H3	InChI=1S/C8H10O/c1-4-2-3-5-7-6(4)8(7)9-5/h2-8H,1H3/t4-,5+,6-,7+,8-/m0/s1
