18
gdb 37310	2.9038	1.81359	1.53852	2.1541	74.43	-0.2354	0.0259	0.2613	920.7734	0.151029	-401.925265	-401.918446	-401.917502	-401.95646	27.451	
C	-0.135590248	 1.4230119178	-0.2973596201	-0.288022
C	 1.2306202058	 0.8588630326	-0.023177661	-0.071585
C	-0.0081142771	-0.0445366591	-0.0162088234	-0.038441
C	 0.5211077162	-0.8018596677	-1.254189131	-0.014171
N	-0.3217467911	-0.7532885693	-2.428306081	-0.254321
C	-0.0596830592	 0.1165129393	-3.3089645094	 0.114361
O	 0.9460189827	 1.0245755225	-3.3640768629	-0.22965
C	 2.1103001857	 0.7884161935	-2.5460635722	-0.099415
C	 1.8055490681	 0.0970092654	-1.2245725292	-0.053809
H	-0.5541143541	 2.0017728632	 0.5202238288	 0.112333
H	-0.4158021183	 1.7902270133	-1.27894796	 0.128255
H	 1.8241180333	 1.1925857416	 0.8195788907	 0.085923
H	-0.5082144367	-0.5162380942	 0.8200966263	 0.089527
H	 0.7369654548	-1.8467801111	-1.0198231439	 0.084513
H	-0.7044719883	 0.2346330633	-4.1789965006	 0.12076
H	 2.7962615366	 0.1694727831	-3.1388775598	 0.112512
H	 2.5712498128	 1.7702602845	-2.4067971025	 0.120708
H	 2.6812491068	-0.4851372188	-0.9247058485	 0.08052
128.1656	135.5159	260.5815	360.4764	443.516	486.0684	569.0372	639.9505	691.4412	758.7539	790.2536	810.9429	867.9877	893.016	927.6782	951.7904	976.4911	983.6734	1009.2245	1030.7136	1060.1888	1080.203	1083.2596	1096.1396	1123.7284	1169.3413	1193.1224	1202.2346	1263.5933	1280.7411	1308.1808	1344.5383	1349.4266	1372.8176	1408.2914	1420.1651	1495.3069	1499.9343	1719.9221	3018.7166	3063.7071	3078.6227	3089.1759	3130.3405	3147.7136	3177.1982	3191.7705	3210.3683
C1C2C1C1N=COCC21	C1[C@H]2[C@@H]1[C@H]1N=COC[C@@H]21	
InChI=1S/C7H9NO/c1-4-5(1)7-6(4)2-9-3-8-7/h3-7H,1-2H2	InChI=1S/C7H9NO/c1-4-5(1)7-6(4)2-9-3-8-7/h3-7H,1-2H2/t4-,5+,6-,7+/m0/s1
