20
gdb 77160	3.1986	1.06333	0.86197	2.9688	81.61	-0.2565	0.0328	0.2892	1382.3099	0.170873	-403.1435	-403.134549	-403.133605	-403.177659	33.405	
C	-0.2557402571	 1.3684050111	-0.0698215301	-0.410042
C	 0.0322327634	-0.1200282853	 0.0745025851	-0.151851
C	 0.8664646582	-0.8380042866	-1.0193737507	 0.120876
O	 1.8756669389	-1.1906616391	-0.0000109943	-0.275269
C	 1.1816827754	-0.5162226184	 0.9800827226	 0.432109
N	 1.4612438788	-0.3081701503	 2.1853331071	-0.549639
C	 0.2957755062	-2.0376209492	-1.7011817846	 0.007703
C	-0.3138452357	-1.8861328694	-3.0766870079	-0.272534
C	 0.9878849259	-2.6218529468	-2.9077034785	-0.267452
H	 0.650426637	 1.9225952189	-0.3339635243	 0.124008
H	-1.0080922622	 1.5501177376	-0.84378979	 0.11941
H	-0.6304146588	 1.7725998998	 0.8745437176	 0.143263
H	-0.8826650239	-0.6697657249	 0.3170194753	 0.104397
H	 1.3187829504	-0.151545764	-1.7447280743	 0.082157
H	 2.3582620512	-0.7281776048	 2.4360050469	 0.224666
H	-0.1869487155	-2.7421366258	-1.0294298735	 0.091309
H	-1.2090861052	-2.4551886465	-3.2989106458	 0.119689
H	-0.2871290732	-0.9052916923	-3.5402307977	 0.116387
H	 1.8950972361	-2.1373207289	-3.2528384983	 0.120478
H	 0.9912611103	-3.7002127351	-3.0161939445	 0.120337
73.9011	76.4335	154.2561	200.4508	216.1675	242.2396	330.331	377.6131	400.5292	530.169	652.3803	724.3053	776.8496	824.3157	832.6128	868.1847	869.6283	899.6491	925.9735	947.0915	1006.9009	1028.8026	1063.4183	1077.0876	1082.2273	1096.7933	1129.5517	1134.0889	1196.6715	1201.5146	1221.481	1225.3336	1261.8832	1296.5869	1333.8526	1366.4527	1411.6441	1445.0123	1471.9132	1495.321	1497.311	1507.9715	1821.73	3037.6955	3041.8999	3064.0321	3109.0566	3119.7056	3134.7404	3139.1451	3147.5279	3213.8284	3228.7125	3471.4334
CC1C(OC1=N)C1CC1	C[C@H]1[C@@H](O[C]1[NH])C1CC1	
InChI=1S/C7H11NO/c1-4-6(5-2-3-5)9-7(4)8/h4-6,8H,2-3H2,1H3	InChI=1S/C7H11NO/c1-4-6(5-2-3-5)9-7(4)8/h4-6,8H,2-3H2,1H3/t4-,6+/m0/s1
