21
gdb 86559	3.67246	0.99598	0.95718	2.9618	78.12	-0.2461	0.0718	0.318	1325.8463	0.182868	-424.192017	-424.183231	-424.182287	-424.225998	33.201	
O	 0.4511924715	 0.3652873179	-0.8606082403	-0.434907
C	-0.2595997717	-0.408155145	 0.0721404355	 0.181673
C	 0.1069610217	-0.3281666134	 1.5790843714	-0.278045
C	-1.4151518396	-0.3968254808	 1.9146217323	-0.028205
C	-1.7226365228	-0.0312644778	 0.4308157529	-0.27897
C	-1.8875350195	-1.7630607622	 2.3732640099	 0.145918
C	-3.3965818632	-2.0955874882	 2.3072374768	-0.297632
C	-2.9527317002	-3.2782055375	 1.4255815488	-0.058567
O	-1.5814543189	-2.8276525893	 1.4333329203	-0.288313
H	 0.4271762482	 1.2824442919	-0.5671857305	 0.272351
H	-0.205643067	-1.4383249287	-0.2831173965	 0.112357
H	 0.7529706704	-1.1108026064	 1.9848129355	 0.10816
H	 0.5338607553	 0.6482789253	 1.8334788277	 0.086106
H	-1.7581847495	 0.3334913297	 2.6553671968	 0.071227
H	-1.8949755662	 1.0441041322	 0.3128332626	 0.085913
H	-2.5217886061	-0.5709987441	-0.0831284496	 0.100359
H	-1.4394295275	-1.9874424014	 3.3529052329	 0.071754
H	-3.8762597199	-2.3477872725	 3.2537931919	 0.109093
H	-3.9941484219	-1.343239793	 1.788534201	 0.112475
H	-3.0562245013	-4.2676249466	 1.8891686387	 0.101303
H	-3.3642284518	-3.3182325199	 0.410495202	 0.105951
76.514	92.9229	106.2571	190.6652	223.9199	307.396	360.8291	416.5072	451.1812	535.6663	669.4813	700.4276	794.2986	813.3165	848.9161	898.1779	929.97	938.4033	953.4712	972.3247	995.3022	1023.3818	1048.1275	1063.5157	1110.2875	1124.2634	1153.1089	1157.6116	1169.2574	1200.8464	1217.4333	1247.2094	1258.6716	1267.3142	1281.3696	1295.2078	1328.651	1349.2096	1380.9466	1382.4849	1428.371	1463.7979	1490.2286	1491.4353	1531.206	2985.4643	3014.9197	3038.9406	3041.5349	3055.526	3057.613	3079.2817	3096.7599	3104.1938	3120.001	3134.7891	3800.8889
OC1CC(C1)C1CCO1	O[C@H]1C[C@@H](C1)[C@H]1CCO1	
InChI=1S/C7H12O2/c8-6-3-5(4-6)7-1-2-9-7/h5-8H,1-4H2	InChI=1S/C7H12O2/c8-6-3-5(4-6)7-1-2-9-7/h5-8H,1-4H2/t5-,6-,7-/m1/s1
