16
gdb 15202	2.43105	1.92467	1.47286	0.8815	77.	-0.2387	0.0299	0.2686	936.3468	0.12757	-309.391649	-309.383012	-309.382068	-309.424451	32.06	
C	-0.1276881623	 1.5438935908	-0.0229759223	-0.41036
C	 0.0335893515	 0.0445880196	 0.0346193607	-0.032912
C	 1.3789455094	-0.6170554357	-0.2077459762	-0.228009
C	 2.5550434492	 0.1540211391	-0.4728337756	 0.356381
C	 3.5486217932	 0.7866942535	-0.7159073827	-0.466044
C	 0.7386327855	-0.6320441658	 1.1972020409	-0.228023
C	 1.3040105648	 0.1246823112	 2.2722574492	 0.356382
C	 1.7674033812	 0.7448628117	 3.1926931258	-0.466029
H	 0.7481250711	 2.0536969173	 0.3828130057	 0.145491
H	-0.2655757944	 1.8756612115	-1.0570660711	 0.122263
H	-1.0024802141	 1.8583088152	 0.5552174682	 0.122232
H	-0.8099441287	-0.5182390736	-0.3558193107	 0.098341
H	 1.3489390518	-1.5771121381	-0.7151387293	 0.118632
H	 4.4276368139	 1.3453608942	-0.9211712893	 0.19651
H	 0.3437406259	-1.6006362666	 1.4903669603	 0.118634
H	 2.1846662622	 1.2925063356	 4.0007080464	 0.196512
96.3529	123.103	158.4378	158.9536	241.6953	320.2298	358.7882	428.3941	547.6208	587.8306	591.7921	627.181	645.3557	653.3101	653.6266	735.9359	786.637	835.9529	950.82	970.2345	1016.7921	1089.0432	1105.2404	1146.9156	1163.9096	1241.4904	1365.4691	1369.3742	1411.4741	1425.2233	1488.2663	1496.362	2237.1242	2238.6982	3042.0172	3102.7282	3130.5572	3141.0043	3143.942	3156.3919	3505.8084	3506.4874
CC1C(C#C)C1C#C	C[C@H]1[C@@H](C#C)[C@H]1C#C	
InChI=1S/C8H8/c1-4-7-6(3)8(7)5-2/h1-2,6-8H,3H3	InChI=1S/C8H8/c1-4-7-6(3)8(7)5-2/h1-2,6-8H,3H3/t6-,7+,8-
