13
gdb 12182	3.89298	1.484	1.1578	1.5238	56.92	-0.2712	-0.052	0.2191	967.151	0.093149	-435.724916	-435.716977	-435.716033	-435.758199	26.993	
O	 0.4414836209	 0.8211091467	 0.4987534762	-0.41466
C	 0.1828800522	-0.4050752035	-0.1182702824	-0.022303
C	-1.330742672	-0.7117133648	-0.2875744532	 0.029491
O	-1.1435825485	-0.818922294	-1.7355659132	-0.26449
C	 0.1823926249	-0.4416240017	-1.6403010283	 0.413679
N	 1.0435401709	-0.1869897543	-2.5093511097	-0.5427
C	-1.835276014	-2.0062550786	 0.3086599547	 0.13298
O	-2.4429225208	-2.0645369626	 1.3435813909	-0.22629
H	 1.3271882914	 1.0999941872	 0.2381621825	 0.306979
H	 0.7525159826	-1.232804818	 0.3284300454	 0.111776
H	-1.9658786544	 0.1342941002	-0.0184903874	 0.137252
H	 0.6788226637	-0.2738633817	-3.4591442343	 0.239908
H	-1.5743251568	-2.9090106748	-0.2874984412	 0.098378
59.691	82.8422	127.3068	225.6188	264.2001	279.1518	404.4671	458.8238	498.8361	681.3173	748.2974	866.9706	889.6795	906.924	989.8464	1015.751	1047.6959	1089.8551	1149.6907	1195.0109	1207.8434	1264.5582	1305.5757	1329.9384	1408.1225	1413.6569	1838.1947	1840.2372	2892.527	3003.9471	3112.9562	3483.6487	3804.3075
OC1C(OC1=N)C=O	O[C@H]1[C@@H](O[C]1[NH])C=O	
InChI=1S/C4H5NO3/c5-4-3(7)2(1-6)8-4/h1-3,5,7H	InChI=1S/C4H5NO3/c5-4-3(7)2(1-6)8-4/h1-3,5,7H/t2-,3-/m0/s1
