20
gdb 81465	2.96519	1.5785	1.41944	2.517	77.37	-0.2195	0.0743	0.2938	1001.4123	0.173644	-403.103788	-403.096504	-403.09556	-403.134902	30.526	
O	-0.1233646976	 1.4591254839	 0.0646308175	-0.448558
C	 0.0650425685	 0.0559047623	 0.0302776162	 0.125754
C	 0.2058101989	-0.6065150268	 1.4260083431	-0.055375
C	-1.3471990747	-0.5142047901	 1.5342461696	-0.225097
C	-1.3464131575	-0.6080878777	-0.0178148513	 0.009306
N	-1.3785795143	-2.034060176	-0.3568103238	-0.094847
C	-0.3144557768	-2.605320581	-1.1823476242	-0.256327
C	-0.3133305316	-2.8138628029	 0.2960472643	-0.002838
C	 0.6394824723	-2.0728589063	 1.2421619046	-0.252504
H	 0.697295218	 1.8615873354	 0.3669665285	 0.280809
H	 0.8097630122	-0.2107998193	-0.7301729297	 0.054971
H	 0.8201443041	-0.0951862248	 2.1734283692	 0.052126
H	-1.8772157938	-1.3063551231	 2.0680913445	 0.096264
H	-1.669627502	 0.4661668671	 1.8819749436	 0.113365
H	-2.1025477869	-0.0721172929	-0.5950691182	 0.080153
H	-0.6327293018	-3.4116135824	-1.8383659663	 0.111586
H	 0.4387992022	-1.9547067102	-1.6159082161	 0.114786
H	-0.6462681	-3.7852981044	 0.6547550164	 0.090116
H	 1.6751346425	-2.1209730048	 0.8812387076	 0.100527
H	 0.6247684484	-2.5745705059	 2.2158523244	 0.105785
207.3884	233.325	277.6705	300.9064	320.294	396.8799	445.4451	476.9408	506.5016	649.7538	729.5033	794.7243	843.7775	853.5383	890.8793	894.2438	919.1545	938.5632	974.5654	1007.3308	1041.1754	1054.0676	1082.5011	1109.9898	1115.7288	1128.5341	1139.7713	1154.028	1179.3278	1181.5624	1236.0943	1249.6767	1282.4187	1296.5391	1304.2432	1318.1618	1327.7111	1364.1862	1398.0183	1414.7893	1479.2535	1487.0734	1508.3857	3009.3218	3019.3991	3057.3727	3064.5165	3077.1317	3090.0295	3111.2054	3123.0017	3151.6461	3193.5999	3809.0123
OC1C2CC1N1CC1C2	O[C@H]1[C@H]2C[C@@H]1N1C[C@H]1C2	
InChI=1S/C7H11NO/c9-7-4-1-5-3-8(5)6(7)2-4/h4-7,9H,1-3H2	InChI=1S/C7H11NO/c9-7-4-1-5-3-8(5)6(7)2-4/h4-7,9H,1-3H2/t4-,5-,6+,7+,8?/m1/s1
