21
gdb 89891	4.09023	1.10702	1.05971	1.299	82.7	-0.2333	0.0841	0.3174	1245.7522	0.182406	-387.05296	-387.044652	-387.043708	-387.086083	32.771	
C	 0.4589509641	 1.5273021303	 0.0629061401	-0.396521
C	-0.036094676	 0.1039196298	-0.0963887056	 0.15602
C	 0.4622541635	-0.7173771138	-1.3034378997	-0.379275
C	 1.0344528157	-1.6800521414	-0.2440955085	 0.465985
C	 0.5961086839	-3.1695566796	-0.0698680408	-0.308782
C	 2.0739360161	-3.5761024231	-0.006196167	-0.03905
C	 2.7729108997	-3.1300520661	-1.2563608824	-0.283241
C	 2.4958971428	-2.1152573334	-0.1765583515	-0.111841
O	 0.608050362	-0.811711599	 0.8266755827	-0.339462
H	 1.5417982761	 1.5807565737	-0.0878413337	 0.116865
H	-0.028347774	 2.1857720603	-0.6649119204	 0.113545
H	 0.2335061118	 1.9014419435	 1.0666615327	 0.125578
H	-1.1264255146	 0.0673278291	 0.0348529536	 0.072112
H	-0.3082737012	-1.1295823067	-1.9574130839	 0.104761
H	 1.2211522087	-0.2159898704	-1.9095277132	 0.106237
H	 0.076143716	-3.2750870965	 0.8847906096	 0.118316
H	-0.0052330925	-3.6225549945	-0.8664290178	 0.087329
H	 2.4922536156	-4.3301171224	 0.6486307671	 0.086258
H	 3.8127560206	-3.426372085	-1.3512974238	 0.112178
H	 2.2368840541	-3.0898303289	-2.2028352286	 0.104528
H	 3.2807019176	-1.5529322559	 0.3148568612	 0.08846
49.2716	125.702	209.1294	232.0249	328.907	348.3703	389.2702	403.4322	492.9534	517.4138	730.9305	774.3375	790.1175	836.4553	845.2582	892.8825	909.7431	934.6776	939.1178	941.2873	968.4034	984.6437	1034.4138	1059.0399	1075.7131	1084.7487	1104.8189	1129.6235	1161.438	1164.3914	1180.5662	1210.7783	1230.2281	1244.2284	1268.1088	1315.2952	1320.254	1354.7911	1390.5305	1410.3347	1471.0684	1481.6876	1486.63	1493.5872	1495.0472	3002.4505	3031.1452	3035.0139	3066.0168	3100.6975	3103.2997	3109.9772	3114.0768	3122.9599	3182.2533	3186.9525	3200.2975
CC1CC2(CC3CC23)O1	C[C@H]1C[C@]2(C[C@H]3C[C@@H]23)O1	
InChI=1S/C8H12O/c1-5-3-8(9-5)4-6-2-7(6)8/h5-7H,2-4H2,1H3	InChI=1S/C8H12O/c1-5-3-8(9-5)4-6-2-7(6)8/h5-7H,2-4H2,1H3/t5-,6+,7+,8+/m0/s1
