15
gdb 62361	2.35774	1.84063	1.18018	2.7831	71.78	-0.2622	-0.018	0.2441	1018.6729	0.109341	-420.528125	-420.519963	-420.519019	-420.560581	31.111	
C	-0.0628674298	 1.5414505849	-0.001178995	-0.480443
C	-0.0532353974	 0.0135721413	-0.0108934325	 0.172622
C	-1.337188109	-0.5688770703	-0.359540807	 0.222621
C	-2.3988782056	-1.0537318296	-0.6477562713	-0.416556
C	 1.2232802158	-0.6601973295	-0.6366154157	-0.109499
O	 2.0038573673	-0.2038029245	 0.5384197041	-0.305646
C	 0.7422808767	-0.6746450592	 1.1589340176	-0.109495
C	 0.9441407427	-1.9133595407	 0.2407830635	 0.473428
O	 1.0383384077	-3.0925510352	 0.2565287386	-0.30401
H	 0.9228674328	 1.9246165671	 0.2659692188	 0.146615
H	-0.341738963	 1.9225215435	-0.9874753612	 0.133699
H	-0.7989470331	 1.9087882639	 0.7192477458	 0.133698
H	-3.3342845727	-1.4888527777	-0.9013278963	 0.203698
H	 1.6591294811	-0.5250623551	-1.6243554901	 0.119634
H	 0.6254879164	-0.5561099888	 2.2341853007	 0.119634
111.4425	144.8256	192.5852	240.8439	249.4288	322.6158	468.8416	479.9226	502.8589	538.3529	602.514	647.8975	659.5412	703.5782	763.8391	793.3121	837.7474	882.4763	935.7004	947.4151	1036.6806	1108.9809	1120.7884	1131.3314	1150.6654	1211.6871	1241.0608	1268.8099	1400.1196	1493.3704	1497.0394	1948.5063	2234.3478	3051.8778	3117.8945	3148.7305	3151.7156	3156.2947	3499.6038
CC1(C#C)C2OC1C2=O	C[C@@]1(C#C)[C@H]2O[C@@H]1C2=O	
InChI=1S/C7H6O2/c1-3-7(2)5-4(8)6(7)9-5/h1,5-6H,2H3	InChI=1S/C7H6O2/c1-3-7(2)5-4(8)6(7)9-5/h1,5-6H,2H3/t5-,6+,7+
