18
gdb 19697	4.51453	1.56117	1.4616	1.6822	70.44	-0.2413	0.076	0.3173	916.4801	0.155272	-347.741298	-347.734347	-347.733403	-347.772519	27.431	
O	 0.5030726024	 0.5798076326	-0.8283908179	-0.420263
C	-0.010653151	 0.3438783321	 0.4775678447	-0.088718
C	-1.3991601858	-0.279324655	 0.4411041029	 0.008425
C	-1.6125158984	-1.7070387529	-0.0595914309	-0.064322
C	-1.4734359668	-2.6548857401	 1.1458409973	-0.057506
C	-1.1777077958	-1.8076827506	 2.3807393403	-0.232893
C	-2.1200410772	-0.7473443149	 1.7440947463	-0.096106
C	-2.7659485882	-1.917612347	 0.8899482557	-0.085161
H	-0.1052259881	 1.1756540934	-1.2775074862	 0.278344
H	 0.708911448	-0.3298376686	 0.9503620511	 0.109976
H	-0.0315001145	 1.2721451066	 1.0739574055	 0.079538
H	-2.0772023882	 0.3925115183	-0.104422607	 0.057631
H	-1.5089462987	-2.0801980142	-1.0699805394	 0.085635
H	-1.2744185838	-3.7081831359	 0.9944799028	 0.083436
H	-1.6357966883	-2.2479193916	 3.271091389	 0.098228
H	-0.1457143858	-1.5212191327	 2.6117672049	 0.089814
H	-2.6520508502	-0.0311771645	 2.3674724012	 0.066365
H	-3.7807169196	-2.2547790648	 0.7384458098	 0.08758
84.5629	187.9275	207.8276	303.8951	385.9442	482.716	563.1953	699.4369	734.167	784.4139	787.1878	817.5833	881.5621	889.3327	960.2443	987.5379	992.4523	997.7399	1025.2439	1033.8246	1037.5327	1060.4172	1090.5149	1117.0817	1136.8862	1156.6269	1168.8262	1205.1777	1213.1008	1246.9559	1274.769	1318.3084	1361.236	1370.4895	1402.2609	1425.6534	1504.1643	1509.5309	2958.8914	3003.9782	3037.3776	3088.6679	3097.0554	3131.2813	3193.5882	3202.3372	3226.1609	3811.0716
OCC1C2C3CC1C23	OC[C@H]1[C@H]2[C@H]3C[C@@H]1[C@@H]23	
InChI=1S/C7H10O/c8-2-5-3-1-4-6(3)7(4)5/h3-8H,1-2H2	InChI=1S/C7H10O/c8-2-5-3-1-4-6(3)7(4)5/h3-8H,1-2H2/t3-,4-,5+,6+,7+/m0/s1
