14
gdb 44174	5.74083	1.04421	0.96138	1.075	68.15	-0.267	-0.015	0.252	1155.8425	0.102118	-432.832752	-432.825431	-432.824487	-432.864952	27.165	
N	-0.2336413439	 1.0726466086	-0.7851847814	-0.535762
C	-0.0961797386	-0.0005165132	-0.1649030003	 0.477978
O	 1.0219264364	-0.551718487	 0.474340021	-0.271394
C	 0.3172731777	-1.7806179206	 0.7639868365	 0.096304
C	-0.381114359	-1.7650031756	 2.1578249576	-0.14149
N	-1.5352294821	-1.0277167167	 1.5599052904	-0.324551
C	-0.9843440644	-1.183703964	 0.1828735016	-0.14871
C	-0.7042620486	-3.1004554018	 2.6495430707	 0.268657
N	-0.9849211969	-4.161443107	 3.0135832901	-0.309149
H	 0.6223889048	 1.6295152637	-0.7892067852	 0.239689
H	 0.8577661449	-2.6666311319	 0.4395700409	 0.128983
H	 0.149341219	-1.1988520906	 2.9296359655	 0.146965
H	-2.4286406881	-1.4834308084	 1.7015820837	 0.251673
H	-1.6259711413	-1.6197870056	-0.579906351	 0.120806
78.0447	134.4349	178.4629	280.7616	352.6377	419.7341	467.6974	553.0316	643.3316	691.5835	767.0962	813.4616	866.6256	870.971	917.2466	943.9001	975.9659	1003.7424	1010.295	1053.428	1061.1223	1172.6988	1189.4252	1226.4639	1238.7219	1268.9858	1291.1045	1346.1263	1397.5039	1844.1325	2351.2016	3069.8799	3143.2388	3153.2737	3483.2732	3564.8646
N=C1OC2C(NC12)C#N	[NH][C]1O[C@H]2[C@@H](N[C@@H]12)C#N	
InChI=1S/C5H5N3O/c6-1-2-4-3(8-2)5(7)9-4/h2-4,7-8H	InChI=1S/C5H5N3O/c6-1-2-4-3(8-2)5(7)9-4/h2-4,7-8H/t2-,3+,4-/m0/s1
