14
gdb 81765	3.37161	1.30756	1.09446	3.9503	63.09	-0.2802	-0.0166	0.2636	1060.1078	0.099878	-473.779544	-473.771644	-473.7707	-473.812038	29.429	
O	-0.082618588	 1.4571027134	-0.1169177269	-0.433527
C	 0.0567501517	 0.0634902893	-0.0142030547	 0.06774
C	-1.2639768089	-0.7187189916	 0.0480982277	-0.09562
O	-2.0118473659	-0.2505730882	-1.0786144204	-0.284443
C	-1.0465500014	-1.2941726298	-1.3038484604	 0.311405
C	-1.5043167119	-2.52695587	-1.8638589367	 0.190424
N	-1.823663005	-3.5362290585	-2.3288184919	-0.327183
C	 0.3592393406	-0.6463029502	-1.3977111229	 0.029079
O	 0.6405645636	 0.1887281013	-2.4640955782	-0.420535
H	-0.9459448729	 1.6156885299	-0.5250524255	 0.305187
H	 0.7812494166	-0.1571924242	 0.7698253719	 0.113977
H	-1.8180595649	-1.1167612962	 0.8895550727	 0.140331
H	 1.1257157126	-1.4229520547	-1.2965309259	 0.109634
H	 0.5384944037	 1.0932696595	-2.1327776187	 0.293531
101.9217	139.3291	190.2154	237.6986	298.082	322.2003	419.2582	477.0806	561.382	584.2175	620.7516	650.4354	705.4958	762.4604	824.5315	864.8304	941.9761	960.4075	1022.2957	1096.3621	1131.1176	1150.9105	1202.4508	1230.1307	1261.9368	1290.3031	1334.1411	1400.8131	1413.0371	1439.4611	2359.3752	3053.1585	3122.1506	3203.4224	3719.9544	3747.9088
OC1C2OC2(C#N)C1O	O[C@H]1[C@H]2O[C@@]2(C#N)[C@H]1O	
InChI=1S/C5H5NO3/c6-1-5-3(8)2(7)4(5)9-5/h2-4,7-8H	InChI=1S/C5H5NO3/c6-1-5-3(8)2(7)4(5)9-5/h2-4,7-8H/t2-,3+,4-,5+/m1/s1
