18
gdb 35527	3.07175	1.48628	1.39013	4.6056	74.38	-0.2667	0.0173	0.284	996.1725	0.15093	-401.97561	-401.968523	-401.967579	-402.007175	28.278	
N	-0.1557556869	-1.16119047	-0.217919994	-0.334319
C	-0.0858165596	-0.0138223605	-0.1001172651	 0.286828
C	 0.0050517111	 1.4487303885	 0.0171532855	-0.016406
O	-0.582464343	 1.8930917842	 1.2501606952	-0.284927
C	 0.4326955241	 2.6765149288	 1.9177444416	 0.112398
C	 1.494748051	 1.7125212756	 2.4754658839	-0.217563
C	 2.2314004388	 1.255784572	 1.1727314941	-0.23213
C	 1.4529575247	 2.0026361299	 0.0640461883	-0.052381
C	 1.154260697	 3.3547688932	 0.7468877984	-0.238328
H	-0.553320621	 1.8805154497	-0.8250041756	 0.122862
H	-0.0724427757	 3.3093928661	 2.6468216466	 0.085549
H	 2.1675360326	 2.220513907	 3.1727561837	 0.102528
H	 1.0183723549	 0.8851548671	 3.0050332306	 0.12311
H	 3.2777120755	 1.5725956492	 1.1703500063	 0.104841
H	 2.2149660962	 0.1729684988	 1.0333833647	 0.133871
H	 1.9351796185	 2.0259486591	-0.9129214833	 0.085888
H	 0.5031565576	 4.0157046942	 0.1696019883	 0.110107
H	 2.0608611243	 3.8898388471	 1.0395887808	 0.108072
96.1091	158.8809	246.9905	349.7847	403.2629	449.5925	512.0969	555.8475	598.1601	776.8589	790.9624	819.5586	834.7891	871.9857	897.4756	939.3473	947.3299	953.2629	966.9397	1010.8444	1033.4174	1055.0727	1065.6966	1145.6337	1167.0627	1189.7073	1225.4642	1256.4112	1276.6077	1297.7853	1314.6736	1335.6212	1340.0229	1348.0941	1364.2036	1480.0282	1489.5436	1510.2145	2357.455	3009.254	3058.497	3067.1407	3071.0973	3108.6232	3123.1561	3123.2702	3126.7164	3129.8558
N#CC1OC2CCC1C2	N#C[C@H]1O[C@H]2CC[C@@H]1C2	
InChI=1S/C7H9NO/c8-4-7-5-1-2-6(3-5)9-7/h5-7H,1-3H2	InChI=1S/C7H9NO/c8-4-7-5-1-2-6(3-5)9-7/h5-7H,1-3H2/t5-,6+,7-/m1/s1
