14
gdb 24874	3.46911	1.30652	0.94908	0.8594	84.14	-0.2184	-0.0649	0.1535	1154.1101	0.102962	-395.739238	-395.731843	-395.730899	-395.771173	28.326	
N	-0.1968079559	 1.3183434758	 0.0091116058	-0.571797
C	 0.0166187557	 0.0558024515	 0.0010450596	 0.354284
N	-1.1080146417	-0.7889249019	 0.0025927011	-0.357165
C	-1.0441602887	-2.1497061445	-0.0053875264	 0.275978
N	 0.0716918008	-2.8235898775	-0.0152243584	-0.329935
C	 1.2190961301	-2.0629798148	-0.0172743953	-0.01173
C	 1.2511067923	-0.7076525698	-0.0099323541	-0.165803
C	-2.2991676662	-2.835393134	-0.0022347863	 0.224774
C	-3.371433373	-3.3786267469	 0.0007088581	-0.348465
H	 0.6859701573	 1.8252860395	 0.0070432032	 0.215276
H	-2.0065931853	-0.3248913886	 0.0100798202	 0.274554
H	 2.1417497338	-2.636109587	-0.0255035304	 0.117415
H	 2.1900248057	-0.166995363	-0.0120725863	 0.108826
H	-4.3095777149	-3.8781053687	 0.0031972692	 0.213787
124.6974	144.79	162.3263	328.9228	400.9006	438.7764	499.7951	548.2132	566.7209	648.5358	664.7048	679.4923	723.8874	745.7222	767.104	795.0666	855.827	941.7653	1002.641	1004.5158	1081.8439	1142.225	1237.8886	1288.5133	1347.4755	1438.4256	1479.7192	1571.17	1617.2504	1720.4391	2241.6963	3172.2489	3207.0068	3496.6458	3508.133	3599.9797
N=C1NC(=NC=C1)C#C	[NH]C1=CCN=C(N1)C#C	
InChI=1S/C6H5N3/c1-2-6-8-4-3-5(7)9-6/h1,3-4H,(H2,7,8,9)	InChI=1S/C6H6N3/c1-2-6-8-4-3-5(7)9-6/h1,3,7H,4H2,(H,8,9)
