20
gdb 59154	2.78776	1.19405	1.05714	2.4994	79.56	-0.2415	-0.0236	0.2179	1240.7335	0.169645	-403.124351	-403.115346	-403.114402	-403.158253	34.021	
C	 0.4427681385	 0.226022256	-1.3741272857	-0.393607
C	 0.048316642	 0.0812442982	 0.103451891	-0.014972
C	 0.0573682247	 1.4367809442	 0.8255467411	-0.38793
C	-1.3336037112	-0.5484856081	 0.1957278725	 0.033214
C	-1.6430147012	-2.012337132	 0.1442572912	-0.199825
N	-1.9450261842	-1.1439180649	 1.3844424725	-0.150878
C	-0.8584586301	-1.8636675186	 2.1431574702	-0.295707
C	-0.6359995891	-2.7940516856	 0.9356171078	 0.407743
O	-0.0762258878	-3.8395914527	 0.7722841741	-0.306878
H	 1.4356075689	 0.6765182159	-1.4670630573	 0.118394
H	 0.4619390281	-0.7451737011	-1.8777366824	 0.126269
H	-0.2655530816	 0.8699704589	-1.9084611923	 0.11645
H	 0.7881757234	-0.5709404046	 0.5789866475	 0.089424
H	-0.2079331707	 1.3312558235	 1.8821388016	 0.123864
H	 1.045879029	 1.9026095018	 0.7664575619	 0.117159
H	-0.6645280886	 2.1253353632	 0.3711667194	 0.119043
H	-2.0820351324	 0.0406483721	-0.3373108084	 0.10458
H	-2.4120306896	-2.4256406207	-0.4994058603	 0.119716
H	-0.0392432224	-1.2404022126	 2.507472614	 0.130854
H	-1.2940437957	-2.4160213126	 2.9804820415	 0.143087
63.3763	92.0938	180.3553	221.2612	237.6913	264.5564	321.7498	400.5059	432.3145	458.4941	525.9389	585.7097	657.7397	744.1388	800.796	842.5495	895.9688	921.4113	932.5087	964.2639	971.6608	1004.6931	1024.4117	1062.8218	1110.0573	1132.7439	1140.5964	1189.9716	1195.8956	1241.2196	1254.2973	1309.4104	1330.556	1343.0631	1400.3734	1418.1396	1443.2298	1470.4329	1485.9422	1491.194	1502.8043	1511.2835	1889.4718	3029.049	3032.1395	3048.9198	3069.2386	3093.766	3095.6145	3103.7509	3108.5174	3111.3714	3125.7607	3179.5124
CC(C)C1C2N1CC2=O	CC(C)[C@H]1[C@@H]2N1CC2=O	
InChI=1S/C7H11NO/c1-4(2)6-7-5(9)3-8(6)7/h4,6-7H,3H2,1-2H3	InChI=1S/C7H11NO/c1-4(2)6-7-5(9)3-8(6)7/h4,6-7H,3H2,1-2H3/t6-,7+,8?/m0/s1
