18
gdb 88115	2.86212	1.43357	1.21092	3.2051	72.51	-0.2415	0.0315	0.273	1069.9066	0.148931	-439.074359	-439.066345	-439.065401	-439.106883	30.755	
O	-0.0092979259	 1.4032751544	-0.0825094001	-0.417572
C	 0.0121198407	 0.0076511046	-0.0222139517	 0.073987
C	-0.4343065367	-0.6833447505	 1.2452950454	-0.39173
C	-1.3138949934	-0.6993997888	 0.0147600841	 0.256033
C	-2.5750394327	 0.1262677177	 0.0074601948	-0.130409
O	-3.0638378415	 0.3126367327	-1.3330965952	-0.224854
C	-2.8542096349	-0.7095287081	-2.1939740958	 0.138645
N	-2.1969495801	-1.7793727521	-2.0411390929	-0.273749
C	-1.4996698809	-1.9818245693	-0.7739984004	-0.223908
H	 0.7094870021	 1.737575013	 0.4638432505	 0.291414
H	 0.8039614053	-0.4636074923	-0.605180988	 0.093594
H	 0.0516556063	-1.6071499025	 1.5440943632	 0.115413
H	-0.7367474236	-0.0419443375	 2.0678496709	 0.113442
H	-3.3633780576	-0.3676423159	 0.5907354171	 0.108785
H	-2.4057883548	 1.1267400629	 0.4057523846	 0.131671
H	-3.3565002614	-0.5000080351	-3.1370555993	 0.122027
H	-0.529940879	-2.4469374307	-0.9891056537	 0.106392
H	-2.0611339021	-2.7163354525	-0.1784992834	 0.11082
97.282	130.7691	199.0131	268.5482	286.8488	344.5599	443.8682	446.8889	468.9958	505.344	574.787	739.3234	817.4325	856.687	890.006	928.5422	958.5598	965.6214	988.3198	997.6945	1039.6687	1042.8899	1069.192	1113.8623	1165.3322	1179.5732	1240.4222	1259.4365	1276.8175	1319.1259	1341.5656	1358.6505	1405.4383	1418.9597	1433.4824	1484.3046	1489.2136	1504.6735	1735.2145	3002.2298	3021.0554	3042.089	3097.57	3119.1093	3132.7249	3155.3162	3207.253	3808.941
OC1CC11COC=NC1	O[C@H]1C[C@]21COC=NC2	
InChI=1S/C6H9NO2/c8-5-1-6(5)2-7-4-9-3-6/h4-5,8H,1-3H2	InChI=1S/C6H9NO2/c8-5-1-6(5)2-7-4-9-3-6/h4-5,8H,1-3H2/t5-,6+/m0/s1
