16
gdb 127260	4.43696	1.05155	0.85919	3.6035	74.47	-0.2481	-0.0416	0.2066	1310.7339	0.123751	-434.094725	-434.0859	-434.084955	-434.129268	30.398	
C	-0.0368341399	 1.4193890683	 0.0862710499	-0.333449
N	-0.0240592595	-0.0250435997	-0.0488658606	 0.067497
C	 0.081279682	-0.7815239972	-1.1553655291	-0.159737
C	 0.0369834542	-2.0823086776	-0.6914332173	 0.210363
N	-0.0925196996	-2.0423194512	 0.6680508595	-0.255979
N	-0.1297562488	-0.8076658566	 1.0589532872	-0.135458
C	 0.1127307477	-3.3251887307	-1.4869932709	 0.309249
C	 0.0401220621	-4.6305388719	-0.7261924588	-0.480958
O	 0.2276438456	-3.2689025118	-2.6956418954	-0.317462
H	 0.8951005608	 1.8478497532	-0.2911998803	 0.155639
H	-0.8811168113	 1.8479230598	-0.4597290757	 0.155643
H	-0.1376022504	 1.6414727615	 1.1483369806	 0.175962
H	 0.1759539029	-0.3774706528	-2.148564312	 0.171558
H	 0.8504572242	-4.6867835847	 0.0076966924	 0.151272
H	-0.8932725565	-4.6859092826	-0.1569128318	 0.151294
H	 0.1060726965	-5.461910566	-1.4284058578	 0.134566
65.1974	76.8369	108.9708	147.6706	156.1783	273.7468	323.1661	387.2444	514.0108	570.1077	613.4993	675.4233	722.3566	736.9273	849.954	942.8649	1003.206	1037.059	1047.4061	1076.9702	1105.846	1152.1178	1221.1716	1272.3739	1308.8609	1378.335	1389.6922	1441.7458	1456.8019	1467.2433	1485.9829	1491.9336	1518.1779	1563.7308	1778.716	3047.7905	3055.8402	3109.99	3124.8503	3159.2814	3167.8213	3293.4404
CN1C=C(N=N1)C(C)=O	Cn1cc(nn1)C(=O)C	
InChI=1S/C5H7N3O/c1-4(9)5-3-8(2)7-6-5/h3H,1-2H3	InChI=1S/C5H7N3O/c1-4(9)5-3-8(2)7-6-5/h3H,1-2H3
