15
gdb 10045	3.2486	1.37112	1.00692	4.3778	67.95	-0.282	0.0106	0.2926	1114.501	0.116164	-362.62747	-362.618531	-362.617587	-362.661441	30.815	
C	 0.1592046095	 1.4196914701	-0.0930623877	-0.242572
O	-0.123934736	 0.0446609238	 0.0916914171	-0.224473
C	 0.6089077352	-0.5587313889	 1.1346722677	-0.069553
C	-0.0246615114	-1.9481997644	 1.363452216	-0.350887
C	-1.4069964569	-1.850249114	 1.8253392962	 0.268089
N	-2.4930998158	-1.777454266	 2.2115164555	-0.304357
C	 2.0379370605	-0.6938588241	 0.8221996519	 0.329112
C	 3.2041045602	-0.8118643116	 0.5575772686	-0.442305
H	 1.2073994709	 1.5816864742	-0.3765788961	 0.123576
H	-0.4905613603	 1.7669409157	-0.8982591796	 0.139726
H	-0.0566966949	 1.9975775087	 0.8175555158	 0.115221
H	 0.5043080848	 0.0321750453	 2.0596491793	 0.114396
H	 0.0078942534	-2.5025602462	 0.420747925	 0.171737
H	 0.5648643453	-2.5032699901	 2.0987836021	 0.163466
H	 4.2368117354	-0.9092508125	 0.3269222581	 0.208825
72.5845	90.8961	123.9799	166.0094	211.2171	256.5468	276.6812	391.4027	403.5561	493.9992	567.46	586.3975	648.3	687.1057	830.607	940.2542	977.2264	1030.01	1060.5152	1146.8807	1184.0633	1201.0906	1256.8634	1294.4927	1360.442	1369.7249	1452.139	1479.4642	1486.0066	1508.4595	2233.8567	2368.7523	2970.1536	2993.8143	3054.4789	3067.2642	3114.164	3133.804	3499.2875
COC(CC#N)C#C	CO[C@@H](CC#N)C#C	
InChI=1S/C6H7NO/c1-3-6(8-2)4-5-7/h1,6H,4H2,2H3	InChI=1S/C6H7NO/c1-3-6(8-2)4-5-7/h1,6H,4H2,2H3/t6-/m1/s1
