18
gdb 78724	3.65376	1.25542	1.20041	0.603	84.95	-0.2053	0.0396	0.245	1105.9331	0.146965	-364.708086	-364.700175	-364.699231	-364.740133	31.603	
C	 0.0376418084	 1.5101740058	-0.0829778886	-0.33252
N	 0.0367320207	 0.0651732421	 0.0977157313	-0.070346
C	-0.8988671981	-0.5447631718	 1.01980492	-0.069332
C	 0.0477132376	-1.6183137163	 1.4097335812	-0.151268
C	 1.1222085838	-0.5939102728	 0.8817100809	-0.051624
C	 1.133702989	 0.05185369	 2.299345633	-0.313021
C	-0.2632217848	-0.5549417949	 2.4703639909	 0.218592
C	-1.0464801525	-0.6732971655	 3.6453642525	 0.128653
C	-1.7177464062	-0.7628350972	 4.6420464138	-0.402571
H	 0.913013119	 1.7952534355	-0.6756994188	 0.121346
H	-0.855612879	 1.7925937072	-0.6498285363	 0.124525
H	 0.0424871392	 2.0937817034	 0.850195134	 0.107822
H	-1.9727217998	-0.5630850073	 0.8813707353	 0.106372
H	-0.0230786439	-2.6954642438	 1.4284830096	 0.109376
H	 2.0462711851	-0.8165469751	 0.351367396	 0.082739
H	 1.8521256816	-0.4584461071	 2.9452151462	 0.113499
H	 1.2647778365	 1.1345191166	 2.3859254581	 0.099692
H	-2.3051965065	-0.8440867689	 5.522327331	 0.178066
120.0964	150.1609	187.9408	250.3321	321.4933	459.7685	487.2338	509.857	532.3294	552.3312	595.4253	649.0827	670.9281	716.479	785.9156	843.3699	876.0971	901.0006	945.9103	956.7803	992.7648	1039.8034	1045.4368	1107.0183	1128.1375	1137.1454	1157.6244	1181.977	1222.1674	1222.4824	1241.5227	1283.5619	1297.0788	1375.8633	1448.221	1483.2581	1495.8425	1518.1185	2224.9627	2986.37	3056.2405	3067.4876	3102.1517	3113.802	3133.4985	3197.8593	3232.8463	3504.2127
CN1C2C3C1CC23C#C	CN1[C@H]2[C@H]3[C@@H]1C[C@@]23C#C	
InChI=1S/C8H9N/c1-3-8-4-5-6(8)7(8)9(5)2/h1,5-7H,4H2,2H3	InChI=1S/C8H9N/c1-3-8-4-5-6(8)7(8)9(5)2/h1,5-7H,4H2,2H3/t5-,6+,7-,8+/m0/s1
