17
gdb 37884	3.05286	2.21206	2.16108	1.8919	68.27	-0.2589	0.0755	0.3344	763.5553	0.140739	-421.803146	-421.79799	-421.797046	-421.832357	23.447	
C	-0.0391394399	 1.5524502581	 0.0720811184	-0.233558
C	 1.5003810546	 1.524681205	-0.0272996532	-0.070272
C	 2.1002164576	 0.787362825	 1.2292142267	 0.041858
O	 1.0576178188	 0.3946144542	 2.1149993616	-0.249254
C	 0.4318349817	-0.6265426394	 1.3429319311	 0.164634
O	 1.4971032961	-1.5057931064	 1.0254200997	-0.240042
C	 2.3116484254	-0.539098851	 0.3800896806	 0.053874
C	 1.4348277076	 0.1171030441	-0.704322625	-0.061656
C	 0.0174052902	 0.0018780512	-0.0261884756	-0.087904
H	-0.4961269034	 1.9869594869	 0.9638316571	 0.108234
H	-0.4807764746	 1.9940704871	-0.8250156275	 0.099149
H	 2.0619624581	 2.3754864524	-0.4134780472	 0.064669
H	 2.9103937985	 1.2497711663	 1.7902219065	 0.084844
H	-0.3332784687	-1.1268272166	 1.9331797748	 0.093872
H	 3.3064270446	-0.9249290523	 0.1721564211	 0.08548
H	 1.5403265668	-0.0912628957	-1.7673378657	 0.069657
H	-0.7806684935	-0.547357339	-0.5249812233	 0.076416
379.5936	420.5133	536.7424	599.1232	641.1442	654.6495	741.5493	789.2285	796.4276	808.646	838.5726	879.0477	891.9167	902.7556	949.7543	955.8875	969.7328	982.9809	1020.2704	1024.365	1041.4546	1100.4043	1109.3483	1129.8036	1150.4622	1190.7606	1205.8925	1239.468	1243.8581	1254.6619	1278.4871	1286.3766	1303.4439	1309.6788	1334.2956	1357.1265	1483.3556	3061.9811	3106.2537	3113.1002	3118.6131	3129.9457	3132.2139	3153.2027	3160.0674
C1C2C3OC4OC3C2C14	C1[C@H]2[C@H]3O[C@@H]4O[C@H]3[C@H]2[C@H]14	
InChI=1S/C7H8O2/c1-2-4-3(1)7-8-5(2)6(4)9-7/h2-7H,1H2	InChI=1S/C7H8O2/c1-2-4-3(1)7-8-5(2)6(4)9-7/h2-7H,1H2/t2-,3+,4-,5-,6+,7-/m1/s1
