18
gdb 34803	4.03399	1.29502	1.22482	4.3766	79.37	-0.2725	0.0333	0.3057	1053.7102	0.15087	-364.786684	-364.779915	-364.778971	-364.817649	28.104	
N	 0.0077501674	-1.2017481632	-0.0172605142	-0.336662
C	-0.0009383911	-0.0452373888	-0.0033817312	 0.255916
C	-0.0396220678	 1.4072964366	-0.0148081542	-0.147038
C	-0.1187323145	 2.0705172198	 1.4029107629	-0.042395
C	 1.4143125001	 1.7559947418	 1.5112498786	-0.234211
C	 1.3666958008	 2.098889165	-0.0187972093	-0.042398
C	 1.0285227502	 3.6010841572	 0.0451550181	-0.039577
C	-0.3543257923	 4.1033742426	-0.2898124512	-0.315178
C	-0.0700470896	 3.5801012532	 1.0966000666	-0.039574
H	-0.7656360417	 1.7151597458	-0.7672174257	 0.111675
H	-0.84212873	 1.7174320429	 2.1362942609	 0.084689
H	 2.0109591968	 2.4130872012	 2.1477510816	 0.098643
H	 1.6353227914	 0.7074064722	 1.7212395027	 0.129137
H	 2.1378263799	 1.7743498902	-0.7158301428	 0.084688
H	 1.8564781128	 4.2993122295	 0.0822371483	 0.098237
H	-0.4413289535	 5.1834118191	-0.3591614196	 0.115474
H	-1.0085899833	 3.5887642423	-0.9836701252	 0.120338
H	-0.0830383759	 4.2622676627	 1.9385548138	 0.098237
154.7837	160.3937	334.1731	357.6406	450.7907	518.8447	536.1523	544.3023	642.6112	775.0129	803.5111	821.0451	844.9899	884.2906	887.0933	900.1496	928.5289	979.3833	1002.5462	1034.5021	1042.0776	1076.7314	1076.9168	1084.7635	1096.9764	1099.4069	1114.5138	1193.683	1200.7716	1231.2755	1242.4237	1260.2397	1261.6612	1314.0128	1354.8172	1375.0892	1504.4791	1505.9817	2351.8275	3069.6507	3107.925	3129.6445	3130.264	3134.4568	3136.9083	3174.7152	3182.4771	3209.704
N#CC1C2CC1C1CC21	N#C[C@H]1[C@H]2C[C@@H]1[C@H]1C[C@@H]21	
InChI=1S/C8H9N/c9-3-8-6-2-7(8)5-1-4(5)6/h4-8H,1-2H2	InChI=1S/C8H9N/c9-3-8-6-2-7(8)5-1-4(5)6/h4-8H,1-2H2/t4-,5+,6+,7-,8+
