17
gdb 79925	2.52651	1.63617	1.31881	2.234	68.91	-0.2187	0.0466	0.2653	1024.1799	0.136003	-455.147468	-455.139038	-455.138094	-455.1799	32.523	
C	-0.1160505129	 1.5265441465	-0.0086927203	-0.480453
C	-0.007005706	 0.0345596368	 0.0586978574	 0.359698
O	-1.2454699024	-0.6400571636	-0.1713660895	-0.262724
C	-1.2085528083	-1.7595553366	 0.5942177326	 0.453754
N	-2.2684375919	-2.6015538966	 0.4181390804	-0.578443
N	-0.1937319388	-1.9506955763	 1.3596016494	-0.36841
C	 0.6948486804	-0.8430327093	 1.0969762898	-0.150294
C	 1.2208125255	-0.7691343884	-0.32521047	 0.042091
O	 1.1295934089	-1.8668269176	-1.1717144981	-0.429431
H	 0.8599855343	 1.979109019	 0.1872897034	 0.127461
H	-0.4451824362	 1.8526176329	-1.0010588643	 0.134785
H	-0.8251584706	 1.9073789451	 0.7337456174	 0.126386
H	-3.1168135236	-2.1677702634	 0.0886325954	 0.266357
H	-2.389135039	-3.2750203467	 1.1583563066	 0.270675
H	 1.2825639181	-0.4740303491	 1.9307266376	 0.092751
H	 2.1229260934	-0.178483968	-0.4731853179	 0.097886
H	 0.9630661691	-2.6397240145	-0.6161197099	 0.297912
142.9617	183.3913	208.8	214.488	266.0444	311.9121	318.688	373.0114	448.9909	528.4466	568.6476	624.3974	643.085	702.8157	748.536	781.4404	826.2726	893.1405	939.6518	998.6843	1014.0822	1051.0278	1084.3482	1122.4292	1160.4832	1197.6614	1227.8071	1247.8062	1318.6085	1369.4544	1413.2623	1418.3039	1453.2133	1477.9797	1499.2711	1613.0275	1717.6233	3034.0287	3098.3821	3116.3219	3125.5248	3163.4959	3590.3869	3705.1835	3755.3622
CC12OC(N)=NC1C2O	C[C@]12OC(=N[C@H]1[C@H]2O)N	
InChI=1S/C5H8N2O2/c1-5-2(3(5)8)7-4(6)9-5/h2-3,8H,1H3,(H2,6,7)	InChI=1S/C5H8N2O2/c1-5-2(3(5)8)7-4(6)9-5/h2-3,8H,1H3,(H2,6,7)/t2-,3+,5-/m0/s1
