19
gdb 37290	3.10127	1.75307	1.63983	1.7171	76.99	-0.2264	0.0629	0.2893	914.5177	0.161808	-385.791391	-385.784906	-385.783962	-385.821888	27.716	
C	-0.0556618887	 1.4042975287	 0.1839811875	-0.297834
C	 1.31371911	 0.7741003291	 0.1037034896	-0.088011
C	 0.0253644101	-0.0889448287	 0.1406560313	-0.059001
C	 0.3834539847	-0.6667120614	-1.2482877416	-0.041642
C	 0.0299860363	-0.0287247845	-2.6434273303	 0.09034
O	-0.6535445136	 1.2449599096	-2.683425757	-0.292084
C	 0.5964934267	 1.9640783846	-2.8648365094	-0.106054
C	 1.4161334984	 0.6805757462	-2.6851117289	-0.094519
C	 1.7123975049	 0.1268480048	-1.2465420013	-0.031826
H	-0.2670975339	 1.7925288764	 1.1770877335	 0.104557
H	-0.5212078427	 1.961214682	-0.61225716	 0.146756
H	 2.0277800956	 0.9417517232	 0.9019324559	 0.083295
H	-0.3515312654	-0.7007084893	 0.9517391436	 0.084861
H	 0.4165042755	-1.757082018	-1.2820501714	 0.066701
H	-0.3477320772	-0.7113287212	-3.4111038722	 0.075484
H	 0.6526481019	 2.3903128934	-3.874129154	 0.103306
H	 0.7359432756	 2.7634140751	-2.1295754815	 0.108777
H	 2.1789146341	 0.4623027657	-3.4323057988	 0.074136
H	 2.6500979278	-0.4250966858	-1.168955325	 0.072759
181.4909	245.3169	262.0305	355.8067	483.4781	602.6629	648.0814	672.7599	714.6289	750.8729	796.551	828.5599	845.7793	900.6984	904.9729	928.3802	956.3654	969.4138	996.7515	1004.0948	1026.7827	1046.3422	1065.3388	1090.0368	1094.6787	1101.6895	1129.6462	1168.3607	1184.437	1191.7462	1210.3367	1229.177	1264.1878	1286.0819	1294.4673	1318.9163	1330.526	1358.9688	1374.6586	1492.5748	1522.9653	3020.6923	3052.5895	3072.319	3088.0958	3096.5102	3113.2441	3135.1464	3167.2346	3179.6523	3269.5123
C1C2C1C1C3OCC3C21	C1[C@H]2[C@@H]1[C@H]1[C@H]3OC[C@H]3[C@@H]21	
InChI=1S/C8H10O/c1-3-4(1)7-6(3)5-2-9-8(5)7/h3-8H,1-2H2	InChI=1S/C8H10O/c1-3-4(1)7-6(3)5-2-9-8(5)7/h3-8H,1-2H2/t3-,4+,5-,6+,7+,8-/m0/s1
