20
gdb 52149	4.79185	0.78428	0.77501	3.74	81.88	-0.2491	0.0337	0.2828	1528.1403	0.172613	-403.119283	-403.110898	-403.109954	-403.153948	31.358	
O	-0.0455941331	 0.6325377379	-1.2387121523	-0.322831
C	 0.00026744	 1.3706045868	-0.2772130961	 0.155051
N	 1.0752570562	 1.5390475674	 0.5379952588	-0.270603
C	 2.3503004852	 0.8629383137	 0.3331258018	-0.227836
C	 3.4733649893	 1.8552317392	 0.0594514286	 0.061222
C	 4.1315624793	 2.7068797562	 1.1999651075	-0.057334
C	 4.8856745734	 1.4276371384	 1.6673748958	-0.224076
C	 4.975161855	 1.425228444	 0.1115878616	-0.056926
C	 5.313662703	 2.9415406601	 0.2157650197	-0.214998
H	-0.8564349784	 1.9968279356	 0.0436234013	 0.071296
H	 0.9947742138	 2.1982167586	 1.2959377686	 0.246304
H	 2.5651415322	 0.2203292706	 1.1929986085	 0.108577
H	 2.2049237777	 0.2131276235	-0.533661407	 0.150174
H	 3.2134491519	 2.4444724696	-0.8274502816	 0.074329
H	 3.6490566199	 3.4569021491	 1.8306229364	 0.063285
H	 5.8250873304	 1.5945923489	 2.2011654021	 0.093366
H	 4.3085846238	 0.6369563031	 2.1488628125	 0.09266
H	 5.4655291173	 0.6835698992	-0.520774647	 0.074319
H	 5.1069806438	 3.5537613936	-0.666249639	 0.092753
H	 6.2771978891	 3.1936670844	 0.6659849497	 0.091269
30.3082	52.9912	139.7469	215.2704	263.0839	348.105	411.797	528.9016	565.2197	575.8084	729.8541	773.5223	799.1214	844.6907	895.213	900.4032	903.1281	968.4243	1008.3377	1020.3313	1030.855	1031.9414	1036.006	1096.9004	1109.498	1116.0543	1146.7225	1158.8875	1191.6938	1209.8429	1214.9695	1242.5803	1246.7613	1266.4766	1282.3012	1360.3217	1430.2934	1433.0612	1487.3252	1507.5173	1531.4043	1544.083	1806.0408	2930.5411	3037.4082	3050.2959	3052.3751	3064.1187	3084.6818	3102.9251	3110.9702	3118.5182	3126.61	3633.908
O=CNCC1C2CC1C2	O=CNC[C@H]1[C@H]2C[C@@H]1C2	
InChI=1S/C7H11NO/c9-4-8-3-7-5-1-6(7)2-5/h4-7H,1-3H2,(H,8,9)	InChI=1S/C7H11NO/c9-4-8-3-7-5-1-6(7)2-5/h4-7H,1-3H2,(H,8,9)/t5-,6+,7-
