17
gdb 36075	3.68344	1.20377	1.10697	1.9264	76.86	-0.2304	0.0506	0.281	1134.2555	0.135116	-384.582195	-384.574464	-384.573519	-384.614891	29.983	
C	-0.165136892	-1.2153951745	-0.2666816108	-0.443122
C	-0.1093413344	-0.0287593596	-0.0874201736	 0.305981
C	-0.0189669104	 1.4122925561	 0.139903873	-0.517049
C	 1.3892989357	 1.9332660748	 0.0975173731	 0.319448
C	 1.9792639743	 3.3392609489	-0.0143717195	-0.185906
C	 2.8577540222	 3.1243668603	 1.2175536165	-0.231318
C	 2.7269866521	 1.615669327	 0.8840717096	 0.023508
O	 3.4544027919	 1.475660887	-0.3682776081	-0.291202
C	 2.3871238226	 2.1992710536	-0.9740100985	 0.047757
H	-0.2175831648	-2.2630549238	-0.4309400258	 0.198326
H	-0.6122240251	 1.94354213	-0.6166206087	 0.137524
H	-0.4811641932	 1.6588045577	 1.1058852493	 0.135811
H	 1.4917253741	 4.2429264722	-0.3587420584	 0.090798
H	 3.8740439817	 3.5299414666	 1.2278012486	 0.103045
H	 2.3283679393	 3.3849488824	 2.1377446179	 0.10284
H	 2.9262922568	 0.8177485061	 1.595844878	 0.093431
H	 2.3140241291	 2.2361612153	-2.0530400227	 0.110127
60.8846	92.7076	226.9407	271.1752	339.1998	407.1859	490.9649	545.2503	623.6743	633.9764	657.8564	745.6976	779.4141	817.0424	861.9325	901.3029	916.8834	947.126	959.6906	972.0172	985.6084	1028.7723	1038.7933	1078.1677	1103.2619	1131.9722	1158.7366	1217.9211	1222.2941	1251.2193	1276.884	1315.6863	1335.2526	1452.1442	1462.0878	1489.1472	2241.5912	3007.296	3036.8303	3050.9474	3112.8163	3150.3303	3193.5987	3210.0475	3506.6201
C#CCC12C3CC1OC23	C#CC[C@@]12[C@H]3C[C@@H]1O[C@@H]23	
InChI=1S/C8H8O/c1-2-3-8-5-4-6(8)9-7(5)8/h1,5-7H,3-4H2	InChI=1S/C8H8O/c1-2-3-8-5-4-6(8)9-7(5)8/h1,5-7H,3-4H2/t5-,6-,7+,8+/m0/s1
