21
gdb 108379	2.28039	1.36563	1.08216	1.0239	89.18	-0.2378	0.0518	0.2896	1241.3657	0.181437	-349.902247	-349.892975	-349.892031	-349.936129	35.626	
C	 0.1597938628	 1.5204133969	 0.1648170137	-0.373459
C	-0.0952775551	 0.0226810337	-0.0536452428	-0.297645
C	 0.5968934364	-0.5174032373	-1.2755170588	 0.362658
C	 0.1959058737	-0.2096522271	-2.7292398922	-0.292002
C	 0.5580273326	-1.6794190686	-3.1238790457	-0.232286
C	 0.9614668042	-1.94473872	-1.6712160072	-0.134175
C	 2.0499720145	-0.9738480779	-1.2357067683	-0.261825
C	 3.0717259924	-0.4819949802	-2.1147418825	 0.341533
C	 3.9242831794	-0.0646644173	-2.8551925296	-0.465334
H	 1.2276239192	 1.7215142097	 0.2975302183	 0.12382
H	-0.1832872786	 2.1076180412	-0.693438473	 0.120806
H	-0.3678018343	 1.8852677692	 1.0513397782	 0.111064
H	 0.2333891264	-0.5413367962	 0.8286522624	 0.096247
H	-1.1754842664	-0.1549650817	-0.1453544051	 0.096599
H	-0.8732657602	-0.005118391	-2.8274459055	 0.098839
H	 0.7584577178	 0.5852910854	-3.2257800923	 0.10906
H	-0.3175550354	-2.2551708547	-3.4305277598	 0.101544
H	 1.3478309914	-1.8063333508	-3.8692089715	 0.110891
H	 0.8141601776	-2.8689118528	-1.1229969122	 0.085496
H	 2.3911823674	-1.1635592586	-0.2201502337	 0.10655
H	 4.6813527643	 0.302091418	-3.5027615322	 0.19162
78.7332	109.6195	147.1256	186.8414	212.1668	276.8414	338.7447	363.2915	404.2657	522.8815	554.488	578.8698	648.6449	654.4407	755.1374	782.8831	795.6606	813.4775	874.3621	929.1431	951.9124	982.9613	989.7152	1007.3441	1024.6392	1067.7827	1094.9523	1134.1297	1146.1026	1213.8128	1224.89	1239.3042	1243.3347	1280.2503	1321.2881	1338.2805	1356.4935	1409.8186	1442.722	1474.4372	1481.7555	1498.3033	1501.0566	1507.3213	2228.1313	3011.0519	3035.5713	3045.538	3056.5191	3063.9317	3102.8007	3104.6113	3108.6063	3120.9881	3130.9396	3169.0277	3503.5983
CCC12CCC1C2C#C	CC[C@]12CC[C@H]1[C@H]2C#C	
InChI=1S/C9H12/c1-3-7-8-5-6-9(7,8)4-2/h1,7-8H,4-6H2,2H3	InChI=1S/C9H12/c1-3-7-8-5-6-9(7,8)4-2/h1,7-8H,4-6H2,2H3/t7-,8+,9-/m1/s1
