21
gdb 79258	2.30115	2.05893	1.53314	1.3412	79.85	-0.2257	0.0836	0.3093	981.7185	0.183996	-387.102345	-387.094595	-387.093651	-387.133899	32.089	
C	-0.1460271521	 1.5795126047	-0.0547904976	-0.421787
C	 0.0328043603	 0.0636178899	-0.0094366067	 0.004292
C	 0.9411124653	-0.532818413	-1.0814073924	-0.120296
C	 2.3563167316	-0.6035750178	-0.4908278559	-0.116859
C	 2.2777158976	-0.0610920331	 0.9281093365	-0.259832
C	 0.8248627915	-0.5272318061	 1.1984990428	 0.357216
C	 0.2538173622	-0.3746521896	 2.5851096245	-0.488273
O	 0.8961827897	-1.9274823287	 0.8359329872	-0.293237
C	 1.4464872551	-1.8097942952	-0.4619480693	 0.078556
H	 0.8110219098	 2.1075559519	-0.0953087925	 0.119406
H	-0.7135319619	 1.870036637	-0.944999621	 0.116582
H	-0.6996976445	 1.9430153032	 0.8177887153	 0.114257
H	-0.9512172656	-0.4209348924	-0.0329539828	 0.073898
H	 0.7578627751	-0.423631929	-2.1423985571	 0.082147
H	 3.2459531677	-0.5559335669	-1.1041333545	 0.084638
H	 2.9806590889	-0.5529338453	 1.6073961231	 0.100923
H	 2.4046677679	 1.0211808869	 1.0044234988	 0.099207
H	 0.1991939743	 0.6810162752	 2.866671422	 0.119334
H	-0.753788659	-0.7981164573	 2.6355066132	 0.12534
H	 0.8788512729	-0.8930067324	 3.3180085441	 0.12604
H	 1.6125283431	-2.747496032	-0.9729773078	 0.098448
172.5667	193.1135	225.683	244.0053	309.4251	330.2198	466.2387	515.6992	578.9583	614.6544	671.1397	718.3901	756.8871	802.2825	810.643	852.0681	876.1608	913.2829	966.5952	976.9067	1001.6863	1012.9331	1021.0839	1051.2787	1070.5707	1082.5436	1099.183	1116.7671	1133.9944	1180.3217	1193.4425	1213.454	1262.2581	1290.3827	1302.9998	1347.3002	1370.6761	1380.9296	1409.9885	1419.8022	1480.691	1487.7554	1493.7414	1497.5201	1507.2727	3030.9763	3034.277	3042.7255	3060.5504	3094.3094	3105.9842	3114.1	3115.4572	3117.7811	3196.9546	3205.5558	3222.7631
CC1C2C3CC1(C)OC23	C[C@H]1[C@H]2[C@H]3C[C@]1(C)O[C@@H]23	
InChI=1S/C8H12O/c1-4-6-5-3-8(4,2)9-7(5)6/h4-7H,3H2,1-2H3	InChI=1S/C8H12O/c1-4-6-5-3-8(4,2)9-7(5)6/h4-7H,3H2,1-2H3/t4-,5+,6-,7+,8-/m0/s1
