21
gdb 108662	2.01913	1.49631	0.91539	2.6668	82.23	-0.2257	0.0205	0.2462	1306.0734	0.181715	-424.238466	-424.228541	-424.227597	-424.273393	36.618	
C	 0.1931516207	 1.5442483851	-0.1397853989	-0.509569
C	 0.0378297654	 0.0546063979	-0.0834303188	 0.203213
C	-1.0781675407	-0.6850337086	-0.1609958338	 0.170067
C	-2.5182738841	-0.2683066391	-0.3059289395	-0.16183
O	-2.8348374279	 1.034355352	 0.1711203931	-0.406118
C	-0.7746846857	-2.1637513843	-0.0447422395	 0.038275
O	-1.5096396425	-2.8772941589	-1.039577739	-0.438732
C	 0.7573045184	-2.2401780385	-0.2192442803	-0.248155
C	 1.2633591017	-0.8197134561	 0.1070232492	-0.28884
H	 0.8614549802	 1.8213899783	-0.9656486312	 0.122315
H	-0.7621109059	 2.0498147	-0.2757642166	 0.149759
H	 0.668546972	 1.9246476932	 0.7746190319	 0.115771
H	-2.8062343305	-0.2717630834	-1.3634019469	 0.134307
H	-3.1528343566	-1.0283573037	 0.1773717888	 0.096165
H	-2.5717346335	 1.0705290609	 1.0965675421	 0.279341
H	-1.0815684296	-2.5284757653	 0.9523536182	 0.060444
H	-1.4388718264	-3.8169855294	-0.8457151256	 0.281464
H	 1.2248721621	-3.020101199	 0.3887047173	 0.087477
H	 0.9459248255	-2.4734437843	-1.2717944968	 0.112626
H	 2.0992858875	-0.5052871304	-0.529902514	 0.100679
H	 1.6286915501	-0.7460918462	 1.1416683402	 0.10134
57.8728	93.7299	159.906	172.6789	211.4042	247.6481	260.905	302.6563	339.6159	383.6002	444.6106	459.6969	537.0103	597.1893	687.4464	716.0991	862.5945	917.2641	928.5526	960.3373	997.6089	1012.4437	1047.272	1058.6864	1098.478	1112.769	1155.284	1184.2112	1198.3649	1224.485	1240.5454	1261.8095	1295.4804	1340.3564	1346.6106	1385.2001	1406.2254	1418.9	1424.4107	1483.1723	1485.5077	1491.0058	1499.7345	1502.9617	1735.2998	2925.6628	2978.6479	3001.743	3013.39	3040.405	3053.0601	3054.5004	3058.2769	3100.3262	3156.3089	3812.7726	3820.7311
CC1=C(CO)C(O)CC1	CC1=C(CO)[C@@H](O)CC1	
InChI=1S/C7H12O2/c1-5-2-3-7(9)6(5)4-8/h7-9H,2-4H2,1H3	InChI=1S/C7H12O2/c1-5-2-3-7(9)6(5)4-8/h7-9H,2-4H2,1H3/t7-/m0/s1
