19
gdb 102370	1.8283	1.36725	1.23407	1.6119	73.18	-0.2414	-0.0529	0.1886	1195.8426	0.154082	-460.164392	-460.153744	-460.1528	-460.200176	36.802	
C	 0.7740758773	-0.6095891661	 1.4482820078	-0.40551
C	 0.0483631855	-0.0904254326	 0.2035123145	-0.201116
C	 0.7586412822	-0.4594874504	-1.1299908232	 0.171208
O	 2.0645652534	 0.0507163213	-1.0587776205	-0.280503
C	 2.8393469747	 0.0137668051	-2.2526074632	-0.259564
C	 0.7674830362	-1.9872500645	-1.2727238785	 0.109257
O	-0.2264977507	-2.646845072	-1.4362300648	-0.252952
C	-0.110493737	 0.1432683204	-2.2425247961	 0.12088
O	 0.1512518463	 1.1622937585	-2.8235307275	-0.255491
H	 0.7789451441	-1.7037553426	 1.4881779532	 0.125507
H	 1.8080478505	-0.2592681036	 1.467500795	 0.144197
H	 0.2701507806	-0.2491280192	 2.3495134775	 0.123261
H	-0.9719544613	-0.4846398514	 0.1618293996	 0.124794
H	-0.0142938479	 1.0024063893	 0.2329832367	 0.125798
H	 2.7761319577	-0.9625976514	-2.7544284285	 0.10597
H	 2.530812731	 0.7927633929	-2.9541321015	 0.15049
H	 3.8757400145	 0.1782472943	-1.9498997026	 0.133128
H	 1.7772259026	-2.4441357945	-1.1840678996	 0.104281
H	-1.0319360596	-0.4410398833	-2.4453548082	 0.116364
86.8316	95.3763	106.6014	135.8762	167.5815	206.4861	219.4994	232.1245	268.0278	318.6447	330.5101	371.3549	476.369	528.8726	683.9058	776.7346	781.5143	869.6717	958.7633	978.8156	1006.2803	1049.0946	1104.0265	1135.3134	1166.1494	1175.3053	1198.7379	1243.2889	1316.9297	1357.602	1392.6136	1398.1497	1409.3226	1471.4656	1479.81	1483.3427	1497.7029	1505.7235	1517.103	1808.8044	1838.8823	2896.1119	2924.2771	3001.9262	3044.3408	3048.0267	3093.4769	3094.1189	3111.2775	3133.5589	3137.7043
CCC(OC)(C=O)C=O	CCC(OC)(C=O)C=O	
InChI=1S/C6H10O3/c1-3-6(4-7,5-8)9-2/h4-5H,3H2,1-2H3	InChI=1S/C6H10O3/c1-3-6(4-7,5-8)9-2/h4-5H,3H2,1-2H3
