16
gdb 133001	2.49787	1.542	0.95915	5.748	80.74	-0.189	-0.0094	0.1796	1167.3753	0.124804	-442.056002	-442.047904	-442.04696	-442.088641	30.438	
C	-0.1683471021	 1.3993278158	 0.0143715182	-0.318566
N	-0.1112623047	-0.0487338104	-0.0231798894	-0.330121
C	 0.5905906339	-0.5983163726	-0.9525708031	 0.204096
C	 1.3650004389	 0.0477767764	-2.0126859753	-0.229604
C	 2.0630844968	-0.6593308164	-2.9324963001	 0.019776
N	 2.0824368765	-2.0248633284	-2.9205917213	-0.334722
C	 1.379936641	-2.7196815043	-1.9562905554	-0.107526
C	 0.6707413515	-2.0560230904	-1.0203911965	 0.189704
F	 0.005955771	-2.7558187537	-0.106707284	-0.057544
H	 0.8219620946	 1.8636578868	 0.1520644373	 0.102243
H	-0.6027598189	 1.834287781	-0.9007077496	 0.102335
H	-0.7953054904	 1.7123981344	 0.8540185076	 0.114792
H	 1.3845838572	 1.1272551239	-2.069336879	 0.109071
H	 2.6392771101	-0.1902309888	-3.7210447836	 0.129436
H	 2.6063987143	-2.5311423487	-3.6120571697	 0.268268
H	 1.4239934204	-3.7994728445	-1.9857687961	 0.138361
107.1904	150.2442	207.1674	212.9982	317.63	330.7724	349.8464	472.7839	488.7364	549.4822	550.5388	591.4668	728.4476	758.0735	817.0185	848.2497	877.9562	941.1759	1038.179	1053.6017	1098.4703	1136.9169	1169.8786	1220.2465	1247.5503	1301.0495	1413.782	1423.07	1435.5844	1490.7099	1504.85	1539.3687	1635.0956	1671.7401	1712.5897	2955.6121	2998.2538	3087.7742	3202.7118	3230.1825	3233.2032	3682.467
CN=C1C=CNC=C1F	CN=c1cc[nH]cc1F	
InChI=1S/C6H7FN2/c1-8-6-2-3-9-4-5(6)7/h2-4H,1H3,(H,8,9)	InChI=1S/C6H7FN2/c1-8-6-2-3-9-4-5(6)7/h2-4H,1H3,(H,8,9)
