15
gdb 129550	3.33141	1.116	1.03327	0.925	72.01	-0.2468	-0.0111	0.2357	1179.6748	0.114424	-412.942413	-412.934116	-412.933172	-412.976458	30.046	
N	-0.2355266051	 1.3799481488	 0.1013755744	-0.503176
C	 0.0312329823	-0.0633800634	-0.030620051	-0.27445
C	 0.7969531534	-0.4247040708	-1.2364117025	 0.334684
C	 1.4003312881	-0.6817944703	-2.2442601752	-0.48139
C	 0.714950149	-0.5612263818	 1.2173838697	 0.373737
N	 1.8371291592	 0.0020534148	 1.671207668	-0.274465
N	 2.1065697056	-0.6971845944	 2.7633487216	-0.06461
N	 1.265458033	-1.6733974704	 3.0694491142	-0.195762
C	 0.3627298041	-1.6039653826	 2.0896901264	-0.139875
H	 0.6513012195	 1.8514820384	 0.2605520855	 0.247076
H	-0.5883046332	 1.728504718	-0.7860660723	 0.23434
H	-0.9409386872	-0.5693306133	-0.08818371	 0.120178
H	 1.9425992693	-0.9142226769	-3.1273244222	 0.199357
H	 2.9109008483	-0.4943030586	 3.3349384774	 0.295544
H	-0.4745064762	-2.2824342977	 2.054654386	 0.12881
26.363	104.7515	180.0061	206.8673	265.4977	327.9928	409.4497	455.0664	537.5206	571.5711	635.4006	648.0762	722.8985	741.8777	779.859	875.1281	885.2619	991.6538	998.0483	1028.5711	1100.9867	1153.725	1178.1275	1211.1025	1253.5079	1320.0347	1353.3015	1390.1115	1415.646	1493.6884	1562.1555	1655.5517	2226.7879	3027.8386	3271.5857	3485.0951	3502.9565	3565.3713	3666.7611
NC(C#C)C1=NNN=C1	N[C@@H](C#C)c1n[nH]nc1	
InChI=1S/C5H6N4/c1-2-4(6)5-3-7-9-8-5/h1,3-4H,6H2,(H,7,8,9)	InChI=1S/C5H6N4/c1-2-4(6)5-3-7-9-8-5/h1,3-4H,6H2,(H,7,8,9)/t4-/m0/s1
