16
gdb 19651	5.44588	1.69582	1.60453	1.4387	67.35	-0.2166	0.0641	0.2807	829.5796	0.130029	-346.47909	-346.472267	-346.471323	-346.510129	26.406	
O	 0.5018955903	 0.2264338355	 0.8612338293	-0.420277
C	-0.237712597	 0.4476173791	-0.3329718471	-0.236943
C	-1.5414719059	-0.260135273	-0.1870997468	 0.391798
C	-2.7733165526	-0.3971901541	-1.1369024827	-0.183683
C	-3.6894979	-0.5110832872	 0.0737898021	-0.0859
C	-3.079192953	-1.7630625878	-0.5377258618	-0.085888
C	-1.8465741287	-1.6270280964	 0.4062271231	-0.136292
C	-2.4595422181	-0.3707796096	 1.0205731565	-0.136199
H	 1.3468194623	 0.6771136018	 0.7769700146	 0.290387
H	-0.4099578696	 1.524561333	-0.5022500228	 0.088138
H	 0.3035487021	 0.0634201007	-1.2147455429	 0.088137
H	-2.9780353147	-0.0131199258	-2.1276383912	 0.081941
H	-4.7293398275	-0.2304637523	 0.1752672025	 0.08323
H	-3.566236267	-2.6165292515	-0.9901617226	 0.08323
H	-1.169649359	-2.3450870979	 0.8478091729	 0.089131
H	-2.3324654618	 0.0381344357	 2.0132781467	 0.089189
87.2421	166.397	201.0925	272.4904	406.4099	622.2634	650.2926	747.2044	767.5703	781.1122	794.1646	844.3793	861.4188	873.26	895.8689	949.4258	957.0746	979.7819	1004.6525	1021.3836	1054.1512	1069.1455	1087.7536	1106.7971	1167.0456	1190.3612	1227.0066	1235.7115	1270.3189	1272.6532	1322.4986	1422.1393	1482.4898	1521.4702	2944.4555	2965.1231	3191.0455	3191.1567	3208.3612	3208.7544	3218.2811	3835.9325
OCC12C3C4C3C1C24	OC[C@@]12[C@@H]3[C@H]4[C@@H]3[C@@H]1[C@@H]24	
InChI=1S/C7H8O/c8-1-7-4-2-3(4)6(7)5(2)7/h2-6,8H,1H2	InChI=1S/C7H8O/c8-1-7-4-2-3(4)6(7)5(2)7/h2-6,8H,1H2/t2-,3+,4-,5+,6-,7+
