17
gdb 123945	3.45815	1.58734	1.12955	0.6696	74.1	-0.2041	0.0246	0.2287	1041.4733	0.140379	-418.035122	-418.028228	-418.027284	-418.066312	27.612	
C	-0.017471641	 1.5073699932	-0.0077666091	-0.224043
C	 1.4028759449	 2.0811308295	 0.0271605134	-0.079207
O	 2.1038905505	 1.7585001473	 1.2350193182	-0.284883
C	 1.9685258063	 0.4506950541	 1.5788728447	 0.263328
C	 2.6946653533	-0.268195854	 2.5043484465	-0.177446
N	 2.1412607361	-1.5139580778	 2.4916800877	-0.187218
N	 1.1202604621	-1.6468661919	 1.6269743475	-0.310716
C	 1.006179319	-0.4456346428	 1.0628436604	 0.251111
C	 0.00462034	-0.0348388342	 0.0288573771	-0.323476
H	-0.5713679167	 1.8944974586	 0.8552785627	 0.116059
H	-0.5231045978	 1.8690694764	-0.9089036166	 0.102429
H	 1.9805961782	 1.7078782344	-0.8322726	 0.101037
H	 1.3905819276	 3.1726834463	-0.016233594	 0.112563
H	 3.5165650286	-0.0012830324	 3.1469775759	 0.133248
H	 2.4155055792	-2.3068899039	 3.0444668343	 0.273131
H	-0.9870984621	-0.4370811423	 0.2578061423	 0.119869
H	 0.2819824817	-0.4286946007	-0.957734051	 0.114214
116.1674	220.1954	313.6584	358.6707	408.0389	446.934	456.8179	526.3938	656.5547	673.9838	701.3836	713.5883	752.9794	870.3623	880.6186	934.9375	953.2035	1005.2592	1063.0157	1073.9019	1097.4502	1183.6234	1198.4458	1209.3991	1241.5979	1298.7489	1325.4827	1348.2498	1368.7117	1404.9444	1416.757	1472.9235	1480.0612	1486.5794	1501.5138	1538.6545	1633.7838	2992.2418	3020.0241	3041.1649	3077.2904	3090.063	3102.2591	3275.8127	3686.7588
C1COC2=CNN=C2C1	C1COc2c[nH]nc2C1	
InChI=1S/C6H8N2O/c1-2-5-6(9-3-1)4-7-8-5/h4H,1-3H2,(H,7,8)	InChI=1S/C6H8N2O/c1-2-5-6(9-3-1)4-7-8-5/h4H,1-3H2,(H,7,8)
