14
gdb 29306	5.74757	0.98483	0.8902	1.6235	65.88	-0.2216	-0.0152	0.2064	1238.5804	0.101268	-473.825201	-473.817729	-473.816785	-473.857792	27.465	
O	 0.4252927261	 1.2885159362	-0.144872139	-0.428291
C	 0.1319050377	-0.021999138	-0.0844242141	 0.321228
C	-0.3051296372	-0.834776692	-1.0803264681	-0.148193
O	-0.4671420441	-2.0859762585	-0.5266355727	-0.171712
C	-0.1111754499	-1.9468874452	 0.7618496182	 0.415844
N	 0.2549844499	-0.7396067925	 1.0862287921	-0.398134
C	-0.1734400636	-3.1140506423	 1.6546106873	-0.035107
C	-1.0738069727	-4.2515729366	 1.398570609	-0.172953
O	 0.3217433405	-4.3565226035	 1.1396005871	-0.22295
H	 0.7204208029	 1.5479258788	 0.7365379162	 0.308849
H	-0.5254381898	-0.7212449505	-2.1249059371	 0.151047
H	 0.1202209318	-2.8807042138	 2.6751026433	 0.122969
H	-1.4440723082	-4.8307724001	 2.243268282	 0.124448
H	-1.7118504634	-4.2319956619	 0.5175379758	 0.132952
56.0164	152.3313	168.6539	320.1043	338.629	364.9806	434.3697	495.8066	655.1049	665.0935	712.1193	733.6991	764.8053	847.1875	901.075	988.5724	998.33	1028.4773	1097.2249	1131.7877	1158.6898	1168.616	1180.1817	1262.5531	1279.3759	1370.1391	1389.2332	1417.8623	1515.9826	1608.0388	1694.2039	3089.6043	3153.0105	3184.9244	3318.8708	3805.8596
OC1=COC(=N1)C1CO1	Oc1coc(n1)[C@H]1CO1	
InChI=1S/C5H5NO3/c7-4-2-9-5(6-4)3-1-8-3/h2-3,7H,1H2	InChI=1S/C5H5NO3/c7-4-2-9-5(6-4)3-1-8-3/h2-3,7H,1H2/t3-/m1/s1
