16
gdb 85711	2.3504	1.45713	1.03734	7.0739	73.8	-0.273	-0.008	0.2649	1150.0389	0.124616	-396.930501	-396.92182	-396.920875	-396.96428	31.141	
C	 0.1218889538	 1.560477687	-0.1774517873	-0.402854
C	 0.1059466809	 0.0609198437	 0.0320065757	 0.051491
N	 1.0493247301	-0.7131074555	-0.8102788986	-0.300821
C	 1.3552114231	-1.6364157316	 0.2945256933	-0.131156
C	 2.7485173495	-2.0651631894	 0.4009868225	 0.316174
N	 3.8400060414	-2.4336227802	 0.4845657569	-0.311123
C	 0.7939713811	-0.5668201253	 1.2989127849	-0.216376
C	 1.784837041	 0.274137772	 1.9462183242	 0.321262
N	 2.5500209722	 0.9601689086	 2.4747687322	-0.322583
H	 1.1362413748	 1.9557627523	-0.088454762	 0.155701
H	-0.2560412605	 1.8003644558	-1.1766064354	 0.12655
H	-0.5196150525	 2.0613191908	 0.5547929315	 0.129033
H	-0.9246943141	-0.3210448421	-0.0174531194	 0.084912
H	 0.6720144711	-1.1415744612	-1.6486024109	 0.235485
H	 0.7198125337	-2.5328413184	 0.3352856558	 0.124252
H	 0.1155453445	-0.9709636365	 2.0509545067	 0.140053
66.946	103.29	149.3345	190.2771	229.5713	276.4601	324.7413	428.358	459.1049	487.1464	565.7081	631.3021	694.4383	776.2697	793.7956	880.8192	956.7991	999.3791	1006.7829	1069.6734	1099.9958	1124.3742	1149.7116	1167.7993	1237.7449	1291.4624	1341.6442	1354.2537	1385.985	1406.2792	1423.6024	1484.1787	1494.168	2361.8479	2364.5696	2987.8275	2999.2813	3042.1759	3108.9931	3112.9144	3135.9288	3535.2307
CC1NC(C#N)C1C#N	C[C@H]1N[C@@H](C#N)[C@H]1C#N	
InChI=1S/C6H7N3/c1-4-5(2-7)6(3-8)9-4/h4-6,9H,1H3	InChI=1S/C6H7N3/c1-4-5(2-7)6(3-8)9-4/h4-6,9H,1H3/t4-,5+,6+/m1/s1
