17
gdb 105553	1.94186	1.54969	1.29419	5.3228	73.57	-0.2685	0.0016	0.2701	1097.2067	0.135655	-418.046734	-418.037608	-418.036664	-418.080749	32.639	
C	 0.0393896588	 1.5636170569	 0.1187616868	-0.400893
C	-0.0113842862	 0.0459401749	-0.0772179023	-0.242103
C	-1.4437861483	-0.5208518704	-0.0544888127	-0.015118
C	-1.5632799321	-2.0820798635	 0.0593955004	-0.206812
N	-2.1519481465	-1.8794456953	 1.383130696	-0.322476
C	-2.0995220256	-0.5142975023	 1.3840908533	 0.423638
O	-2.3928135359	 0.3313931615	 2.1793813033	-0.343843
C	-2.2881935181	 0.0556310055	-1.0892616054	 0.267483
N	-2.9549736001	 0.50872079	-1.9183102185	-0.3413
H	 1.0769994588	 1.9084032836	 0.1333680124	 0.119379
H	-0.4777521618	 2.0819156436	-0.6940626671	 0.144119
H	-0.4356872217	 1.8510717379	 1.0601220012	 0.154825
H	 0.459044206	-0.2339821609	-1.0268358793	 0.119083
H	 0.5508867237	-0.4572259006	 0.7182585327	 0.112891
H	-2.2335154853	-2.5487956854	-0.666382532	 0.14062
H	-0.59739218	-2.595935642	 0.0672765526	 0.126537
H	-2.4418324656	-2.5298275337	 2.0981520186	 0.263969
97.7228	105.3626	129.6327	167.718	186.0733	247.4425	271.4261	367.9358	420.4434	454.7056	553.3606	578.3632	667.7534	737.5052	775.132	796.9119	907.3041	917.2445	998.0393	1012.9543	1047.9492	1117.0226	1153.4623	1164.5093	1191.0344	1231.5441	1291.5768	1319.5664	1360.0792	1396.977	1419.4749	1485.0773	1498.3497	1510.5739	1524.8705	1906.4987	2351.025	3030.9261	3048.8676	3053.2127	3070.6938	3110.0971	3119.1599	3132.0681	3618.1591
CCC1(CNC1=O)C#N	CC[C@]1(CNC1=O)C#N	
InChI=1S/C6H8N2O/c1-2-6(3-7)4-8-5(6)9/h2,4H2,1H3,(H,8,9)	InChI=1S/C6H8N2O/c1-2-6(3-7)4-8-5(6)9/h2,4H2,1H3,(H,8,9)/t6-/m1/s1
