15
gdb 129466	4.5162	0.90458	0.8927	1.8363	66.97	-0.2476	-0.0249	0.2227	1287.9552	0.113009	-453.971171	-453.962836	-453.961892	-454.005939	29.472	
N	 0.752673733	-0.0297337175	 0.4885464642	-0.516134
C	-0.3735342351	 0.2942735295	-0.2024719768	 0.40142
O	-0.7331854593	 1.4377266604	-0.3923937234	-0.357024
C	-1.1655376438	-0.8914801177	-0.7880592165	-0.437852
C	-0.9535038524	-2.2326849635	-0.1592280728	 0.114788
C	-0.3056724357	-3.325245699	-0.6500157249	-0.00792
O	-0.33857577	-4.340041229	 0.2250779922	-0.159465
N	-1.0342454833	-3.932929768	 1.3592597031	-0.123983
C	-1.389421044	-2.6966014202	 1.121051943	-0.035297
H	 1.3039955076	 0.7170038391	 0.8777305326	 0.264585
H	 1.0156687726	-0.9827432545	 0.6670633401	 0.264351
H	-2.2164703218	-0.5938266341	-0.7390123016	 0.149646
H	-0.9113698676	-0.9334538368	-1.8529772083	 0.142018
H	 0.2019892682	-3.5228569531	-1.5820908813	 0.157469
H	-1.9539183482	-2.1587108758	 1.8706666904	 0.143397
32.8179	45.3621	112.4564	219.4563	291.474	323.8317	387.2188	505.2205	547.8523	621.1282	662.885	669.5499	770.0033	839.8662	865.7649	899.2372	916.3296	932.0822	940.906	1028.2444	1090.2216	1151.9623	1183.6471	1217.9339	1276.7323	1321.3895	1349.3431	1395.8176	1457.6488	1480.9525	1608.4081	1647.2248	1806.5512	3055.5476	3102.0727	3239.8583	3260.8484	3605.8314	3741.5635
NC(=O)CC1=CON=C1	NC(=O)Cc1conc1	
InChI=1S/C5H6N2O2/c6-5(8)1-4-2-7-9-3-4/h2-3H,1H2,(H2,6,8)	InChI=1S/C5H6N2O2/c6-5(8)1-4-2-7-9-3-4/h2-3H,1H2,(H2,6,8)
