15
gdb 29011	3.16647	1.53429	1.03356	3.7243	80.62	-0.219	-0.0631	0.1559	1076.6214	0.114557	-416.88921	-416.88159	-416.880645	-416.921572	28.695	
N	 0.1052570975	 1.3283763478	 0.3141804866	-0.599786
C	 0.0452728562	-0.00977015	 0.1180293436	 0.301968
C	-1.165729823	-0.7279182309	 0.2129183078	-0.154097
C	-1.1654487531	-2.0869865881	-0.0129410255	-0.101833
C	 0.0376041713	-2.73791814	-0.3328781741	-0.042787
N	 1.1864301721	-2.091532701	-0.4241937838	-0.302639
C	 1.2082615974	-0.7641219687	-0.2063935704	 0.151308
C	 2.5285125227	-0.1399771064	-0.3197841812	 0.112738
O	 2.7701167977	 1.0463526696	-0.1544698558	-0.321889
H	 1.0132567562	 1.7721371976	 0.2746238748	 0.287597
H	-0.7078610721	 1.8389648469	 0.6083141797	 0.25493
H	-2.0826049186	-0.2013043891	 0.4609492676	 0.098094
H	-2.0874338875	-2.6548745488	 0.0551206162	 0.107616
H	 0.056744637	-3.8086507722	-0.5152345874	 0.107581
H	 3.3275358263	-0.8624317366	-0.5758582179	 0.101199
60.0811	197.9351	208.826	273.0055	311.7423	404.398	447.4633	455.4072	569.7693	579.1991	646.5967	678.8199	769.2301	775.8342	833.3552	902.3994	924.5048	987.2266	1043.0805	1053.3818	1076.0342	1167.7551	1230.8172	1273.2715	1360.3206	1373.1458	1395.6816	1470.7619	1499.057	1579.0119	1610.9927	1649.6592	1750.7351	2954.7601	3163.1213	3169.4054	3194.3315	3528.9096	3714.8371
NC1=CC=CN=C1C=O	Nc1cccnc1C=O	
InChI=1S/C6H6N2O/c7-5-2-1-3-8-6(5)4-9/h1-4H,7H2	InChI=1S/C6H6N2O/c7-5-2-1-3-8-6(5)4-9/h1-4H,7H2
