20
gdb 107488	2.2124	1.73393	1.28576	1.0926	79.14	-0.2298	0.0786	0.3085	1080.3121	0.17071	-403.07411	-403.065514	-403.06457	-403.107098	33.068	
C	 0.0669249376	 1.398004346	 0.1635156582	-0.261222
O	-0.0655649299	-0.001836433	-0.0528842955	-0.28185
C	 0.6158560808	-0.477358873	-1.1520010651	 0.359363
C	 1.554299565	-1.6385134418	-1.0465688223	-0.32537
C	 2.0747582955	-0.3311152206	-1.6095479458	-0.150287
C	 1.6105349674	-0.1576468745	-3.0662082675	-0.30114
C	 0.1516311535	-0.3254112622	-2.5931431434	 0.290987
C	-1.030249895	-0.9314433956	-3.2394886879	-0.314505
N	-0.935539804	 0.5368294247	-3.0397489494	-0.380133
H	 1.1038948951	 1.6641034345	 0.4059728424	 0.115503
H	-0.2450145993	 1.9847420955	-0.7096386645	 0.121246
H	-0.5753655739	 1.6464542535	 1.0113205739	 0.12927
H	 1.8750193975	-1.8522984053	-0.0318123801	 0.117255
H	 1.4377201221	-2.5138833749	-1.6820358189	 0.105827
H	 2.9001050711	 0.1932591202	-1.1453810086	 0.093163
H	 1.7829842158	 0.8476007861	-3.4584446841	 0.115521
H	 1.9841283776	-0.8972423245	-3.7819444647	 0.098865
H	-0.9849203329	-1.2477644144	-4.2781561891	 0.116995
H	-1.7215924276	-1.4960394279	-2.6186822634	 0.114958
H	-1.5086888763	 0.7933903173	-2.2377942542	 0.235555
120.8611	130.1252	154.9173	188.012	231.2565	280.1129	398.2867	417.4699	433.4103	524.3626	610.4521	625.2877	777.4159	833.2723	850.9581	882.6198	920.6068	925.0728	961.2115	989.4827	1009.4405	1013.8053	1042.5342	1076.4503	1089.5189	1093.4608	1126.0183	1157.6578	1180.5405	1195.8613	1222.5669	1242.4212	1256.3467	1281.7119	1297.6557	1374.6012	1419.5746	1473.3064	1482.2487	1488.4119	1502.408	1511.9585	1512.6266	3007.3679	3045.9655	3065.462	3103.1708	3103.9301	3108.0809	3124.8694	3189.8952	3192.4832	3203.517	3482.0488
COC12CC1CC21CN1	CO[C@]12C[C@H]1C[C@]12CN1	
InChI=1S/C7H11NO/c1-9-7-3-5(7)2-6(7)4-8-6/h5,8H,2-4H2,1H3	InChI=1S/C7H11NO/c1-9-7-3-5(7)2-6(7)4-8-6/h5,8H,2-4H2,1H3/t5-,6-,7-/m1/s1
