17
gdb 16072	3.34231	1.74733	1.41941	1.9525	63.69	-0.2118	0.0527	0.2645	925.6085	0.141277	-400.92552	-400.917357	-400.916412	-400.958876	29.944	
C	-0.4440559432	 1.3993597632	 0.1125344733	-0.323042
N	 0.359242821	 0.1962888017	-0.0836881813	-0.383982
C	 0.8351866355	-0.4341296918	 1.0966436811	 0.223423
C	 2.3055439208	-0.4865589698	 1.5198406289	-0.127273
O	 2.1415551057	-1.8354663174	 2.0598166302	-0.306777
C	 0.7935505459	-1.8836676905	 1.5756900624	-0.041484
C	-0.0041798547	-0.8554943167	 2.3073176559	 0.083058
O	 0.2972722526	-0.5109522217	 3.6215405812	-0.436947
H	 0.1579007106	 2.162603654	 0.6157483791	 0.130934
H	-0.7381953261	 1.7970866835	-0.8629637939	 0.118168
H	-1.354197371	 1.2447022445	 0.7144645207	 0.103932
H	-0.0983195295	-0.4573058856	-0.7048579352	 0.226708
H	 2.9889664134	-0.4997305351	 0.6656277485	 0.117176
H	 2.6493172683	 0.2225412472	 2.2803407953	 0.110527
H	 0.4449848527	-2.8125464788	 1.1355159594	 0.104847
H	-1.0735028741	-0.8631313188	 2.111671089	 0.104483
H	 1.091884772	-1.013597448	 3.8492260254	 0.296249
25.2263	150.9818	177.1283	229.1622	261.0774	324.6193	385.7293	441.2891	495.6907	561.9338	643.775	710.8253	789.0994	843.7878	920.9515	936.1517	983.2286	1016.118	1043.1075	1076.227	1079.201	1112.6033	1149.7616	1152.3049	1188.6381	1213.4182	1271.6266	1303.6762	1308.2971	1395.0361	1450.9035	1463.7676	1475.2205	1492.636	1507.5226	1518.2246	2972.6797	3039.1228	3068.572	3099.298	3110.9481	3148.8527	3164.2775	3565.1878	3745.6703
CNC12COC1C2O	CN[C@]12CO[C@H]1[C@H]2O	
InChI=1S/C5H9NO2/c1-6-5-2-8-4(5)3(5)7/h3-4,6-7H,2H2,1H3	InChI=1S/C5H9NO2/c1-6-5-2-8-4(5)3(5)7/h3-4,6-7H,2H2,1H3/t3-,4+,5+/m1/s1
