19
gdb 80009	2.79548	1.80592	1.59738	1.7772	76.85	-0.2328	0.0033	0.2361	934.2338	0.161618	-385.867866	-385.861053	-385.860109	-385.898499	29.07	
C	-0.0979043666	 1.5475773271	 0.0050620665	-0.435056
C	 0.0432152972	 0.0305979404	 0.0123654006	 0.055986
C	 1.0537863629	-0.5836793859	-1.0014608244	-0.131927
C	 2.3828035631	-0.1469527556	-0.3689687961	-0.075908
C	 2.2161989724	-0.1560590376	 0.9578287745	-0.075906
C	 0.7728152694	-0.5990437583	 1.2361577391	-0.131928
C	 0.7770760701	-2.0976873567	 0.8244348253	 0.049834
O	-0.2841404026	-2.5285390682	-0.0463092718	-0.262785
C	 0.9586743136	-2.0877533341	-0.6217664688	 0.049834
H	 0.8607024483	 2.0572464322	 0.1289157663	 0.118165
H	-0.542296222	 1.8846751625	-0.9378331864	 0.112052
H	-0.7621541434	 1.8726525865	 0.8133127727	 0.112052
H	-0.9408180538	-0.4220187183	-0.1143041845	 0.097829
H	 0.9136791921	-0.3460554024	-2.05649426	 0.061996
H	 3.2900546999	 0.0647184935	-0.9196940484	 0.098237
H	 2.9587731728	 0.0466118988	 1.7185624227	 0.098237
H	 0.3758229072	-0.3754685361	 2.2269159043	 0.061996
H	 1.1859692967	-2.8569228619	 1.4844102208	 0.098645
H	 1.5193137939	-2.8386990659	-1.1703664517	 0.098646
222.2261	250.4688	276.2783	345.4544	359.8132	482.3356	499.9306	592.4981	699.3631	723.0373	742.7766	772.4638	838.9253	858.7715	888.0022	894.1833	915.3277	929.1187	936.8462	958.5271	982.0217	998.1797	1051.5846	1094.9687	1103.7291	1112.6577	1129.8314	1186.5309	1218.0524	1237.7798	1265.026	1276.1072	1283.1735	1301.1402	1352.199	1379.3734	1409.1622	1419.9645	1495.2573	1507.3447	1630.3875	3033.5563	3091.2933	3100.8134	3108.2785	3110.7364	3123.9432	3153.5766	3166.5867	3203.443	3228.9775
CC1C2C=CC1C1OC21	C[C@H]1[C@H]2C=C[C@@H]1[C@H]1O[C@@H]21	
InChI=1S/C8H10O/c1-4-5-2-3-6(4)8-7(5)9-8/h2-8H,1H3	InChI=1S/C8H10O/c1-4-5-2-3-6(4)8-7(5)9-8/h2-8H,1H3/t4-,5+,6-,7-,8+
