19
gdb 33166	3.29927	1.05385	0.85532	2.6216	77.29	-0.1994	0.051	0.2504	1381.5427	0.160398	-419.2558	-419.246756	-419.245812	-419.290565	33.056	
C	-0.005082697	 1.5878793937	-0.0447964337	-0.381288
C	 0.0118218823	 0.0580849839	-0.0769329173	-0.171574
C	-1.3951509223	-0.5369125692	 0.0602373719	-0.164915
N	-1.4097957937	-1.990369716	 0.0185363132	-0.04474
C	-1.5206335236	-2.810576021	-1.1032062957	-0.139994
C	-1.4292685271	-4.0886209094	-0.6377653204	-0.099731
N	-1.2572694639	-4.1003936119	 0.7374348654	-0.376066
C	-1.24900262	-2.8366694422	 1.0680942415	 0.434501
O	-1.1021224398	-2.3321297332	 2.3092209005	-0.432402
H	 1.0060978807	 1.99433262	-0.1358512443	 0.121426
H	-0.6033706122	 1.9983907189	-0.8659464838	 0.116867
H	-0.4301989485	 1.961082277	 0.8934516639	 0.12104
H	 0.4581954614	-0.2974745096	-1.0129695529	 0.108406
H	 0.6351787317	-0.3304968945	 0.736168121	 0.118691
H	-1.8437527222	-0.2246726699	 1.0079845125	 0.133869
H	-2.0439268459	-0.1723832457	-0.7431837644	 0.116715
H	-1.6607528182	-2.3948410877	-2.0870308684	 0.119822
H	-1.4805647304	-5.0076655528	-1.200593871	 0.106204
H	-1.0304776513	-3.0940054304	 2.8975945922	 0.313171
40.5953	85.4359	92.3762	226.6142	271.8217	276.6531	304.1661	367.976	414.8902	484.0476	632.4103	680.2958	699.5105	738.5122	751.5931	785.9393	831.2165	881.1151	900.8672	937.3212	1043.0746	1081.9443	1111.4171	1123.9012	1141.439	1214.2124	1240.6868	1295.4583	1308.6893	1332.8537	1338.8199	1394.6642	1407.3319	1415.7054	1480.6938	1493.1016	1499.4072	1510.2118	1550.8208	1576.881	1602.3384	3031.5441	3036.8974	3051.4945	3069.6863	3094.0121	3108.3951	3110.2009	3250.9372	3279.0754	3807.1681
CCCN1C=CN=C1O	CCCn1ccnc1O	
InChI=1S/C6H10N2O/c1-2-4-8-5-3-7-6(8)9/h3,5H,2,4H2,1H3,(H,7,9)	InChI=1S/C6H10N2O/c1-2-4-8-5-3-7-6(8)9/h3,5H,2,4H2,1H3,(H,7,9)
