21
gdb 104989	2.2963	1.28565	1.03423	1.7909	84.08	-0.2543	0.0551	0.3094	1262.0028	0.179911	-387.039024	-387.028757	-387.027813	-387.074204	38.446	
C	-1.6455651404	-0.8720474778	-0.7190563909	-0.398171
C	-0.2871182292	-0.3761876508	-0.1730586412	-0.217473
C	-0.0402760977	-0.9624630483	 1.1434736058	 0.309504
C	 0.1304466218	-1.4588981992	 2.2258152514	-0.466288
C	 0.8682868027	-0.622675942	-1.162643771	 0.369592
C	 0.6951704504	 0.0718496822	-2.4955498842	-0.162494
O	 0.5249480331	 1.4652690099	-2.2612466223	-0.422
C	 2.2807498777	-0.7473338574	-0.6481815672	-0.307215
C	 1.56561087	-1.9602281006	-1.1921788647	-0.314652
H	-1.921236196	-0.3269781407	-1.6253030319	 0.11873
H	-1.6043955025	-1.9405838904	-0.9502085546	 0.123456
H	-2.4323305632	-0.7137629392	 0.0225563452	 0.124264
H	-0.3557590667	 0.7116998035	-0.0482244376	 0.127888
H	 0.2843662508	-1.883063892	 3.1869867705	 0.192058
H	 1.5848095614	-0.1206935242	-3.1152647951	 0.084057
H	-0.1703581065	-0.3418331721	-3.0351994089	 0.088808
H	 0.295164106	 1.8855534932	-3.0949706348	 0.288141
H	 3.0717574458	-0.3030464092	-1.2426285459	 0.10743
H	 2.4375179409	-0.7000655773	 0.4226698316	 0.126768
H	 1.2412067865	-2.7084212583	-0.4777648758	 0.12385
H	 1.8734665251	-2.3587328295	-2.1535983584	 0.103749
42.1824	100.838	156.6087	184.8798	213.1229	240.0017	247.8996	295.5653	329.454	373.2661	417.9736	472.3874	549.0335	590.1079	615.5844	637.5296	696.8535	788.1252	844.5253	907.2486	923.744	946.0965	956.582	1033.4645	1049.7045	1067.8229	1072.9983	1083.6451	1094.155	1136.1218	1189.5245	1221.371	1245.4359	1281.7794	1329.2781	1346.987	1360.1058	1401.6087	1459.83	1464.0256	1494.5132	1497.2036	1501.8896	1528.4991	2229.6253	2973.8922	3001.5757	3034.5922	3047.0794	3121.8944	3125.0921	3130.1089	3139.0115	3214.4609	3230.0086	3503.8288	3830.8389
CC(C#C)C1(CO)CC1	C[C@@H](C#C)C1(CO)CC1	
InChI=1S/C8H12O/c1-3-7(2)8(6-9)4-5-8/h1,7,9H,4-6H2,2H3	InChI=1S/C8H12O/c1-3-7(2)8(6-9)4-5-8/h1,7,9H,4-6H2,2H3/t7-/m0/s1
