17
gdb 131626	2.54832	1.21363	0.86235	4.7579	71.8	-0.2264	0.0253	0.2517	1302.3449	0.136749	-455.146723	-455.137592	-455.136648	-455.181881	32.153	
O	-0.158253483	 1.365189632	 0.5793047125	-0.423421
C	 0.0127270938	 0.0684034891	 0.0189252674	-0.197415
C	-1.3323495603	-0.5798900631	-0.0457189341	 0.287868
C	-1.7399281202	-1.9010840032	-0.1100071213	 0.115967
C	-0.8980509811	-3.1344839207	-0.1097722457	-0.211835
O	-1.4829837947	-4.08407447	 0.7753610317	-0.412645
C	-3.1514242646	-1.8230861554	-0.1883507947	-0.065695
N	-3.5873324521	-0.568287061	-0.1710563872	-0.233876
N	-2.4613307824	 0.1670756263	-0.1026206538	-0.237331
H	 0.6601763281	 1.8553110475	 0.4606031846	 0.296348
H	 0.4534655478	 0.1379048872	-0.988894021	 0.110605
H	 0.6913825514	-0.5518208939	 0.6244561935	 0.113217
H	-0.830606849	-3.5539695899	-1.1274194914	 0.096077
H	 0.1323219323	-2.8848901534	 0.1951095962	 0.08193
H	-1.034478282	-4.9249831318	 0.6429672778	 0.285844
H	-3.8546682919	-2.6408950577	-0.2351409114	 0.117
H	-2.5066097422	 1.1677935381	-0.0088631231	 0.277363
33.1649	68.3535	155.8871	188.2233	224.5938	259.1647	274.9395	298.6021	394.7513	534.5013	558.7493	625.989	696.9672	712.1206	760.4743	891.245	964.4268	1012.7682	1033.3328	1053.5259	1065.8667	1133.6198	1166.5287	1213.953	1216.6136	1241.3019	1251.1712	1266.824	1319.6816	1392.5446	1417.7914	1462.0766	1477.712	1511.6727	1517.6744	1527.1027	1632.4442	2950.4409	2964.1358	2967.9243	2994.5971	3253.9173	3678.8313	3820.7151	3839.0147
OCC1=C(CO)C=NN1	OCc1c(CO)cn[nH]1	
InChI=1S/C5H8N2O2/c8-2-4-1-6-7-5(4)3-9/h1,8-9H,2-3H2,(H,6,7)	InChI=1S/C5H8N2O2/c8-2-4-1-6-7-5(4)3-9/h1,8-9H,2-3H2,(H,6,7)
