17
gdb 83601	2.27689	1.72996	1.20101	0.9153	68.83	-0.2511	-0.0378	0.2133	1057.3664	0.134053	-458.94132	-458.932708	-458.931763	-458.974666	31.748	
C	-0.5756657703	 1.2606835068	 0.1523835847	-0.406042
C	 0.0805841527	-0.1060208104	-0.0305166997	-0.122661
C	 1.020453539	-0.3181493312	-1.2542858795	 0.009267
O	 0.9410721171	-1.6486522606	-1.7770176744	-0.277836
C	 2.0039736623	-2.1199961048	-0.9236647515	-0.133456
C	 2.2276871585	-0.7333906911	-0.2843955488	 0.25999
O	 3.5388611939	-0.3102423908	-0.2339256119	-0.459804
C	 1.3163785654	-0.3267291223	 0.865907109	 0.299747
O	 1.6072576072	 0.0557624637	 1.9681097743	-0.319563
H	 0.1465839582	 2.0715344424	 0.0117625225	 0.12313
H	-1.3889976927	 1.4002106277	-0.5653115552	 0.127879
H	-0.9821518795	 1.3541151485	 1.1630627321	 0.14157
H	-0.6562808319	-0.9126564963	 0.0312607805	 0.115673
H	 1.0586751029	 0.4627769344	-2.0156975979	 0.097923
H	 1.6963068606	-2.9407911329	-0.2663696861	 0.115784
H	 2.8839883208	-2.4193078573	-1.5038987682	 0.128719
H	 3.6323632558	 0.249704724	 0.54853023	 0.299681
66.35	152.0462	187.5661	211.596	237.4082	251.2239	326.7092	375.227	414.2364	496.1709	567.4269	675.4238	758.2316	797.2343	828.7588	917.8059	950.0051	977.6477	1002.6251	1032.3699	1048.5853	1073.0565	1104.7741	1111.3393	1158.0193	1161.8413	1218.4377	1267.6207	1304.6225	1324.074	1368.965	1395.8695	1407.4515	1493.7169	1495.5535	1511.9853	1853.263	3029.5507	3040.52	3067.2383	3083.3809	3104.9516	3110.4594	3121.9891	3759.3252
CC1C2OCC2(O)C1=O	C[C@H]1[C@@H]2OC[C@]2(O)C1=O	
InChI=1S/C6H8O3/c1-3-4(7)6(8)2-9-5(3)6/h3,5,8H,2H2,1H3	InChI=1S/C6H8O3/c1-3-4(7)6(8)2-9-5(3)6/h3,5,8H,2H2,1H3/t3-,5+,6+/m1/s1
