19
gdb 84023	2.16901	1.69114	1.41975	1.3709	70.47	-0.2296	0.0718	0.3014	1024.0079	0.159777	-460.139812	-460.131564	-460.130619	-460.172076	32.768	
O	 0.1852528687	 1.3226651005	-0.0938513407	-0.431195
C	 0.0174394466	-0.0599804437	-0.0765651006	 0.030135
C	-0.4968003981	-0.6858337679	 1.2078991492	-0.023647
O	-0.7470517337	 0.2387723705	 2.2295436971	-0.266523
C	-2.1307655812	 0.5522830289	 2.4096846464	-0.0689
C	-2.7250791097	 1.1543652046	 1.1397598207	-0.222242
C	-2.645991609	 0.1471605203	-0.022627937	-0.272492
C	-1.3680643796	-0.6758361223	-0.0258242627	 0.296146
O	-1.4793833369	-1.9470317485	-0.6159727531	-0.459553
H	 0.209912831	 1.5957865289	 0.8346857911	 0.292428
H	 0.7664786452	-0.609887369	-0.6423720986	 0.095608
H	-0.0951794779	-1.6363475609	 1.5490667958	 0.106031
H	-2.6809322806	-0.3536644006	 2.705518559	 0.100706
H	-2.1624034388	 1.2596018219	 3.2428050546	 0.110166
H	-3.7679858229	 1.4377395191	 1.3187821622	 0.100303
H	-2.176752106	 2.0673938237	 0.8907513349	 0.115757
H	-3.4631722717	-0.577587102	 0.0720415495	 0.111511
H	-2.7787843332	 0.6593219386	-0.9830495174	 0.102351
H	-1.4574594724	-1.8284643019	-1.5726493603	 0.28341
132.9384	163.1618	235.7714	257.4272	314.4126	342.0959	380.3692	420.6984	453.4772	479.7014	514.4602	597.8987	627.2835	711.7846	825.3542	875.3484	891.5168	918.0738	943.2729	977.0297	1015.5801	1061.7557	1089.9934	1105.375	1151.0311	1157.7748	1193.7199	1235.6267	1245.591	1279.618	1306.6928	1323.2165	1334.1769	1360.175	1375.7576	1383.6089	1411.0295	1446.0471	1480.9183	1495.6446	1501.2939	2996.3796	3026.6036	3049.4209	3064.5685	3092.2826	3102.314	3129.0134	3144.0774	3726.2765	3786.428
OC1C2OCCCC12O	O[C@H]1[C@H]2OCCC[C@@]12O	
InChI=1S/C6H10O3/c7-4-5-6(4,8)2-1-3-9-5/h4-5,7-8H,1-3H2	InChI=1S/C6H10O3/c7-4-5-6(4,8)2-1-3-9-5/h4-5,7-8H,1-3H2/t4-,5+,6+/m0/s1
