17
gdb 71849	2.84467	1.98	1.6947	0.2749	71.42	-0.2397	-0.0105	0.2292	873.1931	0.136693	-421.781072	-421.774345	-421.7734	-421.811697	27.993	
C	 0.063670079	 1.5318564246	-0.0952875661	-0.506155
C	-0.0840279877	 0.0391525622	-0.0535840611	 0.417313
O	 0.2904526095	-0.6419220379	-1.2407821795	-0.321498
C	-0.5180741352	-1.7966767982	-0.8124648376	-0.016981
C	 0.4138742276	-2.6824078814	-0.0405144711	-0.055536
C	 0.9665222038	-2.0654280428	 1.0111247811	-0.054227
C	 0.339795415	-0.7367809753	 1.3070627157	-0.046066
O	-1.0886382462	-1.0137614466	 1.5474069806	-0.291716
C	-1.3315373475	-0.8175145976	 0.169610654	 0.020012
H	 1.1205698969	 1.8075861731	-0.1781071833	 0.134319
H	-0.4660861845	 1.947773528	-0.9568944752	 0.131267
H	-0.3383234089	 1.9794932465	 0.8182029388	 0.133513
H	-1.0395675949	-2.2523294122	-1.6539515591	 0.077001
H	 0.6494343063	-3.6897594725	-0.3630545924	 0.106232
H	 1.7368729935	-2.4899340647	 1.6442761183	 0.105697
H	 0.7785256981	-0.1616376399	 2.1230796402	 0.074862
H	-2.3697739148	-0.5934204253	-0.0812379432	 0.091963
199.5724	213.1404	275.9791	387.2055	400.7685	460.8004	546.1327	613.5541	670.1793	699.4012	746.1331	762.9351	779.2528	830.8737	866.4149	902.4196	922.7072	950.637	982.9348	998.5905	1004.2334	1069.9632	1108.5746	1147.6687	1160.2771	1167.433	1196.9478	1234.8009	1271.9188	1310.4342	1335.1641	1369.359	1383.7702	1413.5362	1479.1199	1492.1275	1654.8613	3038.5871	3101.1119	3107.7873	3109.5078	3118.2839	3122.0179	3185.8981	3208.3537
CC12OC3C=CC1OC23	C[C@@]12O[C@H]3C=C[C@@H]1O[C@@H]23	
InChI=1S/C7H8O2/c1-7-5-3-2-4(9-7)6(7)8-5/h2-6H,1H3	InChI=1S/C7H8O2/c1-7-5-3-2-4(9-7)6(7)8-5/h2-6H,1H3/t4-,5-,6+,7+/m0/s1
