12
gdb 27870	2.09156	1.67202	0.93297	1.7396	64.2	-0.2687	-0.0484	0.2203	1126.1798	0.076031	-506.001352	-505.992922	-505.991978	-506.035466	29.632	
O	 0.1543833202	 1.4188876953	-0.0053630408	-0.37316
C	-0.0600084224	 0.0948488318	 0.0101737492	 0.49435
N	 1.1237463563	-0.6136724912	-0.0863497659	-0.440727
C	 1.1208422385	-1.903461499	-0.0163447221	 0.483385
O	 2.3132507915	-2.4982767104	-0.087514317	-0.363505
N	 0.0976476313	-2.7816346354	 0.1731642232	-0.374943
C	-1.1297514913	-2.6633367814	 0.0260528365	 0.523425
N	-2.2863447161	-2.960479601	-0.1465792875	-0.508991
O	-1.1980989848	-0.3303997472	 0.1016511014	-0.374018
H	 1.1113531926	 1.5419864557	-0.078981764	 0.309542
H	 2.1707583394	-3.4516614217	-0.0108397744	 0.314455
H	-3.0517920452	-2.3334219754	 0.0503509816	 0.310188
52.3602	69.4751	149.5728	186.9263	261.8796	374.8626	423.9927	437.9255	510.2887	562.2063	573.2188	609.1984	618.3283	731.3163	741.3478	784.6021	812.6255	885.587	1029.391	1195.3107	1273.1467	1338.4288	1386.9911	1498.586	1650.3701	1785.7267	2218.9933	3658.4397	3771.3686	3781.297
OC1=NC(O)=NC(=N)O1	OC(=O)N=C(O)[N][C][NH]	
InChI=1S/C3H3N3O3/c4-1-5-2(7)6-3(8)9-1/h(H3,4,5,6,7,8)	InChI=1S/C3H3N3O3/c4-1-5-2(7)6-3(8)9/h4H,(H,6,7)(H,8,9)
