17
gdb 32164	3.55439	1.14422	0.8709	1.169	80.17	-0.2063	-0.0073	0.199	1283.6015	0.137812	-418.070712	-418.062313	-418.061368	-418.10399	31.706	
N	-0.0843563686	 1.3501197744	 0.1334149718	-0.568152
C	 0.0058610941	-0.0289894209	 0.0451684081	 0.368877
N	-1.1500998158	-0.6961428171	 0.0328923031	-0.385689
C	-1.1129186115	-2.0347379161	 0.0089578548	 0.301619
C	-2.4713237076	-2.6959777533	 0.0087007368	-0.151796
O	-2.3279027438	-4.102499974	-0.0644170615	-0.418706
C	 0.0660654251	-2.7686288161	-0.0158027921	-0.188462
C	 1.2687348548	-2.0592769498	-0.0127265386	-0.065519
C	 1.2545829388	-0.6772689999	 0.02084816	-0.190468
H	 0.6829647319	 1.8774686409	-0.2527242532	 0.247363
H	-0.9951660528	 1.7082538237	-0.1136093273	 0.250434
H	-3.0039098375	-2.3874740857	 0.9222892883	 0.107556
H	-3.0477330709	-2.2987988303	-0.8415904219	 0.105744
H	-3.2047167089	-4.4935925641	-0.0321790769	 0.29122
H	 0.0338286208	-3.8484278536	-0.0408085193	 0.113252
H	 2.2154660952	-2.5903026608	-0.0347991495	 0.09935
H	 2.1732392865	-0.1007191072	 0.0339319573	 0.083378
51.3519	176.8776	200.8512	208.9232	236.4555	351.1673	383.1024	443.9326	473.0808	537.9804	564.6025	612.3541	632.2007	749.2848	764.2494	812.27	882.7724	948.4178	992.7995	1001.909	1038.8818	1072.7173	1114.0792	1131.3257	1183.7201	1198.5617	1243.1029	1271.6713	1335.5277	1360.8426	1443.0792	1491.2987	1494.1961	1506.0658	1622.7626	1627.8339	1650.5179	2973.5186	2997.7409	3171.3783	3189.3654	3238.5459	3575.0932	3688.8503	3847.2755
NC1=NC(CO)=CC=C1	Nc1nc(CO)ccc1	
InChI=1S/C6H8N2O/c7-6-3-1-2-5(4-9)8-6/h1-3,9H,4H2,(H2,7,8)	InChI=1S/C6H8N2O/c7-6-3-1-2-5(4-9)8-6/h1-3,9H,4H2,(H2,7,8)
