18
gdb 79679	2.50801	1.54084	1.18819	3.5963	78.36	-0.2334	-0.0239	0.2095	1089.3135	0.146847	-401.865493	-401.857333	-401.856389	-401.898152	31.173	
C	-0.0364945976	 1.5824901445	-0.0258358171	-0.444878
C	 0.154340018	 0.068354903	 0.0263331253	-0.077995
C	 1.2903422813	-0.8353795743	-0.3341827972	-0.063098
N	 2.7127312608	-0.5590354016	 0.0594822616	-0.135458
C	 2.8310704665	 0.7573786368	 0.7205196725	-0.257692
C	 2.2330498504	-0.3593163673	 1.4799413769	-0.095423
C	 0.7873741646	-0.7473169289	 1.1387313926	 0.202322
C	 0.0773365443	-1.7908583976	 1.8737688039	 0.065611
O	 0.4593749292	-2.2780929849	 2.9144745131	-0.278128
H	 0.4390388688	 2.0238252341	-0.9071141313	 0.13758
H	-1.105384306	 1.8062241477	-0.0858510712	 0.125049
H	 0.3471774782	 2.0846034194	 0.8639342991	 0.141674
H	-0.7521834467	-0.4507151981	-0.289948192	 0.108364
H	 1.1512465427	-1.6641651151	-1.0177732855	 0.120543
H	 3.868229454	 0.9809317051	 0.956204829	 0.132457
H	 2.2668783125	 1.6061696071	 0.3668068476	 0.127984
H	 2.7383532742	-0.853769587	 2.3007982745	 0.128674
H	-0.8679410052	-2.1276787229	 1.3876512481	 0.062414
103.2808	137.8451	190.5613	212.166	262.5294	298.1729	403.7833	438.9871	528.7027	628.6475	663.2089	683.2162	716.4504	748.5088	880.0661	887.0187	923.4964	963.3375	972.804	1041.4937	1054.689	1069.9739	1095.9189	1100.098	1109.7641	1130.5242	1146.3195	1218.8095	1253.6085	1264.3537	1329.7	1371.9259	1413.3525	1425.6914	1466.467	1495.8905	1502.1473	1516.8671	1786.0829	2856.6983	3044.8102	3091.4238	3109.5152	3129.755	3139.9401	3189.13	3194.1259	3266.4413
CC1C2N3CC3C12C=O	C[C@H]1[C@H]2N3C[C@H]3[C@@]12C=O	
InChI=1S/C7H9NO/c1-4-6-7(4,3-9)5-2-8(5)6/h3-6H,2H2,1H3	InChI=1S/C7H9NO/c1-4-6-7(4,3-9)5-2-8(5)6/h3-6H,2H2,1H3/t4-,5-,6+,7+,8?/m0/s1
