18
gdb 71550	2.651	1.45582	1.38097	2.2147	77.43	-0.2271	-0.0359	0.1911	1039.6273	0.146357	-401.863702	-401.855599	-401.854655	-401.896403	30.811	
C	-0.0352699162	 1.4845247232	-0.0292643561	-0.515983
C	-0.0275683246	-0.0125259748	-0.0981962081	 0.320348
C	 0.5765927227	-0.9353735354	-1.1648614594	-0.309147
C	 0.0742241497	-1.8557956526	-0.0554283576	-0.042887
N	 0.5791856536	-0.8887224244	 1.044871399	-0.187069
C	-0.7881970883	-0.959357671	 1.7237902869	-0.242876
C	-1.2081381454	-1.0124340926	 0.2635387808	 0.201544
C	-2.5588069883	-1.1009665067	-0.3503181266	 0.022236
O	-3.587629001	-1.0920397465	 0.2822419462	-0.250553
H	 0.9915981918	 1.8638761607	-0.0446596583	 0.139179
H	-0.5704648555	 1.9087865336	-0.8849921309	 0.129912
H	-0.518129018	 1.8416253841	 0.8855950795	 0.13429
H	 0.0728478174	-0.9850018307	-2.1329426381	 0.1039
H	 1.6629767665	-0.8773351089	-1.276586412	 0.11249
H	 0.1794041235	-2.9344975082	 0.0703324381	 0.094309
H	-0.925864539	-1.8625919916	 2.3248404461	 0.110708
H	-1.0407453077	-0.070411646	 2.3074873933	 0.111132
H	-2.5700941711	-1.1718507222	-1.4635121729	 0.068468
74.6245	158.6332	193.6396	198.7487	275.5333	345.5855	363.8014	457.3429	510.0077	624.6902	657.0523	679.9801	808.1471	852.4195	866.5354	900.0272	910.6951	950.4005	1007.3513	1020.0983	1024.636	1088.9829	1100.1827	1120.1153	1137.5849	1161.7616	1179.5838	1216.8285	1254.8064	1268.1467	1314.3809	1329.6922	1407.7193	1427.2749	1480.8195	1482.63	1495.4937	1524.5576	1807.5359	2851.0415	3035.7559	3056.2067	3058.2631	3107.0766	3107.8092	3109.8199	3116.5405	3122.6534
CC12CC3N1CC23C=O	C[C@@]12C[C@H]3N1C[C@@]23C=O	
InChI=1S/C7H9NO/c1-6-2-5-7(6,4-9)3-8(5)6/h4-5H,2-3H2,1H3	InChI=1S/C7H9NO/c1-6-2-5-7(6,4-9)3-8(5)6/h4-5H,2-3H2,1H3/t5-,6+,7+/m1/s1
