16
gdb 45647	3.07568	1.66724	1.26235	3.4708	75.21	-0.2272	-0.0142	0.213	982.0669	0.125146	-400.692214	-400.685311	-400.684367	-400.723619	27.444	
O	-0.1144663139	-0.0225006925	 0.2083029475	-0.292627
C	-0.0346701639	 1.1679041624	 0.1058777492	 0.370818
C	-1.2293701344	 2.1793507005	 0.1517351077	-0.356163
C	-0.5842518601	 3.46547568	 0.643431777	-0.208539
C	 0.7347008344	 3.3727314154	 0.4907587722	 0.291045
C	 2.0796590458	 3.6153194349	 1.1390279475	-0.173573
N	 2.1472681332	 2.5048172812	 2.1468668906	-0.319223
C	 2.506409609	 2.2310244773	 0.7413882911	-0.082453
C	 1.2024885588	 2.061719945	-0.0850590928	-0.157029
H	-1.6713865044	 2.2463831233	-0.8530321109	 0.131029
H	-2.018195096	 1.8113074158	 0.8161474079	 0.136156
H	-1.1353181328	 4.239021389	 1.1651595632	 0.106419
H	 2.657350962	 4.5208061335	 1.2665283981	 0.108031
H	 3.0255329581	 2.6232408174	 2.6547731154	 0.233341
H	 3.4875616897	 1.861051807	 0.4738602897	 0.101914
H	 1.4389451245	 2.1178129899	-1.1562649734	 0.110854
97.5018	158.3366	271.1428	339.9065	417.9235	511.4424	571.9896	613.9314	662.0543	710.3449	770.2201	803.2343	819.4432	850.7634	876.5603	907.7541	929.1545	974.4165	993.3597	1010.3029	1072.7764	1097.0752	1107.144	1111.2937	1154.7554	1161.2153	1219.8191	1254.9128	1289.0811	1297.8715	1311.5519	1354.2994	1448.1307	1721.9767	1867.3601	3009.6707	3022.0136	3079.9328	3198.2121	3198.5847	3211.7115	3453.5607
O=C1CC=C2C3NC3C12	O=C1C[CH][C]2[C@H]3N[C@H]3[C@@H]12	
InChI=1S/C7H7NO/c9-4-2-1-3-5(4)7-6(3)8-7/h1,5-8H,2H2	InChI=1S/C7H7NO/c9-4-2-1-3-5(4)7-6(3)8-7/h1,5-8H,2H2/t5-,6-,7+/m1/s1
