19
gdb 76220	2.61504	1.51078	1.16879	1.8058	76.99	-0.2204	0.0118	0.2321	1109.8754	0.157995	-423.018724	-423.009781	-423.008837	-423.051702	34.632	
C	 0.0118013945	 1.4998602003	 0.050045164	-0.484594
C	-0.0351551983	 0.0095390323	-0.0354861982	 0.263613
C	-0.0608151904	-0.763897566	-1.1269035585	-0.183099
C	-0.0279031173	-2.2184298931	-0.7920342026	-0.162183
C	 1.2415147696	-2.6774175885	-0.0756853514	-0.322633
C	 0.035127765	-2.2775627941	 0.7207026291	 0.393041
O	-0.5440070445	-3.2962965847	 1.4740682514	-0.470387
C	-0.0448606151	-0.8378193067	 1.2360755687	-0.037542
O	 0.9473909583	-0.4760587763	 2.1860349846	-0.426232
H	 0.8671335767	 1.8248661875	 0.6531734128	 0.134413
H	 0.0827102274	 1.9618050838	-0.9382583308	 0.119193
H	-0.882477376	 1.8950435282	 0.5500832277	 0.124674
H	-0.0608682931	-0.3960305736	-2.1482735275	 0.092818
H	-0.586245709	-2.9478777755	-1.3673823148	 0.092595
H	 1.445995845	-3.7426118117	-0.0728283538	 0.125226
H	 2.1163011384	-2.0356401828	-0.1259346874	 0.102329
H	-1.4896057619	-3.1211202159	 1.5370451137	 0.2809
H	-0.9933742895	-0.6984638687	 1.7776877051	 0.078454
H	 1.7981440602	-0.7633979745	 1.8355760678	 0.279416
108.2944	166.7156	212.2737	225.4652	251.5093	283.6251	310.4901	326.7773	391.2222	458.7229	491.4426	554.3887	613.3622	672.7957	744.1784	840.74	862.2166	887.1733	922.1617	958.7479	970.9711	996.6317	1053.5257	1063.255	1065.1286	1081.2281	1098.4364	1186.1503	1217.2289	1239.2949	1265.9417	1292.9921	1331.268	1335.7916	1400.5471	1411.3195	1432.2422	1472.7755	1477.7192	1490.1892	1708.1527	2989.8319	3019.0288	3071.0997	3113.9829	3119.1	3172.7019	3183.6972	3217.1248	3794.523	3797.7939
CC1=CC2CC2(O)C1O	CC1=C[C@H]2C[C@@]2(O)[C@H]1O	
InChI=1S/C7H10O2/c1-4-2-5-3-7(5,9)6(4)8/h2,5-6,8-9H,3H2,1H3	InChI=1S/C7H10O2/c1-4-2-5-3-7(5,9)6(4)8/h2,5-6,8-9H,3H2,1H3/t5-,6-,7-/m0/s1
