19
gdb 13265	7.96752	0.8376	0.79946	2.8186	77.62	-0.2429	0.0296	0.2725	1475.3603	0.164591	-365.048488	-365.039808	-365.038864	-365.082852	30.797	
C	-0.2686904255	 1.5679620036	-0.0575888788	-0.313628
N	-0.049938272	 0.1544817023	 0.1638717112	-0.2095
C	-1.0354842354	-0.6119923907	 0.0157418943	 0.122039
O	-0.9214457231	-1.9371442158	 0.2359394642	-0.208813
C	-2.0311376612	-2.752576868	-0.1000819018	 0.160243
C	-1.9894203576	-3.5210590116	-1.4445574922	-0.246282
C	-2.5630701299	-4.7520781093	-0.6877555663	-0.21697
C	-2.0912800546	-4.1003063833	 0.6432323501	-0.247979
H	 0.4105666977	 1.9278404982	-0.83896962	 0.126261
H	-1.3001659065	 1.8230302656	-0.3534031254	 0.093297
H	-0.0267812739	 2.1264463551	 0.8541523952	 0.126704
H	-2.046295778	-0.2866177792	-0.2806733929	 0.069894
H	-2.9621843661	-2.1825813197	 0.0118677564	 0.082164
H	-2.5512659438	-3.1142354624	-2.2884276038	 0.099114
H	-0.9511993253	-3.6825063519	-1.7467650291	 0.121184
H	-3.6528441937	-4.8042405219	-0.7556714899	 0.107061
H	-2.1516466222	-5.7306948564	-0.9388530931	 0.108286
H	-1.0802828417	-4.4195035169	 0.909481196	 0.124016
H	-2.7334507572	-4.1720306078	 1.5233427458	 0.10291
31.0274	91.9712	110.269	196.7918	207.9696	296.0379	337.7994	385.5693	423.3752	563.8793	679.7317	782.7186	789.1235	910.0861	922.1814	945.1224	974.3143	983.7197	1048.5997	1068.4852	1096.4076	1141.982	1152.9209	1171.2991	1193.7545	1238.2026	1246.2768	1255.8997	1260.8056	1277.4839	1296.4517	1379.8993	1426.5658	1451.4345	1472.9338	1481.3784	1487.5116	1505.8037	1510.6251	1778.3805	2962.4143	2979.8993	3024.4619	3055.4631	3063.5453	3067.959	3071.7797	3075.0447	3114.7121	3122.4259	3134.5489
CN=COC1CCC1	CN=COC1CCC1	
InChI=1S/C6H11NO/c1-7-5-8-6-3-2-4-6/h5-6H,2-4H2,1H3	InChI=1S/C6H11NO/c1-7-5-8-6-3-2-4-6/h5-6H,2-4H2,1H3
