19
gdb 42123	2.37589	1.65567	1.06779	2.0707	78.59	-0.2415	0.0217	0.2633	1134.616	0.160288	-422.970117	-422.961768	-422.960824	-423.002766	31.856	
C	-0.1230699314	 1.1415616994	 0.5365852501	-0.062716
C	 1.2937516451	 1.7117761372	 0.3702539853	-0.085264
O	 2.2987955007	 0.9011709304	 0.9664435824	-0.2396
C	 3.2643575772	 0.3545900735	 0.0702620231	-0.201601
C	 2.5942030903	-0.3910920276	-0.9941065541	 0.028317
C	 1.6941596523	-0.7953331042	-1.685193939	 0.091882
C	 0.3619658153	-1.0499106393	-2.2106450492	-0.346782
C	-0.5783328561	-0.0109909437	-1.5425198391	-0.062903
O	-0.432241046	-0.0641088192	-0.1380883553	-0.233063
H	-0.2792958337	 0.9187777319	 1.5969817422	 0.119564
H	-0.8319009461	 1.939225801	 0.2554931498	 0.082348
H	 1.514540172	 1.9015520333	-0.6861391375	 0.103515
H	 1.2996067645	 2.6835004222	 0.8861892336	 0.09824
H	 3.900729236	 1.1491098944	-0.3515256572	 0.113279
H	 3.9061222392	-0.283364554	 0.6858672803	 0.135975
H	 0.2979781171	-0.9532402955	-3.3008711417	 0.121187
H	 0.0273169711	-2.061660801	-1.9536593289	 0.138027
H	-0.3427047464	 0.9869997032	-1.9334615924	 0.099367
H	-1.620515641	-0.2401737618	-1.8073065325	 0.100228
143.1902	148.7539	179.6624	217.7326	253.3488	342.6086	364.0543	386.7175	402.9749	509.4166	564.0465	595.0617	751.9594	798.8558	819.648	885.7835	924.3913	972.0581	1009.0966	1029.8096	1066.6363	1108.2085	1143.5454	1152.0167	1156.0815	1226.2887	1265.5087	1270.6922	1310.0614	1324.2225	1343.7707	1377.0513	1395.9844	1415.6687	1417.887	1470.606	1475.2326	1482.3212	1488.0919	1507.1006	2349.9797	2962.8247	2975.1592	2996.2739	3002.6148	3033.3441	3046.6108	3060.6342	3073.2505	3075.2236	3086.3042
C1COCC#CCCO1	C1COCC#CCCO1	
InChI=1S/C7H10O2/c1-2-4-8-6-7-9-5-3-1/h2,4-7H2	InChI=1S/C7H10O2/c1-2-4-8-6-7-9-5-3-1/h2,4-7H2
