18
gdb 109112	2.98854	1.20821	0.95	2.971	75.1	-0.2192	-0.0134	0.2059	1253.8291	0.147237	-439.12918	-439.120025	-439.119081	-439.163602	33.448	
C	 0.0826482574	 1.4665649116	 0.2732559146	-0.378523
C	-0.0315280312	-0.0149508718	-0.1269916342	-0.294632
C	-1.4304606939	-0.5415914993	-0.102536822	 0.264054
C	-2.1673022689	-0.9982838219	-1.1211426203	-0.135606
N	-3.4596226214	-1.4087514088	-0.7102537429	-0.337701
C	-3.5615469526	-1.3348719189	 0.6581207374	 0.395262
O	-4.4279626051	-1.7912603078	 1.3703763654	-0.379795
C	-2.2986197055	-0.5880467134	 1.1362338522	-0.069715
O	-1.7050792109	-1.2403547103	 2.2372033633	-0.434227
H	 1.1258390073	 1.7951267951	 0.2420460494	 0.115425
H	-0.4961496262	 2.1038078905	-0.4029203868	 0.116134
H	-0.2864290803	 1.6300338457	 1.2905209455	 0.129914
H	 0.3896080809	-0.1615721319	-1.1285361665	 0.09893
H	 0.5805407297	-0.6125970688	 0.5610818036	 0.124928
H	-1.9059942014	-1.0663439374	-2.1683092932	 0.128385
H	-4.0779361836	-1.981169696	-1.2631682731	 0.261425
H	-2.6104061527	 0.4370004413	 1.410946277	 0.100707
H	-2.4373660315	-1.595747608	 2.7598877105	 0.295033
48.669	87.2423	160.3048	180.858	233.9143	266.6668	328.5763	369.0925	405.9342	489.0065	520.1411	558.1972	618.1462	713.1533	754.677	794.1317	857.6652	872.4981	905.6109	969.0671	1049.8305	1078.8513	1094.3276	1135.8625	1201.1093	1211.3769	1253.4784	1283.3652	1323.6009	1348.8697	1376.9394	1393.0544	1406.9327	1419.9849	1476.8636	1499.055	1506.131	1711.5963	1836.0233	2929.3059	3020.488	3037.126	3059.2733	3109.3911	3110.7686	3230.4055	3641.0424	3750.9058
CCC1=CNC(=O)C1O	CCC1=CNC(=O)[C@H]1O	
InChI=1S/C6H9NO2/c1-2-4-3-7-6(9)5(4)8/h3,5,8H,2H2,1H3,(H,7,9)	InChI=1S/C6H9NO2/c1-2-4-3-7-6(9)5(4)8/h3,5,8H,2H2,1H3,(H,7,9)/t5-/m0/s1
