22
gdb 117533	2.15306	0.99105	0.71061	2.921	82.99	-0.2732	0.0341	0.3073	1619.7319	0.19213	-404.368927	-404.357811	-404.356867	-404.405705	39.366	
C	 0.0621749156	 1.5522977991	 0.0081903315	-0.40657
C	 0.0225251276	 0.0181742601	 0.0152402429	 0.031925
C	 0.7906361465	-0.5305032298	 1.2255453274	-0.407743
C	-1.4415393573	-0.5162406018	-0.0098632947	-0.144847
C	-2.2730133685	-0.0111972551	-1.2093381501	-0.191946
C	-3.6995586213	-0.5503458038	-1.2397753872	-0.09085
O	-4.3623784553	 0.0916735633	-2.317467682	-0.421271
C	-1.441730594	-1.9855014804	 0.0144142275	 0.288909
N	-1.4403425452	-3.1418982235	 0.0164792402	-0.347513
H	 1.0964751616	 1.8985322488	 0.0953276608	 0.120649
H	-0.3504994124	 1.9806495899	-0.908121285	 0.12633
H	-0.4954062158	 1.9645653006	 0.8578745749	 0.116323
H	 0.5120185006	-0.3461196177	-0.8974456944	 0.09383
H	 0.7972974044	-1.6233799394	 1.2424525902	 0.144317
H	 1.8290164099	-0.1865224707	 1.205418264	 0.11805
H	 0.3438411769	-0.179997997	 2.1637587846	 0.11491
H	-1.9329172394	-0.1859758089	 0.9170505858	 0.119506
H	-2.3283071313	 1.0794287209	-1.168182548	 0.12228
H	-1.7712138015	-0.2761403478	-2.1464958836	 0.121347
H	-3.6888384009	-1.6422185372	-1.3662671019	 0.116071
H	-4.1981920849	-0.3358860627	-0.2792972401	 0.086439
H	-5.2280060654	-0.3134759766	-2.4222714029	 0.289852
51.9082	86.851	93.8447	132.2616	154.6945	218.1294	233.0961	254.7797	265.2093	317.6113	327.4903	402.3081	413.8672	453.3983	546.0043	613.496	788.7223	840.1444	878.8054	934.0464	958.5231	968.4895	1017.2513	1048.9073	1077.6325	1098.8592	1144.0968	1156.2116	1188.0911	1224.042	1248.206	1285.4802	1315.1513	1336.2534	1348.9154	1352.326	1371.658	1404.8261	1425.2341	1467.2064	1486.3149	1492.1312	1496.4559	1504.9169	1514.8668	1529.5969	2348.9249	2959.7053	3005.8923	3018.8891	3024.7776	3029.8149	3036.6028	3054.9212	3096.0359	3102.7936	3109.7468	3121.3052	3123.5444	3834.1962
CC(C)C(CCO)C#N	CC(C)[C@@H](CCO)C#N	
InChI=1S/C7H13NO/c1-6(2)7(5-8)3-4-9/h6-7,9H,3-4H2,1-2H3	InChI=1S/C7H13NO/c1-6(2)7(5-8)3-4-9/h6-7,9H,3-4H2,1-2H3/t7-/m0/s1
