12
gdb 130758	6.47353	0.92163	0.81076	4.0658	61.69	-0.2889	-0.0222	0.2667	1287.2391	0.075707	-472.60235	-472.594676	-472.593732	-472.635397	27.241	
O	 0.2119748788	-0.0309051162	-0.000203137	-0.352207
C	 0.0337158741	 1.1390103307	 0.0088532191	 0.517352
O	-1.1497333257	 1.8000450455	 0.028514029	-0.228686
N	-0.9089274566	 3.2001338218	 0.0332026118	-0.16641
C	 0.3673969394	 3.2967336617	 0.0165425809	 0.472839
C	 1.1930199477	 4.5420894369	 0.012667342	-0.497813
C	 0.4120787465	 5.7695638883	 0.028453374	 0.328088
C	-0.2068608454	 6.7965847843	 0.0410364542	-0.415809
O	 1.0245478685	 2.1123629668	 0.0009795612	-0.229541
H	 1.8669511464	 4.4981001587	 0.879038849	 0.178764
H	 1.845508698	 4.5068368543	-0.8703435113	 0.178756
H	-0.7661788316	 7.6996778771	 0.0516871371	 0.214665
48.2307	111.3116	173.9202	277.9019	308.0057	328.4019	417.6705	551.9469	631.9116	648.2055	678.0228	722.2404	772.3755	780.6843	882.3456	953.3337	959.4459	966.482	1013.5219	1148.229	1230.6361	1272.0492	1415.8124	1450.4385	1697.0363	1957.0824	2260.1727	3021.8382	3048.7012	3503.551
O=C1ON=C(CC#C)O1	O=c1onc(CC#C)o1	
InChI=1S/C5H3NO3/c1-2-3-4-6-9-5(7)8-4/h1H,3H2	InChI=1S/C5H3NO3/c1-2-3-4-6-9-5(7)8-4/h1H,3H2
