17
gdb 5618	3.17806	1.78997	1.24755	1.7256	70.38	-0.1933	0.0323	0.2256	985.8758	0.143018	-363.888911	-363.88082	-363.879876	-363.921392	30.036	
C	 0.0125959142	 1.5406623679	 0.1260251633	-0.368777
C	-0.0379325193	 0.0097701982	-0.0300668124	-0.314809
C	 0.6854720738	-0.4976586084	-1.2421440094	 0.219093
C	 0.1549875642	-0.9009158493	-2.4283375764	-0.102773
O	 1.1158812665	-1.2990908122	-3.2944542191	-0.150249
C	 2.3137453019	-1.1390741708	-2.651427645	-0.080638
C	 2.1132878033	-0.6585560516	-1.3922782514	 0.111827
N	 3.0545862226	-0.4522030681	-0.3702979298	-0.608509
H	 1.0424202059	 1.9088182462	 0.1947483442	 0.108167
H	-0.450438171	 2.0341767075	-0.7338298669	 0.12305
H	-0.5143817427	 1.8603567161	 1.0307158455	 0.113413
H	 0.3876246032	-0.4593707733	 0.8661517416	 0.112634
H	-1.085179952	-0.3090321086	-0.0748601343	 0.105712
H	-0.8601085282	-0.9663901043	-2.7865000544	 0.127235
H	 3.1918673961	-1.4236028259	-3.2063196765	 0.118179
H	 4.0075604009	-0.455680351	-0.7108374941	 0.241819
H	 2.8934044607	 0.4054254676	 0.142854985	 0.244626
78.5221	144.6602	181.615	209.6475	264.2748	294.1696	418.501	432.7118	605.083	616.5185	659.1025	705.902	710.297	767.1809	775.9591	793.8903	888.7027	965.9259	1060.3718	1079.2549	1084.6269	1107.6813	1202.7669	1219.8187	1257.7994	1299.2595	1330.2652	1362.2754	1408.3374	1438.7584	1482.5931	1494.0107	1503.7735	1587.787	1645.6757	1678.8721	3025.5254	3031.1501	3063.4504	3097.2902	3110.8007	3263.951	3277.4175	3531.6009	3620.0624
CCC1=COC=C1N	CCc1cocc1N	
InChI=1S/C6H9NO/c1-2-5-3-8-4-6(5)7/h3-4H,2,7H2,1H3	InChI=1S/C6H9NO/c1-2-5-3-8-4-6(5)7/h3-4H,2,7H2,1H3
