16
gdb 67169	2.99211	1.61983	1.57131	4.9643	67.53	-0.2562	0.0091	0.2652	926.4087	0.125272	-437.874515	-437.867495	-437.866551	-437.905824	27.51	
C	-0.0572406119	 1.5515534316	-0.0007365049	-0.50713
C	-0.0207025752	 0.059250452	-0.0239019113	 0.313442
C	 0.4608927628	-1.0061706939	-1.0107731556	-0.169056
C	 1.2987985079	-1.5992331665	 0.1045373833	-0.201774
N	 0.5385000803	-0.7414973182	 1.1264617799	-0.254525
C	-0.5483895137	-1.6009297306	 1.5558849764	 0.435897
O	-0.6660625783	-2.1473541733	 2.60515848	-0.332564
O	-1.4267225194	-1.7772723541	 0.5095625613	-0.227351
C	-0.9909554586	-0.9307818144	-0.5379055533	 0.037841
H	 0.9447348863	 1.9688727843	 0.1376738176	 0.138041
H	-0.4641168584	 1.9370776244	-0.9406661235	 0.128134
H	-0.6899922206	 1.911397548	 0.8176632507	 0.140978
H	 0.7218315946	-0.9118040999	-2.0580902527	 0.10315
H	 1.251777614	-2.6771321292	 0.2898232973	 0.134939
H	 2.3406820749	-1.2755893501	 0.083690257	 0.132885
H	-1.7733618348	-0.6857852802	-1.2431705722	 0.127091
132.6855	193.2292	229.2226	274.9732	330.8808	473.1615	529.3008	589.2178	654.7744	748.4942	767.256	820.2191	841.9474	853.7863	882.1224	936.6458	954.3887	989.9336	1004.0585	1032.9005	1048.5973	1082.491	1106.1365	1143.182	1179.4403	1192.8092	1257.0804	1305.891	1316.4653	1411.4297	1470.1495	1477.5414	1497.1041	1512.9624	1912.9073	3035.6932	3053.6334	3103.6215	3112.9393	3119.7229	3188.0012	3220.9018
CC12C3CN1C(=O)OC23	C[C@@]12[C@H]3CN1C(=O)O[C@@H]23	
InChI=1S/C6H7NO2/c1-6-3-2-7(6)5(8)9-4(3)6/h3-4H,2H2,1H3	InChI=1S/C6H7NO2/c1-6-3-2-7(6)5(8)9-4(3)6/h3-4H,2H2,1H3/t3-,4+,6-/m0/s1
