16
gdb 12132	3.84749	1.71849	1.69578	2.0653	64.14	-0.2107	0.0785	0.2892	837.533	0.128902	-383.652291	-383.645038	-383.644094	-383.683063	29.318	
O	-0.0952163215	 1.3970793715	 0.0290877834	-0.454208
C	 0.0151159198	 0.0194436197	 0.0462799034	 0.401957
C	-0.2957658189	-0.8431157476	-1.1471707379	-0.370613
C	-1.1153205167	-0.9711627604	 0.1255814462	-0.187915
C	-0.3691897464	-1.7014661096	 1.2893536012	 0.401906
O	-1.0413100091	-2.0913260252	 2.4323055336	-0.454171
C	 1.0117976902	-2.1895568854	 0.9430249247	-0.370578
C	 0.763826285	-0.714094418	 1.2062588203	-0.187916
H	 0.6721159526	 1.753901141	-0.4334935819	 0.284413
H	-0.8181369072	-0.2982590432	-1.9289368768	 0.116042
H	 0.3505424445	-1.6309382753	-1.51954469	 0.108547
H	-2.1805963876	-0.7836732263	 0.1551215693	 0.101773
H	-1.3862600905	-2.9804581727	 2.2891841633	 0.28443
H	 1.4981179647	-2.6885502417	 1.7768866281	 0.11603
H	 1.2981016059	-2.5791940274	-0.0281778232	 0.108549
H	 1.2522939851	-0.1733325496	 2.0061407963	 0.101757
162.7878	276.8365	281.6532	311.7123	334.1601	411.7015	425.4383	458.2184	471.9749	597.8479	627.0329	786.0129	829.034	842.7406	859.2464	916.5537	917.2618	980.024	992.3882	1002.7087	1012.9894	1053.5949	1084.4666	1099.954	1156.2891	1171.1687	1224.9266	1272.1457	1286.5537	1309.1166	1402.9619	1408.3006	1488.9698	1512.5413	3114.9002	3128.0891	3196.8848	3202.4922	3206.4994	3208.6652	3777.0368	3777.6069
OC12CC1C1(O)CC21	O[C@]12C[C@H]1[C@@]1(O)C[C@@H]21	
InChI=1S/C6H8O2/c7-5-1-3(5)6(8)2-4(5)6/h3-4,7-8H,1-2H2	InChI=1S/C6H8O2/c7-5-1-3(5)6(8)2-4(5)6/h3-4,7-8H,1-2H2/t3-,4+,5-,6+/m1/s1
