17
gdb 16619	3.30671	2.15603	1.5144	2.2451	69.35	-0.2308	0.0093	0.2401	859.7706	0.143435	-363.845255	-363.838015	-363.837071	-363.8764	28.3	
C	-0.0474377025	 1.5081824948	 0.0533896973	-0.487498
C	-0.0812925703	 0.0174945631	-0.0207289594	 0.277733
C	-0.0752743374	-0.7628976876	-1.1060800343	-0.164628
C	-0.0013745856	-2.2066910696	-0.7302790402	-0.071911
N	 1.2565364056	-2.5397808867	 0.0152451596	-0.352777
C	-0.0014007724	-2.257393898	 0.7466953581	-0.079085
C	-0.0120504757	-0.8159956429	 1.2648557346	 0.052951
O	 1.1351860674	-0.5067118568	 2.04136024	-0.43639
H	 0.8181812139	 1.8345139719	 0.6406037485	 0.143174
H	 0.0051490165	 1.9670642021	-0.9373121476	 0.119333
H	-0.9360411777	 1.8980305529	 0.5671135565	 0.123582
H	-0.0685428161	-0.4151103412	-2.1331059692	 0.093627
H	-0.4528299527	-2.9798195379	-1.3422430076	 0.091439
H	 1.3989149626	-3.5484538776	-0.0033684455	 0.230634
H	-0.4709739875	-3.0515142732	 1.3154323496	 0.090066
H	-0.8732142077	-0.6256397374	 1.9171473473	 0.081822
H	 1.8729156096	-0.8940096861	 1.5478259323	 0.287928
131.3726	180.681	225.9757	249.021	339.2281	463.4326	497.4583	523.0107	579.8762	685.7465	704.793	792.5299	834.3453	873.5722	879.9391	902.6519	965.9058	969.9013	1023.6208	1059.0174	1074.7125	1085.9255	1128.0012	1151.9256	1186.2943	1253.7582	1281.5069	1291.2177	1334.0931	1363.2365	1402.0027	1410.9721	1441.6127	1474.5096	1489.3466	1708.6166	3020.556	3036.4305	3075.6966	3116.2167	3169.4291	3180.2835	3193.8941	3477.5744	3730.8755
CC1=CC2NC2C1O	CC1=C[C@H]2N[C@H]2[C@H]1O	
InChI=1S/C6H9NO/c1-3-2-4-5(7-4)6(3)8/h2,4-8H,1H3	InChI=1S/C6H9NO/c1-3-2-4-5(7-4)6(3)8/h2,4-8H,1H3/t4-,5-,6+/m1/s1
