16
gdb 10032	3.11108	1.13183	0.86654	1.8663	72.41	-0.2407	-0.037	0.2038	1326.3243	0.125934	-383.704546	-383.694532	-383.693588	-383.742648	32.153	
C	-0.0683679794	 1.3857172214	 0.3258835101	-0.239398
O	-0.2953636463	 0.0082751044	 0.0806876941	-0.242373
C	 0.4501498281	-0.48960507	-1.0195949747	-0.121451
C	 1.923260712	-0.6684270065	-0.5994156765	 0.146196
O	 2.8626997335	-0.2299805823	-1.2046981287	-0.234903
C	-0.0664109188	-1.7926944275	-1.4137832561	-0.006087
C	-0.4202743075	-2.8976381808	-1.736112003	 0.15345
C	-0.8731027986	-4.2224926186	-2.1299145437	-0.501835
H	 0.9817763103	 1.6020810553	 0.5688703513	 0.120721
H	-0.3555116412	 1.9996068322	-0.5404551875	 0.116726
H	-0.6916338713	 1.6581424673	 1.1797954627	 0.136357
H	 0.4271423041	 0.2139291518	-1.8663450454	 0.107942
H	 2.0279276063	-1.2424303314	 0.3473868808	 0.095428
H	-0.0272007783	-4.9058145346	-2.261246026	 0.156041
H	-1.5334208778	-4.6520736768	-1.3690273005	 0.15784
H	-1.4267434149	-4.1890585238	-3.0742565868	 0.155347
7.2379	51.0618	83.5107	99.59	133.2231	189.0065	275.3448	292.1327	344.3512	369.4449	459.4688	495.1149	515.0671	813.6215	967.6776	1019.4595	1037.4816	1051.785	1055.2538	1119.0832	1174.1869	1183.208	1217.1265	1267.6313	1353.144	1396.3637	1413.0347	1474.4669	1476.0969	1477.5712	1488.6599	1508.476	1837.4404	2369.1901	2898.8099	2985.2683	2991.0275	3031.138	3039.1715	3094.13	3095.7507	3127.9838	7.2391	51.0615	83.5107	99.5898	133.2231	189.0066	275.345	292.1331	344.3516	369.4453	459.4692	495.1154	515.0673	813.6215	967.6776	1019.4595	1037.4817	1051.7851	1055.2539	1119.0832	1174.187	1183.208	1217.1264	1267.6314	1353.1441	1396.3638	1413.0346	1474.4669	1476.0969	1477.5712	1488.6598	1508.4759	1837.4404	2369.1903	2898.8099	2985.2683	2991.0274	3031.138	3039.1715	3094.13	3095.7507	3127.9838
COC(C=O)C#CC	CO[C@@H](C=O)C#CC	
InChI=1S/C6H8O2/c1-3-4-6(5-7)8-2/h5-6H,1-2H3	InChI=1S/C6H8O2/c1-3-4-6(5-7)8-2/h5-6H,1-2H3/t6-/m1/s1
