16
gdb 86852	2.87984	1.26054	1.04594	3.0572	70.12	-0.2472	0.0045	0.2517	1156.7307	0.12431	-437.885137	-437.876635	-437.87569	-437.918553	31.483	
N	 0.3061832086	 0.9602479563	 0.6785675846	-0.513666
C	-0.223944817	-0.1360781689	-0.1119304022	-0.10936
C	-1.6986273823	-0.0011365785	-0.4936756675	-0.242522
C	-1.7876581961	-0.892229515	-1.754114576	-0.090547
O	-0.483651673	-0.7797862469	-2.3824650488	-0.213734
C	 0.4433616283	-0.3503574367	-1.480358946	 0.419299
O	 1.5878181819	-0.1606247901	-1.7723968338	-0.340534
C	-2.0879018225	-2.2889818738	-1.4522533447	 0.361723
C	-2.3460653708	-3.4319197303	-1.1880774744	-0.471435
H	 1.3038177739	 0.8108373639	 0.8101819101	 0.245792
H	 0.2326435855	 1.825895504	 0.1486126833	 0.230897
H	-0.0794031214	-1.0669676591	 0.4527205239	 0.128665
H	-2.3907684502	-0.3129821629	 0.2875336599	 0.136932
H	-1.9204311867	 1.0365506418	-0.7654948055	 0.115654
H	-2.5089349698	-0.5083674792	-2.4803101554	 0.130309
H	-2.5725021482	-4.4458178846	-0.9652580073	 0.212527
77.6265	91.3666	186.488	223.6728	260.7072	268.6077	371.1569	449.0169	476.4667	570.5519	602.3376	642.6572	681.9569	711.6374	767.6781	801.6274	844.8156	925.1081	968.552	997.7205	1027.9292	1034.99	1141.2998	1163.4269	1194.4635	1238.2002	1296.1162	1306.3327	1343.4242	1372.3636	1413.5108	1487.9545	1667.0334	1882.3886	2241.0614	3026.9146	3056.4908	3078.8541	3143.928	3477.3691	3500.6295	3551.2001
NC1CC(OC1=O)C#C	N[C@H]1C[C@@H](OC1=O)C#C	
InChI=1S/C6H7NO2/c1-2-4-3-5(7)6(8)9-4/h1,4-5H,3,7H2	InChI=1S/C6H7NO2/c1-2-4-3-5(7)6(8)9-4/h1,4-5H,3,7H2/t4-,5-/m0/s1
