25
gdb 122449	4.34642	0.61067	0.58593	0.9234	91.49	-0.2491	0.088	0.3371	2044.3248	0.226322	-389.477462	-389.466163	-389.465219	-389.514467	40.725	
C	 0.230247732	 1.3911843193	 0.1249210474	-0.227037
O	-0.0803110847	 0.0354251934	-0.0783056323	-0.231087
C	 0.6957659583	-0.5601839059	-1.0958814258	-0.039452
C	 0.2835666719	-2.0224796478	-1.230750323	-0.240455
C	 1.0694132917	-2.7332451253	-2.3126797089	-0.022353
C	 2.4335941205	-3.3325698449	-2.0342249871	-0.32699
C	 1.2680182935	-4.234882076	-2.3734136223	 0.329427
C	 0.7003786557	-5.131720342	-1.2885476519	-0.452391
C	 1.2547029519	-4.871482911	-3.7517293954	-0.446399
H	 1.2810149789	 1.5313317423	 0.426625105	 0.100713
H	 0.0543967859	 1.9932107908	-0.7814217378	 0.100566
H	-0.4173227121	 1.7613567156	 0.9238594413	 0.124265
H	 0.5460083473	-0.0288101331	-2.0526186281	 0.07963
H	 1.7704310802	-0.4877830863	-0.8551768329	 0.086597
H	 0.4236847888	-2.5056693648	-0.2587507487	 0.104263
H	-0.7913857282	-2.0601959736	-1.4473362202	 0.104365
H	 0.9693041977	-2.2627720758	-3.2898597596	 0.074423
H	 3.2242245853	-3.2009352821	-2.7660685909	 0.102833
H	 2.7796542412	-3.3237291453	-1.0045322529	 0.103967
H	 0.7603532378	-4.677833659	-0.2965194534	 0.115866
H	-0.3517817853	-5.3724834022	-1.4828563741	 0.113269
H	 1.2518059245	-6.0786071461	-1.2494522513	 0.112188
H	 1.8415289567	-5.7979708374	-3.7634889777	 0.111806
H	 0.2333199327	-5.1236693816	-4.0616994211	 0.112374
H	 1.6764232577	-4.2012858712	-4.5074348583	 0.109613
49.4612	78.3819	92.7219	122.9379	183.6218	202.4776	219.3024	238.6029	255.5298	281.8389	362.4499	390.5677	408.3557	478.9754	514.5343	694.8978	795.977	833.3573	884.2133	917.3865	932.8537	970.7058	991.07	1014.1283	1035.4702	1059.4075	1069.6909	1107.2947	1139.809	1157.2472	1162.647	1177.8853	1193.2671	1225.1701	1240.1234	1281.6984	1309.9972	1315.6685	1340.9949	1410.4606	1420.8811	1425.4293	1431.8405	1478.7981	1480.9161	1484.4949	1486.5726	1493.8967	1496.0818	1500.6592	1505.6044	1516.1038	1531.5399	2942.2471	2965.594	2972.1928	3005.6452	3017.1053	3024.0014	3033.6177	3075.038	3078.5882	3082.4168	3095.9262	3109.3903	3111.7639	3115.7915	3119.2014	3201.2497
COCCC1CC1(C)C	COCC[C@H]1CC1(C)C	
InChI=1S/C8H16O/c1-8(2)6-7(8)4-5-9-3/h7H,4-6H2,1-3H3	InChI=1S/C8H16O/c1-8(2)6-7(8)4-5-9-3/h7H,4-6H2,1-3H3/t7-/m0/s1
