14
gdb 51395	2.88232	1.33623	1.08561	4.9466	62.64	-0.2657	-0.0191	0.2466	1080.4466	0.100236	-473.822519	-473.814809	-473.813865	-473.85579	27.609	
O	 0.4440039896	 0.1348684788	-0.1953366074	-0.256546
C	 0.5898728063	 1.3034217786	-0.3687559708	 0.175606
O	 0.9552217309	 2.1398321739	 0.6416635872	-0.196164
C	 0.9814174565	 3.5172114769	 0.3597604877	 0.091049
C	 2.1098393599	 4.3409960664	 0.8707271014	-0.04409
N	 3.3818456694	 3.6216634943	 0.8244523566	-0.334013
C	 3.2569258685	 3.3575531929	-0.5529117416	 0.438502
O	 3.9320034813	 2.7328854606	-1.3150733013	-0.326379
C	 1.9486420011	 4.1435938646	-0.6409143282	-0.298511
H	 0.4580867378	 1.8293510127	-1.3306743517	 0.100041
H	-0.002233195	 3.9822064929	 0.3878738329	 0.129649
H	 1.9985695116	 5.2416463579	 1.4591824762	 0.129526
H	 3.6251571837	 2.8958140275	 1.4897684875	 0.259612
H	 1.6313638685	 4.826709502	-1.4158948283	 0.131719
50.1171	122.9856	140.4158	188.868	277.9991	452.2727	465.8059	529.6957	588.2271	702.6027	746.1252	795.468	801.5983	855.1864	926.0836	936.5532	1025.1044	1043.5601	1052.6225	1065.5277	1086.591	1129.59	1147.4617	1200.6509	1267.6721	1324.1706	1341.2838	1397.7432	1429.301	1876.8222	1912.6327	2990.8153	3134.5452	3212.1377	3228.3202	3551.7677
O=COC1C2NC(=O)C12	O=CO[C@H]1[C@H]2NC(=O)[C@@H]12	
InChI=1S/C5H5NO3/c7-1-9-4-2-3(4)6-5(2)8/h1-4H,(H,6,8)	InChI=1S/C5H5NO3/c7-1-9-4-2-3(4)6-5(2)8/h1-4H,(H,6,8)/t2-,3+,4-/m1/s1
