16
gdb 49510	3.20446	1.31634	1.15771	4.6058	71.17	-0.2417	-0.0276	0.2141	1071.4861	0.125047	-437.894465	-437.887158	-437.886214	-437.926698	27.801	
O	-0.0347162563	 0.0080400242	 0.3797352596	-0.319944
C	-0.0039189071	 1.1916037657	 0.1255661308	 0.130162
N	 1.0778874145	 1.8623517152	-0.3655920146	-0.058884
C	 1.5141028907	 3.2630465706	-0.0717510252	-0.034953
C	 2.5650549823	 2.6525539208	 0.9026159471	-0.233704
C	 2.5090436201	 1.4933274181	-0.146541659	-0.132715
C	 3.1158822636	 2.2089468928	-1.3697220476	 0.458677
O	 3.9641689839	 1.8375912902	-2.1267702224	-0.315292
C	 2.3495327273	 3.5583860904	-1.3340878002	-0.329276
H	-0.8857423022	 1.8595893633	 0.2089618402	 0.07586
H	 0.7551356189	 3.9776613726	 0.242876994	 0.100218
H	 3.5104972111	 3.1835807619	 1.0450343287	 0.118942
H	 2.1316410786	 2.3468404987	 1.8557077919	 0.13471
H	 2.7572391045	 0.4564320561	 0.0542870524	 0.128682
H	 1.7421171716	 3.6930660946	-2.2317773884	 0.14331
H	 3.0313061786	 4.4066388348	-1.2318213473	 0.134209
75.3775	133.4916	196.2846	292.9283	372.4258	439.3208	502.4263	580.0196	602.9013	666.7893	759.4118	772.5308	823.76	848.1176	916.7307	966.6107	970.1386	1009.2937	1026.9908	1045.4865	1071.5198	1126.8625	1137.8623	1173.2986	1217.651	1228.7688	1257.2694	1270.8147	1298.3629	1386.7686	1423.8485	1452.4409	1493.9285	1789.9426	1892.4701	2923.5145	3063.613	3075.2389	3129.1728	3135.7033	3143.5303	3195.714
O=CN1C2CC1C(=O)C2	O=CN1[C@H]2C[C@@H]1C(=O)C2	
InChI=1S/C6H7NO2/c8-3-7-4-1-5(7)6(9)2-4/h3-5H,1-2H2	InChI=1S/C6H7NO2/c8-3-7-4-1-5(7)6(9)2-4/h3-5H,1-2H2/t4-,5+/m0/s1
