15
gdb 44728	2.46755	1.66591	1.17344	4.2884	69.3	-0.2584	-0.0515	0.207	1024.9426	0.112868	-416.782675	-416.775118	-416.774174	-416.815547	27.834	
O	 0.1526211505	 0.0266109388	-0.6005855537	-0.262468
C	 0.0515668309	 1.1313743675	-0.1688275919	 0.40164
C	-1.0794345816	 1.9894925811	 0.4353721325	-0.307112
N	-0.1310566371	 3.1384812195	 0.5810027338	-0.122916
C	 0.5853113555	 3.13394822	 1.8942317352	-0.189402
C	 1.8543439524	 2.4776165966	 1.256424103	-0.174848
C	 2.3880055343	 1.2771062037	 1.8740519012	 0.284982
N	 2.7978806359	 0.3262432876	 2.3882613384	-0.318059
C	 1.0000575995	 2.344585501	-0.0415100822	-0.129671
H	-1.8862551865	 2.2035664843	-0.2738714504	 0.149076
H	-1.5212261694	 1.6195087433	 1.3670673444	 0.142315
H	 0.7514681884	 4.1375866591	 2.290452373	 0.132559
H	 0.1056770882	 2.5213147981	 2.6636575178	 0.129249
H	 2.663330823	 3.198134566	 1.1191207226	 0.143669
H	 1.456421436	 2.7009860836	-0.9681773636	 0.120985
55.4902	87.6649	194.2789	254.5061	395.4149	407.1193	471.3715	520.2686	573.864	644.3734	686.3864	747.2758	851.3328	902.4827	936.1979	941.5097	983.7859	1026.0701	1045.6797	1084.411	1102.4168	1163.6029	1181.3735	1190.715	1200.0193	1255.6928	1278.4617	1310.311	1341.0593	1451.4209	1505.751	1912.8958	2356.6852	3041.4768	3055.7157	3083.6961	3092.6801	3093.6398	3116.4437
O=C1CN2CC(C#N)C12	O=C1CN2C[C@@H](C#N)[C@@H]12	
InChI=1S/C6H6N2O/c7-1-4-2-8-3-5(9)6(4)8/h4,6H,2-3H2	InChI=1S/C6H6N2O/c7-1-4-2-8-3-5(9)6(4)8/h4,6H,2-3H2/t4-,6+/m1/s1
