14
gdb 50977	1.88732	1.10831	0.72434	1.6649	65.02	-0.2802	-0.0581	0.2221	1441.3581	0.097167	-473.848515	-473.838956	-473.838012	-473.885445	30.868	
O	-0.0232217405	-0.0772367105	 0.0805284994	-0.219453
C	-0.0167335024	 1.1170547512	-0.0543876212	 0.141844
C	 1.2602232685	 1.9458139685	-0.0601254548	-0.291453
C	 1.297650679	 2.9671255488	-1.2064371343	-0.075528
O	 0.2243580617	 3.8926822489	-0.9944435255	-0.189069
C	-0.2221306365	 4.5941658664	-2.0746438999	 0.182079
O	-1.1076378755	 5.3816512887	-1.9859640602	-0.242668
C	 2.5891899615	 3.6735161379	-1.2452724902	 0.298203
N	 3.6052658982	 4.2213942082	-1.2801672349	-0.292076
H	-0.9557986956	 1.6973068984	-0.1675013024	 0.112576
H	 1.3188925251	 2.499225563	 0.8852997473	 0.164858
H	 2.1188532047	 1.2737888157	-0.1223989793	 0.155934
H	 1.1636010875	 2.4560554501	-2.1693812998	 0.150182
H	 0.3164840344	 4.3417288749	-3.0066941242	 0.104569
30.994	51.3702	78.0725	120.2766	136.3159	206.9227	250.836	306.4729	411.377	459.1199	523.3284	573.583	674.1741	813.7703	903.7149	979.4772	1034.8565	1039.341	1088.3328	1096.5248	1145.9475	1236.8211	1280.7649	1347.3967	1365.2873	1424.0746	1434.3746	1448.3814	1837.2858	1886.037	2363.4942	2925.7658	2973.9543	3025.9033	3050.0682	3127.1195
O=CCC(OC=O)C#N	O=CC[C@@H](OC=O)C#N	
InChI=1S/C5H5NO3/c6-3-5(1-2-7)9-4-8/h2,4-5H,1H2	InChI=1S/C5H5NO3/c6-3-5(1-2-7)9-4-8/h2,4-5H,1H2/t5-/m1/s1
