17
gdb 62327	4.14723	1.26861	1.13188	1.2936	78.9	-0.2152	0.0319	0.2471	1092.2035	0.134021	-384.566327	-384.558287	-384.557343	-384.59835	32.313	
O	 0.0145950747	 1.4654931473	-0.1345332256	-0.448379
C	-0.0388369168	 0.0687116127	 0.0035496854	 0.180494
C	 1.0250765107	-0.6000693636	-0.720920283	 0.277765
C	 1.9377208102	-1.1187077643	-1.3078117894	-0.438749
C	-0.4517003688	-0.7025804598	 1.2513908112	-0.132953
C	-1.6349703925	-0.132902883	 2.0764154975	-0.078279
C	-2.2297680649	 1.1583431084	 1.5749579884	-0.301548
C	-2.5083264166	-0.1233056173	 0.8341645361	-0.073513
C	-1.3351579481	-0.6971625795	-0.0053546201	-0.097924
H	 0.8667796135	 1.7541937222	 0.2129432415	 0.285451
H	 2.7354403324	-1.5777216186	-1.8376371376	 0.196662
H	 0.1808655748	-1.4988819598	 1.6231478692	 0.098725
H	-1.8700277636	-0.5349291482	 3.0533509773	 0.091863
H	-3.0756026732	 1.4881821138	 2.1729684515	 0.103059
H	-1.6327157581	 1.9497202726	 1.1502856667	 0.142734
H	-3.5090387852	-0.5184576049	 0.7188015671	 0.092639
H	-1.4856650085	-1.490772738	-0.7262242662	 0.101952
122.2715	146.9373	226.6868	263.9792	302.7132	367.1859	440.8432	495.7397	564.8679	580.7542	595.9905	673.1264	676.3344	694.6861	738.14	779.2956	839.8412	877.4308	900.5398	938.571	985.2379	1007.8558	1025.2458	1031.89	1055.9394	1085.149	1101.4858	1105.8071	1195.9119	1245.8035	1255.3967	1280.907	1295.283	1350.6805	1415.2895	1477.2735	2230.982	3133.0687	3181.8475	3191.1623	3192.2515	3202.5614	3262.9981	3501.4404	3791.12
OC1(C#C)C2C3CC3C12	O[C@@]1(C#C)[C@H]2[C@H]3C[C@H]3[C@@H]12	
InChI=1S/C8H8O/c1-2-8(9)6-4-3-5(4)7(6)8/h1,4-7,9H,3H2	InChI=1S/C8H8O/c1-2-8(9)6-4-3-5(4)7(6)8/h1,4-7,9H,3H2/t4-,5+,6-,7+,8-
