22
gdb 119164	2.30266	1.25937	0.93057	1.3608	82.65	-0.2413	0.0886	0.3299	1359.5384	0.193277	-404.296725	-404.286972	-404.286028	-404.332223	36.081	
C	 0.1095244114	 1.5464346149	-0.0186399079	-0.385068
C	 0.8197662819	 0.2412787291	-0.3345710151	-0.056129
O	-0.1244162705	-0.6381129244	-0.9380794167	-0.288459
C	 0.3635136332	-1.9275693979	-1.2065327242	 0.405799
C	 0.3829450346	-2.8996019639	-0.0530011282	-0.318956
C	-0.6977838079	-2.9845023512	-1.1119495606	-0.318131
C	 1.45719066	-1.9805296504	-2.2450259438	-0.087912
C	 1.2394993606	-2.6148107875	-3.5722716933	-0.232816
N	 1.3129988859	-1.1528371952	-3.4561369516	-0.312773
H	-0.2877471267	 1.9981865347	-0.9321273634	 0.126831
H	-0.7238932403	 1.3758097705	 0.6689686104	 0.122854
H	 0.8034048931	 2.2546979106	 0.4439487363	 0.115383
H	 1.6640757729	 0.4178173485	-1.0158448802	 0.110429
H	 1.2221141277	-0.2156977313	 0.5825202212	 0.087698
H	 1.1495799575	-3.6673471956	-0.0377625505	 0.11496
H	 0.0979732349	-2.5177969357	 0.9208153465	 0.11771
H	-1.6890998666	-2.6426328043	-0.837744553	 0.123637
H	-0.6711821001	-3.8161782101	-1.8057788893	 0.113909
H	 2.4713045599	-1.9764569468	-1.8491974054	 0.093868
H	 2.0746395826	-3.0760130403	-4.0927713175	 0.115761
H	 0.2741386411	-3.0730797896	-3.7655291604	 0.113021
H	 0.3740455048	-0.7589713541	-3.4577267934	 0.238386
37.435	76.417	103.9287	177.0589	211.6165	242.5487	261.6669	336.9124	362.6267	405.6583	492.1149	576.4731	702.5878	780.8834	823.6339	846.325	851.905	887.4267	911.6174	941.9978	966.5876	972.7414	994.7699	1043.9265	1053.9071	1083.879	1091.2764	1119.5697	1143.886	1155.5263	1187.355	1191.5502	1195.9159	1245.7765	1275.7558	1297.5246	1310.225	1332.9556	1400.8393	1412.1901	1428.8107	1450.9987	1483.0414	1493.1684	1500.8427	1511.1114	1528.1405	2985.9298	3024.5713	3043.9187	3109.5141	3115.0943	3118.4148	3120.2067	3131.4883	3143.5222	3196.6781	3218.3146	3236.949	3491.2371
CCOC1(CC1)C1CN1	CCOC1(CC1)[C@H]1CN1	
InChI=1S/C7H13NO/c1-2-9-7(3-4-7)6-5-8-6/h6,8H,2-5H2,1H3	InChI=1S/C7H13NO/c1-2-9-7(3-4-7)6-5-8-6/h6,8H,2-5H2,1H3/t6-/m1/s1
