16
gdb 19376	4.30382	1.64987	1.4714	2.3863	64.35	-0.2061	0.0599	0.266	879.656	0.130632	-379.795519	-379.788437	-379.787493	-379.826843	27.509	
O	 0.1413153936	 1.3590123637	 0.1946992839	-0.41301
C	 0.0703879158	-0.0359513545	-0.0633938181	-0.184116
C	-1.334465435	-0.5360130787	-0.1270447608	 0.324929
N	-2.1312637123	-0.8619482203	 1.0887970381	-0.353412
C	-1.9200402505	-1.88640871	 0.0364059907	-0.136134
C	-2.9035110086	-1.6075772354	-1.1467872534	-0.056674
N	-3.7225388271	-0.4181727945	-0.8132528883	-0.307702
C	-2.3339596356	-0.251147953	-1.3013910737	-0.108093
H	-0.4272628726	 1.5427135583	 0.9504329142	 0.290833
H	 0.5724016949	-0.1814278049	-1.0270800562	 0.113588
H	 0.630496448	-0.6205130269	 0.6868085615	 0.082891
H	-1.4541716352	-1.0788770038	 1.8234599273	 0.222857
H	-1.4406666097	-2.8326529237	 0.2528561124	 0.097843
H	-3.2138277853	-2.3298370504	-1.8899607235	 0.096615
H	-4.3286524247	-0.2555381315	-1.6186463949	 0.229643
H	-2.0982464956	 0.3195520455	-2.1899278592	 0.099942
93.8105	131.914	282.0922	327.0077	376.5461	430.1347	445.4916	611.4492	672.7094	744.3354	800.4697	815.9125	825.5483	868.2323	909.2339	915.437	946.7697	975.2641	1019.3844	1047.3412	1064.9488	1082.325	1105.6183	1144.4465	1196.6347	1233.8116	1245.8958	1296.167	1327.4966	1352.6874	1370.8203	1414.6278	1446.5295	1498.4875	2957.389	3056.0986	3192.5744	3199.3387	3210.6914	3437.684	3459.5889	3807.8321
OCC12NC1C1NC21	OC[C@]12N[C@H]1[C@H]1N[C@@H]21	
InChI=1S/C5H8N2O/c8-1-5-3-2(6-3)4(5)7-5/h2-4,6-8H,1H2	InChI=1S/C5H8N2O/c8-1-5-3-2(6-3)4(5)7-5/h2-4,6-8H,1H2/t2-,3+,4-,5+/m0/s1
