18
gdb 73749	2.62548	1.50351	1.12691	4.8606	85.57	-0.2365	-0.0385	0.198	1117.2882	0.149296	-364.813946	-364.806145	-364.805201	-364.846257	30.123	
C	-0.0301845524	 1.4693935725	 0.0765730013	-0.524485
C	 0.0105166193	-0.0135677883	 0.0157025682	 0.239419
C	 0.0035255132	-0.8578671509	-1.037344928	 0.149682
C	-0.0454719412	-0.5701391825	-2.4150424407	 0.152778
N	-0.0856423572	-0.3485446298	-3.553483509	-0.364487
C	 0.0624855533	-2.2533702022	-0.3806397823	-0.120494
C	-0.9770042272	-2.0503467234	 0.7701881379	-0.212918
C	 0.0735375991	-0.9705932746	 1.2118251839	-0.112211
C	 1.1554542876	-1.9898258241	 0.7065663598	-0.212907
H	 0.8527607945	 1.8645824911	 0.5947771701	 0.140592
H	-0.0715217213	 1.9094274522	-0.9227776841	 0.151753
H	-0.9031302179	 1.8143187366	 0.6451882654	 0.140627
H	 0.0678292919	-3.125417013	-1.0313988566	 0.083541
H	-1.9759593143	-1.704523967	 0.4956723224	 0.104944
H	-1.0322339664	-2.8985828864	 1.4585806189	 0.103918
H	 0.0910867236	-0.5382148585	 2.211584976	 0.071389
H	 1.2995624188	-2.8324447811	 1.3889625601	 0.103911
H	 2.1150808268	-1.5884106405	 0.3736296765	 0.104949
130.7338	134.2476	171.7421	188.0757	296.777	446.3298	471.0478	511.708	556.2899	595.9775	663.7576	681.0958	818.82	843.0019	850.9256	878.5358	899.1166	995.7143	1007.6379	1024.9261	1052.5579	1067.5877	1084.2085	1111.6743	1126.1842	1193.5169	1211.1064	1227.0354	1235.3662	1251.1586	1268.8401	1337.3367	1411.3768	1474.7576	1477.3716	1479.8783	1516.649	1678.8305	2323.267	3019.2298	3052.6109	3060.7666	3065.6418	3121.9511	3122.461	3125.9951	3127.1172	3142.3151
CC1=C(C#N)C2CC1C2	CC1=C(C#N)[C@@H]2C[C@H]1C2	
InChI=1S/C8H9N/c1-5-6-2-7(3-6)8(5)4-9/h6-7H,2-3H2,1H3	InChI=1S/C8H9N/c1-5-6-2-7(3-6)8(5)4-9/h6-7H,2-3H2,1H3/t6-,7+
