17
gdb 35700	2.40178	1.56386	1.12708	3.715	72.68	-0.2465	-0.0051	0.2414	1092.534	0.136682	-417.969543	-417.961443	-417.960499	-418.002859	29.839	
N	-0.1762022572	-1.0407735081	-0.6294997189	-0.32936
C	-0.1233021775	 0.0489545418	-0.2462662629	 0.286401
C	-0.0052548049	 1.4362947946	 0.19679882	-0.064632
O	 0.0667783305	 1.5723535138	 1.6217514744	-0.280594
C	 1.2771483145	 2.3656540974	 1.5433084275	-0.122503
C	 1.3924554583	 2.1472811325	 0.0248361395	 0.273273
C	 2.5646425623	 1.4114669661	-0.6629234742	-0.307261
C	 2.3996673065	 2.438896179	-1.8112917577	-0.160532
N	 1.5709882991	 3.2598371319	-0.896129457	-0.347665
H	-0.8346704967	 2.0196815977	-0.2291133502	 0.11496
H	 1.1029239344	 3.4103955031	 1.8269291672	 0.115164
H	 2.079695052	 1.9432398209	 2.1576072701	 0.119133
H	 3.5009325222	 1.5243573057	-0.1128557462	 0.119941
H	 2.4064299101	 0.3602693157	-0.9035620262	 0.141833
H	 3.3014648174	 2.944100726	-2.1690705078	 0.112004
H	 1.85836689	 2.0273628963	-2.6723956561	 0.108143
H	 0.7363374489	 3.6954158556	-1.2736462214	 0.221695
56.7894	111.5704	154.5547	206.2895	270.34	365.9884	381.2855	482.8841	551.7603	572.7349	662.4938	768.6533	811.2767	894.2662	907.1973	948.7733	962.3793	965.9505	1018.4276	1025.0181	1057.299	1125.5571	1146.4439	1154.315	1177.2787	1210.8239	1225.0413	1241.7583	1274.8798	1322.5642	1346.1705	1355.5854	1394.5706	1484.7273	1512.8999	1528.9497	2348.3639	2998.6131	3021.962	3027.6913	3077.472	3081.3853	3087.8239	3148.2245	3527.3201
N#CC1OCC11CCN1	N#C[C@H]1OC[C@]21CCN2	
InChI=1S/C6H8N2O/c7-3-5-6(4-9-5)1-2-8-6/h5,8H,1-2,4H2	InChI=1S/C6H8N2O/c7-3-5-6(4-9-5)1-2-8-6/h5,8H,1-2,4H2/t5-,6+/m1/s1
