18
gdb 11538	3.99639	1.17732	1.01506	2.5988	68.74	-0.2419	-0.0123	0.2297	1194.95	0.151537	-384.94062	-384.931679	-384.930735	-384.975278	31.12	
C	-0.5882621189	 1.1469857378	-0.4766639777	-0.377409
C	-0.0730839869	-0.2830964508	-0.607040714	-0.286994
C	 1.3591908943	-0.377096813	-1.1009227747	 0.38337
O	 2.0579552735	 0.5925511575	-1.2874577148	-0.307574
C	 1.8721486035	-1.7870987556	-1.4096962093	-0.322898
C	 1.5658633271	-2.1387415398	-2.8530043599	 0.097667
C	 1.1807630186	-3.4937714763	-3.2638067396	-0.179406
O	 0.2035141377	-2.4553794312	-3.1570129136	-0.23056
H	 0.0387700602	 1.7272801721	 0.204941434	 0.13053
H	-0.573182532	 1.6563858893	-1.4438847262	 0.130255
H	-1.6142245817	 1.1560079053	-0.098538425	 0.109855
H	-0.1192842111	-0.8120236003	 0.3565513743	 0.119436
H	-0.6897082466	-0.8864366158	-1.2870976517	 0.14737
H	 2.9560671019	-1.7969235801	-1.2602940677	 0.126371
H	 1.4069009113	-2.5279159837	-0.7519797208	 0.107977
H	 2.0438715049	-1.4923771033	-3.5896483901	 0.113391
H	 1.3894298891	-3.8351556723	-4.2764319901	 0.121535
H	 1.111648095	-4.2797937598	-2.5128559032	 0.117085
50.2927	71.3327	88.8322	155.6786	200.7722	242.6678	341.8429	368.0559	427.476	541.8953	629.3158	752.5115	796.7602	816.8141	862.3636	925.4107	959.064	1002.6661	1026.2103	1078.2034	1108.6631	1116.8419	1146.8506	1162.3001	1176.0062	1246.6069	1269.7756	1293.0661	1306.3233	1378.5545	1413.79	1429.748	1452.1817	1460.4241	1492.6157	1498.3183	1528.191	1809.403	3011.7473	3048.2829	3050.0076	3051.0249	3084.8888	3103.2876	3119.0047	3121.7753	3126.1581	3173.1087
CCC(=O)CC1CO1	CCC(=O)C[C@H]1CO1	
InChI=1S/C6H10O2/c1-2-5(7)3-6-4-8-6/h6H,2-4H2,1H3	InChI=1S/C6H10O2/c1-2-5(7)3-6-4-8-6/h6H,2-4H2,1H3/t6-/m0/s1
