15
gdb 27767	2.14863	1.97557	1.04286	1.7583	69.24	-0.1782	0.0631	0.2413	1074.4401	0.11431	-453.94631	-453.938542	-453.937597	-453.979705	28.847	
O	 0.1088503149	 1.335984147	-0.071992384	-0.42662
C	 0.1055750056	 0.0034759145	 0.1068496859	 0.413167
N	 1.1471148918	-0.8059260751	 0.0088410643	-0.463103
C	 0.6799892991	-2.0810997674	 0.2722324102	 0.181179
O	 1.5125053361	-3.1474171405	 0.2506121568	-0.437556
C	-0.6598453113	-2.0293890509	 0.5300708966	 0.223169
C	-2.0842481218	-2.4393266307	 0.8697683118	-0.384613
C	-2.4290982497	-0.9037697286	 0.7330198133	-0.167197
N	-1.0004990482	-0.6876972529	 0.417650757	-0.070573
H	 1.0186066438	 1.5778220463	-0.2844099882	 0.312182
H	 2.385569966	-2.8017735516	 0.0315916944	 0.298592
H	-2.5922997091	-3.0776354688	 0.1421180683	 0.126111
H	-2.2464305021	-2.8458649772	 1.8714891642	 0.126152
H	-3.0996586858	-0.6410613064	-0.0880890728	 0.134532
H	-2.7508083192	-0.4080900576	 1.6515510022	 0.134578
21.2545	183.4558	262.9039	291.4178	311.1812	327.4904	379.8505	403.0039	632.4165	637.5275	657.0938	689.7837	697.1141	722.8131	801.711	900.7274	962.821	1052.1763	1102.5979	1139.43	1172.6329	1184.7493	1216.4203	1257.8397	1285.9959	1309.5223	1343.1631	1394.4337	1487.3541	1509.8732	1534.693	1606.0201	1714.4623	3058.6111	3070.2314	3099.6721	3127.9152	3811.7057	3814.0079
OC1=NC(O)=C2CCN12	Oc1nc(O)c2CCn12	
InChI=1S/C5H6N2O2/c8-4-3-1-2-7(3)5(9)6-4/h8H,1-2H2,(H,6,9)	InChI=1S/C5H6N2O2/c8-4-3-1-2-7(3)5(9)6-4/h8H,1-2H2,(H,6,9)
