21
gdb 78600	3.01317	1.36202	1.12295	1.2903	83.16	-0.2498	0.0783	0.3281	1183.4952	0.181492	-387.023895	-387.015185	-387.014241	-387.056547	34.459	
C	-0.1981155163	 1.6038179675	-0.1007931143	-0.425281
C	-0.0501780793	 0.0906026026	-0.0554616319	-0.00731
C	 1.2029723669	-0.5782850008	-0.6661363094	-0.127302
C	 2.094356068	-0.2695482937	 0.5834675005	-0.061566
C	 2.5656674166	-1.7383123259	 0.7221412291	-0.075741
C	 2.9935642808	-2.2733164413	 2.0799569307	-0.418724
C	 1.0802510554	-1.8149414011	 0.304065157	 0.398684
O	 0.2663437556	-2.9247224069	 0.1611781756	-0.479863
C	 0.6588168976	-0.5737672512	 1.149500807	-0.095852
H	 0.7288303662	 2.1136387265	 0.1815854305	 0.110917
H	-0.4709865256	 1.9422779653	-1.1068297399	 0.112173
H	-0.9852581578	 1.9417051609	 0.5828056219	 0.11343
H	-0.9891394723	-0.40171562	-0.3334075174	 0.072069
H	 1.5473576425	-0.602669766	-1.7029810491	 0.058433
H	 2.6732264595	 0.6360472354	 0.7490972162	 0.076055
H	 3.2672440766	-2.0499685371	-0.0644844382	 0.053053
H	 2.3093324416	-1.9546584763	 2.8728552371	 0.116909
H	 3.0132731325	-3.3686441543	 2.080805659	 0.115968
H	 3.9979953548	-1.9248953637	 2.3443825291	 0.112235
H	 0.605158904	-3.4593106313	-0.5651943305	 0.282293
H	 0.3635929228	-0.5789360386	 2.1996107171	 0.069419
163.8784	185.3272	197.0715	210.5307	220.172	261.2031	301.8957	357.4708	404.1881	513.166	579.4615	654.6499	729.2103	748.5447	811.4455	842.2285	857.0861	889.5267	917.1007	947.6155	1002.9147	1026.6717	1045.5784	1062.7585	1068.5014	1084.4148	1114.7143	1123.4949	1140.5504	1154.0207	1177.7387	1210.9212	1229.0731	1240.2969	1283.3326	1303.646	1361.3903	1395.8816	1409.587	1412.6681	1423.6394	1493.7616	1495.4457	1498.9229	1498.9645	3006.3253	3025.9543	3029.9706	3040.9676	3081.7623	3086.7106	3091.4624	3098.0001	3100.1548	3106.7644	3142.89	3804.1914
CC1C2C3C(C)C2(O)C13	C[C@H]1[C@H]2[C@@H]3[C@@H](C)[C@@]2(O)[C@H]13	
InChI=1S/C8H12O/c1-3-6-5-4(2)8(6,9)7(3)5/h3-7,9H,1-2H3	InChI=1S/C8H12O/c1-3-6-5-4(2)8(6,9)7(3)5/h3-7,9H,1-2H3/t3-,4-,5-,6-,7+,8-/m1/s1
