21
gdb 81648	2.77483	1.58013	1.30626	0.5546	89.09	-0.2046	-0.0268	0.1779	1077.694	0.185593	-349.958248	-349.950591	-349.949647	-349.98976	31.663	
C	-0.081895957	 1.5177796988	 0.0031334894	-0.414951
C	 0.0031738844	-0.0036836221	 0.0058981029	 0.03154
C	 1.126404305	-0.5832565814	-0.922743418	-0.063178
C	 2.0483460488	-0.5962600109	 0.3361587565	-0.230499
C	 0.7732685691	-0.5990792665	 1.2356863489	-0.063177
C	 0.3152004587	-1.9833107166	 1.6052813836	-0.090593
C	 0.1537145069	-3.0068832281	 0.7499536881	-0.07653
C	 0.3899833135	-2.9962945544	-0.6942014268	-0.07653
C	 0.8132241383	-1.9609927959	-1.4387693392	-0.090592
H	 0.8956091643	 1.9845638761	 0.1664512645	 0.114321
H	-0.4675189273	 1.8857220388	-0.9542658063	 0.114039
H	-0.7533195857	 1.8729176516	 0.7929229871	 0.114038
H	-0.9872305287	-0.4350865895	-0.159302866	 0.076164
H	 1.4423358089	 0.0706582404	-1.739183538	 0.056901
H	 2.7371862931	-1.4356065489	 0.4427052538	 0.104731
H	 2.598692827	 0.3413343705	 0.4330722999	 0.100995
H	 0.811026695	 0.0423698958	 2.1194901798	 0.056901
H	 0.0980038931	-2.1588615123	 2.655739898	 0.085822
H	-0.1859456604	-3.9557551441	 1.1576966786	 0.082388
H	 0.2001736344	-3.9384487188	-1.2024327022	 0.082388
H	 0.9424976985	-2.1210143224	-2.5060729448	 0.085822
176.4978	206.2653	229.9804	276.9939	292.4554	388.0144	403.6653	449.2174	594.0555	613.8911	699.4482	783.8816	792.4258	800.2751	825.8387	866.4987	879.402	905.1356	929.8711	988.0103	998.6527	1001.3438	1033.2349	1057.6094	1072.1671	1098.9155	1122.7293	1135.7694	1164.6021	1239.0399	1249.5105	1251.5675	1259.6288	1270.8109	1328.6081	1347.1311	1383.2595	1410.0976	1410.478	1448.6928	1482.8033	1496.7246	1498.9772	1655.4164	1696.5494	3024.7026	3064.5114	3067.395	3069.1246	3078.0183	3089.7521	3097.6897	3131.115	3140.2206	3149.0758	3164.0797	3173.9047
CC1C2CC1C=CC=C2	C[C@H]1[C@H]2C[C@@H]1C=CC=C2	
InChI=1S/C9H12/c1-7-8-4-2-3-5-9(7)6-8/h2-5,7-9H,6H2,1H3	InChI=1S/C9H12/c1-7-8-4-2-3-5-9(7)6-8/h2-5,7-9H,6H2,1H3/t7-,8+,9-
