19
gdb 94452	3.0378	1.38668	1.20814	2.6864	77.34	-0.2357	0.0062	0.2418	1102.36	0.1588	-423.013716	-423.005352	-423.004407	-423.047275	31.32	
C	-0.2342890174	 1.4637834844	 0.2357580583	-0.394589
C	 0.0983969355	 0.0037424641	 0.010354399	 0.097026
O	 1.1940755402	-0.1926583095	-0.9163152645	-0.294092
C	 2.0072571488	-0.8375203867	 0.0790666003	-0.120197
C	 0.8859059517	-0.7386326861	 1.1431058743	 0.315578
O	 1.2227840969	 0.0494431949	 2.2753791152	-0.304941
C	 0.8261834671	-0.6036020546	 3.480493092	-0.134343
C	 0.2533411665	-1.9185537773	 3.0359800778	-0.108376
C	 0.2944707508	-1.9910303326	 1.7104793214	-0.144949
H	 0.6226548443	 2.0025068749	 0.6454290827	 0.132011
H	-0.5254905182	 1.9251911559	-0.7129947442	 0.121574
H	-1.0701949789	 1.5613798056	 0.9365503313	 0.113718
H	-0.790368879	-0.5461181037	-0.3299668698	 0.067503
H	 2.3065228841	-1.850709899	-0.2171649946	 0.095608
H	 2.8973181089	-0.2531653427	 0.3415647418	 0.108492
H	 1.6995095979	-0.7209770232	 4.1394081677	 0.11253
H	 0.0921068729	 0.0142335636	 4.0206269713	 0.110721
H	-0.1278417279	-2.6644344105	 3.7214653012	 0.112175
H	-0.0465305242	-2.8072858875	 1.0866539986	 0.11455
47.1702	96.7703	191.6213	198.3093	244.4708	333.4568	365.5953	474.2165	482.3961	535.4356	728.7897	779.6469	798.3222	840.1024	876.011	895.1414	957.4498	961.1878	987.462	1021.6746	1034.5957	1046.5678	1055.1144	1089.9618	1119.7301	1130.3994	1154.6643	1198.0892	1203.63	1216.3974	1282.8543	1348.6635	1363.3509	1378.5331	1385.1389	1404.7188	1483.9415	1485.7528	1513.6964	1517.552	1686.5864	2982.7347	2999.2711	3004.3631	3013.7076	3041.1882	3063.6068	3108.0713	3134.6938	3209.0673	3233.1492
CC1OCC11OCC=C1	C[C@H]1OC[C@]21OCC=C2	
InChI=1S/C7H10O2/c1-6-7(5-8-6)3-2-4-9-7/h2-3,6H,4-5H2,1H3	InChI=1S/C7H10O2/c1-6-7(5-8-6)3-2-4-9-7/h2-3,6H,4-5H2,1H3/t6-,7-/m1/s1
