23
gdb 121176	2.24771	1.01738	0.76725	0.7162	92.12	-0.2526	0.0495	0.3021	1581.1619	0.204496	-351.12085	-351.110689	-351.109744	-351.156349	37.895	
C	-0.0017188256	 1.547557627	 0.328715018	-0.380289
C	-0.0405960662	 0.0524524349	 0.00043612	-0.169052
C	-1.4346037093	-0.56228086	 0.1732929304	-0.171576
C	-1.4712534151	-2.0570962766	-0.1365951884	-0.005512
C	-0.8876653073	-2.9723886159	 0.9821196237	-0.230955
C	-2.3279760607	-3.2913720852	 1.4575908988	-0.223656
C	-2.8643957978	-2.7609724334	 0.0897315261	-0.177585
C	-4.0810308436	-1.9762702426	 0.0675133369	 0.321473
C	-5.0871342479	-1.3158772688	 0.0613734684	-0.463295
H	 1.0023065298	 1.9614567282	 0.1918811894	 0.109565
H	-0.6857991011	 2.1116799644	-0.3149283005	 0.114798
H	-0.2997454434	 1.7325170137	 1.3667806395	 0.113407
H	 0.2960755473	-0.1052669624	-1.0329700513	 0.093454
H	 0.6793636614	-0.4792884643	 0.6360514472	 0.095904
H	-1.7886930044	-0.3851844072	 1.1982416637	 0.093572
H	-2.1470275913	-0.0437880513	-0.4807397455	 0.103974
H	-1.0583188655	-2.2274974882	-1.1361685364	 0.06784
H	-0.378749392	-3.8518369048	 0.5783747571	 0.100377
H	-0.2241670535	-2.4941753187	 1.7068966603	 0.0996
H	-2.5680262768	-4.3271265851	 1.7065415897	 0.102683
H	-2.6470199506	-2.6512758506	 2.2827910053	 0.114013
H	-2.9587453853	-3.595552835	-0.6136630564	 0.099994
H	-5.977748191	-0.7380662882	 0.0537930739	 0.191268
72.6973	97.0142	104.8748	111.6224	177.267	229.6142	250.5754	308.2796	346.0223	428.3533	508.0078	547.5054	613.1259	625.9225	665.7411	744.1652	755.616	832.8045	872.6584	887.7509	922.1965	946.4154	954.3565	993.3341	1046.9412	1056.0118	1068.6618	1106.0557	1130.4133	1164.3576	1219.0689	1234.9637	1246.5722	1263.6093	1270.3085	1284.9147	1310.7618	1331.5945	1345.5819	1372.9764	1400.6373	1412.5684	1478.4527	1483.4455	1493.1906	1499.4045	1500.3674	1510.9294	2227.8332	3010.5826	3017.9678	3029.1743	3035.4396	3038.3585	3047.4043	3059.7469	3064.4862	3071.405	3096.111	3100.7141	3104.1249	3127.917	3504.3008
CCCC1CCC1C#C	CCC[C@H]1CC[C@H]1C#C	
InChI=1S/C9H14/c1-3-5-9-7-6-8(9)4-2/h2,8-9H,3,5-7H2,1H3	InChI=1S/C9H14/c1-3-5-9-7-6-8(9)4-2/h2,8-9H,3,5-7H2,1H3/t8-,9+/m1/s1
