17
gdb 33512	2.71797	1.17929	0.9149	2.466	72.73	-0.2686	0.0077	0.2763	1263.1872	0.135676	-417.965819	-417.957148	-417.956204	-418.000123	31.214	
N	-0.6565533262	-1.0368111838	 0.23940743	-0.341773
C	-0.3963249856	 0.0870262597	 0.1499941733	 0.254543
C	-0.0709040329	 1.4915663277	 0.0174462568	 0.162471
C	-1.0624272908	 2.3253196122	-0.7784082174	-0.30456
C	-1.1449883606	 1.8942685932	-2.2261273996	 0.09414
C	-2.1646856736	 0.949167679	-2.6985691497	-0.167517
O	-2.2829244611	 2.3517332827	-2.9525586525	-0.236532
C	 0.7368378059	 2.0888695643	 1.1268494375	-0.268711
N	 1.3568724274	 1.838344621	-0.1750779608	-0.332763
H	-2.056167668	 2.264331608	-0.3226386913	 0.123874
H	-0.7351082957	 3.368929096	-0.7274114865	 0.126498
H	-0.2048532896	 1.9538631098	-2.7753750615	 0.108168
H	-1.9650162216	 0.3301133869	-3.5711741422	 0.122639
H	-2.883798008	 0.5387435983	-1.9915703387	 0.124213
H	 0.577500666	 3.1357587633	 1.3681145783	 0.138604
H	 0.994462303	 1.4521729713	 1.9675772031	 0.141643
H	 1.9350260016	 1.0022896404	-0.1395508286	 0.255062
59.5943	66.9045	134.3618	184.9556	239.4905	285.1101	364.1783	408.1187	427.2331	580.2731	592.6355	714.1655	815.5516	831.911	874.2602	900.6544	915.8242	941.2901	986.9719	1011.5803	1078.8129	1092.4877	1124.0489	1141.836	1158.1079	1180.1977	1213.8171	1261.4112	1284.8184	1311.1991	1334.1023	1372.6752	1441.7118	1470.9122	1505.6393	1531.4584	2347.1963	3049.011	3090.7713	3094.5753	3114.1317	3118.796	3179.825	3211.7369	3510.7335
N#CC1(CC2CO2)CN1	N#C[C@@]1(C[C@H]2CO2)CN1	
InChI=1S/C6H8N2O/c7-3-6(4-8-6)1-5-2-9-5/h5,8H,1-2,4H2	InChI=1S/C6H8N2O/c7-3-6(4-8-6)1-5-2-9-5/h5,8H,1-2,4H2/t5-,6-/m0/s1
