17
gdb 51745	2.48002	1.20755	0.90483	6.2446	75.62	-0.2726	0.0086	0.2812	1289.0328	0.135797	-418.004036	-417.995189	-417.994245	-418.039106	31.113	
N	 0.3966238676	 1.1658142831	-0.1605065051	-0.42818
C	 0.1839026899	-0.073236398	-0.1039290105	 0.125333
O	-0.9576865047	-0.5353028058	 0.4609649857	-0.178623
C	-1.1731382625	-1.9218887554	 0.4558163736	 0.156829
C	-2.1823007786	-2.4250828872	 1.500332662	-0.257193
C	-2.7372212289	-3.4137015878	 0.4402493081	-0.230766
C	-2.0603153574	-2.5545579911	-0.683297467	-0.232194
C	-2.9648730646	-1.6170217899	-1.3269904709	 0.297696
N	-3.6959476323	-0.8879059416	-1.8468515008	-0.317423
H	 1.2980397917	 1.347766571	-0.5965777606	 0.234924
H	 0.8468232195	-0.8732894985	-0.4625820988	 0.087173
H	-0.2211038946	-2.4638233563	 0.5072247996	 0.096341
H	-1.7837887076	-2.8293266054	 2.4317766634	 0.11646
H	-2.9029172559	-1.6358538695	 1.7267812663	 0.147415
H	-2.2792360062	-4.4029959817	 0.4988240219	 0.120822
H	-3.8189328208	-3.5226028933	 0.3752434279	 0.137633
H	-1.5138357245	-3.1057447327	-1.4525696449	 0.123754
36.0403	87.5864	91.4878	144.4483	205.355	257.7584	363.0049	410.2502	488.3439	558.7913	659.6659	708.9306	780.6253	807.0548	824.1466	898.9362	937.1449	972.8371	1017.7902	1041.2984	1047.2069	1096.0396	1112.801	1168.8602	1199.8288	1236.5613	1260.0855	1268.7294	1277.9767	1282.0499	1346.1369	1389.7599	1427.4941	1482.8396	1498.4872	1752.8164	2357.7129	3014.7542	3033.8138	3079.64	3081.0231	3088.9523	3136.9213	3153.4605	3522.6609
N=COC1CCC1C#N	[NH][CH]O[C@H]1CC[C@H]1C#N	
InChI=1S/C6H8N2O/c7-3-5-1-2-6(5)9-4-8/h4-6,8H,1-2H2	InChI=1S/C6H8N2O/c7-3-5-1-2-6(5)9-4-8/h4-6,8H,1-2H2/t5-,6-/m0/s1
