16
gdb 71276	2.67377	2.08546	1.47901	2.3556	68.58	-0.2537	0.0169	0.2706	888.8582	0.125896	-437.867098	-437.860373	-437.859429	-437.897837	27.85	
O	 0.0528186379	 1.3899848301	 0.0084777509	-0.491653
C	-0.0185716109	 0.014182571	 0.0075592426	 0.33419
C	 0.2921381474	-0.7583408056	-1.3265102124	-0.285928
C	-0.8569593961	-1.7095857566	-0.9985883201	-0.100975
C	-0.8356195552	-2.0668594596	 0.4705105584	 0.078641
O	 0.381270033	-1.9368160522	 1.2191198907	-0.236145
C	 0.7905306007	-0.6464444663	 1.0987688629	 0.38194
N	 1.7012061096	-0.0534750051	 1.7387573587	-0.587442
C	-1.3882034982	-0.7467811725	 0.0722816252	-0.181274
H	 0.7358488003	 1.6192308062	 0.6593720518	 0.297411
H	 0.0326348806	-0.1066054917	-2.1632711974	 0.125573
H	 1.298199251	-1.1670821808	-1.4671045767	 0.107813
H	-1.4097806321	-2.3127430057	-1.7090210968	 0.097151
H	-1.4456002116	-2.8799462265	 0.8388843138	 0.119682
H	 2.1535882844	-0.6505932738	 2.4298793442	 0.232725
H	-2.3695840909	-0.3441294509	 0.2823473841	 0.10829
150.7255	269.8664	317.5114	355.3051	426.5371	438.1628	517.4814	575.6675	662.4712	717.1153	724.3462	753.0387	793.6989	840.5326	867.3554	927.909	939.1116	963.787	982.632	1014.1489	1034.8892	1048.0498	1069.3406	1083.6616	1142.1401	1153.4388	1200.2766	1250.5873	1252.5758	1312.6278	1379.71	1404.4764	1433.5009	1493.1931	1788.3025	3048.1096	3121.764	3182.8403	3210.4977	3223.2228	3501.9234	3689.337
OC12CC3C(OC1=N)C23	O[C@@]12C[C@H]3[C@@H](O[C]1[NH])[C@@H]23	
InChI=1S/C6H7NO2/c7-5-6(8)1-2-3(6)4(2)9-5/h2-4,7-8H,1H2	InChI=1S/C6H7NO2/c7-5-6(8)1-2-3(6)4(2)9-5/h2-4,7-8H,1H2/t2-,3+,4-,6-/m1/s1
