25
gdb 60384	3.31675	0.70781	0.69385	1.3915	89.88	-0.2556	0.0731	0.3287	1814.2501	0.226812	-389.488491	-389.477508	-389.476564	-389.524884	41.128	
C	 0.140924048	 1.4638594215	 0.3105795369	-0.403227
C	-0.038674057	-0.0322075067	 0.0503428042	 0.13118
O	-1.4050773921	-0.3434538039	-0.2228484477	-0.43369
C	 0.7710440396	-0.5158893105	-1.1520520086	-0.165486
C	 0.6667584513	-2.029602589	-1.3837360233	-0.267444
C	 1.5081208879	-2.5449050821	-2.5432893358	 0.391677
C	 1.0971008601	-2.0587651089	-3.9214830441	-0.460183
C	 2.9797643887	-2.78023528	-2.2910347261	-0.295453
C	 2.0391676411	-3.9547279888	-2.4392449273	-0.315474
H	 1.1868028832	 1.7047633642	 0.5276744806	 0.113899
H	-0.1775878955	 2.0437749786	-0.5616064051	 0.123037
H	-0.4584251108	 1.7859889452	 1.1704377768	 0.100847
H	 0.2966842162	-0.5895332765	 0.9428293598	 0.058806
H	-1.9314345924	-0.0568643	 0.5298174967	 0.279496
H	 0.418986256	 0.0305428922	-2.0355790832	 0.101944
H	 1.8212482597	-0.2367813226	-1.0019266742	 0.091103
H	 0.9749465997	-2.5474720919	-0.4654769254	 0.081046
H	-0.3853287312	-2.2910384149	-1.5448143538	 0.113286
H	 1.1908886265	-0.9713221334	-4.0157060925	 0.115128
H	 1.7203732514	-2.5097265362	-4.7001780399	 0.108252
H	 0.0540713299	-2.3211207316	-4.1354276221	 0.114827
H	 3.6803428725	-2.5822643338	-3.095738989	 0.104239
H	 3.37291305	-2.5660149481	-1.3021752022	 0.102754
H	 1.7984880001	-4.5303715833	-1.5513352057	 0.1051
H	 2.1028892371	-4.5477217196	-3.3459482488	 0.104337
44.1087	72.6654	124.3757	135.1538	220.8764	234.8309	244.5477	288.5695	300.1377	343.7378	358.8664	387.5338	456.742	469.659	506.2696	720.0757	773.3507	789.488	847.8953	870.0556	914.2794	940.4134	953.2292	953.7355	982.2228	1032.0968	1047.3764	1055.7347	1077.0056	1082.3568	1109.8619	1121.6206	1148.4941	1184.3131	1188.5594	1283.4491	1284.7404	1316.7687	1329.4627	1359.0092	1383.0214	1396.6734	1406.5967	1420.3662	1428.7564	1468.0516	1472.4838	1488.4009	1493.0568	1496.4691	1499.9906	1502.2089	1512.2159	2943.2402	3013.8512	3023.5642	3024.3485	3029.6228	3057.5372	3078.6182	3084.6981	3090.9562	3097.164	3110.8233	3122.205	3127.0731	3198.8741	3213.4955	3821.0404
CC(O)CCC1(C)CC1	C[C@@H](O)CCC1(C)CC1	
InChI=1S/C8H16O/c1-7(9)3-4-8(2)5-6-8/h7,9H,3-6H2,1-2H3	InChI=1S/C8H16O/c1-7(9)3-4-8(2)5-6-8/h7,9H,3-6H2,1-2H3/t7-/m1/s1
