16
gdb 128363	4.76787	0.9327	0.79017	2.2715	68.31	-0.2334	-0.0105	0.2228	1405.6668	0.124195	-471.201093	-471.192012	-471.191068	-471.235669	31.405	
C	-0.1122383687	 1.3104243581	 0.0146368563	-0.32581
N	-0.1693186271	-0.1210740573	-0.224195651	-0.381005
C	 0.5987366232	-0.6865880833	-1.190815389	 0.457565
N	 1.588665752	-0.065611183	-1.7982416759	-0.227062
O	 2.1024752498	-1.0794082402	-2.6562774768	-0.20916
C	 1.3491218608	-2.1534339092	-2.460969611	 0.413301
C	 1.6437329197	-3.423518482	-3.1976952196	-0.15378
O	 0.6070462421	-4.3582559583	-3.0456561759	-0.413277
N	 0.4067492996	-1.9995581883	-1.5833249353	-0.410287
H	 0.9201202566	 1.6022632489	 0.2234782689	 0.159044
H	-0.4626349455	 1.8996995656	-0.8434829074	 0.131526
H	-0.7252293325	 1.54721799	 0.8862371734	 0.129526
H	-1.0459162798	-0.5912908916	-0.0670091234	 0.258515
H	 1.7770742749	-3.2029915712	-4.2638660155	 0.140894
H	 2.6084987031	-3.8144294496	-2.8322780751	 0.127742
H	 0.1282069918	-4.1223667185	-2.2406454329	 0.302268
56.7534	98.4355	135.3261	152.5184	208.9838	227.9248	264.7747	360.6909	420.6643	465.1607	492.5558	643.7592	723.3972	763.3278	775.2137	912.1054	1016.6522	1033.2287	1049.5077	1110.0168	1133.8054	1156.2643	1182.2918	1234.5713	1284.0852	1340.1729	1364.3772	1457.4189	1463.176	1482.7695	1500.8034	1510.2563	1531.6471	1628.1163	1649.4737	2968.2595	3014.8793	3051.3253	3095.5506	3138.4196	3645.4496	3770.9765
CNC1=NOC(CO)=N1	CNc1noc(CO)n1	
InChI=1S/C4H7N3O2/c1-5-4-6-3(2-8)9-7-4/h8H,2H2,1H3,(H,5,7)	InChI=1S/C4H7N3O2/c1-5-4-6-3(2-8)9-7-4/h8H,2H2,1H3,(H,5,7)
