17
gdb 77284	2.05229	1.17844	0.88832	4.208	71.8	-0.2561	-0.0351	0.221	1330.3405	0.132807	-458.974833	-458.965269	-458.964325	-459.010698	32.732	
C	-0.1709424968	 1.5980538734	-0.1000561307	-0.415357
C	-0.0446689203	 0.0906272008	-0.0165257991	-0.073999
C	 1.2178161181	-0.6122844537	-0.3548333433	 0.081037
O	 2.3098287236	 0.2046423541	-0.7137563927	-0.186812
C	 3.5265655561	-0.3907592108	-0.7706761422	 0.175959
O	 4.5121081737	 0.2086598191	-1.0685681257	-0.259546
C	 0.7464137059	-0.6213739654	 1.0982921031	-0.169335
C	 1.4692905825	 0.1471590781	 2.1415056397	 0.156753
O	 1.5428479319	-0.2151863069	 3.2911580791	-0.264604
H	 0.7842544779	 2.1033555868	 0.0474741023	 0.148506
H	-0.5412037862	 1.8817900065	-1.0900567893	 0.133888
H	-0.8809894871	 1.9697398939	 0.6444662548	 0.133771
H	-0.9468403889	-0.4454243296	-0.2972246712	 0.114469
H	 1.1803930944	-1.5533305429	-0.8968064095	 0.124342
H	 3.4893951566	-1.4677522508	-0.5221043842	 0.091146
H	 0.3387492877	-1.5561780079	 1.4684698362	 0.115414
H	 1.9512178409	 1.0878105054	 1.8067096828	 0.094369
33.4982	87.624	113.7821	134.4518	179.706	210.8788	225.7624	297.3831	417.5906	436.441	500.33	590.1335	667.3937	732.6039	860.8311	923.925	963.5131	992.5961	1032.013	1045.3012	1060.2551	1097.4311	1145.2355	1157.3308	1177.9454	1182.4678	1247.9288	1332.5054	1367.1527	1418.316	1419.5269	1441.2586	1448.8645	1494.8763	1506.7233	1807.6558	1875.7588	2926.2659	2970.2455	3049.5445	3109.3561	3138.0633	3143.5951	3156.0467	3175.4095
CC1C(OC=O)C1C=O	C[C@H]1[C@@H](OC=O)[C@H]1C=O	
InChI=1S/C6H8O3/c1-4-5(2-7)6(4)9-3-8/h2-6H,1H3	InChI=1S/C6H8O3/c1-4-5(2-7)6(4)9-3-8/h2-6H,1H3/t4-,5+,6-/m1/s1
