15
gdb 127702	5.92355	0.98709	0.90058	3.3857	69.21	-0.2702	-0.0269	0.2433	1267.7773	0.113435	-450.087085	-450.079199	-450.078255	-450.120589	27.378	
C	 0.3810157263	 1.3847461125	-0.0776223172	-0.319169
N	 0.0769094425	-0.0299621013	 0.0052154391	 0.150506
N	-0.349069196	-0.7347095277	-1.0374753349	-0.120714
N	-0.5198713973	-1.9563019703	-0.6067696059	-0.261862
C	-0.1806961433	-1.947990567	 0.7065019157	 0.407466
N	 0.1998252437	-0.7412657061	 1.1180341797	-0.315363
C	-0.2203234776	-3.1262289381	 1.592521967	-0.021996
C	-0.9871699539	-4.3275042981	 1.2285964117	-0.173255
O	 0.4323876644	-4.3085327175	 1.1149254567	-0.223139
H	 1.4308117974	 1.5523605371	 0.1716408796	 0.164977
H	 0.1817427632	 1.6989756893	-1.1012074857	 0.174923
H	-0.2509600589	 1.939755011	 0.6186390605	 0.163257
H	-0.0456082108	-2.8976824262	 2.6415998201	 0.112445
H	-1.3895255927	-4.9573315771	 2.0207682919	 0.119455
H	-1.5286975271	-4.3340882406	 0.2853659517	 0.142468
51.9771	97.452	144.9757	166.9799	244.3276	323.5535	449.6237	468.7936	668.8476	699.2661	748.0283	793.816	857.4444	911.1977	1003.3223	1035.0311	1051.9195	1092.6763	1109.1515	1152.0926	1163.8769	1172.0346	1257.3039	1275.4748	1303.7233	1385.1293	1413.2629	1433.2329	1451.1714	1476.6667	1505.7604	1512.2623	1562.9151	3066.96	3090.582	3140.733	3142.8942	3178.9755	3188.9351
CN1N=NC(=N1)C1CO1	Cn1nnc(n1)[C@H]1CO1	
InChI=1S/C4H6N4O/c1-8-6-4(5-7-8)3-2-9-3/h3H,2H2,1H3	InChI=1S/C4H6N4O/c1-8-6-4(5-7-8)3-2-9-3/h3H,2H2,1H3/t3-/m1/s1
