20
gdb 66470	3.2799	1.61111	1.49096	1.5081	82.17	-0.2207	0.0828	0.3035	998.2954	0.171028	-365.943635	-365.935946	-365.935002	-365.975113	31.455	
C	-0.061223384	 1.4432366023	 0.0262244565	-0.511898
C	 0.0670937491	-0.0456620041	 0.0427332799	 0.360386
C	 0.2255166743	-1.0399094141	-1.0485987239	-0.124768
C	 0.6319938392	-2.0859416418	 0.0147398384	-0.121855
C	 0.7246297305	-0.9516507667	 1.1114497573	-0.120685
C	-0.4491731976	-1.5933451428	 1.8853174021	-0.289444
C	-0.8585135242	-2.1264955133	 0.4971949764	 0.377065
C	-1.8492140066	-3.2306831424	 0.2661672697	-0.498703
N	-1.1061841571	-0.8892699101	-0.3727114777	-0.222008
H	 0.922220824	 1.925153663	 0.0000585256	 0.116595
H	-0.6282817748	 1.7668241637	-0.8513787233	 0.132209
H	-0.5904399033	 1.7999109595	 0.9176515821	 0.121879
H	 0.3606864645	-0.941922064	-2.1197039643	 0.0887
H	 1.3123618428	-2.9305484172	-0.0625147312	 0.067414
H	 1.6549896307	-0.6313701426	 1.5775349394	 0.068553
H	-0.1144139626	-2.4054561056	 2.5391554406	 0.097378
H	-1.1492670711	-0.9429572823	 2.4190457836	 0.098087
H	-2.8530379676	-2.9120980823	 0.5687158933	 0.125993
H	-1.8911089006	-3.5009135932	-0.7941363272	 0.122921
H	-1.5834736158	-4.124804556	 0.8393658527	 0.112181
186.7094	196.3467	220.8416	224.2027	284.0596	346.7845	426.5046	547.9673	567.7402	649.799	728.2349	749.6917	798.4576	826.7	839.9664	865.2298	874.3239	908.7194	926.3698	945.567	992.0128	994.7827	1018.5247	1058.4391	1084.0111	1101.727	1141.2463	1161.6303	1180.532	1189.956	1211.7069	1227.801	1257.6378	1281.2458	1328.9339	1398.7499	1412.7435	1442.5876	1479.8051	1483.2416	1483.5297	1489.0058	1491.4121	3026.956	3029.2422	3041.6373	3088.0347	3097.0721	3099.5989	3104.0558	3111.8373	3129.4513	3143.7257	3175.5645
CC12C3C4C1CC4(C)N23	C[C@@]12[C@H]3[C@H]4[C@@H]1C[C@@]4(C)N23	
InChI=1S/C8H11N/c1-7-3-4-5(7)6-8(4,2)9(6)7/h4-6H,3H2,1-2H3	InChI=1S/C8H11N/c1-7-3-4-5(7)6-8(4,2)9(6)7/h4-6H,3H2,1-2H3/t4-,5+,6+,7+,8-,9?/m0/s1
