18
gdb 85406	1.95634	1.74506	0.96374	2.2412	74.8	-0.2693	-0.0196	0.2496	1220.7301	0.146857	-439.153773	-439.145026	-439.144082	-439.187254	32.371	
C	-0.0040935347	 1.606772942	-0.0810239563	-0.390093
C	 0.0818944458	 0.086682925	 0.044326118	 0.034641
C	 0.68318588	-0.565525025	-1.2094764397	-0.353781
C	 0.9113355642	-2.0406789713	-0.9944424743	 0.414723
O	 0.7652972388	-2.9127337724	-1.7972928586	-0.303696
O	 1.3666381909	-2.3656884905	 0.2671191202	-0.246287
C	 1.4223600731	-1.3935785974	 1.2639959584	 0.397368
C	 2.2257798897	-1.8921335107	 2.4219726471	-0.455879
N	 0.85345047	-0.2684258188	 1.2342384195	-0.286154
H	 0.9934121603	 2.0368371092	-0.2180495987	 0.120988
H	-0.6266651841	 1.8944906445	-0.9338811332	 0.114518
H	-0.433694215	 2.0342090372	 0.8282460689	 0.130558
H	-0.9369641307	-0.3045274138	 0.1896900465	 0.100724
H	 0.059831695	-0.4399359675	-2.096355609	 0.138263
H	 1.6592949829	-0.1056324102	-1.4174940537	 0.137694
H	 3.2481170712	-2.1204368501	 2.103952885	 0.146142
H	 2.2405276132	-1.1380725023	 3.2076950473	 0.149892
H	 1.7935951795	-2.8214491878	 2.8065622625	 0.150379
109.576	115.1255	151.9456	184.8607	242.0443	272.2931	318.6045	432.7891	456.6178	482.0692	552.5461	596.7721	625.2765	663.57	839.4818	875.0792	914.7141	933.5923	985.6086	1025.7602	1062.2691	1100.4517	1127.886	1138.7757	1156.0583	1231.3331	1254.6335	1296.6258	1346.2278	1369.9712	1408.0026	1411.0796	1457.9482	1472.6731	1474.7513	1487.4018	1497.6178	1768.6862	1881.7266	2986.6017	3027.7104	3039.8052	3049.5685	3107.2253	3110.2103	3123.7339	3126.5239	3168.8765
CC1CC(=O)OC(C)=N1	C[C@H]1CC(=O)OC(=N1)C	
InChI=1S/C6H9NO2/c1-4-3-6(8)9-5(2)7-4/h4H,3H2,1-2H3	InChI=1S/C6H9NO2/c1-4-3-6(8)9-5(2)7-4/h4H,3H2,1-2H3/t4-/m0/s1
