20
gdb 96513	2.11282	1.63049	1.24253	2.2548	75.41	-0.2189	-0.0191	0.1998	1105.0912	0.171997	-440.28984	-440.281106	-440.280161	-440.323346	33.298	
C	 1.4515376406	 0.8622634476	-0.2334467133	-0.420524
C	 0.0596252744	 0.3281286526	 0.1240229465	-0.044742
N	-0.530900756	-0.4731484206	-0.9556206748	-0.299608
C	 0.2176458003	-1.5989282844	-1.5009588253	-0.163441
C	 0.5930527746	-2.7137195274	-0.5188434611	-0.079836
O	 1.4622150604	-2.2519950513	 0.50370181	-0.23313
C	 0.8197029265	-1.7266305982	 1.6394579099	-0.177516
C	 0.0545795569	-0.4005610005	 1.4769254126	 0.324093
O	-0.5689234716	 0.0219142956	 2.4243957408	-0.308451
H	 2.2001572002	 0.0681754727	-0.2615538495	 0.142368
H	 1.4154975489	 1.3496747013	-1.2123465019	 0.12886
H	 1.7647839776	 1.6019226211	 0.5088436375	 0.1276
H	-0.6103465577	 1.1813940225	 0.2753082115	 0.1006
H	-1.4703388241	-0.7562858939	-0.6988931635	 0.222667
H	-0.3797099551	-2.0327072433	-2.3125369711	 0.10387
H	 1.1375102846	-1.2194321867	-1.9587372028	 0.120439
H	-0.3125916571	-3.1599711003	-0.0763039723	 0.085404
H	 1.1312299774	-3.5075544497	-1.0504717237	 0.10786
H	 0.1153148581	-2.4521774286	 2.0760776812	 0.122561
H	 1.5999405515	-1.5516948084	 2.3884315294	 0.140925
50.8942	135.4021	202.6894	241.5477	273.5758	307.5782	325.2795	399.6021	411.1365	497.3404	534.3242	595.3662	617.839	703.5794	740.1823	826.7402	888.2546	916.2195	976.9072	990.8145	1012.9851	1070.5727	1081.2983	1147.5585	1165.562	1200.4221	1235.0409	1264.2732	1292.2625	1318.5628	1322.7272	1362.4278	1376.9144	1389.9363	1400.4875	1406.472	1449.3771	1471.6099	1485.5486	1491.8859	1506.1074	1520.3093	1796.5809	2973.5039	2989.5573	3032.4683	3046.9343	3051.7193	3058.9186	3074.8061	3081.4448	3117.1929	3138.029	3529.0284
CC1NCCOCC1=O	C[C@H]1NCCOCC1=O	
InChI=1S/C6H11NO2/c1-5-6(8)4-9-3-2-7-5/h5,7H,2-4H2,1H3	InChI=1S/C6H11NO2/c1-5-6(8)4-9-3-2-7-5/h5,7H,2-4H2,1H3/t5-/m1/s1
