23
gdb 122675	4.37007	0.71781	0.6706	1.6413	83.17	-0.2475	0.0842	0.3317	1778.0788	0.206041	-425.427228	-425.417344	-425.4164	-425.463429	35.303	
C	-0.0042245372	 1.4195044282	 0.1568322925	-0.384604
C	-0.0342673854	-0.0992778632	 0.1860287746	-0.028948
O	-1.3640645393	-0.528981214	-0.0231134276	-0.24734
C	-1.5113366482	-1.9316270208	-0.0099024724	-0.063523
C	-2.9877374513	-2.2722101056	-0.1845246933	-0.004158
C	-3.2165763007	-3.8090648206	-0.1981046044	-0.260836
C	-4.0550970736	-4.064444468	 1.0752879727	-0.067707
O	-3.8495790926	-2.9344244761	 1.9077411659	-0.242367
C	-3.8197828514	-1.8167111379	 1.0326195652	-0.090645
H	 1.014952146	 1.7843990697	 0.3155344195	 0.114289
H	-0.3605432825	 1.7917961492	-0.8078915765	 0.125816
H	-0.6465292026	 1.831006831	 0.9406697392	 0.126312
H	 0.6259318565	-0.5142210147	-0.5947690218	 0.084044
H	 0.3389123353	-0.4759976438	 1.1535080925	 0.0868
H	-0.9148179215	-2.3896371204	-0.817666774	 0.08191
H	-1.1474433124	-2.3517938989	 0.9441778731	 0.092494
H	-3.343071152	-1.7956312807	-1.1022365817	 0.079592
H	-3.7332391765	-4.1455459572	-1.0998507778	 0.103517
H	-2.2615075058	-4.3421221886	-0.1514355252	 0.104455
H	-5.1229994211	-4.1623043651	 0.8189869072	 0.086226
H	-3.7543399977	-4.9548351759	 1.6331962761	 0.106264
H	-3.3729480371	-0.9728876797	 1.5618474136	 0.11787
H	-4.8413948589	-1.539969507	 0.7241406028	 0.080539
46.8757	61.6936	81.9739	127.739	167.4323	238.142	251.6656	292.4314	322.7105	448.5256	483.7697	667.3561	709.0449	820.7819	841.2548	856.6884	905.3461	935.1018	944.8884	962.8658	979.311	1035.3842	1047.0575	1100.8157	1126.58	1148.4479	1158.7	1170.7196	1189.0559	1224.5974	1230.8988	1253.6232	1273.6953	1296.4187	1300.2272	1308.8632	1347.947	1367.7468	1389.0108	1399.7043	1407.3553	1447.7822	1484.1341	1496.4185	1499.3272	1507.4601	1513.0303	1523.1881	1537.2036	2943.124	2957.3534	2963.1326	2970.211	2976.2188	2978.1623	3044.6551	3052.1793	3072.4893	3092.0157	3106.7696	3114.0862	3119.169	3120.9171
CCOCC1CCOC1	CCOC[C@H]1CCOC1	
InChI=1S/C7H14O2/c1-2-8-5-7-3-4-9-6-7/h7H,2-6H2,1H3	InChI=1S/C7H14O2/c1-2-8-5-7-3-4-9-6-7/h7H,2-6H2,1H3/t7-/m1/s1
