22
gdb 85671	2.40439	1.24538	1.07696	4.2751	86.52	-0.2962	0.0308	0.327	1261.9845	0.192923	-367.236856	-367.226914	-367.22597	-367.271086	37.663	
C	-1.0893053291	 1.0229511715	-0.0844791997	-0.420975
C	-0.0171129518	-0.0542290289	-0.1401617845	 0.014151
C	 1.3268339028	 0.2551611014	-0.847846348	-0.260483
C	 2.0460867619	-0.6204763892	 0.2200401881	-0.175111
C	 3.3429075145	-0.1944731627	 0.7146437161	 0.27404
N	 4.3661936818	 0.1614815794	 1.1204792486	-0.341714
C	 0.7793139075	-0.4666227976	 1.1526149037	 0.29563
C	 0.938575472	 0.6665047691	 2.1678026525	-0.443315
C	 0.3228337669	-1.7490326951	 1.8398116979	-0.456877
H	-0.7024693528	 1.9623346825	 0.3219249364	 0.120326
H	-1.4757743917	 1.2315389305	-1.0881455698	 0.119856
H	-1.93744509	 0.712050967	 0.5353763847	 0.118896
H	-0.4463704817	-0.9647803897	-0.5756973302	 0.073658
H	 1.4444522734	-0.0503691735	-1.8890779174	 0.112186
H	 1.60837381	 1.3070982388	-0.7563546485	 0.121047
H	 2.1275085513	-1.6555124502	-0.1257357137	 0.116409
H	 1.2877695441	 1.5960382079	 1.7089981864	 0.124562
H	-0.0150834507	 0.8739975296	 2.6636394861	 0.1167
H	 1.6661326636	 0.3913652592	 2.937736652	 0.133797
H	 1.0332728207	-2.0586900295	 2.6145873749	 0.125601
H	-0.6502596075	-1.6046782013	 2.3230668038	 0.119916
H	 0.2218454749	-2.5726085892	 1.1250128606	 0.1117
76.3079	134.8775	180.6624	201.3727	227.8611	250.8227	268.5286	285.1474	347.7272	350.9848	398.8886	465.2331	526.413	566.9272	589.5742	711.6393	765.7597	875.5034	905.0056	931.7626	955.243	969.5747	1004.6325	1021.0465	1047.9763	1095.6422	1132.1763	1168.1941	1186.6567	1188.3178	1250.3342	1258.1359	1264.7096	1314.126	1341.4604	1388.3831	1403.2162	1411.3445	1424.7059	1481.1369	1485.3144	1492.6039	1494.8083	1496.6548	1505.5819	1508.6452	2347.4997	3022.2967	3027.4884	3030.8769	3039.0468	3064.1204	3070.4332	3090.8569	3092.7776	3095.0138	3105.4426	3107.5309	3111.3513	3126.8726
CC1CC(C#N)C1(C)C	C[C@H]1C[C@@H](C#N)C1(C)C	
InChI=1S/C8H13N/c1-6-4-7(5-9)8(6,2)3/h6-7H,4H2,1-3H3	InChI=1S/C8H13N/c1-6-4-7(5-9)8(6,2)3/h6-7H,4H2,1-3H3/t6-,7-/m0/s1
