21
gdb 122477	3.46134	0.65992	0.58807	0.8342	86.05	-0.2409	0.0501	0.291	1886.4952	0.18024	-387.040812	-387.030396	-387.029452	-387.077316	37.619	
O	-0.0925300983	 1.4274959684	-0.3592369094	-0.422237
C	-0.0102649731	 0.0747876291	 0.064797838	-0.0752
C	-1.3909439128	-0.5498074562	-0.0844725084	-0.160413
C	-1.4292609769	-2.0177930183	 0.3562856909	-0.22104
C	-2.8032181363	-2.6326990099	 0.2040144538	 0.00443
C	-3.2516135447	-3.2061472665	-1.1086068727	-0.287156
C	-2.9877798952	-4.1411758914	 0.0653961364	-0.209986
C	-1.8624639722	-5.0290727077	 0.0477717451	 0.339452
C	-0.9247346286	-5.7836081644	 0.0439517842	-0.477101
H	 0.7789121935	 1.8237782679	-0.2699857627	 0.284657
H	 0.7193534462	-0.4892164304	-0.5396244578	 0.084308
H	 0.3180333135	 0.005786944	 1.1153252402	 0.083219
H	-2.1038504374	 0.0419752965	 0.5029541594	 0.102931
H	-1.7031533899	-0.4632732257	-1.1319180595	 0.107771
H	-0.7064398662	-2.603706681	-0.2234938223	 0.108651
H	-1.1115378842	-2.0978103867	 1.4046802061	 0.100321
H	-3.5779016159	-2.1494047206	 0.7947574737	 0.090575
H	-4.2809890176	-3.0770504174	-1.4234784336	 0.117386
H	-2.5301805404	-3.2318699382	-1.9181011645	 0.125075
H	-3.8706695561	-4.5490239761	 0.5492489437	 0.111303
H	-0.0992355572	-6.4509556254	 0.0370847494	 0.193054
47.3877	71.0223	84.2575	132.17	157.1208	204.7981	264.8672	294.3991	309.4058	405.0912	456.5449	525.9543	573.9036	621.4951	646.4256	754.087	772.7779	812.3648	856.6048	873.5108	948.8715	975.5684	1020.1039	1049.1625	1063.8598	1072.0401	1090.7653	1123.491	1142.3163	1185.7325	1221.3527	1229.6091	1241.0589	1296.8635	1308.2617	1316.5108	1366.3611	1382.6107	1422.0271	1462.9303	1480.5983	1490.4909	1500.7163	1528.2356	2232.8962	2956.2622	2981.0026	3016.8529	3031.991	3056.1497	3079.9462	3132.4431	3136.2735	3146.5084	3225.5453	3505.6473	3830.8353
OCCCC1CC1C#C	OCCC[C@H]1C[C@H]1C#C	
InChI=1S/C8H12O/c1-2-7-6-8(7)4-3-5-9/h1,7-9H,3-6H2	InChI=1S/C8H12O/c1-2-7-6-8(7)4-3-5-9/h1,7-9H,3-6H2/t7-,8+/m1/s1
