21
gdb 115958	2.58575	1.55544	1.23114	0.4531	77.69	-0.2575	0.0775	0.3349	1112.0461	0.184171	-424.216775	-424.208373	-424.207429	-424.250143	31.811	
C	 0.6181302498	 1.055356564	 0.3884672434	-0.24251
O	 0.508895291	-0.3263362424	 0.1019003888	-0.243998
C	 0.5173353505	-0.6165050876	-1.2740793286	 0.204753
O	 1.7433969946	-0.2706786498	-1.8824521206	-0.258054
C	 2.684193561	-1.3335644717	-1.6688915894	-0.106882
C	 1.848727309	-2.613892637	-1.5150223272	-0.016116
C	 1.6458606194	-3.2439595449	-0.103137981	-0.230093
C	 0.1123979623	-3.0215537644	-0.2357097545	-0.21866
C	 0.368770634	-2.133720898	-1.4824527313	-0.064838
H	 1.5528055654	 1.4748623093	-0.000879313	 0.125741
H	-0.2236666505	 1.6183402478	-0.0432288708	 0.104785
H	 0.5946332394	 1.1604610416	 1.4753937334	 0.123226
H	-0.2489850914	-0.0143919948	-1.7828905344	 0.067452
H	 3.3486450752	-1.3473092097	-2.5376370941	 0.103663
H	 3.2901452486	-1.1357898206	-0.7745128052	 0.097241
H	 2.073076033	-3.3514341548	-2.2873905102	 0.072862
H	 1.9792174845	-4.2775940526	 0.0142036997	 0.093659
H	 2.0915308876	-2.6384997545	 0.6900003766	 0.108973
H	-0.4231382497	-3.9376136362	-0.496970823	 0.093099
H	-0.3893404302	-2.5382378634	 0.6020208538	 0.113267
H	-0.2437348036	-2.3253938004	-2.365407582	 0.072428
82.965	103.618	131.0905	195.4856	215.7068	326.2615	364.5107	475.5104	543.1221	656.4257	686.6645	743.4918	765.9004	853.305	899.7883	931.5678	935.2824	949.842	964.9776	984.8184	1025.706	1055.4536	1082.4501	1110.3713	1135.4575	1148.7878	1181.558	1195.419	1217.8332	1232.2299	1238.5529	1261.2385	1268.9503	1279.173	1326.2161	1335.0063	1354.471	1389.22	1393.8989	1470.4466	1475.1975	1483.0632	1492.1403	1513.5964	1520.5896	2988.8722	3006.9167	3012.7034	3062.6144	3064.8506	3069.3824	3074.4807	3086.5509	3097.1395	3116.9959	3123.159	3140.8378
COC1OCC2CCC12	CO[C@H]1OC[C@H]2CC[C@@H]12	
InChI=1S/C7H12O2/c1-8-7-6-3-2-5(6)4-9-7/h5-7H,2-4H2,1H3	InChI=1S/C7H12O2/c1-8-7-6-3-2-5(6)4-9-7/h5-7H,2-4H2,1H3/t5-,6-,7+/m1/s1
