18
gdb 112135	3.20997	1.0825	0.84428	6.1163	74.21	-0.2334	-0.0611	0.1723	1352.0069	0.147658	-439.148012	-439.139165	-439.138221	-439.182377	32.36	
C	 0.0211215906	 1.6041875807	-0.0543960518	-0.399131
C	 0.0251862646	 0.0732630827	-0.0863441083	-0.178512
C	-1.3650188688	-0.5570179159	 0.0523003939	 0.040402
C	-1.3567069715	-2.1012499603	-0.0048391459	-0.3645
C	-2.2496159633	-2.5636987209	 1.1385924672	 0.311664
O	-2.6508004104	-3.6722438804	 1.356589349	-0.279112
C	-2.5653997206	-1.322977832	 2.0053260883	 0.306933
O	-3.1893238708	-1.2949638629	 3.039549799	-0.351473
N	-1.9857874188	-0.2761347843	 1.3478670185	-0.318688
H	 1.0293709387	 1.9990180742	-0.2068393805	 0.129095
H	-0.6204102935	 2.0176274658	-0.8404779426	 0.122786
H	-0.3325212833	 1.9911664391	 0.9074255046	 0.11862
H	 0.4517066055	-0.2720213246	-1.0362121731	 0.109641
H	 0.6678135033	-0.3194299442	 0.7114775253	 0.108566
H	-2.0046160822	-0.1616832096	-0.7504031155	 0.092848
H	-1.6980976208	-2.5037417069	-0.9607111762	 0.145106
H	-0.3481354007	-2.4935248286	 0.1717467672	 0.146272
H	-2.1198730379	 0.6650718382	 1.6843102108	 0.259484
43.2849	106.5442	112.7006	211.0696	242.3071	316.833	358.108	377.6305	433.0331	547.1508	583.4952	627.5066	640.0148	705.5963	735.9443	802.969	859.4919	944.0469	971.7203	1038.4052	1064.57	1090.9814	1102.6407	1155.8521	1201.6492	1258.4227	1279.0851	1299.8085	1318.0507	1367.0972	1400.8673	1414.1978	1433.6453	1450.6497	1478.0223	1500.3786	1508.4872	1839.253	1866.7115	2989.716	3026.2104	3034.2729	3051.0544	3065.0615	3100.252	3112.0146	3116.3373	3631.3138
CCC1CC(=O)C(=O)N1	CC[C@H]1CC(=O)C(=O)N1	
InChI=1S/C6H9NO2/c1-2-4-3-5(8)6(9)7-4/h4H,2-3H2,1H3,(H,7,9)	InChI=1S/C6H9NO2/c1-2-4-3-5(8)6(9)7-4/h4H,2-3H2,1H3,(H,7,9)/t4-/m0/s1
