25
gdb 104885	2.1704	1.30751	1.05507	1.2882	87.62	-0.2628	0.0683	0.3312	1317.9933	0.229512	-389.507806	-389.497433	-389.496489	-389.543702	38.729	
C	-1.6752041007	 0.106365309	-0.1736698751	-0.399418
C	-0.1599304004	 0.2788303814	-0.0178983095	-0.219594
C	 0.7172566642	-0.5789679121	-0.9523623694	 0.305814
C	 0.4146636863	-0.2678645583	-2.4266310495	-0.105584
O	 0.6339356351	 1.1182812393	-2.6598343992	-0.426241
C	 2.2215154731	-0.3582350223	-0.6617128271	-0.229745
C	 2.9431260743	-1.6053158612	-1.2113683453	-0.2172
C	 1.8966694841	-2.7555287911	-1.1560012653	-0.208997
C	 0.5620889433	-2.101881753	-0.7128771754	-0.244769
H	-2.0232278135	 0.4452899619	-1.1543585787	 0.119018
H	-1.9837484665	-0.9371471045	-0.0485717262	 0.111342
H	-2.2060242381	 0.6979691753	 0.5790873689	 0.109426
H	 0.0951496597	 1.3323048428	-0.1731181416	 0.110836
H	 0.1220049319	 0.0386144416	 1.0154559878	 0.083317
H	 1.0590297835	-0.8789173191	-3.076879792	 0.082605
H	-0.6263165871	-0.5439126776	-2.6537115141	 0.084056
H	 0.4799267283	 1.2953353201	-3.5919033382	 0.2863
H	 2.5854418119	 0.5757083283	-1.0968845982	 0.108649
H	 2.3636901438	-0.289737297	 0.4237070391	 0.084907
H	 3.2714446002	-1.4367265412	-2.2418686413	 0.097639
H	 3.8446401893	-1.8382249994	-0.6379166906	 0.093332
H	 1.7949542491	-3.2355385048	-2.1340257459	 0.095358
H	 2.1954810586	-3.5439335531	-0.4594275674	 0.096227
H	 0.3967561264	-2.2718387236	 0.3573167786	 0.093306
H	-0.3021141367	-2.5276148314	-1.2334595145	 0.089416
45.23	57.0089	113.0346	163.5189	202.5507	232.6124	246.5441	292.9584	334.6895	360.4074	400.5909	493.138	588.8618	656.6403	715.9986	778.4863	801.0084	819.0346	891.4868	909.1933	914.6004	949.2717	993.7801	1002.5102	1038.194	1052.5215	1059.8391	1085.6497	1102.5524	1156.7356	1162.2903	1215.5917	1221.9781	1253.4665	1261.409	1282.8425	1284.1889	1310.5273	1313.294	1336.393	1359.4012	1365.4836	1378.3921	1406.5529	1455.8402	1480.8506	1485.4025	1494.9178	1496.3429	1500.8905	1506.7431	1520.854	1528.4567	2977.6713	3003.6598	3021.3447	3028.963	3033.8047	3035.3284	3044.0037	3056.3356	3067.0485	3071.1678	3080.3606	3097.0826	3099.4229	3104.8896	3106.5972	3835.6979
CCC1(CO)CCCC1	CCC1(CO)CCCC1	
InChI=1S/C8H16O/c1-2-8(7-9)5-3-4-6-8/h9H,2-7H2,1H3	InChI=1S/C8H16O/c1-2-8(7-9)5-3-4-6-8/h9H,2-7H2,1H3
