19
gdb 46141	4.00524	0.98645	0.85116	2.4144	81.69	-0.2396	-0.016	0.2236	1344.3429	0.159478	-385.898497	-385.889921	-385.888977	-385.93181	32.947	
O	 0.0033629756	-0.0858470587	 0.0024311551	-0.304027
C	-0.0134946417	 1.1223979887	-0.003633872	 0.399722
C	-1.3069623019	 1.9271499332	 0.0128949891	-0.312648
C	-1.3223759162	 3.0204156441	-1.0716523708	-0.205605
C	-0.0656834198	 3.9174713027	-0.9931595958	-0.168137
C	 1.2128376788	 3.0556152047	-1.1059560928	-0.205603
C	 1.2571098021	 1.9627518257	-0.0217988743	-0.312651
C	-0.0939617477	 4.9617866908	-2.0122526276	 0.290166
C	-0.1173523572	 5.8042877436	-2.8694701266	-0.424991
H	-2.1483455652	 1.2389042066	-0.0952696067	 0.121599
H	-1.3889553781	 2.4006192834	 1.0021403038	 0.116893
H	-1.3603029781	 2.5577512317	-2.0649566411	 0.119556
H	-2.2238011944	 3.6325199919	-0.9756667778	 0.115455
H	-0.0590594102	 4.4031121097	-0.0053995829	 0.102312
H	 1.236708888	 2.5938141362	-2.1000988656	 0.119556
H	 2.099187847	 3.6925452199	-1.0341545343	 0.115454
H	 1.3526625286	 2.4386806351	 0.9650470634	 0.116893
H	 2.1140376377	 1.2980860842	-0.1529480393	 0.121599
H	-0.1379563573	 6.5563377564	-3.6188517439	 0.194458
68.2906	140.8125	159.0859	184.8365	291.1895	368.6472	414.8146	446.0981	468.5211	515.314	538.4393	632.752	639.9021	681.6309	746.0952	761.4729	835.0722	913.4597	940.4407	945.4931	1012.579	1054.5073	1062.7783	1103.7375	1117.0642	1172.4144	1217.2889	1259.2348	1268.9836	1305.5121	1314.6121	1342.1511	1346.7929	1358.9771	1391.4285	1460.7561	1470.6362	1489.619	1503.779	1821.0649	2236.8001	2987.6744	3008.9318	3015.9123	3040.6138	3044.9344	3088.819	3091.7204	3107.6973	3109.2486	3504.2971
O=C1CCC(CC1)C#C	O=C1CCC(CC1)C#C	
InChI=1S/C8H10O/c1-2-7-3-5-8(9)6-4-7/h1,7H,3-6H2	InChI=1S/C8H10O/c1-2-7-3-5-8(9)6-4-7/h1,7H,3-6H2
