18
gdb 106695	2.50756	1.4808	1.17451	2.2696	70.87	-0.2504	0.0626	0.313	1101.2194	0.146706	-439.006959	-438.998433	-438.997489	-439.040242	32.23	
C	 0.0815533283	 1.4774831573	 0.0508134657	-0.488826
C	-0.0026247639	-0.0171695371	 0.1140097343	 0.23973
N	 1.1962577933	-0.8406382615	-0.0989056954	-0.415123
C	 0.4626812445	-0.9974218989	 1.1707913488	 0.249769
C	 1.2143700681	-0.7836050756	 2.4501130307	-0.165813
O	 2.1147146971	-1.8499139291	 2.7153772208	-0.417296
C	-0.802191476	-1.8168672551	 0.9510149113	-0.063947
O	-1.9395180069	-0.9691789277	 1.1840251513	-0.238632
C	-1.2588979467	-0.8664014583	-0.0760998288	-0.052859
H	 1.0314551454	 1.8303416705	 0.4597986516	 0.134701
H	 0.0144218638	 1.8284139992	-0.9852293822	 0.125667
H	-0.7379033176	 1.929590913	 0.6177227021	 0.135746
H	 1.0252864994	-1.6146429228	-0.738425211	 0.228302
H	 1.73868052	 0.1823779666	 2.4104797406	 0.095817
H	 0.5156631743	-0.7527808403	 3.2916959363	 0.122773
H	 2.7319825343	-1.8747699847	 1.9753681902	 0.288702
H	-0.9546273008	-2.8867106489	 1.0289423357	 0.113125
H	-1.8450003766	-1.0369315268	-0.9721239121	 0.108164
65.5465	136.2059	198.7883	205.2341	233.0348	280.548	371.4986	422.8085	463.3745	550.2546	612.6315	622.6393	770.8553	787.1333	820.4388	856.82	873.8498	897.11	956.6784	975.9009	1044.8475	1057.4256	1074.2426	1096.3357	1123.3728	1145.9922	1187.1675	1224.7621	1232.8692	1271.3447	1344.3875	1356.4383	1375.2978	1407.1037	1424.866	1461.6383	1487.3891	1491.2029	1496.387	2998.0936	3036.0805	3087.4976	3099.2917	3125.305	3181.6153	3199.1012	3465.3765	3799.6545
CC12NC1(CO)C1OC21	C[C@@]12N[C@]1(CO)[C@H]1O[C@@H]21	
InChI=1S/C6H9NO2/c1-5-3-4(9-3)6(5,2-8)7-5/h3-4,7-8H,2H2,1H3	InChI=1S/C6H9NO2/c1-5-3-4(9-3)6(5,2-8)7-5/h3-4,7-8H,2H2,1H3/t3-,4+,5+,6-/m1/s1
