18
gdb 112991	3.56517	1.05883	0.86944	4.7779	76.83	-0.234	-0.0275	0.2064	1330.6113	0.147997	-435.26911	-435.25999	-435.259046	-435.303523	32.344	
C	-0.2895438959	 1.6022345235	 0.1599626405	-0.326729
N	-0.1058055672	 0.2339065039	-0.3274622595	-0.293409
C	-1.2636155333	-0.6073617781	-0.1073430002	-0.080595
C	-1.0329731924	-2.1114416407	-0.4615592744	-0.208864
N	-1.2434962397	-2.4220945482	 0.9635504445	-0.103973
C	-1.2314117617	-3.5783745531	 1.6906053152	 0.139723
O	-1.4174779815	-3.6261932101	 2.8867052672	-0.304005
C	-1.438118075	-1.0742612252	 1.3439165984	 0.436477
N	-1.6626656093	-0.4845585666	 2.4314516395	-0.543547
H	 0.6181363699	 2.1777383446	-0.040578649	 0.118596
H	-1.1449092081	 2.1261182168	-0.3010142103	 0.095984
H	-0.4550607858	 1.577029926	 1.2393786685	 0.168299
H	 0.0974617173	 0.2540463491	-1.3223267175	 0.220862
H	-2.2051749251	-0.2089938772	-0.5228719577	 0.084923
H	-1.7730447141	-2.5633367432	-1.1266739479	 0.124668
H	-0.0185862398	-2.3238109398	-0.80839236	 0.130178
H	-1.0342308789	-4.4699821293	 1.0636485343	 0.089948
H	-1.6967555494	-1.1525398125	 3.2037861584	 0.251462
58.1428	113.6795	138.0688	182.8068	205.8431	233.0572	250.4884	331.9707	374.8678	466.5196	544.1626	663.4691	754.3791	791.3136	816.5388	894.2059	922.2583	974.6889	1023.8005	1029.7458	1056.4382	1140.8938	1159.7067	1165.0965	1168.0315	1210.9324	1258.6278	1272.5637	1290.781	1370.7217	1397.4284	1433.9188	1458.2272	1478.1183	1497.3704	1503.0272	1521.5818	1756.7993	1821.3233	2943.9715	2951.8991	2956.7882	3059.0339	3083.5939	3118.4035	3134.813	3478.9399	3504.1044
CNC1CN(C=O)C1=N	CN[C@H]1CN(C=O)[C]1[NH]	
InChI=1S/C5H9N3O/c1-7-4-2-8(3-9)5(4)6/h3-4,6-7H,2H2,1H3	InChI=1S/C5H9N3O/c1-7-4-2-8(3-9)5(4)6/h3-4,6-7H,2H2,1H3/t4-/m0/s1
