23
gdb 89481	2.72271	1.50725	1.31029	1.3215	83.79	-0.2467	0.0777	0.3244	1120.6384	0.207783	-388.324007	-388.315578	-388.314634	-388.356489	34.26	
C	-0.2836968978	 1.5403238254	 0.0099530517	-0.419841
C	 0.0394328431	 0.0472936966	-0.0114962857	 0.053147
C	 0.8208898074	-0.4565527878	-1.2637807358	-0.281694
C	 1.9677507189	-1.2816687264	-0.6191516417	 0.416714
C	 2.5040292975	-2.4332051914	-1.4389081381	-0.482752
C	 3.0248689254	-0.2948024526	-0.0569686207	-0.248871
C	 2.2940352279	 0.265401685	 1.1971250427	-0.225493
C	 0.9522766703	-0.4959341448	 1.1188093481	 0.054317
O	 1.3477338122	-1.7670773429	 0.5913162773	-0.29326
H	 0.6087058817	 2.156194018	-0.1417844525	 0.115585
H	-0.9923297007	 1.7943457509	-0.7851964593	 0.116456
H	-0.7380464173	 1.8381116374	 0.9618323449	 0.112638
H	-0.9008583893	-0.5092298216	 0.0604647751	 0.076732
H	 0.1974067122	-1.0888569398	-1.9017054203	 0.095603
H	 1.2008675683	 0.3650563267	-1.8791649713	 0.091096
H	 2.9809319426	-2.0628651406	-2.3519884894	 0.116545
H	 3.2466391763	-3.000128075	-0.8694750647	 0.12194
H	 1.6962112729	-3.1130950729	-1.7257251458	 0.12163
H	 3.9361596398	-0.8320343124	 0.2193762804	 0.09749
H	 3.2980674357	 0.4784097771	-0.7801804214	 0.093125
H	 2.8216965003	-0.0016850476	 2.1156939249	 0.103107
H	 2.1778633249	 1.3512444033	 1.1869322951	 0.098124
H	 0.4473852675	-0.6359547847	 2.0760873365	 0.067661
89.3064	208.0957	217.9466	237.0468	281.8436	307.6582	379.8304	405.7465	465.7486	536.3432	574.0204	613.471	728.3032	805.4635	824.4663	844.0522	878.8108	885.654	907.4121	931.089	947.0345	974.1548	1014.8895	1023.9181	1071.1679	1074.6001	1100.8286	1135.3812	1173.5976	1193.5531	1211.9024	1227.4695	1250.7604	1263.265	1299.9643	1312.34	1329.7983	1348.1159	1356.4376	1371.401	1410.2946	1414.1311	1478.2691	1484.6668	1490.9916	1495.9353	1496.3241	1504.074	1514.7985	3028.7575	3037.7601	3040.4519	3049.1918	3056.5848	3071.1977	3090.433	3093.0022	3098.0072	3100.7756	3105.1268	3110.3721	3113.1296	3119.1812
CC1CC2(C)CCC1O2	C[C@H]1C[C@@]2(C)CC[C@@H]1O2	
InChI=1S/C8H14O/c1-6-5-8(2)4-3-7(6)9-8/h6-7H,3-5H2,1-2H3	InChI=1S/C8H14O/c1-6-5-8(2)4-3-7(6)9-8/h6-7H,3-5H2,1-2H3/t6-,7-,8+/m0/s1
