19
gdb 12118	2.98851	1.87767	1.58989	2.2261	70.79	-0.2384	0.0687	0.307	911.2664	0.164357	-365.021028	-365.012584	-365.01164	-365.053406	32.655	
C	-0.058202726	 1.363917042	-0.6753570649	-0.488349
C	-0.0645458686	-0.0205288156	-0.0582498294	 0.28115
C	 1.1305459097	-0.8853150034	-0.2283338027	-0.272331
N	 0.8204061451	-0.2883948203	 1.0876044787	-0.351189
C	-1.4305576928	-0.6590900923	 0.0371407085	 0.358961
O	-2.0608494551	-0.8219372609	-1.2119256638	-0.467862
C	-1.6973955084	-1.7537300786	 1.0202200807	-0.303803
C	-2.3078856574	-0.3813820274	 1.2326207513	-0.32737
H	 0.9593784432	 1.7611437942	-0.7457923913	 0.112912
H	-0.4728875143	 1.3415422291	-1.6885501851	 0.124167
H	-0.6567914405	 2.0621424508	-0.0783773648	 0.121531
H	 1.0117832793	-1.9637084394	-0.2760464996	 0.12275
H	 1.9747736121	-0.4932018883	-0.7896380729	 0.107796
H	 1.4218693161	 0.5149269522	 1.252619011	 0.226343
H	-2.4629767014	 0.0187166259	-1.4541685672	 0.280839
H	-2.3556446682	-2.5444633282	 0.6802017314	 0.115061
H	-0.8912649748	-2.0486630315	 1.680264136	 0.136113
H	-1.9035921398	 0.2291705486	 2.0325783473	 0.116915
H	-3.3718479483	-0.270305657	 1.0529689768	 0.106364
70.5084	197.2813	224.1966	234.6394	271.8018	301.2524	360.3793	367.64	419.9615	491.4189	542.7289	600.6767	782.2143	810.9385	858.1591	913.8598	919.8819	929.027	943.923	974.5211	995.301	1004.1691	1048.7969	1052.1943	1087.4152	1116.1382	1146.7715	1196.9112	1234.4015	1258.13	1271.326	1333.1336	1363.5068	1408.3729	1410.1731	1438.1261	1484.3019	1489.344	1505.2791	1515.5775	3025.1545	3090.7316	3101.0052	3109.7167	3130.6217	3147.3063	3197.0431	3220.3829	3245.6918	3497.2769	3804.9685
CC1(CN1)C1(O)CC1	C[C@]1(CN1)C1(O)CC1	
InChI=1S/C6H11NO/c1-5(4-7-5)6(8)2-3-6/h7-8H,2-4H2,1H3	InChI=1S/C6H11NO/c1-5(4-7-5)6(8)2-3-6/h7-8H,2-4H2,1H3/t5-/m0/s1
