14
gdb 20956	7.66584	1.22276	1.06869	2.6404	59.89	-0.2619	-0.0044	0.2575	1065.0929	0.107579	-415.85876	-415.851502	-415.850558	-415.891113	25.181	
C	 0.000432742	 1.4705775613	-0.024375136	-0.391815
C	-0.002226403	-0.0433263236	 0.0103750512	-0.060996
O	 0.678208024	-0.499006176	-1.1857451862	-0.255546
C	 0.7952952337	-1.7936265893	-1.3672046017	 0.539576
N	 1.3745040749	-2.3706466347	-2.3814815679	-0.368362
C	 1.2055830118	-3.689068247	-2.0565407186	 0.059704
N	 0.5787804281	-3.9411849349	-0.9397275235	-0.135401
O	 0.2911502395	-2.6360145946	-0.4573297941	-0.218845
H	 1.0228650407	 1.8569436663	-0.0379543943	 0.141315
H	-0.5225014968	 1.839637876	-0.9104693993	 0.141314
H	-0.5057265324	 1.857523958	 0.8644398606	 0.131553
H	 0.5264254727	-0.4344705805	 0.8853007698	 0.134691
H	-1.0176688003	-0.4517775787	 0.0135080083	 0.134685
H	 1.5654807351	-4.4974884824	-2.6774454282	 0.148127
60.8005	96.3223	164.8783	250.3082	313.2235	351.825	497.5244	639.4119	736.8948	771.0657	815.7748	887.2594	919.5105	942.0878	973.0633	1021.2653	1071.8405	1128.8662	1179.6668	1217.8536	1284.4504	1298.5696	1353.0406	1395.0622	1421.5468	1484.2064	1497.5132	1515.6941	1559.357	1657.0728	3049.9642	3052.6114	3094.5584	3129.2475	3135.1729	3254.0379
CCOC1=NC=NO1	CCOc1ncno1	
InChI=1S/C4H6N2O2/c1-2-7-4-5-3-6-8-4/h3H,2H2,1H3	InChI=1S/C4H6N2O2/c1-2-7-4-5-3-6-8-4/h3H,2H2,1H3
