18
gdb 79944	2.15773	1.78469	1.47323	2.9723	78.47	-0.2361	-0.0504	0.1857	1009.8537	0.147215	-401.962299	-401.953896	-401.952952	-401.994895	31.944	
C	-0.098104619	 1.5377380758	-0.0803460658	-0.42738
C	 0.0300127357	 0.0415895998	 0.0616897721	-0.012192
N	 1.3006466376	-0.7130369627	-0.1595631962	-0.147251
C	 2.4768711976	 0.0686593746	-0.0556073032	-0.032536
C	 2.7926256595	 0.4530152466	 1.1947019359	-0.219227
C	 1.6872234864	 0.0550770516	 2.0875324946	 0.339628
O	 1.5743455829	 0.2086536341	 3.2847775933	-0.351152
C	 0.7045790833	-0.6914322266	 1.1907992159	 0.161106
C	 0.1071155151	-1.9525102892	 1.7646015355	-0.474084
H	 0.7660829722	 2.0766658179	 0.3093254281	 0.137987
H	-0.2335909215	 1.8097862816	-1.1324988999	 0.129194
H	-0.9845564345	 1.875267025	 0.4661510117	 0.138468
H	-0.8158446147	-0.5022297318	-0.3573041444	 0.106724
H	 3.0096124824	 0.2947261453	-0.9723745305	 0.128129
H	 3.6651027088	 1.0065858949	 1.5115245839	 0.121557
H	-0.4300105738	-1.7084572124	 2.6857182982	 0.145328
H	-0.5824242112	-2.4250951492	 1.0610443162	 0.121845
H	 0.8918554633	-2.6725038554	 2.0158066245	 0.133855
122.4185	149.1072	208.9015	217.2626	232.0116	263.8777	326.0635	414.2556	489.1852	538.7522	607.5604	671.9667	712.1051	785.1726	808.7006	826.0655	857.6473	903.7804	964.1916	1005.0847	1036.0919	1076.5071	1098.844	1111.1206	1134.9014	1139.9761	1179.9119	1299.2498	1326.275	1359.3824	1407.2998	1410.5348	1430.6033	1480.4561	1491.2604	1494.0158	1500.1635	1602.5476	1796.9064	3043.2949	3045.1033	3101.9836	3114.6925	3115.6742	3128.7238	3147.2308	3199.4874	3243.3817
CC1N2C=CC(=O)C12C	C[C@H]1N2C=CC(=O)[C@@]12C	
InChI=1S/C7H9NO/c1-5-7(2)6(9)3-4-8(5)7/h3-5H,1-2H3	InChI=1S/C7H9NO/c1-5-7(2)6(9)3-4-8(5)7/h3-5H,1-2H3/t5-,7-,8?/m1/s1
