19
gdb 51612	6.50491	0.71996	0.70529	4.0209	80.	-0.248	0.0227	0.2707	1612.3895	0.159089	-419.161586	-419.152792	-419.151848	-419.196425	32.294	
N	 0.7822161671	 0.9846582989	-0.2118177065	-0.441573
C	 0.3742931305	-0.1965923435	-0.0379361604	 0.118622
O	-0.9284577623	-0.4943853852	-0.2083989061	-0.185882
C	-1.358323381	-1.798952635	 0.1384571047	 0.145045
C	-2.1137696084	-1.95294598	 1.4889531802	-0.346182
C	-3.1477657499	-2.792722731	 0.7268241949	 0.368474
C	-3.5926591433	-4.160530573	 1.0702902839	-0.305978
N	-4.5459872128	-3.0285972971	 1.0457407441	-0.362306
C	-2.6227534503	-2.2704153013	-0.6152897015	-0.323488
H	 1.7890562406	 1.0276928773	-0.0692700742	 0.228768
H	 0.9880729179	-1.0659187347	 0.2390817256	 0.082964
H	-0.5273483425	-2.5074366483	 0.04728378	 0.087227
H	-1.5817365001	-2.4118731445	 2.3261921349	 0.10452
H	-2.5202836277	-0.9847151582	 1.7987782783	 0.124907
H	-3.7470581888	-4.9001685272	 0.288693516	 0.120732
H	-3.292244482	-4.5719266082	 2.0312790505	 0.111734
H	-4.7498589329	-2.720584194	 1.9939431987	 0.231413
H	-3.2007195919	-1.4102730988	-0.9644775159	 0.131593
H	-2.4905842425	-2.9787043161	-1.4355519371	 0.10941
34.399	59.548	107.2419	217.459	288.9294	304.4137	331.3104	404.6125	435.6157	531.9654	610.6573	767.6552	812.9513	819.9786	849.0467	882.8327	916.7349	962.3342	965.6704	994.4504	1020.4927	1029.3861	1043.8121	1076.7915	1116.8425	1125.3056	1164.214	1209.8703	1214.3746	1250.3969	1261.5568	1267.7173	1293.2126	1303.1077	1386.2913	1421.3254	1430.9038	1463.5922	1491.4605	1517.2752	1745.6747	3009.9418	3041.5659	3050.3255	3067.7088	3099.7756	3109.8828	3126.293	3184.7062	3491.9033	3518.6455
N=COC1CC2(CN2)C1	[NH][CH]O[C@H]1C[C@]2(CN2)C1	
InChI=1S/C6H10N2O/c7-4-9-5-1-6(2-5)3-8-6/h4-5,7-8H,1-3H2	InChI=1S/C6H10N2O/c7-4-9-5-1-6(2-5)3-8-6/h4-5,7-8H,1-3H2/t5-,6+
