18
gdb 73094	2.94939	1.49566	1.24742	3.0671	72.66	-0.26	0.0245	0.2845	1054.225	0.147986	-439.096096	-439.088161	-439.087217	-439.128769	30.465	
C	-0.1155602402	 1.5096525384	 0.0873525824	-0.461723
C	 0.0000910729	 0.0006972282	 0.0295061502	 0.396624
C	-1.2990863573	-0.7718187266	-0.1736725077	-0.353474
C	-1.1371210872	-2.0284442939	 0.6584839487	 0.401447
N	-1.9041990706	-3.0275477851	 0.6407397926	-0.529649
O	-0.0382946094	-1.9130777471	 1.4790943681	-0.247974
C	 0.7273172586	-0.7542231182	 1.1743479141	 0.009988
C	 1.83625716	-0.9958405272	 0.1417091112	-0.105255
O	 1.0310134014	-0.4228630113	-0.9114598088	-0.324384
H	 0.8556830567	 1.9665888337	 0.2978360103	 0.124757
H	-0.4690655388	 1.8966739244	-0.8735553346	 0.137241
H	-0.8233083185	 1.8183259063	 0.8635764042	 0.122809
H	-2.1699661017	-0.2123565759	 0.1823406965	 0.131624
H	-1.4613225672	-1.0173842269	-1.2244559583	 0.152343
H	-1.5875832668	-3.7376361698	 1.303095535	 0.223846
H	 0.9777916449	-0.2381986018	 2.1022153669	 0.097185
H	 2.7570263598	-0.4238764284	 0.3117070335	 0.105971
H	 2.0805703634	-2.0479967686	-0.0364651142	 0.118623
69.7703	115.887	216.7896	252.4645	331.2474	370.193	389.5743	475.3381	519.223	582.7687	658.5541	710.0371	823.0027	860.5543	891.0686	895.9443	903.5864	941.5164	958.683	1011.9598	1046.1032	1065.0167	1097.5883	1119.1738	1163.7332	1180.6204	1212.5775	1232.4669	1245.5345	1291.514	1329.0128	1345.9459	1385.6779	1409.1209	1449.166	1483.7316	1490.8202	1512.2228	1782.3384	3021.3153	3036.9474	3064.5676	3082.2906	3104.7542	3110.3546	3114.3337	3128.4879	3474.9285
CC12CC(=N)OC1CO2	C[C@]12C[C]([NH])O[C@H]1CO2	
InChI=1S/C6H9NO2/c1-6-2-5(7)9-4(6)3-8-6/h4,7H,2-3H2,1H3	InChI=1S/C6H9NO2/c1-6-2-5(7)9-4(6)3-8-6/h4,7H,2-3H2,1H3/t4-,6-/m0/s1
