19
gdb 89869	3.49355	1.02975	0.89588	4.59	82.48	-0.2236	0.0269	0.2505	1339.2946	0.159075	-382.044061	-382.035293	-382.034349	-382.077717	32.647	
C	-0.0063433162	 1.5297219801	 0.0845332257	-0.321567
N	-0.0215850113	 0.0851658563	 0.1175410349	-0.063346
C	-1.2736681947	-0.5969908685	 0.5150310253	-0.241985
C	-0.4239715789	-1.5806954242	 1.3192183491	 0.333691
C	-0.795342271	-2.4871935642	 2.4335079671	-0.352933
C	-0.3419710417	-3.079106148	 1.0990831495	-0.231552
C	-1.3048445072	-3.7196145093	 0.2497238202	 0.294353
N	-2.0905837217	-4.2161968684	-0.4399200279	-0.34305
C	 0.7423355073	-0.6015169676	 1.1796222658	-0.240407
H	 1.0026333374	 1.8844884158	-0.1504533027	 0.123995
H	-0.6781582748	 1.8883842073	-0.7020461589	 0.127238
H	-0.3190688481	 1.9924997753	 1.0407248858	 0.090118
H	-1.9228940972	 0.015682801	 1.1627706416	 0.090507
H	-1.8671550067	-0.9965709274	-0.3140178986	 0.130921
H	-0.1118881477	-2.5998764328	 3.2686083448	 0.130226
H	-1.8448640698	-2.5895163734	 2.6873143091	 0.141605
H	 0.6503763206	-3.5174686338	 1.0658767459	 0.133198
H	 1.7151017837	-0.9982830752	 0.8666127146	 0.108679
H	 0.8805919179	 0.0074981868	 2.0895900485	 0.090311
70.0982	117.431	147.0568	226.85	253.2187	301.3489	304.5775	384.9663	399.1543	496.4975	548.586	599.4701	737.9224	797.6624	843.6017	882.5938	931.0335	959.3099	991.9276	1016.0123	1054.4034	1080.3296	1094.286	1117.6964	1127.6173	1149.8675	1194.3534	1198.6582	1214.5583	1241.3929	1303.0589	1320.6402	1351.1987	1430.4303	1453.3604	1486.3374	1493.27	1497.7347	1499.7924	1525.3868	2350.4282	2919.792	2952.8857	2965.7711	3045.994	3059.4849	3065.3588	3102.1773	3133.7792	3162.9939	3223.6681
CN1CC2(CC2C#N)C1	CN1CC2(C[C@H]2C#N)C1	
InChI=1S/C7H10N2/c1-9-4-7(5-9)2-6(7)3-8/h6H,2,4-5H2,1H3	InChI=1S/C7H10N2/c1-9-4-7(5-9)2-6(7)3-8/h6H,2,4-5H2,1H3/t6-/m0/s1
