17
gdb 66122	2.65236	1.50123	1.32907	2.8385	72.74	-0.2561	0.0227	0.2788	1024.8	0.134672	-421.778127	-421.769848	-421.768904	-421.810643	32.168	
O	-0.0734657201	 1.4060853605	 0.0239369632	-0.464668
C	 0.0237652001	-0.0119356029	 0.0139717708	 0.209578
C	 0.6538066524	-0.5957915487	 1.3170309331	-0.281852
C	-0.016984832	-1.9706230401	 1.523029368	-0.248008
C	-1.3905529098	-1.7858489381	 0.9046127563	 0.058111
O	-2.0221623698	-0.5554185113	 1.2923936783	-0.260019
C	-1.3807915517	-0.617292784	 0.0202630882	 0.027156
C	 0.7374268127	-0.479397062	-1.1815090874	 0.304244
C	 1.3392919368	-0.8457707987	-2.1561157008	-0.496674
H	 0.8038649999	 1.7630428421	-0.1514335535	 0.284075
H	 1.742043605	-0.653355297	 1.2567213014	 0.103077
H	 0.3799621382	 0.0866531711	 2.1234022181	 0.130739
H	 0.515052766	-2.7609926256	 0.9812250715	 0.114614
H	-0.0628918455	-2.261691381	 2.5767639796	 0.113399
H	-2.0614193685	-2.6270318971	 0.7527140427	 0.096559
H	-2.0166869456	-0.4969540532	-0.8515517227	 0.106607
H	 1.8651115019	-1.1691736842	-3.0206845668	 0.203063
105.5499	140.4247	200.142	240.6322	267.7928	350.8514	389.8441	462.4275	487.5767	534.2049	633.5197	637.1439	668.8733	685.9357	745.1277	832.7106	849.457	877.4815	938.3909	965.6193	1003.2439	1029.7808	1058.7172	1105.1145	1115.0986	1139.898	1210.1294	1223.5173	1259.1022	1300.9315	1320.2085	1335.555	1387.2667	1435.335	1476.7744	1487.2388	2226.7667	3045.8305	3080.8216	3091.1001	3136.7431	3151.8406	3169.0326	3498.3182	3812.2611
OC1(CCC2OC12)C#C	O[C@]1(CC[C@H]2O[C@@H]12)C#C	
InChI=1S/C7H8O2/c1-2-7(8)4-3-5-6(7)9-5/h1,5-6,8H,3-4H2	InChI=1S/C7H8O2/c1-2-7(8)4-3-5-6(7)9-5/h1,5-6,8H,3-4H2/t5-,6-,7+/m1/s1
