19
gdb 47364	2.16946	1.50623	1.19247	3.0361	80.2	-0.2364	-0.0144	0.2221	1129.38	0.159558	-385.897284	-385.888772	-385.887828	-385.930548	32.789	
O	-0.0438100094	-0.0761495227	 0.1418756989	-0.305243
C	-0.048512494	 1.1282444956	 0.0496519419	 0.400826
C	-1.330341352	 1.9511465007	 0.0747052387	-0.290046
C	-1.3633496199	 3.0254156436	-1.0298730915	-0.208936
C	-0.0913042519	 3.8789659132	-1.0223688338	-0.203165
C	 1.1788129204	 3.0087033378	-1.1844787048	-0.178329
C	 1.2400431798	 1.9388399424	-0.0598403791	-0.304108
C	 1.2362085187	 2.3860101355	-2.5065407928	 0.345526
C	 1.271790888	 1.867749959	-3.5908434288	-0.480575
H	-2.1805270275	 1.2678879826	 0.0126731759	 0.120174
H	-1.375060271	 2.446119606	 1.0563935977	 0.11458
H	-1.4624857032	 2.5386807506	-2.0065885363	 0.125257
H	-2.2459536875	 3.6600742961	-0.9007570358	 0.102212
H	-0.126990763	 4.6252283135	-1.8215090084	 0.11102
H	-0.0120601062	 4.4248009577	-0.0731722907	 0.09579
H	 2.0582903055	 3.656183089	-1.0792461328	 0.108697
H	 1.3839344101	 2.4623928051	 0.8954917207	 0.115537
H	 2.076656412	 1.2525040631	-0.201291167	 0.129185
H	 1.312998581	 1.4085017212	-4.5475664621	 0.201599
73.328	97.0963	168.1647	223.4581	305.4849	365.8836	395.4711	456.5865	479.4538	550.444	588.7301	634.6271	641.3708	692.8853	742.1578	770.0257	842.5845	884.5161	914.0482	947.3047	992.9635	1020.051	1068.2362	1104.2844	1118.4084	1161.7697	1224.9074	1235.8171	1262.0315	1291.6173	1329.5395	1343.7212	1362.3263	1369.8547	1391.0192	1458.464	1465.2477	1486.502	1497.2946	1820.4495	2232.8947	3006.4369	3018.1313	3022.6244	3033.1773	3043.4359	3082.9376	3088.3285	3107.2086	3121.077	3503.3429
O=C1CCCC(C1)C#C	O=C1CCC[C@@H](C1)C#C	
InChI=1S/C8H10O/c1-2-7-4-3-5-8(9)6-7/h1,7H,3-6H2	InChI=1S/C8H10O/c1-2-7-4-3-5-8(9)6-7/h1,7H,3-6H2/t7-/m0/s1
