18
gdb 72074	2.97946	1.62272	1.47753	2.7093	75.05	-0.2377	-0.0187	0.2191	968.2293	0.149795	-401.967109	-401.959996	-401.959052	-401.998338	28.796	
C	-0.0045303994	 1.4712614023	 0.06850182	-0.49219
C	 0.0004280226	-0.0245713676	-0.0616680872	 0.342572
C	 1.056498801	-0.7717957727	-0.8895217483	-0.288645
C	 0.6010274121	-2.2039540979	-0.5257209998	-0.179879
C	 0.4967023783	-2.0798834588	 1.0030285529	-0.168652
N	-0.334009263	-0.8410453459	 1.1167660043	-0.154999
C	-1.2490847352	-0.868734699	-0.0621409861	-0.215128
C	-0.8993741957	-2.0869769155	-0.8717787115	 0.452136
O	-1.5844337591	-2.7590881543	-1.5929852425	-0.337181
H	 0.951697928	 1.8235754761	 0.471688203	 0.125359
H	-0.1566109248	 1.948375049	-0.9052010899	 0.12505
H	-0.7976633537	 1.7986586819	 0.744901994	 0.13633
H	 0.9821397443	-0.5566218232	-1.9596006351	 0.116953
H	 2.075360557	-0.5473144326	-0.5557702906	 0.106892
H	 1.1284448231	-3.048689198	-0.9590460839	 0.092056
H	-0.0193981513	-2.9176239346	 1.4810767108	 0.120021
H	 1.4576629037	-1.9206510656	 1.5005669914	 0.111891
H	-2.2542387778	-0.4839226838	 0.0481196885	 0.107416
141.3449	196.4766	237.9598	303.9206	394.4207	460.5401	474.7063	550.8294	613.075	684.2988	729.4389	784.3817	799.1156	861.7494	882.6867	925.1921	934.1221	942.8664	986.5025	1014.0498	1033.6069	1059.6636	1084.5501	1140.7208	1163.4719	1172.2175	1196.373	1226.5206	1251.3984	1266.4239	1301.5793	1327.9268	1390.2545	1422.4563	1486.1381	1490.8458	1494.6389	1514.8406	1871.3615	3033.8915	3046.3714	3056.0429	3095.3651	3097.8564	3106.2811	3124.8167	3169.3254	3209.8576
CC12CC3CN1C2C3=O	C[C@@]12C[C@H]3CN1[C@@H]2C3=O	
InChI=1S/C7H9NO/c1-7-2-4-3-8(7)6(7)5(4)9/h4,6H,2-3H2,1H3	InChI=1S/C7H9NO/c1-7-2-4-3-8(7)6(7)5(4)9/h4,6H,2-3H2,1H3/t4-,6+,7-,8?/m0/s1
