20
gdb 70337	2.18675	2.06392	1.34894	3.2363	77.94	-0.2316	0.0732	0.3047	1027.3748	0.170791	-403.120033	-403.111791	-403.110847	-403.152113	33.025	
C	 0.0187382849	 1.5679974303	 0.0998375378	-0.506571
C	 0.123210223	 0.0675381753	-0.0047306089	 0.253678
N	-0.6011931384	-0.7926903438	 0.9585142534	-0.349013
C	 0.8751900338	-0.7762469859	 0.9675668959	-0.089447
C	 1.5391586922	-1.9456083441	 0.2423965787	-0.249844
C	 1.1166843911	-1.7960047748	-1.2150643174	-0.029621
O	-0.2888697095	-1.9114228299	-1.4494747223	-0.27731
C	 0.2729047628	-0.5948364555	-1.3840513303	 0.390305
C	 0.1829399626	 0.2199553701	-2.646806522	-0.500936
H	 0.8367642553	 2.0716718035	-0.4261101029	 0.12466
H	-0.9230952897	 1.9356984873	-0.3232776024	 0.128778
H	 0.0595378054	 1.8822880001	 1.1479486527	 0.11448
H	-0.9373223972	-0.2077977065	 1.7221934832	 0.221631
H	 1.3805654524	-0.3354835199	 1.8228524025	 0.081642
H	 2.6296000882	-1.8632545063	 0.3184685918	 0.099692
H	 1.242952226	-2.9153375378	 0.6545195835	 0.122704
H	 1.7510120059	-2.192411834	-2.0070426164	 0.085362
H	-0.8132768651	 0.6617309134	-2.7596501899	 0.128945
H	 0.9144240476	 1.0343877438	-2.6550399861	 0.11967
H	 0.3676457087	-0.4194588155	-3.5133055807	 0.131196
142.5931	198.8139	216.3942	244.7939	291.6925	307.366	359.6682	416.0683	454.9699	517.0265	596.3678	608.8966	708.7714	783.243	806.3278	848.6775	872.4323	901.1676	932.4918	961.7958	989.6666	1030.9716	1043.7786	1077.8598	1099.1366	1109.843	1123.7195	1160.025	1201.8875	1213.6659	1293.7253	1302.5948	1323.8917	1352.4641	1406.4363	1420.4848	1432.8591	1445.2723	1465.8836	1480.7255	1490.7082	1494.4106	1504.6328	3025.7352	3036.337	3043.2624	3087.9764	3090.5727	3096.1105	3099.3839	3117.1343	3124.1622	3140.8207	3472.8491
CC12NC1CC1OC21C	C[C@]12N[C@H]1C[C@H]1O[C@@]21C	
InChI=1S/C7H11NO/c1-6-4(8-6)3-5-7(6,2)9-5/h4-5,8H,3H2,1-2H3	InChI=1S/C7H11NO/c1-6-4(8-6)3-5-7(6,2)9-5/h4-5,8H,3H2,1-2H3/t4-,5+,6-,7+/m0/s1
