17
gdb 72839	2.679	1.56843	1.29194	4.7159	68.17	-0.2244	0.024	0.2484	1013.4643	0.137776	-455.152675	-455.144773	-455.143829	-455.185076	30.334	
O	 0.0331077073	 1.4077689977	-0.0340354878	-0.471913
C	 0.0463563181	 0.0075922238	 0.0136443244	 0.372714
C	 0.2894000192	-0.7735857692	-1.3061243316	-0.235351
N	-0.850812252	-1.6504890607	-0.9447545317	-0.320667
C	-1.3455486721	-0.6516641757	 0.0457559607	-0.147448
C	-1.5401119258	-1.241191125	 1.4414751494	 0.441435
O	-2.5397172806	-1.7379209752	 1.9099172273	-0.385515
N	-0.3312582895	-1.101354103	 2.0745486161	-0.314081
C	 0.7561947694	-0.5670034299	 1.2749817647	-0.220479
H	 0.9424326455	 1.7262392003	-0.0527120269	 0.281882
H	 0.1094765371	-0.115244933	-2.1659328188	 0.101746
H	 1.2426506556	-1.2983175294	-1.4389168784	 0.098653
H	-1.4969751399	-1.8651984418	-1.6943050348	 0.231523
H	-2.1796204103	-0.0212591038	-0.2722869837	 0.098708
H	-0.1866958048	-1.5258933042	 2.9773441281	 0.250994
H	 1.486967464	-1.3421625309	 1.010207108	 0.113615
H	 1.2813045188	 0.2355598301	 1.8066878452	 0.104184
95.6511	131.3358	222.6748	247.9306	317.3422	350.2468	393.4754	487.1069	525.7138	593.5369	621.0318	673.3448	703.7755	788.647	878.9822	908.4089	944.6375	966.2325	1015.3918	1024.0255	1041.9478	1077.6101	1120.5843	1160.9622	1183.7128	1220.121	1251.1063	1275.5765	1298.6784	1330.5403	1333.9215	1372.9426	1398.31	1453.6397	1512.3855	1518.2641	1834.8954	3008.4449	3011.0599	3049.0575	3062.2161	3085.4753	3552.2688	3635.635	3797.701
OC12CNC1C(=O)NC2	O[C@]12CN[C@H]1C(=O)NC2	
InChI=1S/C5H8N2O2/c8-4-3-5(9,1-6-3)2-7-4/h3,6,9H,1-2H2,(H,7,8)	InChI=1S/C5H8N2O2/c8-4-3-5(9,1-6-3)2-7-4/h3,6,9H,1-2H2,(H,7,8)/t3-,5-/m0/s1
