19
gdb 88482	2.23831	1.478	1.12292	4.9073	79.64	-0.268	0.0223	0.2902	1160.8573	0.15929	-382.04266	-382.03367	-382.032725	-382.076591	33.574	
C	 0.435658259	 1.5098254774	-0.3974960105	-0.424232
C	 0.0727564275	 0.0845411872	-0.0392817979	 0.020294
C	 1.1252459454	-0.9968186106	-0.0109180728	-0.330796
C	 0.4818653499	-0.5384547683	 1.277013674	-0.088702
C	 1.2323147488	 0.2272163632	 2.3390562655	 0.117521
C	 2.3242918153	-0.4471355364	 3.1109509156	-0.263011
N	 2.6411077412	 0.6456366719	 2.1912490661	-0.321342
C	 0.4081959411	 1.1955897699	 3.0424190902	 0.29463
N	-0.2838862647	 1.9364208046	 3.5979141562	-0.343866
H	 1.4251970003	 1.7875332163	-0.0231039491	 0.128923
H	 0.4401334052	 1.644653073	-1.4842099592	 0.120695
H	-0.283947455	 2.2169170437	 0.0270630138	 0.141773
H	-0.9056508112	-0.2248250767	-0.3966669329	 0.095251
H	 0.8837793377	-1.9910293701	-0.3699257208	 0.122501
H	 2.1463267629	-0.6956679211	-0.2278336432	 0.111933
H	-0.2409779517	-1.2251912708	 1.7093220959	 0.107758
H	 2.4621723825	-0.2189358411	 4.1629512825	 0.142783
H	 2.5559710476	-1.4674393139	 2.8173188016	 0.128802
H	 3.0111018782	 0.2735026419	 1.3206268851	 0.239083
52.4669	121.1077	170.3844	194.6386	225.089	261.3025	314.7356	351.1969	455.2587	482.402	580.7126	589.1596	670.5737	788.2529	835.1897	853.8569	861.0488	907.6783	926.8539	970.3401	995.8821	1021.6483	1071.6102	1074.7944	1107.0106	1128.1195	1146.7514	1157.5199	1196.1496	1222.2073	1257.9176	1288.6621	1346.6866	1393.238	1415.3108	1427.2619	1489.5441	1494.3807	1504.2991	1506.6978	2356.6988	3038.4197	3101.7448	3111.5625	3115.695	3120.1549	3138.1824	3148.9011	3206.3345	3210.7493	3513.8648
CC1CC1C1(CN1)C#N	C[C@H]1C[C@H]1[C@]1(CN1)C#N	
InChI=1S/C7H10N2/c1-5-2-6(5)7(3-8)4-9-7/h5-6,9H,2,4H2,1H3	InChI=1S/C7H10N2/c1-5-2-6(5)7(3-8)4-9-7/h5-6,9H,2,4H2,1H3/t5-,6+,7+/m0/s1
