17
gdb 86532	3.77917	0.92949	0.84171	1.3388	69.92	-0.251	-0.0962	0.1548	1355.7111	0.13371	-458.963715	-458.954593	-458.953649	-458.998847	32.279	
O	 0.3980174272	 1.0303194831	-0.4677023483	-0.429863
C	-0.1821758315	-0.0960217701	 0.1418957962	 0.157179
C	 0.167804773	-0.4151419525	 1.6222154565	-0.276278
C	-1.3449425537	-0.6399039893	 1.9010084057	-0.125274
C	-1.6495807966	 0.1241971839	 0.5557881082	-0.245481
C	-1.7742491157	-2.0754415072	 1.8178322071	 0.284346
O	-1.1713736946	-2.9552981514	 1.2414911169	-0.293529
C	-3.1037012536	-2.4573716366	 2.4902494349	 0.092202
O	-3.7777399627	-1.6929741266	 3.128222135	-0.215406
H	 1.2708020211	 0.787302878	-0.791965812	 0.285497
H	-0.0775827023	-0.9941101592	-0.479300538	 0.088279
H	 0.8331804995	-1.2581952432	 1.8167125469	 0.112193
H	 0.5298592107	 0.4810540501	 2.1315824682	 0.111342
H	-1.7771063594	-0.1817954218	 2.7903780121	 0.108638
H	-1.8349730951	 1.1815072107	 0.756452471	 0.127567
H	-2.4354055249	-0.2648472705	-0.0950326529	 0.11104
H	-3.3698526515	-3.5236085874	 2.3290597925	 0.107549
31.711	84.37	123.9003	170.2351	217.2878	247.5817	268.3884	378.9119	451.4894	500.6027	567.8568	617.4064	693.028	747.3098	823.3782	890.6829	913.478	959.9567	991.0582	1023.6466	1067.0714	1086.0955	1140.1808	1161.9733	1182.7177	1199.6091	1253.3184	1264.8659	1270.4836	1320.2845	1362.2575	1384.2392	1433.257	1461.3249	1489.7989	1788.3839	1824.4649	2922.9493	3028.2055	3068.8466	3072.7264	3116.3381	3132.4527	3136.0607	3821.8629
OC1CC(C1)C(=O)C=O	O[C@H]1C[C@@H](C1)C(=O)C=O	
InChI=1S/C6H8O3/c7-3-6(9)4-1-5(8)2-4/h3-5,8H,1-2H2	InChI=1S/C6H8O3/c7-3-6(9)4-1-5(8)2-4/h3-5,8H,1-2H2/t4-,5-
