13
gdb 13578	4.12999	1.31446	1.26354	3.4358	61.3	-0.2982	-0.1008	0.1974	979.7401	0.093264	-398.59329	-398.585384	-398.58444	-398.626148	27.198	
C	 0.2663696544	 1.4958623741	-0.4627125676	-0.436033
C	-0.0163860012	 0.0888252031	-0.0151712573	 0.088456
O	 1.0726920028	-0.8193380838	 0.0500076333	-0.220956
C	 0.4477684132	-0.4960120189	 1.2797577578	-0.072197
C	 1.239090203	 0.3254765775	 2.2461549139	 0.305459
O	 2.2338251872	 0.9544959279	 1.9883952347	-0.269547
C	 0.6689566397	 0.3364859856	 3.6121264262	 0.212334
N	 0.2097898251	 0.3421414832	 4.673367433	-0.293238
H	 1.1778919001	 1.8825548959	-0.0052044089	 0.165185
H	 0.3910276114	 1.5110967232	-1.5502278455	 0.143521
H	-0.5750565909	 2.1497799299	-0.2123623509	 0.133644
H	-0.9353843955	-0.3557226916	-0.4021140639	 0.11562
H	-0.1530379293	-1.2834022361	 1.7350464852	 0.127752
53.5231	142.3775	168.4633	205.6392	249.7433	295.0744	370.2305	453.9015	485.563	598.7359	742.0315	785.3745	841.3969	868.0484	991.9961	1023.9273	1072.4649	1087.286	1162.3803	1171.5343	1278.8091	1388.4001	1412.943	1444.3872	1488.1008	1501.4858	1791.8554	2337.8637	3046.4654	3095.4357	3109.4448	3119.4114	3153.7878
CC1OC1C(=O)C#N	C[C@H]1O[C@H]1C(=O)C#N	
InChI=1S/C5H5NO2/c1-3-5(8-3)4(7)2-6/h3,5H,1H3	InChI=1S/C5H5NO2/c1-3-5(8-3)4(7)2-6/h3,5H,1H3/t3-,5-/m1/s1
