20
gdb 111015	2.5484	1.47658	1.14416	3.7457	74.09	-0.2354	0.0608	0.2961	1125.2803	0.172749	-440.240334	-440.232102	-440.231158	-440.272971	32.666	
O	-0.0346303874	 1.3740137592	-0.1946536324	-0.425923
C	 0.0559016405	 0.0200899118	 0.2102501907	-0.100052
C	-1.3230234206	-0.6212224213	 0.1515090411	-0.000152
N	-1.9271031099	-0.5337561875	-1.2481348855	-0.150959
C	-1.2319927395	-1.8497071649	-1.5369402255	-0.258542
C	-1.4875880123	-2.1505664141	-0.0289662425	 0.398758
O	-0.7333529691	-3.0209691022	 0.7502674213	-0.488127
C	-3.027940482	-2.2685062982	-0.026764572	-0.302596
C	-3.3072205757	-1.0391233384	-0.9534110083	-0.163271
H	-0.5934445366	 1.3660270747	-0.9836877911	 0.289227
H	 0.7930308177	-0.5310472049	-0.3910516815	 0.090295
H	 0.4173433401	 0.0108171913	 1.2436274061	 0.114138
H	-1.9591953164	-0.1485035492	 0.9081497588	 0.075215
H	-1.7234408803	-2.4673951848	-2.2945366052	 0.094509
H	-0.1863617968	-1.6985675248	-1.7989315995	 0.118164
H	-1.0810164682	-3.9133129525	 0.6499354077	 0.284333
H	-3.373245277	-3.218193618	-0.4495050767	 0.092712
H	-3.4466674022	-2.1632407359	 0.9777288641	 0.108724
H	-3.8865741263	-0.2542976829	-0.4622987135	 0.114128
H	-3.8071295281	-1.3054918974	-1.8876735659	 0.10942
90.138	144.6387	223.905	260.4808	288.945	332.5719	391.8494	477.0859	495.6469	539.599	556.375	636.1059	679.5267	800.3707	847.2917	861.1391	869.0401	922.4052	937.9647	976.8101	988.1256	1057.223	1059.7621	1098.1432	1111.8228	1129.191	1166.207	1203.2525	1211.6546	1224.5997	1229.4287	1256.573	1266.102	1300.6181	1327.0856	1350.8175	1377.5679	1413.8134	1449.6825	1494.6035	1500.2049	1514.0738	1537.7893	2999.7353	3042.9734	3044.8007	3062.3109	3070.4099	3076.505	3093.7452	3121.0577	3153.7597	3751.6906	3810.6399
OCC1N2CC1(O)CC2	OC[C@H]1N2C[C@]1(O)CC2	
InChI=1S/C6H11NO2/c8-3-5-6(9)1-2-7(5)4-6/h5,8-9H,1-4H2	InChI=1S/C6H11NO2/c8-3-5-6(9)1-2-7(5)4-6/h5,8-9H,1-4H2/t5-,6-/m1/s1
