16
gdb 124930	3.26369	1.27951	0.92979	6.8736	78.96	-0.2521	-0.0229	0.2292	1210.2871	0.125027	-396.983266	-396.974307	-396.973363	-397.017746	31.251	
C	-0.0011512541	 1.5232720077	 0.0928864895	-0.505596
C	 0.0043345648	 0.0361465187	-0.0357254918	 0.309651
C	 0.0014992844	-0.7906461734	-1.145349472	 0.044764
C	-0.0134616562	-0.4108775604	-2.5924455429	-0.52176
C	 0.0292368158	-2.1007800173	-0.5942903227	 0.18718
N	 0.0473018336	-2.093575192	 0.743700537	-0.288128
N	 0.0341228597	-0.7927977899	 1.0457531701	-0.253727
C	 0.0271037158	-3.3219575364	-1.3241363815	 0.241204
N	 0.0219818848	-4.2825715728	-1.9700155294	-0.352488
H	 1.0132446746	 1.9300907615	 0.1793657734	 0.149787
H	-0.4629452869	 1.9790785897	-0.7862763272	 0.150103
H	-0.56613589	 1.8476384515	 0.9726750077	 0.136371
H	 0.994599994	-0.2045219283	-2.9706957193	 0.140848
H	-0.4283490778	-1.2192037697	-3.2003433632	 0.153086
H	-0.6172575026	 0.4852097567	-2.7669312543	 0.128936
H	 0.0326621402	-0.5251886455	 2.0170373765	 0.27977
58.4199	77.317	117.1895	139.2455	245.621	263.7231	287.7693	383.9522	519.2093	523.4514	572.2745	586.877	677.2719	701.1019	741.6197	747.0239	965.801	1000.2932	1052.058	1070.2104	1121.972	1197.2241	1244.7491	1297.9525	1407.9472	1420.939	1431.3905	1448.0416	1477.8526	1481.1313	1488.1052	1497.388	1523.6193	1620.2583	2351.9224	3032.7102	3033.2796	3087.4354	3090.1125	3118.4577	3122.6229	3654.7776
CC1=C(C)C(=NN1)C#N	Cc1c(C)c(n[nH]1)C#N	
InChI=1S/C6H7N3/c1-4-5(2)8-9-6(4)3-7/h1-2H3,(H,8,9)	InChI=1S/C6H7N3/c1-4-5(2)8-9-6(4)3-7/h1-2H3,(H,8,9)
