18
gdb 15386	3.74821	1.13936	0.94471	3.1871	73.76	-0.2559	0.013	0.2689	1249.4504	0.15337	-343.971384	-343.962725	-343.961781	-344.005081	30.858	
C	 0.1620804997	 1.5228763839	 0.0989680806	-0.383178
C	-0.013633702	 0.0070193074	 0.2202460054	-0.171969
C	-1.3764542726	-0.4610797117	-0.2888897255	-0.131301
N	-1.4788301072	-1.9196674275	-0.1955657201	-0.075959
C	-2.0063390269	-2.4742560814	 1.034801002	-0.238109
C	-2.8119752529	-2.5324320841	-0.2309148397	-0.14779
C	-4.0029903588	-1.7237084292	-0.3379352052	 0.284227
N	-4.9598690212	-1.0840185261	-0.4554114989	-0.336668
H	 1.1426379138	 1.8355107717	 0.4692307535	 0.118325
H	 0.0798362397	 1.8501861394	-0.9431555145	 0.120244
H	-0.5987289459	 2.060302599	 0.6754057092	 0.120143
H	 0.7690291843	-0.5143112887	-0.3420557698	 0.112331
H	 0.1018890141	-0.2983642973	 1.2679897195	 0.099688
H	-2.1821279271	 0.046848781	 0.2666530584	 0.106686
H	-1.497064733	-0.1911319757	-1.3443355089	 0.116689
H	-1.535965141	-3.3821271666	 1.4010669454	 0.133742
H	-2.3585113457	-1.7870189826	 1.8026284946	 0.13322
H	-2.8678723875	-3.4643109015	-0.786745106	 0.139679
84.9704	93.6686	106.4673	200.8823	224.0029	242.9769	343.1847	378.6533	423.2253	558.1994	633.8358	760.1907	762.9361	834.0951	887.3418	908.4071	925.4536	1025.3123	1026.7363	1055.4467	1114.8308	1119.1247	1134.0019	1143.1333	1201.8675	1281.9169	1313.2871	1327.9264	1335.9	1367.2762	1410.1984	1419.5442	1486.8155	1495.3139	1501.8766	1506.8601	1518.1464	2349.2099	2972.4652	3028.2532	3034.4389	3056.8014	3073.8028	3098.4901	3102.576	3109.628	3149.0627	3192.7457
CCCN1CC1C#N	CCCN1C[C@H]1C#N	
InChI=1S/C6H10N2/c1-2-3-8-5-6(8)4-7/h6H,2-3,5H2,1H3	InChI=1S/C6H10N2/c1-2-3-8-5-6(8)4-7/h6H,2-3,5H2,1H3/t6-,8?/m1/s1
