17
gdb 85730	2.08165	1.53012	1.12861	1.722	74.09	-0.2532	-0.0337	0.2195	1131.6711	0.132525	-421.777247	-421.767974	-421.767029	-421.81228	33.114	
C	 0.4567970367	 1.452300991	-0.1268829377	-0.391895
C	 0.0520391945	 0.0238132353	 0.1743518122	 0.141712
O	 0.6421403629	-0.9197769058	-0.7635075552	-0.290544
C	 1.3495084001	-1.6334479573	 0.2728797091	-0.066054
C	 2.7982176131	-1.5734792685	 0.1325780797	 0.335989
C	 3.994823385	-1.521455834	 0.0274102712	-0.448883
C	 0.7062177575	-0.7269776773	 1.3656580708	-0.18837
C	 1.6028739298	-0.0073523964	 2.3431799761	 0.141145
O	 1.4111913024	 1.1135601939	 2.7408781075	-0.249352
H	 1.5440621004	 1.5619186867	-0.1375429492	 0.128839
H	 0.0721099213	 1.731812521	-1.1126271879	 0.123452
H	 0.0485184212	 2.1350382992	 0.6223233102	 0.137872
H	-1.0404595433	-0.0707568853	 0.162398473	 0.086753
H	 1.027941928	-2.6814735425	 0.3154875961	 0.110559
H	 5.0513298016	-1.4767781169	-0.0758362524	 0.209725
H	-0.0223561136	-1.2837875644	 1.9656731835	 0.122552
H	 2.4597126627	-0.6122455186	 2.712117893	 0.0965
37.0849	61.8901	143.1017	187.9016	209.1883	240.2496	300.7206	351.8044	408.0916	507.5189	545.8395	633.0712	644.6092	676.2721	760.0186	800.6319	843.9054	899.3509	957.5419	1001.1741	1036.3363	1061.1101	1094.042	1109.1062	1167.2215	1197.0611	1254.0629	1306.9872	1322.2157	1356.4665	1390.7525	1410.8915	1427.2004	1476.6132	1493.3249	1822.2929	2230.8895	2896.3747	3022.3985	3027.027	3046.9643	3055.9129	3121.3039	3135.3804	3500.0099
CC1OC(C#C)C1C=O	C[C@H]1O[C@@H](C#C)[C@H]1C=O	
InChI=1S/C7H8O2/c1-3-7-6(4-8)5(2)9-7/h1,4-7H,2H3	InChI=1S/C7H8O2/c1-3-7-6(4-8)5(2)9-7/h1,4-7H,2H3/t5-,6+,7+/m1/s1
