20
gdb 96524	2.42414	1.56282	1.03458	4.3364	76.36	-0.231	0.0214	0.2524	1178.548	0.172493	-440.312839	-440.304078	-440.303133	-440.346472	32.598	
C	 0.0039860156	 1.4705965967	 0.0286389796	-0.34983
N	 0.0220409928	 0.0170519276	-0.0600316118	-0.077927
C	-1.2682584235	-0.667214606	-0.1305692881	-0.1803
C	-1.4750155953	-1.5284856416	-1.3824971682	-0.195749
C	-0.6866624237	-2.8369191633	-1.3583385646	-0.069737
O	 0.7131133488	-2.6542150182	-1.303972049	-0.235497
C	 1.2106563317	-2.165310168	-0.0749258503	-0.189612
C	 1.2226672383	-0.6327187309	 0.0571233211	 0.387061
O	 2.2762548173	-0.0499814327	 0.2563408368	-0.377432
H	 1.0348451414	 1.8209948136	 0.0316730111	 0.170753
H	-0.5294787309	 1.9005992912	-0.8268024712	 0.120531
H	-0.4891754429	 1.8074603655	 0.9495287387	 0.121371
H	-1.4302143395	-1.2785760343	 0.7696151166	 0.110717
H	-2.0314147044	 0.1141265765	-0.1071167051	 0.116767
H	-2.5413858449	-1.7746614466	-1.4639397033	 0.100523
H	-1.2012681324	-0.948251802	-2.2706340857	 0.116026
H	-1.0190264323	-3.4514165016	-0.502996117	 0.086775
H	-0.8767103697	-3.4098149263	-2.2712055837	 0.112198
H	 0.6684978866	-2.6149077555	 0.774448125	 0.097083
H	 2.257916547	-2.4642923443	-0.0107774007	 0.136278
83.2321	93.8494	148.443	215.8318	258.3919	305.6617	360.0619	388.1204	408.9168	480.0418	518.0266	572.8196	683.6534	756.2294	834.4613	892.6255	927.0025	955.6412	1007.2705	1027.7144	1055.0573	1119.55	1150.2453	1155.7331	1165.7853	1231.5641	1258.3407	1285.7116	1297.599	1337.6134	1368.9525	1381.3046	1391.2489	1417.4201	1424.5807	1456.2854	1466.4454	1477.5646	1493.3375	1501.1267	1503.1653	1525.7067	1759.1962	2952.6335	2963.1009	2996.3323	3015.3072	3029.8637	3066.9168	3077.9118	3084.3828	3096.2786	3122.9609	3168.3093
CN1CCCOCC1=O	CN1CCCOCC1=O	
InChI=1S/C6H11NO2/c1-7-3-2-4-9-5-6(7)8/h2-5H2,1H3	InChI=1S/C6H11NO2/c1-7-3-2-4-9-5-6(7)8/h2-5H2,1H3
