23
gdb 79815	2.0383	1.8516	1.60258	0.1842	87.91	-0.2464	0.0857	0.3321	1049.9314	0.207285	-351.14969	-351.141362	-351.140417	-351.181753	34.211	
C	-0.2554084537	 1.5682628703	 0.0723453714	-0.426212
C	 0.0499299608	 0.0754691399	-0.0177323074	 0.003508
C	 0.629902292	-0.5468476538	-1.2900622041	-0.08945
C	 2.1453183051	-0.4293779032	-1.3687556068	-0.033299
C	 2.8809218569	 0.6351221692	-0.5585000853	-0.245883
C	 2.4362749595	 0.3618623657	 0.9037015877	-0.243979
C	 1.2308467198	-0.5923823361	 0.7912295336	 0.311847
C	 0.8492662483	-1.286332246	 2.0852304457	-0.492665
C	 1.5294046027	-1.4609403772	-0.4718179092	-0.12226
H	 0.6023204265	 2.1944838486	-0.1858215379	 0.116968
H	-1.0684601451	 1.8302698127	-0.6146139155	 0.111049
H	-0.5812545038	 1.8452201488	 1.0818582359	 0.110022
H	-0.8632847783	-0.4776399987	 0.2351458126	 0.065309
H	 0.0588054504	-0.793609254	-2.1791985819	 0.072758
H	 2.5691312264	-0.755591789	-2.3130946182	 0.076714
H	 3.9639369142	 0.51917578	-0.671881742	 0.093667
H	 2.6393188242	 1.6505804597	-0.8886510933	 0.098213
H	 3.2394814183	-0.1364326828	 1.4593531574	 0.089713
H	 2.1883945129	 1.2772615365	 1.4513550996	 0.092175
H	 0.5310744518	-0.5615216285	 2.8439904729	 0.112758
H	 0.024799682	-1.9910655368	 1.9334529377	 0.112475
H	 1.6963976065	-1.8459790345	 2.499463677	 0.110471
H	 1.6743090523	-2.5326648411	-0.5180930398	 0.076099
175.3559	189.6223	209.7183	228.6893	248.7682	295.1538	323.7153	441.8228	524.7024	571.5632	611.8652	692.7718	747.667	768.8527	793.8193	839.653	843.0129	903.9898	919.1721	937.657	960.7674	1002.2449	1004.8428	1019.5923	1056.6924	1064.0719	1096.8732	1111.8426	1120.9129	1141.1616	1184.6017	1213.3189	1228.2951	1230.8058	1250.7588	1279.2896	1316.6063	1325.3073	1353.0766	1392.984	1403.5564	1410.3585	1412.0726	1479.9586	1491.4504	1493.9411	1494.9146	1498.9458	1510.5389	3017.2485	3019.7583	3027.6589	3029.9846	3043.3371	3064.6246	3080.337	3082.1971	3084.8858	3090.4304	3116.4476	3154.5367	3165.707	3193.1451
CC1C2C3CCC1(C)C23	C[C@H]1[C@H]2[C@H]3CC[C@]1(C)[C@@H]23	
InChI=1S/C9H14/c1-5-7-6-3-4-9(5,2)8(6)7/h5-8H,3-4H2,1-2H3	InChI=1S/C9H14/c1-5-7-6-3-4-9(5,2)8(6)7/h5-8H,3-4H2,1-2H3/t5-,6+,7-,8+,9-/m0/s1
