19
gdb 18472	3.40645	1.52528	1.34157	2.1508	70.78	-0.2339	0.068	0.3019	1002.3623	0.165781	-365.004403	-364.996203	-364.995259	-365.037065	30.752	
C	-0.4330954698	 1.5195038926	 0.0942093264	-0.423253
C	-0.039309303	 0.0472515109	 0.1348460078	 0.034079
C	 0.8746234636	-0.6023345373	-0.9398391151	-0.198812
N	 1.7498878899	-1.2562027474	 0.1046170121	-0.162487
C	 2.3868422963	-0.1760757804	 0.9002452824	-0.006307
C	 3.026979238	 1.0550075489	 0.3031968128	-0.096918
O	 4.313771317	 0.7494514941	-0.2159533188	-0.420837
C	 0.9643454747	-0.4772430157	 1.1645203074	-0.08428
H	 0.4298218185	 2.1843159009	 0.005096175	 0.124028
H	-1.0963094091	 1.7184215222	-0.7548842271	 0.118653
H	-0.9729118612	 1.7996109517	 1.0055693678	 0.120252
H	-0.9512599787	-0.5526464971	 0.2164563595	 0.088615
H	 0.3845729903	-1.3747896939	-1.5350133661	 0.112539
H	 1.4017308694	 0.073352533	-1.6210982576	 0.100534
H	 3.0545276048	-0.632609203	 1.6309370975	 0.104714
H	 2.3974083905	 1.5293942872	-0.4591313346	 0.091789
H	 3.1879724787	 1.7971738225	 1.0928256659	 0.115096
H	 4.2139182894	-0.0130448946	-0.7963206167	 0.290454
H	 0.6730718507	-0.9473125145	 2.1004227815	 0.092141
71.1604	142.1282	178.7986	199.5194	279.0097	315.1057	360.8531	414.7755	503.5566	579.127	685.8823	727.9197	765.8081	872.3507	879.2156	917.8293	951.0152	981.9199	1021.4477	1058.0125	1077.7031	1093.929	1118.1255	1136.6237	1172.9123	1193.0427	1220.9746	1262.7485	1272.1813	1300.4621	1340.1571	1367.869	1386.4169	1410.3765	1413.9888	1462.1139	1493.1004	1497.0144	1497.3905	1524.6237	3026.2224	3033.934	3050.7065	3054.2747	3070.0446	3093.5564	3111.3418	3114.2056	3119.4012	3141.8453	3806.7945
CC1CN2C(CO)C12	C[C@H]1CN2[C@@H](CO)[C@@H]12	
InChI=1S/C6H11NO/c1-4-2-7-5(3-8)6(4)7/h4-6,8H,2-3H2,1H3	InChI=1S/C6H11NO/c1-4-2-7-5(3-8)6(4)7/h4-6,8H,2-3H2,1H3/t4-,5-,6+,7?/m0/s1
