21
gdb 88878	3.3133	1.1711	1.00551	3.47	78.33	-0.2219	0.0761	0.298	1250.5683	0.183829	-424.215479	-424.206882	-424.205938	-424.249511	32.922	
O	 0.0544378625	 1.4370130808	 0.299344522	-0.436719
C	-0.0119413133	 0.0602928337	 0.1059344182	 0.138746
C	-0.5454710772	-0.8797292132	 1.1605669372	-0.339393
C	-1.311429512	-0.6674882702	-0.1365841173	-0.083534
C	-2.6415223754	 0.0573746609	-0.1386711639	 0.118477
C	-3.8516634096	-0.8014324669	 0.2572295676	-0.231531
C	-4.8110793339	 0.2354682868	 0.8573692383	-0.233019
C	-3.8412650196	 1.1865142735	 1.5657081681	-0.067191
O	-2.6267101597	 1.1456110765	 0.8096022885	-0.289082
H	-0.8006478198	 1.7162761709	 0.6570007218	 0.294697
H	 0.8506890193	-0.2730541823	-0.4633140222	 0.098227
H	-0.052932536	-1.830564372	 1.3348662006	 0.104648
H	-0.9599900754	-0.4116049875	 2.0473775457	 0.114936
H	-1.2841339218	-1.4758813225	-0.8639596006	 0.084192
H	-2.8076883595	 0.4907448846	-1.1375727566	 0.07887
H	-4.2725253605	-1.3424834965	-0.5933936886	 0.106219
H	-3.550903711	-1.5338237538	 1.0142648507	 0.111235
H	-5.3519025711	 0.7624060381	 0.064299998	 0.11114
H	-5.5475306184	-0.1955394901	 1.5395402839	 0.108104
H	-4.1959517731	 2.2216416909	 1.6013190241	 0.110144
H	-3.6395666545	 0.8574257081	 2.5947309646	 0.100836
46.1424	72.3789	169.4094	206.2615	248.2935	288.2071	418.1265	509.2609	524.7776	570.2104	628.5651	671.5987	763.432	797.7297	842.5271	876.5571	901.2903	910.0405	935.7259	949.3342	999.122	1019.8356	1038.873	1061.5853	1082.25	1125.2895	1134.3231	1142.8907	1150.6778	1195.2731	1205.828	1232.7672	1257.825	1305.4556	1337.1307	1342.4479	1363.5513	1375.889	1391.9783	1405.9131	1457.2693	1486.6523	1496.5427	1497.9114	1530.3318	2973.1472	3004.2664	3049.1809	3052.416	3072.2389	3106.2949	3115.1992	3125.9879	3129.4121	3155.1884	3217.2018	3723.6194
OC1CC1C1CCCO1	O[C@H]1C[C@H]1[C@H]1CCCO1	
InChI=1S/C7H12O2/c8-6-4-5(6)7-2-1-3-9-7/h5-8H,1-4H2	InChI=1S/C7H12O2/c8-6-4-5(6)7-2-1-3-9-7/h5-8H,1-4H2/t5-,6+,7-/m1/s1
