20
gdb 107572	3.31292	1.26928	1.05413	2.347	79.36	-0.2413	0.0172	0.2585	1180.7482	0.173164	-403.139072	-403.130834	-403.12989	-403.171964	32.198	
O	 0.1819203955	 1.1901440231	-0.5094735532	-0.423677
C	-0.0012431586	 0.0661662839	 0.3353993712	-0.113261
C	-1.4092701529	-0.4812663005	 0.210490244	 0.281642
C	-2.5100120551	 0.4098224023	 0.7641473261	-0.325787
C	-3.8608809194	-0.2478684317	 0.8205494674	-0.060901
C	-4.0508457799	-1.5647358114	 0.7467898926	-0.076293
C	-2.9342238376	-2.5622359992	 0.5923909064	-0.284957
C	-1.6327281228	-1.9465128808	 0.1144218158	-0.055311
N	-1.6184854697	-1.1209823707	-1.1112302004	-0.385395
H	-0.0436129082	 0.8811192322	-1.3959170736	 0.289736
H	 0.7206374383	-0.7304995616	 0.1008751396	 0.087349
H	 0.1956270826	 0.410840373	 1.3565859979	 0.101585
H	-2.2224182458	 0.7345805958	 1.7756778015	 0.116715
H	-2.5533080872	 1.3339909361	 0.1731571846	 0.120401
H	-4.7162053122	 0.411463582	 0.9452485542	 0.091032
H	-5.0583048376	-1.967829263	 0.8099410454	 0.090703
H	-2.7537821507	-3.0660076067	 1.5537206673	 0.119562
H	-3.2366266228	-3.3621406445	-0.0983099807	 0.113132
H	-0.7686584376	-2.6039942476	 0.1945948941	 0.085426
H	-2.5800665581	-0.9652209808	-1.4102227401	 0.2283
73.5486	119.9595	172.1016	284.5336	314.3754	380.2429	396.5114	412.3596	472.2401	565.0766	601.0276	685.7858	702.7742	794.3003	866.9428	875.2649	917.9461	937.5376	960.7003	988.5447	1000.7289	1018.896	1049.0926	1063.245	1088.4968	1143.7989	1179.8599	1191.3504	1201.5294	1236.61	1251.0916	1308.8165	1331.268	1360.356	1376.9741	1396.2753	1420.1119	1430.1264	1457.0074	1475.4395	1482.0242	1496.9047	1726.4257	2990.2044	2996.5272	2998.6625	3021.096	3036.5114	3069.1572	3117.1308	3148.1266	3171.0396	3475.4429	3778.1407
OCC12CC=CCC1N2	OC[C@]12CC=CC[C@H]1N2	
InChI=1S/C7H11NO/c9-5-7-4-2-1-3-6(7)8-7/h1-2,6,8-9H,3-5H2	InChI=1S/C7H11NO/c9-5-7-4-2-1-3-6(7)8-7/h1-2,6,8-9H,3-5H2/t6-,7-/m1/s1
