17
gdb 7413	3.27546	1.79023	1.17456	3.7446	67.46	-0.2402	0.0062	0.2464	999.1002	0.142117	-397.234716	-397.225907	-397.224963	-397.268451	31.845	
C	-1.1738335986	 1.0621597605	 0.2210102231	-0.354274
N	-0.2653908402	-0.0784665422	 0.0805274016	-0.170946
C	 0.5633902588	-0.4330340803	 1.139471156	 0.409764
C	 0.4435145089	 0.424034784	 2.3843984043	-0.47913
N	 1.3777412088	-1.4247030042	 1.0633661357	-0.542098
C	-0.3324451773	-0.7393071249	-1.1989889477	 0.478413
N	 0.4901015132	-1.7926980825	-1.3609372413	-0.554472
O	-1.1017285349	-0.3357864043	-2.053846163	-0.407998
H	-1.8926672812	 0.9060508188	 1.0307695148	 0.123488
H	-0.626641647	 1.991114874	 0.4064626845	 0.123462
H	-1.7125024284	 1.1497366641	-0.7189851086	 0.183713
H	-0.5690345638	 0.3989044038	 2.7973632117	 0.148754
H	 1.1335580171	 0.0560511196	 3.1451392852	 0.127406
H	 0.6842517804	 1.4711850538	 2.179352817	 0.148806
H	 1.8979548006	-1.5325706269	 1.9277316213	 0.219795
H	 1.1077903512	-2.0711639341	-0.5993061222	 0.288765
H	 0.4437622023	-2.252455829	-2.2530674924	 0.256551
63.7522	68.0359	118.6103	211.4498	281.638	322.8014	376.6783	406.3244	433.2409	468.1763	568.2263	575.0576	617.8806	729.4217	730.9679	785.3477	798.5676	910.147	1037.3533	1061.3207	1087.1564	1155.0503	1159.859	1226.4065	1250.22	1350.5928	1396.7398	1423.4618	1459.4373	1476.1516	1482.1744	1509.9378	1523.48	1588.0546	1682.4165	1800.2946	3040.9323	3052.074	3097.6827	3116.1693	3138.8222	3183.2884	3372.8977	3537.5771	3706.3578
CN(C(C)=N)C(N)=O	CN(C(=N)C)C(=O)N	
InChI=1S/C4H9N3O/c1-3(5)7(2)4(6)8/h5H,1-2H3,(H2,6,8)	InChI=1S/C4H9N3O/c1-3(5)7(2)4(6)8/h5H,1-2H3,(H2,6,8)
