21
gdb 96042	2.64737	1.08309	0.83659	4.0481	79.33	-0.2393	-0.0155	0.2238	1406.4682	0.181722	-424.245882	-424.23634	-424.235396	-424.28145	34.29	
C	-0.5469076163	 1.4361870706	-0.125625034	-0.418245
C	 0.0572356363	 0.034486008	-0.0807326683	 0.002321
C	 1.2797979175	-0.1879798806	-0.9862873936	-0.234724
C	 1.8635257389	-1.4747778639	-0.4053213867	-0.071773
O	 1.5962851461	-1.4296787099	 0.9977227347	-0.278833
C	 0.5885227606	-0.4548329029	 1.2914222126	 0.109605
C	 1.2000942989	 0.6369086056	 2.190305992	-0.291216
C	 1.7995580992	 0.0540894076	 3.4532711757	 0.156752
O	 1.5025174832	 0.4060062481	 4.5674551673	-0.247394
H	 0.1916292387	 2.2061091181	 0.1182681147	 0.122084
H	-0.9307560277	 1.653061446	-1.1274131558	 0.118431
H	-1.3821799152	 1.5368283174	 0.5753792978	 0.122778
H	-0.7155861255	-0.6823650589	-0.3873741286	 0.084318
H	 1.0162503304	-0.2796883289	-2.0430294168	 0.105267
H	 1.9885158232	 0.6427584673	-0.8878152038	 0.104456
H	 1.3811305753	-2.3593993847	-0.8475466169	 0.096012
H	 2.94442168	-1.5735099636	-0.5478359979	 0.106967
H	-0.2128533329	-0.953728534	 1.8524020899	 0.086928
H	 2.005886209	 1.14072765	 1.6389266813	 0.112973
H	 0.4521646767	 1.3798895833	 2.4797222845	 0.117411
H	 2.5510045733	-0.7438982544	 3.2798436717	 0.095882
47.2074	67.9491	86.2949	172.4204	181.4631	244.8829	259.5568	331.0412	416.9941	475.2307	525.7439	578.5831	681.5851	794.2542	834.3159	851.6285	908.8333	923.3662	967.3571	992.0456	994.6025	1043.3825	1077.8053	1088.5482	1128.7872	1155.9863	1178.2226	1193.9977	1226.4588	1245.0928	1278.2939	1306.3566	1330.2371	1347.0388	1377.6203	1390.2687	1397.9314	1414.1693	1421.571	1452.3854	1492.1023	1499.474	1501.3536	1528.2116	1826.8741	2922.9421	2989.8324	3004.1305	3020.7138	3025.8202	3034.4773	3042.5315	3071.2664	3100.6156	3101.9237	3106.8879	3107.9998
CC1CCOC1CC=O	C[C@H]1CCO[C@H]1CC=O	
InChI=1S/C7H12O2/c1-6-3-5-9-7(6)2-4-8/h4,6-7H,2-3,5H2,1H3	InChI=1S/C7H12O2/c1-6-3-5-9-7(6)2-4-8/h4,6-7H,2-3,5H2,1H3/t6-,7-/m0/s1
