18
gdb 108726	3.38127	1.17297	0.97482	5.0724	79.87	-0.2462	-0.047	0.1992	1243.4823	0.148237	-401.967251	-401.959052	-401.958108	-402.000576	30.711	
C	 0.1351575965	 1.5214335163	-0.1138302208	-0.378916
C	-0.0461881893	 0.0016412584	 0.0687317911	-0.29775
C	 0.658246068	-0.5247182424	 1.2803840023	 0.338308
C	 0.1270384025	-0.9688716609	 2.432238478	-0.32587
C	 1.1989662836	-1.3950521556	 3.3609301798	 0.379734
O	 1.1043581724	-1.9240815894	 4.4364042588	-0.327154
N	 2.4762053491	-1.0784205142	 2.7314629918	-0.13213
C	 2.7630733138	-1.9487423872	 1.5758958567	-0.240973
C	 2.147459033	-0.5978369001	 1.3886734628	-0.13224
H	 1.1898734154	 1.7905616054	-0.2246519703	 0.126552
H	-0.3922981208	 1.8619251981	-1.0092217779	 0.125087
H	-0.2625181141	 2.0669467254	 0.7467048464	 0.133085
H	-1.1128889191	-0.2331564243	 0.1388713277	 0.117144
H	 0.3378775031	-0.512340422	-0.8220857657	 0.117394
H	-0.9222268726	-1.0945048997	 2.6642425922	 0.119567
H	 3.817860724	-2.0958305732	 1.3612413006	 0.133693
H	 2.1274457238	-2.8180231803	 1.4263338686	 0.133287
H	 2.7568192705	 0.2110953658	 0.9955933179	 0.11118
52.1811	124.4195	192.6897	201.7248	272.2914	298.2345	353.4395	498.3773	562.9613	638.8986	678.3359	758.7151	778.6567	799.4556	832.0104	880.3775	905.2777	931.5649	961.315	1017.9757	1057.5689	1070.7964	1093.3166	1098.8105	1136.4517	1154.5939	1180.6269	1259.1396	1263.9324	1308.8345	1346.9571	1385.8173	1411.0258	1482.6858	1495.7732	1498.6747	1506.9915	1665.7963	1840.3261	3024.7674	3043.2965	3078.0553	3107.7913	3115.9825	3120.6896	3152.2906	3202.2917	3226.2893
CCC1=CC(=O)N2CC12	CCC1=CC(=O)N2C[C@@H]12	
InChI=1S/C7H9NO/c1-2-5-3-7(9)8-4-6(5)8/h3,6H,2,4H2,1H3	InChI=1S/C7H9NO/c1-2-5-3-7(9)8-4-6(5)8/h3,6H,2,4H2,1H3/t6-,8?/m0/s1
