18
gdb 126615	4.7127	0.83674	0.74794	3.0397	74.65	-0.2301	0.0139	0.244	1529.0763	0.149157	-435.303616	-435.294878	-435.293934	-435.337947	31.585	
C	 0.0025847886	 1.5379865003	 0.0759973805	-0.382641
C	-0.004678723	 0.0105254755	 0.1648179994	-0.171822
C	-1.3978392555	-0.5709425013	-0.0954426871	-0.144555
N	-1.4174143871	-2.0212661246	-0.0529134279	 0.054384
C	-1.9875787078	-2.8465308352	 0.8382717871	 0.007289
N	-1.7458758186	-4.112034826	 0.528910376	-0.36846
C	-0.9969607729	-3.9857409808	-0.5971432686	 0.434071
O	-0.5214345157	-5.0428422425	-1.2689532244	-0.407713
N	-0.760468168	-2.7505088199	-1.0039373181	-0.33017
H	 1.0045433789	 1.9346643254	 0.261356735	 0.123973
H	-0.3118280751	 1.8804007886	-0.9159406532	 0.122812
H	-0.6738011741	 1.9869660224	 0.8121548621	 0.115614
H	 0.6875886238	-0.4200046916	-0.565120748	 0.137007
H	 0.3361845398	-0.3151564042	 1.1547632223	 0.105409
H	-2.1139925513	-0.2196297643	 0.6545590931	 0.118677
H	-1.7628676065	-0.2556585592	-1.0788235446	 0.133092
H	-2.5639543954	-2.4941139449	 1.680774947	 0.142517
H	-0.8221948001	-5.8260665778	-0.7926881605	 0.310515
59.1822	84.2484	91.6974	236.2437	262.6365	299.8884	328.5937	402.7857	409.7662	486.9272	642.7726	698.3973	754.6083	770.0838	804.8447	846.3805	883.0243	904.6656	1027.7471	1044.9457	1054.9413	1119.6101	1136.2718	1203.4102	1235.9098	1250.4386	1311.0472	1331.5394	1356.081	1387.9312	1409.0712	1416.8331	1478.3784	1488.3714	1494.0507	1501.3186	1511.5951	1526.2851	1637.5389	3032.0801	3038.386	3049.308	3078.8918	3092.298	3111.064	3112.5896	3253.9762	3813.5369
CCCN1C=NC(O)=N1	CCCn1cnc(O)n1	
InChI=1S/C5H9N3O/c1-2-3-8-4-6-5(9)7-8/h4H,2-3H2,1H3,(H,7,9)	InChI=1S/C5H9N3O/c1-2-3-8-4-6-5(9)7-8/h4H,2-3H2,1H3,(H,7,9)
