19
gdb 63317	2.50075	1.60097	1.3	4.5506	75.02	-0.2586	0.0137	0.2723	1060.6223	0.158908	-423.075572	-423.067253	-423.066309	-423.108004	32.63	
C	 0.0760348861	 1.507890536	-0.0920966352	-0.416623
C	-0.0360906051	-0.0069190449	 0.052200323	 0.337471
C	-1.4967020978	-0.4631750684	 0.0723112684	-0.415318
O	 0.5970955881	-0.6099729421	-1.1129940124	-0.261758
C	 1.3452747791	-1.7073601721	-0.7841902854	 0.427822
O	 1.743502758	-2.4806004796	-1.6068197337	-0.349192
C	 1.5548878942	-1.7245810633	 0.6965479436	-0.181897
C	 2.2182266724	-0.4664489178	 1.2322483991	-0.310885
C	 0.7278914414	-0.5885714065	 1.2440614495	-0.062134
H	 1.1204401083	 1.8240725706	-0.1407929603	 0.124761
H	-0.4268699532	 1.8419721137	-1.0037751209	 0.131634
H	-0.3947767501	 2.0028752788	 0.7627902055	 0.12003
H	-1.9955701086	-0.1754967056	-0.8567328858	 0.13299
H	-1.5605313869	-1.5503120757	 0.1757334138	 0.126118
H	-2.0309892415	-0.0043010355	 0.9105095802	 0.117658
H	 1.7115366297	-2.6778382728	 1.1816778892	 0.117888
H	 2.7331739922	-0.5678350099	 2.1806514843	 0.126984
H	 2.6998760657	 0.201772781	 0.5265680013	 0.134676
H	 0.2024083282	-0.6717357858	 2.1877942661	 0.099775
109.9178	190.9814	209.0996	245.4318	250.984	334.1371	343.6503	381.8322	487.3759	506.0112	593.6862	634.1341	755.4316	774.2436	799.2469	846.0053	918.5321	937.6363	939.5856	968.4319	988.5171	996.0021	1028.0634	1059.9856	1078.629	1101.9427	1158.1934	1197.4617	1208.0615	1233.0391	1285.6033	1331.1747	1375.0904	1401.7155	1420.845	1474.391	1481.4237	1488.034	1497.5365	1505.187	1877.6471	3039.3388	3047.8725	3111.8932	3118.8066	3125.4053	3129.0018	3137.5907	3184.7138	3216.2351	3226.9798
CC1(C)OC(=O)C2CC12	CC1(C)OC(=O)[C@H]2C[C@@H]12	
InChI=1S/C7H10O2/c1-7(2)5-3-4(5)6(8)9-7/h4-5H,3H2,1-2H3	InChI=1S/C7H10O2/c1-7(2)5-3-4(5)6(8)9-7/h4-5H,3H2,1-2H3/t4-,5+/m0/s1
