15
gdb 14410	3.37519	2.26867	1.81746	4.4146	64.85	-0.2451	0.0044	0.2495	772.785	0.119183	-362.628566	-362.621937	-362.620993	-362.659198	25.507	
C	-0.1519795598	 1.5125044449	-0.0285115774	-0.523317
C	 0.1092443558	 0.0479780012	 0.018956188	 0.347468
C	 0.6438721065	-0.9792474988	-0.8840433654	-0.082796
C	 1.3868261005	-1.7030014485	 0.2419517245	-0.245259
C	 0.3959892559	-0.9787954668	 1.198764206	-0.246919
C	-0.9344830173	-1.5605126297	 0.7483287077	 0.433305
O	-1.8573405196	-2.1107869672	 1.2611317866	-0.319263
N	-0.8444428228	-0.9891186458	-0.5917821859	-0.236037
H	 0.7422082036	 2.0789746057	 0.2515772922	 0.132809
H	-0.4478520802	 1.8078609441	-1.0388401535	 0.147139
H	-0.9592418525	 1.7888402109	 0.6576161511	 0.142619
H	 0.8964978003	-0.9153060377	-1.9348801794	 0.113912
H	 1.3886199936	-2.7974579082	 0.2580843806	 0.117221
H	 2.4067412303	-1.3239305538	 0.3412730542	 0.118495
H	 0.6261606958	-0.7784892204	 2.2414507007	 0.100622
120.4421	195.1085	260.5652	294.5102	419.3243	499.5273	601.4332	621.025	667.9026	740.0836	777.2646	838.3819	908.7621	925.5268	947.5726	980.4041	1016.7841	1063.6796	1086.2659	1108.8046	1120.0483	1144.852	1176.5433	1211.6179	1264.2342	1281.7158	1406.7765	1457.0728	1481.361	1488.8631	1500.7069	1917.2581	3037.0434	3052.9107	3101.7457	3114.5588	3120.1848	3164.3889	3200.079
CC12C3CC1C(=O)N23	C[C@@]12[C@H]3C[C@@H]1C(=O)N23	
InChI=1S/C6H7NO/c1-6-3-2-4(6)7(6)5(3)8/h3-4H,2H2,1H3	InChI=1S/C6H7NO/c1-6-3-2-4(6)7(6)5(3)8/h3-4H,2H2,1H3/t3-,4-,6+,7?/m1/s1
