16
gdb 29359	3.23532	1.23283	0.89767	2.6746	78.6	-0.2085	-0.0421	0.1664	1223.4709	0.123806	-437.942994	-437.934034	-437.933089	-437.977177	32.012	
C	 0.0491226063	 1.5251441151	 0.1133226292	-0.540823
C	 0.0466365454	 0.0289857735	 0.0336876106	 0.070429
C	-0.0005755037	-0.7793896858	-1.1084917668	 0.155432
N	 0.0171871591	-2.0892447005	-0.6986263458	-0.29445
C	 0.073824719	-2.1576958838	 0.6575153327	-0.14351
C	 0.0930620846	-0.855074353	 1.1355596395	 0.256417
O	 0.1481238638	-0.5399259606	 2.4604569324	-0.44419
C	-0.0594721282	-0.484835458	-2.5186733716	 0.074808
O	-0.0950836153	-1.3439077061	-3.3849969076	-0.327628
H	 0.9541116218	 1.9043943998	 0.6055992675	 0.132729
H	 0.0074532764	 1.9832980349	-0.8769501355	 0.142106
H	-0.8120421681	 1.9033868609	 0.6794498956	 0.132725
H	-0.0096773183	-2.8509314796	-1.3567558985	 0.279178
H	 0.0965915951	-3.0927009269	 1.1922814368	 0.138205
H	 0.1513702927	 0.417744424	 2.5502316815	 0.299506
H	-0.0709284205	 0.593338146	-2.7796394598	 0.069067
45.8868	116.5592	180.0461	187.4387	217.0327	243.0588	317.2557	340.8601	392.439	526.007	568.7316	640.4042	658.139	672.6918	751.289	767.6133	811.4162	943.404	1017.5033	1056.8837	1084.4052	1127.9831	1169.7388	1232.2633	1309.2412	1377.9755	1406.1752	1418.0689	1475.8025	1481.2327	1483.2183	1501.2054	1561.185	1634.0443	1745.9724	2914.8608	3013.109	3055.83	3122.1538	3274.6216	3664.1506	3836.6019
CC1=C(NC=C1O)C=O	Cc1c([nH]cc1O)C=O	
InChI=1S/C6H7NO2/c1-4-5(3-8)7-2-6(4)9/h2-3,7,9H,1H3	InChI=1S/C6H7NO2/c1-4-5(3-8)7-2-6(4)9/h2-3,7,9H,1H3
