19
gdb 52396	7.0394	0.54991	0.5306	1.1413	73.82	-0.2544	-0.031	0.2233	1999.6588	0.156628	-460.131243	-460.121494	-460.12055	-460.168359	32.685	
O	-0.4898331688	 0.2081246157	-0.0921956639	-0.22986
C	-0.0235375151	 1.3054797591	 0.0684187598	 0.15313
C	 1.3555995701	 1.7339114783	-0.3794640255	-0.280768
C	 1.3119571497	 2.9769495265	-1.2673661764	-0.074173
O	 2.6389392187	 3.4275666449	-1.4512837859	-0.248497
C	 2.747819416	 4.5256456691	-2.3153944189	 0.088376
C	 2.4676015657	 5.9370624244	-1.7397799079	-0.093801
O	 3.8041989844	 6.3665508074	-2.0681862351	-0.270702
C	 4.1889197385	 5.0338294649	-2.4662169321	-0.098507
H	-0.6067480904	 2.103783891	 0.5860483644	 0.074448
H	 1.9367272612	 1.9877345514	 0.5180412569	 0.13508
H	 1.8483168858	 0.9020072003	-0.887464222	 0.133483
H	 0.8487301498	 2.7405780525	-2.2389701894	 0.106894
H	 0.6969944512	 3.761412218	-0.7951042292	 0.097282
H	 2.2321433884	 4.3259815081	-3.2648102563	 0.080201
H	 1.7061394457	 6.5455870379	-2.2407151102	 0.104736
H	 2.2848159641	 5.9341594196	-0.6565021524	 0.101361
H	 4.875993601	 4.5633428653	-1.7519603712	 0.113063
H	 4.625699334	 5.0112609657	-3.4702614348	 0.108255
40.1193	51.4231	70.3033	79.3942	128.5386	153.0269	285.0941	301.7652	433.7223	472.4482	527.8207	741.1543	791.7594	871.706	872.0361	889.3966	976.3223	1008.5129	1027.6454	1045.2363	1066.5603	1100.8438	1137.5406	1144.0211	1157.1385	1165.1705	1207.9587	1230.4337	1272.7813	1281.5334	1302.7218	1308.0804	1347.9737	1395.2462	1431.7615	1445.7174	1467.4331	1497.8772	1523.8594	1526.8733	1839.8159	2850.5681	2959.7304	2992.191	3005.6801	3007.1566	3026.0326	3029.0038	3064.7177	3078.3294	3119.7163
O=CCCOC1COC1	O=CCCOC1COC1	
InChI=1S/C6H10O3/c7-2-1-3-9-6-4-8-5-6/h2,6H,1,3-5H2	InChI=1S/C6H10O3/c7-2-1-3-9-6-4-8-5-6/h2,6H,1,3-5H2
