19
gdb 101521	3.98086	0.72207	0.66904	3.9044	79.61	-0.2647	-0.057	0.2078	1677.7437	0.155029	-423.002865	-422.992177	-422.991233	-423.039467	37.564	
C	-0.2892765494	 1.6707396499	-0.193840975	-0.399453
C	-0.0370305739	 0.1657423064	-0.0365255136	 0.042619
C	-1.3502525637	-0.6115450729	 0.0718231255	-0.091219
O	-2.0519733411	-0.1421533575	 1.2120090592	-0.420846
C	 0.8067475392	-0.3989308462	-1.1851515997	-0.322198
C	 2.2690606224	 0.0165040303	-1.1513518113	 0.226019
O	 2.7778581047	 0.626433867	-0.2363913292	-0.287689
C	 3.0498869785	-0.3958922672	-2.309383148	 0.251183
C	 3.6787209075	-0.7442726355	-3.2749369403	-0.390754
H	 0.6509242831	 2.2263293377	-0.1826604061	 0.131702
H	-0.8047976981	 1.8824207108	-1.1393705433	 0.09983
H	-0.9195223909	 2.0332162788	 0.6205216087	 0.135637
H	 0.5143924704	 0.0049628464	 0.8971470929	 0.105023
H	-1.9434759957	-0.4676839799	-0.8476636394	 0.080949
H	-1.1359626195	-1.6898639249	 0.1573609245	 0.0812
H	-2.9115708782	-0.571637729	 1.2369890164	 0.287717
H	 0.8020169586	-1.4995566631	-1.1798421382	 0.129022
H	 0.3961360153	-0.1174514806	-2.1646184164	 0.127231
H	 4.251058611	-1.0425457807	-4.1196723167	 0.214028
37.8498	71.5488	105.1254	127.042	194.5455	234.1339	242.0578	244.5657	266.8654	332.4029	385.5338	421.9738	552.3851	574.9296	612.0521	645.0356	705.2848	820.5333	859.2527	899.8116	929.4907	961.7327	1068.385	1079.1528	1112.1369	1122.5322	1172.6049	1231.606	1248.4017	1274.529	1308.3843	1373.7372	1386.1533	1401.5025	1442.5811	1460.1321	1497.6264	1507.1235	1520.8785	1769.9037	2210.6615	2948.7256	2976.8461	3005.4552	3028.2995	3038.4371	3057.658	3110.365	3141.2187	3494.8948	3835.8202
CC(CO)CC(=O)C#C	C[C@@H](CO)CC(=O)C#C	
InChI=1S/C7H10O2/c1-3-7(9)4-6(2)5-8/h1,6,8H,4-5H2,2H3	InChI=1S/C7H10O2/c1-3-7(9)4-6(2)5-8/h1,6,8H,4-5H2,2H3/t6-/m1/s1
