18
gdb 31081	2.39688	1.34299	0.87255	1.3771	77.04	-0.1657	0.0588	0.2246	1308.2408	0.148008	-435.274162	-435.264215	-435.263271	-435.309401	35.445	
C	-0.0372510212	 1.3721731575	 0.0523736207	-0.239888
O	 0.0229907206	-0.0370084741	 0.0240908359	-0.276395
C	 0.6329676953	-0.582618561	-1.0691642906	 0.318221
C	 0.7289103497	-1.9475256638	-1.2472471337	 0.125197
N	 0.2916528266	-3.0566538488	-0.4908665999	-0.616386
N	 1.3989259744	-2.1372995576	-2.4439804777	-0.271524
C	 1.7137544747	-0.9396047155	-3.0146123789	 0.279825
N	 2.4386155049	-0.9161533759	-4.2282197375	-0.610279
C	 1.2447247616	 0.0635436995	-2.1838989477	-0.367707
H	 0.9656567877	 1.8215726777	 0.0536790852	 0.115001
H	-0.5983785468	 1.7720357699	-0.8038958687	 0.114144
H	-0.5516479878	 1.6460846877	 0.9759797251	 0.124166
H	-0.6921895969	-2.9716409082	-0.2549526739	 0.241978
H	 0.792973128	-3.130400764	 0.3900225196	 0.240101
H	 1.6653220505	-3.0379613794	-2.8035916101	 0.257156
H	 1.8283560258	-0.9570506274	-5.0403467909	 0.240708
H	 2.9793357	-0.0626688713	-4.3026353956	 0.241991
H	 1.3215368429	 1.1223230447	-2.3733300211	 0.083691
57.4739	89.573	118.2848	180.0536	187.0208	209.7639	258.6881	277.1194	342.8317	380.7578	489.7527	573.831	584.7095	646.9955	651.9751	683.3255	745.3011	799.9942	826.5022	848.9274	1034.4363	1079.8947	1159.9798	1180.2655	1186.0871	1196.8048	1218.0409	1220.1989	1247.409	1348.0872	1456.1636	1474.4653	1484.398	1509.7036	1509.8639	1555.999	1640.6534	1660.1117	1673.5902	2990.7697	3043.0377	3121.5376	3253.6407	3481.0996	3484.1643	3543.6059	3582.7178	3678.3517
COC1=C(N)NC(N)=C1	COc1c(N)[nH]c(N)c1	
InChI=1S/C5H9N3O/c1-9-3-2-4(6)8-5(3)7/h2,8H,6-7H2,1H3	InChI=1S/C5H9N3O/c1-9-3-2-4(6)8-5(3)7/h2,8H,6-7H2,1H3
