16
gdb 51437	3.3998	1.0859	0.91363	3.7777	73.64	-0.2585	-0.0119	0.2466	1262.486	0.124126	-434.007144	-433.998964	-433.998019	-434.041319	29.441	
N	-0.1272520978	 1.3875400733	 0.2050715236	-0.434942
C	-0.1020258696	 0.1315921651	 0.2822141227	 0.12695
O	-1.0598080806	-0.5999074287	-0.3352186599	-0.192046
C	-1.0558054228	-1.9961681342	-0.1392738654	 0.025
C	-2.1872194951	-2.6419847757	 0.653087305	-0.066081
C	-3.4690755053	-2.5505165406	-0.0622340596	-0.239807
N	-2.502231347	-3.5915240924	-0.5155156577	-0.138123
C	-1.5462066253	-2.8523682596	-1.3178824699	 0.330831
N	-1.29533021	-3.0134872047	-2.534594965	-0.49764
H	 0.6657625051	 1.7867870472	 0.7025148543	 0.235758
H	 0.6427116125	-0.4837494875	 0.8067124292	 0.091104
H	-0.0730612595	-2.340860741	 0.2071399193	 0.114988
H	-2.0984571471	-3.0260608821	 1.6620785971	 0.114092
H	-4.3416785036	-2.9787334597	 0.4188425117	 0.141945
H	-3.6690562025	-1.707232943	-0.7168777284	 0.150928
H	-0.5776538514	-2.3562610366	-2.8461016169	 0.237041
32.7167	106.7767	120.0142	174.3328	258.547	315.1538	457.9461	511.559	578.8375	672.0818	720.3724	753.4712	818.2969	837.3674	863.2837	919.6658	966.6367	981.6508	1018.8609	1041.2628	1043.962	1060.4141	1117.3282	1133.2259	1160.131	1197.1552	1235.512	1277.8609	1284.5913	1365.3096	1378.371	1426.1044	1504.7916	1750.9068	1814.8529	3016.4387	3032.8818	3127.9553	3193.0249	3222.3913	3469.494	3523.3193
N=COC1C2CN2C1=N	[NH][CH]O[C@H]1[C@H]2CN2[C]1[NH]	
InChI=1S/C5H7N3O/c6-2-9-4-3-1-8(3)5(4)7/h2-4,6-7H,1H2	InChI=1S/C5H7N3O/c6-2-9-4-3-1-8(3)5(4)7/h2-4,6-7H,1H2/t3-,4+,8?/m1/s1
