18
gdb 69480	4.29386	0.86326	0.83272	4.403	75.81	-0.2566	0.0232	0.2799	1418.4584	0.146286	-439.042775	-439.033977	-439.033033	-439.077115	32.511	
O	-0.3881667034	 1.4205166383	-0.0739266418	-0.459862
C	-0.1119560291	 0.0752966647	 0.059146453	 0.410245
C	-0.4256918947	-0.9304493897	-1.010174941	-0.345992
C	-1.0986345398	-1.0475063357	 0.343917956	-0.150665
C	-0.1051378139	-1.6816065902	 1.3238311613	 0.146454
C	 0.8820538916	-0.5065749983	 1.0767118648	-0.332776
O	-0.5332741832	-1.6790199034	 2.6804366083	-0.193301
C	-1.2109788694	-2.7643856811	 3.1034618933	 0.119893
N	-1.7159178668	-2.7838495704	 4.2600591505	-0.440027
H	 0.1668403905	 1.7801647549	-0.7746177406	 0.288046
H	-1.0779413664	-0.5607101967	-1.7951019695	 0.120368
H	 0.3066812644	-1.6675736035	-1.3358226285	 0.10449
H	-2.1743234496	-1.0260076651	 0.4641013733	 0.108509
H	 0.2528055556	-2.6822702042	 1.0486836905	 0.079114
H	 1.890624733	-0.7500132561	 0.727769379	 0.093532
H	 0.9357655226	 0.106858242	 1.9776287375	 0.139849
H	-1.2460487384	-3.575708841	 2.3625289323	 0.084093
H	-2.1660010431	-3.6817645045	 4.4252613016	 0.228029
45.5027	94.6449	105.1595	232.4605	243.8191	343.2021	368.1707	384.7883	414.5807	455.5212	618.3904	651.0336	752.7285	820.4504	839.0193	873.9787	900.4098	935.2462	985.728	1005.0677	1021.2972	1044.2138	1051.9513	1075.2898	1096.2883	1115.4235	1175.5156	1221.1754	1230.3342	1256.7255	1287.4962	1296.4208	1310.7027	1383.0947	1404.7707	1426.5213	1470.8104	1501.7909	1745.7186	3008.7655	3022.8723	3052.2868	3095.1345	3133.7539	3196.0987	3203.9062	3516.9505	3796.7252
OC12CC1C(C2)OC=N	O[C@]12C[C@H]1[C@@H](C2)O[CH][NH]	
InChI=1S/C6H9NO2/c7-3-9-5-2-6(8)1-4(5)6/h3-5,7-8H,1-2H2	InChI=1S/C6H9NO2/c7-3-9-5-2-6(8)1-4(5)6/h3-5,7-8H,1-2H2/t4-,5+,6-/m0/s1
