15
gdb 45026	2.48154	1.85302	1.1783	4.2793	68.01	-0.2619	-0.0029	0.259	1001.5611	0.114845	-453.98791	-453.980713	-453.979769	-454.01993	27.63	
N	-0.1425059123	 1.2774928332	 0.2794642789	-0.505981
C	-0.0617178053	 0.0533156775	-0.0123012055	 0.407969
O	 1.1593613529	-0.5160699173	-0.3450243132	-0.259078
C	 1.3157716699	-1.6816079446	-1.0700790217	 0.454867
O	 2.4190647693	-2.0281905624	-1.3898335061	-0.363014
N	 0.165656133	-2.3492404145	-1.3899917472	-0.366371
C	-1.1022510624	-2.1349681504	-0.7580476144	 0.008487
C	-1.2003910232	-2.1689957276	 0.7413991799	-0.318706
C	-1.2361448506	-0.8409382389	-0.0076560569	-0.095561
H	 0.7712166559	 1.726466709	 0.1953001658	 0.235476
H	 0.3489363616	-3.2598527213	-1.7843649078	 0.26734
H	-1.9396732394	-2.4729579542	-1.3573323758	 0.123116
H	-2.1287371097	-2.4897469392	 1.199307527	 0.135408
H	-0.3016620996	-2.4156173388	 1.2955484708	 0.143375
H	-2.1766843401	-0.3080696406	-0.0383635937	 0.132674
86.6585	115.2353	219.0425	372.0827	406.1257	484.874	519.9305	523.8505	567.713	665.6734	728.9801	755.2494	784.1863	831.8827	873.0855	905.0423	948.4116	994.3054	1033.9258	1041.8523	1060.4531	1113.3525	1138.9135	1142.8627	1208.1623	1266.8877	1361.7332	1387.7416	1418.164	1459.8417	1491.5375	1762.1726	1869.1215	3142.4735	3177.1723	3212.9536	3237.4046	3479.0314	3623.0635
N=C1OC(=O)NC2CC12	[NH][C]1OC(=O)N[C@H]2C[C@@H]12	
InChI=1S/C5H6N2O2/c6-4-2-1-3(2)7-5(8)9-4/h2-3,6H,1H2,(H,7,8)	InChI=1S/C5H6N2O2/c6-4-2-1-3(2)7-5(8)9-4/h2-3,6H,1H2,(H,7,8)/t2-,3+/m1/s1
