25
gdb 104734	1.92406	1.35665	1.01497	1.3156	89.35	-0.2554	0.071	0.3264	1355.6073	0.226226	-389.482053	-389.470661	-389.469717	-389.518381	42.242	
C	-0.5992874437	-0.3609111508	 0.5821541167	-0.387114
C	 0.9181515373	-0.5864738315	 0.5432798926	-0.252137
C	 1.4886729817	-0.8508377747	-0.8491038432	 0.333997
C	 1.4334432864	 0.3723668754	-1.7459659599	-0.154215
O	 2.1500003445	 1.4237328554	-1.1016734544	-0.42145
C	 2.7208804135	-1.7266316429	-0.9599009312	-0.375434
C	 1.396754269	-2.2429325075	-1.4787288151	 0.284951
C	 0.7187577625	-3.373199806	-0.7185614225	-0.452448
C	 1.2188068774	-2.4097136894	-2.9817111451	-0.455139
H	-0.8944575008	 0.5130591209	-0.0072880804	 0.115609
H	-1.1460686005	-1.2251415478	 0.1915515319	 0.11368
H	-0.9380343068	-0.1873458143	 1.6086672422	 0.109287
H	 1.4257840995	 0.2983249135	 0.9409320349	 0.118624
H	 1.177814893	-1.4104336098	 1.2141197196	 0.087827
H	 1.8772933554	 0.156984698	-2.72560048	 0.080309
H	 0.3870253722	 0.6686542926	-1.9215506358	 0.084643
H	 2.0419714683	 2.2212141153	-1.6278936306	 0.284529
H	 3.4824108876	-1.4454695951	-1.6810876322	 0.103491
H	 3.1191316601	-2.1568709242	-0.0457828256	 0.101504
H	 0.848090622	-3.3004280484	 0.3625989388	 0.116556
H	-0.3573529253	-3.4053893471	-0.9271097183	 0.112635
H	 1.1386909716	-4.3361980776	-1.0330017646	 0.111681
H	 1.5335357907	-3.4161647323	-3.2826191048	 0.112554
H	 0.1682275596	-2.2963542664	-3.2760917405	 0.111614
H	 1.8096117145	-1.7023318752	-3.5666254827	 0.114445
41.093	107.2237	118.9708	158.5875	190.5155	208.5677	234.5289	244.5743	274.5752	328.3353	344.3287	380.3899	393.2388	430.285	455.2053	551.4327	688.2362	715.8846	789.5939	897.6155	903.4805	926.3925	943.8671	968.0466	990.1933	1028.2148	1035.8361	1057.7625	1064.1285	1068.8364	1110.4563	1153.0226	1197.1271	1218.5837	1244.5685	1274.7989	1298.9255	1323.2099	1362.9563	1398.6273	1408.5105	1410.5954	1423.4047	1456.6125	1479.6783	1484.9943	1490.5604	1496.4951	1498.9916	1505.1375	1506.8631	1517.8181	1523.9962	2974.9969	3020.5702	3025.5741	3032.1632	3036.2497	3051.9804	3073.0428	3076.6947	3080.6307	3101.3461	3108.9167	3116.2208	3121.2492	3127.5924	3198.7885	3829.8969
CCC1(CO)CC1(C)C	CC[C@@]1(CO)CC1(C)C	
InChI=1S/C8H16O/c1-4-8(6-9)5-7(8,2)3/h9H,4-6H2,1-3H3	InChI=1S/C8H16O/c1-4-8(6-9)5-7(8,2)3/h9H,4-6H2,1-3H3/t8-/m0/s1
