13
gdb 49962	2.43595	1.18723	0.98042	3.7341	66.52	-0.2857	-0.0774	0.2083	1186.0197	0.086508	-452.731929	-452.723281	-452.722337	-452.766054	29.578	
O	-0.5069561925	 0.7835594473	 0.8532564814	-0.227732
C	 0.1896044626	 0.8730028973	-0.1217717539	 0.167613
C	 1.4007676243	 1.7592535211	-0.1642488294	-0.143139
N	 2.3825003771	 1.4822548405	-1.1969833068	-0.340638
C	 1.6415633728	 2.7449078138	-1.3165643424	 0.037156
C	 0.6874779936	 2.8165045629	-2.4848019741	 0.13743
O	 0.2886766887	 3.8459081547	-2.9509930455	-0.219025
C	 2.2887853819	 3.9825605601	-0.9458390945	 0.255736
N	 2.8441485262	 4.9499243335	-0.6440019932	-0.311593
H	 0.0026467487	 0.2918804681	-1.0485218385	 0.106951
H	 1.7182745226	 2.1245747718	 0.8096630398	 0.149632
H	 3.3335423359	 1.6421139118	-0.87440848	 0.27678
H	 0.404256918	 1.819344457	-2.8772123828	 0.110828
71.108	102.7314	125.6861	151.5057	231.2635	280.9466	320.5395	370.6591	456.9399	493.1389	583.3003	599.549	741.9547	770.6449	945.9486	967.669	1017.1953	1041.0909	1063.747	1075.5153	1205.4623	1234.7059	1329.2876	1371.2405	1397.0424	1447.0822	1829.8147	1842.5968	2361.2737	2919.1474	2945.8192	3155.3872	3522.542
O=CC1NC1(C=O)C#N	O=C[C@H]1N[C@]1(C=O)C#N	
InChI=1S/C5H4N2O2/c6-2-5(3-9)4(1-8)7-5/h1,3-4,7H	InChI=1S/C5H4N2O2/c6-2-5(3-9)4(1-8)7-5/h1,3-4,7H/t4-,5+/m1/s1
