19
gdb 30789	2.17706	1.3476	0.86934	1.7038	81.9	-0.1762	0.0426	0.2188	1337.5628	0.159776	-419.24103	-419.231284	-419.23034	-419.27574	35.754	
C	-0.1705819202	 1.5190972947	 0.0142061047	-0.507852
C	-0.0473445579	 0.0250857217	-0.0234793153	 0.208264
C	 0.1776439326	-0.7687636519	-1.1278328096	 0.161968
C	 0.3460528715	-0.4723816505	-2.5767101483	-0.18425
O	-0.4798433244	-1.300131601	-3.4051457587	-0.422047
N	 0.2649335118	-2.0829079353	-0.6857184583	-0.319312
C	 0.0820057962	-2.1310208773	 0.6693350297	 0.302234
N	 0.0236525371	-3.3742549737	 1.3229406172	-0.606019
C	-0.0965320494	-0.8414308479	 1.1163111675	-0.309347
H	 0.6955640755	 1.9896654488	 0.4960403132	 0.123665
H	-0.2546775503	 1.9478699572	-0.988542271	 0.116828
H	-1.0560047248	 1.8296104862	 0.5809901133	 0.121292
H	 0.1609605701	 0.5954136062	-2.7574851116	 0.098949
H	 1.3665235341	-0.6835429807	-2.9214302564	 0.111263
H	-1.3860143364	-1.1817792215	-3.0989028282	 0.278297
H	 0.2245008396	-2.8788415448	-1.3001837206	 0.258346
H	 0.898405063	-3.8868196449	 1.2640153974	 0.243533
H	-0.2045964364	-3.2531915044	 2.3014820006	 0.247421
H	-0.2298767215	-0.5419301509	 2.1456096846	 0.076767
69.1127	104.7825	133.7956	177.8042	200.329	245.449	262.9339	320.8382	383.5943	399.0596	485.8601	523.4569	597.012	630.1757	659.734	684.7478	753.2162	803.4805	825.5122	966.9891	993.0996	1015.4959	1043.0854	1059.2911	1130.3267	1146.6403	1191.7562	1208.8762	1246.5451	1324.5376	1363.5658	1412.3522	1421.1885	1456.5161	1482.4754	1484.4144	1497.079	1505.8074	1577.4115	1639.9856	1661.5684	3007.3162	3020.857	3040.7763	3066.829	3103.1109	3233.8551	3499.282	3607.384	3666.6573	3797.3732
CC1=C(CO)NC(N)=C1	Cc1c(CO)[nH]c(N)c1	
InChI=1S/C6H10N2O/c1-4-2-6(7)8-5(4)3-9/h2,8-9H,3,7H2,1H3	InChI=1S/C6H10N2O/c1-4-2-6(7)8-5(4)3-9/h2,8-9H,3,7H2,1H3
