16
gdb 29836	3.96721	1.06709	0.84782	6.9358	81.23	-0.2096	0.0002	0.2097	1297.8335	0.125925	-396.982797	-396.974077	-396.973133	-397.016267	31.654	
C	-0.054648433	 1.4546972184	 0.021005652	-0.346885
N	-0.0137025116	 0.0053291598	 0.0003480411	-0.018334
C	 0.004815802	-0.7763451942	-1.1194919299	-0.195232
C	 0.0213592199	-2.0999443629	-0.7196213616	 0.174364
C	 0.0364078222	-2.112615055	 0.7114566975	-0.361312
C	 0.0169245829	-0.802237439	 1.1235510642	 0.311162
N	-0.0615694266	-0.2145830286	 2.3981214685	-0.609837
C	 0.0304136615	-3.2232083344	-1.5799519804	 0.194338
N	 0.03932451	-4.1494193301	-2.276986267	-0.358124
H	 0.9510193274	 1.888873226	 0.0623341377	 0.138554
H	-0.5543102819	 1.8148049428	-0.880131348	 0.14722
H	-0.6145448692	 1.7784781669	 0.9003105915	 0.164645
H	 0.0070600853	-0.3456449438	-2.1069703645	 0.141327
H	 0.0607786308	-2.9855757639	 1.3436368184	 0.112117
H	-0.3337601993	-0.8990991839	 3.0922662109	 0.255847
H	 0.8135923696	 0.2058363718	 2.6970253796	 0.25015
98.9203	124.2077	145.4173	190.2077	193.4847	288.9103	300.4398	431.7799	510.5304	518.7001	597.6443	630.3484	651.031	671.3045	717.8106	787.6207	807.2623	821.3852	1000.1978	1080.7603	1132.3756	1152.854	1173.1754	1211.0077	1256.58	1368.4714	1401.1906	1435.7255	1469.1112	1490.8813	1516.8691	1562.9078	1606.1999	1656.8606	2339.9262	3034.6694	3110.1405	3149.3815	3263.3102	3273.8663	3496.8	3604.3557
CN1C=C(C=C1N)C#N	Cn1cc(cc1N)C#N	
InChI=1S/C6H7N3/c1-9-4-5(3-7)2-6(9)8/h2,4H,8H2,1H3	InChI=1S/C6H7N3/c1-9-4-5(3-7)2-6(9)8/h2,4H,8H2,1H3
