20
gdb 59802	4.09658	0.89813	0.83689	3.0331	84.63	-0.2237	-0.0025	0.2212	1458.6135	0.170722	-399.358257	-399.348767	-399.347823	-399.393411	34.546	
C	-0.0400024569	 1.6206501796	 0.3596968854	-0.370932
C	-0.0506897356	 0.1430126337	-0.0443248412	 0.04737
C	 0.7054651042	-0.7210308498	 0.9764141079	-0.370962
N	-1.4368925316	-0.3039896937	-0.1371463711	-0.324031
C	-1.7758826445	-1.1519615058	-1.0127711137	 0.396398
C	-3.1779016065	-1.7143559169	-1.2401969771	-0.257071
N	-3.0808421538	-2.6531333368	-2.3689870599	-0.245947
C	-1.8557008861	-2.6378695717	-2.7225681308	 0.069638
N	-1.0175578052	-1.79908023	-2.0011032533	-0.354836
H	 0.9844861266	 1.9995553772	 0.4360289939	 0.102688
H	-0.5794204956	 2.2257931635	-0.3744814128	 0.11412
H	-0.534310947	 1.7478450556	 1.3277553574	 0.12333
H	 0.4687556414	 0.0628152231	-1.0171755955	 0.040771
H	 0.2120534367	-0.6658615272	 1.9516609766	 0.128403
H	 0.725107252	-1.7718384553	 0.6697054644	 0.105005
H	 1.7387971497	-0.3772156535	 1.0902091941	 0.109733
H	-3.548823507	-2.2282752895	-0.3468161207	 0.143598
H	-3.8910068816	-0.9146893223	-1.4668618905	 0.144175
H	-1.4458183594	-3.2293332962	-3.5355519913	 0.132887
H	-0.02744057	-1.7042837541	-2.1398138317	 0.265664
30.4874	103.7049	122.7218	156.6382	224.008	258.7125	306.9044	329.3413	396.6648	442.6791	471.7358	520.0031	643.3192	721.5431	830.4911	874.593	885.2428	927.6092	929.3154	954.2627	977.7799	989.7382	994.3773	1083.2815	1135.5759	1146.7956	1186.6064	1187.3846	1209.6413	1293.2426	1339.4154	1348.7576	1386.8543	1394.0709	1398.5337	1414.1991	1453.3899	1480.8465	1486.6356	1494.6577	1509.3205	1684.9567	1779.1198	2915.4765	3031.5816	3037.2454	3050.8382	3082.6851	3101.3612	3108.6437	3112.5009	3116.0275	3189.5663	3687.0263
CC(C)N=C1CN=CN1	CC(C)N=C1CN=CN1	
InChI=1S/C6H11N3/c1-5(2)9-6-3-7-4-8-6/h4-5H,3H2,1-2H3,(H,7,8,9)	InChI=1S/C6H11N3/c1-5(2)9-6-3-7-4-8-6/h4-5H,3H2,1-2H3,(H,7,8,9)
