20
gdb 39442	2.40486	1.94935	1.32893	1.2047	78.04	-0.242	0.0777	0.3197	1013.2021	0.174076	-403.117607	-403.110334	-403.10939	-403.149009	29.94	
C	 0.0259921605	 1.5487788518	-0.1022925006	-0.264506
C	 1.5826207352	 1.4978807165	 0.0023017265	-0.308491
C	 1.4218249878	 0.1267790013	 0.6557960092	 0.333978
N	 2.4063291957	-0.9012999932	 0.9283074484	-0.41322
C	 1.6836716002	-0.2784628122	 2.05886396	-0.09548
C	 0.5423077347	-0.9972200916	 2.7730493336	-0.235171
C	-0.812290233	-0.4640063223	 2.2901006276	-0.07968
O	-0.9791690827	-0.6321345868	 0.8900219088	-0.262299
C	 0.003490994	-0.0010162344	 0.1011682938	 0.080042
H	-0.4215602592	 2.0747184842	 0.7443036359	 0.109132
H	-0.4095283165	 1.9273039134	-1.0281720104	 0.103161
H	 2.0635262465	 1.4327267096	-0.9781796939	 0.110398
H	 2.0749407098	 2.2786842276	 0.5857343211	 0.105633
H	 2.0254950089	-1.8247576664	 0.7255472897	 0.226089
H	 2.325055431	 0.3459071461	 2.6766879559	 0.093432
H	 0.58779782	-2.0770495221	 2.5857172911	 0.106981
H	 0.6226558456	-0.8582828317	 3.8560047352	 0.10511
H	-1.6387658439	-1.0126819496	 2.7504191918	 0.108365
H	-0.9158407862	 0.595417104	 2.5741080221	 0.091068
H	-0.0225904684	-0.5133292943	-0.867034426	 0.085457
131.0662	194.946	247.397	316.893	399.0681	454.2273	455.8464	496.1027	560.63	644.3541	727.0166	780.2333	807.6861	829.2783	898.8723	922.7167	934.8565	956.2303	978.304	1016.215	1039.9008	1079.9041	1084.0547	1095.4819	1128.85	1168.6394	1173.4265	1180.1892	1232.9168	1240.5274	1260.5856	1273.0558	1281.7329	1298.8144	1344.7833	1358.093	1384.5954	1416.3134	1459.0767	1473.3323	1477.2689	1496.7058	1507.4714	2980.4029	3031.9192	3046.0155	3060.0451	3073.4902	3081.5993	3087.7253	3110.8547	3130.0902	3133.0056	3467.9355
C1CC23NC2CCOC13	C1C[C@@]23N[C@@H]2CCO[C@@H]13	
InChI=1S/C7H11NO/c1-3-7-5(8-7)2-4-9-6(1)7/h5-6,8H,1-4H2	InChI=1S/C7H11NO/c1-3-7-5(8-7)2-4-9-6(1)7/h5-6,8H,1-4H2/t5-,6+,7-/m1/s1
