17
gdb 18447	6.61924	1.19442	1.09881	3.7696	71.4	-0.2399	0.0043	0.2442	1089.2292	0.141654	-363.839281	-363.83163	-363.830686	-363.871296	28.294	
C	 0.0800523778	 1.5559793449	 0.1302677085	-0.410858
C	-0.0077177079	 0.0411690263	-0.0000935425	 0.013769
C	 1.0547828209	-0.5903406038	-0.9787185686	-0.263179
C	 1.6769088419	-1.3332159299	 0.2102917955	-0.023886
C	 0.6590742296	-0.7357415732	 1.1509019231	-0.0585
N	 0.6310086838	-2.1511194547	 0.7980748327	-0.076754
C	 0.8804251932	-3.1810351276	 1.6856486111	 0.133128
O	 1.7672030242	-3.9943615094	 1.578520184	-0.296191
H	 1.1031704013	 1.8759848957	 0.3585751348	 0.117903
H	-0.2222617486	 2.0441591285	-0.8017789753	 0.123999
H	-0.5721097578	 1.9244909518	 0.9295586376	 0.118976
H	-1.0381454428	-0.2731149707	-0.1887451142	 0.085841
H	 0.6777536388	-1.2256281446	-1.782962032	 0.115114
H	 1.7201456446	 0.1700383467	-1.3947737284	 0.110023
H	 2.7116308575	-1.5990067543	 0.385150558	 0.122203
H	 0.7715543128	-0.4343641363	 2.187075483	 0.106919
H	 0.1093914608	-3.2269544693	 2.4792409325	 0.081492
88.3047	148.1689	194.474	242.4633	262.3681	324.3492	396.4388	446.0322	671.6594	725.3777	776.1178	836.5459	863.1502	881.8896	922.1108	970.7571	981.3688	1033.1343	1036.7333	1066.4739	1105.1022	1120.3993	1159.1799	1200.9096	1228.7367	1250.6197	1266.3937	1295.3041	1352.8271	1408.6428	1417.9771	1425.3827	1477.6378	1495.8971	1500.0816	1792.4219	2945.739	3027.4823	3064.0402	3068.9635	3095.6736	3102.2795	3126.0354	3175.2718	3208.085
CC1CC2C1N2C=O	C[C@H]1C[C@H]2[C@@H]1N2C=O	
InChI=1S/C6H9NO/c1-4-2-5-6(4)7(5)3-8/h3-6H,2H2,1H3	InChI=1S/C6H9NO/c1-4-2-5-6(4)7(5)3-8/h3-6H,2H2,1H3/t4-,5-,6+,7?/m0/s1
