19
gdb 103390	2.26688	1.4847	1.33256	2.7061	74.97	-0.2386	-0.0292	0.2094	1094.7149	0.156771	-423.005501	-422.996357	-422.995412	-423.039211	33.963	
C	-0.2270680141	 1.4809556734	 0.0746176681	-0.393187
C	 0.1303888206	-0.0109392759	 0.0748510954	-0.235583
C	 0.775032386	-0.5002821873	-1.2269246913	 0.147669
C	 2.136577865	 0.1388677306	-1.5225208512	-0.452775
C	 0.7821798648	-2.0353742764	-1.4357451269	-0.006427
O	-0.5686266105	-2.4723536493	-1.4063095413	-0.236551
C	-0.0501584233	-1.9775643405	-2.6635103016	-0.121648
C	-0.1027676136	-0.4590782751	-2.5312485732	 0.403438
O	-0.5021956449	 0.4302676489	-3.223383246	-0.314914
H	 0.6633725838	 2.1147907072	 0.0203565913	 0.11578
H	-0.866779608	 1.7329444886	-0.7760650127	 0.14123
H	-0.7614942714	 1.7443290613	 0.9921841474	 0.114598
H	 0.8157317102	-0.2277343067	 0.9059867454	 0.09301
H	-0.772682765	-0.6035599342	 0.2495535213	 0.119734
H	 2.8163390061	-0.0009683218	-0.6747862684	 0.121191
H	 2.6053434893	-0.3035289166	-2.4082812545	 0.119605
H	 2.0313126198	 1.2107299602	-1.7058805232	 0.144968
H	 1.5585307992	-2.7512247937	-1.1905622145	 0.115866
H	-0.116247994	-2.6315501526	-3.5249078941	 0.123996
90.884	110.0241	171.9461	206.2128	226.7424	233.651	278.4593	300.2056	379.7785	479.1084	531.4273	661.1728	665.9492	766.6722	809.3519	837.2648	848.8364	866.0486	931.5399	946.2641	1005.658	1013.5154	1028.9044	1065.413	1069.1428	1164.4146	1189.3265	1208.0684	1229.4469	1268.4307	1315.8073	1346.2565	1368.7237	1407.4478	1415.6754	1484.5177	1493.8717	1498.8926	1504.6297	1510.9167	1888.4348	3012.172	3031.6654	3042.1756	3079.016	3094.3959	3108.6369	3119.1744	3124.8518	3184.3053	3199.0795
CCC1(C)C2OC2C1=O	CC[C@@]1(C)[C@H]2O[C@H]2C1=O	
InChI=1S/C7H10O2/c1-3-7(2)5(8)4-6(7)9-4/h4,6H,3H2,1-2H3	InChI=1S/C7H10O2/c1-3-7(2)5(8)4-6(7)9-4/h4,6H,3H2,1-2H3/t4-,6-,7+/m0/s1
