20
gdb 63836	2.6554	1.48168	1.19611	2.0559	78.96	-0.2312	-0.0302	0.201	1116.799	0.169515	-403.125899	-403.117141	-403.116197	-403.159253	33.638	
C	 0.1641150884	 1.5116917441	-0.1594229914	-0.449509
C	 0.0158749461	-0.0023073238	-0.0392732389	 0.315545
C	-1.4533088898	-0.4212623984	-0.120014059	-0.445827
C	 0.9387181679	-0.8725602056	-0.9496819255	-0.222005
N	 1.4617243501	-1.6533552776	 0.2200104894	-0.124963
C	 2.7975286644	-1.1675154958	 0.6850227259	-0.308244
C	 2.1031966542	-0.1456152635	 1.608562423	 0.391581
O	 2.4648935328	 0.7036896204	 2.3672352413	-0.290878
C	 0.7406938953	-0.6989689955	 1.1569316953	-0.15768
H	 1.208611411	 1.8301465672	-0.1000758807	 0.122852
H	-0.2401561216	 1.858607355	-1.1172853538	 0.115986
H	-0.3833420077	 2.0254910352	 0.6382564561	 0.12564
H	-1.8867489452	-0.1194185766	-1.0804325285	 0.116426
H	-1.564061125	-1.5060656375	-0.0260855617	 0.127435
H	-2.0401900623	 0.0507058956	 0.6757233621	 0.118774
H	 0.4181247917	-1.5056300325	-1.6744542645	 0.107169
H	 1.7147847395	-0.3061655327	-1.4790756682	 0.096258
H	 3.3503054572	-1.9367908225	 1.2365344089	 0.137489
H	 3.4527604168	-0.7576132808	-0.091810239	 0.128555
H	 0.1123565962	-1.1141765448	 1.9517390894	 0.095396
60.846	118.177	210.2378	231.739	269.7912	315.9164	351.9072	370.802	422.6842	445.7143	541.1177	589.3302	681.5656	754.161	846.4565	860.8891	903.2201	934.5649	945.8979	957.6513	982.8697	994.5471	1027.5017	1052.9894	1090.5288	1159.7119	1174.4761	1181.7101	1203.6405	1215.9229	1250.8582	1258.5039	1297.46	1320.1463	1403.7295	1424.7251	1451.6919	1482.8801	1485.92	1500.3134	1503.4034	1511.4664	1894.0511	3020.8509	3023.9214	3030.69	3033.2667	3057.4097	3078.2673	3083.1429	3090.5276	3095.7279	3103.6819	3109.0805
CC1(C)CN2CC(=O)C12	CC1(C)CN2CC(=O)[C@@H]12	
InChI=1S/C7H11NO/c1-7(2)4-8-3-5(9)6(7)8/h6H,3-4H2,1-2H3	InChI=1S/C7H11NO/c1-7(2)4-8-3-5(9)6(7)8/h6H,3-4H2,1-2H3/t6-/m0/s1
