22
gdb 71124	2.71875	1.78899	1.51658	1.6699	83.5	-0.2175	0.0731	0.2906	997.8368	0.198148	-367.22382	-367.216372	-367.215428	-367.255122	31.269	
C	-0.063217654	 1.5253428372	 0.0540599887	-0.462677
C	 0.0136156814	 0.0038265985	-0.0145463176	 0.267749
C	 0.5694486606	-0.5393344226	-1.3527047173	-0.248096
C	 0.0552262055	-1.967244563	-1.364158464	-0.044673
C	 0.0675940239	-2.6843510177	-0.0615858576	-0.007467
C	 0.7990586511	-2.1243537238	 1.1464316501	-0.246973
C	 0.8726980729	-0.5752109287	 1.1290972846	-0.231119
N	-1.1795481653	-2.0512135471	-0.539234453	-0.125471
C	-1.3641028682	-0.7009782053	 0.0313987177	-0.182123
H	 0.9333990565	 1.9774889625	-0.005157098	 0.112075
H	-0.6626026426	 1.929314679	-0.7693009403	 0.110921
H	-0.5189162697	 1.857258349	 0.9938728307	 0.112216
H	 0.1546576572	 0.0138675082	-2.2042313386	 0.096269
H	 1.6610480054	-0.4685080222	-1.412219656	 0.095154
H	 0.0511061618	-2.5233596505	-2.2973738304	 0.080973
H	 0.0145236789	-3.7711983552	-0.0891470567	 0.082086
H	 0.285928318	-2.4726956124	 2.0507424381	 0.107382
H	 1.8018010687	-2.5640423557	 1.1869021075	 0.104528
H	 1.9082736234	-0.2371574978	 1.0073199341	 0.093404
H	 0.5252588113	-0.169797469	 2.0860486298	 0.092773
H	-1.7716235791	-0.7666513498	 1.0468219661	 0.096112
H	-2.0991087776	-0.1742507836	-0.5886028078	 0.096957
134.7714	224.6891	274.7354	284.1979	390.5994	399.9182	425.6336	476.2192	567.2451	666.4025	680.6465	755.2978	772.6648	814.7215	870.1044	882.7533	908.6457	920.1444	949.2837	966.9162	1016.1749	1038.3744	1056.7682	1060.0165	1095.5241	1106.8488	1164.7164	1171.7848	1178.1584	1206.9451	1251.9627	1278.8324	1283.7918	1303.0126	1304.5838	1310.9639	1352.571	1358.5094	1389.179	1414.7185	1437.4106	1484.9043	1490.8488	1494.7915	1495.4482	1502.4932	1516.8132	3020.5803	3023.2111	3025.6647	3030.1631	3036.6991	3051.3048	3067.332	3071.7319	3075.9529	3087.7734	3091.868	3116.7405	3145.9612
CC12CC3C(CC1)N3C2	C[C@@]12C[C@H]3[C@@H](CC1)N3C2	
InChI=1S/C8H13N/c1-8-3-2-6-7(4-8)9(6)5-8/h6-7H,2-5H2,1H3	InChI=1S/C8H13N/c1-8-3-2-6-7(4-8)9(6)5-8/h6-7H,2-5H2,1H3/t6-,7+,8+,9?/m1/s1
