16
gdb 70956	3.47418	1.41624	1.21358	3.2825	71.61	-0.2629	0.0054	0.2684	1021.9105	0.123397	-437.752611	-437.745206	-437.744262	-437.784259	29.494	
O	 0.1204950441	 1.4264836134	-0.0633562064	-0.455171
C	 0.070844173	 0.0559826022	-0.0187183039	 0.369211
C	 0.5953578698	-0.9882747025	-1.1889976741	-0.370367
C	-0.0615502882	-1.7689731164	-0.037426253	 0.392149
C	 0.6965172888	-0.9027459434	 1.0073512822	-0.345914
O	-0.8648762631	-2.8720017948	 0.4684772048	-0.322177
C	-1.8148945752	-1.8957357246	 0.8939583314	 0.356543
N	-2.7977903877	-2.0339952265	 1.6521265716	-0.536374
C	-1.2326531286	-0.8043067644	-0.0216578864	-0.175379
H	 0.9826591599	 1.7191543961	 0.2524575633	 0.293122
H	 0.0577260961	-0.9473239642	-2.1362493851	 0.120584
H	 1.6784980129	-1.0565313016	-1.319395261	 0.104641
H	 1.7854599037	-0.9854040879	 1.0181966892	 0.097703
H	 0.2674881499	-0.8833558542	 2.0111757393	 0.120833
H	-2.8801148244	-2.9951520195	 1.9895725728	 0.237865
H	-1.8140047811	-0.7539863318	-0.9449463946	 0.112732
137.3695	147.0228	218.3722	325.8989	384.7052	435.3981	477.1243	525.5066	561.4324	592.066	668.6117	701.3597	734.5933	812.2829	864.2998	882.6208	926.0329	953.7644	1000.7999	1012.7521	1033.4344	1052.3285	1094.2415	1103.5109	1127.1419	1151.4129	1180.4148	1210.7849	1235.9314	1279.159	1338.5351	1369.5867	1489.5201	1534.0332	1815.1769	3062.5018	3067.5032	3087.6207	3137.6107	3153.4767	3471.8575	3807.0787
OC12CC3(C1)OC(=N)C23	O[C@@]12C[C@]3(C1)O[C]([NH])[C@@H]23	
InChI=1S/C6H7NO2/c7-4-3-5(8)1-6(3,2-5)9-4/h3,7-8H,1-2H2	InChI=1S/C6H7NO2/c7-4-3-5(8)1-6(3,2-5)9-4/h3,7-8H,1-2H2/t3-,5-,6+/m0/s1
