20
gdb 6855	3.25755	1.76568	1.52128	1.237	76.58	-0.2437	0.0162	0.2599	946.0208	0.177383	-349.028803	-349.020581	-349.019637	-349.060783	32.206	
C	-0.0390989029	 1.5620209498	 0.0036022234	-0.425659
C	 0.005429334	 0.0284617126	 0.0031519115	 0.351961
O	-1.3454726784	-0.4783773555	-0.0243619788	-0.469363
C	 0.6668086616	-0.5068972554	-1.2754308963	-0.204356
C	 0.9734749236	-2.0027363969	-1.1574151627	-0.214715
C	 1.9577368576	-2.2682203915	-0.0105433752	-0.244786
C	 1.596068807	-1.490957723	 1.2268491463	-0.062931
C	 0.7283437994	-0.4798654255	 1.2338005928	-0.098564
H	 0.968359406	 1.9909297588	-0.0014847112	 0.114002
H	-0.5807157623	 1.9224179812	-0.8760280286	 0.119029
H	-0.5580335572	 1.9309425611	 0.895942448	 0.100169
H	-1.7007936407	-0.4172214009	 0.8684917062	 0.272472
H	-0.0079469397	-0.3121652079	-2.1153920887	 0.100808
H	 1.5912059148	 0.0541967929	-1.4599494975	 0.089365
H	 0.0343112181	-2.530259195	-0.959683428	 0.116015
H	 1.3736650519	-2.3908145008	-2.0996706918	 0.085898
H	 1.9949270321	-3.3390912967	 0.2256494477	 0.102998
H	 2.982187584	-2.0026188848	-0.3148336144	 0.106532
H	 2.0851298958	-1.7833478604	 2.1540616635	 0.086251
H	 0.5060884652	 0.0381202678	 2.1665875934	 0.074873
101.0661	188.6814	224.3569	248.2977	275.9826	330.0681	341.7088	430.5039	472.751	506.07	528.8619	680.8121	738.1892	749.6015	858.0101	874.1087	909.0342	920.181	979.2691	989.033	1008.8682	1029.9837	1071.2962	1123.218	1127.0364	1148.3337	1207.846	1210.1071	1263.1448	1285.6714	1343.0277	1372.957	1378.9095	1394.4866	1399.275	1424.7942	1468.6981	1478.0226	1489.0448	1490.2654	1493.5263	1718.4234	2990.8381	3024.9227	3031.8488	3036.2029	3047.9822	3079.1939	3089.6751	3094.1386	3112.5722	3119.7579	3150.8655	3810.6166
CC1(O)CCCC=C1	C[C@@]1(O)CCCC=C1	
InChI=1S/C7H12O/c1-7(8)5-3-2-4-6-7/h3,5,8H,2,4,6H2,1H3	InChI=1S/C7H12O/c1-7(8)5-3-2-4-6-7/h3,5,8H,2,4,6H2,1H3/t7-/m0/s1
