13
gdb 25437	2.77052	1.57606	1.00458	3.5317	68.78	-0.257	-0.0801	0.1769	1069.3266	0.09056	-452.779181	-452.771923	-452.770978	-452.811474	26.19	
N	 0.2053773974	 1.3913738862	 0.3209152456	-0.513835
C	 0.1299315734	 0.1224483598	 0.2316761499	 0.287341
N	 1.256866376	-0.7257042399	 0.4136944547	-0.30143
C	 1.1146952705	-1.9782574998	 0.3117138446	 0.128465
O	-0.0388298481	-2.6620165846	 0.035213809	-0.183605
C	-1.1447028399	-1.9026344867	-0.147614495	 0.028587
C	-1.133913561	-0.5606757901	-0.0674006303	 0.035702
C	-2.4035207945	 0.1826122539	-0.2847588055	 0.101259
O	-3.4562047649	-0.3616332143	-0.5324481833	-0.275744
H	 1.1676908919	 1.6601422973	 0.5340467179	 0.229175
H	 1.9378210552	-2.6742019	 0.4402118523	 0.158872
H	-2.0310077332	-2.4854998841	-0.3633914257	 0.177403
H	-2.3079671226	 1.2793263123	-0.2014258341	 0.127809
85.1303	124.498	202.0386	259.7887	368.9329	412.5133	477.5501	495.7574	573.0318	646.6501	784.0535	812.2627	889.1224	912.5202	951.2345	963.9801	972.7632	1054.4603	1075.1747	1192.3194	1202.5447	1312.565	1387.9236	1413.3022	1435.3428	1618.1462	1705.2364	1727.9099	1796.5079	2993.0875	3199.3365	3234.0056	3471.5386
N=C1N=COC=C1C=O	[NH]C1=C(COC=N1)C=O	
InChI=1S/C5H4N2O2/c6-5-4(1-8)2-9-3-7-5/h1-3,6H	InChI=1S/C5H5N2O2/c6-5-4(1-8)2-9-3-7-5/h1,3,6H,2H2
