19
gdb 109543	2.11036	1.51106	1.05085	2.1224	71.23	-0.2563	-0.0335	0.2228	1181.2747	0.157673	-460.163021	-460.153492	-460.152547	-460.197257	35.009	
C	-0.870291345	 1.2287481662	 0.1585790283	-0.413294
C	-0.0468247394	-0.0461976623	 0.0471288218	-0.108098
C	 0.6555790523	-0.4873958572	-1.2966089432	-0.111048
C	 1.0519584751	 0.6509025893	-2.2361781236	-0.065784
O	 1.8777913428	 0.1884552496	-3.2847614411	-0.427797
C	 1.8821546792	-1.0016596722	-0.4521727924	 0.046148
O	 3.1935166031	-0.766347847	-0.9033205953	-0.438809
C	 1.3622085802	-0.0716307154	 0.6419878546	 0.331964
O	 1.9663092574	 0.6358575676	 1.402380961	-0.315041
H	-0.3137624911	 2.1006775959	-0.1947445865	 0.133945
H	-1.794008881	 1.1519555565	-0.4227083235	 0.126282
H	-1.1424575793	 1.4124670804	 1.2020254112	 0.135154
H	-0.6128343239	-0.9017572909	 0.4350224495	 0.109453
H	 0.1382081655	-1.2676405534	-1.8570213463	 0.089529
H	 0.1608327847	 1.084626896	-2.7015772595	 0.112039
H	 1.5407474189	 1.4592877181	-1.666236096	 0.08683
H	 2.6700296436	-0.1634647815	-2.8577978447	 0.293637
H	 1.7554054943	-2.0608268151	-0.196586539	 0.111011
H	 3.5751566026	-0.1004269445	-0.3150848653	 0.303879
80.5641	152.4059	156.5998	176.1039	185.8686	218.2188	240.1609	314.6178	358.171	440.4336	508.8757	572.9236	580.7981	592.441	748.2738	811.9334	818.452	870.7569	951.4845	977.4389	998.4581	1061.2967	1084.1743	1091.0134	1142.8042	1158.3295	1169.3296	1204.0106	1235.5089	1265.7999	1319.649	1335.2594	1363.3501	1393.2382	1410.7778	1411.0391	1447.8711	1493.0753	1494.5575	1507.6769	1862.7931	2960.0379	3032.5937	3040.8787	3045.9557	3070.1607	3101.9953	3113.2801	3123.0731	3752.2386	3763.5076
CC1C(CO)C(O)C1=O	C[C@H]1[C@@H](CO)[C@@H](O)C1=O	
InChI=1S/C6H10O3/c1-3-4(2-7)6(9)5(3)8/h3-4,6-7,9H,2H2,1H3	InChI=1S/C6H10O3/c1-3-4(2-7)6(9)5(3)8/h3-4,6-7,9H,2H2,1H3/t3-,4+,6+/m0/s1
