19
gdb 77735	2.33454	1.98921	1.36443	1.7578	82.55	-0.2124	-0.0338	0.1786	999.6879	0.159009	-385.796476	-385.788673	-385.787729	-385.828166	31.665	
C	 0.4072734556	 1.4637129939	 0.3355016785	-0.492224
C	 0.0769996838	 0.0362467742	-0.0237122607	 0.250467
C	-1.1884741572	-0.6676288114	 0.6338442525	-0.092567
C	-2.0163019227	-1.7943399748	-0.0171421203	-0.262951
C	-0.9320972796	-2.4152906854	-0.8947499236	-0.144282
C	 0.2748734868	-1.9560500681	-0.5025630215	 0.011667
C	 0.1862885898	-1.1983863707	 0.8290525775	-0.147283
C	 0.8144942734	-0.7048550403	-1.2177766272	 0.076485
O	 0.5152710373	-0.4608891331	-2.5499385105	-0.41606
H	 1.4908180956	 1.6286765085	 0.3178051857	 0.120794
H	-0.0462122067	 2.1662968799	-0.372120268	 0.127518
H	 0.0478402652	 1.7187563011	 1.3374845191	 0.12061
H	-1.6500792327	-0.0425040691	 1.3963618956	 0.078171
H	-2.468105262	-2.4271353862	 0.7605746589	 0.10943
H	-2.8373572532	-1.4509054775	-0.6596471028	 0.103243
H	-1.1507897298	-2.6798810905	-1.9266853368	 0.092638
H	 0.7492565566	-1.3758900934	 1.7360999247	 0.090027
H	 1.8863449325	-0.5042218534	-1.1071765542	 0.097318
H	-0.4140870128	-0.6848855538	-2.684843537	 0.276999
166.6928	180.3592	211.3774	253.8684	326.0845	350.0006	421.2331	455.357	569.9691	601.2649	642.1537	678.9768	765.2526	810.3801	840.9566	858.1749	871.7762	901.8065	916.5786	969.3736	991.0047	1007.8948	1016.6934	1070.255	1087.5692	1133.5412	1161.2652	1179.2242	1200.2586	1221.8951	1248.0465	1269.7267	1291.1099	1299.2784	1396.6831	1409.248	1435.6355	1478.996	1483.9883	1495.6188	1585.1076	2996.2727	3025.3798	3040.1118	3050.456	3086.9284	3099.3901	3129.034	3149.5801	3195.5164	3769.6937
CC12C3CC=C(C13)C2O	C[C@]12[C@H]3C[CH][C]([C@@H]13)[C@H]2O	
InChI=1S/C8H10O/c1-8-5-3-2-4(6(5)8)7(8)9/h2,5-7,9H,3H2,1H3	InChI=1S/C8H10O/c1-8-5-3-2-4(6(5)8)7(8)9/h2,5-7,9H,3H2,1H3/t5-,6+,7+,8-/m0/s1
