12
gdb 53783	2.89779	1.12348	1.02846	3.3549	63.71	-0.2511	-0.0978	0.1532	1166.9583	0.073828	-472.626273	-472.616927	-472.615983	-472.662102	31.605	
N	-0.0485123309	 1.2518281917	 0.1588261596	-0.527389
C	-0.1478129535	-0.0835165907	 0.3285614301	 0.331474
O	 0.5350683409	-0.7839083167	 1.0473438636	-0.33014
C	-1.304543445	-0.6954187533	-0.4801332279	 0.21758
O	-2.1506001348	-0.0329992546	-1.0268322032	-0.287535
C	-1.2868347805	-2.2304440673	-0.595494124	 0.244375
O	-0.4080381599	-2.7440177273	-1.2475754246	-0.264794
C	-2.384813928	-2.9323443311	 0.0163343576	 0.248683
C	-3.3054710991	-3.4738609191	 0.5716711185	-0.419798
H	 0.62845174	 1.7759635685	 0.6877369904	 0.276393
H	-0.7293847048	 1.7274169366	-0.4112416971	 0.282872
H	-4.1145821045	-3.9681049266	 1.053543137	 0.228279
19.2233	64.6906	125.3798	151.9915	226.7349	246.8681	318.4012	344.2145	391.2787	466.0743	492.6185	613.5007	644.9181	657.7733	672.5198	717.3998	768.4354	835.3718	967.2925	1092.5387	1209.1434	1370.9328	1599.1514	1763.0833	1804.6741	1812.043	2213.2837	3490.5472	3594.6292	3732.0136
NC(=O)C(=O)C(=O)C#C	NC(=O)C(=O)C(=O)C#C	
InChI=1S/C5H3NO3/c1-2-3(7)4(8)5(6)9/h1H,(H2,6,9)	InChI=1S/C5H3NO3/c1-2-3(7)4(8)5(6)9/h1H,(H2,6,9)
