16
gdb 28954	3.15438	1.13871	0.8962	2.5752	72.32	-0.1927	-0.0333	0.1594	1251.095	0.123139	-437.917507	-437.90874	-437.907796	-437.952342	31.284	
O	 0.2106598921	 1.3455927899	 0.2334766718	-0.442368
C	 0.1307227663	 0.0094718181	-0.0056382494	 0.365744
C	 0.1261294279	-0.7418714342	-1.1553210278	-0.307617
C	 0.0123812886	-2.1052582051	-0.7415703495	-0.14138
C	-0.0501368614	-2.1283264424	 0.6253814267	-0.121456
N	 0.0319615668	-0.8183437742	 1.0815759387	-0.042749
C	-0.0448931249	-0.395657449	 2.4586334902	-0.265738
C	-1.4727407121	-0.4050453243	 3.0024623262	 0.149261
O	-1.7340490242	-0.4764468882	 4.1725626821	-0.228093
H	 0.3558075265	 1.7947908444	-0.604250751	 0.311216
H	 0.1986993043	-0.3655993469	-2.1639211741	 0.090934
H	-0.0171770564	-2.9676605867	-1.3893443106	 0.098831
H	-0.1294542644	-2.942512532	 1.3270400601	 0.120586
H	 0.5814999945	-1.0261639791	 3.0965717528	 0.146686
H	 0.333083118	 0.6295916912	 2.5310883345	 0.167403
H	-2.2587433616	-0.3286269415	 2.2178808495	 0.098738
33.5756	72.9708	95.7989	204.1147	266.4337	279.7423	354.2787	412.9755	492.752	613.1523	631.9198	658.7598	689.0763	721.7222	728.3195	803.1585	819.1508	908.3994	1025.7555	1034.1602	1064.1888	1095.3664	1141.7541	1200.5176	1252.217	1307.8534	1331.0766	1340.0682	1405.4399	1408.0687	1446.5805	1529.8573	1552.2669	1609.4929	1841.5775	2889.2794	3057.9372	3108.2798	3242.5154	3254.4334	3273.7846	3852.9678
OC1=CC=CN1CC=O	Oc1cccn1CC=O	
InChI=1S/C6H7NO2/c8-5-4-7-3-1-2-6(7)9/h1-3,5,9H,4H2	InChI=1S/C6H7NO2/c8-5-4-7-3-1-2-6(7)9/h1-3,5,9H,4H2
