19
gdb 62230	4.89487	0.57155	0.52521	5.5698	79.82	-0.2724	0.0118	0.2842	2017.1393	0.157635	-419.220342	-419.209834	-419.208889	-419.258264	35.285	
C	-0.0692295456	 1.5811151099	-0.1092168767	-0.39289
C	-0.0164754053	 0.0450854623	 0.023217083	-0.149795
C	 0.7986761023	-0.4486396121	 1.2408381474	-0.195217
C	 2.276904089	-0.0888372952	 1.1523374075	-0.089241
O	 2.9249614741	-0.7094225389	 2.2599613202	-0.181897
C	 4.194235914	-0.3261269025	 2.5069744732	 0.128884
N	 4.8547307314	-0.8891097444	 3.4215343649	-0.432254
C	-1.3779594971	-0.4975564416	 0.0933198788	 0.268766
N	-2.4534009928	-0.9159620132	 0.1550557707	-0.316039
H	 0.9313220348	 1.9875607266	-0.2760772082	 0.127392
H	-0.69851961	 1.8750280641	-0.9523977807	 0.144624
H	-0.4811085945	 2.0327336272	 0.7977749286	 0.142195
H	 0.4375788439	-0.3677376033	-0.8879202166	 0.130148
H	 0.3775017173	-0.0320651942	 2.1616690804	 0.133239
H	 0.7157356096	-1.5366660348	 1.3173138749	 0.142012
H	 2.7081433544	-0.4590801257	 0.2105802141	 0.111625
H	 2.4286799981	 0.9974190373	 1.1903598579	 0.112208
H	 4.5417315183	 0.4882718708	 1.8552900777	 0.08424
H	 5.782041768	-0.4749503923	 3.4879990928	 0.231999
22.4521	55.3394	85.3752	87.429	135.9252	181.6302	213.9313	258.7818	296.566	377.2714	399.9296	557.3456	587.9349	635.3477	790.1873	821.9903	830.2906	928.5999	971.2141	1000.0245	1043.7645	1058.577	1098.3288	1122.2858	1144.177	1176.3059	1241.5943	1281.8462	1303.3807	1318.7727	1339.8098	1365.5651	1412.9566	1417.6447	1437.4272	1488.1097	1496.4425	1504.6773	1520.1533	1751.8627	2359.4473	2992.5646	3017.3977	3021.8124	3042.2668	3052.1455	3059.5837	3107.5654	3127.1901	3131.6557	3520.7967
CC(CCOC=N)C#N	C[C@@H](CCO[CH][NH])C#N	
InChI=1S/C6H10N2O/c1-6(4-7)2-3-9-5-8/h5-6,8H,2-3H2,1H3	InChI=1S/C6H10N2O/c1-6(4-7)2-3-9-5-8/h5-6,8H,2-3H2,1H3/t6-/m0/s1
