18
gdb 61576	2.88868	1.15342	0.88746	6.2963	68.44	-0.2605	0.0222	0.2826	1284.2261	0.147831	-476.235742	-476.227197	-476.226253	-476.269393	31.956	
O	 1.04697731	 1.6987429249	 0.3524120365	-0.437308
C	 0.2654981244	 0.6622891997	-0.1750932843	 0.016581
C	 0.8091184604	 0.2468213448	-1.5634561792	-0.256498
C	-0.2690400519	-0.2231611142	-2.5183644258	-0.005015
C	-0.1743779676	-1.5062170602	-3.2559825816	-0.24292
N	-1.0542060978	-1.4002129824	-2.0775802879	-0.326165
H	-0.6367830217	-1.6376687562	-0.4524535036	 0.337117
H	-2.029447209	-1.3265729226	-2.3481528205	 0.252171
C	 0.2437753848	-0.4972532959	 0.8477068622	 0.379217
O	 0.7344867683	-0.3251237539	 1.9417267237	-0.357345
O	-0.3210444618	-1.6402062808	 0.4989951192	-0.374609
H	 1.2399565803	 1.4154138849	 1.2635815092	 0.295445
H	-0.7809696379	 0.9971730659	-0.2981565171	 0.083892
H	 1.2982342508	 1.1290175274	-1.9857699995	 0.134554
H	 1.5834060781	-0.5198035496	-1.4515401842	 0.116744
H	-0.8437701903	 0.5692223715	-2.9922662498	 0.109434
H	-0.64943824	-1.5906152438	-4.2282069155	 0.132295
H	 0.697364001	-2.1379691694	-3.1165984117	 0.142409
70.0465	113.0809	137.5076	241.6869	255.6952	335.6742	354.7593	426.546	444.8284	510.9207	542.1108	643.0831	744.8135	804.1237	837.7651	883.7956	892.2391	946.8418	961.9567	997.7932	1049.6456	1062.8752	1112.7486	1136.9421	1154.332	1167.5473	1248.9864	1268.981	1274.0121	1290.4294	1308.2129	1318.363	1383.4273	1433.9276	1445.1605	1480.4147	1489.6708	1511.7465	1822.8008	2932.0637	3048.683	3051.4664	3100.6386	3126.0751	3141.3411	3215.7662	3531.6774	3636.9412
OC(CC1C[NH2+]1)C([O-])=O	O[C@@H](C[C@H]1CN1)C(=O)O	
InChI=1S/C5H9NO3/c7-4(5(8)9)1-3-2-6-3/h3-4,6-7H,1-2H2,(H,8,9)	InChI=1S/C5H9NO3/c7-4(5(8)9)1-3-2-6-3/h3-4,6-7H,1-2H2,(H,8,9)/t3-,4-/m0/s1
