23
gdb 57271	2.20718	1.2696	1.15396	0.5069	90.86	-0.2588	0.0595	0.3182	1269.0194	0.203746	-351.120431	-351.110301	-351.109357	-351.154895	38.942	
C	 0.3047355854	 1.5174903206	 0.1579360018	-0.406028
C	-0.0432860479	 0.0160036938	 0.0327788626	 0.041981
C	 0.543746196	-0.7573388792	 1.2363476252	-0.406028
C	-1.5028990791	-0.1378287927	 0.0317789946	 0.361248
C	-2.6999946771	-0.2578327148	 0.04394324	-0.523453
C	 0.5628218746	-0.5408348275	-1.2761622359	 0.065406
C	 0.249626453	-1.9945094729	-1.7294888779	-0.245848
C	 0.224557463	-1.4867496724	-3.1965063787	-0.214963
C	 0.0445659281	-0.042934804	-2.6546665691	-0.245849
H	 1.3918355157	 1.6498496866	 0.1753077821	 0.109805
H	-0.0985830145	 2.0855516605	-0.6844875201	 0.126562
H	-0.1081481663	 1.9374366139	 1.0794282377	 0.120207
H	 0.1353637208	-0.3802524811	 2.1781572916	 0.120207
H	 0.3121392077	-1.8235542671	 1.1686724062	 0.126562
H	 1.6325299471	-0.6410074388	 1.2613191717	 0.109805
H	-3.7566740938	-0.3624673202	 0.0573927734	 0.193488
H	 1.6484552703	-0.3977355361	-1.2149326551	 0.065218
H	 0.9681267346	-2.7757132694	-1.4695703933	 0.090937
H	-0.7454225975	-2.3027406073	-1.395785897	 0.112556
H	 1.1920395454	-1.6188191882	-3.6895350665	 0.098663
H	-0.5551269405	-1.8798501717	-3.8529006065	 0.096032
H	-1.0120202223	 0.2344991594	-2.5986096899	 0.112556
H	 0.5964312274	 0.7617699684	-3.1465760169	 0.090937
84.561	105.6177	170.1365	179.2273	187.9983	242.161	266.2499	307.278	327.4716	405.9918	411.0474	561.6271	564.7813	608.2703	621.9022	633.1355	711.0412	784.2284	806.7977	894.6607	935.1246	939.9715	945.6668	952.4393	959.2481	1010.3242	1044.5909	1059.3467	1124.4697	1170.4229	1205.9304	1207.3496	1240.3454	1257.6498	1261.6864	1264.0863	1287.5528	1294.3084	1363.4081	1393.962	1417.0719	1474.3976	1482.0264	1486.0993	1487.7366	1497.9767	1508.0321	1509.7973	2225.0435	3027.9899	3033.7041	3038.9493	3053.6755	3054.6331	3060.7395	3098.0982	3105.7674	3107.8799	3110.6962	3119.25	3120.4648	3121.4011	3500.86
CC(C)(C#C)C1CCC1	CC(C)(C#C)C1CCC1	
InChI=1S/C9H14/c1-4-9(2,3)8-6-5-7-8/h1,8H,5-7H2,2-3H3	InChI=1S/C9H14/c1-4-9(2,3)8-6-5-7-8/h1,8H,5-7H2,2-3H3
