21
gdb 93013	2.80444	1.30869	0.98731	2.0678	85.16	-0.2379	0.0132	0.251	1255.1701	0.183297	-387.096338	-387.08796	-387.087015	-387.129029	33.247	
C	 0.0235052073	 1.5787783893	 0.007386776	-0.403885
C	 0.0161768344	 0.0484154425	-0.0182739437	 0.01918
C	 0.7124153149	-0.5036915602	-1.2758490548	-0.252702
C	 0.9590069521	-1.9883599807	-1.2057863085	-0.088569
C	 0.882893602	-2.6905925488	-0.0747019337	-0.095439
C	 0.5716284168	-2.061808635	 1.2323345633	 0.410611
C	-0.2786009158	-2.7793710583	 2.2039768299	-0.239032
O	 1.1337729028	-2.7260429458	 2.3823445419	-0.293884
C	 0.6622413084	-0.5490231212	 1.2431807254	-0.290097
H	 1.0479088386	 1.964719374	 0.0689836639	 0.114994
H	-0.4341563538	 1.9928931516	-0.897514032	 0.11104
H	-0.5301952862	 1.9647448734	 0.8696287258	 0.112242
H	-1.029111866	-0.2910642569	-0.0470322178	 0.076393
H	 0.1147032503	-0.2677050249	-2.165916869	 0.103484
H	 1.6715782239	 0.0170093141	-1.4257131696	 0.108309
H	 1.213249358	-2.4928864165	-2.1348221365	 0.091388
H	 1.0636817007	-3.7617961627	-0.059008982	 0.093648
H	-0.8676258579	-2.2066479645	 2.9207022149	 0.109212
H	-0.6836541071	-3.7593433419	 1.9522250781	 0.108722
H	 1.7236334727	-0.2676148862	 1.2763613556	 0.107808
H	 0.1981363439	-0.1472120313	 2.1498112128	 0.096579
102.1847	137.9447	238.039	255.6467	275.5702	367.9618	372.7544	423.1199	433.1742	442.5913	534.9955	659.036	745.7641	790.6932	826.443	888.4356	891.4319	910.0066	935.906	950.708	982.779	996.3736	1010.4883	1088.272	1115.6921	1131.3695	1139.9297	1158.4699	1175.1974	1206.809	1265.719	1293.179	1310.2479	1331.0788	1366.0756	1374.1128	1396.2993	1410.9793	1436.1074	1472.2295	1488.7545	1497.8016	1499.5559	1525.2053	1715.9954	2984.4219	3001.1375	3020.6367	3026.4038	3035.7649	3070.1608	3074.2155	3092.2975	3098.1178	3150.7633	3156.5263	3176.4174
CC1CC=CC2(CO2)C1	C[C@H]1CC=C[C@]2(CO2)C1	
InChI=1S/C8H12O/c1-7-3-2-4-8(5-7)6-9-8/h2,4,7H,3,5-6H2,1H3	InChI=1S/C8H12O/c1-7-3-2-4-8(5-7)6-9-8/h2,4,7H,3,5-6H2,1H3/t7-,8+/m0/s1
