15
gdb 133653	2.5602	1.33547	1.05291	3.9033	56.59	-0.2593	-0.0046	0.2547	1126.564	0.107388	-585.470666	-585.461091	-585.460147	-585.506262	32.433	
C	 0.0058318763	 1.4495078294	 0.0705734257	-0.348182
N	 0.0122742853	-0.0065391475	 0.0210431666	-0.102836
C	 1.3208512596	-0.6282634343	 0.1625502734	-0.347078
C	-1.1817015133	-0.6479143006	-0.084338093	 0.272391
O	-2.2613612102	-0.1008195619	-0.1784741593	-0.358285
C	-1.1451077031	-2.2048701121	-0.0785982457	 0.207041
F	-2.372550933	-2.6868646028	-0.1499245099	-0.03306
F	-0.4454598704	-2.6882001656	-1.1226970758	-0.081093
F	-0.5730802869	-2.6779969579	 1.0434582892	-0.081235
H	 0.6123496623	 1.8581261912	-0.7458175487	 0.131604
H	-1.0209809568	 1.7967095961	-0.0258080379	 0.176156
H	 0.4249697788	 1.7998760366	 1.0214478556	 0.131261
H	 1.711579938	-0.485019255	 1.1777522937	 0.134662
H	 1.2901693899	-1.6909401228	-0.054553327	 0.165879
H	 2.0182161636	-0.1578650628	-0.5395711869	 0.132774
39.4001	88.3206	97.9599	131.2445	205.1768	232.0892	284.7861	335.9356	354.2202	408.5565	453.695	525.9668	581.5429	674.8604	757.1845	760.8862	945.5871	1087.0552	1122.3505	1127.7332	1162.6924	1178.5408	1219.9159	1282.009	1306.044	1434.8247	1447.2401	1479.4205	1487.8665	1501.259	1507.1876	1546.2273	1787.8792	3021.6459	3027.742	3073.8199	3077.2832	3176.1547	3205.7256
CN(C)C(=O)C(F)(F)F	CN(C)C(=O)C(F)(F)F	
InChI=1S/C4H6F3NO/c1-8(2)3(9)4(5,6)7/h1-2H3	InChI=1S/C4H6F3NO/c1-8(2)3(9)4(5,6)7/h1-2H3
