17
gdb 26508	3.70612	1.26979	1.02822	3.5768	75.	-0.2104	0.0319	0.2424	1145.3657	0.137406	-418.029222	-418.021334	-418.02039	-418.061748	30.672	
O	 0.1949250262	 1.3456194784	 0.3122939748	-0.458958
C	 0.0328102488	-0.0236440884	 0.0394955809	 0.28898
C	-0.6913526712	-0.873205991	 1.0602303084	-0.322662
C	-1.3873339247	-0.4520876695	-0.212193539	-0.287019
C	 1.132924804	-0.6148065392	-0.7542834718	 0.252509
C	 2.1854162062	 0.0442331137	-1.3377132482	-0.216715
N	 2.9285472249	-0.9382441172	-1.9609925611	-0.237666
C	 2.3029521934	-2.1243495338	-1.7313142724	 0.010181
N	 1.219839964	-1.9685277371	-1.0060040309	-0.324604
H	 0.8966185398	 1.4246130394	 0.9687396416	 0.278816
H	-0.3802784563	-1.9068383408	 1.1543609692	 0.133003
H	-0.9851013145	-0.3757647518	 1.9780563095	 0.106975
H	-2.1386013759	 0.3262047731	-0.1434482585	 0.118765
H	-1.5504119037	-1.2021087034	-0.977028436	 0.127525
H	 2.4505790895	 1.0858060053	-1.3841917508	 0.134963
H	 3.7744865652	-0.799335355	-2.4871465853	 0.266359
H	 2.681691104	-3.0613760028	-2.1119154206	 0.129549
67.8248	159.9507	179.9195	311.9145	327.4711	350.1567	459.732	493.9137	515.0477	542.7302	660.8191	714.8958	756.6297	778.3705	818.7907	862.4608	905.9661	926.8557	948.9587	967.2911	998.9466	1056.6363	1079.9512	1085.6112	1134.437	1180.336	1198.3091	1231.2762	1264.6622	1339.7444	1356.9351	1373.6548	1439.8233	1463.2015	1482.9794	1527.7387	1602.7869	3136.7974	3141.7745	3229.3115	3242.6518	3249.807	3290.1284	3669.4865	3787.4481
OC1(CC1)C1=CNC=N1	OC1(CC1)c1c[nH]cn1	
InChI=1S/C6H8N2O/c9-6(1-2-6)5-3-7-4-8-5/h3-4,9H,1-2H2,(H,7,8)	InChI=1S/C6H8N2O/c9-6(1-2-6)5-3-7-4-8-5/h3-4,9H,1-2H2,(H,7,8)
