20
gdb 55082	3.80845	1.0231	0.99633	3.837	80.36	-0.2229	-0.0035	0.2194	1293.6312	0.169654	-403.129006	-403.119852	-403.118908	-403.163102	34.423	
C	 0.5794583194	 0.4865146273	-0.8087731378	-0.491373
C	-0.0934040757	 0.1264901001	 0.4983971666	 0.379934
O	 0.2506949528	 0.6125854085	 1.5542135741	-0.316044
C	-1.213689005	-0.9073093128	 0.4808920164	-0.069682
C	-2.1186920907	-1.1862805828	-0.7758499205	-0.312752
C	-1.6951878594	-2.665104221	-0.7206013045	 0.354585
C	-2.5325989456	-3.8545904642	-1.0709340144	-0.508581
N	-0.2253043069	-2.6497552951	-0.921713712	-0.362977
C	-0.7891666797	-2.3911367658	 0.4299942667	-0.124829
H	 1.4572343803	 1.1030589008	-0.6098087246	 0.129583
H	 0.8441383134	-0.4237379182	-1.3552453407	 0.167032
H	-0.1167006399	 1.0483673667	-1.4434191605	 0.132404
H	-1.8209395843	-0.7305934253	 1.3709542884	 0.098291
H	-3.1758734354	-1.0264672405	-0.5530758869	 0.108493
H	-1.8602891815	-0.6693979417	-1.7022663166	 0.108874
H	-2.6749083812	-3.9331326635	-2.1553411468	 0.131541
H	-2.063796374	-4.7829115798	-0.7262643865	 0.119735
H	-3.5234769758	-3.7874684813	-0.6093634673	 0.128408
H	 0.0901105235	-3.6198297723	-0.9245771276	 0.22714
H	-0.5035366342	-3.0092686291	 1.2727780544	 0.100218
48.5752	121.0669	159.7064	200.9271	214.4889	263.7583	325.564	370.8632	430.3649	456.5591	514.2118	601.8482	653.4126	689.3978	761.465	844.8428	900.016	917.1189	926.6436	967.4459	986.2972	1006.846	1029.8606	1061.5866	1074.7595	1093.0149	1133.7322	1167.331	1225.7719	1240.7308	1253.9869	1286.8248	1308.8136	1348.8235	1381.8169	1409.265	1444.5526	1469.101	1473.2	1483.0706	1485.4814	1498.9766	1795.0306	3023.5035	3033.7188	3070.8195	3085.9363	3093.2318	3097.0513	3101.2769	3128.5524	3151.9024	3187.4016	3468.7934
CC(=O)C1CC2(C)NC12	CC(=O)[C@H]1C[C@@]2(C)N[C@@H]12	
InChI=1S/C7H11NO/c1-4(9)5-3-7(2)6(5)8-7/h5-6,8H,3H2,1-2H3	InChI=1S/C7H11NO/c1-4(9)5-3-7(2)6(5)8-7/h5-6,8H,3H2,1-2H3/t5-,6+,7-/m1/s1
