22
gdb 38447	3.74732	1.2343	1.12725	1.7574	84.5	-0.2274	0.0725	0.2999	1178.7614	0.196999	-367.181051	-367.173153	-367.172209	-367.2143	31.533	
C	-0.1820809826	 1.2704868851	-0.0939762185	-0.248708
C	 1.1262124501	 0.6214227612	 0.1206337	-0.10982
N	-0.1340804535	-0.2022221702	-0.0934534135	-0.12719
C	 0.4103079013	-0.5773596104	-1.446941424	-0.22794
C	 1.7687054001	 0.1473666532	-1.1812851621	 0.38427
C	 2.2875666568	 1.1839842815	-2.2103033831	-0.28581
C	 3.5022666086	 0.5274413578	-2.927984792	-0.200151
C	 3.5291233817	-0.9307416737	-2.4245268558	-0.207769
C	 2.9473452248	-0.8251420371	-1.0094086217	-0.268094
H	-0.6876922082	 1.6769492842	 0.7769573354	 0.118366
H	-0.3925968176	 1.7935993163	-1.0247554294	 0.107737
H	 1.6309566874	 0.643842303	 1.0833602196	 0.086711
H	 0.4952376408	-1.6634827567	-1.535044087	 0.106755
H	-0.1989219614	-0.1988024429	-2.2760152545	 0.094506
H	 1.501006703	 1.4636083725	-2.9172471378	 0.09643
H	 2.5843112176	 2.1051717918	-1.6978354027	 0.100146
H	 3.4331587765	 0.5929143769	-4.0171053849	 0.095879
H	 4.4285238504	 1.0360055061	-2.6405935847	 0.1
H	 2.8777215648	-1.5592667691	-3.0447623792	 0.098601
H	 4.5276340259	-1.3758177456	-2.4515270154	 0.093462
H	 3.6920465737	-0.3798895928	-0.334836446	 0.09189
H	 2.6488413001	-1.7841935512	-0.5758643626	 0.100727
27.0221	140.174	180.483	262.9121	373.6949	398.8373	459.9868	508.4838	574.2651	710.0576	748.4779	776.4464	791.2225	851.532	858.1654	883.902	910.8114	929.6916	963.3071	966.4605	1001.7693	1014.67	1032.5335	1055.6405	1065.1301	1106.2217	1113.3689	1131.3949	1182.1573	1203.5351	1211.4438	1228.5797	1239.7728	1257.2022	1274.9441	1292.298	1304.5921	1330.9717	1344.4127	1354.8736	1380.4286	1483.6147	1486.0938	1494.5663	1497.2894	1510.0095	1516.723	3012.0922	3030.3687	3032.1617	3040.0227	3050.9582	3074.8159	3083.4901	3088.3272	3097.4753	3099.9684	3101.6362	3138.4712	3192.5264
C1C2N1CC21CCCC1	C1[C@H]2N1CC12CCCC1	
InChI=1S/C8H13N/c1-2-4-8(3-1)6-9-5-7(8)9/h7H,1-6H2	InChI=1S/C8H13N/c1-2-4-8(3-1)6-9-5-7(8)9/h7H,1-6H2/t7-,9?/m1/s1
