18
gdb 105323	2.48244	1.53288	1.18639	3.3967	76.11	-0.2712	0.0193	0.2906	1097.4206	0.146935	-401.918931	-401.910339	-401.909395	-401.952085	32.104	
C	 0.0555658286	 1.3562857015	-0.0341398988	-0.265998
O	 0.0060342319	-0.0550270343	 0.1133532959	-0.279329
C	-1.2740736632	-0.6197630759	 0.0195978228	 0.274581
C	-1.9834839934	-0.6464737688	-1.3970367543	-0.309819
C	-1.9659689502	-2.1761811077	-1.3395488026	-0.026618
C	-0.5540579928	-2.6601680571	-1.2049160459	-0.294922
C	-1.2608701162	-2.1516250517	 0.0203217929	-0.086347
C	-2.172194143	-0.0841729845	 1.0607200859	 0.247454
N	-2.8674641843	 0.3482901638	 1.8767741915	-0.349433
H	 1.1089462874	 1.6357553582	 0.0241169702	 0.137647
H	-0.3470351625	 1.6766601624	-1.0049338517	 0.114823
H	-0.4982104424	 1.8666883347	 0.7643757632	 0.138097
H	-2.9798935165	-0.2042391605	-1.3736285432	 0.131911
H	-1.399766065	-0.1909484789	-2.2023963514	 0.112385
H	-2.7766385626	-2.8175418749	-1.6579627498	 0.099091
H	-0.4213946066	-3.7367214802	-1.2239917864	 0.121845
H	 0.2685221231	-2.0948915875	-1.6322025451	 0.125514
H	-1.4207234022	-2.7570911785	 0.9023271368	 0.109117
120.0082	121.3725	164.6082	170.7587	193.3107	284.9964	379.4088	416.1191	481.2306	510.1285	571.3103	647.3456	746.9453	794.1233	845.7209	891.0319	938.6313	962.0733	974.0493	1021.1833	1039.1214	1064.5248	1087.0933	1096.1908	1139.3037	1155.1288	1184.1956	1186.7223	1224.5952	1236.4986	1250.3536	1303.2644	1359.7727	1473.0592	1478.8262	1488.8957	1494.0495	1508.4811	2348.0924	3002.7046	3058.5914	3063.3208	3127.3602	3132.6468	3133.2615	3200.9286	3206.7928	3218.8684
COC1(CC2CC12)C#N	CO[C@]1(C[C@H]2C[C@@H]12)C#N	
InChI=1S/C7H9NO/c1-9-7(4-8)3-5-2-6(5)7/h5-6H,2-3H2,1H3	InChI=1S/C7H9NO/c1-9-7(4-8)3-5-2-6(5)7/h5-6H,2-3H2,1H3/t5-,6-,7-/m1/s1
