21
gdb 67456	2.14923	1.82082	1.7596	1.3108	80.15	-0.2348	0.0718	0.3066	976.943	0.184775	-387.079735	-387.072071	-387.071127	-387.111546	31.47	
O	-0.0305083036	 1.4068861404	 0.0026304349	-0.495324
C	 0.0011756647	 0.0146034555	-0.0405887855	 0.422117
C	-1.316308918	-0.8182084128	 0.0326124351	-0.066284
C	-0.8477361117	-1.597894105	-1.2303061309	-0.240728
C	 0.4791702065	-0.768070268	-1.2981237087	-0.078167
C	 1.7785682352	-1.4795356353	-0.914088219	-0.224652
C	 1.6715470403	-1.7598026371	 0.6127422863	-0.231796
C	 0.5821510391	-0.8091911812	 1.1649105682	-0.082182
C	-0.8387795708	-1.4313420781	 1.3675917471	-0.235453
H	 0.8766291366	 1.7318343874	 0.0333655254	 0.274144
H	-2.3087700208	-0.3697345581	-0.0042383339	 0.067341
H	-0.7285882195	-2.6783337446	-1.1008840271	 0.090395
H	-1.4902959302	-1.4279336009	-2.0968883369	 0.103018
H	 0.5614922913	-0.170654852	-2.2088309342	 0.06477
H	 1.9522754064	-2.3918598855	-1.4941688466	 0.096558
H	 2.6284114834	-0.8149608851	-1.1149245503	 0.089015
H	 1.3956601712	-2.8028083879	 0.7995672469	 0.099735
H	 2.6350651139	-1.6062669561	 1.1076483817	 0.094606
H	 0.9252817872	-0.2071382071	 2.0089086893	 0.064468
H	-1.3551416254	-0.9896712156	 2.2239725088	 0.101045
H	-0.8845202759	-2.521847693	 1.4583031893	 0.087375
92.4896	203.14	217.8501	280.2975	361.7925	381.7631	407.464	572.3276	577.2664	635.3267	652.4001	775.8015	791.7813	811.4399	850.5408	870.2305	898.7319	944.4857	966.7462	985.9618	1020.3535	1033.8408	1046.9045	1081.9749	1111.3975	1114.6048	1127.9196	1148.3843	1172.0494	1179.1612	1222.7697	1241.8639	1248.4878	1265.3139	1285.5693	1301.2894	1313.3124	1322.6363	1337.4768	1352.266	1379.1296	1473.5138	1484.7617	1489.0045	1508.007	3022.0448	3038.9206	3043.6393	3048.898	3065.4867	3076.4435	3079.97	3087.613	3097.7889	3102.8925	3115.439	3787.8452
OC12C3CC1CCC2C3	O[C@@]12[C@H]3C[C@@H]1CC[C@@H]2C3	
InChI=1S/C8H12O/c9-8-5-1-2-6(8)4-7(8)3-5/h5-7,9H,1-4H2	InChI=1S/C8H12O/c9-8-5-1-2-6(8)4-7(8)3-5/h5-7,9H,1-4H2/t5-,6+,7-,8-
