18
gdb 30407	2.48998	1.59205	0.9828	5.0958	87.26	-0.1965	-0.0098	0.1867	1194.8757	0.148727	-398.171408	-398.162552	-398.161608	-398.205337	32.369	
C	 0.0890457833	 1.4051789259	-0.099431545	-0.326567
N	 0.1645256759	-0.0413167318	-0.0681719665	-0.317884
C	 0.5605999737	-0.6383525418	 0.9942946384	 0.29148
N	 0.9425533736	 0.0330347827	 2.1790401661	-0.322964
C	 1.3255368763	-0.6503008597	 3.1930761138	 0.091019
N	 1.4008360121	-2.0121561653	 3.2351603435	-0.317174
C	 1.0421710497	-2.7410870473	 2.1096844475	-0.090439
C	 0.6266381517	-2.1123676619	 0.9949430483	 0.224184
C	 0.2288500217	-2.8518690414	-0.2444219216	-0.472804
H	 0.7175105139	 1.7795902468	-0.9180706245	 0.110659
H	-0.938992704	 1.7056790007	-0.3406242112	 0.110668
H	 0.3917236606	 1.8958662616	 0.8317780812	 0.12262
H	 1.6222769202	-0.1445523562	 4.1116098185	 0.123551
H	 1.7121015716	-2.4773344348	 4.0708071445	 0.265017
H	 1.1205384566	-3.81782655	 2.1968567058	 0.122995
H	 0.3219477324	-3.9343410053	-0.115934262	 0.100528
H	-0.8024008056	-2.607852818	-0.5188403558	 0.142554
H	 0.8450483063	-2.5341382742	-1.0915781912	 0.142555
53.3475	97.6337	175.9857	196.9781	225.8421	300.1588	324.3191	383.4597	479.1969	494.4207	539.0901	548.2951	600.0876	749.5223	787.6221	863.8032	882.6763	954.2213	1006.0999	1052.982	1064.9976	1065.6971	1103.7351	1128.5144	1170.0383	1220.2806	1259.9444	1395.1982	1412.8587	1424.4045	1426.6417	1459.9251	1482.9009	1486.7955	1497.3168	1510.2684	1657.7637	1688.7452	1723.8767	3004.5437	3035.7853	3049.6827	3085.7571	3096.8258	3113.9827	3133.3454	3206.6373	3661.573
CN=C1N=CNC=C1C	C[N]C1=C(CNC=N1)C	
InChI=1S/C6H9N3/c1-5-3-8-4-9-6(5)7-2/h3-4H,1-2H3,(H,7,8,9)	InChI=1S/C6H10N3/c1-5-3-8-4-9-6(5)7-2/h4H,3H2,1-2H3,(H,8,9)
