19
gdb 5804	3.39057	1.32682	1.21805	14.4177	74.01	-0.17	-0.0231	0.1469	1072.7177	0.163277	-402.176006	-402.166633	-402.165689	-402.209717	34.845	
C	-0.101357803	 1.5594129896	 0.0811537761	-0.417878
C	 0.0609055364	 0.0446172852	 0.0466196248	 0.216627
C	 0.670736909	-0.5066196447	 1.3297267058	-0.417879
N	-1.4080778693	-0.5435926631	-0.018337741	-0.429414
H	-1.8642601197	-0.2154637347	-0.8719472148	 0.309642
H	-1.3604448819	-1.5637127523	-0.0571486677	 0.309641
H	-1.9712317232	-0.2650571813	 0.7907746295	 0.300976
C	 0.7622265152	-0.4501096549	-1.2056698511	-0.384871
C	 2.3051984954	 0.039602062	-1.3496074538	 0.374052
O	 2.7208892792	 0.7591649647	-0.4160752135	-0.457818
O	 2.828038098	-0.3850671377	-2.375623361	-0.436453
H	 0.9183220565	 1.9547816526	 0.0773002516	 0.215802
H	-0.6196185779	 1.9313352601	-0.8104153909	 0.109496
H	-0.6324168162	 1.9026330255	 0.9768746545	 0.097764
H	 0.1398351607	-0.1639545805	 2.225749046	 0.097766
H	 0.7010671145	-1.602466007	 1.3251310582	 0.109501
H	 1.6986697481	-0.1333280575	 1.3392304982	 0.215797
H	 0.7791993445	-1.5472152377	-1.2313153542	 0.093625
H	 0.2388248538	-0.1014120384	-2.1051401867	 0.093623
50.9955	144.2598	200.8225	215.8971	276.7762	279.2221	309.3354	324.9267	331.6389	374.9446	404.3304	479.1918	598.1861	610.5557	696.3247	785.5433	809.5847	894.9964	914.2522	917.9942	955.6751	1021.2584	1046.3675	1130.8097	1132.0379	1195.92	1280.6961	1320.3549	1342.9238	1383.9417	1392.2917	1415.1514	1449.9774	1462.1803	1497.1357	1508.3346	1523.9813	1629.3986	1641.4189	1809.3688	3011.8077	3012.0947	3020.2928	3064.285	3085.7203	3089.37	3120.1506	3124.9615	3377.322	3490.7803	3514.7023
CC(C)([NH3+])CC([O-])=O	CC(C)([NH3])CC(=O)[O]	
InChI=1S/C5H11NO2/c1-5(2,6)3-4(7)8/h3,6H2,1-2H3,(H,7,8)	InChI=1S/C5H11NO2/c1-5(2,6)3-4(7)8/h3H2,1-2,6H3
