17
gdb 126447	2.65917	1.50457	0.97222	1.7968	81.1	-0.2203	-0.0401	0.1802	1183.9797	0.137635	-414.178951	-414.170679	-414.169735	-414.212246	30.719	
C	 0.0772695607	 1.5260164532	 0.0191819315	-0.382581
C	-0.052306049	 0.004695392	 0.0091752289	-0.253993
C	-1.4568235801	-0.5223828126	 0.0271128225	 0.330843
N	-2.4501238738	 0.3163746135	 0.0487647939	-0.274911
N	-3.6913256742	-0.1905779662	 0.0642293797	-0.099536
N	-4.0482806855	-1.4712293135	 0.0601060641	-0.18919
C	-3.0793446761	-2.335538328	 0.0386714825	-0.029924
C	-1.6683774577	-1.9788500219	 0.0196336897	 0.188987
N	-0.661304042	-2.7824178114	-0.0017416425	-0.538864
H	 1.1326844632	 1.8120461905	 0.0047561999	 0.110726
H	-0.4112280446	 1.9742651235	-0.8504035851	 0.123621
H	-0.3833441522	 1.9602865389	 0.910805246	 0.123605
H	 0.447893723	-0.4319110208	-0.865303345	 0.134556
H	 0.4750750486	-0.4456501893	 0.860383924	 0.134592
H	-4.4402718359	 0.4809000011	 0.080825144	 0.29118
H	-3.3748734771	-3.3816709598	 0.0353226905	 0.122335
H	-0.9814006571	-3.7540493192	-0.0039773346	 0.208553
62.8385	101.0141	193.2076	211.6002	296.6269	329.4169	383.4164	483.1782	511.3369	522.5328	600.1881	619.1758	745.5071	745.9443	810.7192	858.8946	885.4131	929.5324	999.5339	1042.3308	1100.181	1114.7179	1125.3029	1209.0139	1215.0033	1271.0424	1354.4879	1381.8259	1414.8483	1438.7488	1451.6459	1478.2769	1494.2753	1501.5909	1602.3311	1633.4109	1666.4076	3031.3957	3047.2397	3048.3816	3117.9944	3118.7899	3164.184	3432.5653	3668.6569
CCC1=NNN=CC1=N	CCc1n[nH]ncc1[NH]	
InChI=1S/C5H8N4/c1-2-5-4(6)3-7-9-8-5/h3H,2H2,1H3,(H2,6,9)	InChI=1S/C5H13N4/c1-2-5-4(6)3-7-9-8-5/h4-9H,2-3H2,1H3
