18
gdb 13234	7.55781	0.89958	0.85298	1.2876	75.15	-0.2505	0.0353	0.2858	1351.9333	0.152182	-347.744829	-347.736349	-347.735405	-347.77852	30.755	
C	-0.4535279107	-1.10081415	-0.2586274324	-0.416734
C	-0.2055931584	 0.0522202446	-0.0332430305	 0.280481
C	 0.0645284893	 1.4542104035	 0.257402075	-0.218669
O	 1.3140311914	 1.8312716119	-0.2913833762	-0.253872
C	 1.6220106911	 3.1835317375	-0.0659241733	 0.193458
C	 2.1030404782	 3.631773642	 1.3454830999	-0.248237
C	 3.1806549957	 4.4955926284	 0.632099255	-0.219631
C	 2.9780890761	 3.6293697159	-0.64229662	-0.252419
H	-0.666383033	-2.1209592903	-0.4626870281	 0.1994
H	-0.7426480134	 2.0813041752	-0.1593965016	 0.117298
H	 0.0543627939	 1.6122017069	 1.3484129568	 0.122079
H	 0.7991696766	 3.8256369137	-0.4200781932	 0.063384
H	 1.3926044991	 4.132818753	 2.0070532932	 0.094964
H	 2.5528975816	 2.7843410479	 1.8714577939	 0.111334
H	 2.8450017427	 5.5255550311	 0.4845446813	 0.105266
H	 4.1791085354	 4.5166322064	 1.0721029193	 0.104409
H	 3.6634372558	 2.7777056129	-0.6629617578	 0.117527
H	 2.9841434587	 4.1187269896	-1.6182252713	 0.099962
50.4809	94.9931	106.7905	171.0332	255.0345	333.7951	389.2212	427.7104	525.7027	607.8793	654.4785	673.9592	771.6984	786.194	900.331	924.9938	943.1302	971.3556	977.342	1032.1435	1053.5186	1068.0962	1141.6301	1176.7837	1193.1505	1245.5239	1247.9753	1255.1105	1261.0698	1273.9136	1305.8791	1370.4352	1434.0582	1471.185	1486.7786	1500.7127	1510.6193	2248.3495	2954.3505	2968.9727	2979.4613	3056.365	3065.3401	3069.1401	3108.4474	3118.112	3130.5524	3506.4805
C#CCOC1CCC1	C#CCOC1CCC1	
InChI=1S/C7H10O/c1-2-6-8-7-4-3-5-7/h1,7H,3-6H2	InChI=1S/C7H10O/c1-2-6-8-7-4-3-5-7/h1,7H,3-6H2
