15
gdb 66826	2.82316	2.2535	1.8561	2.9393	68.54	-0.2147	-0.0542	0.1605	784.9116	0.113151	-416.665052	-416.658808	-416.657864	-416.69512	26.546	
O	 0.0776455478	 1.445677451	 0.2781148881	-0.488656
C	-0.0103491295	 0.085184105	 0.0678608427	 0.39875
C	-1.2801132965	-0.7544372716	-0.0358617053	-0.203765
C	-0.7386402701	-1.9022391931	-0.8832487049	-0.014742
N	 0.5394412624	-1.6934247965	-1.483282311	-0.127182
C	 1.0051778126	-0.6640884291	-0.8655727108	-0.027012
N	 1.9878875034	-0.9874948244	 0.1930783137	-0.343462
C	 0.6601062156	-0.918370148	 1.012351576	-0.060578
C	-0.5371526456	-1.883539169	 0.6652632855	-0.096378
H	 0.0574697167	 1.8902865843	-0.5770992187	 0.292526
H	-2.3156522224	-0.4492700865	 0.0087280233	 0.107277
H	-1.4069296193	-2.643280125	-1.3059078019	 0.108408
H	 2.4780239726	-0.1413658866	 0.4982495913	 0.232623
H	 0.7979170818	-0.7040466917	 2.0727273331	 0.114484
H	-0.9163665796	-2.6749668789	 1.2954498689	 0.107708
227.6924	280.624	319.9506	413.2298	526.0151	537.2408	590.9633	684.7014	687.0326	709.5621	732.0363	765.7379	808.6927	824.054	858.5894	894.9637	937.8981	967.6247	992.4212	1005.614	1044.0516	1068.844	1085.0585	1107.0318	1148.3063	1172.7091	1207.7359	1246.0026	1293.6908	1316.567	1325.5284	1386.223	1543.8999	3121.5457	3190.19	3217.9127	3228.8274	3407.0217	3791.7614
OC12C3C4N=C1NC2C34	O[C@@]12[C@H]3[C@H]4[N][C]1N[C@@H]2[C@@H]34	
InChI=1S/C6H6N2O/c9-6-2-1-3(2)7-5(6)8-4(1)6/h1-4,9H,(H,7,8)	InChI=1S/C6H6N2O/c9-6-2-1-3(2)7-5(6)8-4(1)6/h1-4,9H,(H,7,8)/t1-,2+,3-,4+,6+/m0/s1
