18
gdb 22708	2.20211	1.48858	1.06131	1.625	76.47	-0.2426	0.0288	0.2713	1167.2707	0.147171	-438.978593	-438.969982	-438.969038	-439.012046	32.573	
O	-0.0648010253	 1.4110542714	 0.1339377003	-0.419238
C	-0.0430896965	 0.0039201251	-0.0345014422	-0.200688
C	-1.4373214576	-0.5622357501	-0.0470239919	 0.226929
C	-2.6043992543	-0.3196962971	-1.0735963283	-0.256287
C	-3.2546444044	-1.2061326512	 0.0475794938	-0.146769
C	-1.9321655572	-2.0532770105	 0.0034296331	-0.281392
C	-2.4977946524	-0.30773784	 1.0073533567	 0.479711
N	-2.5457290528	 0.3774662021	 2.0638141239	-0.350131
O	-3.8191802645	 0.2970074194	 2.683585197	-0.400869
H	-0.5459015103	 1.5896039997	 0.9516412832	 0.298162
H	 0.4652377545	-0.1894832011	-0.9852157251	 0.112655
H	 0.541313826	-0.4927136523	 0.7572432671	 0.095902
H	-2.9665645864	 0.7037573719	-1.1761263391	 0.119477
H	-2.480780464	-0.8150749452	-2.0407222557	 0.101262
H	-4.2780678889	-1.5646560655	 0.1093589642	 0.101663
H	-1.780443338	-2.6272761365	-0.914780154	 0.103218
H	-1.6804708648	-2.6302950787	 0.8952763207	 0.112293
H	-3.6945005232	 0.8480148087	 3.4635191662	 0.304101
72.2189	130.0391	146.3525	209.2524	276.269	307.6286	371.748	417.7382	442.2816	486.0099	565.4209	693.3654	717.0341	748.0327	795.8624	863.8787	902.3941	945.6024	957.7741	996.6742	1026.7176	1028.8641	1051.6068	1070.2108	1103.1536	1132.1362	1146.4498	1189.916	1200.1244	1225.9835	1259.2125	1340.3296	1385.9352	1412.4817	1438.1631	1491.9578	1499.7218	1530.6609	1824.4397	2973.3994	3056.2589	3059.5538	3069.9135	3132.1388	3142.353	3165.1128	3778.3603	3819.9223
OCC12CC(C1)C2=NO	OC[C@@]12C[C@@H](C1)C2=NO	
InChI=1S/C6H9NO2/c8-3-6-1-4(2-6)5(6)7-9/h4,8-9H,1-3H2	InChI=1S/C6H9NO2/c8-3-6-1-4(2-6)5(6)7-9/h4,8-9H,1-3H2/t4-,6+
