19
gdb 109450	2.32668	1.45766	0.99803	1.7238	78.24	-0.228	0.0218	0.2498	1228.4405	0.159085	-419.175446	-419.166535	-419.165591	-419.20927	33.271	
C	 0.2220838012	 1.4835703001	 0.0740900219	-0.32486
N	-0.2063109745	 0.1410535928	-0.3259288129	-0.290605
C	 0.6456623217	-0.4711522409	-1.3132161508	-0.192372
C	 1.9784806294	-1.1183407743	-0.9156808769	 0.410513
N	 3.0173640725	-0.7334085865	-0.3276282749	-0.551924
O	 1.6275627268	-2.3669376714	-1.4005076682	-0.277143
C	 0.3000811782	-1.8972082194	-1.7433230764	 0.436534
C	-0.9172380388	-2.702908637	-1.4591563207	-0.334148
C	-0.4624803161	-2.442544948	-2.8929884198	-0.340019
H	 1.2471395734	 1.5251339731	 0.4686714467	 0.13748
H	 0.1637673654	 2.1510194695	-0.7929881439	 0.123103
H	-0.4653740715	 1.8641413807	 0.8346540429	 0.119149
H	-0.2588183871	-0.4581484245	 0.4919254721	 0.22489
H	 0.7660520286	 0.2187364064	-2.1554200839	 0.111347
H	 3.6859947488	-1.4970490276	-0.2074652378	 0.227253
H	-0.7767128301	-3.7042436471	-1.0673068151	 0.129697
H	-1.789274977	-2.1744938373	-1.088430493	 0.133076
H	-1.0343600411	-1.7530167074	-3.5052307648	 0.126495
H	-0.0216843196	-3.2743840613	-3.4314367344	 0.131535
79.9465	108.0622	143.7707	187.532	230.158	255.7361	321.9782	383.2332	445.3061	517.7795	541.7695	672.7873	764.5854	773.7073	811.9245	864.7622	875.8025	900.1903	935.0491	971.5658	1004.492	1021.9648	1037.0629	1050.9304	1076.9123	1150.5403	1161.6794	1181.2377	1188.0142	1218.218	1233.9965	1305.7093	1346.2195	1393.2567	1447.8289	1457.572	1486.9094	1499.7929	1502.6203	1524.0281	1819.5461	3003.347	3058.2238	3070.6381	3108.1905	3132.5613	3134.3082	3217.0592	3230.5762	3464.3368	3516.8243
CNC1C(=N)OC11CC1	CN[C@H]1[C]([NH])OC21CC2	
InChI=1S/C6H10N2O/c1-8-4-5(7)9-6(4)2-3-6/h4,7-8H,2-3H2,1H3	InChI=1S/C6H10N2O/c1-8-4-5(7)9-6(4)2-3-6/h4,7-8H,2-3H2,1H3/t4-/m0/s1
