17
gdb 90749	2.97839	1.49245	1.253	2.6657	67.96	-0.2407	-0.0428	0.1979	1032.8412	0.135419	-458.958294	-458.950307	-458.949362	-458.99132	29.488	
C	 0.3959082834	 1.5162388593	-0.0629689995	-0.406213
C	 0.1100075893	 0.0416254176	 0.0934778339	 0.129184
O	 0.8988728792	-0.8067212888	-0.7977532667	-0.317546
C	 1.2563754257	-1.6907144336	 0.2924437654	-0.019194
C	 0.6545193281	-0.7265836152	 1.3226613061	 0.042402
O	 1.7228434073	-0.0966558296	 2.0246539067	-0.268602
C	 2.9840918887	-0.4257915744	 1.4601646247	-0.193813
C	 2.7653670233	-1.6196705572	 0.5295215902	 0.379836
O	 3.6111821398	-2.3407291586	 0.0762055745	-0.290918
H	 1.4334121588	 1.7514593	 0.1827833284	 0.130156
H	 0.1997252346	 1.8246170629	-1.0943184937	 0.13335
H	-0.2546086097	 2.0980215808	 0.598123833	 0.126932
H	-0.9575240819	-0.1666280752	-0.0651158272	 0.081866
H	 0.8700486924	-2.7060962108	 0.1768693646	 0.099027
H	-0.073976124	-1.079057674	 2.0540851441	 0.097646
H	 3.4048943061	 0.4133668238	 0.8868938151	 0.134294
H	 3.6889264891	-0.681192047	 2.2578638705	 0.141592
66.9704	113.2002	163.7052	216.6715	235.1008	371.3042	411.041	541.4957	561.9994	611.3149	646.8312	783.3606	818.4211	852.3572	891.0895	903.8201	961.9947	996.4407	1024.2677	1050.8654	1093.2643	1114.1641	1153.4958	1193.4744	1207.1345	1230.0911	1257.9035	1276.3305	1316.0588	1327.1906	1367.6305	1384.2788	1409.412	1480.3833	1483.8219	1487.5054	1864.4763	3002.9186	3005.4785	3045.5502	3078.2896	3087.2713	3105.3596	3113.4957	3134.7294
CC1OC2C1OCC2=O	C[C@H]1O[C@@H]2[C@H]1OCC2=O	
InChI=1S/C6H8O3/c1-3-5-6(9-3)4(7)2-8-5/h3,5-6H,2H2,1H3	InChI=1S/C6H8O3/c1-3-5-6(9-3)4(7)2-8-5/h3,5-6H,2H2,1H3/t3-,5+,6+/m1/s1
