25
gdb 58421	1.87657	1.30117	1.19367	1.3884	88.81	-0.2504	0.0709	0.3214	1307.4586	0.225963	-389.487054	-389.475521	-389.474576	-389.523022	42.781	
C	-0.5162644302	 0.5796000343	-2.7068391873	-0.415336
C	-0.2853556155	-0.4034021237	-1.554804881	 0.075293
O	 0.6995644754	 0.0976004956	-0.6465678822	-0.443419
C	-1.5652766976	-0.802985798	-0.8218429468	 0.335323
C	-2.3030746836	 0.3492122778	-0.1572078833	-0.48514
C	-2.4220008393	-1.944081861	-1.351141825	-0.063626
C	-2.1535075342	-2.6967388161	-2.6391332157	-0.416966
C	-1.6011532242	-2.1322143922	-0.0879245229	-0.065918
C	-0.4185562202	-3.0745687671	 0.0113914732	-0.412727
H	 0.4317041761	 0.7919417154	-3.2088530571	 0.120603
H	-1.2173017891	 0.1707725036	-3.4412280344	 0.119782
H	-0.9263353511	 1.5306853481	-2.3486977482	 0.108933
H	 0.1823733427	-1.299121564	-1.9695015613	 0.07822
H	 0.3940757169	 0.9517684687	-0.3240149963	 0.276088
H	-2.6569131756	 1.091309833	-0.8816427083	 0.115035
H	-3.1789290148	-0.0166525674	 0.3866999534	 0.116843
H	-1.6685935304	 0.8650492132	 0.5743767963	 0.105555
H	-3.4875188222	-1.8038961647	-1.1774098835	 0.073655
H	-1.0916931846	-2.8728875844	-2.8240534231	 0.118719
H	-2.6440794752	-3.6765193979	-2.6178133113	 0.116101
H	-2.5502647665	-2.1522233317	-3.5035952029	 0.115999
H	-2.1820300019	-2.1065699074	 0.8321766788	 0.073762
H	 0.1083295054	-3.2072440263	-0.9361553403	 0.114387
H	 0.3114738579	-2.7047590297	 0.7385269642	 0.129431
H	-0.747932608	-4.067283438	 0.3378678352	 0.109405
59.8543	113.3676	154.6577	174.9639	193.7981	197.1252	227.7227	247.3464	258.3556	288.2967	292.3988	302.0625	392.38	444.5368	511.9579	519.9817	578.8775	693.6369	777.0772	782.1496	882.1741	923.99	960.9458	1002.2459	1014.4729	1037.2363	1039.4545	1089.7763	1096.2645	1112.746	1134.7453	1138.9279	1159.5808	1185.2615	1251.1438	1296.202	1319.1744	1370.9982	1377.1603	1402.7708	1412.9193	1414.728	1420.7232	1432.8885	1455.5379	1488.6127	1489.4484	1491.045	1494.1218	1501.5449	1503.1536	1505.1928	1516.3198	3018.7246	3030.4345	3033.7579	3036.4523	3076.7014	3080.2843	3082.1922	3093.7046	3098.2884	3102.0651	3104.6951	3114.2207	3117.4122	3120.9219	3132.094	3812.1382
CC(O)C1(C)C(C)C1C	C[C@@H](O)[C@@]1(C)[C@@H](C)[C@H]1C	
InChI=1S/C8H16O/c1-5-6(2)8(5,4)7(3)9/h5-7,9H,1-4H3	InChI=1S/C8H16O/c1-5-6(2)8(5,4)7(3)9/h5-7,9H,1-4H3/t5-,6+,7-,8-/m1/s1
