20
gdb 100813	3.88086	0.76754	0.67449	4.5136	76.44	-0.2713	0.0313	0.3026	1659.3297	0.168206	-440.300405	-440.289643	-440.288699	-440.336703	38.242	
C	-0.0624052233	 1.5804197238	-0.006192683	-0.38611
C	-0.0031362346	 0.051215628	 0.0036578764	-0.199078
C	 0.7235522366	-0.5135592599	 1.2261120647	 0.103614
O	 0.0844485098	-0.1514288385	 2.4478172852	-0.427093
C	 0.9019775628	-2.045367486	 1.139020167	 0.100821
O	 1.586517422	-2.4303320803	-0.0379627161	-0.415242
C	 1.5908295721	-2.5843370211	 2.4111144461	-0.370707
C	 1.6718486576	-4.0410180808	 2.4372955878	 0.268564
N	 1.7280029909	-5.194724046	 2.4633171236	-0.305855
H	 0.9421011147	 2.0124559346	-0.0731664035	 0.117226
H	-0.6398301416	 1.945718	-0.8601513499	 0.117335
H	-0.5244262038	 1.961225455	 0.9088888474	 0.125156
H	-1.0214846939	-0.366649407	-0.0136464536	 0.089227
H	 0.4912947565	-0.3265919086	-0.8960912016	 0.121644
H	 1.7248168485	-0.0605531891	 1.2924070302	 0.078708
H	-0.8567085536	-0.3399211273	 2.3551453468	 0.285468
H	-0.0886267297	-2.5099266955	 1.0547046412	 0.103951
H	 2.4914096651	-2.100666172	 0.0121872212	 0.285863
H	 2.6056631579	-2.1700768592	 2.4810640882	 0.137606
H	 1.046941836	-2.2269492099	 3.2898917419	 0.168901
54.4433	70.9097	108.7034	122.5549	196.6905	226.406	259.5761	293.5181	308.6642	322.1036	393.5409	404.1226	412.6777	460.0277	531.8273	614.8852	782.8492	866.6533	876.8087	958.3137	987.7041	992.7294	1059.1989	1072.208	1099.7802	1117.0097	1149.937	1187.6759	1222.0903	1259.9818	1298.1108	1327.0947	1351.0173	1376.1385	1393.508	1406.334	1414.3645	1418.4131	1464.564	1487.9125	1498.0471	1509.2682	2365.1392	2990.805	3004.405	3027.0304	3039.3494	3045.8793	3087.1174	3103.4151	3106.1753	3120.7684	3791.9028	3793.7152
CCC(O)C(O)CC#N	CC[C@@H](O)[C@@H](O)CC#N	
InChI=1S/C6H11NO2/c1-2-5(8)6(9)3-4-7/h5-6,8-9H,2-3H2,1H3	InChI=1S/C6H11NO2/c1-2-5(8)6(9)3-4-7/h5-6,8-9H,2-3H2,1H3/t5-,6+/m1/s1
