23
gdb 93663	2.10969	1.56407	1.24107	2.3147	80.04	-0.2478	0.0477	0.2955	1157.5197	0.205438	-425.443722	-425.434042	-425.433098	-425.477812	38.206	
C	 0.1046497194	 1.566150304	 0.303940661	-0.422263
C	 0.1126054723	 0.0505228867	 0.0651429128	 0.29395
C	-1.329421868	-0.4403424315	-0.1403625582	-0.436585
C	 1.0047031299	-0.3231269845	-1.1621014953	-0.266029
C	 1.8735273947	-1.5166303638	-0.7152546108	-0.250211
C	 2.1324401215	-1.2410999845	 0.7634011462	 0.090763
O	 3.1416208934	-0.2458530105	 0.9859513199	-0.452425
C	 0.7700329183	-0.7254934518	 1.2788837938	 0.089059
O	 0.9026288914	 0.0123476061	 2.4707326225	-0.436225
H	 1.1152401618	 1.9578981403	 0.4637989474	 0.088759
H	-0.3192932145	 2.0858831254	-0.5625312824	 0.10477
H	-0.4846882865	 1.8228695476	 1.1873667844	 0.129746
H	-1.8128987338	 0.0849578564	-0.9716829244	 0.108205
H	-1.3584709077	-1.5134124994	-0.3626012293	 0.106576
H	-1.9312801868	-0.2719529348	 0.759405645	 0.121566
H	 0.412228651	-0.551945988	-2.0525850591	 0.09939
H	 1.6426266006	 0.5271425136	-1.4375473197	 0.084684
H	 1.3133590792	-2.4544585536	-0.8070161023	 0.108879
H	 2.7979678661	-1.6314856982	-1.2885988444	 0.10422
H	 2.4753227776	-2.1171215266	 1.3200455435	 0.085886
H	 3.082190444	 0.410792973	 0.2836848167	 0.288749
H	 0.1377634884	-1.5908148756	 1.5140070565	 0.074817
H	 1.7934594778	 0.3900972899	 2.4369688261	 0.283719
39.0341	167.3958	236.6683	256.2385	272.3364	288.6362	298.7158	314.5808	343.5202	387.671	391.9289	481.5593	536.6369	546.0399	618.6189	687.4178	781.8601	804.8247	861.1289	876.8511	938.2606	951.4458	981.0287	988.8439	1020.1039	1031.3578	1068.8615	1108.5599	1149.6277	1188.9636	1204.168	1227.2872	1234.0034	1268.4049	1287.9305	1322.3437	1333.4057	1342.8659	1368.6942	1397.9068	1422.7643	1424.2912	1445.4624	1482.1232	1484.0906	1488.4162	1501.9757	1503.5743	1509.0585	3013.6752	3018.4703	3023.8813	3028.9	3041.6882	3079.3968	3083.4276	3085.4608	3087.7874	3093.7646	3095.341	3121.8937	3725.5275	3810.1637
CC1(C)CCC(O)C1O	CC1(C)CC[C@@H](O)[C@H]1O	
InChI=1S/C7H14O2/c1-7(2)4-3-5(8)6(7)9/h5-6,8-9H,3-4H2,1-2H3	InChI=1S/C7H14O2/c1-7(2)4-3-5(8)6(7)9/h5-6,8-9H,3-4H2,1-2H3/t5-,6-/m1/s1
