16
gdb 13494	3.35835	1.59795	1.37094	1.5308	61.01	-0.2577	-0.0391	0.2186	937.6239	0.128295	-420.868197	-420.859976	-420.859032	-420.901221	29.599	
C	 0.3330484108	 0.4675913381	-0.8442866595	-0.428228
C	 0.0917623825	-0.1341354021	 0.5403616855	 0.130056
O	-0.0407592287	 0.8723651111	 1.532890745	-0.43009
C	-1.1428033918	-1.0404818025	 0.6074420884	-0.015176
O	-2.3641249535	-0.3117090978	 0.2981227758	-0.304682
C	-2.7268561981	-1.1799698858	-0.7977822147	-0.187047
C	-1.4538420283	-1.9996141688	-0.5508583242	 0.335348
O	-0.9331435357	-2.953548561	-1.04088119	-0.273582
H	 1.182650354	 1.1528395055	-0.8006868677	 0.13202
H	 0.5507395337	-0.3093517141	-1.5844802086	 0.130167
H	-0.545625126	 1.0304152047	-1.1765974197	 0.12272
H	 0.9588211464	-0.7346577861	 0.8387397814	 0.104769
H	-0.8662328831	 1.3365598691	 1.3453439416	 0.291649
H	-1.2007489002	-1.5047537466	 1.6005103365	 0.116669
H	-3.6683399634	-1.7155521602	-0.6237799353	 0.138309
H	-2.7738214187	-0.6586339435	-1.7617139943	 0.137097
61.479	111.1033	140.0846	248.0929	264.7293	308.7153	385.7138	418.7289	457.1595	561.8218	606.5683	721.2776	768.745	869.8435	907.9069	979.64	989.7875	1007.1363	1067.1508	1082.9478	1119.129	1134.5976	1147.1106	1238.9111	1288.7069	1293.3529	1312.036	1368.189	1401.7812	1420.821	1478.0219	1491.6192	1502.0697	1921.8115	3021.0822	3032.1856	3037.6366	3054.7316	3072.286	3108.9187	3128.0495	3783.3176
CC(O)C1OCC1=O	C[C@@H](O)[C@H]1OCC1=O	
InChI=1S/C5H8O3/c1-3(6)5-4(7)2-8-5/h3,5-6H,2H2,1H3	InChI=1S/C5H8O3/c1-3(6)5-4(7)2-8-5/h3,5-6H,2H2,1H3/t3-,5-/m1/s1
