22
gdb 105030	2.03972	1.30454	1.11038	3.84	82.93	-0.2372	0.0293	0.2665	1268.4888	0.192782	-404.365128	-404.354893	-404.353948	-404.400456	37.377	
C	 0.4276952596	-0.069627296	 1.6040117707	-0.388344
C	-0.000950343	-0.132557523	 0.1349495028	-0.229052
C	-1.402258844	-0.69774176	-0.0783055392	 0.321648
C	-1.6945172691	-1.3884340338	-1.3908025562	-0.306591
C	-1.5697426011	-2.1990131788	-0.1252344714	-0.302959
N	-2.4781373419	 0.0750079016	 0.4952213166	-0.084772
C	-2.889673095	 1.3002126375	-0.1746001441	-0.354051
C	-3.0044527512	-0.2215570381	 1.7225351348	 0.143436
O	-3.8503539318	 0.4284250603	 2.302204778	-0.34875
H	 1.4420832566	 0.3299921117	 1.6950734208	 0.116731
H	-0.2356477685	 0.5762210393	 2.1872792051	 0.133341
H	 0.416036816	-1.0634868175	 2.0637990817	 0.11817
H	 0.0534591445	 0.8694651503	-0.3094274321	 0.102521
H	 0.7057855357	-0.7506748261	-0.4306217421	 0.098422
H	-2.688450959	-1.2745825119	-1.8082416318	 0.12247
H	-0.8979851953	-1.4381744333	-2.1247166644	 0.117011
H	-0.6819921803	-2.8050186894	 0.0200071176	 0.120247
H	-2.4765379451	-2.6311194714	 0.2797765702	 0.126818
H	-3.1703735511	 1.0931007066	-1.2119707014	 0.123366
H	-3.7446923289	 1.7029947739	 0.3679260686	 0.1666
H	-2.087674037	 2.0482493762	-0.1767682104	 0.124915
H	-2.5733121002	-1.1501369081	 2.1374355359	 0.078822
70.6878	80.5151	106.9141	160.9496	204.7083	227.8354	244.3769	309.5069	339.0337	355.0109	374.8585	450.0572	529.6831	574.5739	763.8604	779.7447	804.6927	872.3053	922.8057	935.9563	955.6913	1014.56	1037.0503	1052.0608	1061.3718	1085.1954	1092.3629	1119.2341	1158.3223	1189.8015	1195.9854	1274.556	1293.7696	1361.1181	1375.8994	1381.7396	1410.7848	1437.9026	1438.8457	1463.7735	1481.1191	1496.4598	1498.223	1502.6632	1508.5811	1515.446	1787.7915	2972.4204	3023.8251	3029.4715	3038.0711	3062.0297	3083.5041	3106.6418	3112.2083	3137.9771	3143.1631	3158.9698	3220.5779	3234.2695
CCC1(CC1)N(C)C=O	CCC1(CC1)N(C)C=O	
InChI=1S/C7H13NO/c1-3-7(4-5-7)8(2)6-9/h6H,3-5H2,1-2H3	InChI=1S/C7H13NO/c1-3-7(4-5-7)8(2)6-9/h6H,3-5H2,1-2H3
