17
gdb 45120	2.53483	1.68746	1.18899	4.7332	71.75	-0.239	-0.0836	0.1554	1040.7595	0.136379	-421.851033	-421.843318	-421.842374	-421.88391	29.498	
O	-0.1893381593	 0.0785608817	-0.4911396048	-0.270417
C	-0.097238017	 1.2056637045	-0.0797347894	 0.297508
C	-1.2663932102	 2.178307057	-0.0473497632	-0.335145
C	-1.2318263986	 3.1599749829	 1.1091962305	-0.030044
C	-0.7211198642	 2.7351601062	 2.4660737744	-0.304601
C	 0.1041662935	 3.6589321846	 1.601294136	-0.030096
C	 1.3669517598	 3.1613512448	 0.9227444931	-0.335114
C	 1.2904002497	 1.7236452235	 0.4317145847	 0.297478
O	 2.2404030179	 0.9854710965	 0.4045507952	-0.27044
H	-1.2337804611	 2.7328532567	-0.9984495174	 0.132963
H	-2.1889928848	 1.5897936706	-0.0647331885	 0.136814
H	-2.0492100188	 3.8743782781	 1.1049552216	 0.09604
H	-1.199587556	 3.1468658632	 3.347277337	 0.121665
H	-0.3850616006	 1.7092811398	 2.5943428662	 0.127584
H	 0.1530790786	 4.696810146	 1.9158073462	 0.096035
H	 1.5733449971	 3.7806347585	 0.0355789086	 0.132958
H	 2.2460659339	 3.2454327153	 1.5692063199	 0.136811
40.9729	109.6737	282.4824	286.8911	362.947	386.0862	408.4942	531.7543	542.6563	547.1149	634.0572	755.5193	784.9457	816.2189	823.0874	895.7078	964.439	997.7056	1031.1557	1059.6507	1068.7588	1097.2417	1125.205	1135.3792	1169.4366	1219.2578	1223.7565	1248.2817	1322.088	1334.2386	1376.1988	1423.2407	1452.7573	1458.6521	1503.7487	1811.0887	1833.7321	2996.0568	2998.8281	3081.1252	3082.7859	3122.3858	3148.6729	3157.577	3211.2165
O=C1CC2CC2CC1=O	O=C1C[C@H]2C[C@H]2CC1=O	
InChI=1S/C7H8O2/c8-6-2-4-1-5(4)3-7(6)9/h4-5H,1-3H2	InChI=1S/C7H8O2/c8-6-2-4-1-5(4)3-7(6)9/h4-5H,1-3H2/t4-,5+
