18
gdb 88744	3.77702	0.89762	0.78218	2.6413	75.49	-0.2416	-0.0438	0.1978	1448.9185	0.145009	-439.028431	-439.019304	-439.018359	-439.063437	32.598	
C	 0.4790733089	 1.5359698218	-0.6881499655	-0.317839
N	 0.2311922174	 0.1589105958	-0.2819019715	-0.080259
C	 1.3352408742	-0.6068619029	 0.2677130599	-0.255144
C	 0.1867135965	-0.20361454	 1.1365516559	-0.02513
C	 0.4061932152	 0.799281767	 2.2199034616	 0.061169
O	-0.7410938661	 1.3140649398	 2.8877386621	-0.246361
C	 0.1664602545	 0.5250081887	 3.6629077774	-0.066778
C	-0.3492022462	-0.7928095382	 4.1443318027	 0.142703
O	 0.1276361637	-1.3805102142	 5.0812722215	-0.244799
H	 1.2959187033	 2.0382082349	-0.1471925351	 0.102142
H	 0.737247968	 1.5372289658	-1.7514151095	 0.13137
H	-0.4352076127	 2.1223671248	-0.5571844736	 0.137538
H	 1.4341354941	-1.6353630117	-0.068671994	 0.125736
H	 2.2818410994	-0.0908020842	 0.4337194794	 0.110257
H	-0.5807481881	-0.9403760258	 1.3596100809	 0.101571
H	 1.1711727415	 1.5494578815	 2.0205476546	 0.108739
H	 0.7689534228	 1.0645422507	 4.3930381727	 0.118773
H	-1.2225271362	-1.1818345838	 3.5786752706	 0.096312
34.7704	80.4401	132.9582	194.0544	230.6776	241.099	308.1215	376.1439	411.0505	443.5073	490.5338	576.7493	746.6791	829.048	862.9139	881.0635	930.2487	995.9314	1031.9705	1035.6881	1077.7685	1102.1123	1118.7593	1127.3627	1158.0792	1164.1754	1197.3231	1205.8506	1266.8525	1318.2762	1340.3776	1346.4639	1418.3262	1452.0304	1478.0634	1489.5583	1504.4062	1514.5367	1823.6489	2908.9172	2980.5748	3073.4739	3081.1919	3111.9951	3112.9883	3128.8687	3140.7532	3175.0941
CN1CC1C1OC1C=O	CN1C[C@H]1[C@H]1O[C@H]1C=O	
InChI=1S/C6H9NO2/c1-7-2-4(7)6-5(3-8)9-6/h3-6H,2H2,1H3	InChI=1S/C6H9NO2/c1-7-2-4(7)6-5(3-8)9-6/h3-6H,2H2,1H3/t4-,5-,6+,7?/m0/s1
