18
gdb 29906	5.68309	0.94962	0.86868	4.9541	81.09	-0.2071	0.0255	0.2326	1353.5356	0.150241	-398.141312	-398.133027	-398.132083	-398.1749	30.205	
C	 0.0942932449	 1.4530921009	-0.027639693	-0.337703
N	-0.0113742501	 0.0097628173	 0.0297601291	 0.016732
C	-0.2084614572	-0.8372045857	-1.0175847299	 0.00368
N	-0.249219262	-2.0943329952	-0.6409252123	-0.34886
C	-0.0700940792	-2.0747259781	 0.7267083315	 0.312878
C	 0.083493203	-0.7806246153	 1.1579587268	-0.233504
C	-0.0451378317	-3.3258752366	 1.5073253073	-0.103652
C	-0.9412509426	-4.4521339115	 1.1225332191	-0.236283
N	 0.503789271	-4.545722546	 0.8805325892	-0.325854
H	 1.0757221896	 1.7883120252	 0.3220487752	 0.14693
H	-0.0359578203	 1.7770724748	-1.0618777457	 0.146836
H	-0.6788530273	 1.92578086	 0.5857942687	 0.146407
H	-0.312447918	-0.473279455	-2.0297697832	 0.127837
H	 0.2471456508	-0.3556002703	 2.1346355372	 0.127572
H	 0.2202188357	-3.2078355989	 2.5548752552	 0.080134
H	-1.3259409105	-5.1209376525	 1.8881085038	 0.110035
H	-1.5961695745	-4.284798377	 0.2724732871	 0.124009
H	 0.6776878584	-4.3257566658	-0.0996406461	 0.242806
63.2968	90.6899	142.3214	168.5172	230.3938	312.6032	434.2114	441.0985	633.7968	646.0255	706.3193	724.8899	751.6517	819.8052	829.3349	880.2136	974.2104	991.974	1012.4348	1058.6402	1081.4798	1104.646	1138.9498	1151.7197	1170.9335	1183.7855	1257.406	1276.599	1312.9524	1333.8173	1366.1681	1397.6723	1438.9638	1457.794	1482.0405	1495.6871	1519.3254	1547.095	1606.1805	3039.8691	3100.8303	3107.3947	3137.5898	3138.1969	3200.9134	3240.8295	3267.9436	3479.0642
CN1C=NC(=C1)C1CN1	Cn1cnc(c1)[C@H]1CN1	
InChI=1S/C6H9N3/c1-9-3-6(8-4-9)5-2-7-5/h3-5,7H,2H2,1H3	InChI=1S/C6H9N3/c1-9-3-6(8-4-9)5-2-7-5/h3-5,7H,2H2,1H3/t5-/m1/s1
