21
gdb 93502	2.74661	1.30887	1.02071	4.562	78.6	-0.2539	0.0184	0.2723	1233.4074	0.182911	-424.284729	-424.27567	-424.274726	-424.318517	34.479	
C	-0.1597562866	 1.5224220485	-0.0035326328	-0.416609
C	 0.0746600962	 0.0088219471	-0.0249413453	 0.010345
C	 0.7344825929	-0.4749308787	-1.3188278075	-0.223859
C	 0.8306599141	-2.0014052442	-1.3033417933	-0.33984
C	 1.2954545401	-2.6155902739	 0.0102103617	 0.399428
O	 1.7280859035	-3.7342987755	 0.0817964704	-0.326344
O	 1.1308436017	-1.9024775647	 1.1509562089	-0.243752
C	 0.8927654938	-0.4730619262	 1.1843890749	 0.131625
C	 2.2371457675	 0.2216532557	 1.4009104925	-0.40221
H	 0.7686996248	 2.0778911439	-0.1685105757	 0.12398
H	-0.8601804085	 1.8085036859	-0.7941950251	 0.120586
H	-0.5837984728	 1.850969702	 0.9514270905	 0.118206
H	-0.9041109892	-0.4858144738	 0.0513694418	 0.08265
H	 0.1589839205	-0.1434299587	-2.1897386927	 0.102733
H	 1.7311245925	-0.0292253751	-1.4222219767	 0.108315
H	-0.1618604224	-2.4345530607	-1.4862808075	 0.138447
H	 1.482186671	-2.3936779532	-2.0873471206	 0.134571
H	 0.2878508546	-0.3377384229	 2.0877768041	 0.095436
H	 2.8798937844	 0.1540396026	 0.5179592952	 0.12382
H	 2.0971687088	 1.2779093676	 1.6460257065	 0.123189
H	 2.758304203	-0.2575096158	 2.2330989908	 0.139284
74.0218	86.5019	198.7746	228.0451	259.8441	290.4931	305.9613	391.5661	407.9319	429.9492	516.0693	554.4792	589.9678	699.8565	724.5492	803.8832	861.6834	913.2473	962.4156	968.0335	1023.9525	1041.4568	1045.3236	1087.0977	1126.9413	1140.6772	1176.3425	1200.9794	1227.2944	1268.9734	1331.1604	1347.0168	1363.4224	1369.7707	1396.3364	1406.5687	1413.3346	1416.5258	1461.8858	1487.3108	1492.737	1498.8189	1509.2642	1510.1206	1837.031	3001.9714	3030.9308	3033.3813	3036.3639	3045.5457	3049.4115	3072.9953	3101.517	3107.9413	3109.5109	3121.22	3130.4584
CC1CCC(=O)OC1C	C[C@H]1CCC(=O)O[C@H]1C	
InChI=1S/C7H12O2/c1-5-3-4-7(8)9-6(5)2/h5-6H,3-4H2,1-2H3	InChI=1S/C7H12O2/c1-5-3-4-7(8)9-6(5)2/h5-6H,3-4H2,1-2H3/t5-,6-/m0/s1
