15
gdb 29500	3.27943	1.67378	1.11676	1.9669	74.49	-0.2103	-0.0137	0.1966	1017.4629	0.11602	-416.842809	-416.835975	-416.835031	-416.873798	27.235	
N	 0.0415226706	 1.3527646373	 0.129526602	-0.581746
C	 0.019832682	-0.0165282057	 0.035931357	 0.274601
N	-1.0599333547	-0.733075355	 0.0174606429	-0.328736
C	-0.6724957017	-2.1583839959	-0.0057929102	-0.286576
C	 0.831240259	-2.1673442471	-0.0166861378	 0.21814
C	 1.203426617	-0.8626562204	 0.0125998694	 0.263917
O	 2.5464669978	-0.7012584725	 0.0108814395	-0.210761
C	 3.0456265455	-1.9790135135	-0.0198040465	-0.012758
C	 2.0479498145	-2.9145672247	-0.0370570725	-0.367261
H	 0.8462987486	 1.8166614688	-0.262034663	 0.258114
H	-0.8398708586	 1.7970861273	-0.0824482934	 0.259352
H	-1.0952066721	-2.6681323379	 0.8693101878	 0.128594
H	-1.1116024913	-2.6394792257	-0.8887337019	 0.126994
H	 4.1211002277	-2.0516959266	-0.0265398893	 0.138583
H	 2.1928370256	-3.9835672584	-0.0609192841	 0.119542
177.7186	224.4436	256.7812	301.8008	392.0981	509.1984	533.3869	601.9459	621.5143	634.2913	644.2935	726.4201	760.5997	796.9672	830.9617	918.6425	958.8795	962.8076	1045.2145	1079.1415	1148.0639	1155.5336	1171.2095	1228.4391	1282.0403	1295.3691	1437.5424	1451.4183	1496.6182	1509.8082	1585.4304	1622.3923	1683.5109	3030.4218	3056.2373	3251.6207	3279.7024	3575.6722	3688.5551
NC1=NCC2=C1OC=C2	NC1=NCc2c1occ2	
InChI=1S/C6H6N2O/c7-6-5-4(3-8-6)1-2-9-5/h1-2H,3H2,(H2,7,8)	InChI=1S/C6H6N2O/c7-6-5-4(3-8-6)1-2-9-5/h1-2H,3H2,(H2,7,8)
