14
gdb 129441	2.85155	1.5093	0.99335	3.3777	65.6	-0.2309	-0.0349	0.1959	1093.8563	0.102306	-470.037923	-470.030002	-470.029058	-470.070454	29.934	
N	 0.0036320542	 1.3167364676	-0.0062126981	-0.541428
C	 0.0229936095	-0.0504149245	 0.0763032147	 0.329761
O	 1.0680251152	-0.672361568	 0.2238210041	-0.382148
C	-1.2764591815	-0.7364335303	 0.0228537153	 0.005519
C	-2.5588329261	-0.2843387102	 0.1086763433	-0.008673
O	-3.4257904709	-1.2864287624	 0.0688650567	-0.170962
N	-2.7206898719	-2.5077460768	-0.0445142979	-0.243214
C	-1.4483225078	-2.1656649011	-0.0702275896	 0.381402
N	-0.4358117422	-3.064836013	-0.2212797573	-0.589947
H	 0.9036420265	 1.7636942997	-0.0898839908	 0.265533
H	-0.7802117857	 1.7914873544	-0.4214546358	 0.259274
H	-2.98535498	 0.7019087422	 0.2225303966	 0.152045
H	-0.6519279945	-4.0248607369	-0.0051481972	 0.261634
H	 0.467851675	-2.7133580206	 0.0663269161	 0.281204
72.4121	181.3859	195.9559	306.9719	335.48	354.3282	427.3795	457.9985	512.2721	529.4593	568.4663	589.7552	672.5861	718.475	745.3395	797.4912	860.487	897.5536	919.1006	1089.0195	1142.6433	1162.4793	1196.7827	1314.5812	1404.9569	1463.8852	1538.8311	1614.5401	1626.642	1658.8826	1757.4787	3245.5495	3551.2408	3590.7006	3687.5373	3718.3393
NC(=O)C1=CON=C1N	NC(=O)c1conc1N	
InChI=1S/C4H5N3O2/c5-3-2(4(6)8)1-9-7-3/h1H,(H2,5,7)(H2,6,8)	InChI=1S/C4H5N3O2/c5-3-2(4(6)8)1-9-7-3/h1H,(H2,5,7)(H2,6,8)
