19
gdb 128088	3.91413	1.01244	0.89376	2.5375	77.28	-0.2082	0.0108	0.219	1348.9276	0.161038	-415.403425	-415.394375	-415.393431	-415.438153	32.731	
C	 0.0917213552	 1.4109252713	-0.2706608191	-0.31312
N	-0.0289866391	 0.0439838767	 0.2070598938	-0.282132
C	-1.3669801584	-0.5333023612	 0.1436007489	-0.059021
C	-2.0369151871	-0.5424353463	-1.2512997978	-0.401384
C	-1.331060999	-1.9363181509	 0.6831151951	 0.371488
N	-0.2483770743	-2.6979006525	 0.6386242909	-0.28295
N	-0.6918612516	-3.8622147854	 1.1726818012	-0.177075
C	-1.9916692214	-3.7548128791	 1.5077555818	 0.010691
N	-2.4347374951	-2.5505330476	 1.2091966708	-0.307229
H	 1.1175912444	 1.7561376027	-0.1087138386	 0.116835
H	-0.1507264843	 1.5683169298	-1.3355784547	 0.094951
H	-0.5696238192	 2.0604579427	 0.3155874331	 0.117204
H	 0.6309578868	-0.5685236917	-0.2589643452	 0.227533
H	-2.0102051936	 0.0484308415	 0.8171089958	 0.099255
H	-2.1647588438	 0.4738604696	-1.6338895807	 0.114514
H	-1.4270024823	-1.1081272812	-1.9643216049	 0.112586
H	-3.0236627647	-1.0109080604	-1.1945315604	 0.131024
H	-0.0597171757	-4.6374724898	 1.284075574	 0.28115
H	-2.5564993269	-4.5574199984	 1.9578804458	 0.14568
32.9021	90.0408	141.7799	185.3912	222.6428	275.8407	307.4817	361.5726	418.4113	497.2656	531.0338	678.2923	687.1074	755.6571	789.6722	854.2871	878.8739	984.3487	999.881	1021.0375	1066.1712	1075.7837	1105.4461	1143.319	1162.484	1179.3091	1216.183	1269.2761	1313.4275	1350.2371	1379.3618	1391.2222	1456.4673	1471.0485	1476.2602	1482.797	1488.9167	1502.4802	1517.9689	1525.0497	1556.5828	2954.576	3022.091	3034.8148	3046.5501	3093.9879	3109.2962	3118.0172	3257.2275	3540.1752	3667.4499
CNC(C)C1=NNC=N1	CN[C@@H](C)c1n[nH]cn1	
InChI=1S/C5H10N4/c1-4(6-2)5-7-3-8-9-5/h3-4,6H,1-2H3,(H,7,8,9)	InChI=1S/C5H10N4/c1-4(6-2)5-7-3-8-9-5/h3-4,6H,1-2H3,(H,7,8,9)/t4-/m0/s1
