18
gdb 51190	4.24261	1.09213	1.0291	2.4737	75.37	-0.2515	-0.0298	0.2217	1181.9064	0.147596	-401.899231	-401.891433	-401.890488	-401.93266	29.371	
O	-0.697331031	 0.8641815097	 0.7210383942	-0.234474
C	 0.0945620721	 0.9835433274	-0.1773537488	 0.157999
C	 1.3249052907	 1.8666596199	-0.131544325	-0.385667
C	 1.2962945928	 2.9242608535	-1.210789786	 0.322685
C	 1.3733033102	 2.5785679222	-2.718160125	-0.283681
C	 2.1072626509	 3.900430455	-2.8234991999	-0.039055
C	 1.5029486888	 4.8613493648	-1.8520835333	-0.037192
C	 0.3748924582	 4.163169342	-1.1187876436	-0.277073
N	 2.535994732	 3.8735347933	-1.3805491181	-0.191161
H	-0.0417993139	 0.4304865602	-1.1355023627	 0.079192
H	 1.3986413732	 2.3222303602	 0.8598205747	 0.129151
H	 2.2079962665	 1.231566708	-0.289713031	 0.126847
H	 2.0516354917	 1.7400562719	-2.8998349022	 0.111032
H	 0.4401711257	 2.429077632	-3.2716570323	 0.102085
H	 2.791593178	 4.2225072473	-3.5999929741	 0.099153
H	 1.7242357384	 5.9220079044	-1.8826757428	 0.099378
H	-0.6203347138	 4.1114732085	-1.5725900334	 0.102522
H	 0.2949189696	 4.5192812196	-0.0883721107	 0.118259
44.4125	63.4575	171.6057	287.3283	324.0593	418.9009	440.1937	485.1232	653.2844	732.3787	768.2274	803.1541	821.4509	843.9504	864.3225	907.4611	972.8503	1000.6779	1013.5329	1022.509	1033.6337	1051.6603	1080.6511	1101.3878	1110.3723	1159.0808	1161.8217	1244.0188	1248.7271	1266.2136	1285.0935	1331.0933	1341.558	1376.5518	1431.2497	1463.453	1487.1454	1505.5619	1833.8454	2862.9546	3018.964	3038.1502	3044.7946	3097.4526	3101.1387	3106.0224	3177.0721	3188.7208
O=CCC12CC3C(C1)N23	O=CC[C@@]12C[C@H]3[C@@H](C1)N23	
InChI=1S/C7H9NO/c9-2-1-7-3-5-6(4-7)8(5)7/h2,5-6H,1,3-4H2	InChI=1S/C7H9NO/c9-2-1-7-3-5-6(4-7)8(5)7/h2,5-6H,1,3-4H2/t5-,6+,7+,8?
