15
gdb 131759	2.60663	1.54929	0.97754	4.3447	72.66	-0.2496	-0.0576	0.192	1128.6567	0.112547	-453.915354	-453.907155	-453.906211	-453.950182	29.447	
O	 0.1652964086	 1.3479516307	-0.1336079398	-0.427506
C	 0.0382005973	-0.048898065	-0.1236003957	-0.095259
C	-1.3820662736	-0.540052781	 0.0086118829	 0.29617
N	-2.2729304691	 0.3836821311	 0.0865898086	-0.160235
O	-3.6119294653	 0.0204345249	 0.2094847769	-0.247186
C	-3.9371614811	-1.2850218538	 0.2436179472	 0.098367
C	-3.0572162036	-2.2950364261	 0.1669036167	-0.233429
C	-1.6464161021	-1.9938865695	 0.0372160136	 0.234849
N	-0.6467260022	-2.7952563859	-0.051602886	-0.525977
H	-0.7233293491	 1.7199726197	-0.0641850265	 0.299333
H	 0.4531625805	-0.4898698099	-1.042052062	 0.133431
H	 0.6166008881	-0.4899473787	 0.701305874	 0.134186
H	-5.0106265751	-1.4002152068	 0.3418327568	 0.153641
H	-3.4054881866	-3.3203593803	 0.2021612368	 0.121233
H	-0.9596096366	-3.7680065094	-0.0201208735	 0.218381
10.4111	104.0421	189.0448	210.1636	272.967	344.8069	431.6375	457.4508	494.8827	543.9293	613.6307	741.441	761.6057	811.5365	877.1199	903.172	947.8335	961.2529	1018.0244	1032.5171	1094.9897	1143.1357	1210.4198	1245.611	1255.6247	1312.4379	1385.3402	1443.9141	1454.88	1489.2631	1641.8244	1647.2589	1702.4916	3005.0007	3021.3492	3198.4598	3217.5644	3447.0735	3758.2691
OCC1=NOC=CC1=N	OCC1=NO[CH]C=C1[NH]	
InChI=1S/C5H6N2O2/c6-4-1-2-9-7-5(4)3-8/h1-2,6,8H,3H2	InChI=1S/C5H6N2O2/c6-4-1-2-9-7-5(4)3-8/h1-2,6,8H,3H2
