15
gdb 126450	4.87752	0.9025	0.79937	4.6349	76.66	-0.2844	-0.0688	0.2156	1393.1071	0.112835	-416.822035	-416.813841	-416.812897	-416.855718	29.118	
C	-0.0123951274	 1.4490620562	-0.4948732326	-0.380624
C	-0.0773266843	 0.1342618459	 0.2990743919	-0.300074
C	-1.4093945454	-0.5437417478	 0.1922166267	 0.395732
N	-2.1852161597	-0.6612354837	 1.2475026605	-0.175605
O	-3.3337412209	-1.3106862974	 0.8307443921	-0.204007
C	-3.2193599351	-1.5738867001	-0.4885095146	 0.354694
C	-2.0274855712	-1.1149940221	-0.9582338496	-0.411671
C	-4.2921085511	-2.2438309874	-1.1253943391	 0.242449
N	-5.1586645096	-2.7899591645	-1.6638076752	-0.319996
H	 0.9757846847	 1.9058141567	-0.3929340336	 0.128356
H	-0.1972213818	 1.2835451945	-1.5609265626	 0.123713
H	-0.7576511662	 2.1619225782	-0.1307680443	 0.137295
H	 0.6990355764	-0.5519898755	-0.0591287818	 0.124124
H	 0.1220718849	 0.320089593	 1.3579683447	 0.138147
H	-1.6500295535	-1.1792407261	-1.9648377023	 0.147467
51.1649	103.1228	145.961	202.7414	222.8681	340.8137	396.9688	500.24	533.837	562.4757	676.4063	699.009	727.584	794.5343	854.8634	955.105	967.961	1012.6262	1031.4432	1073.9073	1099.6415	1153.3534	1262.1103	1285.4933	1352.4159	1411.2071	1443.8074	1480.13	1493.532	1498.6778	1510.6347	1621.1379	2356.1386	3041.9051	3044.1366	3094.7421	3117.9057	3123.4207	3284.8883
CCC1=NOC(=C1)C#N	CCc1noc(c1)C#N	
InChI=1S/C6H6N2O/c1-2-5-3-6(4-7)9-8-5/h3H,2H2,1H3	InChI=1S/C6H6N2O/c1-2-5-3-6(4-7)9-8-5/h3H,2H2,1H3
