13
gdb 43563	2.1031	1.61782	1.04432	6.2085	67.69	-0.2907	-0.0704	0.2203	1089.0256	0.088264	-415.630939	-415.622775	-415.621831	-415.665213	28.472	
O	 0.1091051656	 0.0253339905	-0.5345767811	-0.243088
C	 0.0137366746	 1.141317573	-0.1427425106	 0.416814
C	-1.142886023	 2.0284215448	 0.327745372	-0.357
C	-0.1037757088	 3.1231966772	 0.7573025234	-0.191512
C	-0.0211932985	 3.3481189852	 2.1898345749	 0.30244
N	 0.0209506753	 3.5274412035	 3.3304545319	-0.30272
C	 1.0697968235	 2.2716162064	 0.1183411373	-0.29134
C	 2.2397184735	 1.9457157178	 0.9040628095	 0.309789
N	 3.1669674298	 1.6648600115	 1.5339205155	-0.303247
H	-1.8098959213	 2.3384363374	-0.4807924918	 0.161653
H	-1.7404532582	 1.5990955357	 1.1344199124	 0.177902
H	-0.2357313536	 4.0811452152	 0.252471712	 0.150289
H	 1.3765428712	 2.7066826119	-0.8391193052	 0.17002
23.3495	103.3813	135.9536	205.0005	255.9896	394.1246	419.0464	454.2978	498.0689	572.9166	596.8239	707.6838	738.8312	777.5027	897.1091	965.6509	1031.8242	1053.1247	1063.7499	1097.6747	1180.9669	1210.928	1241.7164	1290.3942	1349.8803	1431.8953	1926.7799	2362.176	2365.2808	3064.7219	3078.8565	3108.4634	3139.2997
O=C1CC(C#N)C1C#N	O=C1C[C@@H](C#N)[C@H]1C#N	
InChI=1S/C6H4N2O/c7-2-4-1-6(9)5(4)3-8/h4-5H,1H2	InChI=1S/C6H4N2O/c7-2-4-1-6(9)5(4)3-8/h4-5H,1H2/t4-,5+/m0/s1
