18
gdb 101423	3.09876	1.07304	0.9586	3.7694	68.34	-0.258	0.0168	0.2748	1260.818	0.14764	-476.233984	-476.224886	-476.223942	-476.268355	33.255	
O	 0.1121323518	 1.4089597788	-0.0203282152	-0.425199
C	 0.0868463903	 0.0007514784	 0.0690032051	-0.078627
C	-1.3537970543	-0.5183403417	 0.0272723021	 0.071371
O	-2.0064544092	-0.015475595	-1.1436317323	-0.449319
C	-1.4297698755	-2.0405015771	 0.1011257982	-0.163671
C	-2.8350842926	-2.7152512942	 0.0833747376	-0.190244
N	-2.4039789973	-3.4303440572	-1.1275082624	-0.313731
C	-1.2186815868	-2.7567082245	-1.259953945	 0.411111
O	-0.3992708514	-2.6901164484	-2.1418669321	-0.372637
H	-0.530648571	 1.6380411426	-0.7037677798	 0.285164
H	 0.6599381026	-0.4757679769	-0.7445497279	 0.109896
H	 0.5623610236	-0.275768068	 1.0167494212	 0.104913
H	-1.9075585935	-0.0748864505	 0.863073574	 0.101926
H	-1.5435242825	-0.3851691007	-1.9085796475	 0.296975
H	-0.7775712826	-2.4271827272	 0.8889046042	 0.109467
H	-3.0723331785	-3.3662928498	 0.9286082237	 0.116418
H	-3.6496965269	-2.007216809	-0.0946825241	 0.131121
H	-2.9395903163	-3.9318949297	-1.8216023695	 0.255067
61.448	101.8514	124.7366	171.5553	195.624	281.9701	359.9596	422.9857	429.737	458.3668	520.9287	573.3394	582.4059	760.132	775.2862	819.1781	887.3432	926.6416	987.523	1006.8405	1042.8913	1089.2491	1102.4675	1135.3155	1169.1416	1179.4967	1191.3198	1205.3703	1274.6996	1290.4604	1320.7387	1340.1031	1390.6224	1393.5063	1432.4945	1440.6897	1512.0869	1516.602	1871.6685	2970.4524	3048.5147	3053.4981	3067.2701	3084.9189	3108.9573	3603.1343	3749.9124	3773.0238
OCC(O)C1CNC1=O	OC[C@@H](O)[C@H]1CNC1=O	
InChI=1S/C5H9NO3/c7-2-4(8)3-1-6-5(3)9/h3-4,7-8H,1-2H2,(H,6,9)	InChI=1S/C5H9NO3/c7-2-4(8)3-1-6-5(3)9/h3-4,7-8H,1-2H2,(H,6,9)/t3-,4-/m1/s1
