19
gdb 79334	2.56587	1.76813	1.46652	0.6957	73.43	-0.2251	0.069	0.2941	980.2386	0.160906	-423.023589	-423.016111	-423.015167	-423.055006	30.575	
C	-0.0310936905	 1.4954361886	 0.0310642741	-0.504662
C	 0.0480608531	-0.0039403137	-0.0322177982	 0.298666
C	 1.1708256149	-0.7542796267	-0.7481116222	-0.272253
C	 0.6951853492	-2.1628111993	-0.3499053838	-0.005496
O	 0.5203663983	-2.0734547785	 1.071961635	-0.261771
C	-0.3090735515	-0.920539759	 1.1146187781	 0.044862
C	-1.187993636	-0.9119576116	-0.1144684428	-0.172524
C	-0.7779188046	-2.1688873155	-0.8580463498	 0.124769
O	-0.9285220518	-2.0143958339	-2.2567875597	-0.436228
H	 0.8795891081	 1.9217586388	 0.4675143704	 0.119106
H	-0.1589856344	 1.9303973744	-0.9666241221	 0.123881
H	-0.8772238961	 1.8239803049	 0.6437652949	 0.115549
H	 1.1629600016	-0.6067911413	-1.8299501134	 0.112417
H	 2.1600081859	-0.5234154512	-0.3415352219	 0.096414
H	 1.3226319205	-3.0180808237	-0.5961503652	 0.07261
H	-0.6034721945	-0.6105640709	 2.1077167631	 0.101159
H	-2.1996840087	-0.5291948381	-0.1218943471	 0.088355
H	-1.3114784992	-3.0562645411	-0.4901200416	 0.070891
H	-0.6982077444	-2.8504660523	-2.6746179476	 0.284255
165.6071	210.3298	259.2411	290.5552	297.29	341.7487	454.6893	513.8797	574.7672	600.3365	663.0645	749.9115	811.876	867.8695	879.2512	894.038	918.6103	954.0812	975.9028	998.7493	1016.7987	1037.6681	1052.3791	1060.3996	1102.5584	1121.0766	1154.3821	1186.6111	1227.2387	1243.7486	1255.8453	1273.5848	1299.5134	1318.8909	1341.1613	1417.9877	1425.9011	1428.4284	1479.1907	1490.8663	1501.8201	3010.1575	3023.5233	3061.4826	3084.1031	3093.1552	3123.9541	3137.1614	3205.7059	3218.3653	3814.1587
CC12CC3OC1C2C3O	C[C@@]12C[C@H]3O[C@@H]1[C@@H]2[C@H]3O	
InChI=1S/C7H10O2/c1-7-2-3-5(8)4(7)6(7)9-3/h3-6,8H,2H2,1H3	InChI=1S/C7H10O2/c1-7-2-3-5(8)4(7)6(7)9-3/h3-6,8H,2H2,1H3/t3-,4+,5+,6-,7+/m1/s1
