19
gdb 119174	2.57157	1.16056	0.90731	2.1217	72.19	-0.2587	0.0727	0.3315	1336.0496	0.156793	-460.097169	-460.087726	-460.086782	-460.132357	33.36	
C	-0.6961498758	 1.3907537412	 0.5536444003	-0.224367
O	-0.5240287189	 0.0068974841	 0.7576729502	-0.243875
C	 0.7942989441	-0.4267669749	 0.4998584522	-0.134649
C	 0.887177478	-1.8853910908	 0.8935858996	 0.364878
C	 0.6215432407	-2.929615281	-0.1051056897	-0.215231
O	 1.9609340211	-2.5936190989	 0.2744540787	-0.275381
C	 0.6543439338	-2.166677674	 2.3493568545	-0.002579
C	 1.435811064	-3.1738164262	 3.0717828118	-0.173117
O	 1.7142004416	-1.7792518206	 3.2301680994	-0.242244
H	-0.4893652363	 1.6771272754	-0.4893723388	 0.106682
H	-1.7372646198	 1.6274251293	 0.7850274949	 0.129475
H	-0.0400308225	 1.983222813	 1.2096085701	 0.112017
H	 1.0568350098	-0.314232798	-0.5637815652	 0.095798
H	 1.5209346184	 0.1541021123	 1.0905947059	 0.112167
H	 0.2803123389	-3.910230436	 0.2216208032	 0.116332
H	 0.3358896167	-2.6440094421	-1.1160148998	 0.119581
H	-0.3413125059	-1.902025858	 2.70307101	 0.110402
H	 1.0020592092	-3.6654335605	 3.9413874842	 0.112237
H	 2.193057663	-3.7354833145	 2.5306322986	 0.131873
54.6818	89.7364	95.746	152.1602	205.1956	235.4389	254.0002	343.387	357.1114	423.8822	496.8025	610.1166	720.7631	852.1436	876.3033	901.0436	936.2184	949.0153	991.5281	1037.9972	1066.8905	1107.7914	1128.5243	1156.8384	1160.867	1167.9678	1172.7317	1184.0737	1224.8001	1234.4785	1269.57	1288.2177	1387.7295	1426.6019	1445.6452	1481.7246	1487.139	1503.3679	1517.9561	1521.2821	1531.7568	2968.3811	2979.4518	3008.89	3023.1729	3089.2295	3092.5653	3117.9491	3125.5789	3179.4141	3190.1625
COCC1(CO1)C1CO1	COC[C@]1(CO1)[C@H]1CO1	
InChI=1S/C6H10O3/c1-7-3-6(4-9-6)5-2-8-5/h5H,2-4H2,1H3	InChI=1S/C6H10O3/c1-7-3-6(4-9-6)5-2-8-5/h5H,2-4H2,1H3/t5-,6+/m1/s1
