22
gdb 96150	2.77414	1.40505	1.02331	0.9443	82.83	-0.2218	0.0893	0.3111	1223.3252	0.195721	-404.326132	-404.31775	-404.316806	-404.358638	33.518	
C	 0.005487225	 1.5558177372	 0.097116158	-0.399186
C	-0.0107185547	 0.0360617712	-0.0269076803	 0.142203
C	 0.5506052546	-0.4420921712	-1.3818466577	-0.233244
C	 0.1707819165	-1.8748179942	-1.7059243286	 0.002788
C	 1.1637402303	-2.874904591	-2.1909776706	-0.264738
N	 0.5832895053	-2.9945591066	-0.8571841069	-0.082867
C	 1.4297935959	-2.7080234141	 0.3007938095	-0.162865
C	 0.6965147225	-1.8429252005	 1.3285291192	-0.066868
O	 0.7593061459	-0.4530913944	 1.0658728083	-0.258563
H	 1.0235989028	 1.9384307843	-0.0283865662	 0.121611
H	-0.6334565314	 2.0138111288	-0.6635612251	 0.11098
H	-0.3522231771	 1.8576954905	 1.084638079	 0.12263
H	-1.0493538582	-0.3255578805	 0.0733743697	 0.065327
H	 0.1643659775	 0.2028673808	-2.1804902411	 0.098615
H	 1.636915461	-0.3041770013	-1.3624479801	 0.104047
H	-0.8579199887	-1.9797822171	-2.0519406467	 0.086718
H	 0.8842750539	-3.6440678143	-2.9068280229	 0.112651
H	 2.1990494532	-2.5423776858	-2.2654364488	 0.106228
H	 1.6916474143	-3.6696899311	 0.7599186113	 0.101579
H	 2.3757278462	-2.2057700718	 0.0421614442	 0.092273
H	-0.3485601582	-2.182628061	 1.4068541064	 0.096858
H	 1.1687541934	-1.968379118	 2.3082537094	 0.103823
123.1043	165.8024	223.1247	272.2917	277.6615	324.6978	350.6397	396.1999	434.0617	480.765	560.6367	563.2276	725.7715	795.1065	821.8504	886.8596	894.8693	927.382	963.458	999.5847	1035.2759	1046.8879	1073.4169	1098.4476	1120.3628	1130.2409	1151.0255	1161.1238	1162.5638	1183.6341	1242.0643	1255.8561	1302.5892	1312.0323	1342.8859	1378.8721	1379.8516	1385.7921	1407.8894	1413.4466	1425.6602	1467.8758	1483.3533	1485.2318	1493.1653	1501.2565	1516.9902	2947.7382	2974.7182	2986.3275	3032.0687	3040.4752	3042.3966	3074.7018	3077.0743	3084.3687	3098.5012	3113.5365	3124.8962	3169.8952
CC1CC2CN2CCO1	C[C@H]1C[C@H]2CN2CCO1	
InChI=1S/C7H13NO/c1-6-4-7-5-8(7)2-3-9-6/h6-7H,2-5H2,1H3	InChI=1S/C7H13NO/c1-6-4-7-5-8(7)2-3-9-6/h6-7H,2-5H2,1H3/t6-,7-,8?/m0/s1
