21
gdb 99941	3.49888	0.68278	0.6572	3.992	91.52	-0.2612	-0.0561	0.2052	1804.5514	0.178561	-387.081366	-387.070062	-387.069118	-387.120532	39.216	
C	-0.0950199964	 1.5320989649	 0.1604369704	-0.408546
C	 0.0182202612	 0.0144377309	-0.0152655215	-0.173899
C	 0.7458576058	-0.4704410717	-1.3054478473	 0.039494
C	 0.0027340965	-0.0040864075	-2.5810552925	-0.404944
C	 2.2121576912	 0.0231715417	-1.3464919412	-0.404841
C	 0.7540644938	-1.9359623716	-1.2940239684	 0.158849
C	 0.7677492242	-3.1450529832	-1.296120845	-0.019297
C	 0.7606248882	-4.5834480661	-1.2659432674	 0.016508
O	 1.3337725816	-5.2933305348	-2.0614330361	-0.232239
H	 0.8848708197	 2.0155154618	 0.2139344278	 0.122707
H	-0.6584811372	 2.0007221315	-0.6517683946	 0.122464
H	-0.6204481848	 1.7582561824	 1.0932573169	 0.120524
H	 0.5439499437	-0.4118374877	 0.846914639	 0.106491
H	-0.9848855841	-0.4273097838	-0.0095088532	 0.106215
H	 0.0250965378	 1.0865050268	-2.6564245676	 0.121673
H	 0.4775729958	-0.4165137974	-3.4750419537	 0.131618
H	-1.041389909	-0.3294909587	-2.5688586721	 0.124921
H	 2.7551056468	-0.2832277222	-0.4478220031	 0.125015
H	 2.7321188467	-0.3891793969	-2.2150343858	 0.131604
H	 2.2451693001	 1.113894131	-1.4161203393	 0.121102
H	 0.1709622584	-5.0156925295	-0.4311864054	 0.094581
5.2158	71.5965	75.7434	109.6907	179.9677	205.7891	255.7037	260.784	276.7227	288.9847	327.7258	362.4207	389.7018	526.9655	575.4987	594.5292	711.7177	784.0377	825.4966	915.9907	942.4091	1003.6676	1023.1246	1023.6725	1055.375	1071.4332	1083.7654	1205.1562	1219.8397	1255.099	1323.3908	1369.2921	1395.0337	1409.6387	1422.015	1423.4501	1480.8542	1481.2422	1484.8381	1502.7954	1507.3147	1507.9062	1510.7053	1764.8793	2319.3239	2910.7276	3032.4276	3041.8914	3042.0863	3047.3441	3067.7006	3107.0569	3113.0788	3118.9392	3120.549	3122.1178	3124.6349
CCC(C)(C)C#CC=O	CCC(C)(C)C#CC=O	
InChI=1S/C8H12O/c1-4-8(2,3)6-5-7-9/h7H,4H2,1-3H3	InChI=1S/C8H12O/c1-4-8(2,3)6-5-7-9/h7H,4H2,1-3H3
