18
gdb 47844	2.46934	1.64382	1.12023	3.9265	73.3	-0.2389	-0.0243	0.2146	1084.3693	0.148835	-439.097467	-439.089382	-439.088438	-439.130451	30.317	
O	 0.0737978173	-0.0820304667	-0.0191658614	-0.2853
C	 0.0366976471	 1.1246943027	 0.0157569462	 0.374947
C	-1.312618902	 1.8533078964	 0.0506500483	-0.279502
C	-1.7043163463	 2.6139648574	-1.2412645529	-0.226546
C	-1.225964799	 4.0665886092	-1.2757142185	-0.082187
O	 0.1389740749	 4.1936282744	-0.8581445171	-0.221685
C	 1.0374862181	 3.5182522224	-1.634763932	 0.096038
N	 1.6656626444	 2.4897589967	-1.2671170919	-0.213743
C	 1.3462423374	 1.9373501841	 0.0554526908	-0.239537
H	-2.0495880612	 1.0709788484	 0.2446298244	 0.125122
H	-1.3218352295	 2.5492835899	 0.8988070049	 0.116099
H	-1.3386707802	 2.0674870906	-2.1172667637	 0.127422
H	-2.796573089	 2.6305239225	-1.326762814	 0.114674
H	-1.3608516925	 4.4978593627	-2.2780727903	 0.10888
H	-1.7879862835	 4.6775912781	-0.5642962315	 0.124607
H	 1.2132807315	 3.9506043252	-2.6230604657	 0.117758
H	 1.2602565623	 2.7271353544	 0.8109324595	 0.118652
H	 2.1393830901	 1.2429064017	 0.334696255	 0.124301
64.8031	127.0427	196.371	239.4538	278.6172	301.976	400.1482	479.8489	501.9729	568.7311	643.9349	693.6349	801.032	847.3241	874.8893	909.9972	933.0602	978.8621	995.7257	1029.0147	1062.1809	1107.2444	1111.0997	1158.682	1235.4038	1243.7888	1269.5175	1307.2327	1326.4013	1350.3852	1369.8117	1384.2378	1409.2014	1467.3957	1484.6503	1486.7316	1501.0349	1739.3195	1806.8926	3007.9642	3032.5915	3039.0196	3044.6341	3076.5741	3101.0128	3105.7995	3111.1781	3124.7028
O=C1CCCOC=NC1	O=C1CCCOC=NC1	
InChI=1S/C6H9NO2/c8-6-2-1-3-9-5-7-4-6/h5H,1-4H2/b7-5-	InChI=1S/C6H9NO2/c8-6-2-1-3-9-5-7-4-6/h5H,1-4H2/b7-5-
