17
gdb 45210	3.22433	1.81594	1.44157	1.9001	71.85	-0.2291	0.0174	0.2465	913.6752	0.139445	-417.977575	-417.971169	-417.970225	-418.008416	26.169	
N	-0.0743454799	 1.2968822652	-0.3084814348	-0.540893
C	-0.0357737612	 0.0633426418	-0.0472471103	 0.406144
O	 1.1139280137	-0.6380145845	 0.2272000087	-0.248845
C	 0.8336496359	-2.0189860498	 0.4732849921	 0.07287
C	 0.3924607745	-2.349122323	 1.9210202259	-0.198779
N	-1.0478761239	-2.4810388748	 1.5159335718	-0.142982
C	-1.735648547	-1.1470184843	 1.4717680875	-0.182403
C	-1.2287494478	-0.8565665705	 0.0224178501	-0.128099
C	-0.6348611378	-2.2781848269	 0.0656931468	-0.022067
H	 0.8631045567	 1.701710031	-0.2775406411	 0.224002
H	 1.6421952984	-2.6077100225	 0.039222425	 0.097214
H	 0.7761946674	-3.3092702831	 2.2782918627	 0.116583
H	 0.6018462418	-1.5778505481	 2.6684640308	 0.116729
H	-2.8197613933	-1.2771971652	 1.5177052876	 0.120244
H	-1.4317271588	-0.4401669444	 2.2497767714	 0.117797
H	-1.9849707313	-0.5957955565	-0.7145163075	 0.107888
H	-0.8925379274	-3.0342965644	-0.6755560666	 0.084597
99.5248	220.4874	341.5264	416.1661	428.276	578.6135	647.3823	679.6978	734.7285	775.0395	792.7853	849.9768	888.9393	895.7543	920.37	941.5386	956.3425	980.488	993.1938	1015.8926	1054.977	1082.0011	1124.829	1187.0635	1196.0489	1208.8558	1215.0558	1244.2108	1250.8664	1278.1227	1285.5764	1312.5556	1328.8465	1380.9067	1478.221	1503.9776	1776.8603	3046.0952	3051.5075	3099.9056	3103.9627	3108.6567	3118.1693	3143.8365	3471.6478
N=C1OC2CN3CC1C23	[NH][C]1O[C@H]2CN3C[C@@H]1[C@@H]23	
InChI=1S/C6H8N2O/c7-6-3-1-8-2-4(9-6)5(3)8/h3-5,7H,1-2H2	InChI=1S/C6H8N2O/c7-6-3-1-8-2-4(9-6)5(3)8/h3-5,7H,1-2H2/t3-,4+,5+/m1/s1
