14
gdb 132602	3.24207	1.33073	0.94403	4.1819	68.32	-0.2154	-0.0088	0.2066	1120.7905	0.101801	-478.036358	-478.028783	-478.027839	-478.068088	29.558	
N	-0.0266452461	 1.4087557765	-0.140469579	-0.591658
C	-0.0385173903	 0.0352944771	-0.06863243	 0.310773
C	-1.2063448769	-0.7228411685	-0.0009910488	-0.374035
C	-1.0852050761	-2.1084178524	 0.0152195033	 0.346613
F	-2.2088033965	-2.826987804	 0.0796120395	-0.083308
N	 0.0355163437	-2.7845880411	-0.0240595223	-0.339776
C	 1.1613783157	-2.0531475531	-0.085798319	-0.113808
C	 1.1834094964	-0.6734838807	-0.1101777377	 0.281076
O	 2.3242040279	 0.0856518503	-0.165014148	-0.463888
H	 0.8528470811	 1.8487010537	 0.0805978503	 0.269323
H	-0.8391970265	 1.8930868734	 0.2053303588	 0.256839
H	-2.1838260506	-0.2570269332	 0.0346651634	 0.101889
H	 2.0981580787	-2.6090619308	-0.1138695813	 0.097511
H	 3.0921917195	-0.4945188573	-0.1600865092	 0.302449
151.9881	218.2671	283.4005	303.1922	353.3325	383.7138	428.5009	455.2823	458.9773	498.4199	542.4111	595.1629	687.1631	758.1255	765.0478	796.671	852.2905	908.2698	996.2941	1096.2371	1171.7618	1210.2396	1299.5592	1318.7459	1341.4296	1405.8624	1469.9742	1549.5064	1631.7337	1639.0769	1666.2146	3126.4714	3201.1559	3590.139	3702.0887	3828.801
NC1=CC(F)=NC=C1O	Nc1cc(F)ncc1O	
InChI=1S/C5H5FN2O/c6-5-1-3(7)4(9)2-8-5/h1-2,9H,(H2,7,8)	InChI=1S/C5H5FN2O/c6-5-1-3(7)4(9)2-8-5/h1-2,9H,(H2,7,8)
