20
gdb 86343	2.1577	1.59636	1.07164	1.0314	75.31	-0.2235	0.0693	0.2928	1170.6347	0.169978	-440.227023	-440.217914	-440.21697	-440.261001	33.812	
C	 0.0553482916	 1.6255818132	 0.4607265241	-0.331616
N	 0.1149889554	 0.1863843092	 0.3137858554	-0.077361
C	-1.140858281	-0.5879534068	 0.2634996995	-0.207654
C	-0.4357971929	-1.7214660451	 1.0520245468	 0.113715
O	 0.059209005	-2.7908531313	 0.2834045269	-0.431009
C	 0.6040851379	-0.6243894659	 1.4444790759	-0.04855
C	 2.0717514284	-0.965944446	 1.4398372098	 0.098377
C	 2.898283334	-0.8756506073	 0.2306536618	-0.187233
O	 2.9666592451	 0.134630545	 1.2433804164	-0.24494
H	 1.0654768146	 2.0115182142	 0.6176073629	 0.144447
H	-0.3529701855	 2.0770810058	-0.4497110861	 0.117588
H	-0.5769942852	 1.940815132	 1.3124549669	 0.090045
H	-1.9617559354	-0.1287165069	 0.8389258799	 0.087496
H	-1.5025862009	-0.8334629963	-0.7414992692	 0.1018
H	-0.9965728505	-2.1702432737	 1.8720852625	 0.095407
H	 0.5449453515	-2.4173272607	-0.46043076	 0.288463
H	 0.3420631563	-0.1827382808	 2.4229202904	 0.061915
H	 2.3810582988	-1.6610099892	 2.2221846154	 0.095919
H	 3.7846603788	-1.5013327098	 0.1374810997	 0.114135
H	 2.435247774	-0.5540698095	-0.6993945591	 0.119056
84.6674	96.6033	143.5847	180.6241	236.0726	288.6526	331.0775	338.1946	376.4266	397.1577	502.4437	612.9707	726.0753	812.349	857.3529	862.7306	886.4486	922.2539	981.9643	1013.2576	1025.4922	1072.7022	1108.4473	1124.4892	1147.7865	1161.8735	1176.8408	1181.1449	1192.4768	1229.3889	1244.6992	1275.1879	1287.9069	1305.6425	1330.9128	1381.5849	1431.8859	1440.6322	1448.3166	1490.1889	1500.5784	1510.9318	1516.4875	2927.8198	2937.8733	2967.4493	3055.5789	3064.726	3089.3976	3100.8724	3116.0438	3123.1457	3185.1238	3806.989
CN1CC(O)C1C1CO1	CN1C[C@@H](O)[C@H]1[C@H]1CO1	
InChI=1S/C6H11NO2/c1-7-2-4(8)6(7)5-3-9-5/h4-6,8H,2-3H2,1H3	InChI=1S/C6H11NO2/c1-7-2-4(8)6(7)5-3-9-5/h4-6,8H,2-3H2,1H3/t4-,5-,6+/m1/s1
