25
gdb 115717	2.31906	1.18098	0.88398	1.0482	89.8	-0.244	0.078	0.3221	1458.8034	0.227346	-389.48023	-389.46956	-389.468615	-389.515893	39.493	
C	 0.0220462688	 1.3771771852	-0.4357176389	-0.233816
O	-0.0288199313	 0.1129302117	 0.1828879045	-0.24509
C	-1.2956270388	-0.5063690086	 0.094195448	 0.112
C	-1.5527677071	-1.2132226818	-1.2690504348	-0.251511
C	-1.0758302658	-2.5468773927	-0.6338393472	-0.242585
C	-1.2581218127	-1.9069346803	 0.7736451962	 0.031145
C	-0.2317977926	-2.1847547402	 1.871221767	 0.03247
C	-0.4940624212	-1.3167310309	 3.1095746948	-0.393965
C	-0.2158748442	-3.6768896391	 2.2302681964	-0.39426
H	 1.0303698597	 1.771804496	-0.2877037213	 0.125448
H	-0.1793379853	 1.3218014923	-1.5158970952	 0.105496
H	-0.7032759162	 2.0753365778	 0.0116514208	 0.103093
H	-2.0726401934	 0.1923977438	 0.4385913166	 0.054186
H	-2.6150348741	-1.225753986	-1.5291421259	 0.098529
H	-0.9879184481	-0.833886761	-2.1239741327	 0.099963
H	-1.6544708694	-3.4455664464	-0.858951776	 0.093621
H	-0.0223470645	-2.7469562657	-0.8503301844	 0.105084
H	-2.2635645881	-2.131868935	 1.1529489321	 0.063546
H	 0.7538861397	-1.9137971939	 1.4738764155	 0.082698
H	-1.484675683	-1.5229283826	 3.5338380379	 0.102246
H	 0.2464926585	-1.5144847992	 3.8920959268	 0.10454
H	-0.4431997042	-0.2537435155	 2.8589865922	 0.121755
H	-1.1816652928	-3.9925605877	 2.6440224967	 0.106139
H	-0.0098804562	-4.3007941073	 1.3544158487	 0.112082
H	 0.5515247123	-3.8921429229	 2.9813754124	 0.107185
68.7559	102.7898	112.6389	139.2732	204.1555	209.5237	233.1624	251.435	308.9831	322.2508	369.1583	427.8495	452.3356	551.1416	691.7895	742.0469	837.5858	879.5721	903.5934	928.0772	943.4659	952.5833	970.7911	992.8901	1017.601	1071.897	1093.3659	1141.2116	1165.7217	1174.3341	1184.3419	1193.2956	1216.3251	1232.7899	1253.6189	1263.2996	1286.7726	1294.0814	1311.6079	1351.4877	1384.5249	1393.3931	1395.3962	1417.7667	1468.5274	1480.3919	1487.9286	1489.1335	1491.9933	1494.3807	1504.5709	1510.2448	1512.944	2972.0272	2982.5218	3018.7747	3020.529	3021.8528	3024.2047	3038.997	3055.7448	3060.6389	3083.2434	3090.839	3097.6853	3102.8853	3111.8857	3113.9965	3118.87
COC1CCC1C(C)C	CO[C@H]1CC[C@H]1C(C)C	
InChI=1S/C8H16O/c1-6(2)7-4-5-8(7)9-3/h6-8H,4-5H2,1-3H3	InChI=1S/C8H16O/c1-6(2)7-4-5-8(7)9-3/h6-8H,4-5H2,1-3H3/t7-,8-/m0/s1
