16
gdb 80251	2.47511	1.66328	1.30832	3.3705	65.81	-0.2536	0.0171	0.2707	991.5939	0.125078	-474.999496	-474.991926	-474.990982	-475.031234	29.85	
O	 0.1453007953	 1.4723919303	-0.0752495962	-0.440423
C	 0.0463509342	 0.0903234498	-0.0204095022	 0.172607
C	 0.1023195912	-0.6479637911	 1.3417960924	-0.028343
O	-0.9914088134	-0.0229981333	 2.0735189787	-0.275019
C	-2.0102897612	-0.0146677313	 1.1232597253	 0.418273
N	-3.1734941349	 0.4361260696	 1.282430716	-0.568456
C	-1.3599130196	-0.6418402988	-0.0772064704	-0.206218
C	-0.6373365797	-1.828791897	 0.6455718484	 0.120866
O	 0.109194698	-2.6043821026	-0.2518594271	-0.43182
H	-0.3904242624	 1.8474903813	 0.6342000162	 0.296709
H	 0.7345562831	-0.3287021329	-0.7505964204	 0.124154
H	 0.9770298392	-0.7334032825	 1.9840196627	 0.09312
H	-3.2960631161	 0.796977216	 2.2309672943	 0.225933
H	-1.9551169546	-0.7628014763	-0.9766107549	 0.10797
H	-1.2627517039	-2.4324449481	 1.3136290046	 0.096416
H	 0.6059652348	-3.2574584731	 0.2516364124	 0.29423
141.8399	207.9755	245.6468	289.845	298.135	357.118	403.287	450.5021	512.9352	601.4414	675.5702	728.005	793.4308	841.1431	877.0251	890.9795	900.1369	939.3539	970.8506	991.4302	1068.8198	1088.4104	1126.6282	1152.7663	1175.3068	1196.2051	1227.743	1243.0074	1257.2338	1301.0779	1317.4022	1345.9688	1424.1832	1449.3032	1809.4053	3042.3041	3143.4131	3160.2028	3184.388	3464.6889	3789.7109	3817.9381
OC1C2OC(=N)C1C2O	O[C@H]1[C@H]2O[C]([NH])[C@@H]1[C@H]2O	
InChI=1S/C5H7NO3/c6-5-1-2(7)4(9-5)3(1)8/h1-4,6-8H	InChI=1S/C5H7NO3/c6-5-1-2(7)4(9-5)3(1)8/h1-4,6-8H/t1-,2-,3-,4+/m1/s1
