20
gdb 111503	2.46201	1.55448	1.086	2.5181	74.71	-0.2152	0.0837	0.2989	1143.8785	0.1716	-440.251222	-440.242655	-440.241711	-440.284472	32.729	
C	-0.166814153	 1.553708633	 0.2508731455	-0.333747
N	 0.0518784123	 0.1196953507	 0.1250936689	-0.09931
C	-1.1737139934	-0.6113299698	-0.236257351	-0.185921
C	-1.0612762077	-1.9510128802	 0.4492403852	 0.037195
O	 0.1680376246	-2.6395783596	 0.1976044704	-0.25444
C	 0.0402428861	-1.8767218246	 1.4091112203	 0.011625
C	 0.6827184915	-0.5066772406	 1.3098434151	-0.004653
C	 2.2080801196	-0.6058694365	 1.1232109488	-0.064696
O	 2.79386621	 0.6063092393	 0.6804093704	-0.420591
H	 0.7645461148	 2.0447496594	 0.5381106748	 0.136973
H	-0.4963571606	 1.9650317346	-0.7094394219	 0.117361
H	-0.9351449573	 1.8056756516	 1.0070101669	 0.091644
H	-2.0821645325	-0.1084317312	 0.1410810939	 0.08799
H	-1.2714156014	-0.6943669118	-1.3258950016	 0.114537
H	-1.9385628572	-2.5782343153	 0.58187194	 0.100949
H	 0.0814833903	-2.4457466533	 2.3336465873	 0.101985
H	 0.4544160967	 0.0600951459	 2.2284488473	 0.064042
H	 2.6838847593	-0.8519457754	 2.0787105536	 0.101816
H	 2.4119753229	-1.4205932151	 0.4161577192	 0.108368
H	 2.4522648249	 0.7467409888	-0.209995403	 0.288872
77.1011	114.4876	191.9343	226.7409	273.7835	326.1326	356.4984	378.3943	439.5007	489.4884	527.3432	678.3254	701.8923	794.8573	821.5524	882.1875	929.9139	955.6673	993.3129	1025.6546	1057.7245	1065.9108	1083.9765	1096.5389	1123.12	1157.1497	1182.1108	1221.614	1227.1964	1247.5103	1263.404	1304.5117	1338.6357	1357.2073	1381.7106	1407.1544	1422.8254	1441.4994	1465.0068	1495.3894	1500.6897	1510.4865	1516.1252	2923.1171	2946.7842	2959.4209	3019.209	3038.2481	3061.4401	3078.6204	3131.7807	3149.3478	3161.7561	3801.718
CN1CC2OC2C1CO	CN1C[C@H]2O[C@H]2[C@H]1CO	
InChI=1S/C6H11NO2/c1-7-2-5-6(9-5)4(7)3-8/h4-6,8H,2-3H2,1H3	InChI=1S/C6H11NO2/c1-7-2-5-6(9-5)4(7)3-8/h4-6,8H,2-3H2,1H3/t4-,5-,6+/m1/s1
