20
gdb 74985	2.75036	1.52208	1.23528	1.4065	79.38	-0.2342	0.0297	0.2639	1111.4235	0.170922	-403.178191	-403.169612	-403.168668	-403.211286	32.839	
C	-0.1670945734	 1.4283224168	 0.0899481575	-0.475021
C	-0.0087328315	-0.0480762375	-0.0405865365	 0.388275
N	-0.2147335794	-0.7382515297	-1.0909445796	-0.310386
C	 0.0696453737	-2.1299185394	-0.7400800832	-0.055033
C	 1.4821100706	-2.6267099853	-1.1545337138	-0.219499
C	 1.9698737776	-2.456072977	 0.3188069167	-0.278296
C	 0.5261141082	-2.0839020615	 0.7556889606	 0.404142
C	-0.148877304	-2.9296573052	 1.8103219637	-0.46736
O	 0.3915579136	-0.682589634	 1.1013453282	-0.292379
H	 0.7873166864	 1.8893710406	 0.363754111	 0.142599
H	-0.517613008	 1.8452221063	-0.8534895155	 0.150611
H	-0.8802896329	 1.6632254471	 0.8862985431	 0.143337
H	-0.7692400824	-2.7768339724	-1.0136172036	 0.072988
H	 1.4971217473	-3.6614733452	-1.5058007391	 0.101211
H	 1.9726355174	-1.9954581067	-1.8976317402	 0.110681
H	 2.3693411695	-3.3589465896	 0.7874448669	 0.102018
H	 2.6784292372	-1.6404862729	 0.4773185802	 0.109241
H	 0.3363694307	-2.8021882029	 2.7836569577	 0.127679
H	-1.2028317327	-2.6530300923	 1.9117780481	 0.125631
H	-0.0944034179	-3.9888778593	 1.5399222977	 0.119561
80.431	133.9133	164.2522	219.9739	254.3165	286.2511	347.828	409.0002	443.3689	587.3701	630.2683	658.9697	689.2326	748.4062	843.0499	883.6571	891.6064	916.6329	946.8461	960.6396	981.2714	1011.4393	1064.0132	1073.2793	1136.9287	1166.0002	1183.9832	1200.1298	1220.0098	1240.0389	1274.0851	1290.8113	1311.3912	1341.9006	1407.9561	1412.7915	1470.5106	1475.3602	1475.886	1482.6749	1487.0089	1491.3716	1721.8882	3033.9743	3049.6724	3056.9213	3063.4187	3071.4467	3105.4182	3106.4713	3110.6502	3113.9525	3131.8407	3165.5935
CC1=NC2CCC2(C)O1	CC1=N[C@H]2CC[C@@]2(C)O1	
InChI=1S/C7H11NO/c1-5-8-6-3-4-7(6,2)9-5/h6H,3-4H2,1-2H3	InChI=1S/C7H11NO/c1-5-8-6-3-4-7(6,2)9-5/h6H,3-4H2,1-2H3/t6-,7+/m0/s1
