22
gdb 6534	3.12141	1.50103	1.23786	1.2928	78.79	-0.2446	0.0728	0.3174	1103.8271	0.197515	-350.201487	-350.191572	-350.190628	-350.235257	37.48	
C	 0.0279434166	 1.5126977075	-0.3031939624	-0.378013
C	-0.0402980918	 0.0720098028	 0.2217191591	-0.246188
C	-1.4343723086	-0.542559853	 0.1504899501	 0.317276
C	-2.4784335912	 0.1813684845	 0.9855681276	-0.454022
C	-1.8886171792	-1.1284493983	-1.1825479481	-0.392743
C	-1.5872231352	-2.0411455947	-0.0129852572	 0.349758
C	-0.4155497069	-2.9991762928	-0.0555172943	-0.445041
O	-2.6912282185	-2.5885892924	 0.6722683745	-0.461794
H	 1.0585104759	 1.881017454	-0.2897781072	 0.108531
H	-0.3366396126	 1.5716196298	-1.3344688498	 0.115955
H	-0.5738331025	 2.1968818515	 0.3019667783	 0.119377
H	 0.6680444046	-0.5356179089	-0.3496856098	 0.090541
H	 0.3088963798	 0.0482065131	 1.2630849136	 0.095091
H	-2.6638994244	 1.1876334379	 0.5962974629	 0.110067
H	-3.4219108534	-0.3639976866	 0.9954126636	 0.131659
H	-2.1420708027	 0.2828889941	 2.0244088314	 0.109222
H	-2.9311530668	-1.0030736885	-1.4571922102	 0.104477
H	-1.1945772984	-1.1108760477	-2.0180220968	 0.100465
H	 0.4334231697	-2.603638883	-0.6161272503	 0.118832
H	-0.0810998457	-3.247808674	 0.9569534341	 0.124619
H	-0.7186249851	-3.9334663144	-0.5453229039	 0.10343
H	-3.0320803438	-3.3149538008	 0.1388415246	 0.2785
82.1433	140.2136	187.7132	195.7705	226.0969	231.1309	277.7043	309.1344	341.3454	372.3065	409.803	415.5256	458.8088	558.0866	685.3053	709.0709	789.9676	873.7241	907.0751	924.2993	953.8717	983.039	1019.585	1035.0564	1050.7144	1067.6386	1090.0863	1135.3723	1196.9878	1217.188	1286.1076	1302.0405	1321.599	1365.2937	1401.2415	1407.7529	1414.0047	1423.9527	1472.6048	1483.7705	1490.9337	1493.3564	1499.9367	1506.1248	1510.7109	1512.6215	3016.7555	3024.7747	3031.5772	3036.2867	3071.1758	3085.589	3087.9997	3101.6161	3112.3531	3115.3353	3131.332	3147.8528	3204.8126	3794.7255
CCC1(C)CC1(C)O	CC[C@@]1(C)C[C@]1(C)O	
InChI=1S/C7H14O/c1-4-6(2)5-7(6,3)8/h8H,4-5H2,1-3H3	InChI=1S/C7H14O/c1-4-6(2)5-7(6,3)8/h8H,4-5H2,1-3H3/t6-,7-/m0/s1
