18
gdb 20788	2.98284	1.83192	1.24592	2.6511	74.18	-0.2217	0.0286	0.2503	1011.1854	0.155059	-344.021319	-344.01288	-344.011936	-344.055037	30.104	
C	-0.0355290443	 1.6356824425	 0.1901033171	-0.365617
C	-0.0116934673	 0.1052554937	 0.0195698624	-0.302529
C	-1.3739335202	-0.5074384659	-0.0769828033	 0.287876
C	-2.1871314139	-0.7939367972	-1.1637947801	 0.122498
C	-1.8959107522	-0.5745563116	-2.6173823117	-0.513519
C	-3.3614931288	-1.3319389435	-0.5864884495	-0.073328
N	-3.3009521127	-1.3823112444	 0.7402986996	-0.235129
N	-2.0877864221	-0.8714352494	 1.0233441988	-0.249767
H	 0.9809683552	 2.0359318729	 0.2564053388	 0.115294
H	-0.5372007148	 2.1140609303	-0.6560239379	 0.128
H	-0.5738174267	 1.9217994518	 1.0990091333	 0.119304
H	 0.5526616946	-0.1501564922	-0.8838033698	 0.11815
H	 0.5355730817	-0.3469088886	 0.8565685713	 0.104979
H	-2.3805062129	-1.3373757265	-3.2347122788	 0.128115
H	-2.2533374137	 0.4003649839	-2.9715786253	 0.127715
H	-0.8219063461	-0.6185489411	-2.8261523378	 0.120684
H	-4.2451357556	-1.691529277	-1.0954720447	 0.102211
H	-1.7919071102	-0.8244052575	 1.9839490677	 0.265063
44.7992	70.0243	150.8428	198.8933	256.216	270.5008	377.0844	409.567	508.2193	625.8082	684.5846	693.8757	726.5922	784.4983	882.3755	951.4197	971.5709	1001.0572	1057.0829	1063.0079	1082.481	1142.6516	1190.0008	1240.505	1262.0368	1333.1355	1354.7046	1377.1611	1408.8974	1420.8668	1446.5691	1480.3662	1487.6198	1495.9922	1499.0265	1505.6901	1523.076	1626.0113	3022.7152	3026.2633	3038.5038	3068.9806	3075.0398	3100.9165	3110.1688	3116.8207	3232.7574	3666.0218
CCC1=C(C)C=NN1	CCc1c(C)cn[nH]1	
InChI=1S/C6H10N2/c1-3-6-5(2)4-7-8-6/h4H,3H2,1-2H3,(H,7,8)	InChI=1S/C6H10N2/c1-3-6-5(2)4-7-8-6/h4H,3H2,1-2H3,(H,7,8)
