20
gdb 99885	2.28604	1.27007	1.13997	3.109	78.33	-0.2759	0.0282	0.3041	1210.885	0.169658	-403.149379	-403.13951	-403.138566	-403.183917	36.447	
C	 0.0535443178	 1.6365151811	 0.1357464641	-0.407464
C	-0.0017487539	 0.1009808893	-0.015002598	 0.050122
C	 0.7370532843	-0.5794048065	 1.176289975	-0.072672
O	 0.2025584988	-0.2385529708	 2.4352227283	-0.420414
C	-1.4044820284	-0.3370246216	 0.0501718362	 0.262607
N	-2.4983296594	-0.6997383467	 0.150068994	-0.364198
C	 0.6496192519	-0.3405983889	-1.3266811882	 0.004503
C	 0.3168988598	-1.6433875898	-2.0084198163	-0.285751
C	-0.085968815	-0.3339945467	-2.6411125846	-0.286581
H	 1.0924940635	 1.9689595942	 0.0466183561	 0.120462
H	-0.534170514	 2.1287878882	-0.6423711684	 0.132782
H	-0.3218201247	 1.9355742531	 1.1159537444	 0.145638
H	 0.7502737005	-1.6657674242	 1.01356553	 0.10944
H	 1.7729302378	-0.224549252	 1.1747370895	 0.115997
H	-0.671569476	-0.6390453495	 2.5083404356	 0.298247
H	 1.692287247	-0.0356087428	-1.3666955914	 0.093333
H	 1.1299258858	-2.2080732237	-2.4501658048	 0.116855
H	-0.4752139582	-2.2523315158	-1.5861622161	 0.135219
H	-1.1413172752	-0.0834441741	-2.6315871809	 0.134661
H	 0.4478960476	 0.0071268172	-3.5206803344	 0.117214
79.476	114.5125	144.4988	162.3306	196.9952	229.3641	263.0524	301.2711	373.4752	397.4838	431.8677	445.023	591.8343	614.7935	692.845	789.0036	833.7343	850.9905	914.1485	929.6707	954.1444	984.5194	1064.6505	1081.9961	1086.3052	1091.81	1133.9022	1139.7394	1166.7569	1200.5697	1204.5113	1241.1915	1290.321	1382.7725	1387.699	1406.1131	1423.2827	1470.1426	1485.854	1497.31	1501.6032	1506.8518	2343.7839	3012.0968	3048.3025	3082.5693	3122.132	3136.3012	3136.614	3141.3051	3145.5225	3216.6712	3230.0991	3797.2919
CC(CO)(C#N)C1CC1	C[C@@](CO)(C#N)C1CC1	
InChI=1S/C7H11NO/c1-7(4-8,5-9)6-2-3-6/h6,9H,2-3,5H2,1H3	InChI=1S/C7H11NO/c1-7(4-8,5-9)6-2-3-6/h6,9H,2-3,5H2,1H3/t7-/m0/s1
