20
gdb 115779	2.71727	0.95664	0.80251	4.1113	77.4	-0.25	0.0285	0.2785	1459.195	0.170807	-440.292258	-440.28262	-440.281676	-440.327925	34.566	
O	-0.0234846557	 1.3117901171	-0.1538619655	-0.418775
C	 0.028992118	-0.0999522384	-0.2896296541	-0.086099
C	-1.3269185313	-0.649688136	 0.1198748827	-0.00646
C	-2.4656863094	-0.3261388228	-0.8898629738	-0.220824
C	-2.3197767002	-1.7534508017	-1.487251636	-0.254507
C	-1.5471708979	-2.1636603184	-0.2077172943	 0.048545
N	-0.4198419113	-3.0576052442	-0.3401887941	-0.288593
C	-0.185874316	-4.1064666748	 0.497672306	 0.150206
O	-0.8611192656	-4.3999518151	 1.4603766631	-0.319376
H	 0.8413173775	 1.6694780684	-0.3749047256	 0.287213
H	 0.2602736868	-0.3839502557	-1.331769878	 0.067325
H	 0.8127424759	-0.5371243447	 0.3483381863	 0.092547
H	-1.513499138	-0.3661231061	 1.1589284764	 0.084333
H	-3.4282139279	-0.1810859007	-0.3942665562	 0.107737
H	-2.2865794968	 0.5190141456	-1.5563407207	 0.112855
H	-3.2272963038	-2.3139858196	-1.7219941635	 0.108232
H	-1.6737894849	-1.7627221992	-2.371574018	 0.094558
H	-2.2047743615	-2.6171156086	 0.534737476	 0.125733
H	 0.2074484592	-2.9339637351	-1.1195416057	 0.243907
H	 0.713301563	-4.67926429	 0.1932864748	 0.071442
32.0091	101.1286	111.7046	147.2929	203.6816	219.8161	260.3819	305.0528	396.3104	419.1239	535.4593	552.3397	649.719	743.7681	819.9016	851.5694	896.3766	928.7745	948.5914	970.9366	1028.7368	1061.8231	1073.0601	1093.4719	1113.7643	1160.5023	1191.8897	1218.5312	1238.9275	1249.9689	1260.0152	1261.3957	1285.4512	1307.4606	1359.521	1372.0749	1432.7502	1462.1768	1483.6157	1499.9915	1521.5829	1528.8991	1807.8068	2929.2855	2939.3284	2991.0059	3048.0063	3070.6974	3079.5138	3102.569	3119.9993	3131.1232	3627.0667	3829.7879
OCC1CCC1NC=O	OC[C@H]1CC[C@H]1NC=O	
InChI=1S/C6H11NO2/c8-3-5-1-2-6(5)7-4-9/h4-6,8H,1-3H2,(H,7,9)	InChI=1S/C6H11NO2/c8-3-5-1-2-6(5)7-4-9/h4-6,8H,1-3H2,(H,7,9)/t5-,6-/m1/s1
