17
gdb 97714	5.15697	0.69516	0.67871	1.2993	80.64	-0.2399	0.0139	0.2539	1671.5008	0.134684	-421.715721	-421.707077	-421.706133	-421.750702	31.494	
O	 0.0878065136	 1.2991673829	-0.406125227	-0.398533
C	-0.0296238446	-0.0003403636	 0.1522628453	-0.21951
C	-1.3832555081	-0.5478313027	 0.0865071519	 0.413076
C	-2.5166767909	-0.9575575124	 0.0524401519	-0.42251
C	-3.8530890175	-1.4590173989	-0.0191530526	 0.344329
C	-5.0221696674	-1.0289619557	-0.9556831878	-0.247544
C	-5.5643939604	-2.0012548325	 0.1150627393	 0.020796
C	-4.3529036812	-2.9323062497	-0.1124427473	-0.248903
O	-4.7822247272	-1.2723934836	 1.1403479584	-0.339407
H	-0.5711981745	 1.8578988959	 0.019324598	 0.290697
H	 0.6571480845	-0.6349437615	-0.4189422041	 0.145261
H	 0.3139672887	-0.0247078062	 1.1989161376	 0.126337
H	-5.3341278578	 0.0094455493	-0.8437551637	 0.114864
H	-4.9856630122	-1.3621542638	-1.9955057647	 0.101643
H	-6.5939725166	-2.2542991732	 0.3611322459	 0.102298
H	-4.2556427347	-3.4391809888	-1.0754410079	 0.101168
H	-4.0791926538	-3.5579465553	 0.7371235868	 0.115939
25.777	76.7958	100.6953	192.9866	278.0269	342.5748	398.5172	478.7642	480.9399	539.1035	600.5987	614.2489	722.7364	796.6504	872.9228	916.7	939.0529	940.4272	984.8257	985.5016	1030.5201	1070.9286	1078.7427	1088.8245	1113.5186	1164.4806	1215.1939	1218.992	1235.6771	1238.0434	1340.4723	1359.3294	1416.8012	1465.8559	1485.3035	1507.7935	2352.6466	2978.6361	3064.0226	3064.3459	3072.7231	3140.6056	3154.0829	3158.603	3815.3231
OCC#CC12CC(C1)O2	OCC#C[C@@]12C[C@@H](C1)O2	
InChI=1S/C7H8O2/c8-3-1-2-7-4-6(5-7)9-7/h6,8H,3-5H2	InChI=1S/C7H8O2/c8-3-1-2-7-4-6(5-7)9-7/h6,8H,3-5H2/t6-,7+
