20
gdb 111641	2.62768	1.3944	1.27543	1.9843	78.36	-0.2442	0.0302	0.2744	1119.1819	0.172701	-403.148022	-403.139673	-403.138728	-403.181375	31.616	
C	 0.3635304575	 1.3516709418	-0.2911003831	-0.37606
C	-0.1545115094	-0.0423674664	 0.0843637745	-0.209801
C	 0.5523406046	-0.6108533628	 1.2987026616	-0.040989
C	 0.700737572	-2.1044361351	 1.5505498061	-0.133752
C	 0.2604379676	-3.1380547616	 0.5244606709	-0.178663
N	 1.0724846239	-3.238092859	-0.6836510543	-0.26272
C	 2.0456844872	-2.4537505942	-0.8517176428	 0.121579
O	 2.5026366781	-1.443798003	-0.0647925633	-0.219264
C	 1.9020777831	-1.2733629874	 1.2005617631	 0.084168
H	 1.4254354571	 1.3123215093	-0.551591509	 0.129232
H	-0.1823970383	 1.757529613	-1.1483661948	 0.111898
H	 0.2481806384	 2.0550046151	 0.5410375784	 0.111387
H	-1.2305073785	 0.0069634718	 0.294204982	 0.099731
H	-0.0451698326	-0.7148135496	-0.7719217884	 0.119687
H	 0.424886417	-0.011680063	 2.1982961889	 0.086657
H	 0.622736416	-2.4289237454	 2.5834655145	 0.092339
H	 0.2710795004	-4.1265681495	 0.9982853833	 0.118998
H	-0.7788448066	-2.9729532162	 0.2111009459	 0.115984
H	 2.6623391846	-2.5152492602	-1.74618514	 0.123983
H	 2.6659122378	-1.0614939074	 1.9399171363	 0.105607
63.6311	114.8224	138.1756	204.1634	266.0041	286.9078	466.0023	487.9319	507.3611	592.2132	617.8467	753.6766	761.9244	806.7694	827.7254	910.7585	931.6931	961.1306	972.4302	991.2774	1005.5875	1036.2994	1076.7915	1111.186	1116.7823	1139.5008	1156.7849	1200.8856	1248.1269	1275.66	1296.5198	1340.3373	1354.0594	1358.0789	1394.3549	1407.9747	1417.0843	1450.098	1483.1508	1490.7549	1498.7873	1508.2887	1743.8288	3017.7631	3029.0007	3034.0784	3049.0081	3076.6063	3102.5361	3113.2956	3124.4075	3150.3501	3162.2147	3174.4001
CCC1C2CN=COC12	CC[C@H]1[C@H]2CN=CO[C@@H]12	
InChI=1S/C7H11NO/c1-2-5-6-3-8-4-9-7(5)6/h4-7H,2-3H2,1H3	InChI=1S/C7H11NO/c1-2-5-6-3-8-4-9-7(5)6/h4-7H,2-3H2,1H3/t5-,6+,7-/m0/s1
