19
gdb 71944	2.76085	1.96517	1.46927	1.9475	73.86	-0.2427	0.0742	0.3169	945.6292	0.16027	-423.005527	-422.998187	-422.997243	-423.037117	29.495	
C	 0.0420906588	 1.5096060159	 0.04117116	-0.472789
C	-0.0420049501	 0.0011270847	-0.0520809972	 0.412358
C	 0.7686768937	-0.6335067297	-1.183557759	-0.106464
O	 0.1514158791	-1.8761357284	-1.5138739098	-0.27449
C	-1.0533234926	-2.0517499578	-0.7855627399	 0.104511
C	-0.8955560254	-2.7220079972	 0.6182640214	-0.259327
C	-0.990728337	-1.3274249589	 1.2680227359	 0.107007
O	 0.2720954397	-0.6259215682	 1.2306988653	-0.347381
C	-1.4124196542	-0.7086129885	-0.0908100243	-0.188876
H	 1.074186845	 1.821329236	 0.2345826173	 0.130502
H	-0.2901941014	 1.9790249381	-0.8904256526	 0.118868
H	-0.5792387604	 1.8773312092	 0.8617896722	 0.12677
H	 0.7802984165	 0.0129748437	-2.0723555303	 0.092094
H	 1.8027123849	-0.805859895	-0.862332345	 0.11279
H	-1.7906553726	-2.5111824563	-1.4475141685	 0.081915
H	-1.7640118434	-3.343011246	 0.8618300865	 0.098431
H	 0.0244497296	-3.2829561574	 0.7940269342	 0.112124
H	-1.5041766535	-1.2031423902	 2.2234752796	 0.077629
H	-2.3270976867	-0.166061824	-0.3176070557	 0.074328
93.1312	210.5848	242.8956	279.3505	370.4912	374.1202	424.8025	561.3565	660.4182	676.4483	776.5129	808.1765	847.3081	864.5214	888.2444	912.1307	932.9669	962.8863	976.2555	978.9417	1011.8542	1037.1646	1092.7864	1136.6029	1156.8359	1161.0641	1168.7726	1217.3325	1228.0667	1235.9179	1260.2868	1277.3206	1298.2179	1322.7163	1352.7736	1399.6547	1407.8154	1451.7768	1481.834	1493.1325	1505.8227	3002.8901	3036.4595	3050.4622	3057.8592	3082.894	3089.0638	3105.0374	3119.8653	3124.336	3142.0644
CC12COC3CC(O1)C23	C[C@@]12CO[C@H]3C[C@@H](O1)[C@@H]23	
InChI=1S/C7H10O2/c1-7-3-8-4-2-5(9-7)6(4)7/h4-6H,2-3H2,1H3	InChI=1S/C7H10O2/c1-7-3-8-4-2-5(9-7)6(4)7/h4-6H,2-3H2,1H3/t4-,5+,6-,7-/m0/s1
