21
gdb 62560	1.84307	1.60949	1.60319	1.9468	79.01	-0.2258	0.0609	0.2867	1081.2243	0.180204	-424.199366	-424.189675	-424.188731	-424.232732	37.682	
C	-0.0701644448	 1.5702432677	-0.0668582961	-0.453911
C	 0.0742307744	 0.0670382889	-0.0695637295	 0.328986
O	-1.0540134261	-0.5331290409	 0.5200762189	-0.485825
C	 0.6903632693	-0.7658682128	-1.1940616445	 0.217118
C	-0.0771391817	-1.8285783363	-1.9248767634	-0.493445
C	 1.9382101107	-0.0628278442	-1.7559966807	-0.287539
C	 2.5986656037	-0.0684000818	-0.3369362225	-0.309026
C	 1.3338968857	-0.7222868146	 0.2046548954	 0.253803
O	 1.3023957504	-1.72476727	 1.1767661934	-0.468565
H	 0.7755130059	 2.0725106808	-0.541240692	 0.116304
H	-0.9796199631	 1.8581080488	-0.6047927367	 0.127178
H	-0.1607241216	 1.9421733998	 0.9591077555	 0.114627
H	-0.7249943653	-1.2665188123	 1.0588442835	 0.281786
H	-0.4832196548	-1.4288681367	-2.8623351059	 0.116784
H	 0.5576192774	-2.6850131932	-2.1787606228	 0.113397
H	-0.9178934002	-2.1827030781	-1.3244284193	 0.130412
H	 2.4830353105	-0.694140271	-2.4623503205	 0.10619
H	 1.7786586941	 0.9152519055	-2.2195931945	 0.098553
H	 3.4554114695	-0.744948188	-0.291941811	 0.110365
H	 2.8859028863	 0.8962627373	 0.0944578525	 0.093535
H	 1.5223254197	-1.3244275191	 2.0276844604	 0.289273
161.6638	171.4426	179.5743	202.5191	219.4952	256.2784	275.8945	290.3942	319.3555	408.913	440.6742	513.1867	524.2823	556.2801	652.4995	667.4607	693.7126	711.9227	808.8971	923.0376	944.5768	965.6871	997.8353	1041.0369	1092.3473	1116.5273	1134.7768	1173.4251	1196.6457	1208.2799	1227.5187	1236.649	1271.8185	1286.7426	1316.1052	1383.0118	1406.8591	1409.9292	1464.1241	1472.2693	1489.4787	1490.5404	1494.4835	1504.3604	1519.1504	3023.3217	3037.6535	3041.8062	3053.1642	3076.5748	3092.5312	3096.6427	3110.5605	3124.1398	3127.9332	3730.4197	3764.1671
CC1(O)C2(C)CCC12O	C[C@@]1(O)[C@@]2(C)CC[C@@]12O	
InChI=1S/C7H12O2/c1-5-3-4-7(5,9)6(5,2)8/h8-9H,3-4H2,1-2H3	InChI=1S/C7H12O2/c1-5-3-4-7(5,9)6(5,2)8/h8-9H,3-4H2,1-2H3/t5-,6-,7+/m1/s1
