20
gdb 120701	2.98941	0.84407	0.77752	2.6699	76.16	-0.2474	0.016	0.2634	1567.6634	0.169581	-440.308486	-440.29848	-440.297536	-440.344227	36.089	
C	-1.0264797414	 1.299307386	-0.5751504681	-0.382467
C	-0.5178282565	-0.139438111	-0.4600467992	-0.162495
C	 0.8883916798	-0.3224283051	-1.0503279084	-0.222054
C	 1.384262155	-1.7392732217	-0.9097151112	 0.078992
O	 0.8242114156	-2.7421836511	-1.7736086742	-0.269182
C	 2.2209176112	-2.4501352501	-1.8975810919	-0.054341
C	 2.7049841918	-1.8211736158	-3.1842608379	 0.35562
N	 1.7190748834	-1.5643409332	-4.0860664876	-0.516794
O	 3.884049578	-1.5843987321	-3.359049705	-0.360484
H	-0.3666398872	 1.9971381649	-0.0478208238	 0.11679
H	-1.0758699161	 1.6197717254	-1.621665173	 0.116306
H	-2.0288146094	 1.401101647	-0.148250513	 0.115448
H	-0.5117624675	-0.4452752197	 0.5943845814	 0.097891
H	-1.2077729608	-0.821523302	-0.9713725324	 0.109938
H	 0.8944825928	-0.0282355526	-2.1043190617	 0.11214
H	 1.596816278	 0.3379222468	-0.5321449521	 0.110141
H	 1.4820655205	-2.0839112149	 0.1222165065	 0.100068
H	 2.8982510874	-3.2210703199	-1.5335883065	 0.118698
H	 0.7919080834	-1.9175066362	-3.9156634778	 0.271881
H	 1.9768641119	-1.2368962246	-5.0021912239	 0.263904
59.9625	75.8393	89.0534	128.9199	199.2989	246.4909	262.4108	332.8818	334.3005	442.4044	455.9189	502.8451	547.9842	642.9725	744.9499	750.4849	800.8356	830.1838	892.8089	909.7597	946.5426	1010.6089	1051.4596	1078.7401	1096.2716	1113.1381	1150.1595	1179.5409	1264.6976	1275.5483	1308.9496	1330.9258	1343.7775	1389.6042	1399.4025	1414.5362	1469.0505	1480.4654	1493.6854	1499.7613	1510.6918	1596.1891	1805.033	3020.7395	3026.9246	3031.6779	3055.9371	3080.4101	3094.2459	3101.6807	3105.3848	3134.0082	3593.8635	3733.6594
CCCC1OC1C(N)=O	CCC[C@H]1O[C@H]1C(=O)N	
InChI=1S/C6H11NO2/c1-2-3-4-5(9-4)6(7)8/h4-5H,2-3H2,1H3,(H2,7,8)	InChI=1S/C6H11NO2/c1-2-3-4-5(9-4)6(7)8/h4-5H,2-3H2,1H3,(H2,7,8)/t4-,5-/m1/s1
