24
gdb 105219	1.82464	1.40352	1.08743	2.8834	85.51	-0.232	0.0742	0.3061	1309.604	0.215575	-405.521033	-405.510349	-405.509405	-405.556226	40.162	
C	-1.6004858209	-2.2391144964	 0.0398647496	-0.398921
C	-0.3257856952	-1.3808293957	-0.0351605643	-0.037856
C	-0.6090360355	-0.037745763	-0.7308468017	-0.404065
C	 0.3124440212	-1.2220089805	 1.3456649192	 0.31111
C	-0.4992236077	-0.4582769237	 2.4002217621	-0.12125
O	 0.2367961586	-0.2602803225	 3.5846460187	-0.425749
C	 1.2331077532	-2.2919163655	 1.8330845293	-0.293839
N	 1.7527969329	-0.9631825484	 1.5111489909	-0.14661
C	 2.6634485172	-0.8213326646	 0.3863753051	-0.323786
H	-2.393189532	-1.7349988328	 0.6023167962	 0.122911
H	-1.9880411092	-2.4369993659	-0.9647110972	 0.112369
H	-1.4052058672	-3.2012144118	 0.5233904794	 0.118149
H	 0.3889719038	-1.9293398975	-0.6593658001	 0.073041
H	-1.3940251322	 0.5267008747	-0.2182468173	 0.12364
H	 0.282884435	 0.594290106	-0.7735974114	 0.117702
H	-0.9480631508	-0.208313779	-1.7578450892	 0.113145
H	-0.8283986313	 0.5043393187	 1.9757420479	 0.083458
H	-1.4004314969	-1.0249533955	 2.6611654481	 0.104599
H	 1.1450593956	-0.1061734812	 3.2756605993	 0.283149
H	 1.2553208363	-2.5639311161	 2.8844229536	 0.125699
H	 1.464490648	-3.0993615137	 1.138666397	 0.102179
H	 2.4592997866	-1.498019256	-0.4562669327	 0.106972
H	 2.6354912684	 0.2085033918	 0.0168377499	 0.126969
H	 3.680337262	-1.0251289813	 0.7372803177	 0.126983
62.9636	116.1319	166.7885	204.9905	213.7736	223.0286	241.3991	250.8208	264.4905	315.1251	348.4392	445.3403	474.7155	528.1284	546.3411	602.5592	679.7138	753.0322	861.642	913.891	928.8296	931.5809	967.367	1029.0481	1043.3482	1073.8812	1112.121	1125.7099	1130.5079	1147.9286	1172.4083	1195.5665	1212.48	1245.2921	1272.5372	1313.3486	1342.1357	1365.1954	1399.6276	1415.6192	1422.1323	1449.0423	1459.5756	1485.7412	1491.483	1496.6128	1500.1909	1503.6511	1506.8048	1511.0608	1517.38	2965.0494	2989.8087	3031.9817	3033.6295	3039.2521	3054.9529	3070.122	3086.4955	3100.444	3101.9088	3105.9899	3107.389	3112.6888	3183.708	3661.3779
CC(C)C1(CO)CN1C	CC(C)[C@@]1(CO)CN1C	
InChI=1S/C7H15NO/c1-6(2)7(5-9)4-8(7)3/h6,9H,4-5H2,1-3H3	InChI=1S/C7H15NO/c1-6(2)7(5-9)4-8(7)3/h6,9H,4-5H2,1-3H3/t7-,8?/m0/s1
