19
gdb 92423	2.19102	1.57148	1.20534	3.0076	75.98	-0.2461	-0.0284	0.2177	1102.7264	0.158522	-423.007902	-422.999331	-422.998387	-423.041315	32.404	
O	 0.6209525182	 0.860375883	-0.8360952566	-0.42426
C	 0.1693667596	-0.1940045359	-0.0335983534	 0.086312
C	 0.1923079105	-0.079299405	 1.5148987955	-0.28752
C	-1.2095140815	-0.7475681675	 1.5762249078	-0.068603
C	-2.3824042538	 0.2356973467	 1.7725061087	-0.213627
C	-2.3415473527	 0.5943839018	 0.2580331999	-0.307643
C	-1.3415421517	-0.5602913082	-0.0072517156	 0.234541
C	-1.8088916126	-1.6738646086	-0.8820750965	 0.062809
O	-2.9020720579	-1.7517946582	-1.3887678248	-0.258054
H	 0.163945164	 1.6647033228	-0.567906894	 0.283774
H	 0.7395748353	-1.0726523016	-0.356647661	 0.095779
H	 1.010739547	-0.6004518388	 2.0154432203	 0.111593
H	 0.1798642925	 0.956845175	 1.8704433159	 0.098441
H	-1.2590369867	-1.7286107508	 2.0485403227	 0.079611
H	-3.3110695402	-0.2711699273	 2.0460839409	 0.114852
H	-2.2076937343	 1.0472838771	 2.4848981189	 0.100278
H	-3.2818364974	 0.4597929965	-0.2775412898	 0.139713
H	-1.95574637	 1.5921106871	 0.0259751457	 0.083506
H	-1.0562650982	-2.4850367481	-1.0269654245	 0.068498
78.7222	87.7629	199.5275	227.8453	249.3128	280.2925	334.9477	400.5946	478.7636	538.0423	603.362	700.1872	750.3633	775.5758	834.5481	841.6154	900.6737	947.9423	970.6593	1002.0104	1021.771	1055.0733	1072.8509	1122.3199	1144.2124	1175.4287	1189.2585	1197.268	1238.22	1246.2888	1256.5318	1276.7453	1300.2867	1319.0684	1340.0324	1423.8375	1430.7598	1475.9948	1479.2794	1495.2319	1807.4577	2848.5895	3042.6998	3047.9257	3050.7844	3055.7508	3101.4487	3106.758	3118.2934	3131.8133	3808.2365
OC1CC2CCC12C=O	O[C@H]1C[C@H]2CC[C@@]12C=O	
InChI=1S/C7H10O2/c8-4-7-2-1-5(7)3-6(7)9/h4-6,9H,1-3H2	InChI=1S/C7H10O2/c8-4-7-2-1-5(7)3-6(7)9/h4-6,9H,1-3H2/t5-,6+,7+/m1/s1
