13
gdb 129854	7.33893	0.83721	0.75984	5.8393	64.12	-0.2354	-0.0171	0.2183	1376.6367	0.088705	-489.894023	-489.886071	-489.885127	-489.927076	28.441	
N	 0.0246631919	 1.3356864749	 0.2609399677	-0.59164
C	-0.0726352744	-0.0081375221	 0.0305336106	 0.528862
C	-1.1215823359	-0.887308976	 0.0213358505	-0.486023
C	-0.4699258973	-2.1210949998	-0.2080059849	 0.519349
O	-1.1178159537	-3.3101656472	-0.31629659	-0.229358
C	-0.4522294265	-4.453401992	 0.0673998276	 0.163399
O	-0.9317954477	-5.5254020417	-0.1126937145	-0.249393
N	 0.8317740062	-2.0295228779	-0.3413973753	-0.248809
O	 1.0867536158	-0.6516293494	-0.1740505638	-0.217763
H	 0.8716860449	 1.7648815176	-0.0825507549	 0.274
H	-0.8071933528	 1.8725274412	 0.071712858	 0.272977
H	-2.1710142033	-0.702152917	 0.1638688208	 0.128206
H	 0.5128190428	-4.2324161606	 0.5450736083	 0.136193
62.8212	120.9761	168.0326	240.6955	282.006	342.0659	420.3926	445.169	529.5578	539.7009	683.2389	709.516	720.5809	763.1115	838.0595	941.7072	1017.4659	1040.696	1061.9334	1081.4251	1087.125	1206.4039	1367.3112	1404.509	1499.9372	1551.6332	1626.5312	1680.7323	1882.5666	3054.6148	3296.1405	3580.9118	3689.3666
NC1=CC(OC=O)=NO1	Nc1cc(OC=O)no1	
InChI=1S/C4H4N2O3/c5-3-1-4(6-9-3)8-2-7/h1-2H,5H2	InChI=1S/C4H4N2O3/c5-3-1-4(6-9-3)8-2-7/h1-2H,5H2
