18
gdb 95274	2.72265	1.82431	1.31428	1.782	71.28	-0.2546	0.0175	0.2721	987.8137	0.150125	-439.112371	-439.105038	-439.104094	-439.1442	28.421	
C	 0.0187764347	 1.5683943325	-0.0454968358	-0.401185
C	 0.1593632867	 0.0591904202	-0.0292088118	 0.132424
O	 1.0186061284	-0.351396	-1.0922282758	-0.255376
C	 1.3604681778	-1.6996042222	-0.8334057778	-0.111033
C	 1.5776310202	-1.7897384962	 0.6806090561	 0.070895
O	 2.9532074707	-1.5073860366	 1.0353920454	-0.226954
C	 2.9285237548	-0.3075364409	 1.661327173	 0.113944
N	 1.8266293246	 0.2867158381	 1.8544928785	-0.257967
C	 0.79395795	-0.5626340994	 1.243300636	-0.049928
H	 0.9885449853	 2.0419375731	 0.1155668743	 0.140539
H	-0.3868589149	 1.8949527618	-1.0067274367	 0.121023
H	-0.6592292617	 1.8943633704	 0.7485218397	 0.119275
H	-0.8299626137	-0.4123902309	-0.1688142787	 0.063108
H	 0.5424680291	-2.3792075454	-1.1267429598	 0.090525
H	 2.2567507931	-1.9538484154	-1.4031337737	 0.123956
H	 1.3213683182	-2.7635045154	 1.1007301524	 0.096216
H	 3.9023202553	 0.052608827	 1.974533565	 0.143307
H	 0.0314213514	-0.8088966206	 1.9863820797	 0.087232
99.9189	186.9451	215.5475	237.1933	315.724	410.2713	483.4866	530.6522	613.7656	725.0117	810.3456	833.5933	864.0503	872.926	891.3101	939.0251	966.0798	974.703	1009.849	1060.0995	1084.5171	1106.0538	1120.9463	1146.7774	1168.716	1230.6116	1262.8778	1284.6632	1309.0684	1327.0438	1351.7628	1364.1889	1383.4045	1396.3791	1414.6973	1483.2221	1490.7963	1497.0141	1701.2585	2938.6051	2965.8473	3052.9648	3076.2981	3104.1071	3110.4242	3122.4933	3146.3892	3215.6962
CC1OCC2OC=NC12	C[C@H]1OC[C@H]2OC=N[C@@H]12	
InChI=1S/C6H9NO2/c1-4-6-5(2-8-4)9-3-7-6/h3-6H,2H2,1H3	InChI=1S/C6H9NO2/c1-4-6-5(2-8-4)9-3-7-6/h3-6H,2H2,1H3/t4-,5-,6+/m1/s1
