13
gdb 21645	5.80529	1.64697	1.28529	4.269	66.74	-0.2015	-0.0712	0.1303	878.4936	0.098393	-390.965469	-390.958696	-390.957752	-390.996569	25.582	
N	-0.0360583241	 1.3750979957	 0.1403275993	-0.569666
C	-0.0265728497	-0.0140167247	 0.039619523	 0.342941
N	-1.1452412686	-0.672227263	 0.0375992308	-0.239385
N	-1.0385551883	-2.0136766419	 0.0453873283	-0.251579
C	 0.1344611561	-2.7608016871	-0.012938824	 0.436478
N	 0.061992332	-4.0344912364	-0.0595678211	-0.564296
N	 1.324230397	-2.0109444485	-0.008272665	-0.277542
C	 1.2347261095	-0.7280780113	 0.023308892	-0.016953
H	 0.6474419046	 1.8411674707	-0.4413937504	 0.255401
H	-0.9609646505	 1.76344006	 0.0062126152	 0.259692
H	-1.9123252538	-2.5171850605	 0.0471235882	 0.279082
H	 1.0053758563	-4.4156044385	-0.0843607957	 0.22285
H	 2.1629062896	-0.1535186546	 0.0404468294	 0.122975
59.7836	269.4563	326.57	341.742	360.9346	460.0272	496.0986	525.3104	645.0462	650.8111	706.2073	752.9839	816.3017	825.8719	837.2937	982.2334	998.3448	1059.254	1127.8257	1268.3828	1326.4505	1355.2418	1437.8169	1472.2804	1585.2706	1637.7308	1692.8551	1723.2582	3110.8361	3520.794	3542.1055	3632.0285	3642.5413
NC1=NNC(=N)N=C1	Nc1n[nH]c([NH])nc1	
InChI=1S/C3H5N5/c4-2-1-6-3(5)8-7-2/h1H,(H2,4,7)(H2,5,6,8)	InChI=1S/C3H10N5/c4-2-1-6-3(5)8-7-2/h2-3,5-8H,1,4H2
