19
gdb 92122	2.75676	1.60624	1.23493	2.3268	75.1	-0.2433	0.0612	0.3045	1057.231	0.15861	-422.971952	-422.963987	-422.963042	-423.004437	31.082	
C	 0.2269344528	 1.4865162986	-0.3571282314	-0.404074
C	 0.0348695151	 0.0453325938	 0.0661044147	 0.150208
O	 0.7284590863	-0.9058705073	-0.7922347763	-0.31262
C	 1.3250780264	-1.5702465921	 0.3334531066	 0.121387
C	 2.7624611507	-1.0652059399	 0.620185099	-0.335876
C	 2.1517548079	-0.0588505837	 1.6121079224	 0.449176
C	 2.7065957816	 0.418020455	 2.8809546388	-0.266194
O	 2.5495818524	 1.2939399659	 1.7570652869	-0.266288
C	 0.7226305729	-0.5299214991	 1.3289325018	-0.212818
H	 1.2809167762	 1.7685845525	-0.3621359991	 0.142766
H	-0.1819598601	 1.630668504	-1.3624854546	 0.122081
H	-0.3051292769	 2.1560007249	 0.3270236571	 0.117596
H	-1.0371350004	-0.1991545628	 0.0770956891	 0.075561
H	 1.1300037244	-2.6445505593	 0.3527083145	 0.078782
H	 3.4311984553	-1.7971679199	 1.0825724655	 0.105794
H	 3.2456125012	-0.6271768922	-0.2557537687	 0.125502
H	 2.0455542838	 0.6180568295	 3.7238090267	 0.115436
H	 3.7362729502	 0.1765746577	 3.1430547958	 0.116488
H	 0.0865392899	-0.7628324158	 2.1824412912	 0.077094
76.6518	143.5021	229.338	268.6744	301.6918	339.3693	395.7629	408.9416	512.3086	617.9038	672.5197	784.4961	824.696	851.6711	857.5266	880.9768	909.8335	949.3307	962.8969	1012.3416	1031.379	1079.7293	1096.5045	1118.1751	1131.0447	1141.1787	1162.3366	1178.2785	1186.4388	1228.4083	1252.0281	1273.8709	1304.9789	1335.0799	1389.7911	1412.5152	1427.5926	1459.8472	1481.881	1494.9005	1530.5325	2991.5425	3041.9889	3057.5394	3076.1663	3085.7564	3106.0607	3114.4572	3123.8297	3144.0431	3163.5259
CC1OC2CC3(CO3)C12	C[C@H]1O[C@H]2C[C@]3(CO3)[C@@H]12	
InChI=1S/C7H10O2/c1-4-6-5(9-4)2-7(6)3-8-7/h4-6H,2-3H2,1H3	InChI=1S/C7H10O2/c1-4-6-5(9-4)2-7(6)3-8-7/h4-6H,2-3H2,1H3/t4-,5+,6+,7+/m1/s1
