18
gdb 108893	3.10862	0.98022	0.78445	5.6929	79.29	-0.2511	0.0081	0.2592	1425.4827	0.147973	-401.973063	-401.96408	-401.963136	-402.007371	32.391	
O	 0.0497676606	 1.3874622682	 0.2665789456	-0.411169
C	 0.0479344104	 0.0072329693	-0.0389317344	-0.174489
C	-1.3522092363	-0.5123048949	-0.0300742625	 0.303718
C	-2.4538340537	 0.1797976298	 0.2532071899	-0.155571
C	-3.7052321952	-0.6682013569	 0.0934803406	-0.177717
C	-3.1360033732	-2.1190151247	 0.016219473	-0.226185
C	-1.661893669	-1.9423132347	-0.4162477532	-0.316113
C	-4.6844206709	-0.4928999081	 1.1678407973	 0.264115
N	-5.4570033123	-0.3580816362	 2.0171317665	-0.329888
H	 0.9625217748	 1.6840637603	 0.3193449245	 0.2933
H	 0.4975654015	-0.1905322753	-1.0288934958	 0.098571
H	 0.6461916281	-0.5705595199	 0.6880120237	 0.102231
H	-2.4870947055	 1.2270665715	 0.5192430253	 0.129476
H	-4.2167224162	-0.4044865613	-0.8439993582	 0.127884
H	-3.1791448393	-2.5675965032	 1.0116440505	 0.131702
H	-3.714901801	-2.7530577109	-0.6580319085	 0.115776
H	-1.5342385789	-2.0833132668	-1.4988664918	 0.113172
H	-0.9996653837	-2.6692175162	 0.0681607475	 0.111186
82.628	85.0042	136.7338	164.2609	220.5759	226.7118	292.8046	420.6189	438.7126	508.3662	550.6044	602.072	670.4487	833.5796	854.6842	870.8585	920.8699	970.9077	1002.1062	1015.013	1040.9789	1078.7308	1087.429	1154.4825	1178.5594	1214.9319	1232.4236	1256.9582	1272.6354	1286.6149	1302.3335	1341.1151	1362.974	1466.6847	1485.4339	1500.0922	1506.3991	1727.5188	2355.6709	2939.5796	2953.7713	2997.2834	3010.1193	3052.753	3076.2312	3123.7164	3239.5384	3840.3007
OCC1=CC(CC1)C#N	OCC1=C[C@@H](CC1)C#N	
InChI=1S/C7H9NO/c8-4-6-1-2-7(3-6)5-9/h3,6,9H,1-2,5H2	InChI=1S/C7H9NO/c8-4-6-1-2-7(3-6)5-9/h3,6,9H,1-2,5H2/t6-/m1/s1
