15
gdb 5631	3.68385	1.84249	1.282	3.7261	63.33	-0.1968	0.0251	0.222	909.0755	0.121193	-399.815353	-399.808341	-399.807397	-399.846481	26.961	
N	 0.1115097725	 1.4412100225	 0.0809354676	-0.519615
H	 0.4700209362	 0.5381691941	-0.2163061473	 0.244125
H	 1.5286973347	 2.2552457086	 1.1854371048	 0.298702
H	-0.3565313463	 1.8553107298	-0.718624043	 0.241073
C	-0.836934933	 1.2620864492	 1.2028448449	-0.294251
C	-0.0807845832	 0.8452591291	 2.4252509383	 0.135282
C	-0.4224370312	-0.0157700659	 3.4210684	-0.102635
O	 0.5382162617	-0.0660009531	 4.3711063991	-0.149121
C	 1.5473811392	 0.7757198641	 3.9758633135	-0.112052
C	 1.2171782648	 1.3594715285	 2.7914212546	 0.21234
O	 1.9404315715	 2.2480194913	 2.0737024381	-0.446719
H	-1.3120172404	 2.2385304151	 1.3655914944	 0.126156
H	-1.6468175116	 0.54975201	 0.9862312721	 0.104097
H	-1.2892177775	-0.6342240193	 3.5917284833	 0.130957
H	 2.4015345327	 0.841984606	 4.6259142594	 0.13166
112.5396	206.8915	245.6334	310.3538	364.5591	430.5518	465.5706	605.7493	643.7231	676.5573	721.8216	734.1382	740.5167	757.5677	888.6204	898.3814	1001.1156	1028.6771	1067.7779	1167.6966	1183.4097	1210.3095	1243.2435	1285.482	1335.6376	1359.6968	1417.9666	1480.0602	1506.5023	1594.1088	1649.6192	1698.6489	2989.2216	3031.632	3263.3759	3294.4499	3494.0106	3512.911	3578.9809
[NH3+]CC1=COC=C1[O-]	NCc1cocc1O	
InChI=1S/C5H7NO2/c6-1-4-2-8-3-5(4)7/h2-3,7H,1,6H2	InChI=1S/C5H7NO2/c6-1-4-2-8-3-5(4)7/h2-3,7H,1,6H2
