18
gdb 23047	2.85516	1.26161	1.02139	1.6673	76.54	-0.2421	-0.0088	0.2333	1202.6475	0.146542	-439.011288	-439.002649	-439.001705	-439.045435	31.802	
O	-0.2264336503	 1.4319774613	 0.1681878176	-0.388201
N	-0.0802291863	 0.0509423936	 0.3736183459	-0.237525
C	-1.1199445254	-0.5797037812	 0.0224569121	 0.357574
C	-2.4977321533	-0.2431412475	-0.5115675273	-0.331006
C	-2.8951406773	-1.7291449891	-0.2401676678	-0.302032
C	-1.4142377809	-2.0701099832	 0.0948249067	 0.382269
C	-0.5738959806	-3.076145524	-0.730799172	-0.346733
C	-0.2605025355	-3.7103713947	 0.6365496619	-0.071517
O	-1.1387358643	-2.7817661287	 1.3095040075	-0.308275
H	 0.6080610055	 1.7774593311	 0.5038229032	 0.307874
H	-3.0397333136	 0.5214161097	 0.050338736	 0.132284
H	-2.4971303905	 0.0461858749	-1.5668428623	 0.125952
H	-3.5239862627	-1.8463102991	 0.6451116595	 0.125733
H	-3.3368202453	-2.2820591339	-1.0720013729	 0.103146
H	-1.1621549186	-3.7000763127	-1.4064760903	 0.112452
H	 0.2724206824	-2.6462659882	-1.2670281329	 0.122937
H	-0.5802376295	-4.7487054258	 0.778769782	 0.103752
H	 0.7765875861	-3.6028688825	 0.9741995432	 0.111315
57.4308	68.1052	132.3346	181.1554	274.9946	317.0554	363.5909	441.9165	476.6828	517.375	599.0212	743.4412	766.5741	783.3594	866.3939	877.6067	902.5179	934.9934	972.8348	986.225	1027.6978	1066.8976	1099.0918	1144.9464	1156.3599	1172.5489	1189.8638	1214.6018	1222.344	1245.2467	1255.0561	1291.3948	1351.6821	1405.9814	1458.7237	1476.8091	1481.1741	1528.7204	1773.6373	3026.7487	3059.9883	3069.2134	3071.4597	3080.1096	3105.3092	3131.3016	3141.739	3812.3689
ON=C1CCC11CCO1	ON=C1CC[C@]21CCO2	
InChI=1S/C6H9NO2/c8-7-5-1-2-6(5)3-4-9-6/h8H,1-4H2	InChI=1S/C6H9NO2/c8-7-5-1-2-6(5)3-4-9-6/h8H,1-4H2/t6-/m1/s1
