15
gdb 46219	2.93452	1.36671	1.06371	3.8485	74.74	-0.2403	-0.0007	0.2395	1114.1628	0.110966	-416.728989	-416.720681	-416.719736	-416.761944	31.013	
N	 0.0703255664	 1.1917533745	-0.3798676535	-0.541207
C	 0.0673840936	-0.0152989817	-0.0143723225	 0.318222
N	 0.9636281259	-0.9023929776	 0.5987967876	-0.3542
C	 0.0842011548	-2.082286963	 0.4877217509	-0.246491
C	-0.9722006294	-1.1191420746	-0.0906247416	 0.379545
O	-2.312829204	-1.0412890612	 0.3086731452	-0.258738
C	-2.0442729704	-1.3720170216	-1.0726687543	-0.29893
C	-2.422823935	-0.4242374924	-2.0809081346	 0.373128
C	-2.7617658237	 0.3241580582	-2.9570832607	-0.404398
H	 0.9684643246	 1.6434682436	-0.1991418437	 0.214537
H	 1.9649942201	-0.9042933392	 0.4720968393	 0.245021
H	 0.4283280791	-2.8546280124	-0.2088916727	 0.117863
H	-0.1760968411	-2.5333771522	 1.4495426159	 0.129218
H	-2.2496435262	-2.4151903074	-1.3143628646	 0.121454
H	-3.0439533547	 1.010081617	-3.7173192307	 0.204975
97.2481	102.6876	178.6463	243.3498	255.4429	320.9982	380.3671	469.9491	481.2296	553.3505	628.9532	649.2869	678.9714	712.7364	769.6179	827.8735	851.6709	917.5699	986.282	1018.2623	1027.6099	1067.7466	1086.2479	1144.4258	1150.2823	1228.6387	1306.081	1342.4025	1366.6345	1485.9344	1514.0805	1800.5708	2246.6244	3038.1329	3092.9992	3106.3341	3464.2403	3503.7418	3611.4023
N=C1NCC11OC1C#C	[NH][C]1NC[C@]21O[C@H]2C#C	
InChI=1S/C6H6N2O/c1-2-4-6(9-4)3-8-5(6)7/h1,4H,3H2,(H2,7,8)	InChI=1S/C6H6N2O/c1-2-4-6(9-4)3-8-5(6)7/h1,4H,3H2,(H2,7,8)/t4-,6-/m0/s1
