14
gdb 56425	3.34119	0.65158	0.55999	3.3459	72.25	-0.2703	-0.0459	0.2244	1833.0038	0.097392	-436.658442	-436.648564	-436.64762	-436.696639	32.47	
O	 0.2600394849	 1.5323477491	-0.1292937992	-0.381279
C	-0.0021705716	 0.1554273047	 0.0626711247	-0.181102
C	 0.3206707314	-0.6288475907	-1.156113673	 0.279416
N	 0.5827987347	-1.2180123292	-2.1142407913	-0.313492
C	 0.685978112	-0.417737375	 1.2233482351	 0.110108
C	 1.2633169259	-0.8512659421	 2.1861599864	 0.043522
C	 1.9601528311	-1.4336574436	 3.3212275408	-0.421169
C	 2.4762101792	-2.8509827816	 3.0349722807	 0.170374
O	 2.5108716371	-3.7132811523	 3.8672208881	-0.220857
H	 1.2160046979	 1.6481069188	-0.189556266	 0.300712
H	-1.0869899857	 0.09144706	 0.2123381665	 0.17319
H	 2.8410846984	-0.8229443947	 3.570652191	 0.166809
H	 1.3339865528	-1.4703175286	 4.2181971087	 0.166316
H	 2.8358039021	-3.0105503947	 1.9965485474	 0.107451
9.0607	46.2716	70.4429	131.2677	156.74	214.296	283.097	316.6757	388.7405	436.4027	454.2191	517.9296	591.3873	613.7633	728.2496	817.731	927.0125	1022.9902	1040.8754	1050.0927	1161.1457	1209.9419	1263.8891	1286.7732	1312.1274	1413.7627	1414.3351	1437.6122	1844.4874	2360.5093	2369.4465	2915.979	3010.5122	3046.7702	3087.2399	3798.5597
OC(C#N)C#CCC=O	O[C@@H](C#N)C#CCC=O	
InChI=1S/C6H5NO2/c7-5-6(9)3-1-2-4-8/h4,6,9H,2H2	InChI=1S/C6H5NO2/c7-5-6(9)3-1-2-4-8/h4,6,9H,2H2/t6-/m1/s1
