17
gdb 27734	2.2291	1.47225	0.8965	4.56	82.91	-0.2308	-0.0483	0.1825	1276.2384	0.134467	-421.887563	-421.878545	-421.877601	-421.921676	31.961	
C	 0.1205317125	 1.4549542146	-0.0147070287	-0.492149
C	-0.0549257134	-0.0203957624	-0.0163025812	 0.370359
C	-1.1549483898	-0.8270426171	-0.11333274	-0.362577
C	-0.6886730932	-2.1735174637	-0.0551069236	 0.212224
C	-1.5361477512	-3.4058854742	-0.1228662338	-0.50796
C	 0.6804339191	-2.085698685	 0.0748798405	 0.155495
O	 1.0621827115	-0.7681373319	 0.0980764444	-0.192466
C	 1.7097497924	-3.0984358533	 0.18318849	 0.063026
O	 2.8994574451	-2.8890690227	 0.2950702531	-0.292057
H	 0.7617762545	 1.7757086284	-0.8428251628	 0.151347
H	-0.8479266498	 1.9490505202	-0.112890162	 0.13894
H	 0.5930525403	 1.7941043447	 0.9134996318	 0.151338
H	-2.1780341342	-0.4976299041	-0.2143746577	 0.115308
H	-2.1089802042	-3.4333728213	-1.0563430226	 0.140938
H	-0.9426427956	-4.3202004151	-0.0672796151	 0.138113
H	-2.2609634126	-3.4255859408	 0.6985351252	 0.141169
H	 1.3046323686	-4.1332038261	 0.1544028526	 0.068952
90.8852	112.4637	137.8126	169.6285	185.757	232.7862	256.9808	373.1775	380.9971	538.1093	590.403	652.4049	666.7932	672.7773	809.9358	843.4371	985.9403	1010.2244	1013.5518	1018.4617	1058.9537	1061.8142	1124.5736	1179.6838	1274.9775	1305.2893	1406.992	1416.4965	1427.9463	1442.0005	1472.1118	1481.6491	1484.7411	1494.1577	1575.3003	1638.1004	1775.3049	2888.132	3037.0394	3038.6491	3087.3509	3092.849	3131.6434	3137.6752	3248.0651
CC1=CC(C)=C(O1)C=O	Cc1cc(C)c(o1)C=O	
InChI=1S/C7H8O2/c1-5-3-6(2)9-7(5)4-8/h3-4H,1-2H3	InChI=1S/C7H8O2/c1-5-3-6(2)9-7(5)4-8/h3-4H,1-2H3
