16
gdb 100384	2.70575	1.05689	0.90653	3.9493	65.6	-0.2625	-0.0389	0.2236	1287.8871	0.120835	-475.030357	-475.020494	-475.01955	-475.065954	34.325	
O	 0.0922547193	 1.3794759295	-0.1579394184	-0.425382
C	 0.0673418728	-0.0253976238	 0.0112852024	-0.102723
C	-1.3919623627	-0.5353643309	-0.0543975757	 0.162212
O	-2.0000481334	-0.0405896594	-1.228508622	-0.438257
C	-1.4642223337	-2.0663635106	-0.0937024031	-0.305802
C	-2.885164732	-2.6133567988	-0.1285522598	 0.158895
O	-3.191188712	-3.6722788125	 0.3513773209	-0.235939
C	-2.0997025005	 0.0005812368	 1.1430704218	 0.249046
N	-2.601966788	 0.4697164327	 2.0726352342	-0.328929
H	-0.1899777469	 1.7908393583	 0.6680456475	 0.308128
H	 0.6094267064	-0.4506605746	-0.8382573416	 0.133266
H	 0.5514399508	-0.3460446224	 0.9419731939	 0.122765
H	-1.6959282958	 0.8750242222	-1.3200797112	 0.300371
H	-0.9686083562	-2.3825069076	-1.0208938058	 0.148014
H	-0.934415811	-2.5166128372	 0.7498238308	 0.140082
H	-3.622344617	-1.9729419218	-0.6547182838	 0.114255
49.9534	80.2246	107.6105	134.9997	182.065	205.7077	290.5675	358.7482	380.9776	408.1588	435.6949	484.7061	551.8265	592.8337	680.0144	715.5348	796.9666	907.5018	989.9573	1004.8522	1061.3544	1088.0612	1118.3099	1164.6275	1203.4535	1285.5482	1300.4949	1375.5238	1401.7849	1414.4215	1425.2783	1435.1751	1487.0108	1836.4434	2344.9329	2931.4974	3031.3486	3038.0114	3103.2249	3113.1838	3728.6687	3793.165
OCC(O)(CC=O)C#N	OC[C@@](O)(CC=O)C#N	
InChI=1S/C5H7NO3/c6-3-5(9,4-8)1-2-7/h2,8-9H,1,4H2	InChI=1S/C5H7NO3/c6-3-5(9,4-8)1-2-7/h2,8-9H,1,4H2/t5-/m1/s1
