14
gdb 19001	5.13743	1.92948	1.66298	1.9051	60.67	-0.2353	-0.0245	0.2108	755.3709	0.108167	-382.494275	-382.488625	-382.487681	-382.523982	22.739	
O	-0.0290806795	-0.0077848276	-0.0316243176	-0.315617
C	-0.0256079204	 1.1938405236	 0.0002033076	 0.402199
C	-1.2391083104	 2.1462282386	 0.0161673045	-0.367988
C	-0.4979063095	 3.4744528653	 0.0567170987	-0.045091
C	 0.7862924039	 3.394996945	-0.8224439224	 0.053618
O	 1.5080671852	 4.2853454935	 0.0930394841	-0.308422
C	 0.7730842536	 3.3483058247	 0.949513163	 0.053613
C	 1.1542616902	 2.135304784	 0.0337499289	-0.151173
H	-1.8571594497	 2.0071563327	-0.8768978052	 0.134045
H	-1.8704123031	 1.9605767806	 0.891314256	 0.134038
H	-1.036313834	 4.4198578958	 0.0776063223	 0.094511
H	 0.9149848155	 3.5419409535	-1.8949356051	 0.107526
H	 0.8857295587	 3.4385157323	 2.0300528191	 0.107526
H	 2.1690610995	 1.747395178	 0.0310810862	 0.101215
135.9076	318.5296	394.25	523.8776	592.3232	605.2904	671.6595	710.0371	765.9027	838.7968	875.9939	898.3114	907.6312	939.8006	973.9875	993.0659	1018.8592	1104.9869	1112.7275	1144.8361	1164.1827	1170.6096	1212.6805	1215.4889	1249.1127	1274.9436	1280.5531	1352.1401	1460.3233	1862.2606	3053.3961	3096.5721	3117.6781	3120.4684	3148.6642	3174.1525
O=C1CC2C3OC2C13	O=C1C[C@@H]2[C@H]3O[C@@H]2[C@@H]13	
InChI=1S/C6H6O2/c7-3-1-2-5-4(3)6(2)8-5/h2,4-6H,1H2	InChI=1S/C6H6O2/c7-3-1-2-5-4(3)6(2)8-5/h2,4-6H,1H2/t2-,4+,5-,6+
