18
gdb 10097	2.93435	1.22443	0.91483	2.2153	74.86	-0.2522	-0.0281	0.2242	1253.0467	0.150144	-347.785233	-347.77567	-347.774725	-347.820166	33.48	
C	 0.8734955501	-0.3123840056	-1.3656145239	-0.390276
C	-0.0263447161	-0.1563419433	-0.1394552756	-0.170154
C	 0.6321261636	-0.6301897366	 1.17847349	-0.182899
C	-0.2672128174	-0.3205742173	 2.402015866	-0.28239
C	-0.4097460079	 1.1654723885	 2.6478602071	 0.156738
O	-1.4482064851	 1.7376942924	 2.8514209331	-0.237166
C	 0.9635334905	-2.0527217736	 1.1387120264	 0.325298
C	 1.2094226372	-3.2293247048	 1.1121366306	-0.45185
H	 1.158274865	-1.3581392524	-1.5125667067	 0.134792
H	 0.3620391076	 0.0313283497	-2.2693524571	 0.118182
H	 1.7932607435	 0.2737723097	-1.2598611815	 0.114779
H	-0.3112328398	 0.8961227726	-0.0187758417	 0.108674
H	-0.9584198527	-0.7158256676	-0.281055371	 0.113293
H	 1.5710635368	-0.0692664198	 1.3048972934	 0.107413
H	-1.2595479481	-0.7654409282	 2.2899213073	 0.131817
H	 0.196889671	-0.7527008566	 3.2988140323	 0.133694
H	 0.5590431997	 1.7216415332	 2.6441045114	 0.071948
H	 1.4392881521	-4.2658358603	 1.08778461	 0.198107
62.076	78.734	105.3952	143.4884	174.2771	236.7371	264.8351	303.0689	413.3346	451.4537	533.1932	578.7107	631.028	644.0734	740.2619	783.7096	866.1362	944.3056	997.0651	1013.8304	1042.7639	1095.9848	1126.8387	1145.3521	1214.7212	1265.432	1289.9588	1328.5694	1367.3118	1374.3432	1414.1098	1428.9703	1458.3587	1484.0836	1498.1094	1507.1293	1838.028	2234.2066	2839.745	2987.8543	3028.704	3030.1379	3036.595	3067.9035	3104.2484	3108.1757	3118.2956	3503.7818
CCC(CC=O)C#C	CC[C@@H](CC=O)C#C	
InChI=1S/C7H10O/c1-3-7(4-2)5-6-8/h1,6-7H,4-5H2,2H3	InChI=1S/C7H10O/c1-3-7(4-2)5-6-8/h1,6-7H,4-5H2,2H3/t7-/m0/s1
