19
gdb 126565	3.17528	1.00922	0.81507	1.4777	78.17	-0.2119	0.0107	0.2226	1434.176	0.160995	-415.403722	-415.39438	-415.393435	-415.438627	33.82	
C	-0.0242160655	 1.6027127002	 0.0109626983	-0.378257
C	-0.0590976426	 0.0738419714	-0.04054032	-0.163257
C	 0.7875837945	-0.5030144587	-1.1922963363	-0.312563
C	 0.7583479464	-1.9955427267	-1.2721627264	 0.277845
N	 1.7218677528	-2.76975339	-0.766055121	-0.265971
N	 1.3153062617	-3.9990630911	-1.0328116098	-0.093364
N	 0.1493765204	-4.1150537398	-1.6763848087	-0.279436
C	-0.2223343827	-2.8466854699	-1.8403691705	 0.250049
N	-1.3691485861	-2.49049872	-2.5467819413	-0.598117
H	 0.999000843	 1.9687459916	 0.149901927	 0.119035
H	-0.4072937597	 2.0408977341	-0.9175796801	 0.113842
H	-0.6306681701	 1.9877038548	 0.8365212702	 0.113182
H	 0.3044954632	-0.3427992686	 0.9060090856	 0.111769
H	-1.098443013	-0.2679259463	-0.1400855961	 0.086473
H	 0.4343340988	-0.0851414829	-2.1444121108	 0.107547
H	 1.8272767668	-0.1810070398	-1.072012937	 0.119625
H	 1.8655356864	-4.8054731586	-0.7922076966	 0.286899
H	-1.9744970529	-3.2857773323	-2.7048646409	 0.254151
H	-1.8862951513	-1.7340148273	-2.1195631255	 0.250548
44.8323	81.8793	115.0145	232.4573	239.5666	253.0977	293.1671	317.0661	378.826	429.1921	457.1662	669.4574	699.4804	734.2159	742.1093	760.4779	813.5142	875.4824	901.8805	986.3128	1043.5001	1083.1923	1102.5902	1111.1656	1191.6878	1224.0986	1263.4274	1274.4395	1313.7372	1325.7348	1382.0078	1406.0574	1413.7998	1463.5183	1476.4193	1490.4853	1500.5097	1508.8872	1559.7134	1582.3701	1649.4175	3013.3117	3021.4026	3030.4524	3055.3687	3081.2155	3098.535	3104.2016	3545.7636	3639.7187	3686.895
CCCC1=NNN=C1N	CCCc1n[nH]nc1N	
InChI=1S/C5H10N4/c1-2-3-4-5(6)8-9-7-4/h2-3H2,1H3,(H3,6,7,8,9)	InChI=1S/C5H10N4/c1-2-3-4-5(6)8-9-7-4/h2-3H2,1H3,(H3,6,7,8,9)
