17
gdb 97317	4.45503	0.73731	0.64322	3.315	79.06	-0.2392	-0.0468	0.1924	1696.0665	0.135976	-451.365411	-451.355748	-451.354804	-451.400534	34.341	
C	-0.5618324842	 1.6612886553	 0.5206113695	-0.310906
N	-0.615312543	 0.2483419972	 0.8353902347	-0.238656
C	-0.0988865076	-0.5542604404	 0.0042072993	 0.117235
N	-0.0919495974	-1.9189384727	 0.2612906525	-0.366751
C	 0.2594179727	-2.8832999829	-0.6699927239	 0.295374
N	 0.5719587073	-2.5944382839	-1.8682917045	-0.495494
C	 0.2895184768	-4.3236916989	-0.1611845637	 0.335829
N	 0.3818610529	-4.4747256923	 1.1973256517	-0.541304
O	 0.2284690539	-5.2520779808	-0.938067825	-0.338675
H	-0.0632456915	 1.8862159175	-0.4350505504	 0.105069
H	-1.5792400241	 2.0677458639	 0.4845203012	 0.129416
H	-0.0362816911	 2.1967994316	 1.3200101832	 0.126704
H	 0.3809628962	-0.2899110141	-0.9419351037	 0.13797
H	-0.610578236	-2.2016084564	 1.0799747878	 0.259298
H	 0.807661006	-3.4615151155	-2.3538436591	 0.245122
H	 0.778111801	-3.7347470238	 1.754842081	 0.268694
H	 0.5330745681	-5.4175206039	 1.5249566194	 0.271076
64.8098	96.7054	110.9959	128.3488	206.5046	243.3938	303.4937	367.4881	387.3109	410.9582	470.3989	491.7603	587.7069	609.9767	664.8074	679.0753	808.63	867.2295	912.6815	1006.1729	1048.6632	1096.078	1110.7286	1142.6538	1160.7893	1241.9548	1285.1327	1346.212	1391.4584	1447.4179	1480.265	1498.5285	1531.3687	1615.6912	1713.2248	1759.8636	1808.7303	2980.376	3060.6253	3074.7673	3102.5078	3478.5732	3574.8871	3618.498	3699.1297
CN=CNC(=N)C(N)=O	CN=CNC(=N)C(=O)N	
InChI=1S/C4H8N4O/c1-7-2-8-3(5)4(6)9/h2H,1H3,(H2,6,9)(H2,5,7,8)	InChI=1S/C4H8N4O/c1-7-2-8-3(5)4(6)9/h2H,1H3,(H2,6,9)(H2,5,7,8)
