17
gdb 38058	3.29204	1.72711	1.64256	1.5242	71.11	-0.2437	-0.0118	0.232	880.3893	0.137776	-421.734995	-421.728555	-421.72761	-421.765556	26.906	
C	-0.025441593	 1.6459226048	-0.0462559719	-0.116986
O	 1.416205066	 1.8912655554	-0.1457748222	-0.295383
C	 2.2143222727	 0.7211272808	 0.1753757374	-0.182961
C	 1.190104508	-0.1258444934	 0.8845575066	 0.383182
O	 0.8301227822	-1.5611602491	 0.8635928406	-0.352726
C	-0.5338124317	-0.9938894227	 1.0385196362	-0.068646
C	-0.421418274	-0.3312456697	 2.4162053575	-0.068706
C	 0.7663957097	 0.264338683	 2.3134684354	-0.139397
C	-0.0718234624	 0.1364308655	 0.0512787564	-0.013179
H	-0.417836714	 2.156446306	 0.8394588382	 0.106173
H	-0.4895019338	 2.0608850367	-0.9447908248	 0.106633
H	 2.597108744	 0.2414882227	-0.7339228108	 0.111294
H	 3.0537809848	 1.0587885027	 0.7902621018	 0.108674
H	-1.3324340768	-1.6989635782	 0.8148209609	 0.087282
H	-1.1362994335	-0.3745100835	 3.2241128993	 0.11669
H	 1.3287010355	 0.871614564	 3.0074473475	 0.116534
H	 0.0504737764	-0.3114246748	-0.9388219182	 0.101522
135.6919	271.1749	308.7634	374.6291	511.5402	564.0609	579.5638	656.9405	700.4831	726.0674	759.2889	819.0422	834.6616	846.1231	901.9068	908.3196	915.6578	944.7089	976.9522	1015.575	1036.6819	1068.6148	1115.1075	1134.7729	1153.9239	1195.7791	1218.2951	1226.8984	1260.2571	1271.2585	1321.4385	1347.5397	1361.3159	1400.8687	1509.0783	1521.7786	1622.2953	3025.3729	3042.0542	3073.054	3084.0853	3099.3988	3142.0485	3232.9614	3260.6591
C1OCC23OC(C=C2)C13	C1OC[C@@]23O[C@@H](C=C2)[C@@H]13	
InChI=1S/C7H8O2/c1-2-7-4-8-3-5(7)6(1)9-7/h1-2,5-6H,3-4H2	InChI=1S/C7H8O2/c1-2-7-4-8-3-5(7)6(1)9-7/h1-2,5-6H,3-4H2/t5-,6+,7+/m1/s1
