16
gdb 16217	3.14043	2.30393	1.51112	3.5717	65.36	-0.2465	0.022	0.2686	836.0514	0.133621	-379.945866	-379.93892	-379.937975	-379.977047	26.342	
O	 0.0912392953	 0.0512604047	-0.5121795843	-0.402647
C	 0.0492290136	 1.2359386271	-0.2425511147	 0.371686
N	-1.0611453322	 2.0080048931	-0.0661864705	-0.326909
C	-0.7885862497	 3.3769075352	 0.3551774302	-0.170262
C	 0.7037297927	 3.5678533156	-0.0186313146	-0.311646
C	 1.2379790856	 2.1475811783	-0.0620553264	 0.250836
C	 2.3981689701	 1.6019969895	 0.6955818548	-0.27916
N	 2.4771505398	 1.8031944431	-0.7553048979	-0.358349
H	-1.9774740261	 1.5905164954	-0.0353268851	 0.25471
H	-1.4401343467	 4.0858841395	-0.1639651176	 0.118877
H	-0.9497798285	 3.5015129781	 1.4345810742	 0.112688
H	 0.791815184	 4.0192378544	-1.0115584127	 0.127564
H	 1.2254797468	 4.2120786797	 0.6913253838	 0.115675
H	 3.0044700559	 2.2812281415	 1.2891290628	 0.118823
H	 2.3155191345	 0.5866962472	 1.0732183925	 0.1322
H	 2.3265499947	 0.9041544977	-1.2157679944	 0.245914
100.2133	164.5358	260.8046	266.6399	351.1419	464.5456	512.0043	586.17	695.2278	707.8899	761.2656	828.1728	886.9511	921.9489	941.8557	972.2544	1003.2387	1063.2427	1093.6248	1109.	1126.4088	1190.042	1220.9247	1253.7866	1291.9292	1303.3775	1334.9606	1364.0419	1407.7256	1450.2967	1492.9742	1499.2015	1535.3975	1818.9838	3009.171	3060.2412	3076.4722	3107.5077	3117.1537	3201.4993	3454.3733	3645.5279
O=C1NCCC11CN1	O=C1NCC[C@]21CN2	
InChI=1S/C5H8N2O/c8-4-5(3-7-5)1-2-6-4/h7H,1-3H2,(H,6,8)	InChI=1S/C5H8N2O/c8-4-5(3-7-5)1-2-6-4/h7H,1-3H2,(H,6,8)/t5-/m1/s1
