18
gdb 90055	3.68209	1.26331	1.23346	2.7022	78.89	-0.2242	0.0041	0.2283	1086.551	0.147561	-401.829995	-401.822435	-401.821491	-401.861807	29.878	
C	-0.0543753363	 1.5458473693	 0.0549617578	-0.326165
N	 0.0057076697	 0.0995632574	 0.0648527087	-0.103887
C	-1.2290261779	-0.6593039455	 0.4561169822	-0.269424
C	-0.272473437	-1.6980474037	 1.0853082093	 0.06986
C	 0.747575184	-2.4073409525	 0.1141421733	-0.242807
C	 1.6763849049	-1.7996464368	 1.1853697552	-0.207612
C	 0.7681329291	-0.5337000674	 1.1815095981	 0.039028
C	 0.5706015885	-2.291564188	 2.2348695566	 0.35857
O	 0.4899121101	-2.7495617685	 3.3246355265	-0.302244
H	 0.9380865686	 1.9509437944	-0.1670075115	 0.128336
H	-0.7390348245	 1.8806301661	-0.7309924711	 0.126116
H	-0.3979610008	 1.9765130954	 1.0140325713	 0.096447
H	-1.8416617772	-0.1292826238	 1.2007972765	 0.10697
H	-1.8520462602	-0.9847949555	-0.3816272885	 0.117286
H	 0.6925234536	-3.4953999489	 0.0578029986	 0.105519
H	 0.8176753129	-1.9415878427	-0.8655340827	 0.130628
H	 2.7571330693	-1.9018486363	 1.2845975873	 0.087956
H	 0.7780126132	 0.0857556468	 2.0877321324	 0.085425
113.1337	207.5373	210.5963	253.1253	307.3377	404.6774	415.6364	505.4405	562.6843	669.653	713.2278	736.9792	780.251	844.1588	878.4781	896.0561	908.6961	956.9261	999.7481	1021.8424	1050.1666	1075.3606	1114.5307	1145.3362	1152.7442	1167.5544	1188.217	1193.8668	1201.0161	1234.6239	1256.5639	1290.6573	1370.6392	1451.3478	1484.8018	1499.0892	1501.0568	1507.5702	1917.4166	2933.5629	2992.8522	3019.5867	3061.8027	3087.9371	3088.3735	3105.0713	3115.81	3178.0595
CN1CC23CC(C12)C3=O	CN1C[C@@]23C[C@@H]([C@@H]12)C3=O	
InChI=1S/C7H9NO/c1-8-3-7-2-4(5(7)8)6(7)9/h4-5H,2-3H2,1H3	InChI=1S/C7H9NO/c1-8-3-7-2-4(5(7)8)6(7)9/h4-5H,2-3H2,1H3/t4-,5+,7-/m0/s1
