17
gdb 50106	1.97059	1.59107	0.96021	3.0679	74.6	-0.239	-0.0118	0.2272	1204.2703	0.132554	-421.768345	-421.759063	-421.758119	-421.803239	33.323	
O	-1.0459302103	 0.6957092438	 0.7188446257	-0.284263
C	-0.4662832028	 1.7550672925	 0.722877883	 0.180028
C	 1.0007748696	 1.896579537	 0.5817834042	-0.131863
C	 1.5204850693	 3.0840550094	-0.2380989929	-0.337609
C	 1.7398897966	 3.0740288491	 1.2232781594	 0.126159
O	 1.0561714493	 4.0372663714	 1.9591697609	-0.232932
C	 1.0664997297	 3.8216785823	 3.3664898723	-0.229658
C	 0.2546746445	 2.6888094452	 3.8081422781	 0.299405
C	-0.4206259201	 1.760267349	 4.1623856732	-0.43658
H	-1.0154684222	 2.7161573598	 0.8180447679	 0.080069
H	 1.5362270599	 0.9561758644	 0.5106693353	 0.107338
H	 2.3551826903	 2.9129346783	-0.9069276547	 0.132578
H	 0.7692103667	 3.7758554297	-0.6053072944	 0.139605
H	 2.7382525797	 2.8489804594	 1.600121862	 0.101392
H	 2.1020216266	 3.6967709756	 3.719706267	 0.126112
H	 0.6830170773	 4.7499288177	 3.8014836077	 0.146408
H	-1.0188357642	 0.9354325854	 4.4634659654	 0.213811
44.2666	74.0399	126.729	177.2504	227.6302	249.2228	312.9724	333.3948	422.546	456.2774	546.2035	630.2254	634.2105	686.2741	763.9582	830.4435	853.9224	918.7555	955.3272	997.8292	1038.9672	1051.4802	1065.8756	1083.3403	1122.4562	1168.041	1180.062	1226.6315	1298.7615	1338.575	1381.7796	1418.1083	1442.5576	1473.8068	1482.7795	1811.9423	2236.9229	2903.3973	2987.6551	3078.7016	3097.6807	3139.9886	3178.9489	3232.4057	3502.1017
O=CC1CC1OCC#C	O=C[C@H]1C[C@H]1OCC#C	
InChI=1S/C7H8O2/c1-2-3-9-7-4-6(7)5-8/h1,5-7H,3-4H2	InChI=1S/C7H8O2/c1-2-3-9-7-4-6(7)5-8/h1,5-7H,3-4H2/t6-,7-/m1/s1
