20
gdb 119192	1.90571	1.20077	0.85215	4.5055	80.52	-0.2782	0.0319	0.31	1431.1152	0.169217	-403.153181	-403.143063	-403.142119	-403.188552	36.586	
C	-0.0110270538	 1.5996903739	 0.099167378	-0.382247
C	-0.0551230873	 0.0809376219	 0.2852345281	-0.17373
C	-1.3470040022	-0.5382409817	-0.2619673527	-0.258036
C	-1.4038861299	-2.05516251	-0.1106855726	 0.142585
C	-1.7848326445	-2.6614659907	 1.2437954664	-0.352506
C	-2.7418848959	-2.7500633818	 0.0916664185	 0.060168
O	-3.8668224775	-1.9310056541	 0.0498260386	-0.414856
C	-0.431329571	-2.7846610101	-0.8870977307	 0.252379
N	 0.3510620575	-3.3628963009	-1.513884277	-0.353065
H	 0.9158956668	 2.0207178088	 0.4998441969	 0.116131
H	-0.0686883395	 1.870229012	-0.9608139261	 0.119763
H	-0.8482086701	 2.0879083881	 0.6105454609	 0.113779
H	 0.8072313565	-0.3774907277	-0.2137040936	 0.119891
H	 0.0410264932	-0.1656357792	 1.3502929275	 0.096552
H	-2.219550283	-0.1167433083	 0.2446030378	 0.117701
H	-1.4562331278	-0.2876660009	-1.3241349536	 0.115528
H	-1.2734024485	-3.5582207968	 1.5728018425	 0.138097
H	-2.0137145591	-1.9419474257	 2.0227849565	 0.129058
H	-2.8561024993	-3.7184694794	-0.393087438	 0.11595
H	-4.4968615845	-2.2538223376	 0.7028222427	 0.296857
74.5931	83.247	132.4524	148.935	172.1726	242.604	245.597	278.4894	312.271	372.59	430.1396	501.2977	573.7111	601.8963	703.94	747.9842	819.6859	877.567	897.0666	916.5417	942.9703	1009.3372	1047.902	1054.3595	1069.632	1124.3111	1127.4285	1186.2671	1239.8474	1262.9766	1298.9433	1311.433	1322.6963	1340.0531	1392.4072	1414.2894	1424.3236	1474.7405	1488.1665	1495.321	1500.6022	1511.6344	2346.8091	3023.8061	3030.9029	3041.3056	3057.4457	3094.6085	3104.1751	3106.4285	3117.1435	3139.1521	3234.8984	3808.7184
CCCC1(CC1O)C#N	CCC[C@]1(C[C@H]1O)C#N	
InChI=1S/C7H11NO/c1-2-3-7(5-8)4-6(7)9/h6,9H,2-4H2,1H3	InChI=1S/C7H11NO/c1-2-3-7(5-8)4-6(7)9/h6,9H,2-4H2,1H3/t6-,7+/m1/s1
