21
gdb 103349	2.9366	1.4287	1.10029	1.525	79.51	-0.2344	0.0708	0.3053	1174.8878	0.179855	-424.133638	-424.124062	-424.123118	-424.168319	35.731	
C	-0.5040055928	 0.4656868276	-0.4868098094	-0.217733
O	 0.7883694605	 0.3828692005	 0.0923374243	-0.315949
C	 1.1556972355	-0.6029105485	 1.0190605035	 0.485335
C	 2.6747177815	-0.4474185321	 1.0990946222	-0.468199
C	 0.310833851	-0.8051851803	 2.3246687435	-0.068252
O	-0.7944910999	-1.3174916969	 1.4801503279	-0.312445
C	 0.4241349452	-1.9980368526	 0.9721893693	-0.079815
C	 0.7798997295	-2.2939322935	 2.4545615413	 0.065519
C	 2.1070308526	-2.8463337958	 2.9725101356	-0.454252
H	-1.2727191809	 0.7616362515	 0.2321495597	 0.120191
H	-0.4157313809	 1.2323413922	-1.2631582269	 0.108333
H	-0.8162550348	-0.4749328834	-0.9533416803	 0.109894
H	 3.0924444448	-0.7389288739	 2.060052417	 0.123318
H	 3.1736108581	-1.0179215912	 0.309451571	 0.121823
H	 2.9034859661	 0.6079370086	 0.9367652708	 0.134418
H	 0.0472296192	-0.0942896111	 3.1103740041	 0.088417
H	 0.295078393	-2.6949865762	 0.1414907117	 0.088999
H	-0.0529624565	-2.8451644154	 2.8966186232	 0.095363
H	 2.4132759317	-2.3453883709	 3.8974148784	 0.125268
H	 1.983433658	-3.907702216	 3.2092207331	 0.119815
H	 2.9291660293	-2.7702543228	 2.26129562	 0.129952
56.1699	66.7235	131.346	167.8338	255.8837	275.364	321.9374	340.9681	367.9002	403.9172	458.2196	590.6476	628.544	661.8809	751.993	777.8858	806.5197	866.8416	875.6437	911.8261	1014.3242	1055.462	1087.1614	1098.2677	1104.7837	1127.8336	1134.0534	1143.7784	1175.6902	1198.4038	1217.4053	1225.1135	1231.1933	1272.0729	1304.8702	1401.2686	1411.3446	1419.4068	1481.5718	1488.5564	1489.7065	1494.8586	1496.8811	1501.0189	1522.9217	3023.386	3041.5645	3055.8241	3081.4988	3089.9523	3095.7606	3097.4967	3103.7678	3105.2015	3122.4194	3141.8982	3172.5843
COC1(C)C2OC1C2C	CO[C@@]1(C)[C@H]2O[C@@H]1[C@H]2C	
InChI=1S/C7H12O2/c1-4-5-7(2,8-3)6(4)9-5/h4-6H,1-3H3	InChI=1S/C7H12O2/c1-4-5-7(2,8-3)6(4)9-5/h4-6H,1-3H3/t4-,5-,6+,7-
