20
gdb 120001	2.37502	1.06024	0.7958	3.9011	76.09	-0.2458	0.0338	0.2796	1453.524	0.169974	-440.307296	-440.297313	-440.296368	-440.342856	35.773	
C	-0.058531935	 1.5896989788	-0.1808108662	-0.396805
C	 0.032533673	 0.0784580627	-0.0297825556	 0.04036
N	 1.1032514464	-0.5689151143	-0.8030807679	-0.335544
C	 1.7616332301	-1.1117854228	 0.2703245149	 0.440241
O	 2.7647838395	-1.7705258462	 0.3708111672	-0.373042
C	 0.7186652635	-0.5205228947	 1.2521165147	-0.178443
C	 1.2612441501	 0.3984350538	 2.342660462	-0.221391
C	 1.9800618447	-0.3972007781	 3.4401900891	-0.074842
O	 2.4778055264	 0.4376342124	 4.4741875606	-0.420565
H	 0.9086597611	 2.0697296744	-0.0099430026	 0.125467
H	-0.3942860781	 1.8552126134	-1.188964756	 0.11812
H	-0.7831866515	 2.0034561537	 0.5278354632	 0.127249
H	-0.9486144772	-0.3728843319	-0.2218442469	 0.085684
H	 1.2775211867	-0.6321282846	-1.7957319621	 0.246705
H	 0.1091552545	-1.31432423	 1.6973846684	 0.100067
H	 1.9652448371	 1.1226853793	 1.9129915291	 0.093027
H	 0.4490390123	 0.9767091543	 2.798989505	 0.107468
H	 1.2716129861	-1.0795566443	 3.9239486507	 0.108247
H	 2.7716169395	-1.0134229594	 2.9924967922	 0.125819
H	 3.2329521209	 0.9197906634	 4.1234846702	 0.282179
65.9572	83.7416	101.2543	126.328	208.5769	225.1441	277.9179	289.3892	358.0756	386.8476	417.075	498.5421	537.0308	700.1782	740.4762	778.7933	836.3364	881.6933	900.8685	1004.5358	1042.3561	1068.2871	1073.65	1080.1849	1124.0713	1137.9512	1171.4864	1183.0777	1213.8014	1277.4656	1301.2232	1318.7024	1365.5008	1384.7008	1393.8462	1406.2869	1412.0421	1420.8277	1484.0777	1492.9044	1499.5619	1516.523	1879.886	3015.3279	3022.3863	3024.3775	3038.3683	3052.8078	3059.8549	3080.9172	3101.9086	3122.6193	3602.8747	3821.1709
CC1NC(=O)C1CCO	C[C@H]1NC(=O)[C@H]1CCO	
InChI=1S/C6H11NO2/c1-4-5(2-3-8)6(9)7-4/h4-5,8H,2-3H2,1H3,(H,7,9)	InChI=1S/C6H11NO2/c1-4-5(2-3-8)6(9)7-4/h4-5,8H,2-3H2,1H3,(H,7,9)/t4-,5+/m1/s1
