13
gdb 62426	2.44442	1.58092	1.37616	3.8898	63.44	-0.2595	-0.0585	0.201	960.8973	0.08755	-452.702152	-452.694054	-452.693109	-452.734967	29.141	
O	-0.1196282993	 1.4541672342	 0.1293987613	-0.443627
C	-0.0425893978	 0.0676005566	 0.0216725315	 0.168305
C	 0.8888221152	-0.5268897854	 0.9950599379	 0.224558
N	 1.6384491723	-0.9828249081	 1.7478498721	-0.318708
C	-1.3889661196	-0.6784376448	 0.0135553994	-0.077285
N	-2.1013812181	-0.2190479128	-1.1731680079	-0.322768
C	-1.104041463	-1.3363643941	-1.3120009165	-0.176402
C	 0.2147460361	-0.6153624328	-1.4077552195	 0.398453
O	 1.1463493982	-0.6000676534	-2.147070244	-0.28604
H	 0.7201612944	 1.8300166885	-0.1618439812	 0.307357
H	-1.8829048567	-1.1011660258	 0.8774639693	 0.136431
H	-3.0224009937	-0.6577317785	-1.1736542842	 0.254095
H	-1.390801808	-2.3059704136	-1.6954017582	 0.13563
99.1408	131.9486	171.5641	182.5282	258.988	267.9898	399.937	479.6488	509.6696	579.487	665.5348	703.4161	758.816	812.9647	831.9479	908.415	923.7983	967.62	1049.8877	1054.6348	1102.8934	1139.0691	1174.9713	1242.1713	1307.2221	1345.4856	1379.9264	1916.6744	2345.5552	3216.4564	3226.7455	3478.3307	3796.4513
OC1(C#N)C2NC2C1=O	O[C@@]1(C#N)[C@H]2N[C@H]2C1=O	
InChI=1S/C5H4N2O2/c6-1-5(9)3-2(7-3)4(5)8/h2-3,7,9H	InChI=1S/C5H4N2O2/c6-1-5(9)3-2(7-3)4(5)8/h2-3,7,9H/t2-,3+,5+/m1/s1
