23
gdb 101894	4.90848	0.52615	0.50408	4.3192	84.61	-0.2758	0.0108	0.2866	2214.9692	0.203232	-425.459946	-425.448744	-425.4478	-425.498059	38.806	
C	 0.2517402515	 1.3760450378	-0.0619069534	-0.394087
C	-0.0507960974	-0.1254664576	-0.0380514043	-0.167057
C	-1.548415074	-0.4859712612	 0.0207118257	 0.036755
C	-2.2988916729	-0.0351215032	-1.24208135	-0.39473
C	-1.7074090004	-1.9965318608	 0.2773982577	-0.19044
C	-3.1424419386	-2.4420393431	 0.5401637482	-0.101902
O	-3.1643105414	-3.8133250082	 0.9662547649	-0.172056
C	-3.6343432852	-4.7366090746	 0.1100834798	 0.169849
O	-3.6609890997	-5.9034503114	 0.3629505086	-0.275863
H	 1.3311153155	 1.5537790975	-0.0311336882	 0.116567
H	-0.1318069142	 1.8619282852	-0.9640974058	 0.119518
H	-0.1915713044	 1.8824691115	 0.8030419873	 0.114825
H	 0.396623069	-0.6052866634	-0.9195470477	 0.095492
H	 0.4464986038	-0.5709995078	 0.8326111009	 0.096225
H	-1.9818801667	 0.0455185474	 0.8819892881	 0.07237
H	-2.1788296812	 1.0370391644	-1.4178257144	 0.121531
H	-1.922119298	-0.5622391898	-2.1272360783	 0.115064
H	-3.37379027	-0.2279355106	-1.1721816384	 0.113005
H	-1.3085371018	-2.562847354	-0.5751778195	 0.101427
H	-1.1077936492	-2.2841880267	 1.1486414754	 0.11492
H	-3.5903758687	-1.8620044835	 1.3535620645	 0.123975
H	-3.7768542233	-2.3247446019	-0.346424695	 0.111303
H	-3.9952560927	-4.2950070962	-0.8407940462	 0.07331
36.7868	48.3364	78.4776	93.7942	132.5769	182.5705	215.1475	258.0399	280.4984	311.3529	352.1111	411.4953	429.0439	505.0679	676.4122	771.1903	785.8142	834.2314	918.2302	955.988	984.7848	1020.6542	1033.3164	1041.0333	1048.0644	1068.7851	1146.2485	1155.7025	1175.7	1204.2045	1272.6744	1290.827	1307.549	1336.8099	1354.8834	1379.7897	1386.8758	1408.4027	1414.1971	1417.081	1436.4298	1479.436	1490.5734	1496.9108	1500.4511	1507.7962	1513.5991	1515.6924	1866.2784	2935.0834	2985.9743	3012.704	3021.3975	3030.7029	3033.8027	3035.0627	3048.4501	3065.0013	3090.5689	3096.257	3099.7479	3106.2859	3115.7878
CCC(C)CCOC=O	CC[C@@H](C)CCOC=O	
InChI=1S/C7H14O2/c1-3-7(2)4-5-9-6-8/h6-7H,3-5H2,1-2H3	InChI=1S/C7H14O2/c1-3-7(2)4-5-9-6-8/h6-7H,3-5H2,1-2H3/t7-/m1/s1
