18
gdb 50168	3.51911	1.32363	1.17327	3.9267	78.75	-0.2208	-0.0347	0.1861	1078.8299	0.147348	-401.791311	-401.783881	-401.782937	-401.823674	29.234	
O	-0.1513229135	 0.058165134	 0.3779981033	-0.249554
C	-0.0352685702	 1.1183485207	-0.1804838498	 0.143113
C	 1.2320102425	 1.9432138878	-0.1562796258	-0.141184
C	 1.2751055529	 3.2646856397	-1.0469967349	-0.37608
C	 1.124228502	 4.0364696672	 0.2921887537	 0.249273
C	 1.5647954724	 4.9109332803	 1.5151543166	-0.249682
N	 0.8217746253	 3.703956065	 2.1945494369	-0.169476
C	-0.2033048294	 3.9122630664	 1.0790422674	-0.192515
C	 1.6017186946	 2.8736430966	 1.1011674369	 0.027509
H	-0.8751688299	 1.5476925662	-0.7748809231	 0.079542
H	 2.0588361404	 1.2517706358	-0.3363213552	 0.119955
H	 2.2446138396	 3.3816200165	-1.5364293235	 0.120053
H	 0.4803863492	 3.3885973251	-1.7894289448	 0.112081
H	 2.632120784	 4.9549783609	 1.7426655952	 0.113843
H	 1.0639397025	 5.862211714	 1.7163273577	 0.11123
H	-0.8062763847	 4.8167777495	 1.1971900431	 0.102417
H	-0.8506840509	 3.0475109039	 0.9194579815	 0.111535
H	 2.6549123033	 2.7681766004	 1.3668314648	 0.087938
49.7512	147.0498	230.4679	320.353	380.737	400.2131	504.3737	545.8723	595.8734	701.5172	745.116	800.4183	815.3504	849.2529	869.3871	908.6095	914.1823	967.6927	1003.5367	1019.171	1022.8809	1059.9105	1076.32	1127.2685	1148.0044	1158.9291	1182.6125	1191.7077	1208.5094	1220.6506	1243.277	1283.1613	1286.7965	1354.0126	1424.7178	1473.8621	1509.0507	1551.0428	1819.3094	2854.0695	3052.1997	3053.1216	3061.2534	3080.7563	3095.4966	3118.7367	3120.2939	3131.4451
O=CC1CC23CN(C2)C13	O=C[C@H]1C[C@@]23CN(C2)[C@@H]13	
InChI=1S/C7H9NO/c9-2-5-1-7-3-8(4-7)6(5)7/h2,5-6H,1,3-4H2	InChI=1S/C7H9NO/c9-2-5-1-7-3-8(4-7)6(5)7/h2,5-6H,1,3-4H2/t5-,6+/m1/s1
