21
gdb 105414	2.44619	1.24577	0.99165	2.8393	78.89	-0.2449	-0.0191	0.2258	1277.3762	0.180119	-424.21563	-424.205826	-424.204882	-424.250719	35.572	
C	-1.4141365427	 0.4801879623	-0.377460048	-0.268379
O	-0.0325622127	 0.3286089966	-0.1020338536	-0.287109
C	 0.6400149563	-0.6520695976	-0.8651398951	 0.421534
C	 0.6384968535	-0.2993087557	-2.3655574557	-0.349937
C	 1.054702512	 1.1372150882	-2.5946614293	 0.173839
O	 0.3864508387	 1.9520138724	-3.1786055062	-0.248277
C	 2.0516914907	-0.9383681923	-0.2866735039	-0.273798
C	 1.7818411912	-2.4577305254	-0.4509822954	-0.220785
C	 0.2678038768	-2.1436559496	-0.5913156404	-0.27361
H	-1.5951365695	 0.9371079596	-1.3588726197	 0.129789
H	-1.9471584719	-0.4800242871	-0.3269180707	 0.107665
H	-1.8149294893	 1.142531722	 0.3932847523	 0.130406
H	 1.3471098451	-0.9583911409	-2.8846179349	 0.121017
H	-0.3467587109	-0.4500237515	-2.8158405101	 0.119209
H	 2.0483096046	 1.4112555532	-2.1745769447	 0.080414
H	 2.9136547585	-0.5099641869	-0.8035760053	 0.097553
H	 2.0795689784	-0.6354089233	 0.7621868628	 0.118872
H	 2.2090978234	-2.8620393025	-1.3724235758	 0.105669
H	 2.07912381	-3.1048577513	 0.3757818536	 0.106961
H	-0.2540726949	-2.2275310238	 0.3655518623	 0.111738
H	-0.2974438273	-2.6795025565	-1.3578891821	 0.097227
61.9433	102.7599	123.0028	138.4342	176.2121	199.5371	262.7456	323.8247	346.0941	430.1335	495.9873	507.8973	646.5858	719.0739	793.8389	800.5332	879.7155	909.0057	935.5902	939.4536	986.9905	1003.456	1049.3258	1085.9778	1117.4339	1158.0373	1185.0154	1186.1284	1199.5963	1228.2709	1247.187	1250.922	1271.2851	1286.7618	1306.8429	1309.6468	1430.8766	1458.0959	1469.7733	1480.04	1485.2613	1497.3449	1505.1255	1511.5	1829.697	2881.2972	2996.0095	3029.7426	3055.3211	3059.1353	3064.3082	3069.9902	3096.7989	3108.2367	3118.2199	3119.471	3131.5694
COC1(CC=O)CCC1	COC1(CC=O)CCC1	
InChI=1S/C7H12O2/c1-9-7(5-6-8)3-2-4-7/h6H,2-5H2,1H3	InChI=1S/C7H12O2/c1-9-7(5-6-8)3-2-4-7/h6H,2-5H2,1H3
