14
gdb 48655	2.52291	1.40825	1.14733	3.8674	69.81	-0.2718	-0.0617	0.2102	1066.7043	0.099619	-436.657192	-436.649317	-436.648372	-436.690003	28.492	
O	-0.0984371636	-0.0164628679	 0.0281676554	-0.25261
C	-0.0355516603	 1.1880554931	-0.017965629	 0.074023
C	 1.2360106034	 1.9280847252	 0.0220367935	 0.109729
C	 1.3615546474	 3.4001351054	 0.3660711599	-0.381312
C	 1.7976711784	 2.9718008592	-0.9923285621	 0.310886
O	 3.0817837266	 2.3769120051	-0.9818207352	-0.305152
C	 2.6218146458	 1.3086022562	-0.0954217122	-0.142132
C	 1.2574577093	 3.463328154	-2.2204623662	 0.240931
N	 0.809123981	 3.8718771096	-3.2054347966	-0.331461
H	-0.9450899608	 1.8222191422	-0.0983197839	 0.091142
H	 0.4176926701	 3.9352265878	 0.4079845128	 0.155526
H	 2.1196475887	 3.7213983256	 1.074073465	 0.147668
H	 3.2224203135	 1.2457516286	 0.8160755632	 0.129731
H	 2.6123304707	 0.3513753857	-0.6211356246	 0.15303
79.7582	145.3352	158.4497	221.1509	261.1429	361.0944	422.7474	483.2183	519.1617	559.9707	642.0428	733.8825	787.1523	814.0468	933.9528	966.1436	976.063	1027.5111	1041.3262	1087.0342	1125.7106	1146.0151	1211.7409	1299.0064	1329.8028	1385.736	1434.2516	1470.7291	1515.1133	1801.6984	2351.3169	2898.6462	3063.6111	3124.0195	3127.9932	3221.0412
O=CC12CC1(OC2)C#N	O=C[C@]12C[C@]1(OC2)C#N	
InChI=1S/C6H5NO2/c7-2-6-1-5(6,3-8)4-9-6/h3H,1,4H2	InChI=1S/C6H5NO2/c7-2-6-1-5(6,3-8)4-9-6/h3H,1,4H2/t5-,6-/m0/s1
