16
gdb 75392	2.27434	1.79868	1.08863	2.5687	73.19	-0.2632	-0.056	0.2072	1088.3537	0.124077	-437.929288	-437.921132	-437.920188	-437.962368	29.919	
C	 0.1111700157	 1.4344916408	 0.0690606818	-0.44457
C	-0.2331253875	-0.0168150264	-0.0695165567	 0.386175
N	-1.3254291694	-0.4995448133	 0.326687031	-0.257519
C	-1.6200119512	-1.9123446514	 0.0937038815	-0.231812
C	-0.6247991014	-2.8391844876	 0.7397598793	-0.063832
C	 0.6969721076	-2.7677980334	 0.5629172564	-0.15985
C	 1.3935322788	-1.8630932639	-0.3694147975	 0.386388
O	 2.4714077449	-2.1085401555	-0.8352648743	-0.309358
O	 0.7841807808	-0.6818092105	-0.7535388234	-0.258601
H	 1.0122603314	 1.5532168834	 0.6797156642	 0.145395
H	 0.3341851649	 1.8580372276	-0.9152534933	 0.151241
H	-0.7197925815	 1.9704816998	 0.5255237719	 0.148233
H	-2.6196401847	-2.1117032647	 0.4856926158	 0.122076
H	-1.6573450054	-2.1107370587	-0.9885047839	 0.136129
H	-1.0188347122	-3.6164845708	 1.3897273449	 0.121523
H	 1.3631300693	-3.4845389154	 1.0302756623	 0.128382
75.1526	109.2276	167.9438	227.0587	293.6822	319.1937	386.6864	412.6114	508.1947	601.7281	632.7822	677.4645	738.7997	797.3113	842.5599	900.623	964.0217	1002.4054	1018.7115	1037.0175	1062.9222	1083.5914	1174.9528	1200.2577	1241.655	1271.773	1374.8572	1407.1237	1408.0174	1471.1337	1475.3286	1493.8809	1700.7585	1778.5196	1830.5927	2993.3005	3048.6171	3094.2305	3106.7174	3162.3679	3168.024	3201.678
CC1=NCC=CC(=O)O1	CC1=NCC=CC(=O)O1	
InChI=1S/C6H7NO2/c1-5-7-4-2-3-6(8)9-5/h2-3H,4H2,1H3	InChI=1S/C6H7NO2/c1-5-7-4-2-3-6(8)9-5/h2-3H,4H2,1H3
