25
gdb 113201	2.56287	1.06396	0.951	1.0841	89.2	-0.2329	0.0743	0.3072	1431.1961	0.225992	-389.477232	-389.466075	-389.465131	-389.51306	41.449	
C	-0.2239631	 1.1270952674	-0.1705173223	-0.238176
O	 0.5843791467	 0.0008032374	 0.1063036693	-0.234527
C	 0.9517313888	-0.696209854	-1.0433360213	 0.077741
C	 1.4224092358	-2.1035953376	-0.8508492629	-0.378467
C	 0.1048765665	-1.8426711123	-1.5685488676	 0.331116
C	-1.1609158558	-2.1952634581	-0.8078793997	-0.478679
C	 0.0995290242	-2.0470953353	-3.085570836	-0.018733
C	-0.0783802722	-3.5240584803	-3.4701882451	-0.395008
C	-0.9369250624	-1.160833892	-3.7931323229	-0.398021
H	 0.2963412665	 1.844294307	-0.8238169148	 0.105555
H	-1.1705145786	 0.8443403319	-0.6523511705	 0.111076
H	-0.4394099148	 1.6125629282	 0.7843784012	 0.125666
H	 1.4673206978	-0.0787139778	-1.7831120258	 0.075189
H	 2.278238579	-2.4468325143	-1.4232376038	 0.105781
H	 1.3708881541	-2.4896638316	 0.1617624326	 0.117588
H	-1.0732693749	-1.8866998216	 0.2363297625	 0.129695
H	-2.0411194156	-1.6968650333	-1.2279759268	 0.111753
H	-1.3504653977	-3.2737593699	-0.8259740901	 0.114937
H	 1.0909822413	-1.736335995	-3.4450536865	 0.065147
H	 0.0270225759	-3.6604112639	-4.5515720442	 0.107801
H	 0.6666027189	-4.1555148744	-2.9755570933	 0.113936
H	-1.0704350466	-3.8934994597	-3.188668286	 0.115137
H	-0.8120890691	-0.1079209829	-3.5197557128	 0.108842
H	-0.8379344195	-1.2405160843	-4.8807203215	 0.109337
H	-1.9604131782	-1.4549311236	-3.5374097418	 0.115312
58.524	111.6091	124.2626	172.5789	216.4132	228.1655	234.452	252.8675	270.7972	277.5773	295.5328	380.6093	438.0693	471.868	489.0628	567.5497	697.8578	805.5255	845.8945	898.1387	925.6686	933.0733	957.4608	964.4188	1023.35	1040.3032	1070.9233	1101.779	1117.8529	1130.0151	1148.3728	1171.5711	1183.9679	1195.9738	1244.1117	1270.3751	1311.92	1349.0989	1378.7237	1396.1965	1407.8714	1414.0807	1420.008	1471.589	1484.1146	1486.2745	1489.0452	1492.2335	1502.3189	1505.5415	1508.0711	1511.2975	1512.6145	2981.5128	2996.0696	3027.9159	3031.1082	3034.3765	3037.4804	3064.6203	3089.1658	3096.1523	3099.7851	3100.3783	3102.2453	3116.4728	3122.114	3127.4719	3214.7246
COC1CC1(C)C(C)C	CO[C@H]1C[C@]1(C)C(C)C	
InChI=1S/C8H16O/c1-6(2)8(3)5-7(8)9-4/h6-7H,5H2,1-4H3	InChI=1S/C8H16O/c1-6(2)8(3)5-7(8)9-4/h6-7H,5H2,1-4H3/t7-,8+/m0/s1
