15
gdb 13650	5.96089	0.93415	0.85609	0.8257	86.37	-0.2271	-0.0227	0.2043	1309.4541	0.116809	-325.438372	-325.430045	-325.429101	-325.471276	30.265	
C	-0.1711750564	 1.4286517521	-0.2013457239	-0.313745
N	 0.0143918166	-0.0037057982	 0.0001203837	-0.07413
C	 1.3566387277	-0.5234384711	-0.16095375	-0.236545
C	 0.7387365219	-0.4479653241	 1.209122751	-0.225597
C	 1.2449238419	 0.4794470553	 2.1756172875	 0.482437
C	 1.6349712272	 1.2430614267	 3.0326748547	-0.312478
C	 2.0846157164	 2.1019505391	 3.9853196304	 0.298993
C	 2.482600482	 2.8654558235	 4.8327502371	-0.560736
H	 0.6873995653	 2.0383731065	 0.116174235	 0.117884
H	-0.3506587697	 1.6028908228	-1.2664028998	 0.127564
H	-1.0525961149	 1.75826231	 0.3560409279	 0.13272
H	 1.4453011968	-1.4898838147	-0.6499573197	 0.125322
H	 2.1617054248	 0.1797276589	-0.3682214987	 0.12268
H	 0.3333967718	-1.363526058	 1.6349116941	 0.123074
H	 2.8348309386	 3.5352763312	 5.5772644306	 0.192557
78.94	98.0208	189.7075	217.7756	252.3727	347.7362	372.6733	469.1161	503.9017	534.0617	552.0901	598.8883	603.5646	698.7087	755.1805	866.6662	966.8129	1022.1638	1063.0999	1112.6987	1123.5292	1163.3971	1208.1334	1211.7959	1318.9129	1372.4868	1449.7186	1489.5912	1492.88	1505.9418	2178.6048	2348.2934	2995.833	3081.9374	3095.4218	3115.3383	3125.1572	3186.6569	3505.2837
CN1CC1C#CC#C	CN1C[C@H]1C#CC#C	
InChI=1S/C7H7N/c1-3-4-5-7-6-8(7)2/h1,7H,6H2,2H3	InChI=1S/C7H7N/c1-3-4-5-7-6-8(7)2/h1,7H,6H2,2H3/t7-,8?/m1/s1
