22
gdb 110606	3.03949	1.25894	1.10136	1.6454	86.29	-0.221	0.0867	0.3077	1233.8371	0.194139	-367.156943	-367.14805	-367.147106	-367.190199	34.748	
C	 0.377695084	-2.0666798066	 2.6404550916	-0.384484
C	-0.3701508933	-1.619815825	 1.3771637221	-0.210182
C	 0.5349719759	-1.664014887	 0.1632006989	 0.02334
C	 0.7123603083	-2.8290728592	-0.734971528	-0.062533
C	-0.567909815	-3.5637602793	-1.0226421907	-0.150346
C	-0.9361838305	-3.3045179452	-2.469331105	-0.324518
C	-1.1592988911	-2.2211559858	-1.4560619666	 0.387633
C	-2.4789303021	-1.53834319	-1.2481934585	-0.497875
N	 0.1257523975	-1.5008186742	-1.2532397017	-0.201594
H	 0.7323412001	-3.0981233657	 2.5439716685	 0.120669
H	 1.2506490375	-1.432795383	 2.8307379165	 0.11739
H	-0.2699812159	-2.0139324986	 3.52060053	 0.11382
H	-1.2459915724	-2.25548997	 1.2277606837	 0.10879
H	-0.737955452	-0.5945732341	 1.5128058485	 0.102566
H	 1.4593895855	-1.105862202	 0.3173454513	 0.087268
H	 1.6952865127	-3.1572880981	-1.0626611792	 0.092079
H	-0.9904884541	-4.3820241161	-0.4496912744	 0.08808
H	-0.1556451613	-3.1951232977	-3.2177607658	 0.112457
H	-1.8348702882	-3.8055719148	-2.8180832768	 0.105227
H	-3.3051389428	-2.2432575076	-1.382430211	 0.119272
H	-2.5679176359	-1.0952308905	-0.2527110304	 0.121809
H	-2.603039027	-0.7341682595	-1.9825685229	 0.131133
86.5626	152.8894	176.4751	186.8549	246.2711	267.3388	323.8163	370.7775	417.4134	524.6562	609.3485	638.3127	719.9233	767.3753	802.896	821.4807	844.3238	894.7151	905.1345	969.6807	989.306	998.0079	1015.9683	1029.5869	1062.103	1075.726	1092.8878	1101.4025	1113.5005	1124.9387	1177.9284	1218.0322	1257.5256	1266.6845	1293.1634	1339.2645	1360.3993	1379.4349	1409.1223	1422.7501	1450.2476	1481.5285	1491.7648	1492.4442	1498.8731	1503.2793	1510.5279	3027.5256	3033.5925	3035.0169	3087.9025	3096.7528	3100.226	3107.7848	3109.8358	3113.7041	3116.9622	3145.0107	3162.1808	3198.0162
CCC1C2C3CC3(C)N12	CC[C@H]1[C@H]2[C@@H]3C[C@]3(C)N12	
InChI=1S/C8H13N/c1-3-6-7-5-4-8(5,2)9(6)7/h5-7H,3-4H2,1-2H3	InChI=1S/C8H13N/c1-3-6-7-5-4-8(5,2)9(6)7/h5-7H,3-4H2,1-2H3/t5-,6-,7+,8-,9?/m0/s1
