18
gdb 49754	3.40612	1.41167	1.22458	2.7779	76.26	-0.2263	-0.0256	0.2006	1045.35	0.148948	-401.920282	-401.912937	-401.911993	-401.952387	28.832	
O	-0.4055213956	 0.4443096565	-0.7013473108	-0.245922
C	 0.1165741225	 0.9857241421	 0.2372991495	 0.147731
C	 1.2835520581	 1.9655786753	 0.136864597	-0.120737
C	 1.3508418682	 2.6968925736	-1.1903710712	-0.063056
C	 1.425028515	 4.0271634926	-1.1579422841	-0.080441
C	 1.4164053131	 4.6976707274	 0.2034266571	-0.070579
C	 2.3658144154	 3.890142008	 1.1276469054	-0.170641
N	 1.267654774	 2.8684210439	 1.3074741059	-0.138542
C	 0.3058522532	 4.0061565638	 1.0362083881	-0.18127
H	-0.1979212697	 0.7927199075	 1.2871658322	 0.092112
H	 2.1743284229	 1.3222882713	 0.2493647438	 0.117596
H	 1.3202864528	 2.1158788732	-2.1048377837	 0.112934
H	 1.4752533404	 4.6290566325	-2.0592694308	 0.097068
H	 1.4800393869	 5.786575662	 0.1655568131	 0.066541
H	 3.2955938649	 3.5072783233	 0.6995606075	 0.107821
H	 2.5661605112	 4.3765934516	 2.0869104744	 0.107211
H	 0.079439615	 4.5101858946	 1.9800190266	 0.108423
H	-0.6207267784	 3.7320393807	 0.5252331698	 0.113752
65.9158	150.2933	195.9196	351.1501	400.1104	433.4844	454.8886	546.7085	645.9794	690.6583	739.1084	784.8347	826.6529	844.5378	899.547	917.2108	936.2843	976.1664	988.0435	1014.9097	1032.657	1079.5269	1088.5091	1120.5338	1131.8831	1174.1947	1208.3492	1249.0909	1262.7854	1280.73	1294.4821	1309.7621	1332.5689	1379.7117	1397.858	1489.9953	1517.2095	1693.4137	1832.4252	2891.5125	2956.5302	3045.8749	3052.5376	3091.7401	3110.013	3111.8071	3177.5017	3204.9902
O=CC1C=CC2CN1C2	O=C[C@H]1C=C[C@@H]2CN1C2	
InChI=1S/C7H9NO/c9-5-7-2-1-6-3-8(7)4-6/h1-2,5-7H,3-4H2	InChI=1S/C7H9NO/c9-5-7-2-1-6-3-8(7)4-6/h1-2,5-7H,3-4H2/t7-/m1/s1
