12
gdb 132699	3.26046	1.42511	0.99166	1.7438	59.99	-0.2365	-0.0429	0.1936	1054.3708	0.078399	-513.973984	-513.967045	-513.9661	-514.005375	26.455	
O	 0.0364869638	 1.3079532024	 0.1505920542	-0.390939
C	 0.0540060839	-0.0294223482	 0.0587867874	 0.450791
N	 0.0650950486	-0.5698471342	-1.1560677634	-0.347976
C	 0.0829114151	-1.9063769137	-1.2138054809	-0.0509
C	 0.0896768924	-2.6987734509	-0.0755981914	 0.193965
O	 0.1076683366	-4.0545730665	-0.142216922	-0.438749
C	 0.0764616129	-1.9843127667	 1.1249482922	 0.235535
F	 0.0823732227	-2.693744913	 2.25585029	-0.074299
N	 0.0590489559	-0.684196983	 1.2228708877	-0.333247
H	 0.0350990605	 1.6404344307	-0.7571250702	 0.309056
H	 0.0921628464	-2.368859567	-2.1966367446	 0.137685
H	 0.1098308512	-4.4003412499	 0.7584012109	 0.309078
135.2086	242.184	287.6735	364.4511	369.6756	394.2208	469.542	505.5248	550.1356	557.1112	608.2952	720.3218	778.5032	806.3234	816.4798	965.1115	1014.0029	1165.9023	1224.549	1263.8949	1307.2232	1336.6659	1438.834	1501.5218	1515.504	1628.5161	1675.1329	3178.5962	3787.6217	3804.5707
OC1=NC=C(O)C(F)=N1	Oc1ncc(O)c(F)n1	
InChI=1S/C4H3FN2O2/c5-3-2(8)1-6-4(9)7-3/h1,8H,(H,6,7,9)	InChI=1S/C4H3FN2O2/c5-3-2(8)1-6-4(9)7-3/h1,8H,(H,6,7,9)
