21
gdb 41770	3.08233	1.49558	1.10509	0.2125	90.49	-0.2247	0.0272	0.2519	1148.036	0.186242	-349.991616	-349.984123	-349.983179	-350.023428	30.575	
C	-0.0740748028	 1.5489714181	 0.0165900954	-0.250954
C	 1.433687173	 1.9072330033	 0.0238455409	-0.224096
C	 2.1295252327	 0.6591928894	 0.6336729799	-0.108391
C	 3.5031288678	 0.3433046263	 0.1037622493	-0.060712
C	 3.8263315087	-0.8406378967	-0.41893474	-0.064525
C	 2.8761975547	-2.0085536156	-0.5312948949	-0.245335
C	 1.6390948256	-1.8590033054	 0.3852344393	-0.328284
C	 1.1407341383	-0.4514261514	 0.3303671664	 0.365829
C	-0.0537105688	 0.0360331029	-0.0030337508	-0.218066
H	-0.5859275124	 1.9268996192	 0.914110403	 0.10075
H	-0.6012860383	 1.9817365243	-0.8410397277	 0.099402
H	 1.7801658579	 2.0359109243	-1.0073091945	 0.103043
H	 1.6578939616	 2.8299733007	 0.5660775325	 0.090597
H	 2.2038330006	 0.794006171	 1.7272957347	 0.079363
H	 4.2493833332	 1.1337449894	 0.1580745635	 0.081491
H	 4.8323622077	-0.9984158249	-0.8019037984	 0.08245
H	 2.5488144937	-2.1084241358	-1.5762959204	 0.112814
H	 3.4036755612	-2.941347436	-0.2964444473	 0.099744
H	 0.8600470575	-2.5750318848	 0.1054083766	 0.098251
H	 1.9438751073	-2.0978855443	 1.4141893231	 0.105471
H	-0.9256779992	-0.5631249539	-0.2451410407	 0.081157
116.6534	131.9632	270.6189	278.2046	349.0075	426.902	497.9928	532.4522	589.4535	660.0561	693.9234	763.6167	824.9236	831.3941	868.2956	883.9989	889.5507	927.8874	977.8423	1003.0143	1004.3213	1021.4822	1044.3119	1068.7576	1074.4445	1152.2399	1167.9293	1185.9552	1191.6058	1237.8734	1244.3465	1281.6992	1302.0354	1318.4818	1324.5312	1335.8314	1369.5478	1372.2438	1416.8189	1474.1979	1484.0813	1484.6657	1499.1963	1712.3107	1732.1334	2939.0923	2996.5476	3001.2836	3007.241	3042.187	3044.1289	3057.391	3076.0068	3096.1543	3133.164	3157.5908	3181.2944
C1CC2C=CCCC2=C1	C1C[C@@H]2C=CCCC2=C1	
InChI=1S/C9H12/c1-2-5-9-7-3-6-8(9)4-1/h1,4,7-8H,2-3,5-6H2	InChI=1S/C9H12/c1-2-5-9-7-3-6-8(9)4-1/h1,4,7-8H,2-3,5-6H2/t8-/m0/s1
