17
gdb 69195	1.92306	1.78814	1.19181	2.863	74.78	-0.2455	-0.0324	0.2131	1086.0279	0.133839	-421.830693	-421.82213	-421.821186	-421.86411	31.5	
C	 0.1325982161	 1.5377781602	-0.0690860448	-0.500184
C	 0.0772477898	 0.0387493404	-0.089530028	 0.356342
C	-0.9391216324	-0.7759867852	 0.6223453907	-0.323528
C	 0.5194553481	-0.9568281386	 1.0370197513	-0.224927
C	 1.2323151011	-1.7740918344	 0.0210752144	 0.409939
O	 2.0253321618	-2.6676338597	 0.0569952707	-0.308315
C	 0.7595731263	-0.8298039102	-1.1580832209	-0.294124
C	-0.0307034037	-1.4065941826	-2.2980006826	 0.137986
O	-1.2003189589	-1.191698411	-2.5030405803	-0.252096
H	 1.154436285	 1.9039697036	-0.2167468607	 0.124639
H	-0.4920816541	 1.9549283905	-0.8666655501	 0.144074
H	-0.2359716815	 1.9327426521	 0.8825376609	 0.12693
H	-1.5257401327	-0.2467435291	 1.3672110018	 0.128423
H	-1.4769579653	-1.5723777538	 0.1215309797	 0.143239
H	 0.8492547473	-0.7760602705	 2.0526578957	 0.11565
H	 1.6798016249	-0.3820184864	-1.5561284945	 0.12222
H	 0.5550746281	-2.0852833951	-2.9569520432	 0.093731
80.5921	111.4647	160.3762	213.802	219.8686	268.0926	351.4547	390.768	484.4578	569.3056	602.3287	679.9656	725.2728	750.6786	832.8617	888.4013	931.6436	969.7773	986.5436	1019.5909	1037.5361	1063.2822	1073.8454	1104.8218	1131.6061	1138.7828	1225.6328	1275.4976	1314.704	1399.6165	1422.1821	1428.782	1485.0993	1497.7062	1507.872	1808.4228	1886.5073	2888.4664	3029.908	3038.9824	3093.115	3106.1894	3135.1217	3197.0785	3220.4667
CC12CC1C(=O)C2C=O	C[C@]12C[C@H]1C(=O)[C@H]2C=O	
InChI=1S/C7H8O2/c1-7-2-4(7)6(9)5(7)3-8/h3-5H,2H2,1H3	InChI=1S/C7H8O2/c1-7-2-4(7)6(9)5(7)3-8/h3-5H,2H2,1H3/t4-,5+,7-/m0/s1
