20
gdb 110327	2.096	1.6209	1.08415	1.9733	76.21	-0.1951	0.0711	0.2663	1180.0097	0.1686	-440.210055	-440.200446	-440.199502	-440.244122	35.428	
C	 0.0886764177	 1.1813145142	-0.2381021091	-0.235935
O	-0.087137583	 0.03625807	 0.5744585903	-0.242998
C	-1.2874053468	-0.6252511269	 0.3281395354	 0.04398
C	-1.4915356379	-1.7124310452	-0.7219534252	-0.137781
N	-0.3527229441	-2.5980372222	-0.9216231122	-0.064032
C	 0.8166510065	-2.134510636	-1.6485586722	-0.327339
C	-0.2446695049	-2.876961322	 0.5333012347	-0.239993
C	-1.4991339989	-2.0284255655	 0.7801728182	 0.288503
O	-2.5602587823	-2.4318529205	 1.5686257467	-0.458338
H	 1.0427132663	 1.6328966148	 0.0436044611	 0.127358
H	 0.1131774675	 0.9225060547	-1.3058040446	 0.111706
H	-0.7146795136	 1.915496486	-0.0761597168	 0.108329
H	-2.1805097084	-0.0060148124	 0.4553303135	 0.086278
H	-2.3003017474	-1.6714931	-1.4456782953	 0.095138
H	 1.3404390537	-1.2925400466	-1.1710965361	 0.111709
H	 1.5260487263	-2.9626517423	-1.7567412602	 0.116472
H	 0.5125942314	-1.8297862981	-2.6556409977	 0.115182
H	-0.393886784	-3.9369444573	 0.7640113565	 0.108654
H	 0.6715228221	-2.5135873963	 1.0140603288	 0.104209
H	-2.4598577002	-2.0290410583	 2.4382259042	 0.288898
100.9413	138.955	168.8397	180.334	209.1308	216.4366	264.8739	294.5153	313.9118	372.4801	424.167	519.0655	603.5043	662.3354	708.1657	839.9001	896.4198	926.9256	962.6332	982.5886	1025.8795	1051.3031	1084.9192	1119.0797	1143.089	1161.8418	1183.2154	1205.7256	1223.2935	1232.7567	1243.9986	1273.6439	1295.4836	1337.2884	1351.5781	1445.8804	1458.66	1480.1556	1486.7952	1488.953	1500.5171	1512.658	1515.3623	2985.4535	2987.6404	3023.3794	3040.0976	3059.3735	3065.5697	3076.3879	3092.654	3118.8324	3152.8612	3796.2041
COC1C2N(C)CC12O	CO[C@H]1[C@H]2N(C)C[C@@]12O	
InChI=1S/C6H11NO2/c1-7-3-6(8)4(7)5(6)9-2/h4-5,8H,3H2,1-2H3	InChI=1S/C6H11NO2/c1-7-3-6(8)4(7)5(6)9-2/h4-5,8H,3H2,1-2H3/t4-,5+,6+/m1/s1
