19
gdb 87418	3.58967	1.32989	1.29457	1.7632	78.82	-0.2416	0.0987	0.3403	1074.8437	0.1592	-385.818666	-385.811109	-385.810165	-385.850502	30.333	
C	-0.0845658967	 1.5196597012	-0.0643688651	-0.415234
C	-0.0719823027	 0.0231802982	 0.1093490535	-0.053187
O	 1.2163077526	-0.630778743	-0.0146059622	-0.324953
C	 0.5628874458	-0.6461539227	 1.2433433923	 0.514425
C	 1.2672409128	-0.1724858504	 2.4915311388	-0.173377
C	 0.4753301081	-0.7560220045	 3.6759530076	-0.07383
C	-0.71031125	-1.5347578118	 3.1011259504	-0.233373
C	 0.2639752821	-1.9657797808	 1.9688323197	-0.173696
C	 1.4718110213	-1.6089058246	 2.9388243376	-0.073671
H	 0.7133926303	 1.9875460415	 0.5178436981	 0.123702
H	 0.0557391047	 1.788706966	-1.1166342458	 0.127883
H	-1.0442165907	 1.9343265565	 0.2633826619	 0.120048
H	-0.87264748	-0.5108996271	-0.407407	 0.083254
H	 1.9416062366	 0.6645884868	 2.6118208047	 0.09389
H	 0.5747910223	-0.3228696969	 4.6635131452	 0.08874
H	-0.9823525038	-2.3732024666	 3.748148954	 0.101141
H	-1.6130395024	-0.9880890361	 2.8038558694	 0.089787
H	 0.1276936139	-2.8839717472	 1.4024302723	 0.081686
H	 2.3605715059	-2.1382425084	 3.2471979977	 0.096764
123.8173	163.3882	176.8132	236.6062	376.5239	422.7866	479.2222	492.9376	617.742	735.2142	782.02	789.7617	795.6311	817.2835	858.5615	911.0467	929.1689	953.5073	975.3571	1001.5911	1007.6356	1010.2133	1028.2866	1055.03	1077.0433	1121.0212	1133.16	1142.4985	1157.6553	1165.3784	1201.0534	1219.7408	1268.2345	1284.12	1348.703	1364.8307	1409.1255	1475.4957	1491.0207	1498.1147	1537.9031	3031.0318	3035.1385	3080.284	3095.0125	3097.9895	3123.7197	3149.8717	3190.0715	3208.8055	3233.5153
CC1OC11C2C3CC1C23	C[C@H]1O[C@]21[C@H]1[C@H]3C[C@@H]2[C@@H]13	
InChI=1S/C8H10O/c1-3-8(9-3)5-2-4-6(5)7(4)8/h3-7H,2H2,1H3	InChI=1S/C8H10O/c1-3-8(9-3)5-2-4-6(5)7(4)8/h3-7H,2H2,1H3/t3-,4+,5-,6+,7+,8+/m1/s1
