17
gdb 33371	6.00705	0.6212	0.58072	2.628	91.56	-0.2375	-0.0105	0.227	1859.6921	0.134133	-384.615876	-384.606691	-384.605747	-384.651035	32.79	
C	 0.0170222582	-3.7716725146	 0.1083343384	-0.556549
C	 0.0156862689	-2.5643985933	 0.0780945897	 0.29559
C	 0.0109423607	-1.2042429966	 0.0428591876	-0.226179
C	 0.0059504756	 0.0053974428	 0.012996996	 0.370965
C	 0.0120002668	 1.4582388068	-0.0325727543	-0.403725
C	 1.4145831643	 2.0529469184	-0.2048204653	 0.17009
C	 1.5427712549	 3.5877878881	-0.0913295865	-0.301416
C	 2.5229855143	 3.2707681523	 1.0558805552	-0.057897
O	 2.2463727178	 1.8570661701	 0.956885947	-0.282319
H	 0.0211714093	-4.8327309235	 0.1377732679	 0.188937
H	-0.6130669463	 1.8063198704	-0.8672648839	 0.135832
H	-0.4286359351	 1.8640382841	 0.8871826539	 0.137198
H	 1.8845151154	 1.625656691	-1.1004363598	 0.088469
H	 1.9572221077	 4.1021108109	-0.9590173054	 0.114841
H	 0.6242572284	 4.0902025334	 0.2206545563	 0.111901
H	 3.5751072494	 3.495203707	 0.8406851566	 0.105854
H	 2.2703669695	 3.6696386226	 2.0447171966	 0.10841
47.5523	69.581	89.9097	156.6561	199.2563	306.6657	352.4024	376.3453	471.1066	528.3613	533.6715	588.8006	592.7555	735.3967	736.3333	810.4693	868.8073	890.4432	964.3622	1006.2658	1039.6777	1093.0883	1118.9758	1165.9948	1178.2087	1211.1091	1230.4209	1257.2708	1287.5422	1314.7418	1369.3609	1389.2964	1448.6052	1490.0835	1532.3956	2182.8195	2365.7097	3008.6063	3014.0267	3021.3791	3052.8811	3062.0695	3076.5408	3134.7436	3506.8863
C#CC#CCC1CCO1	C#CC#CC[C@H]1CCO1	
InChI=1S/C8H8O/c1-2-3-4-5-8-6-7-9-8/h1,8H,5-7H2	InChI=1S/C8H8O/c1-2-3-4-5-8-6-7-9-8/h1,8H,5-7H2/t8-/m0/s1
