21
gdb 90435	2.50107	1.50052	1.27394	2.1483	77.72	-0.2427	0.0499	0.2926	1103.3884	0.182876	-424.193736	-424.18495	-424.184006	-424.226921	34.537	
C	 0.1512634219	 1.5872487175	-0.2862720667	-0.41584
C	 0.0891982794	 0.0876369692	-0.0280222277	 0.060185
C	 0.8964984883	-0.9100221272	-0.9131977724	-0.27313
C	 1.2170142186	-1.7664316677	 0.3496118828	-0.035947
C	 2.6333436187	-1.6000789548	 0.9155143809	 0.063821
O	 3.6541006169	-1.4519766232	-0.0604310567	-0.427354
C	 2.2000667179	-0.2637170721	 1.6170839059	 0.083524
O	 2.8341459478	 0.868174612	 1.0724719791	-0.433791
C	 0.7071954279	-0.5654105027	 1.2361765305	-0.077695
H	 1.1785084019	 1.9519774869	-0.2828894898	 0.135294
H	-0.3084525305	 1.8272771366	-1.2524153417	 0.101812
H	-0.4001837687	 2.13775979	 0.4848101694	 0.106937
H	-0.9622847623	-0.2260266621	-0.0491566831	 0.070005
H	 0.3301099959	-1.4211230172	-1.6949239077	 0.096106
H	 1.7887644583	-0.477891336	-1.3716736907	 0.109972
H	 0.7767137494	-2.7637635397	 0.3749602342	 0.060491
H	 2.8912777809	-2.3870475345	 1.6331869633	 0.07258
H	 4.5062018336	-1.5978680504	 0.3625277541	 0.294239
H	 2.3541390822	-0.2566409017	 2.7026514483	 0.0715
H	 3.3667943743	 0.5335435446	 0.3352603983	 0.284082
H	 0.0547521474	-0.6974513875	 2.1016791997	 0.053209
61.8722	177.8323	226.4366	232.8773	249.3455	276.9179	287.0924	373.7337	501.5006	525.5668	537.6124	597.4676	644.311	731.8315	778.3893	806.834	844.3942	876.5679	891.9674	951.5353	980.0893	1027.3108	1054.4932	1070.1509	1116.9332	1123.7318	1133.673	1159.3612	1175.5961	1203.5687	1216.2858	1235.7996	1254.9407	1276.3093	1291.1646	1319.7403	1336.6023	1352.2167	1384.7943	1408.0565	1421.3677	1431.3768	1490.828	1497.9326	1508.5112	3013.1715	3019.8165	3029.0736	3038.6213	3067.296	3081.4271	3081.9984	3099.4159	3119.7019	3151.6317	3702.8667	3823.5539
CC1CC2C(O)C(O)C12	C[C@H]1C[C@H]2[C@@H](O)[C@@H](O)[C@@H]12	
InChI=1S/C7H12O2/c1-3-2-4-5(3)7(9)6(4)8/h3-9H,2H2,1H3	InChI=1S/C7H12O2/c1-3-2-4-5(3)7(9)6(4)8/h3-9H,2H2,1H3/t3-,4+,5-,6+,7-/m0/s1
