16
gdb 54975	3.02071	1.16283	0.99113	3.7023	67.94	-0.2493	-0.037	0.2123	1191.617	0.122159	-475.058075	-475.049048	-475.048104	-475.091957	33.09	
N	-0.2348575952	 1.1844344642	 0.3077408847	-0.533444
C	-0.0660775034	-0.0792484191	-0.1533199426	 0.458008
O	 1.0448105299	-0.5190755757	-0.447933033	-0.411723
C	-1.298610012	-0.9054605102	-0.2593225241	-0.213168
C	-1.4182174644	-1.8660496196	-1.4242430451	-0.333442
C	-1.0986984807	-2.4314297118	-0.0693438363	 0.315223
O	 0.1388415474	-2.9557442644	 0.2356233466	-0.475989
C	-2.2022997324	-3.1221029815	 0.6619915119	 0.119689
O	-3.3696453511	-2.8335561743	 0.5561122337	-0.271848
H	 0.5774604791	 1.7717413862	 0.4042061033	 0.269812
H	-1.1405103109	 1.5625319815	 0.5219759159	 0.269885
H	-2.2240902029	-0.5027891404	 0.138044834	 0.110754
H	-2.41577797	-2.0311232843	-1.8145963292	 0.142244
H	-0.602904234	-1.8622666601	-2.1390726004	 0.143016
H	 0.8008026134	-2.2884718192	-0.0332822835	 0.309557
H	-1.8447623328	-3.9388900011	 1.322765714	 0.101426
82.3044	102.93	156.7563	198.3157	217.8646	257.8978	317.6407	382.131	419.0722	491.3682	574.8515	607.4141	626.204	657.6246	703.4715	768.5419	798.6631	838.4172	940.2602	1000.8839	1039.4533	1054.5424	1076.0316	1083.793	1127.3383	1205.4499	1282.0611	1304.4024	1403.6198	1435.4719	1443.3111	1478.1008	1617.8625	1738.1187	1816.9646	2928.522	3138.6804	3169.8879	3242.4929	3544.5208	3605.5084	3742.8988
NC(=O)C1CC1(O)C=O	NC(=O)[C@H]1C[C@]1(O)C=O	
InChI=1S/C5H7NO3/c6-4(8)3-1-5(3,9)2-7/h2-3,9H,1H2,(H2,6,8)	InChI=1S/C5H7NO3/c6-4(8)3-1-5(3,9)2-7/h2-3,9H,1H2,(H2,6,8)/t3-,5+/m1/s1
