19
gdb 77452	1.89278	1.55823	1.49819	1.8458	78.16	-0.2344	0.0227	0.2571	1091.3984	0.1582	-419.187862	-419.178467	-419.177523	-419.221432	35.279	
C	-0.0157529781	 1.5943871824	-0.0480213854	-0.423581
C	 0.0569056546	 0.0841674335	-0.0651550675	-0.102933
C	 0.6879731803	-0.735006528	-1.1406454356	 0.404388
C	 0.095626565	-1.791701091	-2.006916947	-0.491443
O	 1.8480030034	-0.007534416	-1.6611779182	-0.308767
C	 2.48523805	-0.1140153614	-0.4259130813	 0.374498
N	 3.6670280657	 0.1470617723	-0.095559096	-0.56615
C	 1.3120060274	-0.7459710395	 0.257550215	 0.103123
N	 1.2979988103	-1.7305315341	 1.2762423744	-0.599971
H	 0.8467819434	 2.0384692237	-0.5490886548	 0.141129
H	-0.9181098798	 1.9394866964	-0.5639146568	 0.121257
H	-0.0513670736	 1.9740643483	 0.9780662864	 0.12131
H	-0.8089080928	-0.421703079	 0.3607475009	 0.104711
H	-0.431585151	-1.355391732	-2.8623835974	 0.134683
H	 0.8723469816	-2.4613635507	-2.3886389685	 0.133841
H	-0.6207601659	-2.3819422673	-1.4285514674	 0.139738
H	 4.2001873559	 0.5145948062	-0.8856447621	 0.227736
H	 2.1137070025	-2.3311494342	 1.2056740884	 0.243658
H	 1.3233835712	-1.3017728297	 2.1964141428	 0.242773
120.2783	157.4696	167.9291	189.2208	201.3552	243.2844	256.2585	286.2368	358.0516	428.9541	517.6784	580.6051	631.1258	663.6383	721.1606	737.6593	798.2813	837.675	870.7592	889.9714	953.4261	973.7834	1014.9239	1097.821	1108.2923	1124.4796	1131.6072	1177.4285	1253.8668	1277.7108	1312.5158	1372.8894	1412.696	1416.5512	1474.0297	1487.9515	1492.6176	1496.0601	1524.0492	1667.3463	1820.5554	3035.6841	3039.3921	3098.2273	3100.1398	3120.1655	3122.6364	3137.1379	3474.9344	3496.3044	3569.1685
CC1C2(C)OC(=N)C12N	C[C@H]1[C@@]2(C)O[C]([NH])[C@@]12N	
InChI=1S/C6H10N2O/c1-3-5(2)6(3,8)4(7)9-5/h3,7H,8H2,1-2H3	InChI=1S/C6H10N2O/c1-3-5(2)6(3,8)4(7)9-5/h3,7H,8H2,1-2H3/t3-,5+,6-/m0/s1
