17
gdb 104111	2.33815	1.53967	1.31035	2.6477	64.3	-0.2652	0.0048	0.2699	1047.5401	0.134388	-496.143067	-496.134318	-496.133373	-496.176503	32.256	
C	-0.126645558	 1.6347868505	 0.1739166344	-0.427584
C	 0.0275591766	 0.1364205542	 0.0019620793	 0.434903
C	-1.3165311671	-0.5987912777	-0.1326063397	-0.101507
O	-1.1471234683	-2.0011211848	-0.1676443287	-0.421635
O	 0.8548353609	-0.1265657862	-1.1230141519	-0.288229
C	 1.7377480863	-1.1797334794	-0.7985326125	-0.221296
C	 1.6885888102	-1.2736623153	 0.7179715757	 0.380792
O	 2.3431184877	-1.9436971219	 1.458031648	-0.326359
O	 0.7156510671	-0.4176063125	 1.1382609631	-0.259905
H	 0.858310644	 2.0952028351	 0.2728924284	 0.138642
H	-0.623740788	 2.0566312152	-0.7037402974	 0.137749
H	-0.7199530791	 1.8632934368	 1.0623979419	 0.134199
H	-1.9881769389	-0.2852731327	 0.6787439235	 0.102034
H	-1.7679822484	-0.3069348387	-1.0852499557	 0.127812
H	-0.9745078852	-2.2983869568	 0.7318752782	 0.301096
H	 1.425632412	-2.135666366	-1.2351887344	 0.148176
H	 2.7505118482	-0.941005	-1.1376189025	 0.141113
83.1633	128.9411	156.7351	193.6962	235.445	323.4739	339.6512	360.9376	399.8169	509.3264	565.8913	602.1637	630.5113	670.7561	821.4624	856.7055	906.0859	948.9932	962.5377	1035.504	1076.1951	1088.9819	1129.5348	1185.8265	1211.7178	1218.5758	1246.4349	1283.1456	1357.2545	1401.0649	1409.313	1413.3508	1477.5453	1485.2043	1487.8683	1491.0813	1900.7517	3011.6501	3039.9897	3056.8371	3089.018	3097.5429	3135.0286	3143.6789	3820.0508
CC1(CO)OCC(=O)O1	C[C@@]1(CO)OCC(=O)O1	
InChI=1S/C5H8O4/c1-5(3-6)8-2-4(7)9-5/h6H,2-3H2,1H3	InChI=1S/C5H8O4/c1-5(3-6)8-2-4(7)9-5/h6H,2-3H2,1H3/t5-/m1/s1
