17
gdb 103028	2.37195	1.74422	1.18592	4.4515	73.02	-0.2522	0.019	0.2712	1054.682	0.135618	-417.929747	-417.921472	-417.920528	-417.96268	31.012	
C	 0.7516872707	-0.3004628055	-1.3179100343	-0.346521
N	 0.0230596314	-0.0461467487	-0.0718042041	-0.35034
C	 0.6694187024	-0.5474220434	 1.1145330909	 0.188629
C	 1.9921935779	 0.0508891841	 1.3662344876	 0.251367
N	 3.0062618601	 0.6013192206	 1.4471399535	-0.346055
C	-0.1868021575	-0.7789622693	 2.4051678253	 0.000088
C	-0.934042759	-1.9360395492	 1.7055266062	-0.238144
C	 0.5819335748	-2.0785502384	 1.4433940214	 0.029676
O	 0.8390394233	-1.7397200112	 2.8575488586	-0.294061
H	 0.8064134856	-1.3798658236	-1.492126871	 0.131199
H	 0.1954303813	 0.1432502053	-2.1469863864	 0.13112
H	 1.7756547813	 0.1016048134	-1.3245929287	 0.134858
H	-0.1450594735	 0.9496614249	 0.0310714393	 0.234926
H	-0.5345376869	-0.0331502746	 3.1194661263	 0.112568
H	-1.3389030777	-2.6816155816	 2.3887052989	 0.119263
H	-1.5816971547	-1.6945784742	 0.8650716998	 0.128079
H	 1.1565620806	-2.8944528485	 1.0067630767	 0.113347
82.2503	154.6486	163.3301	201.8554	210.5909	333.63	403.864	483.6067	490.6288	547.6884	636.2353	661.5505	746.4248	784.0747	834.0132	892.7969	926.5876	944.5778	1004.1954	1028.2616	1054.1395	1092.0313	1137.1671	1144.6126	1168.1877	1177.1971	1193.5938	1212.301	1233.4014	1276.7888	1288.7752	1457.3974	1468.8581	1474.3668	1491.0149	1519.8719	2341.0052	2997.4397	3078.6582	3101.0753	3121.1395	3128.753	3134.9614	3185.9594	3520.0867
CNC1(C#N)C2CC1O2	CN[C@@]1(C#N)[C@H]2C[C@@H]1O2	
InChI=1S/C6H8N2O/c1-8-6(3-7)4-2-5(6)9-4/h4-5,8H,2H2,1H3	InChI=1S/C6H8N2O/c1-8-6(3-7)4-2-5(6)9-4/h4-5,8H,2H2,1H3/t4-,5+,6+
