12
gdb 25219	2.56877	1.84472	1.15664	3.4721	67.09	-0.2637	-0.1129	0.1508	969.4362	0.077086	-472.641219	-472.63394	-472.632996	-472.674013	25.906	
O	 0.1149619282	-0.1303084817	 0.195693496	-0.26383
C	 0.0309669051	 1.0308737344	-0.0529195533	 0.34515
O	-1.1845401458	 1.537293894	-0.455021165	-0.207599
C	-1.4854859147	 2.80830475	-0.8169608666	 0.055423
C	-0.689700872	 3.7768822518	-1.3034423302	-0.058561
N	 0.6610769909	 3.7546023454	-1.5894632724	-0.19638
C	 1.5017739161	 2.963045058	-1.0414111253	-0.078688
C	 1.2587921495	 1.9619505528	 0.039995584	 0.22552
O	 2.0638637422	 1.7705950911	 0.9170575839	-0.258832
H	-2.553727333	 2.9713548027	-0.7358912465	 0.15212
H	-1.189816205	 4.697704428	-1.585528559	 0.134067
H	 2.5498815086	 3.0410602936	-1.3339635155	 0.151609
43.8641	88.7812	266.7742	316.4744	341.2159	403.153	427.2906	545.0258	620.4122	637.0208	752.332	791.0781	846.0042	871.7581	922.8257	943.4914	985.8413	1015.7024	1176.1197	1211.2339	1345.2153	1381.6668	1437.2701	1618.7236	1674.0118	1788.7205	1860.7504	3125.7749	3182.6692	3215.606
O=C1OC=CN=CC1=O	O=c1occncc1=O	
InChI=1S/C5H3NO3/c7-4-3-6-1-2-9-5(4)8/h1-3H	InChI=1S/C5H3NO3/c7-4-3-6-1-2-9-5(4)8/h1-3H
