15
gdb 54893	2.85388	1.54773	1.03465	5.6459	69.24	-0.233	-0.0159	0.217	1090.7333	0.11326	-454.02035	-454.012381	-454.011437	-454.053305	29.744	
N	-0.0686735171	 1.3958802797	 0.090199213	-0.561471
C	 0.0667673275	 0.0477374054	-0.1996024558	 0.446973
O	 1.1018251732	-0.4613218158	-0.546287829	-0.334776
N	-1.1534121967	-0.6617760891	-0.1025883388	-0.186755
C	-2.4498208234	-0.0993789806	-0.1829389022	-0.003687
C	-3.4055370664	-1.0220621668	-0.0716023652	-0.163805
C	-2.7661560904	-2.3684132614	 0.1055059155	-0.39246
C	-1.259589252	-2.0701368312	 0.0770522434	 0.421176
O	-0.3541790888	-2.8429660301	 0.2140186399	-0.320557
H	 0.8225175544	 1.8676798186	 0.1366299951	 0.269305
H	-0.7245607101	 1.6682418598	 0.8067400761	 0.259372
H	-2.5446415569	 0.9599353252	-0.3668218256	 0.142649
H	-4.4669009175	-0.8359520381	-0.1320152522	 0.117279
H	-3.0146242388	-2.8641578373	 1.0508090523	 0.152064
H	-3.0098895471	-3.0795999281	-0.6924840465	 0.154693
67.3401	104.1128	182.4217	211.0123	373.7698	438.0376	446.3307	470.3745	535.8576	565.5503	592.9445	664.718	699.8033	712.4644	776.3877	839.7667	933.582	957.4083	976.903	984.4836	1103.5566	1139.5783	1152.156	1193.8908	1240.3681	1277.3832	1357.9762	1393.6734	1435.8977	1620.2942	1677.1946	1811.859	1885.8994	3045.9059	3077.2253	3243.7603	3266.0984	3572.1003	3687.3862
NC(=O)N1C=CCC1=O	NC(=O)N1C=CCC1=O	
InChI=1S/C5H6N2O2/c6-5(9)7-3-1-2-4(7)8/h1,3H,2H2,(H2,6,9)	InChI=1S/C5H6N2O2/c6-5(9)7-3-1-2-4(7)8/h1,3H,2H2,(H2,6,9)
