19
gdb 40838	3.70063	1.14372	0.98443	2.6676	71.53	-0.2586	0.0879	0.3464	1222.7398	0.160566	-460.136585	-460.128685	-460.12774	-460.16948	30.001	
C	 0.4781106506	 1.5031060559	 0.2208646114	-0.172043
O	 1.2724098464	 0.3857946183	-0.1939184773	-0.235285
C	-0.1000328846	 0.1598922983	 0.1153859638	 0.059788
C	-0.4016132351	-0.7041020279	 1.3196068563	 0.090545
C	 0.0962540322	-2.1458894317	 1.1347207176	-0.212175
C	-0.084950548	-2.9133575555	 2.4459651616	-0.097643
O	 0.5100473406	-2.2012478285	 3.52337338	-0.228945
C	-0.0194102413	-0.9101372679	 3.6214848297	 0.018863
O	 0.2050778711	-0.1334331527	 2.4719549302	-0.252392
H	 0.7153034667	 1.8945153384	 1.2056191062	 0.134204
H	 0.2685813103	 2.2396666714	-0.553571921	 0.110339
H	-0.7220580002	-0.0749468224	-0.7509165614	 0.0922
H	-1.4992552354	-0.7144382942	 1.4577927015	 0.064947
H	-0.4488407787	-2.6396443263	 0.3222610984	 0.097121
H	 1.156711267	-2.1088933286	 0.8684751456	 0.134143
H	-1.1586515425	-3.0686501004	 2.6502656935	 0.087372
H	 0.3989780008	-3.8925319242	 2.4130986114	 0.115952
H	-1.1079661968	-0.9644916943	 3.8222050752	 0.072839
H	 0.4930987569	-0.4113607378	 4.4461315372	 0.120172
71.4021	115.1725	201.0546	253.3192	265.6093	381.7439	415.582	471.8643	499.3064	614.6628	690.3296	798.0371	852.589	884.899	906.2543	926.893	982.1749	990.3127	1029.1033	1061.2966	1087.5793	1099.9552	1125.4241	1148.7989	1170.5746	1173.9129	1206.2121	1236.3061	1272.4086	1295.6465	1312.8908	1335.3265	1375.3441	1390.1179	1402.8935	1438.4999	1450.206	1471.2304	1496.4256	1509.3644	1522.6041	2906.1676	2929.7282	2960.4544	3046.1295	3088.4206	3095.5228	3098.5296	3106.3291	3115.9615	3199.9175
C1OC1C1CCOCO1	C1O[C@H]1[C@H]1CCOCO1	
InChI=1S/C6H10O3/c1-2-7-4-9-5(1)6-3-8-6/h5-6H,1-4H2	InChI=1S/C6H10O3/c1-2-7-4-9-5(1)6-3-8-6/h5-6H,1-4H2/t5-,6-/m1/s1
