14
gdb 30607	4.70906	1.08122	0.88422	2.3362	67.15	-0.2635	-0.0509	0.2127	1235.8121	0.101495	-473.881035	-473.87311	-473.872166	-473.914431	27.272	
C	-0.0644763572	 1.2965987795	 0.0996643792	-0.243277
O	 0.0219827007	-0.1294879317	-0.0250946994	-0.231968
C	 0.6473287454	-0.5643059035	-1.1315714596	 0.358587
O	 1.1181264827	 0.148747712	-1.9857924166	-0.37375
C	 0.701244581	-2.0271731055	-1.1978871072	 0.220756
C	 1.2336806564	-2.863936339	-2.1303463173	-0.141714
N	 1.0300972755	-4.1735810477	-1.7406321191	-0.256105
C	 0.3966977696	-4.0675365242	-0.6131975412	 0.081034
O	 0.1562433434	-2.806830082	-0.2100228893	-0.160631
H	 0.933493298	 1.7407899243	 0.1306904168	 0.145371
H	-0.6137024891	 1.7235123416	-0.7430896244	 0.145494
H	-0.594226674	 1.4779284959	 1.0343545557	 0.138717
H	 1.7427747999	-2.602481426	-3.0435616181	 0.155894
H	 0.0446592276	-4.8585326036	 0.0307323503	 0.161591
74.8039	110.867	135.16	145.622	236.9928	310.7168	400.2668	489.2418	633.6239	663.1023	779.1608	812.3173	864.0133	912.3786	938.3545	957.996	1019.5802	1124.4023	1159.4722	1162.5046	1178.6877	1217.9922	1252.3936	1326.5489	1352.7727	1472.6502	1482.1357	1496.0439	1517.848	1619.6261	1798.0848	3054.1543	3129.4862	3164.6811	3275.8943	3281.3624
COC(=O)C1=CN=CO1	COC(=O)c1cnco1	
InChI=1S/C5H5NO3/c1-8-5(7)4-2-6-3-9-4/h2-3H,1H3	InChI=1S/C5H5NO3/c1-8-5(7)4-2-6-3-9-4/h2-3H,1H3
