17
gdb 35369	3.75474	1.41018	1.24395	2.9469	74.35	-0.2514	0.0285	0.28	1009.4565	0.139411	-380.855524	-380.84868	-380.847736	-380.886876	27.134	
N	-0.0963497919	-1.1722251802	-0.2061456979	-0.327129
C	-0.0686971763	-0.0213603899	-0.1003612061	 0.269624
C	-0.0140562267	 1.429011563	 0.0428300791	-0.135077
C	-0.5893494427	 1.9659013685	 1.3891390265	-0.269643
C	 0.3435132797	 3.1298978048	 1.6967037579	-0.025981
C	 1.79363378	 2.8860414227	 1.8981225677	-0.031445
C	 2.2435486139	 1.5696833635	 1.2798959346	-0.259436
C	 1.4166060476	 1.9982434924	 0.0413711612	-0.004521
N	 1.2724438152	 3.4178316727	 0.5738362523	-0.155997
H	-0.5635537346	 1.8780552519	-0.7918717427	 0.135296
H	-1.6236692903	 2.2961643894	 1.2732204211	 0.126116
H	-0.5723649171	 1.1989835307	 2.1677998463	 0.133095
H	-0.0721668517	 4.0201943704	 2.1571380952	 0.102873
H	 2.3897951047	 3.509544982	 2.5572294706	 0.099636
H	 3.3135455376	 1.5708972628	 1.0659342129	 0.123651
H	 1.982542289	 0.6325371344	 1.7812282325	 0.118781
H	 1.9095283636	 1.952234911	-0.9283275711	 0.100156
102.3603	155.0091	262.4997	358.6941	410.458	493.0376	549.2949	617.1688	700.3171	746.0349	781.1562	800.208	823.0887	898.012	936.4238	967.5119	986.2519	987.1901	1030.636	1046.721	1076.6275	1088.9576	1099.9353	1140.2508	1183.9171	1201.2963	1233.0334	1266.5052	1282.435	1301.5296	1317.1979	1346.0324	1363.6094	1406.763	1492.8243	1507.6963	2356.726	3053.699	3055.4392	3071.4258	3115.8375	3118.5185	3131.7641	3157.7236	3172.4291
N#CC1CC2C3CC1N23	N#C[C@H]1C[C@H]2[C@H]3C[C@@H]1N23	
InChI=1S/C7H8N2/c8-3-4-1-6-7-2-5(4)9(6)7/h4-7H,1-2H2	InChI=1S/C7H8N2/c8-3-4-1-6-7-2-5(4)9(6)7/h4-7H,1-2H2/t4-,5+,6+,7-,9?/m1/s1
