19
gdb 74567	2.8313	1.18605	1.05891	3.5899	82.83	-0.2241	-0.0166	0.2075	1224.075	0.159156	-385.905803	-385.897422	-385.896477	-385.938885	31.881	
C	-0.0037447106	 1.5185444235	 0.0318319946	-0.491481
C	 0.0415126499	 0.0250691828	-0.0238353135	 0.31927
C	-0.0079155091	-0.7542063949	-1.1113555497	-0.185187
C	 0.0120741197	-2.2066498956	-0.7694564477	-0.095385
C	 0.0550492713	-2.2587023768	 0.7323155032	-0.074298
C	 0.1257137883	-0.8181425949	 1.2385797669	-0.323229
C	-1.1926260533	-2.7692732395	 0.0079282114	-0.111954
C	-2.5112512047	-2.0999901096	 0.0502213589	 0.149761
O	-3.5549821103	-2.6991710706	 0.1756324435	-0.27716
H	 0.8686439935	 1.9209161286	 0.5625531094	 0.127074
H	-0.027244833	 1.9581714923	-0.9687510875	 0.127613
H	-0.8880874948	 1.8719836738	 0.5772451703	 0.130966
H	-0.0763828366	-0.3929366356	-2.1314982518	 0.094542
H	 0.5448086518	-2.9084303292	-1.4019518033	 0.098954
H	 0.6228922663	-3.0195920818	 1.2538873553	 0.100099
H	 1.0726934282	-0.6409327494	 1.7668938763	 0.112812
H	-0.6688225792	-0.5701094595	 1.9539217243	 0.118084
H	-1.2848802302	-3.8510146731	 0.0000632301	 0.105737
H	-2.4987186372	-0.9956598505	-0.0503825807	 0.073781
95.7162	112.0813	179.2068	211.8035	251.4613	311.7785	397.1817	412.8789	462.3107	550.7758	613.5761	721.2296	765.8606	829.5932	857.7103	867.9578	936.1869	946.5249	959.5942	983.7352	1019.5692	1051.9341	1058.2024	1076.0127	1099.5417	1114.3027	1192.6109	1196.7961	1216.6896	1282.4688	1320.8871	1338.4688	1349.8378	1378.3671	1415.7158	1448.3251	1478.8064	1480.3944	1488.6065	1703.8303	1800.7485	2921.663	3013.0345	3018.5489	3044.6584	3062.5799	3113.1328	3160.9051	3167.7227	3185.4737	3194.2904
CC1=CC2C(C1)C2C=O	CC1=C[C@H]2[C@@H](C1)[C@H]2C=O	
InChI=1S/C8H10O/c1-5-2-6-7(3-5)8(6)4-9/h2,4,6-8H,3H2,1H3	InChI=1S/C8H10O/c1-5-2-6-7(3-5)8(6)4-9/h2,4,6-8H,3H2,1H3/t6-,7+,8-/m0/s1
