20
gdb 78422	3.62972	1.59401	1.44282	1.409	81.82	-0.2195	0.0836	0.3032	983.6168	0.173686	-365.931109	-365.92419	-365.923246	-365.962192	28.878	
C	-0.0780249231	 1.564109476	 0.046861668	-0.426794
C	 0.0096347763	 0.0457084312	-0.0258683116	 0.009047
C	 0.5699367304	-0.7793543501	-1.136950639	-0.084128
C	 1.6754744549	-0.2524014484	-2.0343581152	-0.030796
C	 3.0053118862	-0.8944238378	-1.4684552543	-0.041211
C	 3.7820561691	 0.370255589	-1.8752128111	-0.270295
C	 2.4476251319	 0.8994242566	-1.3096167104	-0.066153
C	 2.5198532533	-0.1798174798	-0.1667171247	 0.024445
N	 1.2254060095	-0.779074551	 0.1969476684	-0.139813
H	 0.6881547026	 1.9850153323	 0.704862627	 0.130481
H	 0.0117299219	 2.0465178584	-0.9287363934	 0.129993
H	-1.0501103424	 1.8454254522	 0.4611607169	 0.116836
H	-0.826181838	-0.4346468986	 0.4811196009	 0.094726
H	 0.0586503215	-1.6904921465	-1.4419000037	 0.08626
H	 1.5158648779	-0.2033693982	-3.1122081324	 0.066146
H	 3.3081386895	-1.9392113958	-1.5541617101	 0.073961
H	 4.6851692255	 0.6015284749	-1.3028206702	 0.091407
H	 3.9508703514	 0.5196596994	-2.9450557021	 0.092276
H	 2.1532703106	 1.9425697438	-1.2258952854	 0.071202
H	 3.1993324611	-0.0415066076	 0.6748474323	 0.07241
113.5013	194.993	252.6511	356.5302	394.2666	489.1242	602.6567	672.5907	705.1269	763.2047	779.2241	808.8068	818.6726	883.1621	903.8906	919.1206	935.9499	969.1122	977.3642	997.334	1024.5286	1047.3909	1069.3109	1080.6769	1096.9029	1110.9519	1130.903	1132.8221	1152.9153	1176.6021	1186.4598	1226.2306	1241.2727	1270.3944	1272.4483	1292.8508	1331.2799	1373.2205	1411.7933	1428.2838	1496.4648	1503.9829	1518.3493	3045.3839	3047.978	3098.2759	3099.7401	3105.2666	3109.4538	3112.6502	3115.3102	3120.1731	3127.5873	3144.0312
CC1C2C3C4CC3C4N12	C[C@H]1[C@H]2[C@@H]3[C@H]4C[C@@H]3[C@H]4N12	
InChI=1S/C8H11N/c1-3-7-6-4-2-5(6)8(4)9(3)7/h3-8H,2H2,1H3	InChI=1S/C8H11N/c1-3-7-6-4-2-5(6)8(4)9(3)7/h3-8H,2H2,1H3/t3-,4-,5+,6-,7-,8+,9?/m0/s1
