22
gdb 110636	2.38765	1.37916	1.06033	1.728	86.38	-0.214	0.0697	0.2837	1258.9518	0.193637	-367.122912	-367.113855	-367.112911	-367.156563	35.158	
C	-0.0088485685	 1.257415092	 1.1125536128	-0.401955
C	 0.0708839727	 0.2158873939	-0.0116577892	-0.218937
C	-1.2489006529	-0.5464379387	-0.1569597536	-0.049609
C	-1.9148058376	-1.3186054075	-1.2879623258	-0.099288
N	-1.1487157763	-2.3134235132	-2.132345777	-0.135074
C	 0.2839330833	-2.2858052107	-1.7937883052	-0.25228
C	-0.6602245407	-2.9289687112	-0.8490232487	-0.094307
C	-1.5565862941	-2.009708785	 0.0169044817	 0.30353
C	-2.422031281	-2.5904987599	 1.0979696534	-0.495493
H	 0.9425427493	 1.7849814808	 1.2308210185	 0.112611
H	-0.7823756561	 2.0050604094	 0.9054403689	 0.117891
H	-0.251571501	 0.7847978658	 2.0704834448	 0.118977
H	 0.3271286386	 0.7222917038	-0.9507046577	 0.108463
H	 0.8905372029	-0.474204588	 0.209476158	 0.11035
H	-2.0586940991	 0.0212666827	 0.3081010568	 0.085439
H	-2.8781453795	-1.0142328637	-1.6809722245	 0.094184
H	 0.8556812845	-2.9650318871	-2.4223296087	 0.117834
H	 0.7822067785	-1.3508778014	-1.5897340236	 0.123471
H	-0.6878691359	-4.007690186	-0.7218819543	 0.094776
H	-1.8345217522	-2.8392921203	 1.9908523827	 0.118774
H	-3.1994615183	-1.8820328459	 1.4007939747	 0.118814
H	-2.9175843766	-3.5093600901	 0.7627667962	 0.121826
60.6996	166.6815	178.6248	203.3625	231.8179	265.9988	297.3612	343.6318	406.4556	497.3928	566.023	650.8985	680.9141	749.1104	772.2179	795.8529	860.7395	892.6225	917.9183	936.4688	976.9709	985.7026	1009.7766	1051.1742	1075.351	1091.5756	1108.6147	1121.0941	1132.9427	1138.8423	1161.1988	1218.367	1239.1964	1264.1881	1308.5787	1330.8178	1335.7097	1380.7912	1409.6371	1415.9773	1479.2955	1483.8052	1490.7892	1499.4019	1500.689	1504.7264	1507.4542	3016.3545	3023.7329	3030.6018	3067.8166	3071.904	3077.3888	3099.0245	3101.5416	3105.5321	3125.2979	3146.2016	3173.0844	3261.0681
CCC1C2N3CC3C12C	CC[C@H]1[C@H]2N3C[C@H]3[C@@]12C	
InChI=1S/C8H13N/c1-3-5-7-8(5,2)6-4-9(6)7/h5-7H,3-4H2,1-2H3	InChI=1S/C8H13N/c1-3-5-7-8(5,2)6-4-9(6)7/h5-7H,3-4H2,1-2H3/t5-,6-,7+,8+,9?/m0/s1
