18
gdb 85374	1.9384	1.76319	0.95312	2.4329	75.88	-0.2533	0.004	0.2573	1208.64	0.150291	-435.342433	-435.334093	-435.333149	-435.375403	31.885	
C	-0.0617854401	 1.548843873	-0.0094788636	-0.41147
C	 0.0539129884	 0.0274639842	 0.0209477309	 0.037297
C	 0.66254035	-0.534979916	-1.2663327171	-0.243373
C	 0.9305942719	-2.0183121151	-1.1670450741	 0.369035
N	 0.8190121849	-2.7671385062	-2.1908234576	-0.518675
N	 1.3247504221	-2.4301831358	 0.1027765428	-0.39017
C	 1.3867988386	-1.6606289575	 1.269464751	 0.446912
O	 1.841180989	-2.1153643128	 2.2996027352	-0.39694
N	 0.9105253832	-0.3830378478	 1.1317663241	-0.350865
H	 0.922304121	 2.0084721386	-0.1444680144	 0.131508
H	-0.7108433702	 1.8644641216	-0.831020294	 0.13116
H	-0.4943012782	 1.9287691735	 0.9222563016	 0.121139
H	-0.9551980553	-0.3987122383	 0.1442436205	 0.091775
H	 0.0124732076	-0.362435928	-2.1247033632	 0.136954
H	 1.6162843387	-0.0252952615	-1.4556608657	 0.130434
H	 1.0619236462	-3.7374288263	-1.9776207338	 0.205796
H	 1.6398064978	-3.3803338664	 0.236407808	 0.256234
H	 0.8155889045	 0.096728221	 2.0142893194	 0.253247
108.5385	130.5557	144.2816	249.7511	271.612	362.4004	435.1565	444.0427	494.1531	537.4744	567.1582	583.7805	610.8205	657.9561	764.8545	877.3089	890.0538	910.3912	941.7174	966.8288	1031.0793	1083.0816	1121.5387	1148.5738	1196.6194	1217.6552	1303.6892	1332.7895	1368.5006	1393.0966	1410.3999	1415.4148	1435.9147	1456.3586	1470.1457	1495.7246	1500.7344	1736.3542	1821.1199	2964.9245	3034.0646	3037.6753	3106.0339	3121.2987	3134.4377	3441.3667	3617.0563	3625.6456
CC1CC(=N)NC(=O)N1	C[C@H]1C[C]([NH])NC(=O)N1	
InChI=1S/C5H9N3O/c1-3-2-4(6)8-5(9)7-3/h3H,2H2,1H3,(H3,6,7,8,9)	InChI=1S/C5H9N3O/c1-3-2-4(6)8-5(9)7-3/h3H,2H2,1H3,(H3,6,7,8,9)/t3-/m0/s1
