22
gdb 87825	2.78293	1.34229	1.14555	1.7023	86.35	-0.219	0.0845	0.3035	1201.7098	0.193461	-367.162016	-367.152931	-367.151987	-367.195283	35.427	
C	-0.0699893785	 1.5601553358	 0.0429257086	-0.406837
C	-0.0248991657	 0.0479238363	 0.04057341	-0.064968
C	 1.2765195635	-0.6832832616	-0.2151045981	-0.366417
C	 0.6553342664	-0.7047820478	 1.1502789012	 0.315605
C	 1.2921250919	-0.2050920919	 2.4518019114	-0.24921
N	 0.871285384	-1.4536396213	 3.1853153107	-0.168741
C	-0.6037751422	-1.4871330997	 3.087727309	-0.284762
C	 0.1786453049	-1.9274781786	 1.9114774287	 0.269103
C	 0.2441339385	-3.3444775038	 1.4251651085	-0.495611
H	 0.8419794254	 1.9821122158	 0.4784797598	 0.116062
H	-0.1630353065	 1.9556345025	-0.9745702943	 0.118235
H	-0.9188118678	 1.9362475272	 0.6252458849	 0.116128
H	-0.9133155389	-0.4293719414	-0.3685834323	 0.080651
H	 1.2504275998	-1.5908303361	-0.8103471308	 0.110513
H	 2.1764078752	-0.0895209858	-0.352233234	 0.108435
H	 2.3827696734	-0.1411124365	 2.4197023707	 0.109833
H	 0.8909120034	 0.7151610515	 2.8926336147	 0.100067
H	-1.0491257469	-2.2533700928	 3.7160116328	 0.114064
H	-1.1522706585	-0.5470868427	 3.0604483597	 0.104996
H	-0.5429079225	-3.5450775592	 0.688121881	 0.118643
H	 1.210068158	-3.5572208267	 0.9554489738	 0.124713
H	 0.1100049335	-4.0409664132	 2.2576991541	 0.129498
115.7278	136.1362	171.416	198.8209	211.377	257.0591	317.7343	404.7965	425.4244	471.7725	490.7995	555.2625	650.59	737.9479	794.4979	827.24	866.5433	883.7808	915.4992	935.1729	967.6221	1003.2711	1017.892	1043.3424	1075.7123	1095.9543	1101.2616	1119.6292	1126.2258	1135.5358	1171.8508	1189.9339	1198.5102	1279.5154	1298.2292	1347.8325	1362.1787	1413.2914	1418.4227	1434.7035	1481.8405	1490.0631	1492.5257	1493.5075	1495.3449	1507.8105	1510.2802	3024.8974	3027.4248	3030.4795	3086.7416	3089.4375	3092.9024	3093.6089	3095.0336	3113.1	3114.9005	3125.3209	3187.1638	3198.642
CC1CC11CN2CC12C	C[C@H]1C[C@]21CN1C[C@@]21C	
InChI=1S/C8H13N/c1-6-3-8(6)5-9-4-7(8,9)2/h6H,3-5H2,1-2H3	InChI=1S/C8H13N/c1-6-3-8(6)5-9-4-7(8,9)2/h6H,3-5H2,1-2H3/t6-,7-,8+,9?/m0/s1
