22
gdb 100144	3.22814	0.85148	0.802	3.3811	79.59	-0.2503	0.0314	0.2817	1513.58	0.191799	-441.511969	-441.500862	-441.499918	-441.548665	39.765	
C	-0.0559311441	 1.5889904127	 0.2200022357	-0.418613
C	-0.0064880613	 0.0710730294	-0.0310455467	 0.243623
C	 0.8406236996	-0.6210660531	 1.049640611	-0.405043
C	-1.4356587711	-0.4971043965	-0.0103995682	-0.083528
O	-2.0224362406	-0.2246103654	 1.2533617863	-0.425558
C	 0.5624080589	-0.2268518591	-1.4390513746	-0.187193
N	 1.926235625	 0.2306547788	-1.6475196409	-0.278258
C	 2.9833252636	-0.6150876433	-1.7809267264	 0.156038
O	 2.9276617289	-1.8254005375	-1.7259598288	-0.32512
H	 0.9511711491	 2.0180529569	 0.2524592141	 0.099949
H	-0.6219787614	 2.1044796858	-0.5655439652	 0.101246
H	-0.5418683036	 1.801519349	 1.174437983	 0.140723
H	 0.3852812669	-0.4830394363	 2.0327981794	 0.128654
H	 0.9247388908	-1.6953701735	 0.8557562266	 0.121495
H	 1.8535317487	-0.2096296049	 1.0753065908	 0.110253
H	-2.0254084013	-0.039094444	-0.8222157691	 0.07947
H	-1.3969525687	-1.5816381979	-0.2011221109	 0.08947
H	-2.8987741979	-0.6188564984	 1.2705491712	 0.289494
H	 0.5800959712	-1.3052988239	-1.6166651358	 0.142195
H	-0.0846966386	 0.2311224371	-2.1987041545	 0.099571
H	 2.1027650869	 1.2189234304	-1.7266040872	 0.248439
H	 3.9284321689	-0.0619659664	-1.9533161702	 0.072692
39.0013	62.3757	118.8268	160.922	216.4216	226.9854	243.5626	252.9977	257.9803	305.314	339.7841	383.5205	404.636	421.5928	537.5271	589.7087	737.9921	767.3459	883.8573	928.9662	948.8912	965.3971	997.1297	1004.0123	1032.3592	1076.9796	1087.6379	1196.1783	1202.8846	1218.8123	1232.0534	1270.9469	1295.0089	1343.9158	1389.4682	1397.2569	1415.4549	1431.3494	1461.2568	1477.4907	1483.8537	1495.7987	1500.7001	1514.8383	1522.2119	1535.448	1805.9763	2931.5257	2953.8699	2989.3321	3016.4019	3027.0926	3043.9191	3088.1696	3106.4399	3110.0338	3128.2078	3131.8352	3641.8903	3838.6286
CC(C)(CO)CNC=O	CC(C)(CO)CNC=O	
InChI=1S/C6H13NO2/c1-6(2,4-8)3-7-5-9/h5,8H,3-4H2,1-2H3,(H,7,9)	InChI=1S/C6H13NO2/c1-6(2,4-8)3-7-5-9/h5,8H,3-4H2,1-2H3,(H,7,9)
