14
gdb 129713	2.41728	1.87859	1.06077	4.4991	67.91	-0.2286	-0.0225	0.2061	1034.7395	0.102484	-470.028581	-470.020923	-470.019979	-470.060414	29.43	
N	-0.1858616571	 1.360001747	-0.171447521	-0.593599
C	-0.076230779	-0.0380948773	-0.0616711523	 0.27045
C	-1.2498407265	-0.7980912466	-0.1184169695	 0.205811
O	-2.4886471547	-0.2431488177	-0.2570812935	-0.465058
C	-1.1209129734	-2.1724243478	-0.0454341151	 0.304477
O	-2.1808982724	-3.006380279	-0.0957547991	-0.432334
C	 0.1839710225	-2.6732729843	 0.0558680455	-0.054667
N	 1.2646569514	-1.9037916699	 0.0629875432	-0.218645
N	 1.137300767	-0.5782228284	 0.0131683461	-0.282125
H	 0.7422964752	 1.7695771819	-0.1981436177	 0.261874
H	-0.7110127772	 1.7718103844	 0.5937094205	 0.254172
H	-2.3709880679	 0.6304566438	-0.6571458391	 0.308385
H	-2.9768079586	-2.4720106884	-0.2185436812	 0.314225
H	 0.3469798107	-3.7446994277	 0.1134508834	 0.127036
148.2235	196.771	254.7679	278.3795	299.7063	312.8856	470.7963	497.1519	534.3123	538.2914	593.9545	600.3209	615.9458	711.7346	782.0536	841.9755	892.9962	921.9732	1045.6472	1099.7719	1158.3151	1217.6793	1280.4089	1296.6736	1319.3436	1389.811	1444.8988	1528.6083	1603.8136	1639.5972	1667.1276	3186.8774	3501.9829	3593.092	3742.9953	3776.4237
NC1=C(O)C(O)=CN=N1	Nc1c(O)c(O)cnn1	
InChI=1S/C4H5N3O2/c5-4-3(9)2(8)1-6-7-4/h1H,(H,6,9)(H3,5,7,8)	InChI=1S/C4H5N3O2/c5-4-3(9)2(8)1-6-7-4/h1H,(H,6,9)(H3,5,7,8)
