23
gdb 40000	3.21566	1.40517	1.30475	0.1292	88.29	-0.2593	0.086	0.3453	1107.1291	0.209501	-351.145539	-351.138084	-351.13714	-351.177046	31.886	
C	 0.104922844	 1.5398113236	 0.0094613743	-0.29544
C	 1.3625511331	 0.7066628994	-0.0073810802	-0.337981
C	 0.0193491529	 0.0269345152	 0.0019818884	 0.404087
C	-0.452403642	-0.6608193174	 1.288642149	-0.284008
C	-1.8237753919	-1.3267062206	 1.0763422671	-0.008131
C	-2.6623210335	-0.5384071311	 0.0250256906	-0.230053
C	-1.8445208397	-1.3150150862	-1.0510430368	-0.00813
C	-1.6900539691	-2.4428387016	 0.0050785386	-0.208741
C	-0.4774784551	-0.6466885089	-1.2827145614	-0.284008
H	-0.1478142366	 2.0645184058	 0.9255093033	 0.105715
H	-0.1655735253	 2.0745267169	-0.8956621112	 0.105715
H	 1.9439224197	 0.6775157872	-0.9237760623	 0.105654
H	 1.9616794044	 0.6675091612	 0.8971266184	 0.105654
H	 0.2672297602	-1.4279726403	 1.6067005838	 0.092445
H	-0.5005500141	 0.0749325897	 2.1000761739	 0.088272
H	-2.2948589089	-1.5852533089	 2.0279679571	 0.055064
H	-3.7083882892	-0.8562460366	 0.0334799825	 0.089667
H	-2.6153033525	 0.5530088243	 0.0305650983	 0.097119
H	-2.3340998099	-1.5631389347	-1.996085212	 0.055064
H	-0.7675485679	-3.0336135979	-0.0071639909	 0.082221
H	-2.5505482513	-3.1178157965	 0.0097601855	 0.089096
H	-0.5413605889	 0.09793114	-2.0849207515	 0.088272
H	 0.2357335516	-1.4102229826	-1.6231574911	 0.092445
96.9984	244.5914	275.5761	332.8807	393.7432	400.4064	436.9213	492.7936	524.9723	710.4476	777.91	822.8367	827.0062	838.7565	855.6158	868.0608	908.3264	925.2986	933.045	949.8145	975.0033	976.3052	993.8816	1055.283	1075.0324	1083.2465	1083.6926	1098.0546	1102.8734	1115.8446	1133.426	1189.2882	1216.3712	1228.8881	1259.4249	1268.3945	1278.1761	1297.2218	1319.6285	1336.4407	1348.158	1359.3949	1397.4506	1467.023	1480.6795	1489.9795	1493.0286	1506.5946	1514.9003	3004.4694	3007.411	3035.8877	3047.2466	3049.2278	3057.0235	3070.0186	3074.9652	3095.2656	3114.3364	3117.8207	3122.2694	3194.6058	3209.9916
C1CC11CC2CC(C2)C1	C1CC21C[C@H]1C[C@H](C1)C2	
InChI=1S/C9H14/c1-2-9(1)5-7-3-8(4-7)6-9/h7-8H,1-6H2	InChI=1S/C9H14/c1-2-9(1)5-7-3-8(4-7)6-9/h7-8H,1-6H2/t7-,8+
