16
gdb 31832	5.04895	1.02924	0.86166	2.2138	78.53	-0.1975	-0.0366	0.1609	1293.4464	0.126137	-434.123151	-434.115098	-434.114154	-434.155831	30.203	
C	 0.0696975012	 1.4371067673	-0.1045349506	-0.325129
N	-0.0764426009	 0.0121322432	 0.0928537903	-0.350661
C	 0.5836333726	-0.6644094653	 1.0950319718	 0.380628
C	 1.162554382	-0.0311122122	 2.2061900577	-0.098743
N	 1.7543372771	-0.7289776378	 3.1778961489	-0.327401
C	 1.7824888678	-2.0462525758	 3.0551760735	 0.387263
O	 2.3743543836	-2.781531866	 4.0265244476	-0.426235
C	 1.2222637839	-2.6883601916	 1.9449914334	-0.083331
N	 0.6327764388	-2.0026773813	 0.9770437902	-0.312697
H	 1.1176705084	 1.7560488906	-0.2177233909	 0.1194
H	-0.4766854097	 1.7254128297	-1.0046195718	 0.131925
H	-0.3629706245	 1.9945435644	 0.7345046698	 0.13493
H	-0.2265306858	-0.5552049876	-0.7268309291	 0.245341
H	 1.1497877632	 1.0477602059	 2.3190752501	 0.106985
H	 2.6922214472	-2.1499844071	 4.6855890736	 0.296595
H	 1.2642139051	-3.7697724863	 1.8523408353	 0.121131
83.4439	141.5083	194.2778	208.325	363.7802	395.6542	434.3933	443.991	465.1019	486.074	571.2178	585.3906	666.363	778.9692	799.8269	888.8381	896.8416	941.4597	1030.2444	1093.0961	1153.832	1156.7229	1198.7793	1270.1819	1294.0132	1344.7999	1357.9122	1429.7149	1469.6724	1484.702	1490.7815	1523.1237	1553.8606	1603.7055	1650.3446	2981.712	3053.0991	3125.8803	3171.2576	3180.6459	3626.5267	3777.7243
CNC1=CN=C(O)C=N1	CNc1cnc(O)cn1	
InChI=1S/C5H7N3O/c1-6-4-2-8-5(9)3-7-4/h2-3H,1H3,(H,6,7)(H,8,9)	InChI=1S/C5H7N3O/c1-6-4-2-8-5(9)3-7-4/h2-3H,1H3,(H,6,7)(H,8,9)
