17
gdb 7267	4.41161	1.21728	0.96627	3.0971	70.93	-0.2416	0.0085	0.2501	1186.9921	0.141873	-397.220994	-397.211566	-397.210622	-397.255901	31.748	
C	 0.3290502234	 1.4224779308	 0.3751920602	-0.345711
N	 0.0253844699	 0.0491697558	 0.0054729045	-0.140973
C	 1.1365803148	-0.8201387347	-0.3397920816	-0.358509
C	-1.2701956212	-0.3885557427	 0.1372263142	 0.541486
O	-2.2024969824	 0.3360286464	 0.4438430509	-0.418208
N	-1.4594696123	-1.7476047697	-0.1154291666	-0.367682
C	-2.703570911	-2.3465126024	-0.0538093034	 0.105675
N	-2.8203878275	-3.5956376488	-0.2628342774	-0.480428
H	 0.8387401134	 1.9381953107	-0.4468830181	 0.122829
H	-0.609279857	 1.9291488292	 0.5931151197	 0.175525
H	 0.9741278942	 1.4621611843	 1.2625608121	 0.121833
H	 1.4154158983	-1.5033762342	 0.4751292111	 0.134292
H	 0.9254987944	-1.409478634	-1.238984295	 0.141601
H	 2.0065946858	-0.1998025605	-0.5630412947	 0.142897
H	-0.6907795567	-2.3682637715	-0.3127931799	 0.25651
H	-3.4918428984	-1.6301299838	 0.1823746557	 0.140539
H	-3.7961804176	-3.873847195	-0.181502422	 0.228325
56.3038	90.4418	98.7721	154.1121	171.3363	180.7388	216.9605	344.1987	384.4201	462.3283	540.1683	577.0831	645.8072	759.4274	824.4772	895.451	1024.8664	1087.2589	1088.7783	1120.8911	1132.4654	1166.3667	1181.1381	1293.4961	1313.5466	1369.8477	1399.995	1434.7871	1470.7578	1494.0823	1499.4613	1503.7932	1518.8921	1538.6645	1725.1687	1778.6039	2999.8447	3014.8193	3064.7213	3066.4569	3125.4216	3132.2073	3172.7882	3509.8801	3643.8481
CN(C)C(=O)NC=N	CN(C)C(=O)NC=N	
InChI=1S/C4H9N3O/c1-7(2)4(8)6-3-5/h3H,1-2H3,(H2,5,6,8)	InChI=1S/C4H9N3O/c1-7(2)4(8)6-3-5/h3H,1-2H3,(H2,5,6,8)
