15
gdb 11923	3.38337	1.80151	1.50992	2.9946	67.14	-0.258	0.0094	0.2674	870.8081	0.1184	-362.642035	-362.634639	-362.633694	-362.673568	27.476	
C	 0.0267595558	 1.5056964784	-0.0349002318	-0.481099
C	 0.0276437799	 0.0167948173	 0.0471262987	 0.42087
C	-0.8697521361	-0.8456281692	 0.8664079023	-0.36608
C	 0.6413685481	-0.9868374234	 1.0454624064	 0.069326
C	 1.2145982996	-1.6540472996	-0.2044504379	-0.130749
O	 0.5279050028	-0.716894432	-1.0713132243	-0.31024
C	 1.3129098307	-0.789246854	 2.2807991592	 0.197093
N	 1.8669334491	-0.6223064355	 3.2842932311	-0.351956
H	 1.0152391949	 1.8809166477	-0.3130468083	 0.142969
H	-0.6926770633	 1.8369246922	-0.7919592736	 0.14457
H	-0.2618291221	 1.9426931949	 0.9245302217	 0.141085
H	-1.3672204565	-0.356673858	 1.6972310946	 0.142151
H	-1.4211260559	-1.657218411	 0.3998560624	 0.129473
H	 2.299077286	-1.5407389925	-0.2931223129	 0.132033
H	 0.9232818468	-2.6929017952	-0.3926490576	 0.120555
116.0844	161.3243	193.9038	242.4961	326.0905	391.3358	448.3078	536.3093	557.2031	576.888	701.5377	762.6441	818.9798	926.0882	950.963	981.4	992.8378	1047.9548	1071.6764	1105.9788	1141.9564	1164.7254	1225.0302	1288.1796	1342.6819	1391.0953	1427.7575	1472.2985	1484.2175	1498.7507	1519.7842	2342.1782	3040.193	3041.1669	3098.3088	3109.115	3121.6587	3130.47	3221.9522
CC12CC1(CO2)C#N	C[C@]12C[C@]1(CO2)C#N	
InChI=1S/C6H7NO/c1-5-2-6(5,3-7)4-8-5/h2,4H2,1H3	InChI=1S/C6H7NO/c1-5-2-6(5,3-7)4-8-5/h2,4H2,1H3/t5-,6+/m0/s1
