21
gdb 76890	2.28618	1.81073	1.5237	1.8376	76.07	-0.2486	0.055	0.3036	994.0603	0.186202	-424.245371	-424.23764	-424.236696	-424.277231	31.913	
O	 0.0242624775	 1.4197186094	 0.2267658645	-0.44883
C	-0.0498814872	 0.0230586216	 0.0610777413	 0.122663
C	-1.4774004231	-0.5564849328	-0.1081461858	-0.030986
C	-2.2045435893	 0.2219287018	-1.2244346571	-0.21743
C	-1.4868976809	-0.2626272663	-2.5248178969	-0.215656
C	-0.4220470483	-1.2506446929	-1.9957883384	-0.019679
C	-1.1561691858	-1.8980527964	-0.8002584222	-0.234916
C	 0.6767289085	-0.4634458486	-1.2598371924	 0.06259
O	 1.1432150292	 0.6368422081	-2.040524912	-0.430105
H	 0.2607423179	 1.7711487936	-0.6438251683	 0.279768
H	 0.4227604205	-0.4344685619	 0.938808852	 0.068229
H	-2.0321183344	-0.6121813287	 0.8302023422	 0.057496
H	-3.2691901846	-0.0278742634	-1.2393165558	 0.089901
H	-2.1230255457	 1.2998210591	-1.0691795534	 0.10502
H	-2.1796073116	-0.785046109	-3.1909833195	 0.0909
H	-1.0374344604	 0.5526833397	-3.0937321753	 0.114319
H	-0.0299376945	-1.9298912576	-2.7549770655	 0.057418
H	-0.5192946663	-2.5585522496	-0.2013040189	 0.089554
H	-2.0478009043	-2.4554579218	-1.1015945216	 0.09599
H	 1.5189426605	-1.1221450804	-1.0190735801	 0.069746
H	 2.0247461022	 0.8684766161	-1.7328066768	 0.294009
97.6101	187.7936	272.3417	275.9905	322.1288	426.9577	435.7732	488.3007	542.9242	583.9427	646.2022	732.0774	782.7836	818.5344	828.3588	838.9854	887.5504	924.5023	950.2411	953.1984	977.2482	995.251	1045.9862	1080.7977	1104.7317	1129.192	1141.1653	1150.112	1179.5063	1204.301	1228.2324	1255.614	1272.7733	1287.2992	1309.482	1316.5895	1334.9556	1340.2964	1357.1405	1375.8493	1426.8762	1441.6698	1493.1648	1495.9714	1517.3679	3014.7081	3033.9073	3044.1163	3053.8029	3064.7029	3093.453	3093.9166	3099.2511	3103.05	3123.2246	3719.7207	3831.6361
OC1C2CCC(C2)C1O	O[C@H]1[C@H]2CC[C@H](C2)[C@H]1O	
InChI=1S/C7H12O2/c8-6-4-1-2-5(3-4)7(6)9/h4-9H,1-3H2	InChI=1S/C7H12O2/c8-6-4-1-2-5(3-4)7(6)9/h4-9H,1-3H2/t4-,5+,6-,7+
