19
gdb 74103	2.3956	1.60104	1.07131	4.1959	83.67	-0.2297	-0.0385	0.1912	1155.5586	0.160432	-385.928439	-385.920377	-385.919433	-385.960936	31.422	
C	-0.2964473812	 1.543653098	 0.0221957801	-0.474259
C	 0.0011183378	 0.0714133636	-0.0024888288	 0.317438
C	-0.1090860984	-0.6600737523	-1.1232373671	-0.273875
C	 0.116357035	-2.1188541696	-1.1840200609	 0.401805
O	-0.2677982091	-2.7838533408	-2.1299161646	-0.356688
C	 0.8288767191	-2.7378323317	-0.0291053761	-0.139361
C	 2.1863544592	-2.1644207108	 0.36178743	-0.293922
C	 1.0008428926	-1.9237053855	 1.2414544114	-0.038783
C	 0.3738542867	-0.5457565224	 1.3243972359	-0.322098
H	 0.5928883531	 2.1152408107	 0.316510184	 0.133643
H	-0.6334267384	 1.9067549454	-0.9512718694	 0.13268
H	-1.0710528931	 1.7732620996	 0.7650473467	 0.13276
H	-0.4410805311	-0.2081456214	-2.0536466184	 0.097843
H	 0.7061371894	-3.8124015971	 0.0386534893	 0.103422
H	 2.9390686825	-2.8717049338	 0.6903079739	 0.122658
H	 2.5665210839	-1.340237145	-0.2321360799	 0.124145
H	 0.9712754946	-2.4868231245	 2.1690441534	 0.094309
H	 1.0464803209	 0.1366551096	 1.8629616551	 0.11421
H	-0.5382577136	-0.589200782	 1.9383906455	 0.124072
102.9564	143.7033	190.6122	247.817	304.5789	340.2964	448.6958	456.7757	469.8732	517.7268	619.3877	726.9465	768.0159	806.9589	849.5489	876.3063	909.2765	918.9799	984.563	999.6418	1024.7359	1041.6939	1067.8987	1082.0613	1121.9963	1128.878	1160.0387	1213.5424	1249.2153	1268.5447	1327.861	1365.3237	1383.6289	1410.5451	1411.5905	1467.6892	1477.976	1483.2483	1488.5901	1695.9604	1760.3973	2997.7759	3019.8839	3023.3593	3067.6777	3123.5409	3137.5334	3153.154	3173.7588	3184.347	3226.3131
CC1=CC(=O)C2CC2C1	CC1=CC(=O)[C@H]2C[C@H]2C1	
InChI=1S/C8H10O/c1-5-2-6-4-7(6)8(9)3-5/h3,6-7H,2,4H2,1H3	InChI=1S/C8H10O/c1-5-2-6-4-7(6)8(9)3-5/h3,6-7H,2,4H2,1H3/t6-,7+/m1/s1
