20
gdb 59591	2.7176	1.35267	1.13285	3.9372	81.18	-0.2345	-0.0244	0.2101	1177.3056	0.17108	-403.203969	-403.194922	-403.193978	-403.237981	33.824	
C	-0.0212782194	 1.5589364597	-0.0791434081	-0.385717
C	-0.049951742	 0.026882184	 0.0196930048	 0.041894
C	 0.7367073138	-0.4859221623	 1.2346352491	-0.385741
N	-1.4246799008	-0.4806305402	 0.0225523285	-0.09369
C	-1.955336648	-1.3431889431	-1.0101704142	-0.222641
C	-3.371124352	-1.5814915123	-0.563267693	-0.090028
C	-3.5993083225	-0.9317575352	 0.5782353958	-0.167702
C	-2.363553607	-0.2044756853	 0.9945244737	 0.403963
O	-2.1977317604	 0.4920490715	 1.9811436089	-0.418782
H	 1.0122549044	 1.9149337744	-0.1335134464	 0.10928
H	-0.5493533857	 1.9020961771	-0.9741926073	 0.107183
H	-0.5004627777	 1.999885796	 0.7972353753	 0.157152
H	 0.4085944446	-0.3856390618	-0.8869156023	 0.079223
H	 0.2845434786	-0.1161298626	 2.1570663927	 0.157105
H	 0.7410091156	-1.5799446144	 1.263222062	 0.107173
H	 1.7741042463	-0.140458858	 1.1862926018	 0.109316
H	-1.9184337482	-0.8675866128	-2.0024654609	 0.125008
H	-1.3914124866	-2.2855036207	-1.0891319278	 0.125018
H	-4.0599274561	-2.1988357834	-1.1248923142	 0.119122
H	-4.5071494968	-0.8928189307	 1.1631079516	 0.122864
46.3118	107.8617	201.0305	202.6212	233.8157	264.8489	311.7265	363.4781	424.4894	452.6221	478.3199	657.3277	668.7727	708.2607	821.9358	826.838	881.8212	927.4465	947.0931	960.42	969.8686	1009.4981	1015.9894	1105.4377	1144.8636	1157.908	1181.618	1184.9436	1252.7884	1262.6259	1344.5815	1353.322	1378.9233	1392.3311	1411.1026	1441.8774	1479.2002	1495.2663	1495.6037	1500.6796	1520.162	1656.7102	1783.3702	2985.1034	3004.5198	3031.1651	3038.9493	3044.2196	3104.7532	3109.2668	3139.2633	3143.8109	3218.5121	3250.3205
CC(C)N1CC=CC1=O	CC(C)N1CC=CC1=O	
InChI=1S/C7H11NO/c1-6(2)8-5-3-4-7(8)9/h3-4,6H,5H2,1-2H3	InChI=1S/C7H11NO/c1-6(2)8-5-3-4-7(8)9/h3-4,6H,5H2,1-2H3
