17
gdb 98099	3.79249	1.08204	0.86861	1.4696	72.71	-0.247	-0.0408	0.2062	1319.261	0.134853	-455.139001	-455.129735	-455.128791	-455.174235	32.129	
C	-0.0800883289	 1.3431393927	 0.0951480229	-0.239479
O	-0.1208585291	-0.0895198029	 0.0912242038	-0.204593
C	-1.3392481063	-0.6202941558	 0.2020411099	 0.46528
O	-2.3573356065	 0.0197786142	 0.3108111182	-0.367112
C	-1.3052242467	-2.1405386068	 0.1588917981	 0.172431
N	-0.248442154	-2.7393351403	-0.2230529385	-0.479136
N	-2.4752494707	-2.7185501068	 0.6389110713	-0.071314
C	-3.7842564568	-2.5486144772	 0.0398059995	-0.20269
C	-3.0938009411	-3.8782956167	 0.0270223177	-0.244557
H	 0.9737008841	 1.6065528892	 0.0106745484	 0.139675
H	-0.6460833898	 1.7463849455	-0.7486037646	 0.140677
H	-0.5032722196	 1.7376973401	 1.0224184787	 0.142731
H	-0.3897782986	-3.7531251402	-0.2096079088	 0.220251
H	-4.5966174813	-2.3572066676	 0.7339173197	 0.133085
H	-3.8443372153	-2.0045861573	-0.8975869389	 0.138212
H	-2.6861988191	-4.2232719359	-0.9217065128	 0.125637
H	-3.4039300201	-4.6649974044	 0.7083607953	 0.130902
31.9105	102.0552	124.8171	146.6596	167.8147	231.6268	263.9688	351.218	398.6044	452.0526	544.1469	660.0704	797.1152	808.588	834.1878	881.8779	916.6825	966.282	1015.7437	1047.8461	1075.7525	1129.4798	1134.8851	1168.877	1173.8643	1177.8815	1205.6887	1248.4603	1327.8186	1422.4412	1475.7481	1482.1031	1494.773	1496.0329	1524.3318	1696.796	1803.418	3051.8269	3101.8584	3124.6261	3125.6471	3164.7833	3190.6762	3215.1464	3437.6581
COC(=O)C(=N)N1CC1	COC(=O)[C]([NH])N1CC1	
InChI=1S/C5H8N2O2/c1-9-5(8)4(6)7-2-3-7/h6H,2-3H2,1H3	InChI=1S/C5H8N2O2/c1-9-5(8)4(6)7-2-3-7/h6H,2-3H2,1H3
