18
gdb 44424	3.50485	1.44326	1.42218	3.2983	76.63	-0.2465	0.0086	0.2551	982.4858	0.150421	-401.879661	-401.872898	-401.871954	-401.910572	28.16	
O	-0.2362131365	 0.0596918182	-0.3795495996	-0.321692
C	-0.133460295	 1.2213250559	-0.1370966438	 0.321612
N	-1.123659547	 2.2640805519	-0.0338809798	-0.38834
C	-0.1872302581	 3.0331351446	 0.8326496338	 0.058417
C	 0.7923878827	 4.2693218096	 0.8123817498	-0.085105
C	 1.8889151739	 3.134800968	 1.1309402745	-0.327722
C	 0.9587259465	 2.3140654688	 0.1593466163	 0.107367
C	 1.206284668	 3.1071169895	-1.1681242451	-0.217234
C	 1.0418904472	 4.5687733962	-0.6630825624	-0.208314
H	-2.0755391182	 2.0372161864	 0.2313959776	 0.243091
H	-0.2996120575	 2.7166858905	 1.8754214032	 0.088986
H	 0.6488191998	 5.1052653843	 1.4986508235	 0.071336
H	 2.9117069089	 3.3380732156	 0.8036495797	 0.108142
H	 1.8728282076	 2.8018856401	 2.1686137666	 0.117031
H	 2.2131121632	 2.8948585747	-1.5389562137	 0.103761
H	 0.4959723312	 2.8504158536	-1.9536108615	 0.119246
H	 0.1944628336	 5.0782992085	-1.1286279466	 0.108791
H	 1.9328014295	 5.1832664635	-0.8190120923	 0.100626
136.5326	212.396	309.6631	352.4254	460.4406	469.139	568.2209	629.7821	664.5716	702.572	758.3294	779.0289	801.7719	833.6594	863.626	921.0585	934.6618	951.4456	977.1224	1007.0144	1032.548	1046.1015	1082.4511	1120.9448	1130.7674	1145.605	1188.4056	1193.9087	1227.8695	1250.3124	1262.9267	1287.7119	1312.9158	1330.4821	1433.1901	1485.6651	1490.2082	1513.5396	1895.9761	3028.0752	3057.5414	3066.8536	3069.5567	3100.6395	3107.4117	3132.3472	3147.2025	3552.7341
O=C1NC2C3CC12CC3	O=C1N[C@@H]2[C@H]3C[C@@]12CC3	
InChI=1S/C7H9NO/c9-6-7-2-1-4(3-7)5(7)8-6/h4-5H,1-3H2,(H,8,9)	InChI=1S/C7H9NO/c9-6-7-2-1-4(3-7)5(7)8-6/h4-5H,1-3H2,(H,8,9)/t4-,5-,7-/m1/s1
