15
gdb 48348	4.35229	0.75094	0.67371	1.8184	91.7	-0.2409	-0.0372	0.2037	1600.5849	0.109559	-383.436612	-383.42754	-383.426596	-383.470895	32.771	
O	-0.3720699428	 0.526722236	-0.8344838812	-0.262087
C	 0.1401755986	 0.9983449479	 0.1501972831	 0.082103
C	 1.3590969872	 1.8731314615	 0.1076223327	-0.006844
C	 2.3513371823	 1.5563862034	-1.0316674898	-0.277949
C	 1.4893943707	 2.7512987182	-1.1552307602	-0.277936
C	 1.8529134805	 2.358502491	 1.3564338425	 0.270123
C	 2.2362935245	 2.7469974878	 2.4385335341	-0.111476
C	 2.6787659655	 3.1909959759	 3.6447393638	 0.283226
C	 3.0705277135	 3.5845828562	 4.7174100448	-0.578813
H	-0.2615411227	 0.8141338063	 1.1671807375	 0.096119
H	 3.3995534931	 1.6839324296	-0.7917305823	 0.142457
H	 2.0926476405	 0.6816113207	-1.6169107908	 0.152651
H	 0.6392693553	 2.6964488354	-1.8252593613	 0.152647
H	 1.9219065208	 3.732376123	-1.0035199513	 0.142461
H	 3.4160321829	 3.9313055271	 5.6595691583	 0.193316
69.2891	87.0397	126.1088	212.7359	245.4085	248.2377	307.6257	433.6487	478.082	484.5556	530.3754	538.4638	590.6416	608.8459	705.9808	773.3781	798.8004	846.162	968.8569	984.8109	1051.8315	1071.8115	1079.8923	1106.9534	1210.3663	1269.365	1334.9207	1423.3301	1448.8189	1480.8917	1808.6769	2181.269	2352.1045	2929.9731	3149.0475	3149.6251	3242.2549	3256.5842	3504.2037
O=CC1(CC1)C#CC#C	O=CC1(CC1)C#CC#C	
InChI=1S/C8H6O/c1-2-3-4-8(7-9)5-6-8/h1,7H,5-6H2	InChI=1S/C8H6O/c1-2-3-4-8(7-9)5-6-8/h1,7H,5-6H2
