21
gdb 79852	2.86783	1.63576	1.21554	1.3881	82.38	-0.2306	0.1017	0.3323	1093.7369	0.183175	-387.057162	-387.049188	-387.048243	-387.08904	32.36	
C	-0.1227914284	 1.6248972481	 0.0065929176	-0.429169
C	 0.0076047712	 0.108267488	 0.0169254085	 0.018113
C	 1.2058211555	-0.5870220066	-0.6828535944	-0.137092
C	 2.133979297	-0.1890056427	 0.5169509313	-0.064198
C	 3.0976602832	-1.3432295015	 0.7297310796	-0.115722
O	 2.2311081598	-2.4611652823	 0.509141881	-0.325163
C	 0.9783094355	-1.8478932101	 0.2204865643	 0.503304
C	-0.0559819758	-2.9099316119	-0.0391030126	-0.495657
C	 0.7685184784	-0.6120569337	 1.1619089511	-0.137093
H	 0.8155266413	 2.1369053221	 0.236049724	 0.114774
H	-0.4593978519	 1.9759091352	-0.9753621628	 0.115599
H	-0.8665374235	 1.9525996395	 0.7415768497	 0.115599
H	-0.9643574716	-0.3381210616	-0.2195368338	 0.061658
H	 1.4688244984	-0.5770644464	-1.7429779725	 0.063527
H	 2.5085713324	 0.8272130452	 0.6195378742	 0.071852
H	 3.9261382816	-1.3566517026	 0.009616191	 0.097913
H	 3.5148898736	-1.3801937247	 1.7444599364	 0.097913
H	-0.1567707595	-3.5577441839	 0.8369795183	 0.128578
H	-1.0336581494	-2.4787958735	-0.2650674449	 0.123157
H	 0.2511373412	-3.5344613465	-0.88348451	 0.128579
H	 0.5276973043	-0.6309437199	 2.2271703603	 0.063528
182.7192	188.9086	229.4004	237.1761	254.0061	322.3705	338.1685	473.8479	509.9384	621.9478	691.0498	734.3505	736.7956	798.9902	816.3045	882.8937	902.2694	929.8627	975.048	989.3923	1018.4592	1028.2221	1053.9161	1078.8623	1082.436	1104.362	1118.6506	1143.2273	1167.8322	1170.3608	1205.96	1211.2776	1247.8774	1270.1864	1311.3893	1324.0419	1370.9327	1410.8664	1415.86	1427.4253	1477.9524	1494.6541	1497.1558	1501.4566	1522.3091	3010.531	3031.0494	3040.3623	3045.912	3047.4623	3085.333	3087.7519	3090.2872	3110.0632	3111.6103	3130.2007	3142.9047
CC1C2C3COC2(C)C13	C[C@H]1[C@H]2[C@@H]3CO[C@@]2(C)[C@H]13	
InChI=1S/C8H12O/c1-4-6-5-3-9-8(6,2)7(4)5/h4-7H,3H2,1-2H3	InChI=1S/C8H12O/c1-4-6-5-3-9-8(6,2)7(4)5/h4-7H,3H2,1-2H3/t4-,5-,6-,7+,8+
