18
gdb 111821	2.35438	1.57511	1.12829	4.5256	73.25	-0.2374	0.0115	0.2489	1123.1606	0.147822	-439.074954	-439.066563	-439.065619	-439.108697	30.551	
C	-0.1748430906	 1.5435146821	-0.1168398302	-0.381624
C	 0.1430694632	 0.0502029737	 0.0086436772	-0.163821
N	 0.6992627661	-0.5418582865	-1.1896068848	-0.075698
C	 0.1682569232	-0.7497669622	-2.5344385193	-0.056539
C	 0.4254411385	 0.3936735847	-3.5451935266	-0.094996
O	 1.7665110052	-0.0820604155	-3.8080093419	-0.284642
C	 1.5825915436	-1.2301006153	-2.952125336	-0.043785
C	 1.9912140329	-0.9446825531	-1.4783696763	 0.40381
O	 2.9871068272	-0.9900899043	-0.8076669435	-0.369903
H	 0.7235878074	 2.1133550601	-0.3706038854	 0.137584
H	-0.9304131952	 1.7289142785	-0.8868435989	 0.120156
H	-0.5666896067	 1.923851989	 0.831574092	 0.124601
H	 0.8905483937	-0.1152460932	 0.7908504907	 0.144884
H	-0.7599078414	-0.5031967736	 0.2977145254	 0.111603
H	-0.7494683087	-1.3341141729	-2.6022826892	 0.098008
H	-0.1940884184	 0.3304464317	-4.4480847485	 0.110616
H	 0.4089053298	 1.4147992877	-3.15220216	 0.113959
H	 1.8435904303	-2.1801947209	-3.4191524948	 0.105788
55.6689	96.494	143.0495	202.9714	253.8753	286.7755	337.5655	416.3154	506.9588	671.2297	699.193	767.2255	789.7011	833.609	881.7793	900.447	957.0549	980.3494	1000.8972	1030.836	1069.9159	1078.1486	1108.9615	1159.978	1175.3093	1182.3523	1247.4233	1272.0574	1285.4353	1339.5744	1352.88	1391.3935	1408.0719	1415.2168	1480.377	1494.4085	1501.5626	1508.1802	1876.5622	3021.8415	3026.4079	3039.4414	3086.8242	3088.3913	3109.6091	3112.1276	3120.4754	3121.596
CCN1C2COC2C1=O	CCN1[C@H]2CO[C@H]2C1=O	
InChI=1S/C6H9NO2/c1-2-7-4-3-9-5(4)6(7)8/h4-5H,2-3H2,1H3	InChI=1S/C6H9NO2/c1-2-7-4-3-9-5(4)6(7)8/h4-5H,2-3H2,1H3/t4-,5+/m0/s1
