23
gdb 122216	3.32177	0.71181	0.65618	1.9344	82.28	-0.2606	0.0854	0.346	1825.4535	0.204082	-425.412008	-425.401465	-425.400521	-425.4485	38.276	
C	-0.4435908288	 1.4628179989	-0.0613794202	-0.382638
C	 0.0266524243	 0.0091986056	 0.0363009154	-0.164509
C	 0.6723997012	-0.5009565825	-1.2564486139	-0.160806
C	 1.1387022257	-1.9613722202	-1.1525075003	-0.287077
C	 1.6838283537	-2.5286602085	-2.4490274449	 0.378281
C	 3.0266348666	-1.9900932561	-2.9346222838	-0.132138
O	 3.3300447956	-2.4261581039	-4.2404773659	-0.419664
C	 1.2572771663	-3.8510039764	-2.9237801551	-0.228355
O	 0.7229296708	-2.6532222634	-3.5177970557	-0.291211
H	 0.3927835341	 2.1362889177	-0.2793112065	 0.114246
H	-1.1828028058	 1.5862811732	-0.8604857492	 0.116663
H	-0.9045317918	 1.7969648283	 0.8733124415	 0.112256
H	 0.741705366	-0.0906392902	 0.8639749775	 0.093735
H	-0.8245643243	-0.6353443545	 0.2929857311	 0.096303
H	-0.0437936439	-0.421558233	-2.0835043872	 0.113437
H	 1.5171171432	 0.1499621178	-1.5153370491	 0.097137
H	 1.9102968773	-2.054926835	-0.3758692753	 0.100378
H	 0.2948990437	-2.5811705955	-0.8283509354	 0.102628
H	 3.0192824799	-0.8901297352	-2.8737254971	 0.094966
H	 3.8250540249	-2.3472310655	-2.2736355924	 0.113774
H	 2.5079186366	-2.326532836	-4.7400797695	 0.291442
H	 1.9164135152	-4.4243105853	-3.5707343779	 0.12788
H	 0.5449944997	-4.4275614702	-2.3362756462	 0.11327
47.5229	74.7209	88.7592	129.4646	158.1212	238.7103	247.6172	293.0054	328.1846	352.0596	381.7569	493.3563	503.1992	597.8476	717.7183	733.6287	784.5966	841.141	896.3721	907.5456	932.6564	952.7709	1024.504	1052.0793	1065.2192	1081.556	1106.0077	1129.2453	1137.5853	1176.8568	1219.7078	1240.2003	1265.4521	1280.7576	1318.3352	1335.2127	1362.056	1371.9388	1396.8235	1413.3188	1428.3029	1442.0396	1475.8506	1485.9524	1498.6599	1500.0866	1506.3059	1512.478	1518.7477	2979.8135	3011.4391	3016.5693	3026.3933	3031.1053	3038.3357	3055.5923	3059.9098	3077.4816	3095.7737	3097.6411	3102.678	3190.9726	3752.0134
CCCCC1(CO)CO1	CCCC[C@@]1(CO)CO1	
InChI=1S/C7H14O2/c1-2-3-4-7(5-8)6-9-7/h8H,2-6H2,1H3	InChI=1S/C7H14O2/c1-2-3-4-7(5-8)6-9-7/h8H,2-6H2,1H3/t7-/m1/s1
