17
gdb 75802	3.12131	1.27941	1.06438	2.7877	67.96	-0.265	0.0018	0.2668	1138.6676	0.135042	-458.968882	-458.960564	-458.959619	-459.002363	30.186	
C	-0.2533977392	 1.4917502723	-0.0931290866	-0.415838
C	-0.0221474979	-0.0140109437	-0.0849234933	-0.282249
C	 1.2423767195	-0.5197321493	-0.7840209401	 0.453511
O	 1.7397808111	-0.469622701	-1.8609121112	-0.320064
O	 1.7403257943	-1.1289337692	 0.3466076361	-0.274225
C	 0.6061759001	-0.6914618278	 1.1516014823	 0.367303
C	 0.9191663551	 0.0060102589	 2.4827087206	-0.129193
O	 0.1426038759	-0.9685812059	 3.2094518513	-0.269831
C	-0.088013232	-1.7492068483	 2.018690189	-0.131494
H	 0.6291526955	 2.0358049575	 0.2561855717	 0.133065
H	-0.4736074846	 1.8290594401	-1.1095184747	 0.14728
H	-1.0992289872	 1.761676673	 0.5462237405	 0.133144
H	-0.9101046042	-0.5458553599	-0.4413684192	 0.118489
H	 1.9833699289	-0.0197176358	 2.7465109337	 0.123064
H	 0.5317792093	 1.0229970388	 2.6116283404	 0.112404
H	-1.1555799504	-1.9128599299	 1.8291873935	 0.111019
H	 0.4360601459	-2.7125023298	 2.0372456058	 0.123615
74.14	86.9287	189.4388	201.6614	221.6226	296.6347	343.6609	452.196	476.4848	547.4345	694.6851	769.2684	829.009	838.0651	883.0038	939.0575	982.7448	1004.4881	1035.9308	1061.4599	1082.3362	1114.1593	1151.5624	1153.77	1165.7417	1208.5041	1260.2057	1267.3452	1305.1604	1351.8783	1386.6829	1411.6436	1493.7405	1495.8574	1498.7644	1522.5113	1944.2123	3016.316	3028.0063	3043.2001	3065.4093	3070.4248	3073.8819	3114.97	3122.5198
CC1C(=O)OC11COC1	C[C@H]1C(=O)OC21COC2	
InChI=1S/C6H8O3/c1-4-5(7)9-6(4)2-8-3-6/h4H,2-3H2,1H3	InChI=1S/C6H8O3/c1-4-5(7)9-6(4)2-8-3-6/h4H,2-3H2,1H3/t4-/m0/s1
