18
gdb 128269	2.4177	1.45786	0.92193	3.1304	76.55	-0.187	0.0447	0.2317	1260.0398	0.149428	-431.475387	-431.465903	-431.464959	-431.509769	33.854	
C	-0.0656773198	 1.4441396762	-0.0480178936	-0.316308
N	-0.0996307015	-0.0131741858	-0.0768678619	-0.408208
C	 0.559340685	-0.6454730063	-1.1071166389	 0.471576
N	 1.0954436641	-0.0487809953	-2.1621411433	-0.400751
C	 1.5571059132	-1.1096431962	-2.8903672785	 0.391931
N	 2.1430977829	-0.9236572376	-4.1299193835	-0.585647
N	 1.3630271971	-2.3043482124	-2.3616649338	-0.352688
N	 0.6846381393	-1.9862958426	-1.1959950385	-0.037704
C	 0.2344398222	-3.0173838671	-0.297835844	-0.33804
H	 0.9438710237	 1.850691205	 0.099331392	 0.123559
H	-0.4432093956	 1.8268564934	-0.9974736539	 0.159004
H	-0.7152487969	 1.7918715981	 0.7587473416	 0.119087
H	 0.0308552212	-0.4461352351	 0.8254084975	 0.242484
H	 2.6088595739	-0.0312910629	-4.2092242998	 0.252197
H	 2.7320164416	-1.6945574291	-4.4107086259	 0.251814
H	 1.0024500934	-3.2975886102	 0.4344673602	 0.130708
H	-0.6591616441	-2.6738238254	 0.231215146	 0.136739
H	-0.0223909897	-3.8997740568	-0.8863088017	 0.160247
86.1802	119.5816	137.4371	154.3404	188.3794	241.3729	273.3817	306.766	365.0125	381.7463	516.4059	570.7197	635.8356	660.9749	693.6028	718.3884	786.147	880.5277	1023.4903	1057.6705	1088.1264	1140.902	1148.4926	1149.5798	1171.7283	1238.2151	1311.9702	1424.7614	1444.8453	1455.5322	1459.6302	1482.8123	1490.0856	1508.133	1517.8076	1534.4051	1602.2744	1617.0484	1658.4979	3013.9913	3018.4106	3091.8001	3098.2998	3140.4291	3144.4668	3567.1676	3601.8228	3672.2238
CNC1=NC(N)=NN1C	CNc1nc(N)nn1C	
InChI=1S/C4H9N5/c1-6-4-7-3(5)8-9(4)2/h1-2H3,(H3,5,6,7,8)	InChI=1S/C4H9N5/c1-6-4-7-3(5)8-9(4)2/h1-2H3,(H3,5,6,7,8)
