18
gdb 35524	3.12943	1.4663	1.36297	6.0564	74.66	-0.2338	0.032	0.2658	1003.2553	0.152342	-398.129887	-398.122771	-398.121827	-398.161447	28.591	
N	-0.1505603019	-1.1487275544	-0.3364613602	-0.3352
C	-0.0666158089	-0.0117956292	-0.1502512869	 0.327297
C	-0.0027726218	 1.4449736841	 0.0191901265	-0.150458
N	-0.5827313556	 1.8883309684	 1.321377983	-0.291402
C	 0.4838504807	 2.7179495729	 1.933896842	-0.014026
C	 1.5740725248	 1.7366226756	 2.4114326588	-0.151717
N	 2.1504152631	 1.2372763151	 1.1273611126	-0.284576
C	 1.4504565348	 2.0033878356	 0.0835748146	-0.017658
C	 1.1788189465	 3.3797037285	 0.7264304798	-0.228868
H	-0.5310873909	 1.8929990251	-0.8312735829	 0.115755
H	-1.4106721101	 2.4472810886	 1.151397209	 0.227266
H	 0.0809945657	 3.3632271821	 2.7139914198	 0.077639
H	 2.3243934881	 2.2413781162	 3.0303647418	 0.095259
H	 1.1346450728	 0.9172167715	 2.9860208729	 0.125499
H	 3.1451285541	 1.4210866068	 1.0819102447	 0.22507
H	 1.9727506248	 1.968336035	-0.8716598035	 0.086178
H	 0.5148190127	 4.0323171773	 0.1517804361	 0.095152
H	 2.1014204112	 3.9147724907	 0.9682969218	 0.09879
98.1964	155.7299	249.8423	359.9979	412.3118	458.1694	505.973	564.1872	616.5782	695.4033	748.0982	809.6943	832.3886	840.8596	872.9405	909.6246	955.0467	969.6791	979.9961	985.4119	1017.8192	1052.5043	1084.0987	1105.4746	1139.3863	1179.4729	1197.4267	1246.1959	1266.7286	1280.5081	1303.9817	1321.9164	1367.6807	1376.5236	1428.8342	1442.0276	1492.8839	1510.1982	2363.7667	3029.9546	3036.2266	3054.904	3094.9573	3109.1712	3126.0767	3132.8719	3539.7575	3548.8293
N#CC1NC2CNC1C2	N#C[C@H]1N[C@H]2CN[C@@H]1C2	
InChI=1S/C6H9N3/c7-2-6-5-1-4(9-6)3-8-5/h4-6,8-9H,1,3H2	InChI=1S/C6H9N3/c7-2-6-5-1-4(9-6)3-8-5/h4-6,8-9H,1,3H2/t4-,5-,6-/m1/s1
