17
gdb 5230	7.09838	1.14263	0.99651	1.4371	71.52	-0.1787	0.0635	0.2422	1171.39	0.142953	-363.893269	-363.885314	-363.88437	-363.925972	29.253	
C	 0.0303017165	 1.4878056197	 0.0789291836	-0.391398
C	-0.6528923895	 0.2258237442	-0.4135623459	-0.044356
O	-0.4210731453	-0.8039449523	 0.5431919915	-0.270105
C	-0.9712719938	-2.001303575	 0.2446073303	 0.413078
C	-1.7289560257	-2.4716629608	-0.8039961918	-0.289164
C	-1.9967465794	-3.8489160854	-0.519538548	-0.143216
C	-1.4012961061	-4.1609882798	 0.6733095232	-0.0963
N	-0.7731051196	-3.0184865324	 1.1356248432	-0.325306
H	-0.1277894363	 2.302045883	-0.6341988757	 0.120775
H	-0.3734845527	 1.7929146986	 1.048362363	 0.129784
H	 1.1064677025	 1.3272496968	 0.1885851487	 0.129781
H	-1.7351513036	 0.378429141	-0.5292335918	 0.107652
H	-0.2550731599	-0.0872815728	-1.389092418	 0.107649
H	-2.053300383	-1.9112949587	-1.6648879148	 0.090046
H	-2.5681219601	-4.5256675076	-1.1360903515	 0.089014
H	-1.3622295496	-5.0782493477	 1.2366845507	 0.112096
H	-0.2480429645	-2.9226965606	 1.9867880135	 0.25997
65.8218	91.9395	157.9983	244.203	292.6318	353.7673	426.3174	456.0857	622.2393	639.4256	695.5496	713.481	743.8498	823.9535	830.6047	886.4284	919.3903	999.2377	1048.1703	1084.2642	1109.1758	1139.9552	1145.7955	1188.7687	1276.6471	1292.4117	1294.5439	1398.5316	1416.7816	1423.8479	1484.1265	1495.797	1501.032	1525.4114	1533.8617	1625.7012	2997.7586	3032.1824	3046.5527	3121.9682	3123.6354	3245.4405	3267.055	3278.0315	3688.5383	65.8212	91.9386	157.9982	244.2028	292.6316	353.7673	426.3172	456.0858	622.239	639.4255	695.5497	713.4809	743.8493	823.9532	830.6041	886.4284	919.3902	999.2376	1048.1699	1084.2641	1109.1759	1139.9551	1145.7955	1188.7688	1276.6467	1292.4117	1294.544	1398.5316	1416.7816	1423.848	1484.1265	1495.7969	1501.0321	1525.4114	1533.8617	1625.7013	2997.7584	3032.1823	3046.5527	3121.9682	3123.6354	3245.4404	3267.0549	3278.0315	3688.538
CCOC1=CC=CN1	CCOc1ccc[nH]1	
InChI=1S/C6H9NO/c1-2-8-6-4-3-5-7-6/h3-5,7H,2H2,1H3	InChI=1S/C6H9NO/c1-2-8-6-4-3-5-7-6/h3-5,7H,2H2,1H3
