14
gdb 129960	3.34193	1.17459	0.87238	2.0191	68.03	-0.2225	-0.0181	0.2044	1235.9782	0.101209	-469.979941	-469.971716	-469.970772	-470.013639	29.228	
N	 0.132250234	 1.3855343144	 0.2040979916	-0.617233
C	 0.0253839485	 0.0067446556	 0.0315521659	 0.029475
C	-1.0423889432	-0.8357168844	 0.0190844852	 0.02482
O	-0.6321136182	-2.1222588093	-0.101606995	-0.18282
N	 0.7497691972	-2.154542973	-0.175207869	-0.239309
C	 1.1188780394	-0.9018203383	-0.0896716643	 0.471264
O	 2.4003518077	-0.4694860444	-0.136913363	-0.232895
C	 3.4105687267	-1.3834098389	 0.0284353386	 0.111657
N	 4.5903368649	-0.9933050413	-0.1563676639	-0.424773
H	 1.0225580146	 1.7415076901	-0.1187466989	 0.264935
H	-0.6266037633	 1.9121540487	-0.206013716	 0.254739
H	-2.1076282938	-0.6854907065	 0.0843212098	 0.147483
H	 3.0487859458	-2.3703892115	 0.3216408224	 0.150164
H	 5.2402540597	-1.7566592013	 0.0223779865	 0.242495
59.459	90.8928	152.2964	197.1209	270.1188	286.489	401.811	472.863	536.9477	578.3855	671.417	708.5034	739.8984	787.7694	828.2695	843.1895	927.3262	995.9212	1034.9868	1053.9647	1121.5064	1142.9494	1254.9019	1292.5268	1326.3883	1404.2961	1477.5136	1557.2707	1649.4072	1699.5567	1750.4969	3124.4708	3276.0612	3519.0207	3549.2534	3642.5376
NC1=CON=C1OC=N	Nc1conc1O[CH][NH]	
InChI=1S/C4H5N3O2/c5-2-8-4-3(6)1-9-7-4/h1-2,5H,6H2	InChI=1S/C4H5N3O2/c5-2-8-4-3(6)1-9-7-4/h1-2,5H,6H2
