19
gdb 108367	2.16896	1.66131	1.24007	3.9262	71.32	-0.2335	0.0563	0.2898	1086.004	0.156969	-460.107374	-460.098048	-460.097104	-460.141208	35.078	
C	-0.014568281	 1.5300009832	 0.1463288396	-0.470056
C	 0.0747642369	 0.0252434907	 0.1748525216	 0.317805
O	-1.1426471744	-0.6429617756	-0.0850336505	-0.478514
C	 1.2890620272	-0.7875015364	-0.265795844	-0.266821
C	 2.5619677583	-0.1264812458	 0.2377546995	-0.111485
O	 2.0275709218	-0.0267677506	 1.5872161768	-0.320982
C	 0.8520907645	-0.7507352281	 1.1973565327	 0.416645
C	 0.2260851116	-1.7464169071	 2.1377060942	-0.177642
O	-0.9166169742	-1.2364462879	 2.8038116781	-0.421364
H	 0.8876850773	 1.9837407668	 0.5602395837	 0.146285
H	-0.1557394692	 1.9036078709	-0.8752405997	 0.106659
H	-0.8648043018	 1.8568508526	 0.7524988679	 0.131677
H	-1.3861261673	-0.4929368095	-1.0051577335	 0.289359
H	 1.2119808937	-1.5843779845	-0.9945644432	 0.09857
H	 3.4353174191	-0.7882786689	 0.2208409488	 0.114395
H	 2.8346760683	 0.8512061105	-0.1758998387	 0.105099
H	-0.0108031378	-2.6650895174	 1.5832801724	 0.100922
H	 0.9578967372	-1.9998485621	 2.9105342805	 0.124091
H	-1.5625103102	-1.0441218307	 2.1138180739	 0.295356
67.1546	131.3832	173.2129	209.7713	251.6147	266.9769	286.5618	341.2954	382.8326	428.9061	478.4916	493.5736	530.5839	657.7199	723.9328	840.8034	870.5254	919.4193	956.5122	969.8945	976.1004	984.4344	1050.5859	1073.5734	1085.759	1128.1895	1156.5084	1185.7257	1208.6128	1241.2083	1266.1643	1300.3191	1346.557	1384.2911	1407.6165	1432.6156	1462.9621	1481.9522	1483.4258	1504.5309	1520.4017	3005.7998	3024.5107	3029.9101	3070.869	3090.8618	3097.103	3136.3665	3193.495	3793.9329	3795.918
CC1(O)C2COC12CO	C[C@@]1(O)[C@H]2CO[C@@]12CO	
InChI=1S/C6H10O3/c1-5(8)4-2-9-6(4,5)3-7/h4,7-8H,2-3H2,1H3	InChI=1S/C6H10O3/c1-5(8)4-2-9-6(4,5)3-7/h4,7-8H,2-3H2,1H3/t4-,5-,6-/m1/s1
