13
gdb 133319	2.41441	1.84997	1.04817	5.4218	64.69	-0.2309	-0.0268	0.2041	1016.9503	0.089563	-494.051268	-494.043811	-494.042867	-494.082917	28.679	
N	 0.00453097	 1.4323764082	-0.1444857898	-0.602321
C	-0.015983565	 0.0610405792	-0.065953951	 0.118924
C	-1.1848740245	-0.6948891947	-0.0885530739	 0.312697
O	-2.365151691	-0.0206773435	-0.1302622433	-0.448872
C	-1.0627088684	-2.0851500418	-0.0610066221	-0.085526
N	 0.0962726076	-2.7342827029	-0.0092512143	-0.223622
N	 1.2248424239	-2.0209134121	 0.0224641539	-0.262448
C	 1.1501381437	-0.7162225321	-0.0042630833	 0.31489
F	 2.3062955565	-0.046060757	 0.0393869598	-0.078383
H	 0.8534097236	 1.8761180261	 0.1683269233	 0.268162
H	-0.8468261032	 1.9016260363	 0.1223299303	 0.271022
H	-3.0969937862	-0.6471919268	-0.1244737754	 0.309519
H	-1.9520609171	-2.712534309	-0.0794742042	 0.105959
142.1478	256.9429	272.0148	305.1253	324.2827	359.7286	393.7177	486.8065	512.2192	544.6929	587.4273	606.5352	618.37	714.3322	772.2454	880.7209	901.4454	985.6586	1133.8282	1179.2705	1248.0749	1282.8311	1327.3609	1371.581	1434.8506	1519.3859	1600.9507	1632.9287	1663.5312	3145.3924	3587.9501	3701.7943	3819.5048
NC1=C(O)C=NN=C1F	Nc1c(O)cnnc1F	
InChI=1S/C4H4FN3O/c5-4-3(6)2(9)1-7-8-4/h1H,(H2,6,7)(H,8,9)	InChI=1S/C4H4FN3O/c5-4-3(6)2(9)1-7-8-4/h1H,(H2,6,7)(H,8,9)
