20
gdb 59309	2.69495	1.24734	0.94937	1.3092	76.84	-0.2685	0.0134	0.2819	1284.8933	0.169166	-440.28929	-440.279359	-440.278415	-440.324295	36.044	
C	-0.1474155987	 1.4121819856	-0.2554076636	-0.401108
C	-0.0584222896	-0.0957631646	 0.011789255	 0.031456
C	 0.8918181121	-0.4177561946	 1.17494154	-0.405805
C	-1.434562148	-0.6699145098	 0.3015218697	 0.096695
O	-2.3921446042	-0.437415088	-0.8072133394	-0.265771
C	-2.5006455765	-1.7806629601	-1.0532353423	 0.394056
N	-3.049195675	-2.4271062081	-1.9780606365	-0.554659
C	-1.6502322537	-2.2007680632	 0.1273714001	-0.013791
O	-0.5185700774	-2.9784426984	-0.1683210533	-0.42564
H	 0.8360000306	 1.8139197183	-0.5182835722	 0.114596
H	-0.8371158427	 1.6273668823	-1.0756043581	 0.13147
H	-0.4999302985	 1.9493989636	 0.6332507927	 0.111602
H	 0.3188771867	-0.5955968021	-0.8880877831	 0.085301
H	 1.8879847877	-0.0110824448	 0.9757000818	 0.116958
H	 0.5352281332	 0.0289778566	 2.1108834362	 0.110555
H	 0.9879513869	-1.4965241527	 1.3198707399	 0.141564
H	-1.8563973175	-0.2560326388	 1.2232666799	 0.090323
H	-3.4946495733	-1.8138142358	-2.6625048828	 0.232011
H	-2.2336720905	-2.6443468748	 0.9443563486	 0.104832
H	-0.7366699618	-3.5145379106	-0.9396906427	 0.305353
60.7572	88.6612	153.199	159.287	224.7295	238.5	242.9933	265.8167	319.8198	391.8614	416.5859	466.5776	582.0003	672.7511	777.2076	810.1213	870.2768	899.0469	912.0716	935.0618	935.9295	976.7752	1013.9532	1037.0232	1119.5078	1148.4827	1182.7611	1192.8163	1222.4526	1239.2292	1305.2382	1325.597	1343.9347	1373.2548	1381.1897	1398.7524	1406.0323	1423.4067	1489.3393	1494.7552	1504.7506	1517.0617	1823.1455	3023.6348	3029.3477	3031.828	3041.5877	3065.4548	3094.6312	3101.2059	3120.9851	3126.1536	3478.6549	3799.1704
CC(C)C1OC(=N)C1O	CC(C)[C@H]1O[C]([NH])[C@H]1O	
InChI=1S/C6H11NO2/c1-3(2)5-4(8)6(7)9-5/h3-5,7-8H,1-2H3	InChI=1S/C6H11NO2/c1-3(2)5-4(8)6(7)9-5/h3-5,7-8H,1-2H3/t4-,5+/m0/s1
