20
gdb 85361	2.88595	1.33319	1.06539	5.5982	85.05	-0.2041	-0.0225	0.1816	1188.3868	0.171583	-403.189932	-403.180935	-403.179991	-403.223595	33.753	
C	-0.2219556904	 1.3895065351	 0.0803691782	-0.393394
C	 0.0357650466	-0.1233983986	-0.0307559423	 0.001094
C	 0.845125651	-0.479721452	-1.2846260715	-0.332641
C	 2.3293934861	-0.0953154198	-1.1837652058	 0.365553
O	 2.9692385309	 0.2114499521	-2.1760843429	-0.364073
C	 2.8819386721	-0.2300384622	 0.1496268955	-0.26631
C	 2.0832926903	-0.538046511	 1.2078270866	 0.044218
N	 0.7300105409	-0.6343938904	 1.1624561053	-0.033698
C	-0.0486086569	-0.8322527218	 2.3678296029	-0.341565
H	 0.7198439704	 1.9431775118	 0.1314527017	 0.142607
H	-0.7756982069	 1.7389996398	-0.7961442001	 0.126317
H	-0.8136180578	 1.6311282099	 0.9681678328	 0.114982
H	-0.9308015061	-0.6389954431	-0.0764582447	 0.086321
H	 0.8108369167	-1.5652382103	-1.4470035439	 0.120731
H	 0.4135078012	-0.0037837703	-2.1679505682	 0.120755
H	 3.9523813172	-0.1452519544	 0.2837418803	 0.093688
H	 2.5159853056	-0.7296482128	 2.18654248	 0.115795
H	 0.5830780048	-1.2654114688	 3.1462045678	 0.138037
H	-0.4751218058	 0.10440788	 2.7544242571	 0.128247
H	-0.8752589198	-1.5254490133	 2.1758135611	 0.133338
83.4006	113.2856	135.2758	191.8147	238.0424	314.3293	357.4719	372.1798	412.2924	468.7374	492.0064	565.9482	639.4621	742.0508	764.3122	786.6665	865.1338	877.9643	952.4355	974.5044	1028.0869	1049.5828	1088.4272	1131.4272	1151.4925	1167.7136	1211.3726	1230.838	1243.708	1309.6821	1363.6491	1365.3851	1396.1946	1404.8081	1454.9906	1459.2751	1476.5915	1481.645	1496.854	1499.8458	1526.22	1655.9918	1757.3916	2999.8112	3023.0985	3036.2463	3043.6923	3062.088	3109.5894	3114.7947	3122.2798	3124.7629	3162.6419	3218.9398
CC1CC(=O)C=CN1C	C[C@H]1CC(=O)C=CN1C	
InChI=1S/C7H11NO/c1-6-5-7(9)3-4-8(6)2/h3-4,6H,5H2,1-2H3	InChI=1S/C7H11NO/c1-6-5-7(9)3-4-8(6)2/h3-4,6H,5H2,1-2H3/t6-/m0/s1
