18
gdb 34981	2.69375	1.65774	1.4221	1.3197	80.75	-0.2177	0.0268	0.2445	986.7185	0.148804	-364.732919	-364.725503	-364.724559	-364.764465	30.205	
C	-0.3681925366	-1.249384636	-0.3367681933	-0.441791
C	-0.1812776348	-0.0859044484	-0.0884034041	 0.334853
C	-0.0355420128	 1.332867489	 0.0621769955	-0.207038
C	 0.5299916954	 2.0799495862	 1.2387462481	-0.047726
C	 1.358616162	 1.4779966152	 2.3463755695	-0.048592
C	 1.7143964483	 0.0105358591	 2.3797251789	-0.311562
C	 2.6402113277	 0.9841151421	 1.7009373325	-0.034338
C	 2.494398564	 1.2359562276	 0.1951663238	-0.193894
N	 1.2681253873	 2.0471592673	-0.0359230649	-0.119798
H	-0.5243373605	-2.2834707195	-0.5216439649	 0.200027
H	-0.806829687	 1.8679168014	-0.4922624364	 0.117091
H	 0.0425336999	 3.0218330067	 1.481523175	 0.093679
H	 1.3736196579	 2.033320474	 3.2767996261	 0.088938
H	 2.0351419786	-0.3761700871	 3.3420204238	 0.107682
H	 1.1473377265	-0.6901176401	 1.7848085004	 0.142529
H	 3.6056957646	 1.1828650978	 2.1532355487	 0.087699
H	 3.3400037296	 1.8266649904	-0.1684221732	 0.113076
H	 2.4573087597	 0.3137136342	-0.3952478656	 0.119165
119.8723	164.479	227.3154	299.7937	377.2577	418.6825	575.4479	599.5377	619.2917	659.3244	668.5915	678.2097	726.575	776.746	801.8511	817.8003	874.6533	904.1491	949.2571	983.2592	1025.1597	1042.5697	1076.3195	1083.9031	1100.9572	1113.3772	1131.386	1136.563	1205.657	1239.8341	1284.6586	1327.4251	1339.7013	1373.3397	1378.2418	1408.3837	1490.1941	1503.7441	2221.774	3045.413	3085.179	3095.5088	3124.9502	3141.1836	3165.1495	3180.3869	3253.1167	3501.3633
C#CC1C2C3CC3CN12	C#C[C@H]1[C@H]2[C@H]3C[C@H]3CN12	
InChI=1S/C8H9N/c1-2-7-8-6-3-5(6)4-9(7)8/h1,5-8H,3-4H2	InChI=1S/C8H9N/c1-2-7-8-6-3-5(6)4-9(7)8/h1,5-8H,3-4H2/t5-,6-,7-,8+,9?/m0/s1
