20
gdb 57054	2.32844	1.35659	0.94725	3.0101	78.9	-0.2623	0.0298	0.2922	1271.9952	0.170204	-403.152858	-403.143201	-403.142256	-403.188178	34.685	
C	-0.1456236667	 1.5470465531	-0.0705181357	-0.402935
C	-0.0157194929	 0.0155677978	 0.0445373036	-0.160972
C	 0.8077868864	-0.3638474287	 1.19538985	 0.272699
N	 1.4376795607	-0.669302295	 2.1155524583	-0.331156
C	-1.4048036604	-0.6405351546	 0.1546432823	 0.145286
O	-2.204647625	-0.3329738526	-1.0024389627	-0.294782
C	-2.4617097222	-1.7317742951	-1.26303891	-0.081745
C	-1.57858542	-2.170494228	-0.0727610855	-0.050517
C	-0.3654154183	-3.0339095981	-0.3929072752	-0.426454
H	 0.8321511755	 2.0116090828	-0.216906951	 0.133748
H	-0.7861500481	 1.7823272174	-0.9227151216	 0.15115
H	-0.594658113	 1.967692693	 0.8336942261	 0.135525
H	 0.4763551207	-0.3636894819	-0.8581694323	 0.12515
H	-1.8852521316	-0.2771296933	 1.0737186703	 0.089888
H	-3.5289022501	-1.9686770697	-1.1829659614	 0.107775
H	-2.1019963635	-2.0322043674	-2.255141498	 0.104389
H	-2.1523625973	-2.6305100898	 0.7349993014	 0.091579
H	 0.208921963	-2.6379696961	-1.2369484581	 0.119665
H	 0.3059676738	-3.1174972742	 0.4663087192	 0.149019
H	-0.6874099109	-4.0443916396	-0.6657314496	 0.122688
34.4431	83.3431	124.1381	200.5203	219.4113	239.5429	247.6079	292.3963	363.9496	410.392	451.3873	536.0276	589.8174	745.9491	822.9189	863.8972	891.5075	921.8962	965.9419	1008.4488	1030.7934	1044.0328	1071.507	1103.2608	1130.922	1156.8354	1167.1578	1195.6961	1265.3679	1279.9956	1290.3802	1324.6532	1353.4428	1381.7736	1391.3655	1409.7071	1420.8667	1496.4185	1499.6096	1500.4918	1503.2625	1527.1545	2353.0187	3003.4145	3017.6258	3036.9835	3051.8571	3055.8604	3059.91	3079.8328	3102.6775	3118.3258	3128.0218	3145.1319
CC(C#N)C1OCC1C	C[C@@H](C#N)[C@H]1OC[C@H]1C	
InChI=1S/C7H11NO/c1-5(3-8)7-6(2)4-9-7/h5-7H,4H2,1-2H3	InChI=1S/C7H11NO/c1-5(3-8)7-6(2)4-9-7/h5-7H,4H2,1-2H3/t5-,6+,7+/m0/s1
