16
gdb 17051	4.83907	1.34633	1.26292	4.1298	65.56	-0.2402	0.0121	0.2522	978.2746	0.130645	-383.691388	-383.684061	-383.683117	-383.723312	27.354	
O	-0.1270912435	 1.4369066771	-0.2535644788	-0.41692
C	 0.0344464651	 0.0652915922	 0.0824950826	-0.139443
C	-1.343342908	-0.5663833505	 0.0044331126	 0.055958
C	-2.0354639798	-0.7861466111	-1.3952358984	-0.169971
C	-1.0870742894	-2.0185544733	-1.5956897811	-0.247425
C	-1.5041344502	-2.1289602642	-0.0865693136	-0.203261
C	-2.9078921303	-1.7876227226	-0.6224878929	 0.451025
O	-4.0434684855	-2.1266474612	-0.505515933	-0.324016
H	 0.7164085391	 1.8806112984	-0.1243829231	 0.289983
H	 0.7597943102	-0.4218805846	-0.5823248016	 0.092055
H	 0.4102428031	-0.0515723339	 1.1115952219	 0.093784
H	-1.985979628	-0.0813946439	 0.7449443309	 0.095995
H	-2.3171203719	-0.0283173684	-2.1214099986	 0.10099
H	-1.4344783724	-2.808037259	-2.2644339303	 0.116268
H	-0.0410167924	-1.7829204368	-1.7822512402	 0.113207
H	-1.201896746	-2.8780813782	 0.6423786236	 0.091772
75.4125	138.376	181.783	252.6548	370.9127	407.1688	481.7217	522.5149	698.7478	719.6834	757.3545	804.2273	853.8862	889.833	957.7982	1017.1425	1025.7995	1042.9559	1061.7509	1083.2694	1101.3529	1128.6545	1135.0022	1184.1263	1194.7361	1213.4994	1237.7242	1256.5109	1271.2674	1407.2251	1465.8656	1507.9827	1537.5554	1920.7598	2975.3288	3020.3433	3069.7838	3086.3457	3142.5038	3157.3221	3161.3905	3828.1259
OCC1C2CC1C2=O	OC[C@H]1[C@H]2C[C@@H]1C2=O	
InChI=1S/C6H8O2/c7-2-5-3-1-4(5)6(3)8/h3-5,7H,1-2H2	InChI=1S/C6H8O2/c7-2-5-3-1-4(5)6(3)8/h3-5,7H,1-2H2/t3-,4+,5+
