17
gdb 90169	2.94828	1.61332	1.39386	3.2208	67.36	-0.2465	0.059	0.3055	966.6725	0.136123	-458.901459	-458.893969	-458.893025	-458.933209	29.283	
O	 0.2143406692	 1.3635004838	-0.1183989347	-0.429916
C	 0.0778154233	-0.0367198411	-0.0731469835	 0.043646
C	 0.391595846	-0.6796918151	 1.3342690726	-0.333507
C	-1.1084973659	-1.0090185697	 1.4546571076	 0.265236
C	-2.2462400297	-0.6534791197	 2.3728551814	-0.154836
O	-3.2703118091	-0.1587315419	 1.4990200307	-0.26423
C	-2.7023721448	 0.3367200034	 0.2747767484	-0.163901
C	-1.4043415195	-0.4071468807	 0.1483008058	 0.272908
O	-1.4772178512	-1.817856682	 0.332283379	-0.290719
H	 1.1525759148	 1.576690297	-0.1424049911	 0.292252
H	 0.5419091665	-0.5280254411	-0.9374724474	 0.08149
H	 1.0702524113	-1.5344522396	 1.373678028	 0.110623
H	 0.7124630043	 0.0952728964	 2.0344712155	 0.114093
H	-2.6795715843	-1.4901581979	 2.9289754819	 0.120114
H	-1.9124516897	 0.1133219086	 3.089621793	 0.099271
H	-3.4347229556	 0.1422358519	-0.5139635141	 0.119479
H	-2.4981335755	 1.4157275576	 0.3194973969	 0.117999
118.6706	185.6688	234.8549	262.2757	303.7112	406.521	452.6599	485.4803	519.2818	639.6456	678.1713	746.5181	823.619	852.7148	895.5222	905.7715	946.7073	972.2654	1034.5336	1046.4211	1059.0843	1113.8101	1164.5954	1172.6333	1215.2821	1218.8933	1230.4966	1234.3971	1267.5246	1305.1359	1354.4288	1390.7234	1410.3528	1421.4136	1462.7809	1501.2528	1511.9042	2985.2786	3014.6557	3022.3474	3066.2241	3079.1508	3086.4266	3130.7308	3820.6338
OC1CC23COCC12O3	O[C@H]1C[C@@]23COC[C@@]12O3	
InChI=1S/C6H8O3/c7-4-1-5-2-8-3-6(4,5)9-5/h4,7H,1-3H2	InChI=1S/C6H8O3/c7-4-1-5-2-8-3-6(4,5)9-5/h4,7H,1-3H2/t4-,5+,6+/m0/s1
