20
gdb 92857	2.83331	1.59474	1.18448	3.8411	78.88	-0.2408	0.033	0.2737	1090.8629	0.174144	-403.177726	-403.17006	-403.169115	-403.209725	30.345	
C	-0.1371814325	 1.5783638829	-0.196190367	-0.396795
C	-0.0200195517	 0.0607705332	-0.0306839695	-0.037403
C	 0.9672130799	-0.5564841642	-1.0881847656	-0.167306
N	 2.3084100665	-0.599493336	-0.4667719754	-0.322827
C	 2.0959311796	-0.5040214864	 0.7768977912	 0.44908
O	 3.001180577	-0.3891585588	 1.7662783887	-0.255118
C	 2.2868495889	-0.0541939905	 2.9816463195	-0.087116
C	 0.8910425092	 0.4510428797	 2.5446438485	-0.275726
C	 0.6771989978	-0.3847744702	 1.2750007485	-0.10257
H	 0.8451309462	 2.061571544	-0.1546051929	 0.128123
H	-0.5811938553	 1.8198628385	-1.167003807	 0.118146
H	-0.7694357163	 2.0247931499	 0.5783481739	 0.112269
H	-1.0149126594	-0.3853287534	-0.1207113593	 0.069373
H	 0.658460603	-1.5698273228	-1.3796568287	 0.099655
H	 1.0050731188	 0.0408374228	-2.005509374	 0.103895
H	 2.2143797108	-0.9558256823	 3.6019406714	 0.115463
H	 2.8798016103	 0.6912895899	 3.5156737392	 0.124975
H	 0.1422147812	 0.2992337372	 3.324925641	 0.10971
H	 0.935583804	 1.5189750275	 2.3129636208	 0.119989
H	 0.3198610419	-1.3845850012	 1.5601612367	 0.094184
108.0598	176.0459	245.1006	256.8007	271.3439	349.5334	458.5541	466.6529	612.2041	656.4341	677.6884	743.9722	788.5435	846.345	866.3535	922.3863	937.1608	948.7779	991.8605	1015.9908	1045.4664	1055.7783	1085.0491	1132.5286	1148.0396	1193.215	1219.6787	1227.0697	1246.1848	1263.5367	1291.2265	1322.6689	1324.8631	1356.0145	1372.6016	1410.0739	1417.8315	1491.6489	1497.7751	1501.7991	1506.176	1521.6406	1766.1625	3003.265	3010.9593	3030.8096	3034.8048	3059.6663	3065.3415	3066.2161	3100.1773	3103.1685	3107.7042	3121.2737
CC1CN=C2OCCC12	C[C@H]1C[N][C]2OCC[C@@H]12	
InChI=1S/C7H11NO/c1-5-4-8-7-6(5)2-3-9-7/h5-6H,2-4H2,1H3	InChI=1S/C7H11NO/c1-5-4-8-7-6(5)2-3-9-7/h5-6H,2-4H2,1H3/t5-,6-/m0/s1
