20
gdb 9841	3.35418	1.2878	1.24765	2.4968	70.69	-0.2519	0.0602	0.3121	1096.3676	0.175577	-386.12263	-386.113398	-386.112454	-386.15636	34.544	
C	-0.0432349684	 1.5276554093	 0.3358385361	-0.490775
C	-0.0197311755	 0.0370037869	 0.0433443103	 0.372522
C	 1.2906706053	-0.578566897	-0.3940088649	-0.303353
C	 0.7559860218	-0.8465578039	 0.9909859464	-0.307276
C	-1.2790326736	-0.5652553657	-0.5593647167	 0.023959
O	-2.4113093009	-0.4902965497	 0.3200787072	-0.449788
C	-1.6791805093	 0.0128165833	-1.9211486847	-0.069891
O	-2.8471435766	-0.6181801119	-2.4027200315	-0.42549
H	 0.8932478275	 1.8401558677	 0.8070809114	 0.122336
H	-0.1711690289	 2.1281192007	-0.5708660372	 0.126515
H	-0.84871417	 1.7939230978	 1.0324832956	 0.108343
H	 1.2635200241	-1.3868030095	-1.117674141	 0.11563
H	 2.1496000172	 0.0759987868	-0.4973029071	 0.11112
H	 1.2547535398	-0.3746989246	 1.8309212996	 0.109904
H	 0.3594223153	-1.8324276341	 1.2077436164	 0.119409
H	-1.1227519343	-1.6417139385	-0.6947902359	 0.089794
H	-2.5373199905	 0.4346763072	 0.5607263497	 0.281856
H	-1.82426155	 1.1042560172	-1.8350767205	 0.073348
H	-0.8826208597	-0.1544020621	-2.6540012411	 0.108461
H	-3.4183733833	-0.71228892	-1.6288896219	 0.283374
53.4675	122.8972	176.5837	210.4415	254.8176	289.0485	306.0847	321.4436	339.8811	461.852	497.9747	515.9295	527.7165	765.8646	785.817	863.4125	874.5857	935.7061	952.0914	962.1692	1034.217	1061.0269	1070.9706	1078.9935	1081.4391	1101.3668	1128.3487	1188.0468	1194.8927	1252.8427	1292.7872	1327.2744	1358.568	1387.3446	1421.5618	1427.7456	1442.5685	1472.3944	1496.1053	1497.522	1509.055	1509.2691	2947.6252	3018.117	3048.1734	3072.6243	3078.6563	3103.9731	3128.1117	3133.7465	3206.0506	3220.9017	3761.6646	3797.6642
CC1(CC1)C(O)CO	CC1(CC1)[C@@H](O)CO	
InChI=1S/C6H12O2/c1-6(2-3-6)5(8)4-7/h5,7-8H,2-4H2,1H3	InChI=1S/C6H12O2/c1-6(2-3-6)5(8)4-7/h5,7-8H,2-4H2,1H3/t5-/m0/s1
