13
gdb 132867	3.04982	1.43189	0.98024	1.0888	65.76	-0.247	-0.0873	0.1597	1086.89	0.087708	-497.895899	-497.888396	-497.887452	-497.928174	27.582	
C	-0.0339063405	 1.4965492744	-0.0217434606	-0.463171
C	-0.004273595	 0.0026425218	-0.0509330609	 0.176695
N	-0.0268792797	-0.6446538256	-1.1733403259	-0.31066
C	 0.0019785783	-1.999700878	-1.1352816957	 0.243185
F	-0.0231080113	-2.6105629698	-2.3135701014	-0.063521
C	 0.0528106881	-2.7079368676	 0.0068824874	-0.086785
O	 0.0776288135	-2.0636874721	 1.1961965513	-0.192183
C	 0.0517879755	-0.6821270446	 1.262563205	 0.395694
O	 0.0745598888	-0.1415084861	 2.3348595869	-0.322491
H	 0.851186118	 1.8836170692	 0.494642537	 0.156622
H	-0.0754744417	 1.8885334226	-1.0379455608	 0.146504
H	-0.897950707	 1.8478388814	 0.5525744901	 0.156646
H	 0.077347103	-3.7854560256	 0.0880052476	 0.163466
97.359	140.6859	218.8339	279.0901	362.8277	374.2556	425.2208	472.9177	530.031	597.2335	615.871	662.6636	785.1216	806.2678	842.098	968.7926	1022.7675	1043.0062	1047.1913	1218.1743	1289.4258	1310.9652	1388.115	1408.078	1462.0955	1464.5904	1609.3151	1687.8013	1830.3519	3043.3719	3096.4559	3159.6518	3238.6347
CC1=NC(F)=COC1=O	Cc1nc(F)coc1=O	
InChI=1S/C5H4FNO2/c1-3-5(8)9-2-4(6)7-3/h2H,1H3	InChI=1S/C5H4FNO2/c1-3-5(8)9-2-4(6)7-3/h2H,1H3
