23
gdb 92329	1.97442	1.87305	1.19828	1.5464	84.03	-0.2393	0.0678	0.307	1148.7783	0.207269	-388.290764	-388.282052	-388.281108	-388.323959	34.429	
C	-0.8002765394	 1.2926866908	-0.2566857318	-0.41282
C	-0.0484083886	-0.0309498027	-0.1731432373	 0.035204
C	 1.284919665	-0.1392034234	-0.9704079608	-0.268455
C	 1.9941703619	-0.7236966936	 0.2808316589	 0.121398
O	 3.0233690049	 0.078867595	 0.8386722826	-0.259592
C	 2.4081563731	 1.0936830601	 1.6210283157	-0.106127
C	 1.1724647642	 0.4318634339	 2.2509746465	 0.025844
C	 0.1729827058	 1.3913324152	 2.8969716877	-0.419878
C	 0.6967611719	-0.51530451	 1.12791487	-0.091496
H	-0.1538881395	 2.1492931404	-0.0400538068	 0.116673
H	-1.1899909902	 1.4319916728	-1.2718954917	 0.112496
H	-1.6516129547	 1.3286379342	 0.4307108589	 0.115027
H	-0.7352496713	-0.8272726689	-0.4790875588	 0.072288
H	 1.2658443575	-0.7857662214	-1.8512972158	 0.095634
H	 1.7059728461	 0.8275577395	-1.2627696161	 0.102715
H	 2.3885930279	-1.7364562602	 0.1720152031	 0.073654
H	 3.1417591847	 1.4418328194	 2.354170934	 0.105356
H	 2.1153915178	 1.9570891395	 0.9994762481	 0.084506
H	 1.5501060089	-0.2331052079	 3.039466662	 0.082331
H	-0.7111607975	 0.8561843386	 3.2580803607	 0.115775
H	 0.6274943194	 1.8901448888	 3.7600979705	 0.113064
H	-0.1658360813	 2.1687793561	 2.2094223859	 0.120678
H	 0.2469573033	-1.4147167561	 1.5542945146	 0.065723
59.0075	173.4511	206.6212	233.1543	262.2266	291.3464	331.6563	375.1398	419.8722	521.8908	570.8763	638.7294	706.8781	741.6221	832.3595	875.8705	901.6147	906.3386	935.7718	943.0464	965.2105	993.9299	1049.0697	1084.7814	1089.2639	1098.063	1131.8145	1155.6372	1171.7595	1194.3205	1226.7652	1229.2675	1253.0255	1267.4375	1282.1746	1324.392	1328.4477	1356.5928	1364.6773	1377.9325	1402.7436	1411.9626	1415.7676	1474.7264	1490.0052	1493.8334	1505.3759	1510.2574	1519.369	2958.6424	3009.3764	3026.5013	3035.3128	3038.3978	3052.7946	3072.5837	3080.0689	3085.6396	3087.6899	3094.0759	3101.1064	3110.1178	3132.1253
CC1CC2OCC(C)C12	C[C@H]1C[C@H]2OC[C@@H](C)[C@@H]12	
InChI=1S/C8H14O/c1-5-3-7-8(5)6(2)4-9-7/h5-8H,3-4H2,1-2H3	InChI=1S/C8H14O/c1-5-3-7-8(5)6(2)4-9-7/h5-8H,3-4H2,1-2H3/t5-,6+,7+,8+/m0/s1
