19
gdb 40876	3.43403	1.58168	1.39162	1.6322	79.28	-0.2211	0.0166	0.2377	990.2941	0.160959	-385.838459	-385.831398	-385.830454	-385.869865	28.913	
C	-0.0351224084	 1.3642065582	-0.3233600005	-0.087242
C	 1.4245337828	 1.5351197562	 0.1305272293	-0.369662
C	 1.242890806	 0.1257021851	 0.7329255932	 0.525238
O	-0.1069366711	 0.0515525875	 0.2734271433	-0.324447
C	 2.2555121786	-1.0407836229	 0.4582379558	-0.156906
C	 3.0531999863	-0.4326330064	 1.6613495233	-0.220707
C	 1.6088765431	-0.2032818768	 2.2226488945	-0.156907
C	 1.1075507671	-1.6485283316	 2.3047772471	-0.076399
C	 1.5280132325	-2.1927751822	 1.1585753837	-0.076416
H	-0.760214124	 2.05427222	 0.1236768278	 0.103641
H	-0.1992814077	 1.3278320065	-1.4066517004	 0.10364
H	 2.1615259331	 1.6076637528	-0.6715310875	 0.113537
H	 1.6019801305	 2.3322199747	 0.8550027405	 0.113539
H	 2.6999991622	-1.2065506991	-0.5231621409	 0.057924
H	 3.6869524074	-1.1222875724	 2.220947831	 0.099299
H	 3.5911813277	 0.4896826995	 1.4206876115	 0.095517
H	 1.3940720459	 0.4848707528	 3.0402668005	 0.057926
H	 0.5168435624	-2.0760160225	 3.1017037006	 0.099214
H	 1.3745336457	-3.1862754692	 0.7633895472	 0.099212
92.6857	190.2282	218.0882	349.2507	404.7689	509.6255	552.7876	563.3641	717.0603	761.1292	786.5904	819.4228	829.2638	863.0306	879.8655	909.0216	929.5455	939.948	969.7534	989.2733	1013.5282	1023.7863	1073.4371	1096.5138	1111.236	1119.937	1150.6221	1162.8475	1169.3195	1213.2483	1219.6066	1237.2722	1244.5306	1254.3348	1296.4833	1326.1222	1354.2092	1483.8813	1490.2212	1533.2779	1624.0231	3021.9448	3052.967	3062.0044	3074.6036	3114.9227	3118.219	3128.3452	3130.2522	3224.8673	3251.3603
C1CC2(O1)C1CC2C=C1	C1C[C@@]2(O1)[C@H]1C[C@@H]2C=C1	
InChI=1S/C8H10O/c1-2-7-5-6(1)8(7)3-4-9-8/h1-2,6-7H,3-5H2	InChI=1S/C8H10O/c1-2-7-5-6(1)8(7)3-4-9-8/h1-2,6-7H,3-5H2/t6-,7+,8-
