16
gdb 67395	2.90064	1.5887	1.42628	3.0283	68.28	-0.2355	0.0211	0.2566	950.0406	0.126242	-437.888517	-437.881571	-437.880626	-437.919566	28.296	
O	-0.1100101368	 1.4203758641	-0.0462101801	-0.458647
C	 0.0208223469	 0.0560265454	-0.0250563931	 0.396121
C	-1.0283903173	-1.0040248548	 0.0845507264	-0.112591
C	-0.5002554632	-1.7353392675	-1.1445180751	-0.23621
C	 0.8023362276	-0.865468981	-1.0307277681	-0.116412
N	 1.8067597858	-1.5083812626	-0.2001607644	-0.310619
C	 1.3173641436	-1.7031684507	 1.0879477537	 0.409855
O	 1.8207075337	-2.3946563546	 1.9443775312	-0.382301
C	 0.0837762766	-0.8484780789	 1.1734407778	-0.262965
H	 0.6662707959	 1.8116187261	 0.3717567551	 0.29571
H	-2.0587584462	-0.9144196742	 0.4043043557	 0.107082
H	-0.358894994	-2.8195504037	-1.0936825755	 0.102729
H	-1.0828419854	-1.4754592646	-2.0324063292	 0.114461
H	 1.2109527631	-0.4290394837	-1.9401126329	 0.094286
H	 2.4227512975	-2.2145514533	-0.5775156466	 0.247163
H	-0.2639452579	-0.5110141458	 2.1408224151	 0.112339
147.3654	228.5014	300.6114	339.4184	403.3309	444.5009	493.3528	533.1939	600.2083	646.0779	684.285	703.9835	820.783	853.2742	878.0542	897.3534	932.4725	946.4759	1002.5616	1033.8354	1064.9602	1090.4033	1126.3024	1147.4421	1156.6131	1193.4706	1228.9199	1267.1167	1291.8798	1319.4631	1339.4997	1393.537	1470.7772	1501.4428	1830.4762	3047.3056	3107.4306	3137.0663	3200.0974	3216.3781	3609.1341	3784.4
OC12C3CC1NC(=O)C23	O[C@@]12[C@H]3C[C@@H]1NC(=O)[C@@H]23	
InChI=1S/C6H7NO2/c8-5-4-2-1-3(7-5)6(2,4)9/h2-4,9H,1H2,(H,7,8)	InChI=1S/C6H7NO2/c8-5-4-2-1-3(7-5)6(2,4)9/h2-4,9H,1H2,(H,7,8)/t2-,3-,4-,6-/m0/s1
