19
gdb 102257	2.57865	0.98849	0.81564	1.8317	79.01	-0.2458	-0.0134	0.2324	1471.6978	0.154196	-423.001054	-422.990227	-422.989283	-423.038277	37.462	
C	-0.3734397156	 1.3676891263	 0.0617893122	-0.240043
O	 0.0154212736	 0.0110414614	 0.1432301038	-0.239075
C	 0.617792034	-0.4839779297	-1.0434188487	-0.069863
C	 1.2716243719	-1.8130411973	-0.6600968653	-0.329259
C	 2.5100710008	-1.6023767847	 0.2130536302	 0.402589
C	 2.8581057119	-2.732635046	 1.1591749836	-0.48164
O	 3.1783142193	-0.5986999969	 0.1298212179	-0.299848
C	-0.3541861126	-0.6414364454	-2.1329658527	 0.333024
C	-1.1562672447	-0.7737251612	-3.0187190923	-0.449708
H	 0.4891478511	 2.0200534311	-0.1393982152	 0.114596
H	-1.1279065138	 1.5278536269	-0.720543161	 0.118028
H	-0.8021336826	 1.6329658536	 1.0307450197	 0.127633
H	 1.4164194282	 0.2023682616	-1.3639929328	 0.117329
H	 0.5386736766	-2.450571468	-0.1567987705	 0.128567
H	 1.5918192116	-2.3466191875	-1.5637125907	 0.13959
H	 2.8523694572	-3.6953257236	 0.6359753545	 0.136313
H	 3.8331724343	-2.5566406058	 1.6147479759	 0.143145
H	 2.0937672277	-2.7938723562	 1.943126732	 0.150704
H	-1.8615453788	-0.8846549886	-3.8051273807	 0.197919
31.4048	63.3456	87.8023	125.1342	146.6276	170.0182	226.5082	263.9613	291.4773	337.0133	419.3864	479.3052	551.9026	573.989	605.8418	625.4689	675.5921	798.9735	823.4724	918.728	958.1981	998.2528	1065.335	1092.6167	1141.5354	1175.9502	1183.2685	1199.3306	1255.8296	1287.3504	1366.4823	1375.8698	1386.2894	1442.0206	1462.6019	1475.0227	1478.6229	1485.7562	1509.2387	1816.1568	2230.3089	2989.6629	2996.8788	3033.6945	3045.4864	3047.0812	3094.0653	3099.0471	3121.6739	3152.9815	3501.7804
COC(CC(C)=O)C#C	CO[C@@H](CC(=O)C)C#C	
InChI=1S/C7H10O2/c1-4-7(9-3)5-6(2)8/h1,7H,5H2,2-3H3	InChI=1S/C7H10O2/c1-4-7(9-3)5-6(2)8/h1,7H,5H2,2-3H3/t7-/m1/s1
