19
gdb 82618	2.37002	2.04671	1.5311	1.7009	72.93	-0.2319	0.0931	0.325	944.7694	0.161246	-423.028598	-423.021234	-423.02029	-423.059884	30.278	
C	-0.0171952309	 1.4916775479	 0.0430129357	-0.508771
C	-0.0427619283	-0.0099287334	 0.0150115404	 0.264538
C	 0.5674786157	-0.8848437073	-1.0841645419	-0.164145
C	-0.257688773	-2.1660988594	-1.1644989971	-0.238832
C	-0.5990377957	-2.209790722	 0.3352003341	-0.001047
O	 0.6851758388	-2.0746463492	 0.9793622735	-0.278295
C	 1.1406356454	-0.9015195215	 0.3148397973	 0.034435
C	-1.2154499876	-0.8136409096	 0.5920950303	 0.114727
O	-1.4677227386	-0.5437759285	 1.9521844647	-0.452943
H	 0.9633348534	 1.8834183004	-0.2466415516	 0.113916
H	-0.7588948159	 1.9183171219	-0.6422162424	 0.118665
H	-0.2449422414	 1.8546668899	 1.0504821063	 0.133043
H	 1.1049020827	-0.4675438086	-1.9257937403	 0.089611
H	-1.1495060373	-2.0798772998	-1.7916833696	 0.105115
H	 0.3274304324	-3.0329445845	-1.4843842592	 0.109464
H	-1.1259628932	-3.072654427	 0.73627522	 0.085374
H	 2.1291163741	-0.572951981	 0.6037200775	 0.103075
H	-2.1556545116	-0.661120322	 0.0545841474	 0.085466
H	-0.6875012887	-0.8546870863	 2.4301120949	 0.286604
186.5313	197.6528	227.7986	259.2787	359.7121	417.8781	457.0253	530.3887	566.7487	622.8658	700.8808	769.528	817.148	867.0967	879.3894	894.9325	911.9986	931.3577	956.8737	994.5607	1008.13	1033.3697	1053.0935	1071.435	1103.4796	1114.2118	1158.8689	1173.4062	1220.4429	1240.3066	1271.0892	1275.741	1294.5297	1309.6155	1336.9339	1412.8388	1431.2049	1436.2487	1488.439	1490.6705	1502.6887	3026.4231	3057.3109	3079.1299	3086.9651	3102.2818	3107.1874	3155.0651	3198.9635	3220.5491	3768.4678
CC12C3CC(OC13)C2O	C[C@@]12[C@@H]3C[C@@H](O[C@H]13)[C@H]2O	
InChI=1S/C7H10O2/c1-7-3-2-4(5(7)8)9-6(3)7/h3-6,8H,2H2,1H3	InChI=1S/C7H10O2/c1-7-3-2-4(5(7)8)9-6(3)7/h3-6,8H,2H2,1H3/t3-,4-,5-,6+,7+/m1/s1
