15
gdb 56383	2.07214	1.47406	1.25871	4.8311	69.6	-0.3201	-0.0326	0.2875	1077.6124	0.110595	-416.795629	-416.786493	-416.785548	-416.829717	32.455	
O	-0.1634594088	 1.3267235114	 0.1923303935	-0.420938
C	 0.0157762275	-0.0652832883	-0.0020535688	 0.06253
C	-1.3442861281	-0.6392635084	-0.0956048293	 0.326911
N	-2.3936053492	-1.1169455558	-0.1403277794	-0.327923
C	 0.7230398815	-0.3112602201	-1.2892944287	 0.286145
N	 1.3297293194	-0.4672515966	-2.2594680386	-0.317888
C	 0.815405102	-0.7160586885	 1.1276676054	-0.029415
C	 0.1746581711	-1.0208839199	 2.4550916808	-0.287319
C	 0.6039623922	-2.1469981875	 1.5517562279	-0.268988
H	 0.7016905127	 1.7109409553	 0.3801886474	 0.302994
H	 1.8401858743	-0.3545094576	 1.1344588505	 0.111892
H	 0.7546724502	-0.8115141856	 3.3462194793	 0.129815
H	-0.889203785	-0.8386745561	 2.5568421539	 0.149945
H	-0.1759408893	-2.7146873039	 1.0572012973	 0.151028
H	 1.4861537196	-2.7215768584	 1.8075001888	 0.13121
69.6398	129.7763	142.2377	161.6116	186.0905	250.409	266.8233	344.3901	437.7747	499.6212	530.6858	577.5973	612.0417	671.0499	782.4379	838.0426	903.5523	949.3998	988.2823	1052.409	1069.0303	1080.3171	1095.9767	1132.2173	1161.3301	1197.2009	1235.8993	1355.7645	1408.1245	1468.7047	1503.7478	2359.0526	2376.857	3144.6979	3146.1055	3149.9058	3227.4982	3240.2348	3798.9279
OC(C#N)(C#N)C1CC1	OC(C#N)(C#N)C1CC1	
InChI=1S/C6H6N2O/c7-3-6(9,4-8)5-1-2-5/h5,9H,1-2H2	InChI=1S/C6H6N2O/c7-3-6(9,4-8)5-1-2-5/h5,9H,1-2H2
