16
gdb 64749	2.71862	1.2826	1.11074	4.4891	69.8	-0.2624	0.0026	0.265	1121.4757	0.124561	-434.06774	-434.058989	-434.058045	-434.101553	31.658	
N	-0.0650185675	 1.5370258598	 0.0778013136	-0.558792
C	-0.0154822753	 0.0947139672	-0.0073677802	 0.151833
C	 0.8226307151	-0.4704565835	 1.1557357308	-0.368465
C	 2.187531509	 0.0523308687	 1.1765907825	 0.2787
N	 3.2545318873	 0.4942336327	 1.2075045824	-0.307169
C	-1.388960316	-0.6083360421	-0.1589757985	-0.116035
O	-0.9397907598	-1.2487257539	-1.3909135063	-0.255264
C	 0.2710148192	-0.5837434528	-1.355869715	 0.387701
N	 1.217769387	-0.5455149499	-2.172297931	-0.530343
H	 0.8788368002	 1.9166155047	 0.0661009412	 0.261862
H	-0.5384674954	 1.9231929904	-0.7337448327	 0.241837
H	 0.335729314	-0.1967079711	 2.0982916706	 0.165283
H	 0.8590666933	-1.5628578345	 1.0982172316	 0.161162
H	-1.6588830103	-1.347294219	 0.5994276295	 0.1245
H	-2.2244116642	 0.0710016549	-0.3452310148	 0.127909
H	 1.0413561334	-1.1193267416	-2.9985209736	 0.235281
69.3965	92.946	143.3724	199.9804	270.4966	285.8826	330.9695	379.9888	394.6301	504.1589	522.5299	689.5171	743.7334	762.1685	864.3951	879.5887	900.6344	917.8041	970.1409	986.8527	996.39	1048.6225	1090.8353	1149.7311	1211.6102	1228.9272	1287.2978	1306.9677	1351.4459	1394.9014	1454.1579	1515.237	1668.713	1828.3288	2364.6578	3050.4522	3061.8266	3098.616	3123.0937	3479.3081	3489.758	3565.772
NC1(CC#N)COC1=N	N[C@@]1(CC#N)CO[C]1[NH]	
InChI=1S/C5H7N3O/c6-2-1-5(8)3-9-4(5)7/h7H,1,3,8H2	InChI=1S/C5H7N3O/c6-2-1-5(8)3-9-4(5)7/h7H,1,3,8H2/t5-/m0/s1
