17
gdb 125425	4.92418	1.06885	0.91941	2.8398	76.26	-0.2136	0.0211	0.2347	1273.1689	0.137636	-414.192806	-414.184443	-414.183499	-414.227457	29.805	
C	 0.1979535377	 1.4553960936	-0.0801505322	-0.495677
C	 0.079178414	-0.030030108	-0.0321550789	 0.367997
N	 0.124041339	-0.8588968543	-1.062076493	-0.354119
C	-0.045455836	-2.083004832	-0.4818939198	 0.368184
N	-0.1838896146	-2.0712523675	 0.8377672398	-0.292258
N	-0.1065830788	-0.7359922302	 1.1010803009	-0.234802
N	-0.1418239814	-3.2455095876	-1.2368547682	-0.134102
C	 1.0196811598	-3.7037203892	-1.9917184917	-0.219312
C	 0.5482748366	-4.4447065078	-0.7849983308	-0.21864
H	 0.2697478886	 1.8826607846	 0.9236603652	 0.123821
H	 1.0866044613	 1.7452355475	-0.6468330923	 0.157217
H	-0.6697072551	 1.8964069755	-0.5807140211	 0.156498
H	-0.1881144381	-0.40963388	 2.0494968161	 0.273399
H	 0.8052780156	-4.078348649	-2.9878052036	 0.122464
H	 1.9346743469	-3.1242402377	-1.9030349161	 0.126534
H	 1.1406268007	-4.3642278961	 0.1220923903	 0.131661
H	-0.0102697763	-5.3694292719	-0.8930456545	 0.121134
26.7838	51.6474	141.7244	186.0785	257.8561	328.8826	408.2592	501.587	525.4113	575.2486	691.8042	714.7686	779.5218	820.3888	923.266	931.1851	995.9421	1027.1911	1040.943	1058.5785	1080.3453	1122.34	1131.2036	1159.1872	1174.8215	1186.7767	1271.2554	1290.6145	1390.9641	1420.9527	1455.7445	1472.1122	1495.7778	1510.4741	1521.8457	1566.8867	1585.2913	3046.5821	3110.9877	3114.0503	3118.3925	3126.8071	3197.3748	3210.9367	3666.599
CC1=NC(=NN1)N1CC1	Cc1nc(n[nH]1)N1CC1	
InChI=1S/C5H8N4/c1-4-6-5(8-7-4)9-2-3-9/h2-3H2,1H3,(H,6,7,8)	InChI=1S/C5H8N4/c1-4-6-5(8-7-4)9-2-3-9/h2-3H2,1H3,(H,6,7,8)
