22
gdb 30807	2.31455	1.24903	0.86985	1.6847	92.59	-0.1816	0.0504	0.232	1430.7238	0.193518	-367.273431	-367.263003	-367.262059	-367.309363	37.666	
C	-0.3291911091	 1.5709513805	-0.152875072	-0.361359
C	 0.0497932959	 0.0847440094	-0.0083009793	-0.303088
C	 0.8296155114	-0.4601743399	-1.1638617685	 0.207407
C	 2.1748079888	-0.7283716451	-1.3250128604	 0.210876
C	 3.2637108495	-0.5494961749	-0.3090688412	-0.506783
C	 2.3478653825	-1.205735765	-2.6616024586	-0.312847
C	 1.1215350332	-1.2181433598	-3.2828062778	 0.312301
C	 0.7190339727	-1.6294233	-4.6603016436	-0.503882
N	 0.2089288263	-0.7591478168	-2.3619635983	-0.349915
H	 0.5670844857	 2.1923991261	-0.2390161155	 0.123625
H	-0.9341225769	 1.7407683304	-1.0498898236	 0.108104
H	-0.9060142406	 1.916487188	 0.7114708174	 0.108266
H	 0.6367422337	-0.0497558106	 0.9057990081	 0.112257
H	-0.865660481	-0.5066377477	 0.1354484917	 0.095509
H	 3.8632557843	-1.4606355857	-0.197704516	 0.119833
H	 3.9570686947	 0.2539358883	-0.5879898605	 0.120199
H	 2.8622892363	-0.3007528989	 0.677796209	 0.113872
H	 3.280091237	-1.5121226991	-3.1145547711	 0.079577
H	 0.0101758111	-2.467756549	-4.6553085195	 0.121957
H	 0.2478784302	-0.8100579353	-5.2185715511	 0.121798
H	 1.5990798075	-1.9473853856	-5.2241162252	 0.135555
H	-0.7799660831	-0.6792357094	-2.5262363939	 0.246736
46.5965	81.1251	113.521	126.3397	192.699	202.6332	251.6889	277.3914	289.005	394.9305	441.2305	456.5192	583.7272	613.0391	647.4201	694.672	758.8038	792.8822	795.5372	963.8048	984.7383	997.5165	1024.4656	1058.1376	1062.0742	1064.7132	1079.4364	1165.0699	1178.4582	1242.3339	1282.4416	1333.1372	1352.5111	1406.253	1414.051	1418.3047	1431.7278	1474.0174	1480.6243	1481.0667	1484.6023	1495.1323	1496.2804	1504.2987	1509.2709	1560.7514	1651.354	3005.6705	3010.892	3018.8721	3032.441	3052.3956	3064.0184	3071.3534	3099.5156	3101.8201	3112.0557	3120.5005	3230.8612	3667.7633
CCC1=C(C)C=C(C)N1	CCc1c(C)cc(C)[nH]1	
InChI=1S/C8H13N/c1-4-8-6(2)5-7(3)9-8/h5,9H,4H2,1-3H3	InChI=1S/C8H13N/c1-4-8-6(2)5-7(3)9-8/h5,9H,4H2,1-3H3
