15
gdb 53892	5.04947	0.72753	0.63845	18.2805	70.14	-0.1725	-0.0824	0.0901	1627.8392	0.110167	-491.080227	-491.070736	-491.069792	-491.116561	32.509	
O	-0.1112385444	-0.0841555667	 0.0022131481	-0.430557
C	-0.0335323003	 1.1401735498	 0.0073083831	 0.312215
O	 0.9010777782	 1.9720005697	 0.0056377449	-0.476069
C	-1.4051425969	 1.9215422012	 0.0188877969	 0.248775
O	-2.5473164422	 1.5077117308	 0.0232655513	-0.333587
C	-1.2116916956	 3.464115662	 0.0252712375	-0.275312
N	-2.579827061	 3.9959738076	 0.0357035028	-0.222226
C	-2.964510447	 5.2246899169	 0.0440900461	 0.216469
N	-4.2354192087	 5.6255968165	 0.0533907918	-0.479924
H	-4.9992905636	 4.9669988914	 0.0544519373	 0.304298
H	-4.4598080075	 6.6056176517	 0.0595789135	 0.305899
H	-0.6454528768	 3.7614032033	 0.9083936362	 0.179263
H	-0.6556391341	 3.7699287539	-0.8614059058	 0.179282
H	-3.2212275671	 3.169755334	 0.0352368067	 0.282122
H	-2.2106532831	 6.0076192879	 0.0437070496	 0.189352
21.0662	46.6152	115.7638	161.3474	224.5576	237.6537	316.9712	345.3641	370.2886	400.8934	482.7984	587.5766	602.4187	722.3492	744.3779	781.657	923.1235	951.6329	965.2112	1040.3231	1078.385	1131.4601	1138.4225	1249.4298	1296.1696	1329.8938	1359.5602	1414.5753	1436.884	1654.3474	1767.0662	1781.0034	1809.8515	3077.8382	3107.5848	3160.825	3191.9439	3601.6179	3728.9128
[O-]C(=O)C(=O)CNC=[NH2+]	O=C([O])C(=O)CNC=[NH2]	
InChI=1S/C4H6N2O3/c5-2-6-1-3(7)4(8)9/h2H,1H2,(H2,5,6)(H,8,9)	InChI=1S/C4H6N2O3/c5-2-6-1-3(7)4(8)9/h2,6H,1,5H2
