18
gdb 109275	3.14659	1.16933	0.9256	3.2397	74.67	-0.2297	0.0047	0.2344	1255.7691	0.148063	-439.072244	-439.06347	-439.062525	-439.106279	31.752	
O	 0.0911668291	 1.2875858595	-0.6557213873	-0.410137
C	-0.0031416124	-0.0561238079	-0.2349145217	-0.163868
C	-1.4025788931	-0.3680228203	 0.2162034451	 0.271583
C	-2.4142442789	 0.4939362494	 0.1444205719	-0.147993
C	-3.8234035988	 0.1593777781	 0.5842642135	-0.221719
N	-4.4197223332	-1.0827271121	 0.1010624485	-0.261784
C	-3.8137989274	-2.1563064114	-0.1568544966	 0.138251
O	-2.519126758	-2.5541367994	-0.0312838093	-0.219045
C	-1.6295131107	-1.7546424718	 0.7630764273	-0.184223
H	 0.9767150246	 1.4348710593	-0.9986640598	 0.292855
H	 0.2701521372	-0.7548731337	-1.0465293192	 0.104275
H	 0.6956969061	-0.2666573407	 0.5959906801	 0.094969
H	-2.2335672236	 1.4884575718	-0.250238531	 0.115247
H	-3.8894998983	 0.17345591	 1.6844769599	 0.120085
H	-4.4907873402	 0.9622595252	 0.2544133927	 0.118286
H	-4.3776427058	-2.991750133	-0.5745532757	 0.117729
H	-0.700951025	-2.3314220127	 0.7904965938	 0.113693
H	-2.0211997815	-1.7083921503	 1.7881492981	 0.121794
54.8283	105.1332	164.9033	197.3889	228.8192	246.7105	332.2893	347.2895	444.1829	495.4298	558.5121	697.663	774.6763	815.8825	846.9733	930.0981	944.7642	964.7013	989.1157	1017.6	1049.8325	1076.047	1105.258	1152.4575	1187.2916	1228.8301	1254.0917	1268.6795	1296.6754	1352.4717	1381.3372	1412.1743	1436.958	1460.9843	1480.701	1499.3948	1507.2177	1751.8622	1764.2239	2928.4672	2944.5272	2973.4103	3014.457	3057.1206	3091.449	3127.0612	3188.8348	3843.4919
OCC1=CCN=COC1	OCC1=CCN=COC1	
InChI=1S/C6H9NO2/c8-3-6-1-2-7-5-9-4-6/h1,5,8H,2-4H2	InChI=1S/C6H9NO2/c8-3-6-1-2-7-5-9-4-6/h1,5,8H,2-4H2
