21
gdb 73539	2.48602	1.89461	1.54986	1.6213	82.04	-0.2404	0.0912	0.3316	976.045	0.184628	-387.015987	-387.008429	-387.007485	-387.047666	31.152	
C	-0.1429358297	 1.5521490118	-0.1093639992	-0.484639
C	-0.0329964884	 0.0290090432	-0.0383639934	 0.33089
C	-1.4111692318	-0.5828949256	 0.2551290115	-0.156068
O	-1.4128444959	-0.8697020023	 1.6806642927	-0.288244
C	-0.1083826383	-0.7135978627	 2.2792298182	-0.20281
C	 0.7907751715	-0.6844384051	 1.0771268883	 0.296491
C	 2.0939646275	-0.1305235236	 0.4343152558	-0.325729
C	 1.1952645869	-0.6608502574	-0.7529149243	-0.127327
C	 0.9559412492	-1.9123668004	 0.1202231137	-0.254843
H	 0.8151764188	 2.063202792	-0.2177516072	 0.115887
H	-0.7536923356	 1.8299317324	-0.976345832	 0.118929
H	-0.6446566973	 1.9563859341	 0.7773439428	 0.125688
H	-2.2209378719	 0.1279097147	 0.0612008776	 0.095337
H	-1.6396803704	-1.5028905874	-0.2926362672	 0.100028
H	-0.0632573433	 0.2175513157	 2.8628712678	 0.094606
H	 0.0537284852	-1.5592403666	 2.9557912929	 0.104312
H	 2.2845675194	 0.9392058561	 0.5022263302	 0.100612
H	 3.006978578	-0.7008147692	 0.6220031399	 0.095042
H	 1.4517804124	-0.6330009851	-1.8141651385	 0.069646
H	 1.831221548	-2.5380528129	 0.3110467907	 0.087559
H	 0.0811116658	-2.5249646618	-0.0889733702	 0.104633
98.4071	194.3387	207.857	313.8878	377.9985	415.0002	457.8887	525.903	564.799	614.7241	708.7833	773.0246	797.1188	798.3089	869.9747	887.6259	927.0591	952.4123	962.4405	973.4043	1004.0339	1011.6174	1013.0447	1066.6178	1089.5007	1125.7177	1138.2052	1150.8132	1179.3364	1189.4266	1203.8128	1213.4048	1217.6555	1240.8596	1279.5866	1304.0726	1352.9962	1377.5641	1412.9498	1489.1286	1494.7624	1515.1457	1517.9374	1533.3529	1562.8755	2994.1442	3029.4248	3036.6087	3064.3412	3067.6618	3070.5556	3072.5498	3082.3035	3089.3997	3124.3906	3151.9858	3153.4221
CC12COCC11CC2C1	C[C@]12COC[C@@]31C[C@H]2C3	
InChI=1S/C8H12O/c1-7-4-9-5-8(7)2-6(7)3-8/h6H,2-5H2,1H3	InChI=1S/C8H12O/c1-7-4-9-5-8(7)2-6(7)3-8/h6H,2-5H2,1H3/t6-,7-,8+/m1/s1
