15
gdb 32170	3.01973	1.35051	0.94301	1.925	68.5	-0.2448	-0.0457	0.1991	1174.1336	0.11559	-450.188477	-450.180608	-450.179664	-450.22197	28.378	
N	 0.356563942	 1.0892253728	-0.7011242615	-0.49069
C	-0.1878178912	 0.3429545522	 0.417752431	-0.24567
C	-1.5094566992	-0.3747083785	 0.2082738143	 0.338052
N	-1.9958190154	-1.0591391342	 1.2572257743	-0.287944
C	-3.1522813603	-1.6694071988	 1.0263257209	 0.075519
N	-3.8369680866	-1.6549501127	-0.1171700054	-0.343954
C	-3.2489459935	-0.9412088123	-1.0807774996	 0.457808
O	-3.8656293067	-0.872548177	-2.2595472176	-0.378825
N	-2.0958383328	-0.2829051173	-0.9838746407	-0.320354
H	 0.4641743319	 0.4668307248	-1.4974526988	 0.235253
H	-0.3253847493	 1.7780116516	-1.0070890924	 0.235233
H	 0.5384955677	-0.4099664668	 0.7490365089	 0.140504
H	-0.3164015048	 1.0095035533	 1.2799169097	 0.1405
H	-3.5875813443	-2.2374923064	 1.8459775706	 0.132821
H	-4.6777659876	-1.3928671808	-2.1758130336	 0.311749
33.0457	154.2307	187.7465	191.8405	242.386	412.2664	446.3167	491.0393	597.0878	598.4202	626.6077	649.8131	801.4328	840.5785	918.4856	925.2328	1003.258	1023.8856	1025.0673	1145.5073	1184.1343	1185.1283	1239.7066	1299.373	1368.5176	1376.045	1387.5506	1433.5123	1463.861	1501.1732	1590.1639	1634.8021	1678.3547	3034.1694	3064.7291	3161.5928	3494.2855	3560.5926	3766.1528
NCC1=NC=NC(O)=N1	NCc1ncnc(O)n1	
InChI=1S/C4H6N4O/c5-1-3-6-2-7-4(9)8-3/h2H,1,5H2,(H,6,7,8,9)	InChI=1S/C4H6N4O/c5-1-3-6-2-7-4(9)8-3/h2H,1,5H2,(H,6,7,8,9)
