19
gdb 68173	3.33822	1.38542	1.17672	2.6809	74.63	-0.2367	-0.0088	0.2279	1072.5817	0.160235	-423.049503	-423.041578	-423.040634	-423.081884	31.513	
O	-0.0786219121	 1.4476365718	-0.0165785156	-0.484616
C	 0.0226488672	 0.0487202883	 0.043539142	 0.426323
C	 0.13221091	-0.6449919548	 1.4314014243	-0.290145
C	-0.7521264815	-1.7797975959	 0.81869213	-0.124144
C	-1.3129480964	-0.6990471489	-0.1571826022	-0.275944
C	 0.1670777047	-2.7270847297	 0.0796122298	 0.413834
O	 0.2277160149	-3.9119684981	 0.3037642115	-0.33078
C	 1.0271881611	-2.0573613531	-1.0026936122	-0.323237
C	 1.0968796703	-0.5126758833	-0.8999168738	-0.287423
H	 0.8078830158	 1.8226078646	 0.0291745302	 0.27667
H	 1.1233764868	-0.9069553071	 1.8141057203	 0.098085
H	-0.4231592524	-0.0871048788	 2.1886426108	 0.114585
H	-1.4351525024	-2.3252725668	 1.4680240948	 0.087653
H	-2.1323883744	-0.1467385938	 0.3079301957	 0.11884
H	-1.5991373308	-0.9971850473	-1.1694054544	 0.101079
H	 2.0143362947	-2.5252549406	-0.9906375191	 0.131974
H	 0.5735977807	-2.350522316	-1.9572393854	 0.139825
H	 0.966079812	-0.0547048912	-1.8856490841	 0.110662
H	 2.083263062	-0.2027743091	-0.5304073427	 0.096759
65.5124	165.663	250.3294	304.0269	331.5566	407.2244	420.4957	435.0715	467.6036	538.3862	600.2466	669.1063	723.8585	803.6145	866.3114	886.2642	914.2666	941.456	954.6185	973.4537	1016.9267	1040.3133	1049.7624	1086.2706	1150.1558	1167.609	1203.8099	1211.8529	1239.2985	1248.4632	1262.0543	1288.1146	1294.7136	1321.2643	1356.8616	1396.1278	1454.7335	1478.2125	1495.3375	1516.0693	1820.7768	3018.351	3042.6614	3050.537	3061.1122	3074.1743	3105.0673	3116.6652	3120.6832	3128.349	3799.529
OC12CC(C1)C(=O)CC2	O[C@@]12C[C@@H](C1)C(=O)CC2	
InChI=1S/C7H10O2/c8-6-1-2-7(9)3-5(6)4-7/h5,9H,1-4H2	InChI=1S/C7H10O2/c8-6-1-2-7(9)3-5(6)4-7/h5,9H,1-4H2/t5-,7-
