17
gdb 127107	2.67819	1.40336	1.04767	5.1944	70.71	-0.2277	-0.0005	0.2271	1154.6408	0.135557	-455.116272	-455.107602	-455.106657	-455.150108	31.848	
C	-0.0522072154	 1.5682222841	 0.210191264	-0.332155
N	-0.1176312814	 0.1359692675	-0.0541159554	-0.186872
C	 0.839701659	-0.6275366879	 0.7535002963	-0.342974
C	-1.4174365155	-0.4058321418	-0.0494834385	 0.04193
C	-2.5767125277	-0.0893144125	 0.5865676987	 0.018263
O	-3.5604520576	-0.9221875453	 0.2063167984	-0.180424
N	-3.0596399053	-1.8515882449	-0.7177908413	-0.221674
C	-1.8031730774	-1.5226013527	-0.860908381	 0.418802
O	-0.9874392356	-2.1864023454	-1.6956585648	-0.41543
H	 0.9612356369	 1.9275521387	 0.0069745146	 0.127189
H	-0.7476778596	 2.0937370476	-0.4484158842	 0.135578
H	-0.2960436672	 1.8249857085	 1.2558135101	 0.106872
H	 0.6558388752	-0.5226410706	 1.8356310229	 0.113651
H	 0.7761879273	-1.6884651031	 0.4991258429	 0.136633
H	 1.8544721575	-0.2788761202	 0.5381564243	 0.124938
H	-2.8560885233	 0.6793928741	 1.2897566359	 0.148859
H	-0.2009030599	-1.6323787262	-1.801951433	 0.306815
38.1457	152.9997	161.0491	247.1653	258.2661	296.4779	306.4081	372.3125	483.9644	492.2686	550.0413	593.3942	605.0912	748.6653	757.0584	830.4637	906.9872	929.5579	965.5115	1065.0615	1120.4437	1152.2232	1181.6583	1185.1369	1222.2559	1254.3515	1301.3601	1342.5091	1443.0954	1469.9659	1470.0779	1481.3873	1496.3221	1501.1212	1514.9575	1592.999	1684.499	2955.9441	2971.1866	3070.6029	3073.0341	3119.6177	3123.598	3264.7732	3748.5505
CN(C)C1=CON=C1O	CN(C)c1conc1O	
InChI=1S/C5H8N2O2/c1-7(2)4-3-9-6-5(4)8/h3H,1-2H3,(H,6,8)	InChI=1S/C5H8N2O2/c1-7(2)4-3-9-6-5(4)8/h3H,1-2H3,(H,6,8)
