16
gdb 29026	2.697	1.64405	1.02776	3.7068	85.85	-0.2397	-0.0857	0.1541	1110.3322	0.125292	-400.78824	-400.780336	-400.779392	-400.822093	29.123	
C	-0.0248175526	 1.5452141738	 0.1958166797	-0.46214
C	-0.0278586752	 0.0465100216	 0.1069678486	 0.149883
C	-1.1936546154	-0.6325789475	-0.0876501292	-0.14096
C	-1.4396648078	-2.0314366165	-0.2028169925	-0.070717
C	-0.5556833491	-3.0665599894	-0.1467114291	-0.01366
N	 0.7982574062	-3.0605985899	 0.033167175	-0.249729
C	 1.5499141356	-2.0257278352	 0.1938921872	-0.021722
C	 1.3108508188	-0.5579039936	 0.2487702299	 0.267398
O	 2.2921330292	 0.159081302	 0.4211374681	-0.34616
H	 0.6313008722	 1.9687334464	-0.5722193779	 0.152503
H	-1.0286852842	 1.9605236291	 0.0872797806	 0.115785
H	 0.4028601293	 1.8670146655	 1.1514711915	 0.152504
H	-2.0872304896	-0.0169635456	-0.1697790165	 0.107373
H	-2.4792199574	-2.3094601372	-0.3570454369	 0.108973
H	-0.9614940717	-4.0695196253	-0.2597141423	 0.117479
H	 2.6164716217	-2.2262948781	 0.3234907937	 0.133191
15.6327	147.9877	178.3971	322.4795	331.067	353.0082	367.5947	449.3767	508.0418	611.6441	666.5227	703.821	737.0099	835.3854	863.3052	946.6713	963.4663	996.8251	1006.5631	1006.5965	1064.0375	1117.2655	1164.4853	1277.0622	1309.4895	1407.5013	1411.2663	1426.3821	1460.5502	1462.7023	1489.2218	1557.9716	1653.7871	1658.56	1692.7714	3039.951	3092.5289	3105.5429	3131.9861	3141.2972	3149.7567	3171.4117
CC1=CC=CN=CC1=O	Cc1cccncc1=O	
InChI=1S/C7H7NO/c1-6-3-2-4-8-5-7(6)9/h2-5H,1H3	InChI=1S/C7H7NO/c1-6-3-2-4-8-5-7(6)9/h2-5H,1H3
