21
gdb 60963	2.97656	0.89622	0.74316	2.26	79.68	-0.2472	-0.0223	0.2249	1539.2812	0.180311	-424.225863	-424.215899	-424.214955	-424.261655	36.239	
C	 0.0799455924	 1.497644144	 0.1638075148	-0.414946
C	-0.0588152526	-0.0276216299	 0.0267900217	-0.082538
C	-1.524001996	-0.4056393022	-0.067529207	 0.171446
O	-2.0953640992	-1.1732630229	 0.6628014752	-0.254198
C	 0.6723353491	-0.5530305303	-1.2151932184	 0.035825
C	 2.2261830849	-0.4692041702	-1.2553381883	-0.291776
C	 2.2230052667	-1.8479517306	-1.9705063399	 0.168204
O	 3.2437389435	-2.7769902209	-1.7216884381	-0.430227
C	 0.7900745704	-2.0896965393	-1.4290067626	-0.294038
H	 1.1350657818	 1.7849297226	 0.1872898107	 0.131191
H	-0.3871621818	 2.013690263	-0.6828843955	 0.121519
H	-0.3914004528	 1.8602427778	 1.0820966532	 0.128669
H	 0.3421420204	-0.5238126034	 0.9181132339	 0.085869
H	-2.0636663061	 0.0932506415	-0.909758314	 0.066556
H	 0.2514688515	-0.080273389	-2.1110295196	 0.076677
H	 2.6989338475	 0.3771371468	-1.7583215211	 0.104941
H	 2.6473387962	-0.562041342	-0.2466165259	 0.093787
H	 2.2081366959	-1.7157752739	-3.0566442574	 0.095963
H	 3.2693325397	-2.9464611704	-0.7739163255	 0.276829
H	 0.8214360237	-2.6144125503	-0.4664041661	 0.101962
H	 0.0659077846	-2.5907922305	-2.0749784601	 0.108285
45.0943	70.9595	87.9284	167.1839	212.1203	276.707	285.7864	300.8996	352.6926	418.4194	443.3676	451.8633	511.7659	627.2884	780.0195	806.143	892.3065	921.1623	933.4475	957.2257	997.9629	1012.2252	1041.5885	1058.2113	1097.8849	1117.293	1153.5737	1161.3901	1203.0051	1215.9443	1256.4421	1264.0088	1282.5071	1295.5553	1321.7609	1340.0707	1382.082	1405.0399	1428.1095	1442.6322	1469.677	1496.2048	1497.669	1499.5947	1832.9457	2832.0618	3028.177	3033.588	3033.9738	3040.8694	3051.4649	3068.5667	3102.2312	3106.914	3112.5346	3114.5478	3806.6251
CC(C=O)C1CC(O)C1	C[C@@H](C=O)[C@H]1C[C@@H](O)C1	
InChI=1S/C7H12O2/c1-5(4-8)6-2-7(9)3-6/h4-7,9H,2-3H2,1H3	InChI=1S/C7H12O2/c1-5(4-8)6-2-7(9)3-6/h4-7,9H,2-3H2,1H3/t5-,6-,7+/m0/s1
