20
gdb 60937	3.59497	1.13009	1.00281	3.8529	80.87	-0.2397	0.0306	0.2703	1240.5763	0.171917	-403.118177	-403.109734	-403.10879	-403.15189	31.629	
C	 1.333093494	 0.1071110721	 0.8182684545	-0.353371
N	 0.0883827862	-0.0367859808	 0.0803049919	-0.063044
C	-0.9921059532	 0.7212042286	 0.4307093562	 0.144506
O	-1.0410205808	 1.4860297621	 1.3725876132	-0.344774
C	 0.1248499425	-0.8370222117	-1.1215087197	 0.068928
C	 0.3405043736	-2.3844988073	-1.0094074127	-0.060426
C	-1.1215974573	-2.4983308171	-0.4925813889	-0.222657
C	-1.1757552776	-1.488646208	-1.6805978253	-0.077018
C	-0.2380573024	-2.4637380994	-2.4493059205	-0.229314
H	 1.6528682139	-0.8531806253	 1.2373602592	 0.126581
H	 2.1313600919	 0.4817411464	 0.1650532844	 0.12176
H	 1.1622190075	 0.8189693407	 1.6256038613	 0.168642
H	-1.8480711519	 0.5560888247	-0.2478388818	 0.077657
H	 0.7617360559	-0.3558198209	-1.8762745045	 0.07662
H	 1.2245444563	-2.8949376037	-0.6258931765	 0.077422
H	-1.6170577316	-3.4581058246	-0.6569403189	 0.097495
H	-1.3283922803	-2.1088096923	 0.5045351273	 0.110558
H	-2.050246618	-0.9758597389	-2.0818319491	 0.083798
H	 0.3667661611	-2.0374156368	-3.2545480579	 0.095387
H	-0.6770621796	-3.4201868278	-2.739488232	 0.101249
51.8653	106.3254	139.7592	175.4973	307.3324	320.9283	372.0793	429.0446	438.8713	562.5059	771.2786	784.4496	809.6223	875.8082	895.5547	904.1242	909.0262	938.8439	1021.0919	1028.3862	1032.3163	1033.0302	1083.5511	1094.2445	1108.1865	1131.7598	1149.5873	1158.8004	1198.5855	1216.7916	1246.4976	1252.5568	1260.5678	1295.2364	1365.1315	1423.8806	1439.1351	1448.0273	1497.6418	1498.7643	1516.5133	1536.6203	1788.8121	2974.4959	3005.4832	3020.1786	3056.5763	3070.6672	3073.9556	3106.2409	3111.4734	3126.3397	3140.6612	3158.0708
CN(C=O)C1C2CC1C2	CN(C=O)[C@H]1[C@H]2C[C@@H]1C2	
InChI=1S/C7H11NO/c1-8(4-9)7-5-2-6(7)3-5/h4-7H,2-3H2,1H3	InChI=1S/C7H11NO/c1-8(4-9)7-5-2-6(7)3-5/h4-7H,2-3H2,1H3/t5-,6+,7-
