19
gdb 87435	4.45406	1.21533	1.12071	2.6526	81.17	-0.226	0.0782	0.3042	1146.7273	0.159814	-381.936348	-381.928827	-381.927883	-381.96819	30.039	
C	-0.0571191763	 1.5530604961	-0.1842974279	-0.391327
C	-0.0281642938	 0.0537013831	-0.0106727717	-0.114088
N	 1.3030921929	-0.6016341927	-0.1461530434	-0.404911
C	 0.6198995424	-0.6161348257	 1.1296202015	 0.461116
C	 1.1477464331	-0.2028909527	 2.4903228321	-0.123051
C	-0.100646851	-0.7771355975	 3.2330443843	-0.055296
C	 0.8253647586	-1.5933067033	 4.1255633736	-0.187558
N	 1.5786684773	-1.674888354	 2.8005266266	-0.159371
C	 0.2107819662	-1.7487415317	 2.0502287904	-0.145531
H	 0.8292758194	 2.007130441	 0.2662010619	 0.127048
H	-0.0706046986	 1.8217227179	-1.2459577444	 0.121778
H	-0.9474505563	 1.9849898904	 0.2857334212	 0.114674
H	-0.8749941183	-0.4753816967	-0.4485891075	 0.083236
H	 1.2263643773	-1.5014093244	-0.6145090952	 0.232005
H	 1.7835954468	 0.6312612949	 2.7877004302	 0.089183
H	-1.0458345442	-0.2670728055	 3.4478308061	 0.067596
H	 1.3815190193	-1.070734924	 4.9106309505	 0.102325
H	 0.473385776	-2.5647688868	 4.4881976556	 0.100382
H	-0.251731131	-2.7141097285	 1.8345953861	 0.081791
121.8554	156.4843	189.5444	241.8331	334.856	447.1606	472.4634	522.7025	600.114	716.9985	780.8214	820.9621	830.9565	832.1757	873.9533	898.6912	923.4148	929.8909	1015.4488	1030.6202	1038.2543	1049.7651	1057.126	1070.3194	1101.1384	1107.4957	1132.8773	1158.524	1170.2502	1187.2769	1222.4886	1240.5552	1257.7181	1272.6928	1285.7998	1371.7339	1412.9011	1482.8948	1493.648	1521.028	1534.2219	3033.3866	3033.7077	3047.4651	3094.4824	3096.327	3097.2761	3098.4351	3119.1164	3124.1619	3496.3873
CC1NC11C2C3CN2C13	C[C@H]1N[C@]21[C@H]1[C@@H]3CN1[C@H]23	
InChI=1S/C7H10N2/c1-3-7(8-3)5-4-2-9(5)6(4)7/h3-6,8H,2H2,1H3	InChI=1S/C7H10N2/c1-3-7(8-3)5-4-2-9(5)6(4)7/h3-6,8H,2H2,1H3/t3-,4-,5+,6-,7+/m1/s1
