16
gdb 83061	2.84312	1.51311	1.265	2.9821	76.69	-0.2156	0.0111	0.2267	1023.7566	0.124893	-396.876042	-396.867878	-396.866934	-396.908299	31.744	
N	 0.1795255791	 1.4024759111	-0.0764112583	-0.523838
C	 0.0173744683	-0.0117351661	 0.0078428029	-0.047738
C	-0.4432162389	-0.6593576382	 1.2769836668	-0.102801
N	-1.1997226573	 0.1991912933	 2.1484339121	-0.297332
C	-2.3756168543	 0.5235252865	 1.4829661012	 0.011854
N	-2.5185397442	 0.058364869	 0.2971135806	-0.276041
C	-1.3559182862	-0.7413492112	 0.0053984058	 0.128114
C	-1.5186956639	-1.9110420218	-0.7998217326	 0.213861
C	-1.6188123912	-2.8989626102	-1.4793589294	-0.385333
H	-0.3186814445	 1.7906432499	-0.8701716385	 0.243414
H	-0.1739742639	 1.8533531384	 0.7605713058	 0.240149
H	 0.7678006997	-0.5897605695	-0.525451284	 0.108922
H	 0.0837752472	-1.493235062	 1.723334516	 0.11484
H	-1.2141761598	 0.0179475495	 3.1407642216	 0.254775
H	-3.097317012	 1.1757427203	 1.9637197201	 0.130957
H	-1.7220013782	-3.767789669	-2.0804886101	 0.186197
133.8443	155.605	173.0811	247.4383	254.7125	414.1387	428.8961	475.1052	497.8297	559.2415	563.4672	596.6789	669.632	698.7267	736.6787	767.5772	822.805	898.2058	909.4179	943.6949	976.2028	1028.3727	1065.7509	1110.3925	1128.1486	1213.546	1260.1863	1277.0167	1314.9024	1364.1834	1404.9049	1454.4296	1637.7535	1659.5884	2234.041	3139.9376	3192.0049	3198.6182	3504.2651	3510.2794	3586.5904	3613.5808
NC1C2NC=NC12C#C	N[C@H]1[C@H]2NC=N[C@@]12C#C	
InChI=1S/C6H7N3/c1-2-6-4(7)5(6)8-3-9-6/h1,3-5H,7H2,(H,8,9)	InChI=1S/C6H7N3/c1-2-6-4(7)5(6)8-3-9-6/h1,3-5H,7H2,(H,8,9)/t4-,5+,6-/m0/s1
