16
gdb 106097	2.52482	1.71882	1.28059	4.1049	68.29	-0.2522	-0.001	0.2511	998.0181	0.124618	-437.837552	-437.829964	-437.82902	-437.87007	28.739	
O	-0.0553124344	 1.3739372332	-0.3874324478	-0.408292
C	 0.0225594639	 0.0540386268	 0.1137245729	-0.206917
C	-1.3309835826	-0.5578382229	 0.2675063729	 0.327029
C	-1.9590457584	-1.8710798164	 0.0761131576	-0.097674
C	-2.9350194514	-1.6559196281	 1.2374897879	-0.246702
C	-2.6487883118	-0.1366918823	 1.0439880609	-0.243713
C	-3.1759973501	 0.0873154727	-0.3624800675	 0.434785
O	-3.942649765	 0.8212613879	-0.899902204	-0.317383
N	-2.1974926936	-0.8118226687	-0.9778566489	-0.249319
H	-0.4720701884	 1.3245089912	-1.2559897373	 0.301486
H	 0.6305915349	-0.6013903138	-0.5280224776	 0.110749
H	 0.5213052179	 0.1238458736	 1.0859598384	 0.124836
H	-1.5369537667	-2.7958715128	-0.2962186605	 0.118699
H	-3.9712509863	-1.9890511371	 1.1250465393	 0.120174
H	-2.5156119583	-2.0372631057	 2.1711967811	 0.122543
H	-2.7707769496	 0.5924054523	 1.8390223926	 0.109699
77.5337	93.2167	205.7047	267.5603	353.7935	425.0749	453.5023	521.938	615.8283	643.4803	690.1328	739.4124	780.5814	871.8598	906.0272	942.8896	953.7613	978.305	994.1411	1066.5653	1080.4993	1095.7765	1120.0169	1137.0921	1141.7063	1208.3708	1227.1283	1261.1383	1284.9512	1369.0026	1411.0362	1450.9728	1489.7063	1499.0026	1921.0461	2995.4768	3056.4431	3077.9153	3119.0975	3175.8762	3201.8373	3795.3817
OCC12C3CC1C(=O)N23	OC[C@@]12[C@H]3C[C@@H]1C(=O)N23	
InChI=1S/C6H7NO2/c8-2-6-3-1-4(6)7(6)5(3)9/h3-4,8H,1-2H2	InChI=1S/C6H7NO2/c8-2-6-3-1-4(6)7(6)5(3)9/h3-4,8H,1-2H2/t3-,4-,6+,7?/m1/s1
