13
gdb 17018	5.54321	1.46057	1.4049	2.8933	60.75	-0.2565	-0.021	0.2355	865.5145	0.094817	-398.551043	-398.544442	-398.543498	-398.582129	24.158	
O	 0.0913951773	 0.0599643705	-0.5117429468	-0.302933
C	 0.0544894149	 1.2157723847	-0.1596561801	 0.136351
N	 1.0876009155	 1.8795354751	 0.4660074469	-0.085266
C	 2.5477467081	 1.6121918862	 0.1919428197	-0.154197
C	 2.4489514099	 2.6120688258	-1.0131627621	-0.233315
C	 1.5888259077	 3.2667598854	 0.1185399338	-0.174891
C	 2.7762150031	 2.8871978085	 1.0537714284	 0.489355
O	 3.4841448535	 3.3376635029	 1.88745872	-0.294097
H	-0.8557444993	 1.8446787452	-0.2172432035	 0.087365
H	 2.9722225927	 0.6144488991	 0.2335778263	 0.136815
H	 3.3584605361	 3.1272082976	-1.3319346043	 0.129489
H	 1.8655382738	 2.2253978966	-1.8492441554	 0.143482
H	 0.9382257365	 4.1371626723	 0.089289937	 0.121843
93.7925	173.115	189.9413	302.1961	444.4274	508.4614	615.4563	675.1014	745.1103	756.8593	820.743	869.4847	882.1293	977.9114	991.8691	1021.5993	1036.5309	1107.3678	1124.0714	1158.8953	1189.5948	1204.6118	1212.1257	1340.2412	1414.0555	1491.9711	1790.8324	1957.5465	2941.8327	3070.1576	3156.7165	3164.4532	3190.7447
O=CN1C2CC1C2=O	O=CN1[C@H]2C[C@@H]1C2=O	
InChI=1S/C5H5NO2/c7-2-6-3-1-4(6)5(3)8/h2-4H,1H2	InChI=1S/C5H5NO2/c7-2-6-3-1-4(6)5(3)8/h2-4H,1H2/t3-,4+
