15
gdb 127885	4.5676	1.1591	0.98545	3.1184	77.76	-0.2381	-0.0803	0.1578	1192.4965	0.110846	-446.209106	-446.200576	-446.199632	-446.242863	29.875	
C	-0.1904166948	 1.3665469264	-0.1824514217	-0.335963
N	-0.0860210814	-0.0808714894	-0.1631760117	-0.246832
C	 0.7979787927	-0.6600850442	-0.8556754304	 0.433853
N	 1.793622563	-0.0265844327	-1.6442176727	-0.204343
N	 2.1525483833	-0.6232297614	-2.6908541295	-0.039346
N	 1.5917850341	-1.8484467643	-2.9289453319	 0.008462
C	 2.1288301777	-2.5627461812	-4.083911962	-0.305179
N	 1.2659717567	-2.6522121946	-1.8518247548	-0.035939
N	 0.898653706	-2.077321196	-0.802885636	-0.173916
H	 0.5848876049	 1.8785590771	-0.7609014398	 0.139007
H	-1.1751788003	 1.6377442608	-0.5803687095	 0.138177
H	-0.1654464642	 1.722432315	 0.8533636749	 0.14095
H	 3.1324951797	-2.9502091744	-3.8860064824	 0.156166
H	 1.4552783662	-3.388684684	-4.310725019	 0.162968
H	 2.1620057964	-1.8672883369	-4.9219284235	 0.161934
79.8086	81.1276	111.9861	211.8377	223.6465	268.6783	353.4999	439.4283	462.8907	535.8661	585.2494	696.2964	721.477	771.6778	816.9289	862.4611	999.1873	1065.4303	1112.5948	1127.4691	1144.1619	1173.863	1233.5073	1293.0037	1430.1669	1446.5227	1482.6738	1486.8162	1488.8175	1491.2454	1514.4038	1604.1044	1748.7218	3023.0786	3058.6249	3082.6901	3103.5929	3144.4818	3177.5973
CN=C1N=NN(C)N=N1	CN=c1nnn(C)nn1	
InChI=1S/C3H6N6/c1-4-3-5-7-9(2)8-6-3/h1-2H3	InChI=1S/C3H6N6/c1-4-3-5-7-9(2)8-6-3/h1-2H3
