21
gdb 52787	2.19372	1.12671	0.85445	1.7374	87.73	-0.2415	0.039	0.2805	1460.2509	0.179756	-387.060808	-387.050265	-387.049321	-387.097642	38.033	
C	-0.4232785842	 1.1704848581	 0.48350113	-0.498717
C	-0.2282905233	-0.2519492146	 0.2413965351	-0.016869
C	-0.0801140623	-1.4309521671	 0.037318624	 0.092442
C	 0.1553684176	-2.8473358123	-0.2242451572	 0.251265
O	 0.9699777386	-3.0258546703	-1.3738803461	-0.465102
C	 0.5746645366	-3.6634964663	 1.0498641608	-0.289907
C	-0.8659822081	-4.2475883064	 1.1383942536	 0.038699
C	-1.7450008077	-3.6220941064	 2.2178725455	-0.395621
C	-1.1293748494	-3.7237282142	-0.3037661632	-0.273134
H	 0.1247584382	 1.5061392294	 1.3708171537	 0.148296
H	-0.0757526404	 1.7671875315	-0.3671097375	 0.150566
H	-1.4823837722	 1.4041425566	 0.6385637781	 0.151387
H	 1.6630022396	-2.357228214	-1.3489484231	 0.277217
H	 1.318679556	-4.4120288047	 0.7672712403	 0.104118
H	 0.9358561367	-3.0907853131	 1.9074209469	 0.095865
H	-0.8987612782	-5.3368235092	 1.2269229231	 0.069879
H	-1.7306030672	-2.528879242	 2.1556672259	 0.125098
H	-2.7856175489	-3.9499258958	 2.116355091	 0.110546
H	-1.4003762259	-3.9053715536	 3.2186934948	 0.110027
H	-2.0691142993	-3.1985871441	-0.486704864	 0.101864
H	-0.987339146	-4.4922154615	-1.0669138217	 0.112081
20.2383	62.7227	110.6114	125.0942	242.661	249.5781	256.0161	299.7149	320.4242	330.218	396.9226	402.1333	516.8467	549.2507	593.6267	750.4046	809.8757	833.5259	901.4054	905.4365	938.1968	1007.1272	1027.5075	1041.9073	1052.2663	1055.635	1072.1546	1137.7745	1143.3682	1214.7631	1219.8843	1262.5973	1274.2865	1287.614	1370.0083	1375.7949	1411.0809	1414.3811	1460.539	1476.9689	1478.7649	1482.5179	1497.7901	1501.6117	2358.1146	3025.1992	3026.6241	3054.7234	3060.5121	3070.3793	3087.4145	3088.3325	3090.0496	3102.2775	3122.3487	3128.2772	3808.1511
CC#CC1(O)CC(C)C1	CC#C[C@@]1(O)C[C@@H](C)C1	
InChI=1S/C8H12O/c1-3-4-8(9)5-7(2)6-8/h7,9H,5-6H2,1-2H3	InChI=1S/C8H12O/c1-3-4-8(9)5-7(2)6-8/h7,9H,5-6H2,1-2H3/t7-,8-
