17
gdb 64657	3.55735	1.20984	1.09736	2.0523	72.82	-0.2499	0.0183	0.2681	1120.558	0.136421	-417.941807	-417.933884	-417.93294	-417.97449	30.652	
O	-0.04138996	 1.3986126196	-0.1188077269	-0.481186
C	 0.047494095	 0.0015439631	 0.0079331012	 0.443939
C	 1.0643925359	-0.5301708832	-1.0272634007	-0.416818
C	 2.3751638297	 0.0777114471	-0.8057827093	 0.248319
N	 3.3833540006	 0.6008131098	-0.5897890344	-0.306502
C	-0.0104709869	-0.642172174	 1.4432209055	-0.105513
C	-1.4503906901	-0.0754683054	 1.5695637973	-0.203361
C	-1.3253495419	-0.7195935437	 0.1609440313	-0.091128
N	-0.6605075913	-1.8856189654	 0.8674398959	-0.322658
H	 0.8304791316	 1.7826681602	 0.0373717635	 0.298951
H	 1.1761665093	-1.6169202079	-1.0084389758	 0.147278
H	 0.7182687379	-0.2529901086	-2.0288927268	 0.166235
H	 0.7727556288	-0.6965984439	 2.2010010491	 0.093153
H	-2.088632744	-0.6293006311	 2.2563421794	 0.112922
H	-1.5666550727	 1.00298256	 1.6201768939	 0.124129
H	-2.0978275658	-0.8624927758	-0.596437346	 0.087618
H	-0.0231003161	-2.3842729808	 0.2435288526	 0.20462
62.4185	118.7351	229.3948	318.4074	347.7328	386.1052	407.3072	414.7159	473.1212	581.0396	613.4339	704.2611	800.6584	809.0617	872.2051	888.0743	914.2044	935.6032	974.7434	1026.7264	1051.6892	1062.3918	1080.2039	1140.9232	1165.1323	1172.5292	1176.3322	1209.5354	1237.2926	1272.7837	1278.3465	1290.1238	1302.131	1378.7489	1452.722	1484.326	2355.3374	3057.6806	3102.7477	3104.6444	3105.0652	3118.081	3202.0052	3426.4947	3776.5916
OC1(CC#N)C2CC1N2	O[C@@]1(CC#N)[C@H]2C[C@@H]1N2	
InChI=1S/C6H8N2O/c7-2-1-6(9)4-3-5(6)8-4/h4-5,8-9H,1,3H2	InChI=1S/C6H8N2O/c7-2-1-6(9)4-3-5(6)8-4/h4-5,8-9H,1,3H2/t4-,5+,6+
