16
gdb 105144	2.43822	1.20822	0.96574	2.8499	77.42	-0.2674	-0.0009	0.2665	1232.228	0.12234	-400.70923	-400.699934	-400.69899	-400.743545	33.703	
O	 0.0980960597	 1.3762782088	-0.4494011985	-0.410899
C	 0.019726363	 0.0879715434	 0.1212761288	-0.136754
C	-1.3888532372	-0.4965021304	 0.0410505061	 0.12255
C	-1.8570708674	-1.121616826	-1.253357721	-0.301083
C	-1.5906777433	-2.0217805647	-0.0680660846	-0.252795
C	-0.4590928107	-2.9011579931	-0.0382605423	 0.320904
C	 0.4773050445	-3.6550017928	-0.0086765152	-0.421525
C	-2.3577714643	 0.2250354484	 0.8260923413	 0.234184
N	-3.1021564869	 0.8386003423	 1.4657131008	-0.34228
H	-0.4025965186	 1.9841792495	 0.1059033731	 0.298897
H	 0.6967534749	-0.5514391898	-0.4494342093	 0.130033
H	 0.3569097813	 0.0803007437	 1.1673179433	 0.114458
H	-2.8884348842	-0.9777641335	-1.551066257	 0.146007
H	-1.1366407197	-1.1302312451	-2.0626200102	 0.148191
H	-2.4710257546	-2.3947920442	 0.4461430242	 0.142677
H	 1.3043518535	-4.3211213866	 0.0166102907	 0.207435
74.7675	105.816	119.731	152.73	240.3372	255.8319	313.2671	361.2204	406.4099	492.5359	521.7681	576.3694	610.2082	633.1402	665.8513	705.9575	805.5131	892.7333	934.5651	955.9511	989.6505	1068.5574	1081.1689	1089.7135	1133.3715	1182.5178	1276.6499	1300.0047	1389.1702	1397.2652	1418.3229	1477.5019	1502.1914	2239.6207	2344.7033	3010.438	3111.9061	3151.2315	3159.4885	3246.621	3501.163	3805.2049
OCC1(CC1C#C)C#N	OC[C@]1(C[C@H]1C#C)C#N	
InChI=1S/C7H7NO/c1-2-6-3-7(6,4-8)5-9/h1,6,9H,3,5H2	InChI=1S/C7H7NO/c1-2-6-3-7(6,4-8)5-9/h1,6,9H,3,5H2/t6-,7+/m1/s1
