13
gdb 129904	3.45892	1.78601	1.18535	3.2569	64.71	-0.2267	-0.0216	0.2051	940.0788	0.09252	-448.928938	-448.922263	-448.921318	-448.960111	25.129	
N	-0.0715492689	 1.4185867639	-0.0296271287	-0.605678
C	-0.0498833094	 0.0221438885	 0.0149885291	 0.197888
C	-1.0698060933	-0.9011222305	 0.1106798588	-0.092112
N	-0.6321017005	-2.2245293838	 0.1260230897	-0.393704
C	 0.65271577	-2.0737954083	 0.0388939311	 0.478424
O	 1.7547057017	-2.8764463548	-0.0055291174	-0.199344
C	 2.7867838266	-1.9877196672	-0.1010536508	 0.079915
N	 2.4608025081	-0.7358071127	-0.1212839857	-0.239941
N	 1.0900079012	-0.7950200625	-0.0311142427	-0.026872
H	 0.4207893672	 1.8451755834	 0.7483894835	 0.249303
H	 0.3159154068	 1.7911453147	-0.8903067884	 0.249307
H	-2.1220669024	-0.6691204998	 0.1705941597	 0.124251
H	 3.7844475128	-2.3899832107	-0.1518654482	 0.178562
130.6663	191.656	235.6664	264.6198	398.1399	574.8135	608.9179	634.1017	643.259	712.9618	735.9273	776.8619	815.4164	826.7906	857.836	952.3411	1087.3636	1111.4111	1165.0158	1205.464	1219.5327	1278.1309	1289.471	1363.4063	1422.0689	1569.0404	1600.9192	1641.7334	1666.5158	3259.7985	3304.3583	3500.1685	3567.0406
NC1=CN=C2OC=NN12	Nc1cnc2ocnn12	
InChI=1S/C4H4N4O/c5-3-1-6-4-8(3)7-2-9-4/h1-2H,5H2	InChI=1S/C4H4N4O/c5-3-1-6-4-8(3)7-2-9-4/h1-2H,5H2
