19
gdb 115260	3.34243	0.93147	0.75736	1.8273	88.82	-0.2225	-0.0135	0.209	1486.0137	0.158545	-385.871784	-385.862555	-385.86161	-385.906021	34.376	
O	-0.0197023849	 1.4514897705	-0.017392018	-0.422305
C	 0.0378966224	 0.0331124684	-0.039837963	-0.088302
C	-1.392141286	-0.4956228826	 0.0476601025	-0.006159
C	-1.4820765957	-2.0420641938	-0.0234899135	-0.249273
C	-2.6316088354	-2.4389637681	 0.9327171904	-0.320544
C	-2.7566930837	-1.2254156131	 1.8440650994	 0.190408
C	-2.0844575132	-0.1753425587	 1.3485924629	-0.173131
C	-3.5366150681	-1.2534568441	 3.0250936427	 0.201262
C	-4.2084070706	-1.3292010223	 4.0231539215	-0.415655
H	 0.8794841518	 1.7916763679	-0.0068872596	 0.28824
H	 0.507842208	-0.3337319814	-0.9670024723	 0.086208
H	 0.6234848759	-0.3585266795	 0.8075320249	 0.086232
H	-1.9473073242	-0.0311203151	-0.7815458261	 0.092126
H	-1.6313730496	-2.4095542968	-1.0416464009	 0.101719
H	-0.5418871303	-2.4721486018	 0.3415037902	 0.102881
H	-3.5753577229	-2.6041606922	 0.3968117467	 0.114566
H	-2.4254510242	-3.3581620019	 1.4896098217	 0.112593
H	-2.0503955515	 0.8103763069	 1.7948636059	 0.110307
H	-4.7986785779	-1.3763541024	 4.9042367046	 0.188827
80.4504	112.9683	121.3942	158.5724	220.7651	261.5968	305.7266	407.1213	474.2692	519.2418	542.0119	553.4528	590.4712	630.8074	635.792	833.8563	869.2004	897.544	906.8734	948.6379	974.8704	1026.9235	1075.3754	1083.6697	1111.892	1156.2149	1173.2101	1239.1907	1243.0105	1249.4878	1263.2844	1306.7347	1323.5767	1339.3795	1368.5744	1452.4366	1485.3098	1500.9224	1520.3325	1669.7725	2220.196	2960.2525	2982.2586	3000.9682	3024.3823	3037.0325	3075.9261	3099.6646	3220.6417	3504.0922	3832.9208
OCC1CCC(=C1)C#C	OC[C@H]1CCC(=C1)C#C	
InChI=1S/C8H10O/c1-2-7-3-4-8(5-7)6-9/h1,5,8-9H,3-4,6H2	InChI=1S/C8H10O/c1-2-7-3-4-8(5-7)6-9/h1,5,8-9H,3-4,6H2/t8-/m0/s1
