16
gdb 18229	3.82897	1.82174	1.55385	2.6029	63.84	-0.2386	-0.0274	0.2112	841.6837	0.131102	-383.731004	-383.724021	-383.723077	-383.762677	25.999	
O	-0.8037678295	 1.2151543774	-0.3518638453	-0.247138
C	 0.1875690447	 1.0504074521	 0.314095758	 0.154837
C	 1.4415572689	 1.8970500195	 0.2225033376	-0.123351
C	 1.5439327231	 2.7239428157	-1.0820932288	-0.110626
O	 2.1278436237	 3.9805130982	-0.7426539666	-0.254365
C	 1.8771662728	 4.2322679234	 0.6096524504	 0.12444
C	 0.4720298763	 4.1192465583	 1.1392883692	-0.329564
C	 1.4566582544	 2.9731205556	 1.3168757804	-0.09628
H	 0.2207221515	 0.2598150747	 1.096999815	 0.083365
H	 2.3127906482	 1.2477644267	 0.3683278606	 0.091478
H	 2.179459254	 2.2522420716	-1.8359136522	 0.115747
H	 0.5426526857	 2.8558477024	-1.5066636351	 0.129035
H	 2.5737182348	 4.949363133	 1.0278056494	 0.106411
H	 0.2280350847	 4.6968774577	 2.0241976761	 0.118353
H	-0.3504946528	 3.9944481158	 0.4432354686	 0.139348
H	 1.8138543094	 2.7089977279	 2.3045326427	 0.09831
63.983	129.9411	229.001	269.2182	368.4327	439.8998	612.4901	679.6696	709.8625	753.6208	801.881	855.9731	927.0765	957.2201	961.6924	989.036	1014.9147	1037.3329	1067.6576	1085.2465	1105.0553	1125.1442	1175.1611	1198.0151	1240.7671	1273.2069	1311.1638	1330.8696	1378.5631	1398.9701	1428.4508	1479.4739	1532.5067	1820.8525	2879.0242	3040.6537	3047.2045	3098.5864	3135.9516	3180.3734	3188.9872	3224.1259
O=CC1COC2CC12	O=C[C@H]1CO[C@H]2C[C@@H]12	
InChI=1S/C6H8O2/c7-2-4-3-8-6-1-5(4)6/h2,4-6H,1,3H2	InChI=1S/C6H8O2/c7-2-4-3-8-6-1-5(4)6/h2,4-6H,1,3H2/t4-,5-,6-/m0/s1
