19
gdb 80382	2.22528	1.61133	1.39577	2.1831	71.42	-0.2233	0.0656	0.289	1039.9723	0.156883	-460.126818	-460.117565	-460.116621	-460.159785	36.185	
C	-0.2136718968	 1.5800175462	-0.0489002975	-0.480907
C	 0.0429006736	 0.0828166357	-0.0010900428	 0.335812
O	-1.1786136932	-0.651543516	-0.1424928084	-0.497371
C	 1.1709260982	-0.5405735603	-0.8908971202	-0.276821
C	 1.7557209032	-1.253602153	 0.3350140136	-0.213893
C	 2.1344153132	-0.2376354869	 1.3847110077	 0.027601
O	 2.65866176	 1.0324028182	 1.090354267	-0.422928
C	 0.6969600098	-0.5354964639	 1.2416874413	 0.379999
O	-0.0565377283	-0.9505586324	 2.3111461015	-0.466405
H	 0.7175962487	 2.1298876784	 0.0932205704	 0.152481
H	-0.6421248596	 1.8674160753	-1.0185948361	 0.098791
H	-0.9188291328	 1.8698033301	 0.7365851278	 0.124304
H	-1.7111990047	-0.2232135435	-0.819594571	 0.281421
H	 0.7452659572	-1.2240751553	-1.6272641974	 0.10177
H	 1.8366595016	 0.1724517448	-1.386708089	 0.089119
H	 2.1474888622	-2.2636632379	 0.3537389716	 0.085598
H	 2.5476985288	-0.6915620231	 2.2869624409	 0.100484
H	 3.563418399	 0.9117985828	 0.7824038911	 0.28549
H	-0.8884381101	-1.2666564791	 1.9314711895	 0.295456
144.975	185.2432	193.7581	232.6297	260.113	280.8172	286.9152	311.0067	371.0398	414.444	461.1463	499.3112	541.6323	599.7012	661.6892	687.7341	789.532	853.1819	878.9803	900.8177	944.0365	974.6345	1004.9793	1031.8833	1085.9994	1104.0691	1129.6798	1182.491	1205.2306	1235.9028	1248.988	1268.2322	1299.9142	1315.8306	1381.2972	1404.7039	1407.7904	1470.2504	1487.3221	1504.1315	1528.0219	3018.1895	3052.148	3091.2086	3099.4977	3120.7533	3148.3025	3182.6243	3752.8297	3802.1193	3825.7821
CC1(O)CC2C(O)C12O	C[C@@]1(O)C[C@H]2[C@@H](O)[C@@]12O	
InChI=1S/C6H10O3/c1-5(8)2-3-4(7)6(3,5)9/h3-4,7-9H,2H2,1H3	InChI=1S/C6H10O3/c1-5(8)2-3-4(7)6(3,5)9/h3-4,7-9H,2H2,1H3/t3-,4+,5+,6+/m0/s1
