14
gdb 33648	3.3719	1.50742	1.40905	3.3903	71.01	-0.2596	-0.0328	0.2268	930.3589	0.102385	-399.513255	-399.506826	-399.505882	-399.544072	25.659	
N	-0.094268246	-1.1710756909	 0.0472345063	-0.353429
C	-0.0569939835	-0.0143565658	 0.0123658449	 0.149501
C	-0.0064402906	 1.4026827228	-0.0230903217	 0.182953
C	-0.6365571655	 2.4913432997	 0.7995918128	 0.052679
O	 0.5541504945	 3.1919480069	 1.0224512227	-0.283576
C	 1.2246839015	 2.3705388857	-0.0276742798	-0.015022
C	 1.1030563693	 3.1722529386	-1.2957879672	-0.100481
C	-0.1919029351	 3.2034840162	-1.6393803579	-0.054617
C	-0.9811540038	 2.3499526093	-0.7163155663	-0.189771
H	-1.3864491962	 2.4831697303	 1.5803368274	 0.140353
H	 2.196129978	 2.0240402474	 0.3154243968	 0.11136
H	 1.9064215123	 3.7607553714	-1.716710992	 0.119437
H	-0.641712048	 3.8166287475	-2.4093830064	 0.121978
H	-1.9764861868	 1.9917773609	-0.9467414397	 0.118637
134.5683	161.0999	394.2609	413.4382	503.218	513.6243	532.3664	617.724	694.1293	732.8208	762.0454	811.7502	824.86	887.9664	904.549	927.9315	964.1154	977.2718	1021.8603	1049.4989	1086.0579	1121.9606	1128.9256	1198.6873	1212.2229	1268.6649	1317.7183	1355.4968	1418.2763	1630.0073	2345.3865	3160.488	3202.4433	3209.5532	3216.6908	3240.2141
N#CC12C3OC1C=CC23	N#C[C@@]12[C@H]3O[C@@H]1C=C[C@@H]23	
InChI=1S/C7H5NO/c8-3-7-4-1-2-5(7)9-6(4)7/h1-2,4-6H	InChI=1S/C7H5NO/c8-3-7-4-1-2-5(7)9-6(4)7/h1-2,4-6H/t4-,5-,6+,7+/m1/s1
