19
gdb 13985	4.61789	1.25564	1.13839	0.8502	72.56	-0.2472	0.089	0.3362	1121.3218	0.165584	-365.008523	-365.000347	-364.999403	-365.041526	29.915	
C	 0.4569958869	 1.397031964	-0.0400965121	-0.219341
O	 0.8058170558	 0.0371582052	-0.1276638274	-0.23741
C	 0.0623862357	-0.6568540171	-1.1097189451	-0.163301
C	 0.456039117	-2.0995849152	-1.0785392705	 0.34073
C	 0.5428978234	-2.9879546068	 0.1733266572	-0.293829
C	 1.7390893748	-3.7501642601	-0.4903853827	-0.234366
C	 1.6052391615	-2.8339000915	-1.7145963734	-0.072293
N	 0.2610001761	-2.8966626014	-2.2835012695	-0.36997
H	 0.6425489824	 1.9294747315	-0.986602687	 0.104274
H	-0.6044711072	 1.5317173989	 0.2236086546	 0.102655
H	 1.0745892049	 1.8445128767	 0.742577043	 0.125503
H	-1.0200226424	-0.5523044181	-0.9108114578	 0.083578
H	 0.2475815561	-0.2492784492	-2.1159910029	 0.099715
H	 0.8497119253	-2.4287743957	 1.0585413214	 0.124102
H	-0.3572959711	-3.5663228377	 0.4095884085	 0.088784
H	 2.6741389812	-3.6075125728	 0.0559381621	 0.110846
H	 1.6067857745	-4.8200321335	-0.6851386357	 0.09511
H	 2.4059505085	-2.4697108448	-2.3484569759	 0.093512
H	-0.2045370633	-3.7842202225	-2.0990242368	 0.221701
83.1475	90.7095	126.708	229.391	255.3509	327.1014	338.2759	461.2338	474.2943	679.0304	763.1651	781.9003	823.4594	924.308	941.2422	952.4651	983.9556	994.3265	1051.6908	1068.2506	1099.5028	1136.0354	1160.0069	1176.5191	1193.2561	1210.6588	1224.228	1231.8146	1239.7589	1261.4343	1286.0665	1321.9193	1385.6996	1464.4473	1477.054	1483.1429	1485.3976	1499.3596	1503.3584	1521.167	2937.9267	2967.9589	2996.5503	3010.5723	3038.6611	3047.6421	3104.1237	3112.3905	3126.5386	3177.2066	3452.7455
COCC12CCC1N2	COC[C@]12CC[C@H]1N2	
InChI=1S/C6H11NO/c1-8-4-6-3-2-5(6)7-6/h5,7H,2-4H2,1H3	InChI=1S/C6H11NO/c1-8-4-6-3-2-5(6)7-6/h5,7H,2-4H2,1H3/t5-,6-/m1/s1
