21
gdb 118106	2.29741	1.13492	0.92534	0.8101	75.3	-0.253	0.0616	0.3146	1375.6594	0.179596	-461.32618	-461.315668	-461.314723	-461.362096	38.058	
C	 0.8714449628	 1.0119472506	 0.2309700444	-0.225602
O	 0.8154218868	-0.3578542763	-0.0866620125	-0.232139
C	-0.0065910323	-0.6299254401	-1.2006123035	-0.078063
C	 0.0235781745	-2.1335654532	-1.4975579918	 0.034412
O	-1.0396110643	-2.4620070808	-2.3834436977	-0.441287
C	 1.3493557373	-2.5953348225	-2.0823868695	 0.404998
O	 1.517742161	-2.147820373	-3.4137119686	-0.48326
C	 2.5850751516	-2.6481909535	-1.2393781089	-0.287749
C	 1.9321482009	-3.9319367171	-1.714435751	-0.345434
H	 1.285670826	 1.6066684205	-0.5983623417	 0.106311
H	-0.124134409	 1.414635538	 0.4765220744	 0.104294
H	 1.5208378736	 1.1209113303	 1.1031162003	 0.125403
H	-1.0493734835	-0.336869625	-1.0004117077	 0.090442
H	 0.3370133201	-0.0704630153	-2.0875276322	 0.091858
H	-0.1731245972	-2.6705799749	-0.5640508157	 0.095491
H	-0.8103005198	-2.0517770814	-3.2265905293	 0.273984
H	 1.2119784815	-2.853255301	-3.9932861058	 0.286805
H	 3.5084516446	-2.3531382719	-1.72402799	 0.118834
H	 2.5002183238	-2.3679058563	-0.1973649922	 0.132857
H	 1.4001674614	-4.5477877744	-0.9971684734	 0.118956
H	 2.43921223	-4.4849777128	-2.4984750776	 0.108892
55.9618	72.772	113.7314	171.0724	182.6614	213.6113	241.6042	265.165	314.9757	335.0674	419.1171	434.8694	522.0984	544.5053	582.7071	740.674	767.5578	893.2305	918.2101	940.1359	980.6439	995.8105	1026.5143	1047.6528	1067.0812	1073.5559	1111.379	1164.6416	1182.5214	1186.0802	1220.1153	1238.5611	1252.3502	1279.1448	1304.562	1346.5059	1372.3256	1414.7229	1432.4017	1458.2386	1479.8231	1485.1999	1498.4289	1502.2896	1528.1915	2957.6999	2972.9314	2999.6931	3015.1637	3070.1375	3112.4585	3127.6685	3151.765	3213.6167	3245.9363	3778.9324	3809.1478
COCC(O)C1(O)CC1	COC[C@@H](O)C1(O)CC1	
InChI=1S/C6H12O3/c1-9-4-5(7)6(8)2-3-6/h5,7-8H,2-4H2,1H3	InChI=1S/C6H12O3/c1-9-4-5(7)6(8)2-3-6/h5,7-8H,2-4H2,1H3/t5-/m1/s1
