14
gdb 133677	3.28436	0.95424	0.87052	1.2992	56.17	-0.2719	0.0401	0.3119	1277.6906	0.094628	-568.157236	-568.148028	-568.147084	-568.191965	32.786	
O	-0.0864481833	 1.4225461405	 0.0246448565	-0.41208
C	 0.0017297524	 0.0213313599	-0.012280859	-0.017252
C	 0.6587244462	-0.520684767	-1.3007132264	-0.405204
C	-0.0549825064	-0.1114679362	-2.5011350503	 0.301217
C	-0.655302851	 0.2210465304	-3.4866389038	-0.420351
C	 0.7591653226	-0.4760538397	 1.2236548163	 0.276427
F	 0.1414112495	-0.1303392023	 2.3523597971	-0.061273
F	 0.8944255012	-1.8108214811	 1.2183131136	-0.078468
F	 1.9972567829	 0.0594519046	 1.2549662453	-0.098416
H	 0.8085247149	 1.7809110726	-0.0129080951	 0.292827
H	-1.023212953	-0.3531442529	 0.0631985659	 0.132679
H	 1.6984045265	-0.1692084308	-1.338035511	 0.137388
H	 0.7057545908	-1.6136746181	-1.2412599653	 0.152176
H	-1.1814876435	 0.5165536901	-4.360339154	 0.200329
57.3345	75.2543	121.7491	211.3844	241.456	316.5002	335.7733	344.3221	394.373	421.0402	496.7598	570.1686	585.1093	628.1091	651.1084	700.0222	849.6073	884.0734	970.8134	1033.0327	1127.9303	1159.733	1189.2659	1224.8801	1271.0896	1311.8354	1338.676	1379.325	1434.1372	1472.7921	2247.3264	3025.8584	3071.7732	3092.6629	3506.2614	3795.4293
OC(CC#C)C(F)(F)F	O[C@@H](CC#C)C(F)(F)F	
InChI=1S/C5H5F3O/c1-2-3-4(9)5(6,7)8/h1,4,9H,3H2	InChI=1S/C5H5F3O/c1-2-3-4(9)5(6,7)8/h1,4,9H,3H2/t4-/m0/s1
