18
gdb 116684	2.89066	0.96351	0.7699	2.2601	85.12	-0.2263	0.0199	0.2461	1501.187	0.144289	-401.89221	-401.882327	-401.881383	-401.92776	35.307	
C	 0.1200625069	 1.3312171972	-0.1237750294	-0.248784
O	-0.2207173564	-0.0152305809	 0.1827442763	-0.197037
C	 0.6121262305	-0.6406282221	 1.0373968024	 0.095037
N	 0.3859099816	-1.8372103698	 1.3647259777	-0.294011
C	 1.2632016221	-2.5112843827	 2.2713213667	 0.227828
C	 0.5729671531	-3.5389262828	 3.1663184157	-0.299264
C	 1.4012245233	-4.0107061551	 2.014047763	-0.299264
C	 2.4081720115	-1.8187344177	 2.8107965558	 0.330691
C	 3.3532365406	-1.208741747	 3.2401936047	-0.526434
H	 1.10369678	 1.3976425455	-0.6045169604	 0.128156
H	-0.6411784224	 1.6901185553	-0.8174287971	 0.145121
H	 0.1139475032	 1.9618774521	 0.7736047525	 0.128156
H	 1.4547490221	-0.0371019264	 1.3959743526	 0.095235
H	 0.9621138052	-3.6590897518	 4.1700689159	 0.126355
H	-0.5051198474	-3.577334771	 3.0707433982	 0.133261
H	 0.8895670163	-4.3717691515	 1.1304632536	 0.133264
H	 2.3663614071	-4.4589444587	 2.2164896281	 0.126355
H	 4.1934506728	-0.6905455226	 3.6312013334	 0.195334
43.3142	93.0618	110.5606	157.0456	188.8738	197.1602	254.8415	305.042	419.6088	420.3031	506.9793	563.6687	566.9668	591.8547	661.7881	744.6146	787.9987	865.0664	934.441	945.5589	996.4115	997.8517	1058.5566	1067.3059	1083.8529	1166.9831	1177.7751	1199.0927	1252.2383	1288.7818	1302.9016	1410.1225	1451.6605	1482.594	1487.2801	1494.0992	1501.343	1763.6028	2221.539	3012.6418	3050.1218	3076.7749	3143.9326	3147.5465	3150.6314	3237.9866	3251.8128	3501.5796
COC=NC1(CC1)C#C	COC=NC1(CC1)C#C	
InChI=1S/C7H9NO/c1-3-7(4-5-7)8-6-9-2/h1,6H,4-5H2,2H3	InChI=1S/C7H9NO/c1-3-7(4-5-7)8-6-9-2/h1,6H,4-5H2,2H3
