17
gdb 5243	6.4654	1.03784	0.95806	2.1097	71.22	-0.1969	0.0461	0.2431	1203.2317	0.143552	-363.894426	-363.886404	-363.885459	-363.927615	29.21	
O	-0.0917624386	 1.4550556562	 0.1104755961	-0.418322
C	 0.0230152632	 0.0416910153	 0.0700784496	-0.059908
C	-1.386224149	-0.5344133857	-0.1034101451	-0.303053
C	-1.4135699087	-2.0286665575	-0.1319929158	 0.286856
C	-1.4645313719	-2.9179523647	-1.1845801688	-0.222712
C	-1.4259824938	-4.2362502574	-0.6501035997	-0.135082
C	-1.3520975322	-4.1201734261	 0.7173239762	-0.09984
N	-1.34159503	-2.780838117	 1.0198926935	-0.281073
H	 0.7925963557	 1.828338801	 0.165308003	 0.286614
H	 0.6560073319	-0.2929064005	-0.7656602343	 0.095739
H	 0.4738506608	-0.3508061104	 0.9964066243	 0.078296
H	-2.01681709	-0.1430244401	 0.7053760685	 0.1059
H	-1.8035991747	-0.1465993484	-1.0373811675	 0.122622
H	-1.5265531785	-2.6442970778	-2.2273504129	 0.086938
H	-1.4563561542	-5.1612164235	-1.2051979046	 0.089754
H	-1.31412399	-4.8659572001	 1.4949721354	 0.111615
H	-1.3130497499	-2.3997700933	 1.949713832	 0.255656
51.757	91.8885	115.7581	254.6568	321.9442	339.706	362.8284	484.6424	629.9845	665.6815	707.8572	751.8903	791.5782	798.0877	851.2185	896.4276	974.5929	1004.4326	1035.7234	1059.9756	1076.8821	1119.24	1144.9273	1208.646	1236.8252	1257.0429	1286.8148	1317.049	1337.8368	1439.1941	1451.1898	1459.6663	1486.7369	1501.4891	1525.9048	1616.9058	2964.3138	3002.0791	3028.9949	3091.8649	3237.8534	3251.0719	3270.5982	3676.3334	3832.0032
OCCC1=CC=CN1	OCCc1ccc[nH]1	
InChI=1S/C6H9NO/c8-5-3-6-2-1-4-7-6/h1-2,4,7-8H,3,5H2	InChI=1S/C6H9NO/c8-5-3-6-2-1-4-7-6/h1-2,4,7-8H,3,5H2
