16
gdb 24216	4.18819	1.60787	1.3919	1.9397	74.2	-0.2235	0.0276	0.2511	918.119	0.128482	-400.699104	-400.693261	-400.692317	-400.72912	24.819	
C	-0.0321190551	 1.5100709154	-0.0593356412	-0.17476
C	 1.5286393912	 1.3640417969	 0.0092714293	-0.208969
C	 1.1493946853	 0.1643475139	 0.9467724366	-0.17476
N	-0.0840021313	-0.0258170654	 0.0440519609	-0.23725
C	 0.6271285265	-0.3226030712	-1.1879890739	 0.287364
C	 0.6587126188	-1.1105981902	-2.2788713572	-0.205543
O	 1.7364990676	-0.7415723513	-3.0510171773	-0.171558
C	 2.3810291506	 0.2995463624	-2.415514823	-0.21225
C	 1.735695123	 0.5893431822	-1.2701246656	 0.281978
H	-0.4749253571	 1.9541329494	 0.8356546247	 0.111744
H	-0.4812836874	 1.9184131292	-0.9663773126	 0.118068
H	 2.1991011651	 2.1707619645	 0.3009463497	 0.079484
H	 1.8163241798	-0.6985204977	 0.9901318106	 0.118068
H	 0.8299688969	 0.467873471	 1.946830262	 0.111745
H	 0.0628191911	-1.9206539826	-2.6624541235	 0.141043
H	 3.248910815	 0.6774455137	-2.9293029096	 0.135596
177.2282	300.5059	446.054	503.8123	572.1107	587.1157	676.7443	702.0249	736.9781	750.7337	774.604	819.3723	831.7073	842.1507	899.6584	932.4843	995.6959	1021.5517	1026.5782	1026.6682	1094.1659	1095.4268	1121.3	1174.4709	1195.8824	1228.0116	1233.2283	1251.009	1259.4181	1294.0874	1383.4225	1490.6129	1524.622	1634.3639	1692.5657	3061.0729	3068.9875	3134.2377	3135.285	3139.2038	3275.3218	3286.7521
C1C2CN1C1=COC=C21	C1[C@H]2CN1c1cocc21	
InChI=1S/C7H7NO/c1-5-2-8(1)7-4-9-3-6(5)7/h3-5H,1-2H2	InChI=1S/C7H7NO/c1-5-2-8(1)7-4-9-3-6(5)7/h3-5H,1-2H2
