19
gdb 50375	2.95515	1.34215	1.14488	3.5278	74.92	-0.2402	-0.0238	0.2165	1116.0213	0.160699	-423.026435	-423.018627	-423.017682	-423.059567	29.632	
O	 0.712479187	-0.4382114425	-0.0194610436	-0.261441
C	 0.3610627091	 0.7155240436	-0.0107108393	 0.143685
C	 1.2981327628	 1.8949980002	-0.0247709003	-0.073841
C	 0.8795178642	 3.0634833586	-0.97235204	-0.26103
C	 0.8228697561	 4.0506788273	 0.2236028098	-0.026227
C	-0.5813747488	 4.4451183119	 0.692544863	-0.094679
O	-1.0954358955	 3.3023478504	 1.372488469	-0.248011
C	-0.0046517042	 2.7708451228	 2.1171684358	-0.108786
C	 1.2133290621	 2.8844018487	 1.195977656	-0.05443
H	-0.7181502372	 0.9872978983	 0.0011168516	 0.092713
H	 2.310288699	 1.5229442818	-0.1914082172	 0.091348
H	 1.6243007221	 3.2999762452	-1.7341655296	 0.112866
H	-0.0841274161	 2.9115753924	-1.4696000509	 0.108602
H	 1.5015908187	 4.9022255148	 0.162600228	 0.077016
H	-0.5306597226	 5.3067504701	 1.3780716891	 0.091049
H	-1.2705871126	 4.6874278248	-0.1213389421	 0.11221
H	 0.1652432317	 3.365854767	 3.0295827628	 0.093769
H	-0.2640929607	 1.751819642	 2.4161597035	 0.121922
H	 2.1489530249	 2.9738852826	 1.7487280042	 0.083264
61.176	68.7401	210.3615	277.6678	319.5348	374.343	421.7462	445.7907	623.1879	700.8132	754.272	803.255	840.894	873.9904	896.5894	942.0721	955.845	985.2424	1003.0505	1020.0336	1071.093	1084.2586	1113.9207	1133.3413	1170.3648	1182.8639	1207.8784	1234.2844	1255.7863	1274.3789	1282.6004	1304.3121	1326.7315	1333.4112	1352.8845	1398.3358	1432.6415	1476.9272	1499.7225	1514.3729	1821.3208	2887.7595	2969.1693	2975.5354	3050.8443	3088.7454	3092.7707	3093.7811	3100.2012	3108.6446	3121.185
O=CC1CC2COCC12	O=C[C@H]1C[C@H]2COC[C@@H]12	
InChI=1S/C7H10O2/c8-2-5-1-6-3-9-4-7(5)6/h2,5-7H,1,3-4H2	InChI=1S/C7H10O2/c8-2-5-1-6-3-9-4-7(5)6/h2,5-7H,1,3-4H2/t5-,6+,7+/m1/s1
