22
gdb 107942	3.80482	1.15415	1.06042	1.7864	85.93	-0.2273	0.0746	0.3019	1260.4159	0.193913	-367.161752	-367.152896	-367.151952	-367.195007	34.558	
C	-0.0782533424	 1.5146967371	-0.0818256535	-0.381452
C	-0.0366316114	-0.0175237368	-0.0069843161	-0.31125
C	 0.7135288788	-0.5271871134	 1.1983686809	 0.325244
C	 2.2330892122	-0.34617541	 1.3918393103	-0.187617
N	 2.2714909278	-1.5823587343	 2.237379491	-0.185828
C	 0.9886997101	-2.0307530568	 1.616128124	-0.175291
C	 0.9792871265	-1.5604624901	 3.0227171915	 0.354864
C	 0.9454635374	-2.3248788161	 4.3077991351	-0.496185
C	 0.201070695	-0.2969782594	 2.65208484	-0.329893
H	 0.9311512832	 1.9371720938	-0.12786756	 0.12114
H	-0.6201952682	 1.8504586248	-0.9708011521	 0.114637
H	-0.5769600159	 1.9416925693	 0.7945346296	 0.121599
H	-1.0608308272	-0.4128575504	 0.0077000585	 0.09686
H	 0.4316740648	-0.4164362358	-0.9166591178	 0.097655
H	 2.8104463425	-0.5338346075	 0.4811658636	 0.100843
H	 2.5955202517	 0.5682048627	 1.8780387726	 0.090568
H	 0.8429544045	-2.9957499481	 1.146143912	 0.088571
H	 1.5343445045	-3.2421125794	 4.2225065936	 0.132488
H	 1.3658784569	-1.7312955721	 5.1276856068	 0.121932
H	-0.0815347769	-2.5937982639	 4.5778845842	 0.114973
H	 0.4602322421	 0.6495387825	 3.141613492	 0.088556
H	-0.8760237258	-0.4724067561	 2.7356158438	 0.097588
74.5687	144.2925	183.7628	199.1547	244.5727	283.3278	356.6502	360.4638	453.0946	469.1544	588.0526	637.0404	714.3742	750.432	791.5421	836.5665	891.4845	909.9286	947.5594	956.0148	980.6927	1002.282	1007.4874	1023.5755	1032.7089	1076.0302	1104.48	1139.714	1157.276	1166.5814	1192.1101	1213.9748	1258.5333	1273.008	1316.9647	1338.1682	1379.8573	1394.4917	1408.2751	1433.6892	1484.8526	1485.9301	1491.3834	1494.6958	1498.7472	1507.4052	1516.5631	3012.8072	3019.3325	3027.5796	3031.1898	3035.4193	3043.4005	3084.5239	3088.1065	3090.3798	3101.9837	3107.6674	3116.3072	3187.6765
CCC12CN3C1C3(C)C2	CC[C@]12CN3[C@H]1[C@]3(C)C2	
InChI=1S/C8H13N/c1-3-8-4-7(2)6(8)9(7)5-8/h6H,3-5H2,1-2H3	InChI=1S/C8H13N/c1-3-8-4-7(2)6(8)9(7)5-8/h6H,3-5H2,1-2H3/t6-,7-,8-,9?/m0/s1
