19
gdb 13792	4.01291	1.2037	1.09413	3.745	73.56	-0.2387	-0.016	0.2226	1180.4813	0.163748	-365.061584	-365.052402	-365.051458	-365.095965	32.632	
C	 0.6228050772	 1.7470694455	 0.1879611487	-0.378435
C	-0.1300384994	 0.4217900476	 0.0217896528	-0.191922
C	 0.3147543721	-0.31372097	-1.2213973987	 0.007819
N	 1.5482330927	-1.0851395632	-1.1337905358	-0.30961
C	 0.288400173	-1.8148079976	-1.3712115726	-0.156582
C	-0.2119718076	-2.7242367092	-0.2824584933	 0.409668
C	-1.1645383778	-3.8138115789	-0.7439558505	-0.485656
O	 0.0994369922	-2.5925008923	 0.8791229281	-0.303175
H	 1.6990625962	 1.5677786532	 0.2715801068	 0.130998
H	 0.4570381566	 2.4153985864	-0.665133389	 0.105012
H	 0.2960851137	 2.2728347563	 1.089959313	 0.114304
H	 0.0399220796	-0.2206039874	 0.8882309793	 0.144957
H	-1.2096898092	 0.6090744861	-0.0438764856	 0.090297
H	 0.1322271522	 0.2239930298	-2.1537504769	 0.084559
H	 2.0779856595	-1.0356012852	-1.9999092216	 0.235463
H	 0.0972351855	-2.1766577295	-2.3799951883	 0.08184
H	-0.6523261585	-4.495923725	-1.4331173386	 0.139712
H	-1.5327643399	-4.3728700866	 0.1165930176	 0.142986
H	-2.007167208	-3.3805587501	-1.2953290453	 0.137765
51.7221	85.5329	136.7	145.5834	200.3547	243.2677	266.062	358.5924	416.6586	463.4033	606.0994	629.7273	754.3405	779.3023	838.512	876.9966	917.4045	956.2627	966.6976	1030.6322	1041.2046	1055.8521	1098.6663	1142.5083	1184.4694	1193.5615	1229.1295	1256.4563	1310.1164	1346.9235	1377.587	1405.6817	1426.7797	1462.5396	1470.5955	1476.0402	1485.3408	1498.6375	1508.4234	1808.8477	3028.8885	3030.7162	3031.1962	3083.7498	3090.0389	3092.1682	3112.7331	3119.5887	3125.0288	3154.6093	3504.9862
CCC1NC1C(C)=O	CC[C@H]1N[C@H]1C(=O)C	
InChI=1S/C6H11NO/c1-3-5-6(7-5)4(2)8/h5-7H,3H2,1-2H3	InChI=1S/C6H11NO/c1-3-5-6(7-5)4(2)8/h5-7H,3H2,1-2H3/t5-,6+/m1/s1
