16
gdb 73248	2.33505	1.91903	1.39319	2.4143	64.38	-0.2542	0.0095	0.2638	946.6173	0.125838	-475.042551	-475.035038	-475.034093	-475.074525	28.824	
O	 0.1546047702	 1.3735885535	-0.125932114	-0.473895
C	 0.0267950184	-0.0079612533	-0.0446739188	 0.250236
C	 0.1756519005	-0.8425713532	-1.3394342846	-0.128782
O	-1.0562506773	-1.5436403076	-1.0562716815	-0.291885
C	-1.3601357877	-0.6856848306	 0.0619741986	 0.071529
C	-1.3805872253	-1.4643120613	 1.3850358941	-0.192536
N	 0.0202138954	-1.4536486838	 1.7981695505	-0.316261
C	 0.8078577332	-0.5518522023	 1.1542059278	 0.35129
O	 1.9209764279	-0.1755732253	 1.4664242906	-0.400818
H	 0.9970038997	 1.5872251385	 0.3031234118	 0.296095
H	 0.0997469011	-0.216028419	-2.2362338329	 0.114457
H	 1.0329652137	-1.5190856683	-1.4233110346	 0.116457
H	-2.2504176066	-0.0739409748	-0.1059213806	 0.096282
H	-2.0190498614	-0.9783309593	 2.1339697128	 0.116029
H	-1.7471065561	-2.4810349484	 1.2142329342	 0.133621
H	 0.3351487742	-1.8684698949	 2.6619804067	 0.258181
96.7007	172.8611	221.8785	282.3931	300.15	410.5242	440.8248	506.7746	540.9657	605.5336	674.3836	742.6791	767.0949	808.1056	866.4755	925.7778	1000.1904	1011.7304	1057.4283	1067.6971	1081.5254	1121.9415	1154.7329	1178.5644	1234.156	1262.7215	1290.4404	1311.7637	1349.7552	1386.7378	1421.9893	1449.8944	1513.5975	1518.2113	1817.7402	3020.9619	3024.5521	3079.6916	3082.4139	3085.4636	3629.0262	3720.4863
OC12COC1CNC2=O	O[C@]12CO[C@H]1CNC2=O	
InChI=1S/C5H7NO3/c7-4-5(8)2-9-3(5)1-6-4/h3,8H,1-2H2,(H,6,7)	InChI=1S/C5H7NO3/c7-4-5(8)2-9-3(5)1-6-4/h3,8H,1-2H2,(H,6,7)/t3-,5+/m0/s1
