21
gdb 64147	2.79723	1.2005	1.07011	2.4569	78.15	-0.2425	-0.0271	0.2155	1233.1603	0.180725	-424.248778	-424.239253	-424.238309	-424.283376	35.3	
C	-0.3734459441	 1.4396483257	-0.0816824425	-0.449369
C	 0.1086094894	-0.0134236844	-0.0659573548	 0.284916
C	-1.0827786128	-0.9771154811	-0.2003322412	-0.424352
C	 1.1476931312	-0.2997327507	-1.1669444475	-0.091849
O	 1.874908867	-1.4448168497	-0.7346785055	-0.276897
C	 1.9224312268	-1.441916584	 0.6922521869	 0.024841
C	 0.9540455115	-0.3487912588	 1.1876825897	-0.284988
C	 1.5812646229	-2.8477331639	 1.1682835591	 0.137419
O	 1.1597463542	-3.1101917571	 2.2645348785	-0.243636
H	 0.4638916658	 2.1394333539	 0.0119724675	 0.113113
H	-0.9026681902	 1.6704119962	-1.0129854795	 0.116095
H	-1.0654470354	 1.6322049694	 0.7447775837	 0.120933
H	-1.6571080396	-0.7615083533	-1.1078909791	 0.113181
H	-0.7530086624	-2.0190729154	-0.2581538223	 0.124492
H	-1.7592183179	-0.8862374157	 0.655421451	 0.118672
H	 0.7031106057	-0.5346579056	-2.1388834463	 0.108338
H	 1.8246008593	 0.5606952978	-1.293325177	 0.084938
H	 2.9523576056	-1.2396065395	 1.0305295108	 0.101342
H	 1.5121647408	 0.5323858156	 1.5161776691	 0.100784
H	 0.3618584681	-0.7072944214	 2.0328952234	 0.128855
H	 1.7667963141	-3.629272908	 0.3985083261	 0.093174
53.6375	84.2562	145.5962	209.4618	223.9056	252.6808	316.0863	333.2604	369.8502	397.8598	417.2925	564.3101	583.2233	693.8783	782.3535	835.9774	886.1768	927.5984	941.265	952.7496	980.9535	992.7406	1034.3778	1058.525	1081.2792	1107.1602	1158.5782	1219.3351	1225.2502	1245.8	1288.6974	1312.8766	1315.6375	1347.7622	1384.4513	1398.4986	1402.0046	1424.6947	1483.2582	1487.6135	1498.205	1503.772	1508.3595	1520.5761	1833.3748	2896.0416	2963.1841	2973.0342	3026.0124	3031.924	3062.1691	3079.6335	3092.8291	3098.6701	3099.5229	3106.2414	3114.7372
CC1(C)COC(C1)C=O	CC1(C)CO[C@@H](C1)C=O	
InChI=1S/C7H12O2/c1-7(2)3-6(4-8)9-5-7/h4,6H,3,5H2,1-2H3	InChI=1S/C7H12O2/c1-7(2)3-6(4-8)9-5-7/h4,6H,3,5H2,1-2H3/t6-/m0/s1
