20
gdb 121903	2.04929	1.28596	1.23078	4.1333	70.32	-0.2465	0.0189	0.2654	1183.0532	0.172119	-477.457662	-477.448217	-477.447273	-477.492283	34.982	
N	 0.3160357237	 2.2536610681	 2.0104537602	-0.515987
H	 0.863998623	 2.1177098675	 1.1661447362	 0.243951
H	 1.2592955319	 1.4177098969	 3.3488656594	 0.295236
H	 0.1440085555	 3.2505297228	 2.0909179995	 0.251524
C	-0.9576457462	 1.5021368228	 1.9148211259	-0.174366
C	-0.7512999212	 0.0430850544	 2.3458332564	-0.190247
C	-0.7556170049	-0.2205538011	 3.8648915931	-0.219385
C	 0.1555872288	 0.6663698885	 4.7332136928	-0.02584
O	 1.4408396024	 0.9352506994	 4.192907313	-0.454989
C	-0.526914637	 1.9884337313	 5.1526708331	 0.392374
O	-1.7121533991	 2.1314599517	 5.3055669727	-0.342175
O	 0.3522838883	 2.9807604376	 5.3720324072	-0.371788
H	-1.6857409621	 1.9871026765	 2.5713212317	 0.146652
H	-1.3678892494	 1.5346615864	 0.8965090943	 0.096423
H	-1.5433726515	-0.5716449424	 1.9039423557	 0.104853
H	 0.1892589362	-0.3164717402	 1.9090836013	 0.102523
H	-1.770272514	-0.09785011	 4.2568238633	 0.133411
H	-0.4728585632	-1.2661070639	 4.0239609428	 0.101608
H	 0.3341447335	 0.1351183994	 5.6779835673	 0.121621
H	 1.2226235452	 2.6078884245	 5.1309789742	 0.304602
66.7852	84.2912	106.7201	215.8268	229.4691	258.9523	322.144	337.556	357.9519	459.1335	503.6013	532.0315	599.0198	736.5914	741.4436	789.8605	817.0893	882.6587	909.0479	928.8942	991.1057	1006.7326	1016.6014	1049.6215	1094.6814	1142.9895	1169.064	1209.975	1248.1523	1271.4854	1314.4929	1333.5717	1348.9105	1384.9126	1391.8612	1406.0084	1419.6004	1478.0954	1486.9341	1511.0532	1524.1398	1651.0098	1857.8594	3007.3989	3022.1092	3027.8746	3051.0577	3069.6104	3095.3138	3099.6957	3315.3285	3500.2157	3579.8954	3594.876
[NH3+]CCCC(O)C([O-])=O	NCCC[C@@H](O)C(=O)O	
InChI=1S/C5H11NO3/c6-3-1-2-4(7)5(8)9/h4,7H,1-3,6H2,(H,8,9)	InChI=1S/C5H11NO3/c6-3-1-2-4(7)5(8)9/h4,7H,1-3,6H2,(H,8,9)/t4-/m1/s1
