23
gdb 105523	1.79757	1.69646	1.14791	0.4244	81.08	-0.236	0.0651	0.3011	1215.1592	0.203575	-425.406215	-425.395874	-425.394929	-425.440939	38.878	
C	 0.6398140008	 0.3820825929	 1.3202194056	-0.256598
O	-0.0326343497	 0.321091307	 0.0791837625	-0.294987
C	-1.0803673761	-0.632550542	-0.01298626	 0.433258
C	-1.4508034838	-0.8875274995	-1.4989094193	-0.288029
C	-1.3467642343	-2.4161941359	-1.2515024674	-0.209065
C	-0.6559600094	-2.1315029709	 0.1092151422	-0.2733
C	-2.2704593817	-0.2449549384	 0.8930894764	 0.063904
C	-2.7640227695	 1.1789225575	 0.6449031505	-0.412904
O	-3.3307223226	-1.194036703	 0.7862464692	-0.437924
H	 1.5261829745	 1.0035761907	 1.168481816	 0.125598
H	 0.0304793453	 0.839274734	 2.1129400174	 0.108333
H	 0.9635591708	-0.6108980271	 1.662711949	 0.111
H	-2.4071767734	-0.4954035008	-1.8584953169	 0.080002
H	-0.6591366043	-0.503408869	-2.1453644511	 0.114542
H	-2.3217907825	-2.8888113497	-1.122801558	 0.105274
H	-0.7719180545	-2.9880385587	-1.9828268444	 0.096106
H	 0.4309097448	-2.2322693151	 0.0525537417	 0.100546
H	-1.0297478502	-2.6811037605	 0.9750876745	 0.1054
H	-1.9418929218	-0.334668544	 1.9356978201	 0.083685
H	-1.9605867015	 1.9050481327	 0.7869565271	 0.133266
H	-3.1282482943	 1.2926517561	-0.3835733574	 0.110998
H	-3.5863921718	 1.4142292898	 1.3259200122	 0.119129
H	-3.7919257251	-1.024931376	-0.04225867	 0.281765
94.8599	115.1843	133.7956	185.8048	210.8335	213.9698	253.7752	267.0961	316.8524	331.178	417.8663	453.2683	454.5475	556.7113	609.5888	708.8998	781.7783	836.8875	873.3813	916.6432	947.246	963.8594	984.7998	1043.0596	1062.2981	1086.7755	1096.5696	1140.9431	1169.3951	1182.1601	1195.5799	1212.6483	1229.2255	1253.7136	1270.8447	1284.5162	1299.4946	1307.5488	1363.5748	1400.1243	1427.7831	1458.582	1473.628	1477.8008	1488.9472	1493.6611	1498.212	1499.3628	1509.6379	2988.7597	3029.4935	3034.9979	3043.5911	3052.1952	3063.716	3073.8716	3102.1363	3107.8235	3108.6763	3120.6049	3133.7924	3135.2551	3809.3845
COC1(CCC1)C(C)O	COC1(CCC1)[C@@H](C)O	
InChI=1S/C7H14O2/c1-6(8)7(9-2)4-3-5-7/h6,8H,3-5H2,1-2H3	InChI=1S/C7H14O2/c1-6(8)7(9-2)4-3-5-7/h6,8H,3-5H2,1-2H3/t6-/m1/s1
