19
gdb 39750	3.19039	1.64219	1.46244	2.5195	77.66	-0.2283	0.0762	0.3045	967.2676	0.162594	-382.009226	-382.002364	-382.00142	-382.040264	28.372	
C	 0.008473085	 1.5439824216	 0.012293783	-0.321415
N	 1.2194200667	 0.6914833906	 0.0720137569	-0.379904
C	-0.0963910072	 0.0692247299	 0.0245075578	 0.401088
C	-0.5314597331	-0.9218684039	 1.0675902764	-0.126415
C	-1.8747763288	-1.4779286059	 0.7490120274	-0.023938
C	-2.818023082	-0.7146968726	-0.1758087359	-0.249442
C	-2.0149483568	-0.6340803174	-1.5000825862	-0.207803
C	-0.5874949078	-0.9189901977	-1.0423643737	-0.106113
N	-0.6983097061	-2.015267844	 0.0244023527	-0.147902
H	-0.1867126953	 2.1206891853	 0.9126878254	 0.119164
H	-0.2162914377	 2.0661209265	-0.9152898853	 0.10986
H	 1.6650048141	 0.6511215222	-0.8422333186	 0.229902
H	-0.0193222955	-1.0988280417	 2.0082992658	 0.099927
H	-2.2946812043	-2.1699812719	 1.4728303344	 0.093674
H	-3.7604513637	-1.2537285502	-0.3029453503	 0.106859
H	-3.0594500691	 0.2766186338	 0.2190460217	 0.111969
H	-2.3423079545	-1.4089513404	-2.2009834606	 0.110228
H	-2.1093906662	 0.3336512445	-2.0011846995	 0.102171
H	 0.1225579624	-1.1723701488	-1.8321489314	 0.07809
127.5133	212.6836	253.1354	312.481	409.5524	502.5411	562.4561	649.6417	717.4898	756.204	796.4828	837.268	840.8215	878.5534	900.9919	914.8659	925.5692	966.9808	973.2255	985.26	1027.1883	1051.138	1057.6061	1087.2327	1095.4988	1129.8853	1152.4381	1180.5868	1217.5512	1254.1136	1258.7264	1270.7678	1273.4249	1309.7312	1324.4293	1333.2163	1393.8724	1444.4662	1481.3201	1502.5676	1516.4796	3047.9455	3057.6499	3088.6556	3095.0516	3098.8985	3105.0642	3155.4212	3167.0428	3182.8042	3486.2233
C1NC11C2C3CCC1N23	C1N[C@]21[C@H]1[C@H]3CC[C@@H]2N13	
InChI=1S/C7H10N2/c1-2-5-7(3-8-7)6-4(1)9(5)6/h4-6,8H,1-3H2	InChI=1S/C7H10N2/c1-2-5-7(3-8-7)6-4(1)9(5)6/h4-6,8H,1-3H2/t4-,5+,6-,7+,9?/m1/s1
