17
gdb 20536	4.45056	1.4773	1.22208	4.9124	69.42	-0.2494	0.0033	0.2527	1005.2965	0.143443	-360.053494	-360.045669	-360.044725	-360.08634	28.544	
C	 0.1922718436	 1.2722022162	-0.4813288744	-0.379867
C	 0.03923965	-0.1212705265	 0.1618086205	-0.100233
C	 0.6173982671	-0.1388520159	 1.5832721953	-0.389253
C	-1.3937939278	-0.5711954501	 0.1532480164	 0.365294
C	-2.3417993355	-0.7556425989	 1.1359643378	-0.159919
N	-3.5118272904	-1.164760141	 0.566945235	-0.190068
N	-3.3516001526	-1.2490040578	-0.7199518595	-0.118922
N	-2.0759346717	-0.8910186287	-0.9772697635	-0.24971
H	 1.2461312736	 1.5660549866	-0.5099970416	 0.120354
H	-0.1902659048	 1.2910562538	-1.5065414072	 0.111151
H	-0.3581786967	 2.0238834628	 0.0932783074	 0.130988
H	 0.6167743282	-0.8334557677	-0.4447930756	 0.091583
H	 0.0926370655	 0.5743715309	 2.2276272224	 0.127272
H	 0.5346495889	-1.130772706	 2.0359553587	 0.127944
H	 1.6740635622	 0.1429424044	 1.5663357193	 0.118262
H	-2.2517631165	-0.623947156	 2.2015332327	 0.120044
H	-1.7489077931	-0.8986865263	-1.9304192238	 0.275079
33.4718	156.1523	197.7305	233.1046	268.9358	322.0648	415.8928	459.639	579.3815	630.4143	721.6891	729.4842	849.8727	887.0345	931.4206	967.5076	996.2413	1048.1168	1067.9477	1104.6848	1123.4541	1143.367	1179.8758	1223.3096	1325.7889	1335.9336	1340.5339	1391.8754	1405.0568	1422.476	1431.8159	1485.9984	1492.1494	1502.3488	1510.7418	1602.9734	2999.5841	3034.3747	3039.7968	3105.7798	3106.9835	3112.9519	3118.1271	3275.0717	3652.9944
CC(C)C1=CN=NN1	CC(C)c1cnn[nH]1	
InChI=1S/C5H9N3/c1-4(2)5-3-6-8-7-5/h3-4H,1-2H3,(H,6,7,8)	InChI=1S/C5H9N3/c1-4(2)5-3-6-8-7-5/h3-4H,1-2H3,(H,6,7,8)
