23
gdb 65476	3.04243	1.07079	0.99621	1.389	85.72	-0.2349	0.0673	0.3022	1341.9172	0.203592	-388.262861	-388.252813	-388.251868	-388.2977	38.617	
C	 0.5685128168	-0.5383064697	-1.6067067585	-0.46466
C	 0.064317856	-0.1536376779	-0.2287338715	 0.408557
C	-1.4195744083	-0.3857174702	 0.0265988689	-0.315296
C	-2.3617148226	 0.3771650966	-0.8837260319	 0.442365
O	-2.1132224607	 1.7578425893	-0.7836121923	-0.468561
C	-2.794318039	-0.2051302982	-2.2052298715	-0.321475
C	-3.7781730323	-0.1064002214	-1.048463815	-0.341081
C	 0.9926484346	-0.3788585768	 0.9447008309	-0.327987
C	 0.7158073501	 1.0221963034	 0.4548938087	-0.277974
H	 1.6497835394	-0.3856990922	-1.6827988454	 0.107266
H	 0.3672965823	-1.5943707294	-1.8263600626	 0.103894
H	 0.0913809773	 0.0625486511	-2.3874037869	 0.124067
H	-1.6468491981	-1.4555456921	-0.0685092722	 0.09077
H	-1.6503665669	-0.1080981785	 1.0627675493	 0.0975
H	-2.729885238	 2.2256398395	-1.3547589758	 0.278389
H	-2.9273361308	 0.4781696584	-3.0389592142	 0.104515
H	-2.4327420108	-1.1858859293	-2.494976736	 0.117038
H	-4.0856573541	-1.0190481328	-0.5483317654	 0.114414
H	-4.5598137446	 0.6445352517	-1.1156447019	 0.104041
H	 0.5604240792	-0.6859217896	 1.8918699572	 0.102905
H	 1.9687919879	-0.8091518653	 0.7455616265	 0.102773
H	 1.5061538364	 1.5442714995	-0.0742468032	 0.102308
H	 0.0892743361	 1.6672363538	 1.0596418328	 0.116234
51.1765	103.3156	147.6099	152.7377	247.0454	271.7516	288.4526	313.3234	376.083	386.9814	393.3689	451.0972	511.2155	724.6956	743.3119	767.5807	783.6327	850.1552	876.2268	897.2361	924.7196	951.3649	957.0793	962.2036	971.3217	999.9119	1044.2042	1051.7411	1063.8249	1074.6581	1078.1429	1117.6009	1178.8689	1184.9624	1187.238	1205.7212	1310.2918	1316.4456	1354.9065	1382.549	1418.5175	1435.7509	1459.8203	1468.2723	1475.0192	1493.3198	1500.3944	1503.3225	1513.2296	3015.624	3021.8852	3056.15	3083.8754	3102.1583	3118.7763	3123.1356	3123.4938	3135.8228	3198.2831	3202.2966	3213.3833	3222.4619	3826.7008
CC1(CC2(O)CC2)CC1	CC1(CC2(O)CC2)CC1	
InChI=1S/C8H14O/c1-7(2-3-7)6-8(9)4-5-8/h9H,2-6H2,1H3	InChI=1S/C8H14O/c1-7(2-3-7)6-8(9)4-5-8/h9H,2-6H2,1H3
