21
gdb 95912	2.09422	1.52048	1.23202	1.7847	84.11	-0.245	0.0432	0.2882	1161.9205	0.180768	-387.069398	-387.059803	-387.058859	-387.103637	36.715	
C	-0.4813855059	 1.3607915549	 0.0066392035	-0.420553
C	 0.0655100148	-0.0617184444	-0.0683286976	-0.009346
C	 1.1422929034	-0.3120006036	-1.1336818033	-0.245932
C	 1.7380817443	-1.6319645063	-0.651608235	-0.079074
O	 1.7444547467	-1.5512978414	 0.7707675778	-0.293937
C	 0.7585255675	-0.6019905929	 1.2306403607	 0.188819
C	 1.5092413288	 0.4639182609	 2.0436835274	-0.419922
C	-0.2165011595	-1.2870781554	 2.0881870036	 0.339183
C	-1.0287982704	-1.8252489016	 2.7923950875	-0.482212
H	 0.3134217452	 2.0962336724	 0.1634629505	 0.119082
H	-0.9927708596	 1.619476405	-0.9258970701	 0.11658
H	-1.2062002605	 1.4633763562	 0.8207738487	 0.126734
H	-0.7701681459	-0.7397774679	-0.2759446337	 0.090848
H	 0.7301902701	-0.3696245291	-2.1447133441	 0.101607
H	 1.8971532678	 0.4827287291	-1.1188520148	 0.103894
H	 1.1249966627	-2.4830307001	-0.9870358777	 0.094287
H	 2.7670625073	-1.8038440587	-0.9822036308	 0.106256
H	 2.1990324836	 1.0166546461	 1.3997036941	 0.11322
H	 0.8190715885	 1.1665952178	 2.5172316521	 0.122134
H	 2.0907748819	-0.0320002106	 2.823991957	 0.134582
H	-1.7376722809	-2.3137184904	 3.4142699142	 0.19375
42.915	141.4008	181.2419	202.3379	245.8174	262.0557	277.513	318.5321	382.0235	460.014	500.1004	533.4431	576.0151	617.0596	626.8539	655.9696	698.894	853.8712	871.935	916.5393	928.9297	968.7563	986.5837	1019.5997	1067.8621	1097.2736	1142.8972	1149.5715	1178.7882	1216.2639	1227.1688	1246.2214	1308.9947	1350.2658	1378.4677	1387.1652	1402.8921	1414.2702	1478.4884	1485.054	1490.0812	1502.8603	1504.7466	1524.9482	2230.9271	2981.4708	3033.5442	3036.651	3044.5434	3047.9324	3075.9543	3100.2524	3102.597	3111.2505	3124.6041	3134.1456	3501.2769
CC1CCOC1(C)C#C	C[C@H]1CCO[C@]1(C)C#C	
InChI=1S/C8H12O/c1-4-8(3)7(2)5-6-9-8/h1,7H,5-6H2,2-3H3	InChI=1S/C8H12O/c1-4-8(3)7(2)5-6-9-8/h1,7H,5-6H2,2-3H3/t7-,8+/m0/s1
