15
gdb 14855	3.00735	1.65509	1.17505	3.3894	61.17	-0.2783	-0.0029	0.2754	984.0988	0.118471	-399.776233	-399.76813	-399.767186	-399.809722	27.899	
O	-0.0943607033	 1.4288527678	-0.1738256863	-0.423719
C	 0.0523593385	 0.0231262445	-0.0569974979	-0.107626
C	-1.3507847497	-0.5417960518	 0.0566280744	-0.044495
C	-2.205044289	-0.5108922721	-1.2270248298	-0.070946
O	-2.2851434686	-1.9604660224	-1.2620207853	-0.274965
C	-1.5255701748	-2.0848144126	-0.0496174311	-0.023484
C	-0.3086627745	-2.8884920653	-0.2185377497	 0.286059
N	 0.6562784453	-3.513995693	-0.334853002	-0.326658
H	 0.7762322184	 1.8145931676	-0.3085369131	 0.295065
H	 0.5582767707	-0.4064005811	-0.9348396744	 0.111298
H	 0.6421365266	-0.2551089087	 0.8301833431	 0.105748
H	-1.8445173879	-0.1180345692	 0.9325388691	 0.10553
H	-3.196458693	-0.0569452575	-1.1338218733	 0.117331
H	-1.7016083061	-0.1092808141	-2.1126679692	 0.122974
H	-2.1195443726	-2.5303187221	 0.7580614654	 0.127886
49.0217	103.3407	118.0863	213.4531	249.0614	275.0256	367.7507	438.0006	535.2721	587.6185	804.6824	819.4804	905.1725	928.0159	977.6987	1032.0639	1039.4821	1084.1761	1113.7372	1142.6465	1164.8931	1211.5156	1245.5917	1278.0992	1281.7355	1339.249	1358.9714	1377.2328	1467.9572	1517.6335	1530.3159	2353.0763	2979.9688	3013.6435	3029.7114	3041.7735	3087.6968	3107.1752	3832.9312
OCC1COC1C#N	OC[C@H]1CO[C@H]1C#N	
InChI=1S/C5H7NO2/c6-1-5-4(2-7)3-8-5/h4-5,7H,2-3H2	InChI=1S/C5H7NO2/c6-1-5-4(2-7)3-8-5/h4-5,7H,2-3H2/t4-,5-/m0/s1
