18
gdb 99924	2.00237	1.45154	1.14033	1.4293	73.49	-0.2446	0.0215	0.2661	1161.5119	0.14488	-439.003559	-438.993531	-438.992587	-439.038468	36.533	
O	 0.1485551101	 1.4376806653	 0.1476204177	-0.411022
C	 0.0580639092	 0.0292066793	 0.1398194118	-0.091884
C	-1.3935671997	-0.5005768419	-0.0095399041	 0.109217
O	-1.3224863018	-1.929184422	-0.1194477614	-0.45918
C	-2.2064269452	-0.1193658424	 1.1491095118	 0.312826
C	-2.8549237719	 0.1510725562	 2.1243509561	-0.470262
C	-2.0266421649	 0.0329522934	-1.2976890822	-0.006564
C	-1.7564908675	-0.6415001248	-2.5914706396	-0.256063
N	-3.0889740236	-0.7212466903	-1.9616225319	-0.322673
H	 0.0542154359	 1.7492486273	-0.757506564	 0.293632
H	 0.6497181859	-0.4272328276	-0.6649779466	 0.10374
H	 0.4592311177	-0.3178650746	 1.0969056957	 0.110996
H	-1.4589940769	-2.2985072085	 0.7583077775	 0.295973
H	-3.4341757649	 0.4050317703	 2.9779506994	 0.206015
H	-2.1905977766	 1.1068252048	-1.2756535647	 0.103868
H	-1.7140864112	-0.0587807164	-3.5073777227	 0.113882
H	-1.1332143628	-1.5300502216	-2.5765547269	 0.129009
H	-3.1597374119	-1.6261740965	-1.4985971159	 0.238491
68.3502	96.1329	137.9742	170.231	178.978	224.4672	280.3705	285.4136	338.2788	416.3522	439.3155	469.5729	564.0252	629.6333	650.6923	676.0822	703.0688	840.4001	874.8405	916.6859	977.0198	996.9214	1050.0851	1063.7011	1104.4287	1117.7497	1153.6779	1163.8305	1201.3201	1214.5953	1274.0295	1316.7431	1336.8815	1381.6745	1401.7356	1428.0005	1490.5174	1501.3383	2232.2321	3017.2308	3089.6574	3115.4401	3145.8128	3206.1646	3486.1157	3498.9482	3831.0727	3837.1468
OCC(O)(C#C)C1CN1	OC[C@@](O)(C#C)[C@H]1CN1	
InChI=1S/C6H9NO2/c1-2-6(9,4-8)5-3-7-5/h1,5,7-9H,3-4H2	InChI=1S/C6H9NO2/c1-2-6(9,4-8)5-3-7-5/h1,5,7-9H,3-4H2/t5-,6+/m1/s1
