18
gdb 75335	2.67827	1.70831	1.1273	3.8756	78.94	-0.2418	-0.034	0.2078	1086.654	0.148671	-401.96747	-401.959414	-401.95847	-402.000156	30.585	
C	-0.4499718602	 1.5114224584	 0.0541167771	-0.478778
C	-0.1438243839	 0.0443982678	-0.0308275121	 0.222452
C	-0.0700983399	-0.6532370559	-1.1711840263	-0.148154
C	 0.3167725774	-2.1131384963	-1.2252059717	-0.304033
C	 0.001201261	-2.8142001952	 0.0914116197	-0.016792
C	 1.0178063077	-3.0195225062	 1.1765822634	-0.251074
N	-0.0172293386	-2.0044841409	 1.2988929082	-0.096555
C	 0.2618370835	-0.6332737904	 1.2402597376	 0.301861
O	 0.7841711788	-0.0394627168	 2.159610695	-0.338972
H	 0.3554807618	 2.0328367176	 0.5793920196	 0.152354
H	-0.5781903797	 1.9498759592	-0.9386597509	 0.115178
H	-1.3644342957	 1.6889215892	 0.6319572685	 0.134982
H	-0.2448658944	-0.1528159325	-2.1217285338	 0.097664
H	-0.2235862289	-2.6097337583	-2.0376733438	 0.120624
H	 1.380853575	-2.2010102372	-1.4841747413	 0.126592
H	-0.8190468352	-3.5280742392	 0.0453553136	 0.103991
H	 0.9344820647	-3.868409728	 1.84932048	 0.127938
H	 2.0332297765	-2.6740181254	 0.9969564771	 0.130723
68.8868	153.0892	203.8889	235.0177	288.2361	335.0038	378.1055	449.3908	489.4037	554.4534	652.7554	756.4914	773.9091	801.6729	857.2081	916.7652	933.3302	963.1094	975.2469	1060.8305	1072.0507	1083.645	1087.3188	1129.1883	1154.8971	1173.1908	1215.9638	1233.4392	1337.8599	1354.2989	1391.0206	1409.8519	1415.3139	1471.5992	1480.9059	1491.715	1512.0816	1711.1	1779.4589	3013.2012	3036.1502	3066.246	3095.5258	3107.1606	3120.4475	3126.0334	3146.5604	3196.2078
CC1=CCC2CN2C1=O	CC1=CC[C@H]2CN2C1=O	
InChI=1S/C7H9NO/c1-5-2-3-6-4-8(6)7(5)9/h2,6H,3-4H2,1H3	InChI=1S/C7H9NO/c1-5-2-3-6-4-8(6)7(5)9/h2,6H,3-4H2,1H3/t6-,8?/m0/s1
