15
gdb 131219	3.93066	1.06567	0.83837	0.1849	71.83	-0.1984	0.0206	0.219	1283.1554	0.114799	-450.146516	-450.138278	-450.137334	-450.179522	30.515	
O	 0.1013415112	 1.3585448558	 0.4397901772	-0.431906
C	 0.0689194982	 0.0532180951	 0.0983562317	 0.478426
C	 0.0672477728	-0.6089490472	-1.1126520939	-0.466814
C	 0.0229031676	-1.9715169153	-0.7282679855	 0.468667
N	 0.0019422062	-3.1071439216	-1.530568899	-0.372135
C	 0.0189604401	-3.1730756426	-2.8970439092	 0.08285
N	 0.058620673	-2.1514866802	-3.6623497622	-0.461782
N	-0.0007473808	-2.1463383141	 0.5891591983	-0.340636
N	 0.0288263035	-0.871749135	 1.0778824444	-0.255383
H	 0.1266300582	 1.883447863	-0.3664170725	 0.315037
H	 0.0927204649	-0.2147466906	-2.1114793483	 0.14033
H	-0.0298713242	-3.9738038722	-1.0180950074	 0.258546
H	-0.0059964592	-4.2146774836	-3.2389496903	 0.088693
H	 0.0635001279	-2.4501023939	-4.6342982867	 0.219511
H	 0.0195464307	-0.7114428278	 2.0694473234	 0.276595
74.8255	163.7086	166.3102	267.1445	269.2853	326.4605	338.736	458.1479	464.5897	511.3677	559.8956	679.3175	718.7405	738.1716	778.3612	793.6547	824.078	996.0919	1038.4942	1046.9359	1117.5954	1167.9213	1172.3673	1186.0627	1250.6481	1359.4037	1408.8935	1433.3189	1496.7869	1555.1106	1612.774	1632.6711	1724.8273	3046.3288	3310.4912	3517.8976	3646.292	3694.6669	3842.5209
OC1=CC(NC=N)=NN1	Oc1cc(NC=N)n[nH]1	
InChI=1S/C4H6N4O/c5-2-6-3-1-4(9)8-7-3/h1-2H,(H4,5,6,7,8,9)	InChI=1S/C4H6N4O/c5-2-6-3-1-4(9)8-7-3/h1-2H,(H4,5,6,7,8,9)
