20
gdb 100727	2.83884	1.02905	0.80403	5.2945	71.96	-0.2671	0.0172	0.2843	1434.2999	0.170313	-477.465441	-477.455694	-477.45475	-477.5002	36.204	
C	 0.0729196817	 1.6095306361	 0.0084983777	-0.400184
C	 0.0089104561	 0.0825871039	 0.1010498272	-0.173803
C	-1.4083029378	-0.4844862167	-0.0471145706	-0.002835
N	-2.0391195997	-0.2193856349	-1.3632825194	-0.539362
H	-1.3785847533	-0.4140156944	-2.1126039925	 0.244221
H	-3.2745640146	-1.4371693214	-1.1983317771	 0.318263
H	-2.3015482111	 0.7567380732	-1.4486955053	 0.253905
C	-1.4347665455	-2.014916707	 0.172505544	-0.000194
O	-0.7580883642	-2.3650435019	 1.3457019297	-0.436361
C	-2.8687815236	-2.5818681652	 0.2390772705	 0.397876
O	-3.7164363258	-2.1813201724	-0.6967192493	-0.368004
O	-3.1622943065	-3.3670250941	 1.1113824511	-0.358814
H	 1.0992503629	 1.9649867085	 0.1361866088	 0.126323
H	-0.2792083833	 1.9783759961	-0.9615260332	 0.102108
H	-0.5391673628	 2.0794738855	 0.7865763673	 0.121948
H	 0.6500792001	-0.3686433918	-0.6700626044	 0.09058
H	 0.4028298455	-0.2541216104	 1.0636103471	 0.139126
H	-2.0556756848	-0.0232394929	 0.7099038997	 0.101411
H	-0.9515485582	-2.4813924809	-0.7082395382	 0.085422
H	-1.359109865	-2.9845704694	 1.7952338266	 0.298374
73.9077	98.4649	113.9604	180.363	236.8875	286.9361	317.2479	342.5119	353.1015	405.6259	427.9539	489.6858	515.4038	564.8749	639.0347	738.6501	781.101	857.5741	904.8912	939.6402	984.3386	994.6624	1035.083	1057.3514	1119.416	1146.7747	1159.8546	1196.2221	1254.4624	1282.3745	1304.904	1318.6718	1370.7937	1385.1856	1399.2709	1415.243	1448.28	1487.2845	1502.4515	1508.2301	1520.3495	1645.7739	1834.508	2915.1561	3008.6781	3029.5916	3037.107	3084.3168	3106.1707	3109.6956	3118.9958	3486.8146	3578.2346	3644.7652
CCC([NH3+])C(O)C([O-])=O	CC[C@@H](N)[C@@H](O)C(=O)O	
InChI=1S/C5H11NO3/c1-2-3(6)4(7)5(8)9/h3-4,7H,2,6H2,1H3,(H,8,9)	InChI=1S/C5H11NO3/c1-2-3(6)4(7)5(8)9/h3-4,7H,2,6H2,1H3,(H,8,9)/t3-,4-/m1/s1
