19
gdb 106687	2.72715	1.18841	1.03407	0.4855	71.95	-0.2292	0.0577	0.2869	1216.4927	0.157846	-460.118668	-460.10943	-460.108486	-460.152625	35.011	
O	 0.1683886196	 1.3605063068	-0.1936144942	-0.415217
C	 0.0658246469	-0.0136097938	 0.1685291855	-0.179522
C	-1.3413544512	-0.5235839861	 0.1600875539	 0.227205
C	-2.0422062758	-0.9496562883	-1.1289437362	-0.395584
C	-1.9459903033	-1.9389057784	-0.0266257454	 0.354234
O	-1.3818876885	-3.1792710832	-0.2066414412	-0.456226
C	-2.9650861145	-1.6707660734	 1.0816951691	 0.070243
O	-2.7192348768	-2.4991965718	 2.2111382674	-0.445765
C	-2.427879038	-0.2109810422	 1.2035229784	-0.329795
H	-0.2473522052	 1.4574708282	-1.0570043062	 0.281259
H	 0.687222516	-0.6491259252	-0.482715575	 0.095442
H	 0.4904443173	-0.0726145628	 1.1776980594	 0.100086
H	-2.994515739	-0.5106240879	-1.4246141709	 0.106076
H	-1.37065054	-1.1610142775	-1.9573308987	 0.122628
H	-1.4465053447	-3.6159695429	 0.654788287	 0.287843
H	-4.0215719834	-1.8112944088	 0.8308184706	 0.088613
H	-1.953424435	-2.1496770906	 2.6804612637	 0.283915
H	-2.0311012001	-0.0128929401	 2.2053617375	 0.099609
H	-3.1308960643	 0.5895486281	 0.9512940053	 0.10496
74.7898	104.4793	145.5418	228.2067	266.1016	274.9654	315.0247	363.5411	412.2498	444.7655	492.9898	529.0073	559.5821	631.8288	749.2485	793.1131	841.5867	891.9548	924.0215	940.7331	976.167	1015.1157	1028.7351	1056.5311	1089.5572	1119.4368	1130.8038	1175.4917	1235.5442	1244.0964	1273.5269	1286.8691	1340.538	1355.5972	1371.3603	1413.9955	1424.0383	1438.3261	1485.292	1498.1022	1515.1443	2976.949	3036.3282	3053.8901	3057.4803	3085.7953	3086.6792	3182.2795	3741.5224	3799.5827	3807.8102
OCC12CC1(O)C(O)C2	OC[C@@]12C[C@]1(O)[C@@H](O)C2	
InChI=1S/C6H10O3/c7-3-5-1-4(8)6(5,9)2-5/h4,7-9H,1-3H2	InChI=1S/C6H10O3/c7-3-5-1-4(8)6(5,9)2-5/h4,7-9H,1-3H2/t4-,5+,6-/m0/s1
