20
gdb 95455	3.04553	1.29278	1.00352	2.6937	83.	-0.2159	0.014	0.2299	1220.1512	0.172669	-403.130946	-403.122426	-403.121482	-403.164241	32.662	
O	-0.0561637204	 1.4907506909	 0.0860205069	-0.437374
C	-0.037967461	 0.0613833515	 0.0723021499	 0.004507
C	 0.6214738735	-0.5694602571	 1.3164383552	-0.244567
C	-0.1880625244	-1.8590716565	 1.5880327758	-0.256633
C	-1.4980227753	-1.5743171721	 0.8969585591	-0.18807
C	-1.447342891	-0.5056804537	 0.0942927367	 0.369844
C	-2.5522560232	-0.00278594	-0.7501869347	-0.120392
C	-2.976181868	 1.4303101325	-0.7324032968	-0.236062
N	-2.3154856545	 0.8736384815	-1.9191517524	-0.333162
H	 0.8507715295	 1.8012065626	 0.0000391188	 0.286795
H	 0.4658472538	-0.2752683901	-0.8506167844	 0.0785
H	 1.6937433549	-0.7459903724	 1.1923324115	 0.090525
H	 0.4858945523	 0.1369497547	 2.1419558012	 0.114609
H	 0.3026633751	-2.7404931758	 1.1511537247	 0.108593
H	-0.3019069626	-2.0723296041	 2.656918381	 0.106376
H	-2.3715961463	-2.2064406438	 1.0188504694	 0.08943
H	-3.336747061	-0.7358011864	-0.9262579174	 0.088364
H	-4.0301379069	 1.6644584393	-0.8568115103	 0.111213
H	-2.4109221423	 2.1109599019	-0.1058399074	 0.131458
H	-1.3467029422	 1.1853470974	-1.9011808169	 0.236047
73.6721	111.6777	185.8802	198.0804	288.375	313.4596	337.7386	407.4593	449.548	586.5329	606.6208	674.2438	800.4373	821.5146	842.6901	873.2792	891.004	939.3707	947.8192	979.2056	1004.4079	1018.2698	1064.2829	1089.5895	1099.6359	1136.9154	1159.0372	1178.6844	1210.9011	1225.1074	1246.0475	1275.9067	1295.3033	1302.2678	1312.6895	1339.5984	1367.4465	1406.3232	1430.2845	1484.9215	1498.6956	1501.0334	1702.9658	2941.082	3006.2464	3046.6282	3056.5767	3100.1113	3115.6621	3125.4107	3184.4181	3218.5938	3500.6848	3818.5423
OC1CCC=C1C1CN1	O[C@H]1CCC=C1[C@H]1CN1	
InChI=1S/C7H11NO/c9-7-3-1-2-5(7)6-4-8-6/h2,6-9H,1,3-4H2	InChI=1S/C7H11NO/c9-7-3-1-2-5(7)6-4-8-6/h2,6-9H,1,3-4H2/t6-,7+/m1/s1
