19
gdb 6152	4.37152	1.25018	1.2488	2.5284	75.11	-0.2425	0.0365	0.2789	1104.6837	0.16331	-365.076901	-365.067843	-365.066899	-365.110543	32.833	
C	-0.1506206993	 1.4798708696	-0.4220841503	-0.338485
N	-0.0816857511	 0.0249348129	-0.4308272424	-0.332001
C	-1.0227367662	-0.6287915151	 0.0716519994	 0.460834
C	-1.317758799	-2.0985797689	 0.2528018888	-0.432384
C	-2.6249017188	-1.5977603384	 0.9244640928	 0.417663
C	-3.9108872998	-1.8851165335	 0.1690343476	-0.429962
C	-2.7386233422	-1.8431377505	 2.4190756304	-0.429964
O	-2.1945005773	-0.2021602571	 0.6741690159	-0.299995
H	 0.7225005518	 1.877196986	 0.1077132207	 0.124113
H	-0.0910861064	 1.8480360121	-1.4525264202	 0.124117
H	-1.0573052232	 1.8844272223	 0.0431336768	 0.123333
H	-1.4469074381	-2.6596821871	-0.6747132416	 0.128735
H	-0.6232663819	-2.6301598918	 0.9061803361	 0.128735
H	-4.1867552641	-2.9397430974	 0.272751823	 0.122032
H	-4.7313841189	-1.2767492127	 0.561922845	 0.128799
H	-3.7954666724	-1.6602462855	-0.8948150236	 0.126798
H	-1.8043422731	-1.588754923	 2.9270835673	 0.126802
H	-3.5402133983	-1.2342523748	 2.8484929024	 0.128795
H	-2.9653817918	-2.8960597372	 2.616645702	 0.122034
72.7776	80.1256	186.0683	201.2747	207.2394	248.8396	331.3667	332.0948	387.6727	437.7156	525.5065	565.99	632.8674	784.758	856.4539	900.2345	950.8507	951.3937	983.7005	1017.2778	1052.5296	1087.471	1090.4397	1134.7996	1169.2952	1206.0828	1261.0202	1288.0516	1288.4922	1407.6454	1419.6788	1439.1072	1468.1817	1474.7588	1482.8831	1494.7279	1495.0269	1497.8712	1504.944	1844.4068	3014.6853	3035.5346	3040.5988	3078.4723	3080.0654	3084.0017	3106.5593	3112.8627	3116.9526	3119.5422	3133.9424
CN=C1CC(C)(C)O1	CN=C1CC(C)(C)O1	
InChI=1S/C6H11NO/c1-6(2)4-5(7-3)8-6/h4H2,1-3H3	InChI=1S/C6H11NO/c1-6(2)4-5(7-3)8-6/h4H2,1-3H3
