21
gdb 101642	3.23157	0.80692	0.75783	5.7417	80.98	-0.2475	0.0202	0.2677	1592.1219	0.18088	-420.401499	-420.390898	-420.389954	-420.438056	37.634	
C	-0.103715953	 1.6719542227	-0.6141990375	-0.394266
C	 0.1202526561	 0.2024225914	-0.2618579581	-0.123802
N	 0.7791393583	-0.5628297851	-1.3300890244	-0.082882
C	 2.1876347242	-0.2081271022	-1.4877227173	-0.335161
C	 0.5804818507	-2.0034234521	-1.190254801	-0.184146
C	-0.7938450521	-2.3861148343	-1.8009047299	-0.012261
O	-0.9442518495	-1.7880933412	-3.0648701319	-0.421136
C	-0.8942922754	-3.8482145605	-1.9259533563	 0.286127
N	-0.9597012754	-5.0000304463	-1.9814229701	-0.318396
H	 0.8357024602	 2.2186151521	-0.7334451753	 0.125534
H	-0.6727155691	 1.763025863	-1.5441434945	 0.128015
H	-0.6679447576	 2.1630017636	 0.1841904191	 0.124415
H	 0.6950224473	 0.1213857386	 0.6790188327	 0.091766
H	-0.8522101159	-0.2618988911	-0.0701491086	 0.110295
H	 2.7846803012	-0.4222681713	-0.5839838784	 0.106629
H	 2.6164278081	-0.7655766773	-2.3243594935	 0.132907
H	 2.2843705783	 0.8561669922	-1.7130805192	 0.131349
H	 1.3539931142	-2.5177810005	-1.7660017052	 0.128527
H	 0.6469124414	-2.3568261983	-0.1490125589	 0.109677
H	-1.600599438	-2.0706818993	-1.1182390481	 0.113151
H	-0.437585314	-0.960821694	-2.9787089137	 0.283659
49.1747	52.4814	94.7954	130.9197	194.9597	220.6628	251.5453	269.5901	300.759	389.9853	403.2355	426.1205	516.2629	550.1185	589.9113	607.4326	792.5159	808.9867	878.8398	955.4013	989.1729	1031.7364	1065.7871	1080.9703	1118.263	1119.8263	1163.973	1196.1522	1257.3581	1291.3175	1305.8625	1339.4461	1349.8205	1387.2642	1400.9339	1419.5654	1450.0698	1457.8726	1485.7771	1489.1766	1490.7785	1503.1427	1509.0777	1514.0321	2364.8719	2939.9985	2956.869	2961.959	2984.9283	3044.844	3070.6384	3085.5943	3098.3767	3116.237	3119.163	3129.0305	3623.6261
CCN(C)CC(O)C#N	CCN(C)C[C@@H](O)C#N	
InChI=1S/C6H12N2O/c1-3-8(2)5-6(9)4-7/h6,9H,3,5H2,1-2H3	InChI=1S/C6H12N2O/c1-3-8(2)5-6(9)4-7/h6,9H,3,5H2,1-2H3/t6-/m0/s1
