17
gdb 78136	2.24206	1.67533	1.23036	4.0959	76.02	-0.238	-0.0537	0.1842	1062.0241	0.135535	-421.846211	-421.838085	-421.83714	-421.878769	31.159	
C	 0.0362271699	 1.4560212112	 0.0603983052	-0.494387
C	 0.0150825683	-0.0349814437	-0.0153259253	 0.340733
C	 0.0748265309	-0.8041968511	-1.1215619228	-0.362055
C	 0.0173579922	-2.2457304492	-0.765748838	 0.418211
O	-0.035372572	-3.1876619441	-1.5234754268	-0.339956
C	 0.0292676289	-2.3156797313	 0.7484325686	-0.242409
C	 1.2402822623	-1.7133563103	 1.4478253972	 0.131317
O	 2.4683874962	-1.476512862	 0.8577513039	-0.409995
C	-0.0067010299	-0.8710651562	 1.225403861	-0.209769
H	 0.9052013596	 1.7970161514	 0.6366453768	 0.148374
H	 0.0697213576	 1.9153003679	-0.9299470557	 0.136333
H	-0.8507454439	 1.8286985178	 0.5868293583	 0.142344
H	 0.1457515195	-0.4584689505	-2.1453038978	 0.112965
H	-0.5029580511	-3.1253192559	 1.2315915631	 0.112838
H	 1.3972517095	-2.0554995074	 2.465938534	 0.124768
H	 2.3241739315	-1.143464901	-0.0372107643	 0.290529
H	-0.5833612297	-0.5411388257	 2.0828234627	 0.100161
123.6331	134.4818	166.0247	207.8806	287.0877	354.0427	431.5414	451.3347	507.5912	566.7138	629.1521	642.0578	758.3746	786.611	790.3198	851.628	877.732	903.4365	975.978	999.9497	1024.6411	1048.8034	1066.0814	1102.8777	1151.7494	1178.9537	1191.3228	1278.1804	1296.833	1324.2121	1362.5486	1409.344	1449.3882	1475.3372	1480.3495	1653.4476	1806.6693	3026.3438	3076.9124	3126.5414	3164.8462	3172.0971	3199.5174	3216.3035	3764.1148
CC1=CC(=O)C2C(O)C12	CC1=CC(=O)[C@H]2[C@@H](O)[C@@H]12	
InChI=1S/C7H8O2/c1-3-2-4(8)6-5(3)7(6)9/h2,5-7,9H,1H3	InChI=1S/C7H8O2/c1-3-2-4(8)6-5(3)7(6)9/h2,5-7,9H,1H3/t5-,6+,7-/m0/s1
