15
gdb 15098	5.5157	0.96261	0.88056	0.6043	82.12	-0.2418	-0.0231	0.2188	1279.335	0.117303	-325.433615	-325.425452	-325.424508	-325.466631	29.566	
C	 0.022674058	-3.1864156461	-0.9863400982	-0.535971
C	 0.0269840366	-2.07329364	-0.5183515727	 0.287566
C	 0.0324154354	-0.8181529683	 0.0075749343	-0.304977
C	 0.0292237871	 0.2953524838	 0.4850102883	 0.402469
C	 0.0544137224	 1.6547101347	 1.0286051311	-0.311617
N	 0.8793358079	 2.6445197661	 0.3265237612	-0.073501
C	 2.1383832431	 2.2138229949	-0.2725334806	-0.219371
C	 0.9737025697	 2.5775615496	-1.1281863898	-0.219372
H	 0.0187322571	-4.1656214775	-1.3968129993	 0.194027
H	-0.9703647684	 2.0461049019	 1.059149041	 0.145369
H	 0.4033524499	 1.6170752498	 2.0683746852	 0.145372
H	 2.9694937292	 2.9009619825	-0.1435535086	 0.118815
H	 2.396968265	 1.1584191564	-0.2256586349	 0.126187
H	 0.4717131401	 1.7596908217	-1.6400805031	 0.126187
H	 0.9359679471	 3.5360478805	-1.6375198439	 0.118816
73.0262	82.4182	166.1786	206.8346	341.376	344.5157	362.7788	497.2026	524.0948	545.9256	587.7034	605.763	734.6608	757.0022	828.872	872.3851	981.4878	1026.3579	1062.2971	1115.8738	1126.527	1157.6742	1173.9453	1186.4368	1284.0777	1310.1314	1357.0903	1460.184	1486.3035	1514.281	2177.9008	2353.349	3022.5638	3054.4594	3105.8737	3108.4522	3187.8758	3201.3691	3504.7464
C#CC#CCN1CC1	C#CC#CCN1CC1	
InChI=1S/C7H7N/c1-2-3-4-5-8-6-7-8/h1H,5-7H2	InChI=1S/C7H7N/c1-2-3-4-5-8-6-7-8/h1H,5-7H2
