19
gdb 36451	3.3559	1.0066	0.85005	2.9061	80.15	-0.2546	0.0312	0.2858	1356.6133	0.160018	-382.048712	-382.04006	-382.039116	-382.082719	32.209	
N	 0.0659879542	-1.1972796019	-0.127882888	-0.303839
C	 0.0078101171	-0.0489238654	-0.0122296037	 0.265279
C	-0.0365006437	 1.4054422622	 0.1318939508	-0.375664
C	 1.3591424186	 2.0389593191	 0.0812013659	-0.053087
C	 2.1240783593	 2.0601586335	-1.2752596984	-0.231487
C	 2.5404740748	 3.534686639	-0.997665711	-0.293075
C	 1.4752502018	 3.5742624263	 0.1016606835	 0.345193
C	 0.37498384	 4.5503118309	 0.2750782893	-0.306844
N	 1.4875273517	 4.4731078263	 1.2453235653	-0.360744
H	-0.6657609296	 1.8178568832	-0.664894658	 0.151764
H	-0.532407459	 1.6405013486	 1.0820205619	 0.147025
H	 1.9838228366	 1.6005149271	 0.867555232	 0.098266
H	 2.9228652709	 1.3277168845	-1.3963932392	 0.117937
H	 1.4410437423	 1.9768850742	-2.1252181972	 0.110035
H	 3.5493006463	 3.6191456511	-0.584317723	 0.117312
H	 2.4352932795	 4.2464452106	-1.819256208	 0.108976
H	 0.35573942	 5.4559934533	-0.3258126676	 0.123334
H	-0.6068629944	 4.1909719973	 0.5750646421	 0.11044
H	 1.1866202136	 3.9877504802	 2.0881264434	 0.229179
62.4294	87.6967	114.064	207.3622	261.5277	333.7794	374.9917	400.0911	470.0444	525.4632	545.0419	739.8119	795.8748	827.8407	873.9516	894.3108	921.5991	931.9489	952.3671	971.9377	983.4983	1035.1209	1080.6303	1106.7264	1121.5182	1134.5212	1197.5522	1226.9396	1249.7725	1253.6208	1255.346	1278.6628	1302.6754	1320.1591	1375.6251	1407.6843	1465.0449	1479.5293	1497.4303	1516.0681	2361.3178	3033.2621	3043.5689	3063.4913	3067.1094	3077.9149	3099.1779	3114.0141	3132.6262	3182.4396	3484.7779
N#CCC1CCC11CN1	N#CC[C@H]1CC[C@]21CN2	
InChI=1S/C7H10N2/c8-4-2-6-1-3-7(6)5-9-7/h6,9H,1-3,5H2	InChI=1S/C7H10N2/c8-4-2-6-1-3-7(6)5-9-7/h6,9H,1-3,5H2/t6-,7-/m1/s1
