17
gdb 97010	3.5304	1.19717	0.90469	5.5114	82.36	-0.2214	-0.071	0.1503	1278.8733	0.134988	-418.044786	-418.035503	-418.034558	-418.079239	32.759	
C	 0.0336733745	 1.4284659159	 0.0059730319	-0.343083
N	 0.0109652333	-0.02098616	-0.0426992522	-0.260678
C	-1.0962097019	-0.6282795651	 0.0293451207	 0.304083
N	-2.3988090202	-0.1189908577	 0.1550524272	-0.375332
C	-3.3036342023	-1.1801562827	 0.0765488491	-0.108462
C	-2.7129448086	-2.3941112501	 0.0284932485	 0.154928
C	-3.3390815098	-3.7489260654	 0.0161409392	-0.493821
C	-1.2612377666	-2.1585209354	 0.0045539582	 0.256499
O	-0.3606960583	-2.9665251247	-0.0202573266	-0.313279
H	 0.9764633347	 1.7544969645	 0.4537153285	 0.142676
H	 0.0069517174	 1.8360975605	-1.0137168696	 0.135535
H	-0.7920169927	 1.8762028734	 0.5791848745	 0.104464
H	-2.6472768442	 0.8055725966	-0.1541578963	 0.26141
H	-4.3637776244	-0.9584231923	 0.0905912631	 0.135069
H	-4.4309940753	-3.68763094	 0.00761839	 0.117129
H	-3.0187028168	-4.319179738	-0.8624886956	 0.141703
H	-3.0354271988	-4.3318638594	 0.8929672495	 0.14116
71.2423	93.1748	104.5192	200.5362	203.1602	249.1193	281.3024	322.6107	357.4958	424.8133	530.1927	614.2315	645.6506	724.4616	772.4431	814.624	901.6677	924.789	1000.2975	1058.3678	1068.2121	1102.3803	1127.0963	1138.8003	1170.521	1319.2359	1340.6859	1405.3768	1421.2436	1429.052	1473.8492	1478.6705	1494.3114	1513.3898	1680.8441	1759.2809	1806.4055	2984.3012	3032.0248	3048.8595	3084.8433	3098.8141	3112.0728	3212.3272	3655.7138
CN=C1NC=C(C)C1=O	CN=C1NC=C(C)C1=O	
InChI=1S/C6H8N2O/c1-4-3-8-6(7-2)5(4)9/h3H,1-2H3,(H,7,8,9)	InChI=1S/C6H8N2O/c1-4-3-8-6(7-2)5(4)9/h3H,1-2H3,(H,7,8,9)
