19
gdb 58053	1.94449	1.57239	1.11846	2.8158	76.85	-0.2549	0.0424	0.2973	1175.2333	0.156409	-422.963845	-422.954127	-422.953183	-422.998434	36.086	
C	 0.1078626746	 1.4887278472	 0.1366155663	-0.416158
C	-0.0087949648	-0.0394779186	 0.1382417806	 0.152864
O	 0.5148261447	-0.6020927182	 1.322181935	-0.436994
C	-1.4717139274	-0.5296061605	-0.12685209	-0.274514
C	-1.5212357837	-1.9877691405	-0.1812650325	 0.342606
C	-1.559198462	-3.1872889228	-0.2468589909	-0.446007
C	-2.4460134799	 0.0784314234	 0.8861451153	 0.073359
C	-3.3044338043	-0.7059418907	 1.7793068681	-0.177476
O	-2.1153281421	-0.076279294	 2.2773540357	-0.247534
H	 1.1579205195	 1.7660538086	 0.2580214837	 0.12935
H	-0.2572500205	 1.9223443888	-0.8014014731	 0.105812
H	-0.4507895124	 1.9322259537	 0.9667302684	 0.126933
H	 0.6070501022	-0.4399441632	-0.6754293972	 0.094563
H	-0.1528995337	-0.4932934039	 2.0127695766	 0.295629
H	-1.7710361958	-0.1404830862	-1.110032459	 0.11038
H	-1.5778426931	-4.2475710964	-0.3037941512	 0.197688
H	-2.7678788512	 1.0885636021	 0.6367064716	 0.108816
H	-4.2339195964	-0.2735325366	 2.1448447788	 0.11939
H	-3.2664334738	-1.7904568423	 1.7279484738	 0.141291
61.7074	93.9365	144.2632	172.2889	212.2613	245.1547	326.5749	349.0071	363.887	414.732	469.1409	510.231	579.8256	620.7173	646.5568	681.7824	778.5326	837.8791	876.9435	906.9153	957.9152	969.2947	1038.0578	1078.2782	1105.246	1126.3066	1148.2364	1163.5541	1179.385	1241.6795	1302.2697	1310.2251	1351.1344	1372.9893	1403.3648	1421.4006	1452.5281	1491.2452	1500.7707	1520.2416	2235.9863	3012.7841	3033.5248	3042.2257	3100.7041	3104.8866	3119.024	3124.0233	3201.4434	3503.0289	3751.5665
CC(O)C(C#C)C1CO1	C[C@@H](O)[C@@H](C#C)[C@H]1CO1	
InChI=1S/C7H10O2/c1-3-6(5(2)8)7-4-9-7/h1,5-8H,4H2,2H3	InChI=1S/C7H10O2/c1-3-6(5(2)8)7-4-9-7/h1,5-8H,4H2,2H3/t5-,6-,7-/m1/s1
