21
gdb 56166	3.48769	0.83241	0.78351	2.0409	80.09	-0.2632	0.0196	0.2829	1570.2882	0.179934	-424.26019	-424.249843	-424.248899	-424.296935	36.764	
C	 0.3815731606	 1.4144425123	-0.1596052752	-0.477543
C	 0.1509597142	-0.0649251965	 0.0410898518	 0.432925
O	 0.0033291678	-0.6142108342	 1.1039334723	-0.351578
O	 0.1318379085	-0.7096598018	-1.1432894558	-0.24652
C	-0.0928221279	-2.1357316498	-1.0796025813	-0.133527
C	-0.0987586721	-2.6739006752	-2.4861850115	 0.358332
C	-1.2124545842	-2.1477504777	-3.3708561223	-0.464127
C	 1.2385240167	-2.9890887688	-3.1129394767	-0.290144
C	 0.3406753789	-4.110464549	-2.6500533531	-0.313337
H	 0.4053586809	 1.912456109	 0.8088568451	 0.147061
H	 1.3242834315	 1.579513463	-0.6888082711	 0.148489
H	-0.4156461286	 1.8378660038	-0.7772325106	 0.148028
H	 0.6960617537	-2.5919140236	-0.4737157006	 0.113698
H	-1.0465274053	-2.3162627225	-0.5712497582	 0.118127
H	-1.1552299413	-1.0588140063	-3.4627350096	 0.128562
H	-1.152367913	-2.5764943761	-4.3755324969	 0.113006
H	-2.1968045692	-2.399284419	-2.9581265204	 0.114698
H	 1.3476193374	-2.827785504	-4.1798248576	 0.112326
H	 2.1361270616	-2.7833376015	-2.5396414539	 0.113746
H	 0.6324529967	-4.6681341024	-1.7661083148	 0.114418
H	-0.1666645671	-4.7067481595	-3.4007583596	 0.11336
33.7714	58.1223	75.88	125.8231	180.9177	221.3859	239.5319	301.9912	347.9799	369.2622	404.0877	503.9256	607.6574	631.2097	734.3907	787.0133	870.3002	904.2489	931.5275	948.2763	960.0515	985.2548	1017.3992	1046.7571	1059.6049	1064.2964	1081.4677	1085.9237	1132.6543	1188.8837	1248.5561	1267.6161	1332.9555	1358.3852	1389.89	1409.9873	1425.0353	1469.7201	1470.3385	1476.751	1487.5835	1500.1455	1505.5706	1514.3432	1821.6948	3028.039	3041.9338	3056.9468	3088.3525	3092.7286	3110.6992	3121.6977	3129.4693	3135.0927	3168.726	3207.7989	3222.2685
CC(=O)OCC1(C)CC1	CC(=O)OCC1(C)CC1	
InChI=1S/C7H12O2/c1-6(8)9-5-7(2)3-4-7/h3-5H2,1-2H3	InChI=1S/C7H12O2/c1-6(8)9-5-7(2)3-4-7/h3-5H2,1-2H3
