19
gdb 98768	3.87689	1.03495	1.01742	1.6889	75.79	-0.2495	0.0147	0.2642	1270.9782	0.159179	-423.02888	-423.020116	-423.019172	-423.063415	31.876	
C	-0.3206188201	 1.3842059608	-0.6335467171	-0.240105
O	-0.3539898881	-0.0457291369	-0.5493712816	-0.238354
C	-0.9798566007	-0.5464959784	 0.5372437685	 0.448649
O	-1.4636091272	 0.1450789587	 1.4014231593	-0.368549
C	-1.0300786926	-2.0529262031	 0.4857045025	-0.118696
C	-1.3774179616	-2.8163881197	 1.8029219285	-0.252389
C	-2.6155470719	-3.4131025731	 1.1180071521	-0.040359
C	-3.5245887306	-2.3156357756	 0.6441230566	-0.278145
C	-2.3012051294	-2.6481713591	-0.1669381982	-0.062414
H	 0.2139627203	 1.615729433	-1.554991682	 0.131156
H	-1.3338677779	 1.7930364969	-0.6660260866	 0.139189
H	 0.1997146904	 1.809890297	 0.2282260505	 0.139961
H	-0.1260195448	-2.4311715116	 0.0064667682	 0.095829
H	-0.6145363582	-3.5571461872	 2.0502944084	 0.104066
H	-1.5679240525	-2.1865677489	 2.6750960415	 0.119312
H	-2.9568042883	-4.4350134157	 1.2259825951	 0.086355
H	-4.4592283789	-2.6465180236	 0.2027133634	 0.110194
H	-3.5875791492	-1.3780095838	 1.188861566	 0.134386
H	-2.3603627585	-2.9697367099	-1.199221475	 0.089912
33.0083	107.7223	123.6272	149.4048	213.1474	295.6568	346.1235	394.4916	438.1299	644.2906	702.6537	767.9374	784.8843	810.6151	840.9668	931.6581	941.6003	967.894	980.6213	1011.7031	1029.001	1063.9621	1071.1718	1088.9844	1105.2778	1146.7006	1178.6983	1190.9515	1207.2864	1221.502	1229.1461	1261.4256	1291.3588	1361.9318	1375.9561	1472.602	1478.4357	1481.119	1495.7429	1497.7236	1805.3397	3050.5871	3068.4874	3098.6047	3122.4432	3124.3985	3124.7923	3156.7458	3182.3485	3191.5922	3211.1104
COC(=O)C1CC2CC12	COC(=O)[C@H]1C[C@H]2C[C@@H]12	
InChI=1S/C7H10O2/c1-9-7(8)6-3-4-2-5(4)6/h4-6H,2-3H2,1H3	InChI=1S/C7H10O2/c1-9-7(8)6-3-4-2-5(4)6/h4-6H,2-3H2,1H3/t4-,5-,6+/m1/s1
