19
gdb 70868	2.91184	1.55174	1.2085	2.4062	75.27	-0.219	0.0626	0.2816	1069.5443	0.157782	-422.974197	-422.965765	-422.964821	-423.006242	34.101	
C	 0.0135140068	 1.5535162978	 0.0856686131	-0.497997
C	 0.0430460602	 0.0477222465	 0.0758879276	 0.318387
C	-1.2747864044	-0.7836645459	 0.2298505195	-0.334903
C	-0.366742944	-1.8580659386	 0.8015870657	 0.304805
O	-0.6859723094	-3.0758273175	 1.3774949645	-0.474902
C	 0.7227638255	-0.8677524673	 1.1844741482	-0.313644
C	 0.9528369447	-1.8301903318	 0.0271759872	 0.407634
O	 1.7416171799	-2.9537751529	-0.0368634755	-0.478863
C	 0.8464246943	-0.7367928102	-1.0157163036	-0.326632
H	 1.0262083088	 1.9704984607	 0.07703754	 0.119648
H	-0.5126710797	 1.9378055033	-0.7963217797	 0.119701
H	-0.5005210886	 1.9373493518	 0.9735176912	 0.115374
H	-1.9305144432	-0.3497705391	 0.9934391939	 0.086017
H	-1.8502099681	-0.9977947638	-0.678551243	 0.091099
H	-1.0044080294	-2.9294070538	 2.2743673762	 0.292299
H	 1.2511978865	-0.6597613984	 2.1039246857	 0.092181
H	 1.2453574142	-3.6680538656	 0.3858356444	 0.291829
H	 0.3384434737	-0.9535980224	-1.9633187236	 0.08696
H	 1.8160591422	-0.2683235429	-1.2104631118	 0.101008
208.0851	213.3871	221.1229	244.2414	272.6585	309.5678	350.4277	402.4274	454.5887	457.0733	482.8026	567.9112	640.8937	680.6049	726.9445	774.6862	811.4478	853.139	888.3555	975.9528	982.1321	1032.6122	1047.9241	1063.2375	1098.5595	1113.2813	1128.6503	1175.4098	1193.7967	1216.0377	1243.7398	1276.0691	1342.3761	1352.8345	1412.8332	1415.6715	1432.6364	1490.0107	1493.6344	1496.3656	1515.5851	3020.4538	3022.5062	3029.0698	3076.751	3086.8509	3089.8461	3095.9992	3219.9495	3752.0293	3804.9034
CC12CC3(O)C1C3(O)C2	C[C@]12C[C@]3(O)[C@H]1[C@]3(O)C2	
InChI=1S/C7H10O2/c1-5-2-6(8)4(5)7(6,9)3-5/h4,8-9H,2-3H2,1H3	InChI=1S/C7H10O2/c1-5-2-6(8)4(5)7(6,9)3-5/h4,8-9H,2-3H2,1H3/t4-,5+,6-,7+
