12
gdb 21888	7.62578	1.28952	1.103	1.7016	67.18	-0.2251	-0.0217	0.2033	980.2014	0.084667	-377.513251	-377.506349	-377.505404	-377.544104	26.077	
O	 0.0690126167	 1.3454880054	-0.0023307965	-0.433581
C	 0.06473249	 0.000116833	 0.0643347604	 0.439961
N	 0.0874606279	-0.7524853181	-1.0302690427	-0.314971
N	 0.0743790985	-2.0169405011	-0.5578497039	-0.293936
C	 0.0439906495	-2.0773570064	 0.8028334552	 0.280235
C	 0.0368974413	-0.7612769972	 1.2476738172	-0.440469
C	 0.0258859534	-3.3014053937	 1.5028209277	 0.280164
C	 0.0106996753	-4.3536523233	 2.0879817477	-0.425199
H	 0.0901753872	 1.5843446994	-0.9375801255	 0.304402
H	 0.0870109942	-2.7904870905	-1.1997390314	 0.280036
H	 0.0150194392	-0.4156465858	 2.2662966697	 0.122861
H	-0.0028286131	-5.2778305716	 2.6110052322	 0.200498
135.6968	148.7426	322.7785	395.1606	396.7911	409.3529	509.1856	544.4483	550.2083	574.2511	681.5544	693.3524	712.3104	755.3892	807.0703	1006.9744	1041.0659	1153.2888	1191.8251	1234.5243	1309.9292	1422.0005	1496.7933	1566.1864	1598.0997	2235.7836	3291.0634	3501.2411	3684.0796	3795.3865
OC1=NNC(=C1)C#C	Oc1n[nH]c(c1)C#C	
InChI=1S/C5H4N2O/c1-2-4-3-5(8)7-6-4/h1,3H,(H2,6,7,8)	InChI=1S/C5H4N2O/c1-2-4-3-5(8)7-6-4/h1,3H,(H2,6,7,8)
