18
gdb 51862	4.46691	0.87376	0.76588	3.8505	73.99	-0.2368	-0.016	0.2208	1436.4224	0.14816	-439.108212	-439.099713	-439.098768	-439.142565	30.499	
O	-0.6005237396	 0.7204820354	 0.8211338873	-0.248962
C	 0.0739358131	 0.9390257356	-0.1543512808	 0.152957
C	 1.3414894162	 1.7681525177	-0.1375539861	-0.282651
C	 1.3672814935	 2.8450330675	-1.2380121489	 0.03241
C	 2.5900662656	 3.7633128258	-1.1135029372	-0.240315
C	 2.6841288703	 4.6288480986	-2.3625788921	-0.081657
O	 2.6945371892	 3.8240488103	-3.5539651166	-0.222477
C	 1.9583591061	 2.6919150863	-3.5088371393	 0.135139
N	 1.312684707	 2.1858577207	-2.545790772	-0.283187
H	-0.1983221909	 0.5356750151	-1.1512132065	 0.102713
H	 1.4498731795	 2.2145099703	 0.855374071	 0.113747
H	 2.1886352667	 1.0886191579	-0.307202179	 0.122476
H	 0.4580149765	 3.4557148787	-1.1349237741	 0.097665
H	 2.5257622843	 4.398139074	-0.2239952926	 0.112908
H	 3.4977349132	 3.1548833398	-1.0207484938	 0.115784
H	 1.8334884209	 5.319489806	-2.4244552628	 0.118418
H	 3.6049342644	 5.2155051228	-2.3935077263	 0.124812
H	 1.9788937841	 2.2020260075	-4.4809101003	 0.13022
48.8956	81.0635	106.751	177.3019	257.738	330.6794	363.9772	443.2738	513.5616	546.5945	583.1985	784.7943	820.1478	830.5099	873.3985	940.7463	967.5451	973.0494	1019.3439	1040.173	1098.6662	1111.057	1141.8714	1182.6754	1220.0163	1241.462	1266.2784	1297.3023	1346.3561	1350.2999	1379.8154	1401.596	1417.0818	1418.729	1451.8704	1479.7087	1511.0992	1727.9272	1826.3292	2930.7704	2991.296	3020.5798	3028.4316	3039.5105	3088.6812	3098.894	3106.3683	3157.4605
O=CCC1CCOC=N1	O=CC[C@H]1CCOC=N1	
InChI=1S/C6H9NO2/c8-3-1-6-2-4-9-5-7-6/h3,5-6H,1-2,4H2	InChI=1S/C6H9NO2/c8-3-1-6-2-4-9-5-7-6/h3,5-6H,1-2,4H2/t6-/m0/s1
