15
gdb 29039	2.66509	1.72103	1.09487	1.7353	81.5	-0.2459	-0.0878	0.158	1056.6582	0.112653	-416.83065	-416.822781	-416.821836	-416.863583	28.681	
C	-0.3705368772	 1.4961253357	 0.0160652415	-0.450666
C	-0.0654552298	 0.0262186206	-0.0264851063	 0.223801
N	 0.0290548235	-0.5512507799	-1.1796381641	-0.282157
C	 0.2655278143	-1.870807563	-1.4244962557	 0.000945
C	 0.1300476522	-2.9586486929	-0.6098339431	-0.003754
N	-0.2541152432	-3.0180170873	 0.6980118353	-0.217237
C	-0.2668967037	-2.0197443133	 1.5120713937	-0.048273
C	 0.1311480242	-0.6019759851	 1.3212967111	 0.26923
O	 0.4607816874	 0.0736244283	 2.2818449686	-0.321652
H	 0.4632448111	 2.0318401453	 0.4817038535	 0.161213
H	-0.5447036376	 1.8700775232	-0.9923204675	 0.139517
H	-1.2437034249	 1.6923111752	 0.6482503516	 0.145473
H	 0.5218382964	-2.0754735233	-2.4621942659	 0.122039
H	 0.2777755657	-3.933840037	-1.0677712286	 0.122384
H	-0.6035981085	-2.2167568664	 2.5323016958	 0.139137
52.5093	133.0468	158.8614	294.7949	303.493	357.8797	398.024	438.5144	506.6841	633.8781	648.6541	693.8108	752.9741	866.1801	875.8241	932.8284	958.5379	989.336	1011.7865	1039.0618	1128.791	1198.1432	1305.3027	1322.0079	1394.2054	1397.3991	1456.4004	1464.4214	1472.7817	1523.2712	1632.2131	1654.3655	1728.2743	3043.3036	3097.2324	3112.2775	3143.2927	3162.6	3165.9173
CC1=NC=CN=CC1=O	Cc1nccncc1=O	
InChI=1S/C6H6N2O/c1-5-6(9)4-7-2-3-8-5/h2-4H,1H3	InChI=1S/C6H6N2O/c1-5-6(9)4-7-2-3-8-5/h2-4H,1H3
