17
gdb 26991	2.95248	1.24698	0.95611	0.6625	80.39	-0.2136	0.0202	0.2338	1227.7201	0.134571	-384.689881	-384.680949	-384.680004	-384.724526	32.509	
C	 0.3545716677	 1.4675118944	-0.0246192611	-0.511163
C	 0.1220055455	-0.0120356457	 0.0149257617	 0.175554
C	 0.024755734	-0.870867395	-1.0398940801	 0.276782
C	 0.0875637848	-0.7118680242	-2.5330222583	-0.468741
C	 1.2890850631	-0.0329811776	-3.0162442521	 0.313561
C	 2.2690280936	 0.5310998739	-3.4227161807	-0.459884
O	-0.2038365628	-2.1443976943	-0.5992673958	-0.179318
C	-0.2526364175	-2.0941659392	 0.7575695746	-0.02228
C	-0.0607759964	-0.8233155977	 1.1890673536	-0.258819
H	 1.1759081106	 1.7555534007	 0.6407240067	 0.129037
H	 0.6120840334	 1.8036976621	-1.0313599633	 0.13797
H	-0.533118834	 2.0220532252	 0.3024331657	 0.126509
H	 0.0311022866	-1.7145583792	-2.971720466	 0.155799
H	-0.7978449301	-0.1731288873	-2.8989490428	 0.146318
H	 3.1404450574	 1.0223970345	-3.7785663769	 0.199077
H	-0.4269742621	-3.0339509637	 1.2548740548	 0.132285
H	-0.0447820938	-0.487938727	 2.2150481902	 0.107311
29.9072	91.5462	111.173	229.9389	241.8116	286.4768	324.0584	387.1647	448.6653	619.3405	622.1841	632.8338	643.0939	672.2574	739.9652	763.9125	825.7407	908.2873	919.4639	961.0492	989.8739	1064.0386	1073.088	1117.9447	1185.0405	1200.0663	1268.283	1280.8784	1342.0541	1419.5425	1436.8936	1458.1868	1489.0118	1496.4617	1541.6469	1665.5027	2240.8452	3006.9718	3029.0165	3065.5086	3078.7603	3125.5378	3246.7081	3282.8174	3506.3171
CC1=C(CC#C)OC=C1	Cc1c(CC#C)occ1	
InChI=1S/C8H8O/c1-3-4-8-7(2)5-6-9-8/h1,5-6H,4H2,2H3	InChI=1S/C8H8O/c1-3-4-8-7(2)5-6-9-8/h1,5-6H,4H2,2H3
