17
gdb 86931	3.16743	0.92525	0.80699	3.5472	73.23	-0.2272	-0.0309	0.1963	1410.1166	0.133766	-455.130157	-455.120525	-455.11958	-455.166645	32.817	
O	 0.4398187999	 1.0938943477	 0.7313296543	-0.418168
C	-0.0123369656	-0.1214796816	 0.1919886536	 0.000141
C	-1.5026508542	-0.0572799857	-0.2429604784	-0.187396
N	-1.0443690692	-0.3404858976	-1.6057173848	-0.060783
C	-1.7417265944	-0.5897719567	-2.8341025136	-0.25567
C	-2.3487501942	 0.6731867987	-3.4379345621	 0.150628
O	-3.3922667706	 0.7007440608	-4.0333608698	-0.228984
C	 0.2963633131	-0.3910428515	-1.3031127268	 0.341796
N	 1.2794782354	-0.5932281806	-2.0772466693	-0.570792
H	 1.4018995479	 1.0722557878	 0.7651333643	 0.292271
H	 0.2219616525	-0.9775470464	 0.8392088414	 0.092572
H	-2.1579136175	-0.8253556237	 0.1831707702	 0.113116
H	-1.9454287175	 0.9338946707	-0.101932853	 0.126669
H	-0.9989398037	-0.9745855448	-3.5462683943	 0.169043
H	-2.5309694705	-1.3427939254	-2.7205941595	 0.130497
H	-1.7289419752	 1.585542579	-3.2828498372	 0.091082
H	 2.1613283738	-0.5995991005	-1.5689725351	 0.213979
31.2965	50.6608	85.6449	115.5197	172.1918	230.6388	267.2259	338.598	370.0789	452.7667	513.3843	658.6556	716.2432	762.8326	775.6939	832.2021	875.3166	961.1293	1015.4734	1031.7369	1044.9356	1136.3383	1157.8916	1171.5688	1197.4503	1236.2757	1270.319	1297.159	1323.1434	1341.527	1408.4785	1419.8319	1432.7269	1444.8403	1520.7073	1780.7413	1839.8715	2880.9999	3013.9466	3021.519	3033.679	3075.5088	3086.0105	3507.183	3816.492
OC1CN(CC=O)C1=N	O[C@H]1CN(CC=O)[C]1[NH]	
InChI=1S/C5H8N2O2/c6-5-4(9)3-7(5)1-2-8/h2,4,6,9H,1,3H2	InChI=1S/C5H8N2O2/c6-5-4(9)3-7(5)1-2-8/h2,4,6,9H,1,3H2/t4-/m0/s1
