13
gdb 132437	3.22849	1.40801	0.98641	3.2317	65.02	-0.2577	-0.0679	0.1898	1093.9639	0.08803	-497.909065	-497.901471	-497.900527	-497.941502	27.467	
C	-0.0158146643	 1.4711600969	 0.078844665	-0.469733
C	-0.0062132916	-0.0129905987	-0.0778743185	 0.423668
N	-0.1038978874	-0.5960115434	-1.2184652623	-0.304965
C	-0.0814374617	-1.9744936377	-1.2192409237	-0.118812
C	 0.0369337848	-2.6987694904	-0.087453934	 0.102687
F	 0.0588782548	-4.0236212405	-0.0883342344	-0.045531
C	 0.1484742959	-2.0556698152	 1.2101624987	 0.348572
O	 0.258521649	-2.5618628138	 2.2871230825	-0.322798
O	 0.1158778322	-0.6548974497	 1.1075060331	-0.232179
H	 0.9085358792	 1.8068863416	 0.5595323074	 0.158437
H	-0.115333268	 1.9388714199	-0.8994695879	 0.159561
H	-0.8451672389	 1.7780589629	 0.7239990964	 0.158435
H	-0.163827034	-2.4664103219	-2.1830563922	 0.142658
106.1588	133.3122	159.2298	298.2156	305.5254	382.5037	404.5074	470.5123	527.533	579.8098	663.2264	743.742	768.5291	775.0033	957.8993	959.6766	1027.4278	1042.8746	1065.1303	1239.7261	1242.9873	1326.6443	1391.9299	1416.6123	1468.5474	1472.7476	1635.5954	1682.0323	1871.5283	3050.6886	3108.4963	3171.897	3190.5028
CC1=NC=C(F)C(=O)O1	Cc1ncc(F)c(=O)o1	
InChI=1S/C5H4FNO2/c1-3-7-2-4(6)5(8)9-3/h2H,1H3	InChI=1S/C5H4FNO2/c1-3-7-2-4(6)5(8)9-3/h2H,1H3
