17
gdb 39697	3.84611	1.68476	1.55008	1.9246	74.04	-0.2235	0.0667	0.2901	892.3542	0.138769	-380.774206	-380.768076	-380.767131	-380.804441	26.132	
C	-0.0818941839	 1.4909676752	-0.0092120069	-0.305771
N	 1.2098269345	 0.7731332714	 0.0448591443	-0.369924
C	-0.0416631964	 0.0113585586	 0.0162350714	 0.415761
C	-0.3965312661	-0.8899820825	 1.159057857	-0.166958
C	-1.6140222241	-1.7323055573	 0.8003737751	-0.124875
C	-0.2328401922	-2.3157076351	 0.6960033904	-0.018984
N	-0.2612187732	-2.3019559038	-0.8236586842	-0.165363
C	-1.6261634764	-1.6938428117	-0.740064587	-0.04834
C	-0.4700348495	-0.8475157681	-1.1325405695	-0.171171
H	-0.3323649562	 2.0466946814	 0.8903246564	 0.120658
H	-0.3731513716	 1.9801934013	-0.9358062724	 0.112175
H	 1.6506487838	 0.7677628691	-0.8720377761	 0.233619
H	-0.1972475608	-0.6243195062	 2.1882186421	 0.10159
H	-2.4353573837	-1.9567084484	 1.4650680257	 0.095957
H	 0.2753203165	-3.1112457363	 1.2225936768	 0.101468
H	-2.4325893746	-2.0053584101	-1.3934612843	 0.096748
H	-0.2912310262	-0.5610641875	-2.1633549089	 0.09341
156.5299	262.8393	309.3499	480.8589	584.8065	593.0527	705.0031	738.8803	757.5716	776.5626	832.0047	849.7106	872.9093	898.3975	922.7956	932.2158	938.3745	969.3006	979.809	984.7237	1011.9235	1033.1336	1039.58	1058.0684	1076.8293	1080.8944	1138.9309	1160.3609	1229.006	1237.3094	1257.7319	1284.1451	1306.7744	1332.0052	1366.1688	1448.0263	1518.597	3102.563	3171.4561	3182.0746	3186.8423	3207.8656	3214.7427	3226.7809	3495.1366
C1NC11C2C3C2N2C3C12	C1N[C@]21[C@H]1[C@@H]3[C@H]1N1[C@@H]3[C@@H]21	
InChI=1S/C7H8N2/c1-7(8-1)3-2-4(3)9-5(2)6(7)9/h2-6,8H,1H2	InChI=1S/C7H8N2/c1-7(8-1)3-2-4(3)9-5(2)6(7)9/h2-6,8H,1H2/t2-,3+,4-,5+,6+,7-,9?/m1/s1
