16
gdb 101972	1.77705	1.51669	1.17513	3.2196	70.7	-0.2806	-0.0829	0.1977	1143.2363	0.12021	-437.910123	-437.90013	-437.899186	-437.945761	33.782	
C	-0.3344574148	 1.5665578128	 0.0832334202	-0.411936
C	-0.0586601712	 0.0654468639	-0.0265019774	-0.208039
C	 0.7109429391	-0.3405131123	-1.3222487125	-0.132593
C	 2.1513175898	 0.2172172465	-1.2889860048	 0.137562
O	 2.8290905822	 0.1456886753	-0.3003610233	-0.243677
C	 0.8593026211	-1.8865606111	-1.2837010975	 0.151352
O	 0.393024656	-2.6367389018	-2.0878149799	-0.212734
C	 0.0236642375	 0.0898405352	-2.5353480343	 0.297131
N	-0.4960072658	 0.4765572911	-3.4915504647	-0.325856
H	 0.5954801255	 2.1421661964	 0.1136106886	 0.13616
H	-0.9347674655	 1.9253677624	-0.7574495682	 0.15083
H	-0.8848018603	 1.774358898	 1.0048000462	 0.133137
H	 0.5547161223	-0.2694341791	 0.8147370544	 0.139099
H	-0.9979589187	-0.4961531219	-0.0009523456	 0.132298
H	 2.523410684	 0.6409231743	-2.2420892511	 0.131008
H	 1.4403956888	-2.2207082097	-0.4002441301	 0.126257
59.2329	87.9494	96.2825	147.5321	149.0945	209.1042	220.1393	287.6952	315.8908	377.4674	413.8722	525.7508	559.3695	698.9416	732.1535	795.2688	864.5765	942.3668	997.5104	1008.7356	1064.6023	1106.6208	1142.4853	1206.9306	1319.6599	1353.0846	1402.9136	1410.689	1420.7366	1478.692	1499.5904	1502.676	1812.3955	1855.4313	2364.3702	2936.5849	2947.5908	3046.9023	3055.2617	3101.9374	3120.5971	3127.2646
CCC(C=O)(C=O)C#N	CCC(C=O)(C=O)C#N	
InChI=1S/C6H7NO2/c1-2-6(3-7,4-8)5-9/h4-5H,2H2,1H3	InChI=1S/C6H7NO2/c1-2-6(3-7,4-8)5-9/h4-5H,2H2,1H3
