17
gdb 45309	3.64288	1.38347	1.16452	4.6583	72.19	-0.2559	0.0005	0.2564	1053.8525	0.13872	-421.890622	-421.883643	-421.882699	-421.922528	27.224	
O	 0.1156996589	 0.0744041811	-0.6642961171	-0.33548
C	 0.0412064512	 1.2072876502	-0.2875322445	 0.423915
C	-1.1099068052	 1.8762073191	 0.4566307007	-0.374438
C	-0.7894143914	 3.3775731898	 0.4638174788	-0.042674
C	-0.8614909884	 4.0589984165	 1.8533437191	-0.282583
C	 0.5719242992	 4.0373760904	 2.3291805846	-0.055246
C	 1.4264154156	 3.6789366039	 1.3728626177	-0.091173
C	 0.7195951174	 3.3962821454	 0.0737034326	 0.068078
O	 1.0463092389	 2.1038328198	-0.4750921652	-0.225332
H	-2.0558584114	 1.6181195998	-0.0223066352	 0.140818
H	-1.1342653526	 1.4535657898	 1.4671181353	 0.14153
H	-1.3980435547	 3.8996732295	-0.2764049503	 0.087157
H	-1.2305071433	 5.089974739	 1.7763791951	 0.116437
H	-1.5437633144	 3.5426372697	 2.538843995	 0.112732
H	 0.8500444379	 4.3161489437	 3.3399383158	 0.105788
H	 2.5037360516	 3.6134256182	 1.465608293	 0.111523
H	 0.9711537707	 4.1229452941	-0.7057996256	 0.098949
78.5547	103.9274	280.6163	334.3757	457.7738	507.5155	534.4902	581.4574	683.9013	720.0006	780.5846	796.3762	855.2337	872.5765	908.7239	932.8772	959.9886	988.0069	1033.3487	1053.1011	1063.0963	1090.9324	1130.4983	1160.0061	1172.9268	1222.776	1230.5919	1287.3639	1309.8717	1331.7172	1346.0803	1365.3739	1387.1009	1461.3438	1492.652	1685.0656	1880.7556	3023.749	3050.5756	3054.4913	3059.7153	3090.9389	3123.4359	3188.4456	3218.0801
O=C1CC2CC=CC2O1	O=C1C[C@H]2CC=C[C@H]2O1	
InChI=1S/C7H8O2/c8-7-4-5-2-1-3-6(5)9-7/h1,3,5-6H,2,4H2	InChI=1S/C7H8O2/c8-7-4-5-2-1-3-6(5)9-7/h1,3,5-6H,2,4H2/t5-,6-/m1/s1
