27
gdb 102407	1.60673	1.21355	1.1854	1.0724	91.89	-0.2435	0.0809	0.3244	1417.4245	0.249064	-390.693798	-390.681711	-390.680767	-390.730651	44.267	
C	 0.4525418362	 1.7860743805	 0.0607301062	-0.392273
C	 0.2558704871	 0.2663245298	 0.0212602619	-0.210131
C	 0.6988989176	-0.4256369892	-1.292290941	 0.375499
C	 0.5992181716	-1.9629924069	-1.1484253096	-0.217604
C	-0.816952939	-2.5414802232	-1.0358084856	-0.401026
C	-0.1192989767	 0.10406648	-2.4883748283	-0.192002
C	 0.2182528546	-0.5344235206	-3.8397155019	-0.396665
O	 2.0494104143	-0.0482174785	-1.6271390667	-0.282635
C	 3.0975199384	-0.4693009287	-0.7843762389	-0.245553
H	 1.4791800761	 2.0551342712	-0.2010767927	 0.128004
H	-0.2131825034	 2.3043657113	-0.6355275691	 0.117436
H	 0.2413882373	 2.1730825025	 1.0625008533	 0.105707
H	 0.8020193583	-0.1877896392	 0.857619248	 0.089716
H	-0.7992903113	 0.028620892	 0.1970886911	 0.09721
H	 1.1080023283	-2.4139128958	-2.0074481756	 0.103717
H	 1.1669687004	-2.2678580206	-0.2619686098	 0.091384
H	-1.3541347803	-2.1468352072	-0.1681410143	 0.118565
H	-1.4185791711	-2.3308153562	-1.9247248953	 0.122583
H	-0.7710348819	-3.6291991135	-0.9222014871	 0.113525
H	-1.1860517649	-0.0151487983	-2.268104562	 0.089955
H	 0.0662121292	 1.1801241681	-2.5548392175	 0.103953
H	 1.290058967	-0.4596776414	-4.0384889359	 0.131827
H	-0.0615269653	-1.5919112063	-3.8809018914	 0.111029
H	-0.3157048006	-0.0239782673	-4.6473386678	 0.105649
H	 2.9619736153	-0.1549259949	 0.2602357119	 0.103462
H	 3.248280876	-1.5573308009	-0.7999626587	 0.106035
H	 4.0061836269	 0.0051830232	-1.1658309331	 0.122632
80.3862	89.6924	109.3033	120.3427	168.8593	197.1627	209.4063	232.2941	236.7363	275.7031	296.6399	314.984	367.2929	372.5026	460.79	487.8488	572.5591	674.7511	764.605	773.0333	796.8244	905.6593	924.0342	938.7962	1017.7043	1022.0225	1047.2085	1051.734	1087.6422	1094.3254	1122.637	1175.676	1180.1438	1193.0647	1208.6634	1245.5024	1296.8689	1312.1579	1323.4642	1361.4607	1373.7996	1389.6511	1406.2608	1408.9154	1409.2262	1471.1526	1476.212	1482.7545	1495.2372	1495.9405	1497.9471	1503.0214	1504.774	1507.2996	1509.137	1514.4786	1517.6715	2990.8602	3023.7468	3033.3765	3038.8339	3040.9402	3043.0204	3044.034	3045.0733	3062.7651	3069.2756	3081.7755	3099.7889	3103.2562	3103.7332	3107.4673	3113.6642	3123.5798	3127.0916
CCC(CC)(CC)OC	CCC(CC)(CC)OC	
InChI=1S/C8H18O/c1-5-8(6-2,7-3)9-4/h5-7H2,1-4H3	InChI=1S/C8H18O/c1-5-8(6-2,7-3)9-4/h5-7H2,1-4H3
