14
gdb 19489	3.54953	2.08337	1.90716	3.0337	66.1	-0.2432	-0.0127	0.2306	749.4466	0.108973	-341.572882	-341.566559	-341.565615	-341.603295	24.187	
N	-0.1096719777	-1.1768715453	-0.0486968644	-0.345817
C	-0.0610322677	-0.023383178	 0.0267076118	 0.312287
C	-0.0061849214	 1.414877017	 0.0543124969	-0.170784
C	 0.5156973764	 2.1553752659	 1.2594468865	-0.072903
C	 1.2805862607	 1.3628589878	 2.2613229983	-0.075507
C	 2.387419609	 0.87764693	 1.6994989469	-0.069858
C	 2.4933789969	 1.3239662307	 0.2593898643	-0.2193
N	 1.2817249984	 2.1434740831	 0.0006218344	-0.112411
H	-0.7786403895	 1.8859972842	-0.5482757127	 0.138844
H	 0.0170849631	 3.0791597498	 1.541262694	 0.111436
H	 0.9465643947	 1.2119076665	 3.2790406272	 0.116064
H	 3.113175509	 0.2274813901	 2.1719847601	 0.117554
H	 3.3745285135	 1.9523962421	 0.0814503065	 0.12771
H	 2.5477300946	 0.4838200061	-0.4429574798	 0.142684
139.9042	148.3445	292.6724	375.3954	445.9071	595.1941	604.5477	722.0045	738.2435	762.7744	776.4017	869.6694	901.0574	932.502	956.1866	999.1438	1024.6067	1038.591	1080.4662	1114.7835	1128.703	1212.2794	1257.3649	1307.8429	1344.4663	1365.2647	1368.1022	1484.616	1667.7168	2348.994	3029.7389	3065.4755	3139.7214	3147.8347	3210.7834	3236.3586
N#CC1C2C=CCN12	N#C[C@H]1[C@H]2C=CCN12	
InChI=1S/C6H6N2/c7-4-6-5-2-1-3-8(5)6/h1-2,5-6H,3H2	InChI=1S/C6H6N2/c7-4-6-5-2-1-3-8(5)6/h1-2,5-6H,3H2/t5-,6+,8?/m1/s1
