16
gdb 55056	4.14844	0.89487	0.82569	6.7623	71.77	-0.2504	-0.0068	0.2436	1364.3708	0.123806	-434.076493	-434.067345	-434.066401	-434.111242	32.358	
N	-0.3488266757	 1.0019012893	-1.6921424845	-0.535954
C	-0.4254855334	-0.3487676314	-1.8393105724	 0.427602
O	 0.2301453242	-0.9557256519	-2.67101598	-0.374921
C	-1.3820066594	-1.0214972467	-0.8895909685	-0.115426
C	-2.0151440103	-2.3018791284	-1.3390915811	-0.232701
N	-1.0613169157	-2.3062339421	-0.2483429145	-0.091418
C	 0.2508007235	-2.9213110259	-0.4791698683	-0.304637
C	 0.176919203	-4.3538671372	-0.1797741122	 0.283099
N	 0.130727591	-5.4872163115	 0.0378088528	-0.304352
H	 0.2519245357	 1.5160985169	-2.3155253945	 0.269766
H	-0.8842447275	 1.5054805122	-1.0076172783	 0.267524
H	-1.9448702076	-0.3572840275	-0.2371363711	 0.095281
H	-3.0448915388	-2.5159820464	-1.0690038383	 0.130637
H	-1.6864619886	-2.6687811054	-2.3088533963	 0.148313
H	 0.6284764799	-2.7827466713	-1.4996010975	 0.18463
H	 0.9714223098	-2.4604995128	 0.2058134047	 0.152558
50.551	72.3458	127.7199	187.9127	206.5818	245.7228	343.9604	388.6969	397.012	430.4377	531.2002	587.3354	646.9088	754.2676	787.6859	824.3423	907.9111	952.9308	1004.4761	1014.5357	1049.1261	1087.4972	1121.4501	1129.2301	1156.8748	1269.3129	1295.7426	1331.292	1367.314	1432.4255	1480.3713	1499.2537	1619.3525	1774.7266	2367.6572	3034.6434	3077.4454	3109.2175	3124.6583	3204.6492	3606.6729	3743.2283
NC(=O)C1CN1CC#N	NC(=O)[C@H]1CN1CC#N	
InChI=1S/C5H7N3O/c6-1-2-8-3-4(8)5(7)9/h4H,2-3H2,(H2,7,9)	InChI=1S/C5H7N3O/c6-1-2-8-3-4(8)5(7)9/h4H,2-3H2,(H2,7,9)/t4-,8?/m1/s1
