23
gdb 104685	2.29596	1.36323	1.0431	1.6272	85.14	-0.2283	0.0777	0.306	1279.8512	0.205002	-388.250936	-388.24133	-388.240386	-388.285427	36.463	
C	-0.7666360111	 1.287976353	-0.2865047463	-0.38448
C	-0.2122042127	-0.1232439371	-0.0480741212	-0.263938
C	 0.5067198254	-0.7126178949	-1.2524873028	 0.324619
C	 1.6792684144	 0.0858092464	-1.8179785689	-0.256306
C	 2.8511424724	 0.2534186972	-0.8418268282	-0.381304
C	 0.7151742249	-2.2181802071	-1.4183038609	-0.18402
C	-0.5155064918	-2.9997168033	-0.9753924693	-0.113657
O	-1.3904143835	-2.1592296956	-1.7759800891	-0.291404
C	-0.2546302872	-1.467847265	-2.307816997	 0.045912
H	 0.0269824632	 2.0215388923	-0.4600776045	 0.114211
H	-1.4337852406	 1.3041129841	-1.1547095956	 0.12259
H	-1.3409162455	 1.6271192245	 0.5811589284	 0.110903
H	 0.4641870111	-0.1137227517	 0.8156973637	 0.093
H	-1.0468272023	-0.7769902529	 0.2169383104	 0.115535
H	 2.0392243867	-0.4126829512	-2.7272267302	 0.09305
H	 1.3270937231	 1.0734514288	-2.1383343638	 0.102135
H	 2.5560968701	 0.8178105286	 0.0482181491	 0.121385
H	 3.2308433536	-0.7175941767	-0.5071524711	 0.116434
H	 3.6775867932	 0.792558124	-1.3151237332	 0.112092
H	 1.6827246943	-2.6486802535	-1.6424223757	 0.092634
H	-0.5304084361	-4.0288858161	-1.3521992063	 0.10848
H	-0.7840920873	-2.9944051971	 0.0875817892	 0.104667
H	-0.2586901944	-1.2394383566	-3.3687995767	 0.097461
56.054	103.6088	166.4294	187.2137	219.0139	229.0925	300.9183	312.1073	373.531	382.1508	481.084	560.5742	669.2541	755.9088	788.4673	794.6483	828.2411	899.2214	935.341	957.7853	959.4377	991.6482	1005.734	1023.5952	1049.0252	1054.1245	1080.3721	1095.3071	1110.6136	1138.7815	1161.8353	1194.432	1246.0368	1276.1337	1298.7887	1327.3849	1330.605	1366.5814	1380.3714	1409.2329	1411.4153	1430.8514	1478.9714	1485.4199	1501.4563	1502.4076	1503.6899	1513.8649	1516.0727	3021.5956	3021.6983	3033.1173	3035.4798	3038.1026	3056.2282	3067.1705	3088.7565	3104.351	3105.0069	3106.6233	3111.3048	3159.7714	3191.3525
CCC1(CC)C2COC12	CCC1(CC)[C@H]2CO[C@@H]12	
InChI=1S/C8H14O/c1-3-8(4-2)6-5-9-7(6)8/h6-7H,3-5H2,1-2H3	InChI=1S/C8H14O/c1-3-8(4-2)6-5-9-7(6)8/h6-7H,3-5H2,1-2H3/t6-,7+/m0/s1
