13
gdb 123333	4.75939	1.09105	0.89239	4.8166	70.62	-0.2584	-0.0942	0.1643	1192.9722	0.087354	-411.69634	-411.688532	-411.687588	-411.730187	27.708	
C	-0.5458291261	-0.665575804	-1.1118758466	-0.416485
C	-0.168653217	 0.1218085412	-0.2870575209	 0.288399
C	 0.2941861466	 1.0781961803	 0.7084563551	-0.447231
C	 1.5366690376	 1.8505825608	 0.3172594891	 0.353322
C	 2.224960402	 1.7015010517	-0.884185319	-0.002179
N	 3.3058125925	 2.4270110304	-1.1330360651	-0.165222
N	 3.7131936796	 3.295400609	-0.2113767609	-0.055527
N	 3.0678141157	 3.4409592742	 0.9250831653	-0.062563
N	 1.9818723458	 2.7314792355	 1.2082668638	-0.218979
H	-0.8903902996	-1.3657830986	-1.8329271931	 0.21342
H	-0.4937012171	 1.8075239187	 0.9360531062	 0.177165
H	 0.5021434865	 0.5721724309	 1.6598654308	 0.177166
H	 1.9103232835	 0.9995223997	-1.6493528047	 0.158714
19.7823	126.2905	135.1806	312.6142	316.7472	321.2819	436.3487	439.5926	639.1128	642.4386	674.6913	685.495	826.2409	831.0689	901.6085	909.9556	984.0401	995.5473	1071.9322	1093.755	1199.5363	1220.2937	1299.1625	1317.1592	1366.4336	1441.6326	1519.4615	1582.9362	2246.6861	3031.1415	3059.3693	3194.9206	3501.36
C#CCC1=CN=NN=N1	C#CCc1cnnnn1	
InChI=1S/C5H4N4/c1-2-3-5-4-6-8-9-7-5/h1,4H,3H2	InChI=1S/C5H4N4/c1-2-3-5-4-6-8-9-7-5/h1,4H,3H2
