15
gdb 98067	3.14749	1.01213	0.90687	5.0915	64.98	-0.2549	-0.0807	0.1742	1292.6562	0.109637	-491.101549	-491.091663	-491.090719	-491.137464	33.964	
N	 0.1612232136	 1.1752899919	 0.0043315882	-0.544919
C	 0.0358843453	-0.1634363074	-0.1847423156	 0.285234
N	 0.7986301812	-1.0133345934	-0.7663536484	-0.507827
C	-1.2363322996	-0.7317276085	 0.3945992504	 0.319223
O	-2.1259448393	-0.0348517863	 0.8244949113	-0.308975
C	-1.3506152408	-2.2616786314	 0.4248378472	 0.311129
O	-0.9786435622	-2.8706449077	 1.4013122422	-0.311053
C	-2.024143985	-2.9658620768	-0.7346861906	-0.148148
O	-2.1548181144	-4.3328047569	-0.4857144762	-0.419564
H	 0.8670399304	 1.7041495627	-0.4780907782	 0.263375
H	-0.6415636469	 1.6636638452	 0.3712431671	 0.277585
H	 1.6342521996	-0.5848065841	-1.1687771149	 0.218965
H	-3.0059205606	-2.4907558957	-0.8977407881	 0.127186
H	-1.417898427	-2.765700724	-1.6326646652	 0.140368
H	-1.7280050642	-4.4833393076	 0.3724882109	 0.297419
34.6123	72.9582	89.7939	172.1243	177.2998	259.1253	296.5181	322.0895	338.4109	379.145	439.6351	469.9134	538.153	595.3961	653.66	780.1825	817.1677	882.7171	951.7379	1023.7119	1075.3754	1127.4492	1138.577	1195.7693	1246.9051	1314.8362	1436.1186	1441.0962	1488.6453	1608.4258	1719.3677	1791.5929	1800.7708	2978.4952	3004.462	3460.6829	3587.11	3694.2504	3720.7077
NC(=N)C(=O)C(=O)CO	NC(=N)C(=O)C(=O)CO	
InChI=1S/C4H6N2O3/c5-4(6)3(9)2(8)1-7/h7H,1H2,(H3,5,6)	InChI=1S/C4H6N2O3/c5-4(6)3(9)2(8)1-7/h7H,1H2,(H3,5,6)
