21
gdb 122067	1.87205	1.05908	0.76973	2.1454	81.73	-0.2607	0.0323	0.293	1565.3612	0.179204	-424.181637	-424.170742	-424.169797	-424.218623	38.749	
C	-0.0130607375	 0.814223523	 1.0449575419	-0.390687
C	 0.1373763066	-0.4922603731	 0.2639192547	-0.182816
C	 0.5900907578	-0.2680989612	-1.1865423206	-0.054653
O	 1.8740127507	 0.3427741862	-1.1426624092	-0.261344
C	 2.3420416007	 0.8528184162	-2.3846342515	-0.081111
C	 3.7735104312	 1.3064030481	-2.1479239272	-0.056305
O	 4.5952185867	 0.2307290934	-1.7422115435	-0.420947
C	 0.6094948099	-1.5240572301	-1.9479726124	 0.332979
C	 0.6286384947	-2.5597001447	-2.5580216895	-0.455943
H	 0.9288228176	 1.3673893695	 1.0606030963	 0.134181
H	-0.7761917041	 1.4591110086	 0.5947363435	 0.112899
H	-0.31302047	 0.6153118704	 2.0778360312	 0.114874
H	 0.8710360982	-1.1477789384	 0.7456656382	 0.115152
H	-0.8102500773	-1.0402456604	 0.2392103735	 0.111594
H	-0.1174568106	 0.4238417571	-1.6752082712	 0.093436
H	 2.3179493732	 0.066544386	-3.1514737431	 0.11277
H	 1.7119504868	 1.6924459987	-2.7196854495	 0.087239
H	 4.1919125831	 1.7039527687	-3.0785800233	 0.108003
H	 3.7742592439	 2.1187901501	-1.403115548	 0.090663
H	 4.1066773886	-0.2216584867	-1.0443552108	 0.288704
H	 0.64529379	-3.4721500614	-3.1016694594	 0.20131
37.1813	73.5715	100.2717	132.2396	144.5691	187.701	231.6185	254.9145	312.3781	332.9051	430.2907	450.6919	498.7034	525.9094	611.3422	631.9956	677.2959	766.0498	861.2142	882.3288	912.2585	978.5016	995.4963	1057.778	1084.3035	1109.7152	1134.5817	1136.3936	1159.1491	1239.7508	1262.9382	1288.4722	1316.3909	1352.5542	1381.9516	1384.9807	1407.4623	1418.9537	1442.9759	1477.5888	1495.2528	1500.1971	1507.0465	1509.5335	2230.9897	2954.2878	2973.7828	2980.7653	3038.5262	3040.1431	3048.4253	3077.3333	3086.1482	3106.1211	3130.545	3501.6591	3795.3684
CCC(OCCO)C#C	CC[C@@H](OCCO)C#C	
InChI=1S/C7H12O2/c1-3-7(4-2)9-6-5-8/h1,7-8H,4-6H2,2H3	InChI=1S/C7H12O2/c1-3-7(4-2)9-6-5-8/h1,7-8H,4-6H2,2H3/t7-/m0/s1
