15
gdb 49685	3.1328	1.31161	0.99525	5.9169	68.17	-0.2462	-0.0131	0.2331	1132.5895	0.113682	-453.973158	-453.965526	-453.964582	-454.005778	27.905	
O	 0.0775655292	 0.0817611633	-0.5374824166	-0.27436
C	 0.0125731395	 1.172348678	-0.0326393243	 0.144824
N	 1.0545971118	 1.8071295311	 0.6384818496	-0.084713
C	 1.6789943088	 3.0339007214	 0.1716888773	-0.056217
C	 2.2384777731	 3.9012078572	 1.2924187288	-0.180475
N	 3.2100087872	 3.0227293	 1.9228001214	-0.325549
C	 3.4297387453	 1.8113941996	 1.3143879852	 0.445781
O	 4.2570736016	 0.987748187	 1.6258714531	-0.371197
C	 2.4323009	 1.7361932659	 0.1704678738	-0.163077
H	-0.9173647129	 1.7705079562	 0.0164866405	 0.091936
H	 1.320844182	 3.4910557003	-0.7441970703	 0.122626
H	 2.7123679454	 4.8010633106	 0.8788661084	 0.120989
H	 1.4531667729	 4.213814755	 1.9906106354	 0.128671
H	 3.7075084386	 3.2641539284	 2.7644017196	 0.260033
H	 2.6527725274	 1.148778116	-0.711907542	 0.140727
98.2648	122.2105	163.8275	213.4913	321.9927	352.6877	454.4489	481.7677	622.3105	651.0774	715.7635	782.0484	823.0783	867.7725	926.6892	948.2793	992.2081	1036.1859	1055.6371	1078.4237	1101.9988	1163.5623	1222.6271	1239.2492	1266.0535	1310.2638	1354.8344	1412.5401	1424.4415	1451.3401	1515.9625	1807.8753	1844.8329	2955.6351	3016.63	3057.5928	3180.946	3212.8183	3653.3581
O=CN1C2CNC(=O)C12	O=CN1[C@H]2CNC(=O)[C@@H]12	
InChI=1S/C5H6N2O2/c8-2-7-3-1-6-5(9)4(3)7/h2-4H,1H2,(H,6,9)	InChI=1S/C5H6N2O2/c8-2-7-3-1-6-5(9)4(3)7/h2-4H,1H2,(H,6,9)/t3-,4-,7?/m0/s1
