14
gdb 127191	2.41209	2.0466	1.11488	0.7709	67.81	-0.2645	-0.0806	0.1839	998.1545	0.1026	-466.196418	-466.188639	-466.187695	-466.229216	28.045	
C	-0.0158890178	 1.4905080782	-0.0131225973	-0.340107
N	-0.0089685512	 0.028350156	-0.0130196839	-0.2013
C	-1.1973327742	-0.6537488482	-0.1289375331	 0.534462
O	-2.2961104747	-0.161811467	-0.2356948588	-0.383198
N	-1.0136956835	-2.0390038881	-0.1115824322	-0.307638
N	 0.1522294329	-2.7084725542	 0.0013883792	-0.013774
N	 1.2214750533	-2.0597844418	 0.1057653381	-0.250316
C	 1.2175081446	-0.6357343139	 0.1062592013	 0.46778
N	 2.2919607058	 0.0350587211	 0.2114703516	-0.523602
H	 0.5927386908	 1.8590448586	-0.8416750777	 0.156776
H	-1.0484719658	 1.8170807264	-0.1137042782	 0.168067
H	 0.4211293019	 1.8583593951	 0.9177132409	 0.156782
H	-1.8358442902	-2.6181896624	-0.1919459551	 0.292714
H	 3.075081408	-0.61311149	 0.2874096751	 0.243354
69.6071	131.5871	146.0925	212.8815	334.0027	392.5737	436.8185	514.4649	549.1939	585.5088	626.5189	696.7908	748.0236	773.1871	885.3127	909.2309	982.443	1052.7685	1126.094	1160.4491	1173.8409	1223.1847	1327.3524	1411.9647	1431.6192	1459.128	1483.8709	1510.0098	1600.2194	1710.7056	1831.3002	3066.4566	3131.2634	3189.5407	3508.9538	3643.1349
CN1C(=O)NN=NC1=N	Cn1c(=O)[nH]nnc1[NH]	
InChI=1S/C3H5N5O/c1-8-2(4)5-7-6-3(8)9/h1H3,(H2,4,5,6,9)	InChI=1S/C3H8N5O/c1-8-2(4)5-7-6-3(8)9/h2,4-5,7H,1H3,(H,6,9)
