21
gdb 41470	3.0921	1.59648	1.31461	1.5252	81.12	-0.2388	0.0859	0.3247	1043.0537	0.185122	-387.074607	-387.067206	-387.066261	-387.106435	30.199	
C	 0.0768867907	 1.5289570053	 0.3837966015	-0.221202
C	 1.4977374353	 1.6495301057	-0.2508500585	-0.319621
C	 1.4424162468	 0.1597740568	-0.6353065366	 0.363003
C	 1.9974365095	-0.4294429211	-1.9188602272	-0.340385
C	 2.082439153	-1.9262147273	-1.5761617041	-0.088981
O	 2.4173627837	-1.9876822956	-0.1911266173	-0.262253
C	 1.8205741984	-0.8832410257	 0.4649132168	 0.084095
C	 0.3178261661	-1.0422252379	 0.8525185033	-0.264411
C	-0.0565954807	 0.0724846708	-0.1536859622	-0.077293
H	 0.0531271268	 1.6023573396	 1.4750515309	 0.098269
H	-0.6561958471	 2.2321756136	-0.0173200006	 0.10148
H	 1.5050420321	 2.3054167165	-1.126585651	 0.100295
H	 2.3184545257	 1.9529132607	 0.4071060199	 0.095301
H	 1.3750841019	-0.2329352165	-2.797153298	 0.099313
H	 2.9984408105	-0.0256167678	-2.1140336551	 0.105406
H	 1.1164049334	-2.4204989666	-1.7675933186	 0.090392
H	 2.8541783559	-2.4683827987	-2.1291039181	 0.107895
H	 2.4939989976	-0.568789493	 1.2680662653	 0.070958
H	-0.0593382848	-2.0311198855	 0.5774736529	 0.105605
H	 0.065480404	-0.8533818719	 1.9004517999	 0.093681
H	-0.8894296589	-0.1147018214	-0.8344975634	 0.058453
78.8525	193.2246	207.97	317.2423	355.0227	427.1934	453.3945	623.5841	645.4956	680.4157	754.0263	790.7356	839.7875	852.6443	888.6256	892.0851	922.8413	945.3368	967.7572	988.9888	999.7347	1031.578	1064.8133	1100.3709	1129.1332	1144.3586	1165.3286	1197.7384	1210.4641	1227.2739	1233.5873	1240.6065	1251.3734	1269.2321	1276.0865	1300.4856	1307.8305	1326.2869	1353.2577	1394.5186	1467.3868	1477.4025	1479.0934	1495.1668	1519.4369	2973.2149	3032.4225	3041.3863	3046.5955	3055.8292	3058.5092	3080.3143	3086.1138	3087.2094	3092.3225	3104.2776	3113.3381
C1CC23CCOC2CC13	C1C[C@@]23CCO[C@@H]2C[C@@H]13	
InChI=1S/C8H12O/c1-2-8-3-4-9-7(8)5-6(1)8/h6-7H,1-5H2	InChI=1S/C8H12O/c1-2-8-3-4-9-7(8)5-6(1)8/h6-7H,1-5H2/t6-,7-,8+/m1/s1
