23
gdb 64144	3.18765	0.95244	0.90741	3.023	86.4	-0.245	-0.0156	0.2293	1421.0271	0.205024	-388.327467	-388.317734	-388.31679	-388.362268	36.838	
C	 0.075389444	 1.4355074354	-0.2202522396	-0.41724
C	-0.0419162677	-0.0793023974	 0.0307884724	 0.298926
C	-1.518351503	-0.4609666153	 0.1844656909	-0.438013
C	 0.6577217573	-0.8756647294	-1.096012971	-0.223883
C	 2.1660224719	-0.8735485815	-0.7494242532	-0.252005
C	 2.2662772045	-0.5287869833	 0.7721466934	-0.055931
C	 0.7969790199	-0.4943594431	 1.2622723408	-0.252328
C	 3.0750821483	-1.5525154143	 1.5299726676	 0.152166
O	 4.0294237865	-1.3215955623	 2.2257946354	-0.253808
H	 1.1136987033	 1.7525726284	-0.3589894639	 0.115707
H	-0.4798562865	 1.7223406752	-1.1197981006	 0.112566
H	-0.3355044308	 2.0050079983	 0.6204557034	 0.113478
H	-2.0850241168	-0.2174403384	-0.7211165721	 0.112767
H	-1.6332165875	-1.534055916	 0.3725695552	 0.109236
H	-1.9832135998	 0.0773844929	 1.0179140954	 0.112498
H	 0.2770644695	-1.9035460778	-1.0985398871	 0.094363
H	 0.4562445885	-0.4601008916	-2.0882963002	 0.096113
H	 2.6235397008	-1.8436298591	-0.9723372465	 0.10487
H	 2.7195664463	-0.1332010327	-1.3320861887	 0.114949
H	 2.7474850702	 0.4398808159	 0.9244737897	 0.092611
H	 0.6628819396	 0.1689905632	 2.1218816956	 0.106011
H	 0.4904204498	-1.5007281919	 1.5798359108	 0.093417
H	 2.7033000218	-2.5991139152	 1.3954207625	 0.063531
53.83	74.2732	142.3457	232.2297	248.1838	289.6663	295.5718	323.6664	347.7399	396.0412	409.7269	446.0141	569.7394	669.4058	737.2952	815.4891	856.6235	902.0543	924.9974	947.3818	951.5551	970.1042	978.7715	1012.8842	1036.6263	1073.7062	1106.2293	1111.3237	1189.5382	1204.5049	1231.5708	1261.1938	1281.1392	1297.7744	1313.4227	1331.7484	1338.353	1363.0895	1402.6974	1423.36	1428.2401	1481.2139	1482.8037	1486.1992	1496.0071	1505.9446	1508.8723	1511.2023	1834.2442	2821.7542	3012.0523	3022.7772	3029.9913	3034.9814	3049.5033	3072.9233	3078.5858	3088.1314	3090.2351	3093.2758	3097.287	3101.0809	3105.7823
CC1(C)CCC(C1)C=O	CC1(C)CC[C@@H](C1)C=O	
InChI=1S/C8H14O/c1-8(2)4-3-7(5-8)6-9/h6-7H,3-5H2,1-2H3	InChI=1S/C8H14O/c1-8(2)4-3-7(5-8)6-9/h6-7H,3-5H2,1-2H3/t7-/m0/s1
