13
gdb 29437	4.75369	0.94271	0.78908	2.5809	63.29	-0.2086	-0.0185	0.1901	1315.8484	0.08928	-489.937542	-489.929546	-489.928602	-489.971029	28.447	
O	 0.1043760273	 1.3567700387	-0.0926406914	-0.432221
C	 0.0454336603	 0.0101637499	-0.0784129807	 0.353647
C	 0.0540461755	-0.8291572174	-1.156936099	-0.206466
N	-0.024582105	-2.1073715042	-0.5943222793	-0.321964
C	-0.0760324021	-1.9411323693	 0.7400430435	 0.494189
O	-0.1721186896	-3.03917231	 1.5323316741	-0.232577
C	 0.136658044	-2.9055955704	 2.8675574963	 0.163483
O	 0.0130085293	-3.8247975356	 3.6112711759	-0.251787
N	-0.0414358674	-0.6835457566	 1.1068372046	-0.434634
H	 0.0553727777	 1.646737567	 0.8258461206	 0.304533
H	 0.09334463	-0.6616861672	-2.217238486	 0.141286
H	-0.0371752194	-2.9887443291	-1.0787006869	 0.280248
H	 0.4874251594	-1.8943524055	 3.1120724382	 0.142264
45.4174	114.7918	149.9583	264.9198	332.978	352.7977	388.7646	445.9394	487.8889	547.0651	626.1165	693.4427	697.818	730.3808	851.8071	1016.2386	1042.6949	1056.7901	1089.4899	1106.7804	1177.7315	1296.5377	1325.6542	1399.8439	1416.9796	1533.2882	1579.7827	1674.3404	1877.4453	3071.294	3306.0819	3676.1708	3812.0757
OC1=CNC(OC=O)=N1	Oc1c[nH]c(OC=O)n1	
InChI=1S/C4H4N2O3/c7-2-9-4-5-1-3(8)6-4/h1-2,8H,(H,5,6)	InChI=1S/C4H4N2O3/c7-2-9-4-5-1-3(8)6-4/h1-2,8H,(H,5,6)
