18
gdb 61410	2.80673	1.05953	0.83494	3.6914	69.17	-0.2558	-0.0346	0.2212	1373.561	0.145172	-476.285445	-476.275539	-476.274595	-476.32103	35.602	
C	 0.1611587749	 1.3585122969	 0.1616750583	-0.469723
C	 0.4253240214	-0.0600719234	-0.2965856879	 0.384055
O	 1.5109783908	-0.581721995	-0.1245379589	-0.313493
C	-0.7347434542	-0.7763053588	-0.9627457843	-0.325909
C	-0.672455224	-2.3201142091	-0.9907511367	 0.040311
O	-1.9734201509	-2.8262323413	-1.1174877837	-0.44014
C	 0.1676451464	-2.8820976609	-2.1597297409	 0.362093
N	 1.4824053041	-2.5999573957	-2.1439166884	-0.51784
O	-0.3896906245	-3.5512278572	-3.0197469438	-0.388264
H	 1.0943264587	 1.8367975264	 0.4607091502	 0.147347
H	-0.3280885441	 1.9384993057	-0.6278361631	 0.144515
H	-0.5275501946	 1.3421728779	 1.0146758678	 0.154284
H	-1.6632024342	-0.5010415081	-0.4501120425	 0.139945
H	-0.8378175034	-0.373520076	-1.9805201852	 0.141363
H	-0.2200594767	-2.6643474763	-0.0485435315	 0.099502
H	-1.9471965214	-3.3377758086	-1.9479608135	 0.293707
H	 1.8650954434	-2.0205564728	-1.4061519362	 0.286795
H	 2.0633842082	-2.9499255538	-2.8877351397	 0.261453
46.8547	73.7887	113.5359	136.9469	195.3318	228.0871	316.2932	345.7811	402.2268	450.6072	476.0964	482.0154	536.9279	586.3694	664.2403	684.1925	757.7566	760.1445	855.0762	899.4855	957.9818	1038.2572	1081.13	1124.2271	1145.1131	1191.605	1195.8874	1282.5938	1330.788	1363.3404	1381.2994	1388.9262	1441.7535	1461.2606	1474.8625	1478.1523	1620.7379	1778.3829	1787.0551	2993.6977	3024.7861	3039.0286	3075.1527	3100.6241	3155.5161	3508.1037	3597.3719	3693.6927
CC(=O)CC(O)C(N)=O	CC(=O)C[C@@H](O)C(=O)N	
InChI=1S/C5H9NO3/c1-3(7)2-4(8)5(6)9/h4,8H,2H2,1H3,(H2,6,9)	InChI=1S/C5H9NO3/c1-3(7)2-4(8)5(6)9/h4,8H,2H2,1H3,(H2,6,9)/t4-/m1/s1
