20
gdb 59885	3.98898	0.84497	0.79932	2.3355	77.71	-0.2563	0.004	0.2604	1529.3631	0.169735	-440.305479	-440.295672	-440.294728	-440.34089	35.156	
C	-0.1921196001	 1.5141605697	-0.0306407502	-0.397148
C	-0.0100468369	 0.001927913	 0.0346361674	 0.142891
C	-1.3198162832	-0.7664579272	 0.121726058	-0.39371
O	 0.6461279069	-0.4611227398	-1.1806642457	-0.261003
C	 1.982831338	-0.3767470306	-1.2258205962	 0.465758
O	 2.6836046036	 0.0456732804	-0.3321461818	-0.395203
C	 2.5163956456	-0.882606525	-2.5241563254	-0.127134
C	 3.59363926	-0.0614749946	-3.1592252917	-0.219636
N	 3.9148351997	-1.3381887221	-2.5328519994	-0.30573
H	 0.7766215755	 2.0148324502	-0.0906367787	 0.141046
H	-0.7934298157	 1.7929634319	-0.9017805937	 0.122455
H	-0.704910538	 1.8678963937	 0.8691612281	 0.121056
H	 0.6450968474	-0.2521264275	 0.8723999446	 0.112646
H	-1.9619167877	-0.5381139163	-0.7346188825	 0.126541
H	-1.1380738006	-1.8442904896	 0.138952702	 0.127095
H	-1.8544770137	-0.4915039713	 1.035669636	 0.122279
H	 1.8241287082	-1.4440224534	-3.1408715722	 0.109456
H	 3.66249325	-0.0415536256	-4.242804511	 0.127008
H	 3.8777143248	 0.8542732731	-2.6492196569	 0.132425
H	 4.2933353562	-1.1563820989	-1.6031332807	 0.24891
54.8928	67.8193	116.7145	152.596	214.2846	250.5331	279.6166	287.3893	309.7005	410.343	427.3562	489.6118	697.7872	774.2548	822.0899	835.7572	881.1759	906.5598	935.3306	952.9899	958.2391	989.2195	1026.6404	1116.2668	1136.213	1140.7218	1163.2014	1179.3141	1204.1608	1239.3337	1287.3833	1319.7821	1358.2028	1380.9775	1403.6753	1416.918	1423.406	1481.5277	1486.5394	1495.5349	1496.6828	1511.1135	1786.5924	3041.4074	3045.4856	3076.9366	3111.5651	3116.2494	3121.7484	3123.2049	3133.9459	3181.9026	3210.232	3473.9019
CC(C)OC(=O)C1CN1	CC(C)OC(=O)[C@H]1CN1	
InChI=1S/C6H11NO2/c1-4(2)9-6(8)5-3-7-5/h4-5,7H,3H2,1-2H3	InChI=1S/C6H11NO2/c1-4(2)9-6(8)5-3-7-5/h4-5,7H,3H2,1-2H3/t5-/m1/s1
