20
gdb 76770	2.27663	1.55521	1.08827	4.1391	80.53	-0.2306	-0.0249	0.2057	1179.3368	0.169609	-403.132945	-403.12358	-403.122635	-403.167182	34.731	
C	-0.8191937311	 1.1609211535	 0.1010573778	-0.411271
C	 0.0821139119	-0.0625281134	-0.0152230384	-0.10972
C	 0.936858336	-0.3410544345	-1.3114304722	-0.135033
C	 1.0949265696	 0.8259086175	-2.2838349301	-0.400415
C	 2.1652500375	-0.5808428744	-0.4019711667	 0.241316
C	 3.1163932739	-1.7285915609	-0.4265889364	-0.290894
N	 3.5883434897	-0.3635842887	-0.6687569879	-0.353374
C	 1.3972603473	-0.0647347464	 0.7953355753	 0.347731
O	 1.6846183445	 0.2533048321	 1.9133663763	-0.308327
H	-0.2889083704	 2.0835439783	-0.1502089629	 0.124583
H	-1.6905978441	 1.0793109964	-0.5562630267	 0.11851
H	-1.1778324053	 1.257674413	 1.1299988069	 0.137616
H	-0.4852642322	-0.9636671997	 0.2498827778	 0.104779
H	 0.6078396984	-1.232086069	-1.8538714696	 0.07607
H	 1.4679766318	 1.7257640522	-1.7841992282	 0.129749
H	 1.8043621395	 0.5743478955	-3.0804037206	 0.111913
H	 0.1430602911	 1.0750102434	-2.7629409821	 0.123607
H	 3.4467593516	-2.1653337518	 0.5118265782	 0.137555
H	 3.035170847	-2.4219101255	-1.2607846432	 0.118753
H	 3.7224369033	-0.2066308377	-1.6661420271	 0.236852
46.5314	168.7684	183.3273	192.4009	215.4659	230.0333	238.7534	261.5201	368.8198	469.1168	540.2543	554.5933	688.2757	732.6346	771.5405	819.78	847.3637	914.4559	957.602	985.8809	989.2396	1005.7683	1039.1785	1065.5966	1097.0488	1129.3124	1137.3892	1164.0826	1197.0428	1244.1892	1265.4762	1274.5378	1331.3921	1355.9662	1391.5514	1406.5536	1415.2061	1489.555	1490.9385	1502.5945	1503.627	1506.6385	1886.9051	3029.8019	3030.2496	3042.5372	3060.0729	3092.3179	3101.9503	3107.2497	3111.0232	3119.9833	3193.7245	3484.0187
CC1C(C)C2(CN2)C1=O	C[C@H]1[C@@H](C)[C@]2(CN2)C1=O	
InChI=1S/C7H11NO/c1-4-5(2)7(3-8-7)6(4)9/h4-5,8H,3H2,1-2H3	InChI=1S/C7H11NO/c1-4-5(2)7(3-8-7)6(4)9/h4-5,8H,3H2,1-2H3/t4-,5+,7+/m0/s1
