21
gdb 26146	2.48544	1.24224	1.01627	0.6589	85.7	-0.207	0.0264	0.2334	1297.6328	0.181529	-387.137793	-387.128073	-387.127129	-387.172835	35.748	
C	-0.0225897787	 1.6007827068	 0.0216326929	-0.377227
C	 0.0103638774	 0.0617121049	 0.0582976406	-0.096974
C	 0.8127603146	-0.4399729328	 1.2730736048	-0.377222
C	-1.3787031036	-0.5211739872	 0.0350222605	 0.193259
C	-1.9339669777	-1.3307424813	-0.9141235679	 0.243111
C	-1.4440925274	-1.9140766249	-2.1918574867	-0.494079
O	-3.2204523208	-1.6469486727	-0.5710391769	-0.182184
C	-3.4850929095	-1.0302710956	 0.610840351	-0.020289
C	-2.4045663414	-0.330210834	 1.0309763421	-0.274918
H	 0.9925251954	 2.0115830959	 0.0004912525	 0.107521
H	-0.5586542766	 1.9638341491	-0.8601300052	 0.115532
H	-0.526897213	 2.0033060682	 0.9069998585	 0.114428
H	 0.5320793502	-0.2786427699	-0.8449554951	 0.070368
H	 0.3434511606	-0.1230102004	 2.2108924061	 0.11443
H	 0.8723994919	-1.5322204163	 1.2837201017	 0.11553
H	 1.8322459167	-0.0398472724	 1.2584942065	 0.10752
H	-1.4737064492	-3.0096872945	-2.170005774	 0.13635
H	-2.0554622928	-1.5889185249	-3.0416900877	 0.13635
H	-0.4131968918	-1.6074499768	-2.3800742724	 0.134742
H	-4.472787829	-1.1889047014	 1.0114776184	 0.12839
H	-2.3344797352	 0.2536687901	 1.9359012102	 0.105361
38.5456	96.6901	142.4856	181.6107	227.2793	231.6678	252.7546	281.7981	371.1085	414.7525	492.8366	599.9971	621.2903	703.8168	706.5006	747.2406	821.2802	883.1321	913.1811	927.0698	957.0923	961.5838	1050.9297	1061.7144	1068.6335	1122.7402	1127.11	1181.9749	1193.3006	1239.4012	1285.2696	1336.2847	1363.9331	1396.2791	1408.4842	1417.608	1437.2852	1471.7272	1486.2265	1489.2392	1489.4223	1500.5885	1509.251	1553.8245	1660.6374	3022.566	3027.958	3028.5548	3032.2785	3075.9582	3093.7783	3100.5432	3107.5347	3109.8021	3129.9914	3246.4196	3281.2313
CC(C)C1=C(C)OC=C1	CC(C)c1c(C)occ1	
InChI=1S/C8H12O/c1-6(2)8-4-5-9-7(8)3/h4-6H,1-3H3	InChI=1S/C8H12O/c1-6(2)8-4-5-9-7(8)3/h4-6H,1-3H3
