16
gdb 6330	2.65968	1.25039	1.05572	1.1805	63.07	-0.1918	0.0477	0.2396	1158.6356	0.127368	-417.109311	-417.098825	-417.097881	-417.147208	33.887	
C	-0.0674411632	 1.4031357121	 0.290241082	-0.325092
N	-0.3164332052	 0.4846420737	-0.8232004163	-0.324054
H	 0.5314035694	 0.270264082	-1.3297674738	 0.233854
C	-1.0559808615	-0.6798650908	-0.5940067552	 0.386455
N	-2.2585108781	-0.4338965345	 0.0867957764	-0.542833
C	-0.6554128953	-1.9042755709	-0.9801969727	-0.468711
C	-0.843002732	-2.1100170345	 2.4174857896	 0.598499
O	 0.0909530194	-1.456802764	 2.6471509233	-0.29865
O	-1.7764550648	-2.7757373199	 2.2195939762	-0.308982
H	 0.5029707089	 2.2571179604	-0.0844810404	 0.119448
H	-1.0115698561	 1.7782496912	 0.6888494157	 0.131917
H	 0.4872186048	 0.9396230739	 1.1189008714	 0.127431
H	-2.7724062191	 0.3533327722	-0.2913656875	 0.244549
H	-2.8449779528	-1.2540723098	 0.1520036706	 0.251786
H	-1.3269825772	-2.7520880195	-0.9439971393	 0.090253
H	 0.3439448328	-2.0705258416	-1.3612419599	 0.084128
36.9732	50.8935	60.1621	78.8195	91.302	105.0391	167.0366	289.1159	377.1783	459.6329	494.538	607.4157	672.2491	681.7903	683.9294	730.4472	749.2831	793.8822	872.4105	979.4408	1086.6246	1148.3339	1155.4681	1183.6244	1377.3332	1394.7414	1416.6671	1472.5969	1487.4353	1493.3663	1523.9252	1630.6706	1717.0005	2431.3609	3002.5877	3092.6753	3133.4625	3169.0293	3253.8463	3528.4906	3585.9411	3641.2665
C[NH+]=C(N)CC([O-])=O	CNC(=[NH2])[CH2].C(=O)=O	
InChI=1S/C4H8N2O2/c1-6-3(5)2-4(7)8/h2H2,1H3,(H2,5,6)(H,7,8)	InChI=1S/C3H8N2.CO2/c1-3(4)5-2;2-1-3/h5H,1,4H2,2H3;
