15
gdb 107321	2.83622	1.66263	1.17846	4.3626	66.23	-0.2519	-0.0843	0.1676	1006.6885	0.112455	-457.755176	-457.747603	-457.746659	-457.78726	28.705	
O	 0.0077889898	 1.3693849979	 0.3031995731	-0.416552
C	 0.0603458079	-0.012271648	 0.0204093627	-0.163276
C	-1.3176204811	-0.6113504553	-0.0811450964	 0.264773
O	-2.0006914334	-1.025959874	 1.1188223817	-0.276209
C	-1.7315500898	-2.0060548724	 0.0947966506	-0.092963
C	-2.9185787047	-2.2378203989	-0.8000836456	-0.067312
C	-3.2604009539	-1.1116802173	-1.4420178585	-0.181162
C	-2.30262509	-0.025344158	-1.0993812727	 0.36793
O	-2.253673141	 1.0973790518	-1.5527142604	-0.338106
H	-0.5615505195	 1.7683522287	-0.3691534901	 0.300718
H	 0.6039500651	-0.219888504	-0.9168099095	 0.095409
H	 0.6057368132	-0.4932575091	 0.838082798	 0.120802
H	-1.0548704949	-2.8076170067	 0.372626939	 0.116703
H	-3.4338401237	-3.188778537	-0.861830246	 0.135074
H	-4.1040000939	-0.9599223476	-2.102353926	 0.13417
109.1183	143.2574	205.2463	264.7216	328.2034	373.8848	460.3005	491.2814	524.6069	646.8367	694.0726	723.99	756.0217	816.1774	853.2989	938.445	961.3875	984.7999	1010.208	1028.8911	1085.2825	1090.6228	1128.244	1209.3006	1257.6475	1303.0249	1353.4111	1376.6606	1434.0629	1468.3091	1489.666	1630.7319	1804.1068	2964.4186	3084.2903	3173.9069	3208.4183	3234.8601	3750.255
OCC12OC1C=CC2=O	OC[C@]12O[C@H]1C=CC2=O	
InChI=1S/C6H6O3/c7-3-6-4(8)1-2-5(6)9-6/h1-2,5,7H,3H2	InChI=1S/C6H6O3/c7-3-6-4(8)1-2-5(6)9-6/h1-2,5,7H,3H2/t5-,6+/m0/s1
