25
gdb 101142	3.25088	0.8485	0.83687	0.2086	95.8	-0.2231	0.0362	0.2593	1602.5304	0.229293	-352.385204	-352.374967	-352.374023	-352.420846	38.182	
C	 0.159235675	 1.4951800987	 0.0827614609	-0.390424
C	 0.0207759608	-0.0243886735	-0.055343397	-0.164626
C	-1.4392302442	-0.5372474996	-0.0366701182	-0.085397
C	-2.2424469672	-0.0439465832	-1.2557775916	-0.396942
C	-1.4859408613	-2.0401804346	 0.0733784573	 0.373324
C	-1.9842184328	-2.742868256	 1.0936388428	-0.196287
C	-1.9192652821	-4.2343671391	 0.8735961396	-0.243022
C	-0.9713482637	-4.3593890797	-0.3464299025	-0.204607
C	-0.9982989093	-2.9688595341	-1.0282431957	-0.305329
H	 1.2131969574	 1.7868152802	 0.1313214461	 0.111152
H	-0.2881377605	 2.0285104442	-0.7616177563	 0.117404
H	-0.326239171	 1.8546188992	 0.9973274552	 0.113026
H	 0.5089707701	-0.3519282818	-0.9823708334	 0.094293
H	 0.563648512	-0.5097612548	 0.7644897448	 0.096021
H	-1.9151841064	-0.1309754613	 0.8666274179	 0.067975
H	-3.2673774335	-0.4263191324	-1.2263644447	 0.115013
H	-2.2945027113	 1.0480394911	-1.284717878	 0.11366
H	-1.7856577983	-0.3808177659	-2.1930666409	 0.11471
H	-2.4323158119	-2.3026003803	 1.9792145668	 0.077061
H	-1.5507433338	-4.7837346391	 1.7477507691	 0.097276
H	-2.9187165791	-4.6405800488	 0.6585799298	 0.100035
H	 0.0439718765	-4.5692339091	 0.005394618	 0.102169
H	-1.2511302369	-5.1703748497	-1.0238513977	 0.092661
H	-1.693645497	-2.9483114113	-1.8796001139	 0.102124
H	-0.0194891216	-2.6850991588	-1.4309882982	 0.098729
52.5291	79.0193	107.1558	159.3991	189.7906	221.2834	260.7346	285.343	317.4295	339.0612	469.3512	537.1935	622.8229	675.1362	778.8331	814.4655	824.2447	859.7399	880.5036	907.6073	919.4225	953.0811	965.7399	980.0297	1023.6549	1038.5402	1063.242	1066.3783	1128.8721	1152.9898	1168.4142	1194.0064	1231.7764	1249.0627	1269.1404	1292.0923	1316.1774	1321.7491	1328.6871	1352.666	1367.0305	1381.7792	1406.8573	1414.8697	1483.3577	1485.2545	1489.335	1495.3752	1500.01	1505.7142	1507.7977	1511.4251	1712.3274	2997.5756	3002.7078	3004.4463	3021.4437	3031.5635	3035.1351	3040.0857	3049.5925	3056.9375	3061.5781	3096.9413	3098.0893	3100.9867	3103.8581	3113.0996	3175.4215
CCC(C)C1=CCCC1	CC[C@@H](C)C1=CCCC1	
InChI=1S/C9H16/c1-3-8(2)9-6-4-5-7-9/h6,8H,3-5,7H2,1-2H3	InChI=1S/C9H16/c1-3-8(2)9-6-4-5-7-9/h6,8H,3-5,7H2,1-2H3/t8-/m1/s1
