19
gdb 70254	3.86275	1.08539	0.9505	1.5975	81.26	-0.2526	0.0543	0.3069	1270.4334	0.158387	-385.863938	-385.855353	-385.854408	-385.896848	33.421	
C	 0.0265047271	 1.5106231966	-0.0262385398	-0.483668
C	-0.0688145626	 0.0148459587	 0.0921754225	 0.409103
C	-1.3318251904	-0.7157257385	-0.3347530429	-0.290602
C	-1.1100603358	-2.1816014137	 0.144155665	-0.172544
C	-0.1806753329	-2.0557053942	 1.3905139953	-0.256065
C	 0.6116891645	-0.7975244339	 1.1114646641	-0.01822
O	 1.1256414844	-0.7281652684	-0.2292889492	-0.295932
C	-2.3402510433	-2.9150656306	 0.395037976	 0.292817
C	-3.3622544157	-3.5099090997	 0.6134424372	-0.434773
H	 0.9839459552	 1.8668870709	 0.361829451	 0.130719
H	-0.0526971654	 1.821956646	-1.0735997112	 0.128585
H	-0.7820274095	 1.9974679459	 0.5293381658	 0.122776
H	-2.1971629157	-0.2720866701	 0.1703508632	 0.113477
H	-1.5129409617	-0.6633354933	-1.4124601403	 0.114537
H	-0.5421732939	-2.6979463992	-0.6352074637	 0.123697
H	-0.7705790127	-1.9222447757	 2.3042154568	 0.115212
H	 0.4439149408	-2.9437284524	 1.5217775592	 0.118184
H	 1.2496770704	-0.3622907137	 1.8775232569	 0.0919
H	-4.2618897727	-4.0422403746	 0.7988344442	 0.190794
93.7048	143.8962	184.9791	228.6963	267.1981	306.8175	381.8917	413.0007	510.6209	516.4446	560.7512	618.2123	634.6944	639.1197	710.2264	830.7986	855.8809	899.5672	909.6902	949.3939	987.2929	1029.127	1045.7653	1062.8307	1089.6028	1117.9749	1175.7384	1224.7373	1233.3725	1289.3466	1295.6515	1317.0929	1323.5917	1358.2853	1412.4995	1455.8171	1478.9953	1484.1573	1490.4802	1503.2392	2236.5841	3035.0606	3047.2859	3049.8153	3062.908	3093.9413	3098.0308	3101.0556	3123.0924	3139.4234	3505.3735
CC12CC(CC1O2)C#C	C[C@]12C[C@@H](C[C@H]1O2)C#C	
InChI=1S/C8H10O/c1-3-6-4-7-8(2,5-6)9-7/h1,6-7H,4-5H2,2H3	InChI=1S/C8H10O/c1-3-6-4-7-8(2,5-6)9-7/h1,6-7H,4-5H2,2H3/t6-,7-,8+/m1/s1
