17
gdb 54575	3.62729	1.40554	1.17911	2.2596	73.3	-0.2404	-0.0196	0.2209	1061.565	0.134494	-421.780195	-421.772296	-421.771352	-421.813176	29.756	
C	-0.1386671911	 1.4387302095	 0.0881276934	-0.487312
C	-0.055906315	-0.0663956192	-0.0273596407	 0.270121
O	 0.9877811132	-0.6816279634	-0.1018877219	-0.320889
C	-1.347443204	-0.7868126157	-0.0407916673	 0.378965
O	-2.6016516676	-0.1273354921	 0.1299392782	-0.336057
C	-3.1731469165	-1.4511803232	 0.33907406	 0.048286
C	-3.1057340348	-2.1012862214	-1.0693610316	-0.236747
C	-1.5933977568	-2.092172182	-0.8533710455	-0.138943
C	-1.7532694739	-2.0586145743	 0.6483328025	-0.169306
H	 0.8645785372	 1.8648183036	 0.0646996525	 0.138594
H	-0.7459470188	 1.8458802308	-0.7278744994	 0.150187
H	-0.6491218409	 1.7140992045	 1.0171560508	 0.152103
H	-4.0640947098	-1.4462355493	 0.9623442403	 0.094951
H	-3.4989200722	-3.1207361287	-1.06411572	 0.112914
H	-3.5349449908	-1.521295343	-1.8913602599	 0.107925
H	-0.7942699582	-2.5358041731	-1.4310029284	 0.118681
H	-1.29985058	-2.606438173	 1.462045637	 0.116528
60.194	107.248	159.4878	170.445	335.0278	430.4424	484.3413	525.8332	597.2268	608.9684	739.0238	785.2578	792.0721	842.732	871.5864	925.4644	931.735	944.5294	959.0226	1000.7427	1031.6625	1049.1469	1061.6364	1092.0886	1127.938	1146.2085	1157.0067	1184.4133	1261.8304	1282.8389	1305.3248	1374.7916	1416.4056	1457.1866	1464.6004	1486.4207	1787.4967	3041.603	3057.2599	3102.5477	3120.865	3153.6203	3158.6536	3216.4068	3226.8516
CC(=O)C12OC3CC1C23	CC(=O)[C@@]12O[C@H]3C[C@@H]1[C@@H]23	
InChI=1S/C7H8O2/c1-3(8)7-4-2-5(9-7)6(4)7/h4-6H,2H2,1H3	InChI=1S/C7H8O2/c1-3(8)7-4-2-5(9-7)6(4)7/h4-6H,2H2,1H3/t4-,5+,6-,7-/m1/s1
