21
gdb 59095	2.05172	1.50208	0.97649	3.2943	79.55	-0.2378	-0.0183	0.2195	1270.0313	0.179788	-424.239055	-424.229028	-424.228084	-424.274057	37.153	
C	 0.0378408884	 1.5917348761	-0.065834815	-0.396831
C	-0.05735363	 0.0601116997	-0.0392260183	 0.028156
C	 0.577150145	-0.5693976504	-1.288065003	-0.404009
C	 0.5879708084	-0.5083526037	 1.2280158883	-0.093003
C	 0.0101821533	-0.1778889991	 2.6434672045	 0.070684
O	-1.3486310816	 0.1927683282	 2.5169027518	-0.425113
C	 0.2005915227	-1.6650475747	 3.0754062879	-0.365775
C	 0.410739268	-1.9961720039	 1.5871368592	 0.387914
O	 0.3604386396	-3.0082151107	 0.949686818	-0.299299
H	 1.0840592742	 1.9217723301	-0.0648446052	 0.103406
H	-0.4327370088	 1.9907925502	-0.9706820469	 0.110177
H	-0.4645456702	 2.0322463128	 0.799189856	 0.12693
H	-1.1184644515	-0.2124170649	-0.0153935454	 0.092129
H	 1.6371010713	-0.2974719758	-1.3678292603	 0.104044
H	 0.509689879	-1.6595516613	-1.2583849344	 0.143938
H	 0.0764953019	-0.2140160268	-2.1947450398	 0.107253
H	 1.6661169065	-0.2905245404	 1.2268756726	 0.097783
H	 0.5745196983	 0.5615439307	 3.2228245121	 0.071586
H	-1.7338638091	 0.2326351997	 3.397862141	 0.288769
H	 1.1080785665	-1.8415432535	 3.6623455	 0.12741
H	-0.6477877421	-2.1472972625	 3.5678023468	 0.123851
61.7766	75.6691	144.8181	183.4514	231.2633	252.8038	291.2287	303.52	314.721	385.0524	409.9763	442.966	515.8062	566.9925	707.0456	741.1166	836.0634	892.1407	895.1581	936.8087	954.0736	971.6758	994.0763	1043.0323	1062.3722	1107.5162	1150.4511	1172.6267	1194.3339	1200.1595	1215.3541	1254.166	1269.9934	1320.4933	1345.971	1376.9717	1396.8314	1408.6065	1419.049	1427.7904	1489.0872	1495.28	1503.0078	1515.9624	1885.425	3008.112	3023.2061	3026.2721	3034.7537	3046.8705	3055.9751	3085.5107	3093.6763	3116.0842	3118.6147	3125.6585	3820.2559
CC(C)C1C(O)CC1=O	CC(C)[C@H]1[C@@H](O)CC1=O	
InChI=1S/C7H12O2/c1-4(2)7-5(8)3-6(7)9/h4-5,7-8H,3H2,1-2H3	InChI=1S/C7H12O2/c1-4(2)7-5(8)3-6(7)9/h4-5,7-8H,3H2,1-2H3/t5-,7-/m0/s1
