20
gdb 116542	1.82712	1.30829	0.79807	1.9007	81.8	-0.2159	-0.021	0.1949	1466.4283	0.169444	-436.502741	-436.49186	-436.490916	-436.539485	38.329	
C	 0.3961220532	 0.8409225606	 0.7227789906	-0.372004
C	 0.0928706457	-0.3612112896	-0.1738758295	-0.137902
N	-1.3366043949	-0.5861867567	-0.2205205882	-0.321078
C	-1.953342699	-1.2136170306	-1.1492381551	 0.258063
N	-3.3100700886	-1.3462854097	-1.1125265123	-0.293529
C	-4.1083698859	-0.6420914256	-0.1363060168	-0.306681
C	-1.419635278	-1.9145619468	-2.4115975797	 0.362847
N	-0.1317912084	-2.3380456344	-2.3858992217	-0.524842
O	-2.1479238452	-2.0873514917	-3.374843328	-0.374626
H	 1.4748939033	 1.0137382204	 0.7958411099	 0.101078
H	-0.0740166099	 1.7423389454	 0.3187423418	 0.119982
H	-0.0033452112	 0.6762802422	 1.7272858543	 0.122329
H	 0.535692848	-0.1872862517	-1.1664332923	 0.098871
H	 0.6068766881	-1.2409128682	 0.2554159591	 0.08772
H	-3.719513597	-1.6329111	-1.9888905589	 0.262227
H	-5.1587224856	-0.9020878193	-0.2834822753	 0.117972
H	-3.8065115279	-0.9292846028	 0.8750920091	 0.139526
H	-3.9891950287	 0.4471588179	-0.2130022448	 0.124979
H	 0.4257270065	-2.3097256742	-1.5515668391	 0.269078
H	 0.1946067155	-2.8717319054	-3.175730043	 0.265989
29.1803	101.11	125.3919	130.2703	155.2767	196.6885	218.9942	280.1016	299.1109	338.0931	366.6652	396.3278	454.7739	535.2959	588.5842	631.8691	648.0782	750.6647	810.4228	826.7554	946.3471	1056.9676	1066.2396	1102.8335	1117.7652	1143.2246	1156.005	1211.4631	1276.1625	1309.2602	1360.2658	1396.6071	1408.8893	1453.6674	1472.5711	1485.8342	1487.8157	1505.4219	1509.7375	1545.7538	1615.2612	1715.4801	1774.6854	2922.6865	2989.7841	3013.518	3038.6039	3082.3618	3111.0119	3120.1748	3130.2855	3602.1465	3621.743	3743.1089
CCN=C(NC)C(N)=O	CCN=C(NC)C(=O)N	
InChI=1S/C5H11N3O/c1-3-8-5(7-2)4(6)9/h3H2,1-2H3,(H2,6,9)(H,7,8)	InChI=1S/C5H11N3O/c1-3-8-5(7-2)4(6)9/h3H2,1-2H3,(H2,6,9)(H,7,8)
