20
gdb 30743	2.89784	1.25623	0.93775	1.81	83.54	-0.1865	0.0573	0.2438	1302.1837	0.169569	-403.183317	-403.17316	-403.172216	-403.218536	36.245	
C	 0.2759162897	 0.9122289225	-0.5385286215	-0.246875
O	-0.268408565	 0.2811077194	 0.6206885542	-0.268974
C	-1.3377360869	-0.5229783788	 0.3812408886	 0.283448
C	-1.4049106145	-1.8672285475	 0.0977991932	 0.092686
C	-0.2412359836	-2.7963395859	-0.0599261655	-0.513916
C	-2.800864774	-2.1921785563	 0.00023209	 0.202189
C	-3.372695947	-3.5450947034	-0.2953019216	-0.502412
C	-3.5110261593	-1.0376816615	 0.2290185131	-0.183715
N	-2.6140005477	-0.0163939739	 0.4498292152	-0.312699
H	 1.12607359	 1.5090311907	-0.2006777347	 0.128539
H	 0.6162888094	 0.1697537199	-1.2698808957	 0.123845
H	-0.461005244	 1.5691568387	-1.0184226451	 0.11226
H	-0.3296386366	-3.6706516647	 0.5962634167	 0.121156
H	-0.1474335799	-3.178646171	-1.0844656838	 0.116701
H	 0.6932593552	-2.2877200467	 0.1939231401	 0.123661
H	-3.0487359928	-4.2943864663	 0.4377518716	 0.12051
H	-4.4665012175	-3.5215996794	-0.2800641975	 0.115872
H	-3.0650223412	-3.9160036018	-1.2811414251	 0.118981
H	-4.5746845355	-0.861761661	 0.2548393583	 0.110795
H	-2.8348761288	 0.923342287	 0.7281770995	 0.257948
58.3504	122.1038	129.2945	148.4488	153.7729	222.031	227.0353	273.7832	286.8952	380.5005	461.5895	502.4006	561.5722	645.5956	689.2986	700.5255	723.4911	752.0105	939.6077	1001.2923	1031.0636	1052.5569	1075.3317	1095.1145	1132.9761	1174.0689	1203.0652	1212.7516	1256.1148	1332.2194	1405.7189	1413.281	1422.9022	1457.2024	1480.0511	1483.4441	1486.851	1490.7972	1500.1453	1503.9222	1508.97	1573.076	1655.085	3008.1049	3014.6929	3016.1181	3058.749	3059.6217	3072.9626	3099.7779	3105.8401	3126.1615	3257.202	3686.5048
COC1=C(C)C(C)=CN1	COc1c(C)c(C)c[nH]1	
InChI=1S/C7H11NO/c1-5-4-8-7(9-3)6(5)2/h4,8H,1-3H3	InChI=1S/C7H11NO/c1-5-4-8-7(9-3)6(5)2/h4,8H,1-3H3
