22
gdb 107017	2.85615	1.24733	1.03933	2.8377	81.64	-0.2317	0.0674	0.2991	1255.6647	0.19375	-404.315101	-404.305513	-404.304569	-404.349306	36.503	
C	 0.0275855214	 1.470690106	 0.4132517658	-0.375219
C	-0.0083824439	 0.0228499818	-0.0981371342	-0.313398
C	-1.3953696155	-0.5413167629	-0.2067030353	 0.368065
N	-2.1572317994	-0.9741403458	 0.9988158185	-0.399023
C	-1.8763752995	-1.9464965385	-0.0949878444	-0.169181
C	-3.0088841097	-1.6976202119	-1.0964569413	 0.139607
O	-4.3116142714	-1.8744139703	-0.6134263635	-0.434179
C	-2.4667149742	-0.2134049381	-1.2674543295	-0.07861
C	-3.436074284	 0.9339921574	-1.0251268487	-0.41356
H	 1.0574050571	 1.8319209245	 0.491099696	 0.113927
H	-0.512506105	 2.1417459546	-0.2616267269	 0.126932
H	-0.4362451603	 1.5517502838	 1.4013506118	 0.122897
H	 0.4720933684	-0.0294775721	-1.0836398417	 0.104883
H	 0.5867483891	-0.6182898165	 0.56649669	 0.093491
H	-1.4843809105	-1.1523051601	 1.7433783448	 0.22689
H	-1.3339903667	-2.8624496241	 0.110885338	 0.088978
H	-2.92282472	-2.2784272569	-2.017383579	 0.083143
H	-4.2956636648	-1.5308786829	 0.2906872075	 0.291219
H	-1.9934231798	-0.1194244887	-2.2512538511	 0.067616
H	-3.8029667767	 0.9241065965	 0.0042551317	 0.125185
H	-2.9591553111	 1.9033424923	-1.2048744805	 0.107827
H	-4.3003388035	 0.8548160119	-1.6920102079	 0.12251
75.5253	109.1939	160.5405	189.187	208.9657	227.3053	278.1426	320.3385	366.5548	462.479	514.5697	596.4346	609.3089	665.9595	691.0467	768.4	797.5832	874.9346	885.9098	919.2676	959.2847	984.2014	1012.4919	1030.9576	1061.0853	1100.5174	1108.7353	1115.0098	1137.1333	1151.4035	1202.8354	1229.5467	1263.0511	1287.049	1311.1359	1339.365	1360.7072	1372.5665	1405.0011	1410.4815	1440.3387	1453.6448	1477.5767	1486.7939	1498.6228	1503.7583	1508.3642	3011.2548	3035.9965	3039.3643	3043.7059	3046.9158	3090.5357	3100.1464	3110.2102	3111.5783	3121.3766	3176.3931	3477.986	3747.8126
CCC12NC1C(O)C2C	CC[C@]12N[C@H]1[C@@H](O)[C@H]2C	
InChI=1S/C7H13NO/c1-3-7-4(2)5(9)6(7)8-7/h4-6,8-9H,3H2,1-2H3	InChI=1S/C7H13NO/c1-3-7-4(2)5(9)6(7)8-7/h4-6,8-9H,3H2,1-2H3/t4-,5+,6+,7-/m1/s1
