16
gdb 33354	5.9672	0.6812	0.64329	5.7223	90.14	-0.2646	-0.0371	0.2275	1676.8378	0.125542	-363.614996	-363.606811	-363.605867	-363.648732	29.712	
N	-0.1053357619	-3.7593288891	-0.1948643562	-0.340574
C	-0.0778208962	-2.5984655505	-0.1499389526	 0.203967
C	-0.0456715393	-1.2351731435	-0.0972178906	 0.010574
C	-0.0166546134	-0.0273380663	-0.0481774651	 0.129425
C	 0.0216083466	 1.4245496664	 0.0144381932	-0.224453
C	-0.616758749	 2.0125195985	 1.3159245575	-0.220356
C	 0.2352230138	 3.2601065743	 1.6534666757	-0.25986
C	 1.5291330478	 3.0029176516	 0.9204331005	-0.062559
C	 1.4287769027	 2.0124150696	 0.0393404186	-0.061641
H	-0.5115044049	 1.8032044411	-0.8717306692	 0.126415
H	-1.678641306	 2.2295265304	 1.1865693386	 0.116262
H	-0.5231546553	 1.2733813382	 2.1153854858	 0.127933
H	-0.2339347465	 4.1854978215	 1.2916984222	 0.116491
H	 0.3725453354	 3.3865618874	 2.7325401126	 0.116263
H	 2.4199894338	 3.6002934227	 1.0789835668	 0.107336
H	 2.2044123023	 1.6603300175	-0.6291368177	 0.114778
61.712	78.059	135.1905	218.3519	242.9575	381.2016	426.1923	503.5233	563.5703	584.9358	589.8683	735.9391	763.7573	802.8664	850.0888	898.4929	925.4335	972.9143	994.4601	1023.2196	1063.6438	1126.7974	1162.2166	1185.8661	1219.5268	1267.62	1296.925	1315.2035	1335.3688	1374.4641	1483.1211	1498.6383	1687.6637	2261.7503	2397.3257	2981.2589	3015.7452	3063.0387	3076.7881	3124.7455	3193.1161	3222.808
N#CC#CC1CCC=C1	N#CC#C[C@H]1CCC=C1	
InChI=1S/C8H7N/c9-7-3-6-8-4-1-2-5-8/h1,4,8H,2,5H2	InChI=1S/C8H7N/c9-7-3-6-8-4-1-2-5-8/h1,4,8H,2,5H2/t8-/m1/s1
