18
gdb 59163	2.89781	1.19804	1.07018	3.9113	73.6	-0.2581	0.0167	0.2748	1196.2222	0.146307	-439.048835	-439.040085	-439.039141	-439.082837	32.796	
C	 0.1300986095	 1.2926991428	-0.3632337981	-0.405574
C	 0.0902383011	-0.1544586351	 0.13055403	 0.10822
O	 0.6301847705	-0.2806375051	 1.4408157343	-0.423306
C	-1.3185013497	-0.720868199	 0.0654934447	-0.063896
C	-1.9389451657	-1.3355793261	-1.1382273768	 0.065202
O	-0.9370516468	-2.0334840789	-1.9245229537	-0.275568
C	-0.7356136462	-2.9296992691	-0.8659665735	 0.45126
N	-0.0550168231	-3.9785794993	-0.818223434	-0.551232
C	-1.6626188687	-2.2173320869	 0.0632761116	-0.22703
H	 1.1459535954	 1.6880631705	-0.2822827789	 0.129515
H	-0.1910775135	 1.3607637386	-1.4071949288	 0.126929
H	-0.5344476195	 1.9297616971	 0.2347935528	 0.103593
H	 0.7447979253	-0.76346719	-0.4983886303	 0.113368
H	 0.139522096	 0.3104600167	 2.022664871	 0.275783
H	-2.0423357747	-0.162971057	 0.6619284845	 0.094277
H	-2.8541178788	-1.0588793277	-1.6438375066	 0.12321
H	 0.4211290428	-4.1530039566	-1.7047787723	 0.231883
H	-2.316678064	-2.6754841048	 0.789860594	 0.123366
42.1592	102.2718	165.1846	237.237	250.4121	273.2435	346.1589	427.3378	441.3736	482.6774	588.7481	693.5389	732.8849	788.5476	828.0455	865.2708	874.7428	905.436	940.7127	962.7375	982.9326	1031.0431	1051.0806	1053.1171	1082.3945	1086.6151	1114.2707	1190.3232	1199.4029	1278.1778	1294.5463	1319.7322	1348.6775	1402.9996	1414.6547	1443.262	1492.9996	1494.7576	1833.7597	3023.4132	3079.131	3097.7751	3108.1575	3123.5874	3211.3155	3235.7	3480.7898	3798.0491
CC(O)C1C2OC(=N)C12	C[C@@H](O)[C@H]1[C@H]2O[C]([NH])[C@@H]12	
InChI=1S/C6H9NO2/c1-2(8)3-4-5(3)9-6(4)7/h2-5,7-8H,1H3	InChI=1S/C6H9NO2/c1-2(8)3-4-5(3)9-6(4)7/h2-5,7-8H,1H3/t2-,3-,4+,5-/m1/s1
