19
gdb 97106	2.49682	1.3358	0.99741	2.9541	80.36	-0.2433	0.0194	0.2627	1255.5675	0.158312	-419.17392	-419.164593	-419.163649	-419.208365	33.523	
C	 0.0314157604	 1.4152289842	 0.0146264221	-0.340892
N	 0.2562424037	-0.0207071517	-0.0651804481	-0.337322
C	 0.558507747	-0.6563607546	 0.9660385907	 0.451415
O	 0.7503379387	-0.2249644738	 2.2814987972	-0.282365
C	 1.0311146785	-1.5796720674	 2.7415695288	-0.155411
C	 0.8746547423	-2.0802694777	 1.3052837256	 0.1523
N	 0.1886824766	-3.2592434715	 0.7921086133	-0.365979
C	 1.6359491567	-3.1090170097	 0.5522936206	-0.067798
C	 2.0690435917	-2.8932469674	-0.8761768895	-0.400691
H	 0.7451194068	 1.9262869143	-0.6411577525	 0.127788
H	-0.9701904443	 1.6405108384	-0.367381374	 0.129758
H	 0.1250310793	 1.8283123245	 1.0256038271	 0.126736
H	 2.0276797751	-1.6486781482	 3.186843647	 0.122062
H	 0.2703751477	-1.9192783765	 3.4519263581	 0.119932
H	 0.0089290835	-3.9137463061	 1.5505944513	 0.234382
H	 2.2992232126	-3.7258477786	 1.1593442008	 0.088124
H	 1.3848629147	-2.2051213	-1.37692737	 0.161546
H	 3.0774828894	-2.4679669201	-0.9118599381	 0.11663
H	 2.0795882495	-3.8428395981	-1.4212788904	 0.119785
79.6466	107.6255	121.6382	155.7139	206.1282	222.9466	243.1746	323.1517	409.8212	449.6794	501.6924	654.5244	707.2335	752.3359	794.2859	872.2753	923.3268	966.7743	981.6836	1028.5362	1048.7903	1074.4331	1083.479	1115.8783	1130.7909	1133.187	1148.734	1176.4267	1233.134	1272.3186	1309.3451	1372.7034	1416.4661	1440.0038	1475.132	1490.8442	1493.4187	1496.9296	1507.84	1511.655	1850.7352	3017.7712	3038.378	3043.5669	3082.9869	3088.866	3099.4313	3101.2759	3102.6562	3140.4094	3490.9864
CN=C1OCC11NC1C	CN=C1OC[C@]21N[C@H]2C	
InChI=1S/C6H10N2O/c1-4-6(8-4)3-9-5(6)7-2/h4,8H,3H2,1-2H3	InChI=1S/C6H10N2O/c1-4-6(8-4)3-9-5(6)7-2/h4,8H,3H2,1-2H3/t4-,6-/m0/s1
