15
gdb 21276	3.57732	2.0101	1.30821	2.6729	63.23	-0.232	0.0276	0.2596	906.3608	0.120259	-396.002169	-395.994299	-395.993355	-396.035147	26.658	
C	 0.0039842274	 1.3773423291	 0.0987847006	-0.239302
O	-0.0234090792	-0.0542320678	 0.0583297157	-0.272237
C	-1.2412759405	-0.593105975	 0.0160569848	 0.512227
N	-2.405456418	 0.024174276	 0.0077084868	-0.386702
C	-3.2761529771	-1.0274490909	-0.0413363307	 0.030202
N	-2.7281683006	-2.2253329294	-0.0629926609	-0.263484
N	-1.3909048948	-1.9335309076	-0.0249848093	-0.057192
C	-0.3858827437	-2.9714904285	-0.0326288525	-0.333621
H	 1.0589262118	 1.6503643588	 0.128216174	 0.135232
H	-0.4764717883	 1.7959697252	-0.7894745282	 0.146611
H	-0.5131204323	 1.7464074576	 0.9884667836	 0.146521
H	-4.3478080759	-0.8954877556	-0.061309463	 0.124229
H	-0.4696892784	-3.5725906674	-0.9419315959	 0.150166
H	 0.5956086329	-2.4978771532	 0.0023748708	 0.157188
H	-0.5085434432	-3.6232978812	 0.8364384441	 0.150163
63.7076	94.557	151.7378	185.5415	209.092	319.2416	332.8391	540.4752	652.9277	670.9588	743.2994	791.757	899.8789	982.3701	1020.3394	1064.5389	1155.8037	1183.0866	1202.5652	1220.8844	1246.6513	1293.1575	1315.1462	1446.4304	1454.7812	1473.7829	1479.5147	1481.2043	1500.5571	1515.6914	1568.929	1609.4083	3048.5283	3052.4035	3117.1592	3123.962	3158.172	3159.0967	3257.2329
COC1=NC=NN1C	COc1ncnn1C	
InChI=1S/C4H7N3O/c1-7-4(8-2)5-3-6-7/h3H,1-2H3	InChI=1S/C4H7N3O/c1-7-4(8-2)5-3-6-7/h3H,1-2H3
