23
gdb 103467	2.32765	1.47713	1.13276	1.4992	85.87	-0.2244	0.0829	0.3073	1220.5934	0.203911	-388.262036	-388.252128	-388.251184	-388.296133	37.773	
C	 0.1673251594	 1.3415437669	-0.4577381296	-0.38035
C	-0.0634574019	 0.0131151306	 0.2741513508	-0.258048
C	-1.4783897043	-0.5341112119	 0.1418626174	 0.279391
C	-2.5290672573	 0.2278573213	 0.9341232712	-0.46745
C	-2.0166687063	-1.0906511021	-1.1785931673	-0.230677
C	-0.9364946258	-1.8779045864	-1.9018662576	-0.114471
O	-0.637842568	-2.6455057538	-0.7068575689	-0.319229
C	-1.7283916502	-2.0171282803	-0.0050451728	 0.404531
C	-2.5301690944	-2.9231440144	 0.8739735131	-0.491621
H	 1.2056085631	 1.6709127192	-0.3502386915	 0.111095
H	-0.0437370723	 1.2450965748	-1.528167235	 0.11517
H	-0.4716542647	 2.1405038339	-0.067362781	 0.113031
H	 0.6441532938	-0.7384113804	-0.0866267889	 0.11831
H	 0.1555845558	 0.143662041	 1.3424003965	 0.088319
H	-2.5526435475	 1.2815768736	 0.6361977811	 0.12082
H	-3.5349342409	-0.1724650069	 0.7765746088	 0.114278
H	-2.3164359792	 0.1911938345	 2.0087854496	 0.116543
H	-2.9572217169	-0.7650541326	-1.6053309851	 0.089041
H	-1.3252554509	-2.5339444447	-2.6896371983	 0.105952
H	-0.0616129228	-1.334750937	-2.2788254265	 0.102416
H	-1.8859728473	-3.347058968	 1.6534142678	 0.131826
H	-3.3465205267	-2.3896192243	 1.3655345553	 0.124739
H	-2.9505097848	-3.7546687829	 0.2996768208	 0.126382
93.4062	141.4679	167.7223	187.2894	207.563	244.641	276.5557	284.8373	325.8737	356.4202	371.8969	503.7453	550.6667	647.7481	682.5978	766.3273	799.205	862.2384	921.7882	929.8618	952.8397	984.7387	996.2322	1009.7561	1038.6929	1042.8196	1079.779	1116.6882	1130.4654	1159.8831	1162.9776	1217.9702	1228.0644	1279.7685	1319.8089	1340.0331	1364.1473	1402.036	1408.7773	1419.3545	1447.9569	1475.5287	1488.37	1491.5885	1495.5921	1503.1899	1509.8532	1513.2694	1521.5917	3018.3859	3020.4598	3027.2242	3032.7527	3034.3193	3062.5514	3082.1649	3088.4181	3093.212	3100.9804	3101.8567	3105.8422	3128.9586	3185.8409
CCC1(C)C2COC12C	CC[C@@]1(C)[C@H]2CO[C@@]12C	
InChI=1S/C8H14O/c1-4-7(2)6-5-9-8(6,7)3/h6H,4-5H2,1-3H3	InChI=1S/C8H14O/c1-4-7(2)6-5-9-8(6,7)3/h6H,4-5H2,1-3H3/t6-,7+,8-/m1/s1
