19
gdb 53344	3.48212	0.98672	0.89737	1.8031	84.3	-0.2362	0.028	0.2642	1388.5093	0.158551	-385.831361	-385.822402	-385.821458	-385.86708	32.213	
C	 0.3608790393	 1.6329669281	-0.488615478	-0.499861
C	 0.2194851152	 0.2042844909	-0.2507221854	 0.06975
C	 0.1094936878	-0.9786879847	-0.0493319962	 0.097767
C	-0.0188598294	-2.4054014101	 0.1826768214	-0.059747
O	 0.0140787609	-2.79246382	 1.5891699236	-0.30521
C	-1.2014004478	-3.5612975011	 1.4601109426	 0.128221
C	-2.4562547682	-2.7764488254	 1.9014815531	-0.228884
C	-2.6230800138	-2.2500485197	 0.4390548599	-0.235251
C	-1.398460928	-3.0912420227	-0.0069251712	-0.096543
H	 1.3811501585	 1.8883680585	-0.7949586536	 0.151013
H	-0.3188480715	 1.9721941712	-1.2780560406	 0.150345
H	 0.1305669583	 2.2071414809	 0.4154655498	 0.153617
H	 0.7746050646	-2.9393636274	-0.359152515	 0.097566
H	-1.0716009169	-4.5955913895	 1.7896674637	 0.073268
H	-3.2791325367	-3.4177876508	 2.2295293262	 0.098242
H	-2.2569932071	-2.0285169931	 2.6716267428	 0.113024
H	-3.5557422316	-2.5643911961	-0.034034861	 0.101215
H	-2.5081267356	-1.1729061966	 0.2998451876	 0.115065
H	-1.5029823179	-3.7456718223	-0.8709388697	 0.076403
19.7172	56.2365	96.2686	140.4274	247.845	319.0362	359.0574	383.4325	475.321	526.5106	662.4965	730.8285	764.2058	821.9024	839.6502	896.5076	927.3569	945.133	980.8577	998.4704	1044.5703	1051.4042	1052.756	1062.5781	1127.019	1172.8922	1187.0813	1204.8831	1233.0766	1253.8757	1272.483	1297.0956	1301.4725	1325.895	1370.4867	1413.4394	1462.6935	1475.8493	1478.1473	1485.6995	2363.2699	2995.8202	3028.3451	3057.3436	3068.7235	3073.7141	3089.642	3091.0736	3111.4527	3121.0409	3130.5638
CC#CC1OC2CCC12	CC#C[C@H]1O[C@H]2CC[C@@H]12	
InChI=1S/C8H10O/c1-2-3-7-6-4-5-8(6)9-7/h6-8H,4-5H2,1H3	InChI=1S/C8H10O/c1-2-3-7-6-4-5-8(6)9-7/h6-8H,4-5H2,1H3/t6-,7+,8-/m0/s1
