17
gdb 77730	2.81203	1.65923	1.54187	1.3518	66.57	-0.2254	0.0609	0.2863	934.7419	0.13611	-458.892341	-458.884908	-458.883964	-458.923805	29.462	
O	-0.0399158235	 1.355015791	-0.0801127678	-0.416242
C	-0.0467884337	-0.0315520962	 0.0207100191	 0.000308
C	-0.4822827176	-0.748852235	 1.2832707499	 0.202838
C	-1.5831157259	-0.0333192867	 2.09062858	-0.286229
C	-2.4868307747	-0.028364415	 0.8069009848	-0.289001
C	-1.3594889764	-0.7499865607	 0.0466997559	 0.260431
O	-1.3801590968	-2.0658199479	-0.4287052133	-0.281774
C	-0.93468445	-2.8633161068	 0.6729182643	-0.000212
O	-0.0385916336	-2.0655637375	 1.454811622	-0.278647
H	 0.7215318346	 1.6857029541	 0.4093068886	 0.294174
H	 0.7250302746	-0.569738814	-0.5271853575	 0.109288
H	-1.9796238358	-0.6698656203	 2.8835558639	 0.116252
H	-1.3114907464	 0.9367264094	 2.5133555561	 0.105957
H	-3.3715206075	-0.6586325554	 0.9117575083	 0.114979
H	-2.7784543814	 0.9436821898	 0.4054924261	 0.121973
H	-1.7938717739	-3.1796113433	 1.2853864967	 0.098763
H	-0.3947181621	-3.7320525455	 0.2881328529	 0.127144
187.0656	196.3326	214.0526	259.0239	317.7255	387.3963	390.1314	494.9657	547.0228	707.1035	710.2849	754.2702	771.8923	792.1396	841.1978	920.7405	946.4775	963.8587	1003.6523	1018.3116	1076.484	1138.2559	1158.2905	1159.6253	1189.6926	1213.6426	1233.9426	1240.6097	1247.6333	1280.1403	1296.3947	1310.6541	1409.2301	1453.3718	1464.6803	1493.5077	1536.5726	2978.2303	3067.6437	3077.9208	3105.0869	3121.0752	3127.7526	3140.5873	3800.7325
OC1C23CCC12OCO3	O[C@H]1[C@@]23CC[C@@]12OCO3	
InChI=1S/C6H8O3/c7-4-5-1-2-6(4,5)9-3-8-5/h4,7H,1-3H2	InChI=1S/C6H8O3/c7-4-5-1-2-6(4,5)9-3-8-5/h4,7H,1-3H2/t4-,5-,6+
