13
gdb 129187	5.68884	1.05176	0.88765	2.8135	79.53	-0.2388	-0.0875	0.1513	1195.9633	0.091967	-411.810477	-411.803364	-411.802419	-411.842262	26.7	
N	-0.0748957988	 1.3649283441	 0.010935267	-0.544152
C	-0.0248789481	 0.087172056	 0.0035943876	 0.395618
N	 1.1620114907	-0.6788436499	-0.00796441	-0.297822
N	 1.2929475114	-2.0008857228	-0.0160444406	-0.22142
C	 0.1898364019	-2.7027594935	-0.0130748491	 0.207634
C	-1.1184766818	-2.0913355563	-0.0016089002	-0.148249
C	-1.2159420883	-0.7471557781	 0.0063860523	-0.094804
C	 0.3264023023	-4.1272291706	-0.0217522522	 0.25102
N	 0.3784225101	-5.2832890714	-0.0284303663	-0.321938
H	 0.852449134	 1.7921937022	 0.0075451093	 0.209041
H	 2.0456749092	-0.1875278979	-0.0107318242	 0.276899
H	-1.9947033057	-2.728529126	 0.0003154051	 0.142791
H	-2.1661311168	-0.2282824056	 0.0151245413	 0.145381
86.609	157.5348	219.1828	367.5154	418.2915	438.5554	475.3201	557.4685	559.5687	649.7744	664.2328	723.9556	764.9628	803.8131	820.2034	870.106	1002.0862	1021.8633	1087.9862	1167.2215	1242.8712	1270.382	1327.809	1432.4644	1458.6624	1566.8393	1645.1825	1725.5812	2349.2711	3206.549	3228.0593	3465.1516	3593.6792
N=C1NN=C(C=C1)C#N	[NH]C1=CCC(=NN1)C#N	
InChI=1S/C5H4N4/c6-3-4-1-2-5(7)9-8-4/h1-2H,(H2,7,9)	InChI=1S/C5H5N4/c6-3-4-1-2-5(7)9-8-4/h2,7,9H,1H2
