15
gdb 83062	2.82403	1.52987	1.27158	5.9179	71.1	-0.2359	-0.0069	0.2291	997.3632	0.114675	-412.98328	-412.975491	-412.974547	-413.015351	29.601	
N	 0.0695965446	 1.4293935939	 0.0676904169	-0.51832
C	-0.0209119648	 0.0150318006	-0.0325528219	-0.042113
C	-1.3413039586	-0.6816078645	 0.0417988617	-0.090883
N	-2.4720231634	 0.1214782661	-0.3344865788	-0.2964
C	-2.3335477333	 0.4337656575	-1.6789695408	 0.018974
N	-1.2801116855	 0.0002944481	-2.2691291073	-0.273157
C	-0.5293363337	-0.7428808319	-1.2978095947	 0.170093
C	 0.1989494808	-1.8945062066	-1.7431664701	 0.228894
N	 0.8046662222	-2.8299684484	-2.0551551375	-0.349555
H	 0.6743919228	 1.8256646263	-0.6429798638	 0.249114
H	-0.8429199075	 1.8630897071	-0.0116421587	 0.245374
H	 0.7840590096	-0.5293306672	 0.454316726	 0.125079
H	-1.513830539	-1.5176590697	 0.7078654937	 0.128537
H	-3.3818388484	-0.0714421343	 0.0558274181	 0.262376
H	-3.084539176	 1.0460867931	-2.1662627027	 0.141986
136.6108	165.0493	178.981	243.1617	255.1583	408.4963	464.0961	473.1019	522.8535	561.339	599.0611	700.9597	735.8488	765.8328	805.0519	904.3022	906.8427	945.7833	981.4175	1031.5618	1068.3233	1111.5827	1131.9833	1209.8193	1264.9481	1278.7233	1317.5482	1366.1171	1412.2182	1460.8547	1636.0537	1657.3232	2347.7137	3145.3916	3194.5638	3206.5787	3520.4598	3600.5987	3620.3596
NC1C2NC=NC12C#N	N[C@H]1[C@H]2NC=N[C@@]12C#N	
InChI=1S/C5H6N4/c6-1-5-3(7)4(5)8-2-9-5/h2-4H,7H2,(H,8,9)	InChI=1S/C5H6N4/c6-1-5-3(7)4(5)8-2-9-5/h2-4H,7H2,(H,8,9)/t3-,4+,5-/m0/s1
