19
gdb 110775	2.68484	1.32321	1.15289	3.9028	74.5	-0.2286	0.0512	0.2798	1155.0938	0.16108	-419.243798	-419.23531	-419.234365	-419.277269	32.306	
C	 0.0346452633	 1.4037111289	-0.2845952174	-0.368941
C	-0.0187685575	-0.0307439519	 0.2560516904	-0.227924
C	-1.4000259001	-0.6375897055	 0.1506813762	-0.036433
C	-1.9421703886	-1.2922002298	-1.1151621551	-0.033945
N	-1.0266179901	-1.7986503643	-2.0953471026	-0.330096
C	-0.1389940743	-2.7208754898	-1.5472600722	 0.406599
O	 0.8676876128	-3.1548070542	-2.0595084708	-0.406045
N	-0.6424461239	-3.0403605743	-0.2884175896	-0.329559
C	-1.6782365849	-2.1343574325	 0.1141797966	-0.054051
H	 1.0374463777	 1.8283732389	-0.1787547043	 0.117153
H	-0.2329376602	 1.4350892097	-1.3460536384	 0.113541
H	-0.6633853827	 2.0563674192	 0.2509164546	 0.114745
H	 0.7104989167	-0.6477421511	-0.2776768145	 0.123777
H	 0.2925672829	-0.0383092228	 1.3085733568	 0.101509
H	-2.1713296695	-0.0898289051	 0.689777835	 0.087868
H	-2.946890365	-1.0746372895	-1.4596529428	 0.105215
H	-0.7002199993	-1.2492624345	-2.873246755	 0.25553
H	-0.0048497264	-3.4614848992	 0.3673498854	 0.255318
H	-2.4823102908	-2.5546817123	 0.7078443377	 0.105739
57.1753	113.491	154.0002	219.3058	284.1043	307.0987	398.3545	466.6129	489.0533	547.5848	608.062	694.6261	739.3705	758.3789	775.8735	803.632	815.8817	907.889	952.8332	989.3396	1025.4946	1047.0714	1066.4573	1091.6846	1123.7497	1145.258	1160.715	1228.4597	1255.096	1292.467	1337.6081	1370.3881	1375.2286	1398.4126	1403.3918	1412.6926	1440.0615	1487.435	1498.9003	1506.076	1848.0846	3027.0306	3032.9715	3076.8772	3102.3928	3107.1143	3124.3365	3161.2923	3170.9657	3651.2809	3654.3655
CCC1C2NC(=O)NC12	CC[C@H]1[C@H]2NC(=O)N[C@@H]12	
InChI=1S/C6H10N2O/c1-2-3-4-5(3)8-6(9)7-4/h3-5H,2H2,1H3,(H2,7,8,9)	InChI=1S/C6H10N2O/c1-2-3-4-5(3)8-6(9)7-4/h3-5H,2H2,1H3,(H2,7,8,9)/t3-,4+,5-
