22
gdb 79202	2.33555	1.90564	1.39682	0.9639	86.05	-0.2087	0.0891	0.2978	1046.5841	0.195546	-367.149997	-367.141882	-367.140938	-367.182003	33.119	
C	-0.1494396065	 1.5069671615	 0.010509483	-0.323393
N	 0.1148731277	 0.0759958743	 0.0481853821	-0.130159
C	 1.2284003084	-0.6936763036	-0.4538123288	-0.087685
C	 2.7041982007	-0.2351916078	-0.3315860957	-0.055524
C	 3.1639006186	-1.1896431432	 0.8289227539	-0.208003
C	 2.1690027511	-0.2889355621	 1.6489659831	-0.086798
C	 2.688136869	 0.8679631205	 0.7584128329	-0.236805
C	 0.8287767868	-0.7467997318	 0.9998343701	 0.322109
C	 0.060061747	-1.847067825	 1.6896687342	-0.463331
H	 0.4725443931	 2.025186639	-0.7274842753	 0.12217
H	-1.197435984	 1.6693297445	-0.2717590902	 0.112409
H	 0.0039220052	 1.9829182956	 0.9855890856	 0.120502
H	 0.9984491447	-1.4746738348	-1.1765577703	 0.082271
H	 3.2755795261	-0.1270253489	-1.2539877373	 0.057924
H	 2.9236733929	-2.2524128965	 0.7322533926	 0.092537
H	 4.2122858229	-1.0622170219	 1.1158216787	 0.089703
H	 2.2016702112	-0.2385228105	 2.738211102	 0.055173
H	 3.7053299626	 1.1515047774	 1.0401938886	 0.093922
H	 2.0936111576	 1.7650611815	 0.6225013059	 0.093604
H	-0.4406769621	-1.469474882	 2.5897643242	 0.113185
H	-0.706832404	-2.2523522397	 1.0251624196	 0.123409
H	 0.723499181	-2.6615628266	 2.001601311	 0.11278
138.8045	196.0208	224.5303	227.3991	258.8162	291.5998	396.1191	509.2391	530.4474	575.36	626.1228	700.2617	745.0078	819.8958	839.0401	850.9116	867.0664	913.0355	932.5737	976.2699	992.4989	1011.6664	1031.5284	1056.1208	1076.8583	1087.4745	1104.0917	1124.536	1141.8606	1151.2671	1186.4038	1205.4779	1224.6286	1237.0051	1246.0728	1289.27	1297.6735	1319.2375	1403.9513	1425.9499	1460.5229	1483.7052	1487.5722	1498.4971	1500.4314	1519.7842	1535.6892	3005.1105	3023.726	3043.7839	3054.1483	3077.468	3080.1932	3086.4252	3102.1447	3103.7214	3106.9067	3120.0139	3120.8615	3191.8904
CN1C2C3CC(C3)C12C	CN1[C@H]2[C@@H]3C[C@@H](C3)[C@@]12C	
InChI=1S/C8H13N/c1-8-6-3-5(4-6)7(8)9(8)2/h5-7H,3-4H2,1-2H3	InChI=1S/C8H13N/c1-8-6-3-5(4-6)7(8)9(8)2/h5-7H,3-4H2,1-2H3/t5-,6+,7-,8+,9?/m0/s1
