16
gdb 16704	2.88452	2.43471	1.88655	2.5958	59.04	-0.2373	0.0472	0.2845	759.2596	0.132013	-420.846581	-420.839939	-420.838995	-420.876972	26.744	
O	 0.1320065092	 1.5415066967	 0.1236874666	-0.434775
C	 0.0332766464	 0.1329068373	 0.0680264242	 0.102997
C	 0.0541933669	-0.630681837	 1.4065295259	 0.051372
C	-1.0355473382	 0.0426396391	 2.2553314532	-0.263725
C	-2.149289102	 0.1096021547	 1.1535859591	 0.150005
O	-2.6189451135	 1.3964095604	 0.823986336	-0.450723
C	-1.3456956953	-0.5807986401	 0.0218414932	-0.014699
O	-0.6988820745	-1.6861659445	 0.7203041975	-0.29856
H	 0.3026912246	 1.873962371	-0.7627769984	 0.29851
H	 0.7319185577	-0.3088046141	-0.6471363005	 0.096881
H	 0.9747362093	-0.9712579679	 1.8792309211	 0.083429
H	-1.3103372733	-0.579685655	 3.1089030418	 0.110036
H	-0.7608923664	 1.0390870172	 2.6102856223	 0.112909
H	-3.0256523846	-0.4832863728	 1.4225811961	 0.093296
H	-1.8350719539	 1.918831071	 0.6072314017	 0.283512
H	-1.8607315825	-0.859535516	-0.8969402399	 0.079539
197.6458	231.2173	267.2488	325.7981	402.3481	462.3755	512.4664	565.1572	617.3166	745.4352	801.7852	838.3823	850.0835	871.6194	904.7734	959.3432	989.1215	1009.5055	1056.1256	1085.1522	1125.847	1139.5606	1175.2854	1185.5177	1214.6301	1266.2406	1273.4334	1287.9692	1309.7949	1330.6753	1345.6507	1426.7739	1467.509	1478.0386	3073.5384	3082.8177	3094.3464	3128.0526	3129.6458	3134.3641	3752.2457	3831.9542
OC1C2CC(O)C1O2	O[C@H]1[C@H]2C[C@@H](O)[C@@H]1O2	
InChI=1S/C5H8O3/c6-2-1-3-4(7)5(2)8-3/h2-7H,1H2	InChI=1S/C5H8O3/c6-2-1-3-4(7)5(2)8-3/h2-7H,1H2/t2-,3-,4+,5+/m1/s1
