19
gdb 33493	2.64197	1.2136	0.98315	0.9514	82.38	-0.2376	0.036	0.2736	1275.2317	0.156464	-385.811131	-385.802003	-385.801059	-385.845511	34.755	
C	 0.3101767821	-1.2526457985	 0.2921453561	-0.507337
C	 0.1495871519	-0.0743011693	 0.110820535	 0.313769
C	-0.0618088427	 1.334720384	-0.1119726653	 0.267829
C	 0.081137748	 2.2909826518	 1.0615106759	-0.314001
C	 1.1135311022	 2.2752886601	-0.0357137295	-0.3163
O	-0.9858801247	 1.6583477403	-1.1180915046	-0.279998
C	-2.2957203502	 1.2181159786	-0.8756968232	 0.130863
C	-3.2791225113	 2.1341731109	-0.1950840706	-0.287646
C	-3.3609076623	 1.8745242906	-1.6879285766	-0.291223
H	 0.4607605717	-2.2920802616	 0.448729056	 0.197842
H	-0.6136688721	 3.1211726508	 1.0850114401	 0.125733
H	 0.338104449	 1.8733429894	 2.027785558	 0.127155
H	 2.0885389978	 1.8489330808	 0.1657491684	 0.128974
H	 1.0983930654	 3.0880974426	-0.7525076598	 0.131179
H	-2.3702999927	 0.1503002098	-0.6834642311	 0.102629
H	-4.0275470709	 1.6985638174	 0.4579196147	 0.114131
H	-2.9228936448	 3.1109407307	 0.1100979102	 0.115963
H	-3.0419138973	 2.6768028685	-2.3436567562	 0.124783
H	-4.1669283891	 1.2627446131	-2.0767154474	 0.115654
41.9473	95.8008	142.5861	187.7552	214.9897	322.0388	367.9994	373.7386	464.7624	555.0339	573.7287	592.5002	680.2629	693.6696	755.4159	772.0294	819.0361	827.2854	898.5879	914.205	934.45	974.1761	1000.1429	1022.5852	1056.0301	1060.4931	1072.5218	1081.1813	1134.8698	1189.237	1193.3428	1196.7706	1236.9984	1263.0518	1308.5793	1399.2376	1449.4535	1454.7875	1481.9001	1498.4884	2230.3103	3133.0177	3137.4033	3142.6448	3146.1379	3149.3546	3220.5919	3233.7437	3235.3664	3248.0724	3501.4795
C#CC1(CC1)OC1CC1	C#CC1(CC1)OC1CC1	
InChI=1S/C8H10O/c1-2-8(5-6-8)9-7-3-4-7/h1,7H,3-6H2	InChI=1S/C8H10O/c1-2-8(5-6-8)9-7-3-4-7/h1,7H,3-6H2
