17
gdb 14081	3.52949	1.69671	1.39228	3.7958	70.89	-0.2289	-0.0265	0.2025	942.1671	0.140944	-363.83692	-363.829059	-363.828114	-363.869226	29.093	
C	-0.0476779103	 1.4251919783	-0.2289851468	-0.317283
N	 0.1182634984	-0.0129841325	-0.0604120575	-0.117425
C	 1.4741292415	-0.5243870563	-0.0500213734	-0.296264
C	 0.6667848695	-0.4682327487	 1.2103217197	 0.25037
C	 0.9804421557	 0.3100044441	 2.5078494671	-0.333325
C	 0.5690968619	-0.9468107631	 3.3386410876	-0.346602
C	 0.1580778197	-1.644091678	 2.0214102585	 0.34737
O	-0.3466046859	-2.6942930347	 1.7516024876	-0.298443
H	 0.7569660694	 2.0233061624	 0.2279410472	 0.104759
H	-0.0770057673	 1.6491167694	-1.2994214328	 0.132708
H	-1.0014759677	 1.7338119197	 0.2094236928	 0.129736
H	 1.6276027512	-1.4789823548	-0.5463423935	 0.134101
H	 2.2992068793	 0.1847544514	-0.1235895416	 0.112137
H	 2.0160176795	 0.6316743159	 2.6305366076	 0.113564
H	 0.3243189105	 1.1684777642	 2.6715734047	 0.11637
H	 1.3913620117	-1.4534214126	 3.8516517389	 0.134236
H	-0.2504275272	-0.8092258247	 4.0485904439	 0.133993
76.9815	130.4445	192.0764	214.6195	267.8228	342.078	417.6017	512.573	522.9359	612.6895	717.0581	733.7119	771.356	879.1891	905.4651	940.2126	1016.7426	1038.451	1061.633	1075.7037	1111.3649	1127.4407	1155.7559	1179.8211	1204.0175	1216.1965	1237.9945	1251.5987	1389.7943	1440.4764	1449.6062	1488.2092	1491.1556	1495.6602	1503.5933	1891.1758	2976.2568	3065.5531	3072.1811	3075.7111	3081.7825	3111.0786	3112.7963	3128.3418	3180.5555
CN1CC11CCC1=O	CN1C[C@]21CCC2=O	
InChI=1S/C6H9NO/c1-7-4-6(7)3-2-5(6)8/h2-4H2,1H3	InChI=1S/C6H9NO/c1-7-4-6(7)3-2-5(6)8/h2-4H2,1H3/t6-,7?/m1/s1
