17
gdb 36390	5.74897	0.65772	0.63484	2.5263	77.62	-0.3152	0.0164	0.3317	1681.9363	0.135928	-380.88689	-380.877784	-380.87684	-380.92209	32.051	
N	 0.040888002	-1.0242716266	-0.8653538827	-0.296603
C	 0.0104084282	 0.0182030574	-0.3685678801	 0.267535
C	-0.0108145336	 1.3385024216	 0.2646742034	-0.370888
C	 1.3644398548	 1.9922317761	 0.2545758052	-0.018731
C	 1.8350793014	 2.7936356039	-0.9328304053	-0.276756
C	 1.5581009829	 3.4866104114	 0.3774207544	-0.018727
C	 0.3933059658	 4.4568724101	 0.5210324122	-0.37089
C	 0.7613239921	 5.8127263743	 0.1076847855	 0.267536
N	 1.0650786855	 6.8792665381	-0.2158946601	-0.296604
H	-0.7488752393	 1.9515882313	-0.2629504546	 0.149543
H	-0.3765908561	 1.2198060418	 1.2918938981	 0.157851
H	 2.1181299109	 1.3920492146	 0.7548659068	 0.117836
H	 2.8609935488	 2.6879491411	-1.2645252705	 0.135572
H	 1.1243528573	 2.9519667807	-1.7385368517	 0.128098
H	 2.4286315477	 3.7879667533	 0.9518065751	 0.117835
H	-0.4648364669	 4.1435958471	-0.08266401	 0.149544
H	 0.0482685285	 4.4977914035	 1.5613857843	 0.15785
39.4949	74.4388	91.3567	156.5047	201.6288	291.3771	384.9751	388.1584	396.5321	460.9091	510.086	576.9043	793.7567	831.8695	856.1644	892.8315	909.4542	942.7121	953.5754	1023.414	1049.6508	1076.0665	1125.8591	1148.1784	1169.9446	1247.4074	1255.7295	1258.7616	1319.2034	1326.7801	1398.0708	1435.807	1460.1418	1468.5333	1499.0308	2365.2156	2365.4309	3037.3228	3041.6593	3077.8691	3086.8402	3134.6563	3153.9892	3163.4078	3223.7365
N#CCC1CC1CC#N	N#CC[C@H]1C[C@H]1CC#N	
InChI=1S/C7H8N2/c8-3-1-6-5-7(6)2-4-9/h6-7H,1-2,5H2	InChI=1S/C7H8N2/c8-3-1-6-5-7(6)2-4-9/h6-7H,1-2,5H2/t6-,7+
