18
gdb 35699	2.64021	1.38671	1.08182	4.458	75.59	-0.2767	-0.0018	0.2749	1147.3423	0.147985	-401.926212	-401.917936	-401.916992	-401.959876	30.465	
N	-0.3075774032	-1.1178537457	-0.1291604764	-0.330162
C	-0.2061530335	 0.0104782299	 0.1003402626	 0.291894
C	-0.0519547361	 1.4463389222	 0.3515091979	-0.080643
O	 0.201938814	 1.7519881516	 1.7319871762	-0.278599
C	 1.4742245751	 2.366160496	 1.4134893762	-0.123641
C	 1.2959977056	 2.0779856095	-0.0928591002	 0.284049
C	 2.3982017168	 1.3267171623	-0.8754586076	-0.286125
C	 2.7511737623	 2.6602797176	-1.5909881092	-0.215806
C	 1.3827768687	 3.2281891368	-1.1232100176	-0.288637
H	-0.9423704405	 1.9678876196	-0.0241476538	 0.120848
H	 1.4910466628	 3.4252119802	 1.6973516822	 0.110874
H	 2.3063185883	 1.8440328263	 1.9005430949	 0.116604
H	 3.1760911143	 0.8383741255	-0.2834626144	 0.111402
H	 1.9712787611	 0.5882184223	-1.5598478801	 0.126871
H	 3.5924864122	 3.172852617	-1.1175176406	 0.110846
H	 2.9324499939	 2.6174175215	-2.6662576472	 0.109847
H	 0.6136496231	 3.1325071932	-1.8960051681	 0.11254
H	 1.3547576653	 4.2475761642	-0.7291554447	 0.107838
53.4304	97.1432	130.6875	195.2428	274.9015	353.304	371.2567	446.8768	535.5601	598.8258	695.7152	770.3449	832.788	872.6743	901.772	920.942	938.1828	956.4785	965.3432	1017.2566	1044.3213	1058.0261	1138.5876	1166.713	1181.0111	1193.58	1212.036	1248.4946	1257.4256	1276.6408	1279.163	1304.1312	1347.9137	1358.2985	1472.2421	1484.0011	1503.7293	1522.0866	2352.981	3015.9504	3022.6339	3050.9343	3061.7105	3067.6859	3068.8661	3101.2346	3110.739	3128.256
N#CC1OCC11CCC1	N#C[C@H]1OCC21CCC2	
InChI=1S/C7H9NO/c8-4-6-7(5-9-6)2-1-3-7/h6H,1-3,5H2	InChI=1S/C7H9NO/c8-4-6-7(5-9-6)2-1-3-7/h6H,1-3,5H2/t6-/m1/s1
