27
gdb 58187	2.14543	1.21436	0.96862	1.3514	91.7	-0.2558	0.0704	0.3262	1424.0912	0.24896	-390.699996	-390.688203	-390.687259	-390.73607	45.356	
C	-0.6955240665	 1.7948845862	 0.5003233625	-0.415129
C	-0.4073516352	 0.3323643743	 0.1368953889	 0.141509
O	 0.6038561212	-0.1663426399	 1.016013264	-0.428659
C	-1.6779107158	-0.559716063	 0.0820945083	-0.024717
C	-2.6446637253	 0.0172104442	-0.9722731754	-0.416948
C	-1.3941212396	-2.0971605586	-0.1285651605	 0.296055
C	-0.8965890952	-2.7463346631	 1.1821041829	-0.423028
C	-2.693776937	-2.8359963626	-0.5177885222	-0.411023
C	-0.3465974872	-2.3347068247	-1.2340353361	-0.419177
H	 0.2553435439	 2.3120813333	 0.6545607486	 0.122912
H	-1.2470801214	 2.3272294218	-0.2774537971	 0.121948
H	-1.2757999241	 1.8611284811	 1.4300352166	 0.105481
H	 0.0692960439	 0.3103017277	-0.8501382605	 0.090772
H	 0.2676689723	-0.0936344681	 1.9162809414	 0.274831
H	-2.1756874174	-0.4678931867	 1.0612246873	 0.054384
H	-2.2195508908	-0.0436969353	-1.9807144739	 0.115486
H	-3.5977148148	-0.5130559471	-0.9806214548	 0.120105
H	-2.8698984246	 1.0669182424	-0.7736669532	 0.113157
H	-1.6200723962	-2.5957579691	 1.992670633	 0.094645
H	-0.7818962533	-3.8278650554	 1.0467167038	 0.100636
H	 0.0651723795	-2.3405493258	 1.4927107033	 0.12783
H	-3.0457047421	-2.5729044601	-1.5188620177	 0.109933
H	-2.5187624153	-3.9170478579	-0.5090099038	 0.104966
H	-3.5036461696	-2.6296193779	 0.1917171578	 0.104371
H	 0.6363256394	-1.9574205741	-0.9412481896	 0.133092
H	-0.2449867213	-3.4073195017	-1.4325780174	 0.102865
H	-0.6329863277	-1.8570148898	-2.1777693162	 0.103703
51.8474	77.9381	185.0035	202.0752	211.5051	242.7759	271.8586	281.5633	298.987	313.8627	330.983	345.955	382.3461	394.0081	419.3744	440.1014	466.7343	513.2962	543.9831	717.83	817.7489	873.0763	931.0959	935.3577	939.2193	958.2936	971.0065	1019.7847	1021.9845	1048.0309	1075.4485	1100.2402	1117.1971	1162.0653	1214.1878	1243.8504	1260.8845	1273.7338	1325.3161	1345.7069	1378.9328	1391.1906	1399.3184	1401.1265	1411.2823	1422.66	1432.2355	1480.1485	1488.2911	1492.2984	1493.9986	1498.4684	1500.1175	1509.0407	1515.4291	1520.6752	1533.6852	2969.2414	3022.3179	3023.9315	3025.8613	3032.199	3043.7618	3049.1787	3078.3789	3086.2112	3091.6219	3102.0667	3106.7407	3115.0681	3118.6391	3128.2469	3137.5926	3156.971	3797.6195
CC(O)C(C)C(C)(C)C	C[C@@H](O)[C@@H](C)C(C)(C)C	
InChI=1S/C8H18O/c1-6(7(2)9)8(3,4)5/h6-7,9H,1-5H3	InChI=1S/C8H18O/c1-6(7(2)9)8(3,4)5/h6-7,9H,1-5H3/t6-,7-/m1/s1
