12
gdb 23814	3.37171	2.28338	1.36141	4.2246	63.04	-0.2113	-0.0355	0.1759	804.4704	0.085684	-418.800718	-418.79446	-418.793516	-418.831148	23.695	
F	 0.0137532148	 0.0405163054	 0.1547367307	-0.051148
C	 0.0105553678	 1.3621533766	 0.0509424287	 0.23065
C	-1.1615974671	 2.0312451551	 0.003882857	-0.108538
N	-1.1647393373	 3.3981209832	-0.1034696345	-0.225481
N	-0.0547539243	 4.1440221586	-0.1672474876	-0.177133
C	 1.0786441753	 3.5139414589	-0.123070648	-0.052359
C	 1.2807503437	 2.0636853896	-0.0101079576	 0.169074
N	 2.4044816094	 1.4372858408	 0.0338186304	-0.552728
H	-2.1227678424	 1.5363417224	 0.0472572412	 0.148861
H	-2.0255187287	 3.9165953656	-0.140120364	 0.283692
H	 1.9607417489	 4.1471789221	-0.1769447154	 0.12639
H	 3.1781440199	 2.1035084718	-0.0221407209	 0.208721
124.6593	301.426	309.7054	376.6597	441.026	445.7829	541.8394	599.4566	607.4043	754.2881	767.6118	842.8957	874.1675	917.5616	930.5941	1024.0264	1108.8304	1233.9388	1284.899	1318.8374	1375.118	1433.4188	1513.6098	1610.486	1670.726	1697.9765	3166.3442	3226.7032	3441.4465	3669.4521
FC1=CNN=CC1=N	FC1=C(C=NNC1)[NH]	
InChI=1S/C4H4FN3/c5-3-1-7-8-2-4(3)6/h1-2H,(H2,6,7)	InChI=1S/C4H5FN3/c5-3-1-7-8-2-4(3)6/h2,6-7H,1H2
