22
gdb 22454	1.6983	1.19582	0.89245	0.903	81.75	-0.2411	0.0077	0.2488	1447.2291	0.191348	-441.444241	-441.432972	-441.432028	-441.481414	40.306	
C	-2.507776467	 1.500356989	 0.2963952842	-0.379329
C	-1.4836526952	 0.5278690233	 0.9082203701	-0.24715
C	-1.0460470979	-0.5726802943	-0.0403030122	 0.332361
N	-0.0630510412	-0.2580945182	-0.7965142314	-0.182437
O	 0.3206284542	-1.2884980572	-1.6738999661	-0.402492
C	-1.7210358332	-1.9314548795	-0.0201510941	-0.093194
C	-1.2765439028	-2.7402492251	 1.2140366339	-0.395867
C	-3.2569022031	-1.834179041	-0.0960738551	-0.075659
O	-3.8728056522	-3.1114930481	-0.1511548374	-0.414865
H	-2.7550633984	 2.2922025487	 1.0104363699	 0.114803
H	-2.0949521796	 1.9663361287	-0.6027229304	 0.131007
H	-3.4403168261	 1.000591618	 0.0190682281	 0.122617
H	-0.5947855851	 1.0940280533	 1.2002851945	 0.120394
H	-1.8941944944	 0.0819500083	 1.820728335	 0.10446
H	 1.0532481715	-0.8803053845	-2.1463843893	 0.30485
H	-1.3889138338	-2.4679444789	-0.9139433099	 0.098556
H	-1.5044173786	-2.2095450515	 2.1448973146	 0.115858
H	-1.8081206854	-3.6945452316	 1.2359275946	 0.130271
H	-0.2008407029	-2.9328408252	 1.1872499327	 0.124658
H	-3.6612560504	-1.3567271342	 0.8027551855	 0.111703
H	-3.5498574819	-1.2174776775	-0.9589120611	 0.096168
H	-3.5980314665	-3.5338966623	-0.9717338061	 0.283286
27.1427	70.0491	119.1352	151.8961	200.9097	221.3201	227.2326	242.5242	263.7648	313.7651	326.3619	355.4818	423.3322	467.8596	486.331	601.7128	691.9535	766.7026	787.6617	895.3875	919.5422	948.3132	980.5275	1029.2918	1063.4255	1075.4956	1098.6486	1117.8431	1124.9541	1228.5799	1247.0571	1304.8955	1307.6973	1349.4875	1362.3562	1384.8669	1399.1729	1403.5991	1416.6283	1421.1905	1479.5555	1493.1125	1496.4592	1504.2041	1506.7078	1511.9226	1715.693	2989.7801	3039.6272	3041.509	3047.9357	3061.3468	3080.2714	3090.0286	3110.3144	3110.9431	3123.0188	3129.8992	3810.9252	3824.5319
CCC(=NO)C(C)CO	CCC(=NO)[C@@H](C)CO	
InChI=1S/C6H13NO2/c1-3-6(7-9)5(2)4-8/h5,8-9H,3-4H2,1-2H3	InChI=1S/C6H13NO2/c1-3-6(7-9)5(2)4-8/h5,8-9H,3-4H2,1-2H3/t5-/m0/s1
