17
gdb 51734	3.47355	0.95289	0.81419	3.3345	69.59	-0.2509	-0.0279	0.223	1374.3846	0.133377	-458.920126	-458.91137	-458.910426	-458.954976	30.78	
O	-0.4602384909	 0.0897398212	-0.2474573881	-0.236084
C	-0.0419710726	 1.195586235	-0.0193660088	 0.154715
C	 1.371120233	 1.6539395794	-0.3280336065	-0.301021
C	 1.3844707304	 2.9249563031	-1.1729281121	 0.040259
O	 0.7659138188	 4.0472212151	-0.4918358842	-0.299705
C	 1.923207724	 4.8946955187	-0.6787915918	-0.151193
C	 2.6850550475	 3.7235100269	-1.2899759196	 0.358868
C	 4.0864132916	 3.3198587826	-1.2108551691	-0.256974
O	 3.4947776396	 3.7900209923	-2.4360547182	-0.254835
H	-0.6834557382	 1.973514466	 0.4468681713	 0.101813
H	 1.8755773407	 1.8647555866	 0.624528673	 0.12086
H	 1.8982851979	 0.8425611023	-0.8391388122	 0.126077
H	 0.9147063606	 2.7483841067	-2.1504202908	 0.105293
H	 1.7311117696	 5.7152379622	-1.3808718516	 0.122514
H	 2.297751618	 5.2990588267	 0.2682835589	 0.116338
H	 4.8163815206	 3.9899509669	-0.7591293455	 0.125539
H	 4.3508185295	 2.2637696984	-1.1983632247	 0.127535
53.6366	69.1862	95.4916	139.1479	243.1971	286.5789	332.4805	431.5714	458.1756	535.4007	578.0513	807.5443	830.6621	861.2281	883.3826	922.6845	937.311	1011.7811	1028.2202	1083.4327	1087.7576	1121.3053	1124.2727	1151.2007	1166.2638	1190.7377	1220.3953	1257.1491	1297.5208	1332.4558	1379.009	1421.5385	1448.4766	1455.6916	1514.2745	1544.0933	1831.6071	2910.9707	3012.726	3024.3854	3027.7998	3073.355	3086.885	3101.0897	3175.4775
O=CCC1OCC11CO1	O=CC[C@H]1OC[C@]21CO2	
InChI=1S/C6H8O3/c7-2-1-5-6(3-8-5)4-9-6/h2,5H,1,3-4H2	InChI=1S/C6H8O3/c7-2-1-5-6(3-8-5)4-9-6/h2,5H,1,3-4H2/t5-,6-/m1/s1
