19
gdb 39903	2.64095	1.76841	1.578	2.7472	73.62	-0.2371	0.0807	0.3178	948.2988	0.161698	-423.010148	-423.003062	-423.002117	-423.041414	28.763	
C	 0.0568087741	 1.4705333235	 0.009962962	-0.299567
O	 1.1925919541	 0.5853752973	-0.0091622415	-0.306753
C	-0.1040639988	 0.0215789816	 0.0072275734	 0.524404
C	-0.5771659712	-0.8965637782	 1.13065173	-0.149204
C	-2.085635776	-0.9964273803	 0.7978388008	-0.221129
C	-2.1025808953	-0.9858514159	-0.7727470619	-0.221719
C	-0.6036464822	-0.8839504101	-1.1068583395	 0.018758
O	 0.0115772168	-2.1403230856	-0.781536071	-0.288417
C	 0.1059676089	-2.1922379516	 0.6597939355	-0.071981
H	-0.0804279297	 2.0309171795	 0.9339225456	 0.116131
H	-0.0999854734	 2.0414451677	-0.9045362628	 0.117491
H	-0.3308273732	-0.5947992554	 2.1483189489	 0.076363
H	-2.5331221473	-1.9022495153	 1.2155616479	 0.10475
H	-2.6317224205	-0.1415855562	 1.2061937019	 0.100954
H	-2.5232591662	-1.8994293693	-1.1975765022	 0.112947
H	-2.6650999955	-0.1341822625	-1.1677286277	 0.098232
H	-0.3413779795	-0.6179209667	-2.1304851205	 0.082575
H	 1.1625073104	-2.2280688123	 0.9532951975	 0.109802
H	-0.3947797556	-3.0959127301	 1.0274379134	 0.096362
150.4144	169.7224	265.2467	293.8656	365.8817	384.476	540.9015	589.2814	622.2144	745.3295	797.7974	850.4645	871.1976	881.1631	902.1302	922.7893	934.4808	973.0346	985.4764	1006.4355	1032.1258	1050.4613	1083.1254	1118.9072	1138.2316	1172.3237	1182.9778	1212.0268	1214.2879	1235.4531	1269.1088	1280.1778	1300.6101	1320.9161	1333.682	1377.9047	1459.1562	1476.3753	1499.4026	1522.7112	1548.2134	3016.5037	3051.5425	3056.7899	3061.4758	3080.2954	3094.5796	3117.8432	3123.3954	3128.7902	3165.3645
C1OC11C2CCC1OC2	C1O[C@]21[C@H]1CC[C@@H]2OC1	
InChI=1S/C7H10O2/c1-2-6-7(4-9-7)5(1)3-8-6/h5-6H,1-4H2	InChI=1S/C7H10O2/c1-2-6-7(4-9-7)5(1)3-8-6/h5-6H,1-4H2/t5-,6-,7+/m0/s1
