16
gdb 48524	2.96752	1.57212	1.44554	3.465	76.79	-0.227	-0.0596	0.1673	958.0264	0.123895	-400.628403	-400.621287	-400.620343	-400.660034	27.69	
O	-0.5111768361	 0.1756909228	-0.011455693	-0.260927
C	-0.2004411552	 1.3413645851	-0.0259373467	 0.034959
C	 1.1811406212	 1.8387278976	-0.1214889078	 0.229458
C	 1.9062089627	 2.7639633944	 0.8088549493	-0.090335
C	 3.0056130487	 1.6494737411	 1.0982019061	-0.270962
C	 2.5410556973	 1.1200295999	-0.264730023	-0.015496
C	 3.1955664261	 1.6505461382	-1.3163400884	-0.101611
C	 2.4488777729	 2.9089198318	-1.7407855163	-0.188025
N	 1.5301778758	 3.1750458845	-0.5884872023	-0.158603
H	-0.9518327839	 2.1583785688	 0.0507810338	 0.082946
H	 1.4630609858	 3.387067979	 1.5792786348	 0.124723
H	 4.0536790544	 1.9438117974	 1.1858191233	 0.115796
H	 2.686736229	 1.0932178846	 1.9858974317	 0.127431
H	 4.2754149359	 1.5958245403	-1.4197048871	 0.111594
H	 3.1696941937	 3.7232562027	-1.8726193032	 0.127951
H	 1.8219770117	 2.866551292	-2.6396259812	 0.131103
91.1831	164.0357	233.6805	274.3439	413.2649	461.6464	494.3771	597.8427	667.0755	699.9714	753.4048	794.5767	824.2974	843.9671	915.3825	921.8566	951.2345	975.1929	1003.484	1017.3612	1061.8066	1068.9166	1095.7249	1163.2528	1202.7239	1216.0063	1240.1306	1280.3727	1309.6334	1360.9309	1421.1912	1472.7119	1498.089	1582.8864	1809.3861	2889.7465	3032.1087	3044.0403	3079.7228	3115.1122	3169.2167	3171.6596
O=CC12C3CC1=CCN23	O=C[C@@]12[C@H]3C[C]1[CH]CN23	
InChI=1S/C7H7NO/c9-4-7-5-1-2-8(7)6(7)3-5/h1,4,6H,2-3H2	InChI=1S/C7H7NO/c9-4-7-5-1-2-8(7)6(7)3-5/h1,4,6H,2-3H2/t6-,7+,8?/m1/s1
