21
gdb 113880	3.95018	0.69695	0.63416	1.8991	79.71	-0.2455	-0.0118	0.2337	1780.9982	0.179762	-424.228836	-424.218298	-424.217354	-424.266119	37.167	
C	 0.0048582589	 1.4622138018	 0.359893928	-0.474747
C	 0.1050966084	-0.043568566	 0.1889792993	 0.386505
O	 1.1479722334	-0.6363609061	 0.3373694112	-0.288387
C	-1.1897528784	-0.7591451652	-0.1990851414	-0.339042
C	-1.0854704363	-2.2647281533	-0.1028532543	 0.014492
C	-1.5885843993	-3.0065607372	 1.1102276969	-0.301929
C	-2.2756669578	-3.1858800654	-0.2290427919	-0.056784
C	-3.6898656456	-2.6932799507	-0.4269907575	-0.072157
O	-4.6524214785	-3.6463562797	 0.0006884765	-0.41952
H	 1.001078417	 1.891821134	 0.4710348238	 0.143807
H	-0.5106287207	 1.9217924893	-0.4902308247	 0.13474
H	-0.5885092703	 1.6923839993	 1.2528856743	 0.141904
H	-2.006672124	-0.3590480181	 0.4126816682	 0.114297
H	-1.4207678171	-0.4412185682	-1.2279766769	 0.126551
H	-0.1600070705	-2.6421397852	-0.5244393176	 0.10762
H	-0.9923810181	-3.8171229257	 1.5135331635	 0.118954
H	-2.1136250245	-2.4244468154	 1.8638983404	 0.10339
H	-2.0844547132	-4.1272149109	-0.7380813346	 0.093199
H	-3.8362674786	-1.7287030843	 0.0847981164	 0.076501
H	-3.8970670954	-2.5280946819	-1.4903962131	 0.109952
H	-4.4201836193	-3.8968116512	 0.9013904535	 0.280652
28.137	59.8423	98.8291	107.582	114.5652	191.153	245.0279	309.4095	346.4937	398.6426	425.2839	475.553	529.5182	595.8527	788.205	807.6711	837.661	843.8568	896.3075	905.6828	960.6818	970.5449	1033.4413	1060.2714	1063.7026	1078.3877	1139.7371	1149.5943	1172.5244	1182.6525	1235.4313	1244.5331	1252.0529	1329.3446	1352.343	1381.7562	1393.2996	1424.106	1439.3612	1455.7789	1465.6646	1477.1444	1492.9221	1511.1054	1815.7291	2974.737	2998.1856	3035.3964	3058.099	3061.9252	3096.3659	3117.6059	3140.3881	3152.2582	3170.143	3209.2366	3804.8583
CC(=O)CC1CC1CO	CC(=O)C[C@H]1C[C@H]1CO	
InChI=1S/C7H12O2/c1-5(9)2-6-3-7(6)4-8/h6-8H,2-4H2,1H3	InChI=1S/C7H12O2/c1-5(9)2-6-3-7(6)4-8/h6-8H,2-4H2,1H3/t6-,7-/m0/s1
