20
gdb 23081	3.15319	1.20207	1.08265	0.9163	81.29	-0.2387	0.0123	0.2509	1195.9015	0.172284	-403.116107	-403.107945	-403.107	-403.149519	31.854	
O	-0.2450464047	 1.3631875324	-0.2339000383	-0.396632
N	-0.0705744019	-0.0328540252	-0.3245472995	-0.223212
C	-1.130852245	-0.6579166336	-0.0018215835	 0.393562
C	-2.4855559176	-0.095949921	 0.3739674722	-0.315887
C	-3.497470849	-1.1947877202	-0.0148248663	-0.020562
C	-4.0263433298	-1.1398433277	-1.4768486976	-0.217905
C	-3.0263821251	-2.2570651858	-1.8849625178	-0.226904
C	-2.6463812359	-2.4666011605	-0.3889448435	-0.001816
C	-1.190323998	-2.1688191074	-0.0111650235	-0.305068
H	 0.6036338358	 1.6907747441	-0.5493925936	 0.303884
H	-2.5081618503	 0.094706913	 1.4547522783	 0.118855
H	-2.6663346964	 0.8641554723	-0.1156630932	 0.129344
H	-4.2683275109	-1.3218606878	 0.7475110083	 0.065591
H	-5.0718211309	-1.4476953132	-1.559638326	 0.099353
H	-3.9138754506	-0.1791848158	-1.987520829	 0.09925
H	-3.4577939534	-3.1241712217	-2.3903286279	 0.09765
H	-2.1892818129	-1.8950969491	-2.4892533302	 0.106793
H	-3.0056084865	-3.4105995174	 0.0243509907	 0.064989
H	-0.4525295967	-2.6089284822	-0.6868218852	 0.118135
H	-0.9765566102	-2.544618373	 0.9993187055	 0.110581
46.3947	74.8106	234.6159	274.1809	350.6746	356.6024	374.3572	456.4135	532.3339	597.5354	679.7038	721.4135	760.9988	819.4826	823.9466	849.7612	886.8875	894.2888	956.5522	969.3241	988.5041	1007.8886	1057.4642	1075.5184	1125.5868	1155.1582	1172.9911	1213.8462	1219.2455	1236.4063	1259.1198	1265.7915	1283.5456	1291.0815	1309.1466	1340.9915	1342.8914	1403.8678	1462.8004	1473.1269	1478.5665	1495.781	1755.3452	3011.4257	3028.0379	3051.382	3057.7334	3077.3315	3090.6861	3096.2356	3098.5503	3101.0253	3116.3791	3820.1504
ON=C1CC2CCC2C1	ON=C1C[C@H]2CC[C@H]2C1	
InChI=1S/C7H11NO/c9-8-7-3-5-1-2-6(5)4-7/h5-6,9H,1-4H2	InChI=1S/C7H11NO/c9-8-7-3-5-1-2-6(5)4-7/h5-6,9H,1-4H2/t5-,6+
