15
gdb 28531	3.23761	1.3589	0.95819	2.1759	72.94	-0.192	-0.0035	0.1885	1141.9714	0.114627	-454.014926	-454.00714	-454.006196	-454.046752	30.678	
N	-0.0455774228	 1.4218458106	-0.1065295283	-0.600272
C	-0.014918712	 0.0209721756	-0.0545702366	 0.182919
C	-1.1557716037	-0.7694179198	-0.0113746612	-0.06786
N	-1.1547802303	-2.1113842642	-0.024520618	-0.377831
C	 0.016327571	-2.7216761392	-0.0819775661	 0.433287
O	 0.024635624	-4.0773574167	-0.0986756304	-0.430292
C	 1.240230212	-2.0480117502	-0.1227983084	-0.36896
C	 1.2159707991	-0.6640058613	-0.1073830886	 0.387661
O	 2.3367239865	 0.1082452912	-0.1320679349	-0.449543
H	 0.8086775863	 1.8448146135	 0.229851987	 0.255537
H	-0.8519844803	 1.8250519944	 0.3502565827	 0.245016
H	-2.132550795	-0.2919534619	 0.0352930665	 0.09724
H	-0.9051096338	-4.3403078521	-0.0649841807	 0.293693
H	 2.171568192	-2.6025321528	-0.1616768411	 0.095933
H	 3.115389577	-0.4580193371	-0.146147312	 0.303471
146.5116	225.9394	252.9738	302.9832	344.54	357.936	411.2221	456.1103	460.1641	510.9444	540.8462	586.9411	669.5759	699.2119	760.8706	782.6917	807.1277	842.7522	923.0967	991.7824	1109.7798	1171.2355	1179.5923	1233.6589	1306.8131	1333.5642	1373.5479	1399.335	1495.1316	1549.1484	1639.2614	1652.8878	1669.9722	3144.003	3185.6704	3550.1076	3648.1773	3775.1905	3824.2878
NC1=CN=C(O)C=C1O	Nc1cnc(O)cc1O	
InChI=1S/C5H6N2O2/c6-3-2-7-5(9)1-4(3)8/h1-2H,6H2,(H2,7,8,9)	InChI=1S/C5H6N2O2/c6-3-2-7-5(9)1-4(3)8/h1-2H,6H2,(H2,7,8,9)
