14
gdb 17511	4.95006	1.81687	1.6524	4.6794	65.55	-0.2497	0.0048	0.2545	782.2747	0.109286	-341.525749	-341.519769	-341.518824	-341.555717	23.713	
N	 0.0505733501	-1.1737471411	 0.0469684682	-0.338876
C	 0.025536799	-0.0191134609	-0.0025562381	 0.185191
C	-0.0447110862	 1.4207161611	-0.0627635919	 0.21852
C	-1.1275446183	 2.2100210139	 0.747213943	-0.27297
C	-0.9317367443	 3.3094621	-0.2906779585	-0.098471
C	 0.5674184418	 3.25565043	-0.6786109398	-0.013072
N	 1.2299587527	 2.1873664122	 0.0731974132	-0.338665
C	-0.4079261086	 2.3242760541	-1.3170051443	-0.12709
H	-2.1096740348	 1.7414478287	 0.6569501943	 0.128727
H	-0.8968759519	 2.405615785	 1.8006220287	 0.10343
H	-1.545230715	 4.1830798612	-0.4642337124	 0.103099
H	 1.1034151319	 4.0924277161	-1.1056636781	 0.112181
H	 1.4419031635	 2.4192249579	 1.0461384509	 0.218343
H	-0.6578720097	 2.0880963417	-2.3398025554	 0.119654
166.45	169.9426	425.169	482.6986	504.0004	556.8006	567.7896	754.311	759.3543	792.3347	797.2039	891.0732	935.4139	955.0466	978.108	1000.5396	1007.8629	1030.7144	1065.718	1075.5068	1121.3552	1141.8446	1168.9467	1235.4657	1275.4153	1301.9428	1348.818	1361.2692	1495.7195	2358.4564	3040.1117	3119.7217	3209.3096	3215.3685	3242.7209	3418.3263
N#CC12CC3C(N1)C23	N#C[C@@]12C[C@H]3[C@@H](N1)[C@@H]23	
InChI=1S/C6H6N2/c7-2-6-1-3-4(6)5(3)8-6/h3-5,8H,1H2	InChI=1S/C6H6N2/c7-2-6-1-3-4(6)5(3)8-6/h3-5,8H,1H2/t3-,4+,5-,6-/m1/s1
