14
gdb 17594	2.81538	2.50601	1.88094	2.3371	56.48	-0.2373	0.06	0.2972	743.2451	0.105634	-419.59724	-419.59026	-419.589316	-419.627968	27.096	
O	-0.3231313809	 1.3811400538	 0.0032026343	-0.451744
C	-0.1040634258	 0.0203450021	-0.0235792427	 0.278201
C	-0.3121744671	-0.8786054195	 1.1859674695	-0.395166
C	-1.1905115282	-1.0817751886	-0.0190485256	 0.342767
O	-2.5553980054	-0.9643888858	 0.0904911388	-0.452647
C	-0.4242336203	-1.7966562939	-1.1113074104	-0.06884
O	-0.291045288	-0.9096529195	-2.2342105736	-0.250526
C	 0.6060864306	-0.7391527884	-1.1232030206	-0.046284
H	 0.3019460501	 1.7854845408	 0.6139258367	 0.291435
H	 0.4248853238	-1.6168751651	 1.4910730542	 0.11203
H	-0.8272259036	-0.3828585018	 2.0041236225	 0.128549
H	-2.8812815612	-0.5714877625	-0.7283858047	 0.298485
H	-0.3051618296	-2.8582078833	-1.293591642	 0.107965
H	 1.6657228056	-0.8442433784	-1.3259133363	 0.105774
172.9235	217.8963	247.5482	254.4354	367.709	429.3336	445.3093	566.0448	604.8689	648.8855	754.8438	791.7842	809.6886	872.9599	875.8752	938.7246	964.1852	985.4036	1043.095	1084.762	1124.3024	1173.461	1213.1942	1236.8994	1274.4236	1341.3241	1343.2456	1383.4067	1418.3813	1505.3374	3109.6992	3181.9406	3196.2586	3202.114	3785.154	3802.354
OC12CC1(O)C1OC21	O[C@@]12C[C@]1(O)[C@H]1O[C@@H]21	
InChI=1S/C5H6O3/c6-4-1-5(4,7)3-2(4)8-3/h2-3,6-7H,1H2	InChI=1S/C5H6O3/c6-4-1-5(4,7)3-2(4)8-3/h2-3,6-7H,1H2/t2-,3+,4-,5+
