16
gdb 34964	3.22046	1.5601	1.49	5.1464	71.49	-0.259	0.0199	0.2789	928.0864	0.126364	-400.710609	-400.70398	-400.703036	-400.741737	26.294	
N	-0.1047119022	-1.1823867072	-0.2589971131	-0.333038
C	-0.0503892669	-0.0338754765	-0.1369543815	 0.288525
C	 0.0209729665	 1.4056033305	 0.0409567299	-0.176336
C	-0.2690794611	 2.0224737545	 1.4475925514	-0.072029
C	 0.5334804357	 1.3313221074	 2.5803485466	-0.250326
C	 1.8119987324	 2.0465329169	 2.0883801493	 0.109476
O	 2.3547044766	 1.4145600635	 0.9014654532	-0.288664
C	 1.423411507	 2.0985523017	 0.0569314441	 0.097287
C	 0.9439874227	 3.0061161348	 1.2224411673	-0.108113
H	-0.6061781299	 1.9010366102	-0.7080914138	 0.125013
H	-1.2953663474	 2.3265467536	 1.6448988154	 0.088332
H	 0.2269159644	 1.7246343382	 3.5547068914	 0.11209
H	 0.5513977182	 0.2394642879	 2.6136571498	 0.13412
H	 2.5948229082	 2.3214351379	 2.7961758374	 0.089212
H	 1.8599506062	 2.4006798958	-0.895944628	 0.096824
H	 0.9242403995	 4.091420261	 1.2450361506	 0.087628
114.166	143.3943	332.1027	340.6975	422.5717	535.7	575.3058	673.8207	719.7731	774.9379	832.719	839.3616	848.1208	875.808	932.4193	964.7639	981.3477	1012.3675	1027.0029	1056.8757	1085.9122	1113.6238	1135.3829	1148.7442	1184.1087	1185.504	1216.4171	1268.3231	1281.6815	1288.8332	1316.5524	1333.9102	1348.8753	1467.8168	2353.7845	3055.8162	3058.8837	3102.8507	3106.3164	3118.8206	3126.7351	3165.4435
N#CC1C2CC3OC1C23	N#C[C@H]1[C@H]2C[C@H]3O[C@@H]1[C@@H]23	
InChI=1S/C7H7NO/c8-2-4-3-1-5-6(3)7(4)9-5/h3-7H,1H2	InChI=1S/C7H7NO/c8-2-4-3-1-5-6(3)7(4)9-5/h3-7H,1H2/t3-,4+,5-,6+,7+/m1/s1
