16
gdb 52804	1.92735	1.29055	0.86332	3.1785	79.63	-0.2487	0.0135	0.2622	1351.1506	0.121621	-400.722608	-400.712846	-400.711902	-400.758999	34.113	
C	 0.0684189858	 1.499493592	-0.0068042418	-0.502634
C	 0.0718441526	 0.0454574151	 0.0174182981	 0.054863
C	 0.0629501553	-1.1585070421	 0.0519843856	 0.045231
C	 0.0552439053	-2.595192959	 0.0332760347	 0.251119
O	 1.0498404395	-3.2120805136	-0.7291869871	-0.44101
C	-0.3470707908	-3.3789502697	 1.2413931424	-0.316909
C	-1.3059925158	-3.3404917198	 0.0602606797	-0.253672
C	-2.5398545745	-2.6193507167	 0.1447290846	 0.297379
N	-3.5352285002	-2.0317429839	 0.2021821286	-0.342355
H	 0.7066635271	 1.9147249188	 0.7804708266	 0.154741
H	 0.4324596247	 1.8778520766	-0.9680337607	 0.154496
H	-0.9453578009	 1.8865589965	 0.1405916375	 0.166007
H	 1.0579286849	-2.791169319	-1.5966853826	 0.292599
H	 0.1769058533	-4.3135984126	 1.4022243868	 0.145164
H	-0.6253927923	-2.8290951684	 2.1310348583	 0.152617
H	-1.3273022838	-4.226029194	-0.5650073606	 0.142365
17.3987	63.3211	110.0125	159.8283	178.6268	298.4616	313.0643	329.1041	371.2109	385.7792	465.7197	541.9964	568.524	592.0421	644.4229	796.6618	843.592	904.3457	940.614	1027.1211	1050.607	1053.4105	1085.2929	1095.5769	1116.2943	1212.1565	1289.8723	1351.5294	1411.0621	1415.6461	1472.8212	1473.6804	1476.033	2351.2471	2368.7276	3031.336	3093.8352	3097.7965	3153.6275	3179.6197	3254.5413	3798.7779
CC#CC1(O)CC1C#N	CC#C[C@@]1(O)C[C@H]1C#N	
InChI=1S/C7H7NO/c1-2-3-7(9)4-6(7)5-8/h6,9H,4H2,1H3	InChI=1S/C7H7NO/c1-2-3-7(9)4-6(7)5-8/h6,9H,4H2,1H3/t6-,7+/m0/s1
