15
gdb 16827	3.62814	2.10573	1.54747	5.1078	60.63	-0.2748	0.015	0.2898	820.9746	0.119863	-399.820622	-399.813858	-399.812914	-399.851584	25.475	
C	-0.1153143028	 1.5756583512	-0.0327865341	-0.402864
C	 0.0805331816	 0.0694632591	 0.0232118954	 0.105682
O	 0.9178692229	-0.3647307682	-1.0640843348	-0.242485
C	 1.8663039638	-1.2543733574	-0.6413777314	 0.446902
O	 2.6201266576	-1.8012493097	-1.3827851528	-0.336072
N	 1.813155309	-1.4254830083	 0.7840721856	-0.17266
C	 2.2089222294	-0.1598972452	 1.4649466721	-0.259466
C	 0.7826835694	-0.4871023271	 1.2555509348	-0.0424
H	 0.83745374	 2.1013295431	 0.0710923997	 0.129468
H	-0.5705322999	 1.8660889232	-0.982975148	 0.141842
H	-0.7784882233	 1.8942845692	 0.7775989883	 0.128063
H	-0.8882465616	-0.4335034768	-0.0894913395	 0.104394
H	 2.6605694395	-0.3071121293	 2.4399190036	 0.140546
H	 2.6682952888	 0.6126848403	 0.8548125825	 0.143632
H	 0.1702104755	-0.820674294	 2.0864036086	 0.115418
114.3383	199.0382	221.5106	266.9652	360.4087	498.7393	522.0179	665.1479	699.3802	760.7799	802.2313	821.6201	870.0606	950.0374	961.9127	1003.4388	1055.3552	1084.3887	1108.3681	1122.3513	1130.6442	1162.5977	1172.6422	1273.7427	1362.0217	1385.0449	1392.4847	1415.2488	1485.4677	1495.1169	1507.3196	1905.9659	3027.8394	3047.2214	3120.4432	3123.7092	3131.0006	3170.3599	3216.9473
CC1OC(=O)N2CC12	C[C@H]1OC(=O)N2C[C@@H]12	
InChI=1S/C5H7NO2/c1-3-4-2-6(4)5(7)8-3/h3-4H,2H2,1H3	InChI=1S/C5H7NO2/c1-3-4-2-6(4)5(7)8-3/h3-4H,2H2,1H3/t3-,4+,6?/m1/s1
