20
gdb 83118	2.1757	1.74574	1.44972	2.1252	78.99	-0.2411	0.032	0.2731	1044.0814	0.171597	-403.156154	-403.147553	-403.146609	-403.188982	32.935	
C	 0.0525365311	 1.5954693687	 0.2151974571	-0.422741
C	 0.0619159794	 0.0866895514	 0.1003742062	-0.07071
C	 1.2885593562	-0.6910152637	-0.3669913196	-0.142802
C	 2.6198199348	-0.001708756	-0.6219849771	-0.181742
N	 3.3247575121	 0.4951729513	 0.553713373	-0.265009
C	 2.8006221882	 0.36724557	 1.6940995344	 0.112022
O	 1.6063371756	-0.1676030484	 2.0547821169	-0.25632
C	 0.8186212414	-0.8008458652	 1.0576308503	 0.394143
C	 0.2139235711	-2.0631476824	 1.61275296	-0.448618
H	 1.0279617123	 1.9986466199	 0.4952341323	 0.140227
H	-0.2314585161	 2.0506783229	-0.7395563104	 0.119193
H	-0.671658238	 1.9237050961	 0.9681283771	 0.122541
H	-0.8867318896	-0.3336699122	-0.2259706744	 0.085201
H	 1.0977638258	-1.5535011003	-0.9991120646	 0.087554
H	 3.2910018555	-0.7093418885	-1.1231040917	 0.118212
H	 2.5058653974	 0.8391092792	-1.319513018	 0.114436
H	 3.312109975	 0.7301748229	 2.5837475834	 0.121529
H	-0.388850457	-1.8456046976	 2.5006720432	 0.128576
H	-0.4306266329	-2.5362723452	 0.866984729	 0.118913
H	 0.9941137776	-2.7769800427	 1.8968870529	 0.125395
116.4949	153.6704	183.3627	205.5751	221.0108	249.4897	332.7459	462.8597	472.715	510.1421	537.8934	623.6491	673.3549	784.0318	796.6276	894.6987	907.3179	939.4791	961.2055	974.9791	1014.1782	1027.5872	1083.3307	1125.5556	1127.9934	1138.7848	1162.2666	1183.2658	1236.9695	1276.4367	1278.6053	1356.0266	1369.6449	1415.4395	1417.5836	1424.0328	1459.9435	1480.367	1484.8811	1498.511	1499.8501	1508.8345	1742.8417	3013.5301	3035.2249	3038.6111	3045.297	3094.3716	3101.3192	3117.0086	3121.4022	3136.0026	3146.6565	3158.5503
CC1C2CN=COC12C	C[C@H]1[C@H]2CN=CO[C@@]12C	
InChI=1S/C7H11NO/c1-5-6-3-8-4-9-7(5,6)2/h4-6H,3H2,1-2H3	InChI=1S/C7H11NO/c1-5-6-3-8-4-9-7(5,6)2/h4-6H,3H2,1-2H3/t5-,6+,7-/m0/s1
