24
gdb 87167	3.32989	0.98207	0.96197	1.081	90.32	-0.2176	0.0834	0.301	1414.2141	0.216866	-368.3743	-368.36448	-368.363536	-368.409055	37.384	
C	-0.2366571388	 1.4460131365	-0.0173584428	-0.312522
N	-0.0011834048	 0.0194137514	 0.140479211	-0.110104
C	 1.3044060296	-0.5053042758	-0.2417483362	-0.292312
C	 0.8901051063	-0.4896040195	 1.1977759775	 0.306026
C	 1.5899258825	 0.4739139643	 2.14033683	-0.48385
C	 0.3972721986	-1.7916253287	 1.7999178864	 0.02646
C	 1.3914034716	-2.7991591935	 2.4494756522	-0.240908
C	 0.2827295651	-3.1581752577	 3.4755799092	-0.208269
C	-0.4177055717	-1.8172293486	 3.1275130134	-0.242127
H	 0.655819972	 2.0807424316	 0.0956587592	 0.096593
H	-0.6428571504	 1.6216142909	-1.0191209363	 0.122419
H	-0.9853896505	 1.7759226153	 0.7105062253	 0.120128
H	 1.3018749729	-1.4300049681	-0.8150851946	 0.104561
H	 2.0717539334	 0.2078640911	-0.5437437511	 0.096967
H	 2.0390268457	 1.3154722233	 1.6098426686	 0.117885
H	 0.897949252	 0.878525676	 2.8871447821	 0.122559
H	 2.3955205872	-0.0334397542	 2.6803290103	 0.12324
H	-0.1803696225	-2.304868914	 1.0253068679	 0.074833
H	 1.7906258959	-3.5963371659	 1.8172199982	 0.093346
H	 2.2305669308	-2.2913690665	 2.9350439278	 0.096908
H	-0.3070812285	-4.0183813016	 3.1458232681	 0.10157
H	 0.5835622687	-3.3215948431	 4.5130436286	 0.092862
H	-0.1087450183	-1.0222762141	 3.8130184507	 0.096326
H	-1.5074788369	-1.8056372788	 3.0514483446	 0.097407
49.0478	125.5123	143.3875	162.4651	184.7305	265.0775	284.4207	314.0485	332.9766	446.944	468.8645	508.3763	596.5903	718.7962	755.2491	795.5119	809.5629	894.4896	918.6702	932.7708	933.5115	960.7159	981.8883	1029.8857	1052.7056	1058.4318	1082.4891	1113.5489	1127.5919	1156.8758	1176.2556	1200.4114	1206.3113	1242.2603	1256.6765	1262.254	1272.4787	1291.03	1313.9091	1331.6627	1403.0973	1419.6749	1450.3573	1477.0327	1484.7854	1487.823	1490.0708	1503.0064	1508.1734	1510.4698	1516.1177	2979.0002	3040.4099	3050.9298	3055.0165	3059.0807	3061.838	3062.0641	3075.8132	3094.9987	3096.5554	3099.0722	3105.6261	3119.1771	3125.1523	3159.4516
CN1CC1(C)C1CCC1	CN1C[C@]1(C)C1CCC1	
InChI=1S/C8H15N/c1-8(6-9(8)2)7-4-3-5-7/h7H,3-6H2,1-2H3	InChI=1S/C8H15N/c1-8(6-9(8)2)7-4-3-5-7/h7H,3-6H2,1-2H3/t8-,9?/m1/s1
