23
gdb 68584	2.03931	1.80371	1.54177	1.2111	84.44	-0.2488	0.0753	0.3241	1058.2477	0.206187	-388.287301	-388.278278	-388.277334	-388.32003	36.559	
C	-0.1095434016	 1.5187849398	 0.0207887477	-0.459705
C	-0.0351410654	-0.0149854133	 0.0057061494	 0.318372
C	-1.4653575799	-0.5402201794	-0.151123919	-0.472145
C	 1.1144829833	-0.6113191685	-0.890187167	-0.05368
C	 2.1067419643	-0.2480960828	 0.2520359459	-0.312359
C	 0.8695281623	-0.618376161	 1.1343179346	 0.407004
O	 0.6749420323	-0.1492997632	 2.4335882961	-0.497595
C	 0.7902183468	-2.141158498	 0.8841964244	-0.284993
C	 0.9803257352	-2.1354598157	-0.6685532855	-0.223548
H	 0.8592479247	 2.015892161	 0.0756383094	 0.113828
H	-0.6128399197	 1.8777550637	-0.8838330015	 0.106561
H	-0.696788909	 1.854498377	 0.8817501707	 0.125192
H	-1.9191237948	-0.1405216345	-1.0649979731	 0.109661
H	-1.538601168	-1.6276108926	-0.199663611	 0.111126
H	-2.0817169709	-0.2060887688	 0.6908982216	 0.121148
H	 1.2677699488	-0.2626672077	-1.9117418429	 0.056382
H	 2.9995490321	-0.8736545425	 0.3502707382	 0.077863
H	 2.3855333492	 0.8013363877	 0.302485699	 0.10259
H	 1.2199867981	-0.6696531705	 3.033300229	 0.277165
H	 1.5954721177	-2.671219659	 1.4049790082	 0.083401
H	-0.1586673011	-2.5726544384	 1.2114906279	 0.101132
H	 0.1365143423	-2.5775068987	-1.203615281	 0.098331
H	 1.8840214533	-2.6670632444	-0.9797022813	 0.094269
124.5823	174.2474	193.2538	231.0254	248.7803	299.6633	342.9024	381.2175	403.3528	480.7295	490.5451	529.6797	604.7757	653.7859	688.3113	791.5063	847.2673	859.3787	893.0879	932.6764	948.8114	961.4791	968.3104	993.2759	1003.5571	1028.3611	1083.2855	1112.6089	1124.3644	1156.9578	1188.1542	1202.9441	1218.07	1234.8694	1241.4574	1273.2436	1279.3099	1306.7991	1322.6858	1384.1455	1403.5805	1424.6349	1479.3041	1480.9535	1496.8214	1504.3354	1511.8375	1517.1635	1531.9847	3031.772	3038.7363	3039.9308	3055.3762	3061.853	3087.7406	3091.5939	3095.7561	3106.592	3111.5448	3128.5176	3131.498	3164.0549	3806.5294
CC1(C)C2CC1(O)CC2	CC1(C)[C@H]2C[C@]1(O)CC2	
InChI=1S/C8H14O/c1-7(2)6-3-4-8(7,9)5-6/h6,9H,3-5H2,1-2H3	InChI=1S/C8H14O/c1-7(2)6-3-4-8(7,9)5-6/h6,9H,3-5H2,1-2H3/t6-,8-/m1/s1
