16
gdb 79955	2.71029	1.5995	1.31795	4.9622	72.96	-0.2449	-0.0176	0.2272	987.3554	0.12529	-400.746877	-400.739251	-400.738306	-400.77897	29.39	
O	 0.2036285727	 1.3586306336	 0.0210873274	-0.41245
C	 0.0150349264	-0.0138805582	 0.0359397759	 0.136316
C	-0.4414569561	-0.7975012463	 1.2561689833	-0.155203
C	-1.128426399	 0.018217645	 2.2938634947	-0.084215
C	-2.2543152522	 0.5783783739	 1.8444840282	-0.115089
C	-2.5680600203	 0.1318364857	 0.4174528949	-0.199589
C	-2.8814656059	 1.2501188771	-0.4815773749	 0.276946
N	-3.170383795	 2.1301490568	-1.172636173	-0.327483
C	-1.3327833946	-0.6859862455	 0.0073226239	-0.121889
H	-0.3293357235	 1.755839493	 0.7213634304	 0.290489
H	 0.780397125	-0.4933407093	-0.5655406625	 0.119813
H	 0.0735291771	-1.7101883065	 1.5338946853	 0.100278
H	-0.7219677018	 0.1608706005	 3.2886609961	 0.119064
H	-2.9006454466	 1.259202473	 2.3839596092	 0.126287
H	-3.4553703728	-0.5165011457	 0.4232124504	 0.140699
H	-1.4856065035	-1.5235385474	-0.6620293891	 0.106025
101.9787	133.7968	207.2946	258.6706	315.354	396.4474	479.2343	512.7368	583.5354	608.8375	736.3542	740.4521	764.0428	790.2789	829.9421	889.5609	943.3121	971.7237	998.8612	1025.679	1042.86	1054.9988	1072.6233	1106.4111	1140.0955	1196.7525	1248.8438	1289.8586	1298.5129	1330.6681	1354.6304	1373.9248	1448.8047	1662.2148	2357.1785	3010.8328	3167.3249	3173.9441	3188.2969	3196.8671	3225.1135	3767.3219
OC1C2C=CC(C#N)C12	O[C@H]1[C@H]2C=C[C@@H](C#N)[C@@H]12	
InChI=1S/C7H7NO/c8-3-4-1-2-5-6(4)7(5)9/h1-2,4-7,9H	InChI=1S/C7H7NO/c8-3-4-1-2-5-6(4)7(5)9/h1-2,4-7,9H/t4-,5-,6+,7-/m0/s1
