15
gdb 87114	3.38595	1.05763	0.92618	5.3769	64.4	-0.24	-0.091	0.149	1235.3382	0.108407	-494.883213	-494.873934	-494.87299	-494.918218	32.867	
O	-0.2466276749	 1.3305552899	-0.0442217624	-0.424666
C	-0.0505409404	-0.049000435	 0.0459863462	 0.049718
C	-0.4558138459	-0.795235574	 1.2726080243	-0.365809
C	-1.3656377306	-0.8379492362	 0.0466254523	 0.279291
O	-2.5348541215	-0.0854563731	 0.0613925561	-0.474042
C	-1.3903779629	-2.0940850879	-0.7494484192	 0.233215
O	-0.4642209236	-2.8737037096	-0.7459877108	-0.300107
C	-2.6387265909	-2.3715345511	-1.625896785	 0.082805
O	-2.7688848517	-3.4222313365	-2.19278972	-0.212251
H	 0.1147247345	 1.7521007571	 0.7423341731	 0.306074
H	 0.7589839441	-0.4436544821	-0.5625127573	 0.131302
H	 0.0872722081	-1.7032137869	 1.508212111	 0.153008
H	-0.8548528585	-0.2283800128	 2.1072173976	 0.128385
H	-2.2671833162	 0.83013029	-0.1130712662	 0.29563
H	-3.3800965997	-1.5553474718	-1.6947487197	 0.117447
44.5511	52.9452	165.7845	182.1338	230.4006	280.9924	294.0488	347.8689	400.3284	468.5807	483.4099	516.4106	601.8486	668.5878	774.5982	816.5559	852.6465	896.3351	989.6087	1006.1026	1036.1778	1058.7822	1124.7328	1168.8715	1246.9958	1293.2015	1304.6775	1377.8365	1398.2796	1418.7947	1446.9811	1781.6297	1828.8443	2977.7964	3136.0736	3149.3366	3240.5754	3704.8026	3817.1484
OC1CC1(O)C(=O)C=O	O[C@H]1C[C@]1(O)C(=O)C=O	
InChI=1S/C5H6O4/c6-2-4(8)5(9)1-3(5)7/h2-3,7,9H,1H2	InChI=1S/C5H6O4/c6-2-4(8)5(9)1-3(5)7/h2-3,7,9H,1H2/t3-,5+/m0/s1
