17
gdb 16110	4.40216	1.62288	1.41943	2.2058	74.56	-0.2404	0.0435	0.2838	917.9339	0.143575	-326.684609	-326.677483	-326.676539	-326.715592	28.284	
C	-0.0157139348	-1.1945667415	 0.3024010641	-0.387862
C	 0.0182316665	-0.0043750754	 0.1344896932	 0.245301
C	 0.0358117106	 1.4091231383	-0.1186439121	 0.136304
C	-0.8285214971	 1.9575069021	-1.2561952126	-0.279901
C	-0.2794849466	 3.3766921411	-1.530066655	-0.247309
C	 1.2087566994	 3.3260402301	-1.1080554092	-0.226568
C	 1.2657400643	 2.2655734066	-0.0225818	-0.053522
N	 0.2651491042	 2.2964267265	 1.0463362812	-0.362761
H	-0.0378422092	-2.2430514025	 0.4678923467	 0.186903
H	-0.6988107523	 1.3098822428	-2.1301176693	 0.116923
H	-1.8949109818	 1.9536610601	-1.0083127692	 0.110153
H	-0.4050648182	 3.6723520207	-2.5741694516	 0.108712
H	-0.8209111381	 4.1194374253	-0.9354777237	 0.106969
H	 1.8425155469	 3.0092006949	-1.944931745	 0.110696
H	 1.5833116393	 4.2990251504	-0.7716377357	 0.106653
H	 2.2245219842	 1.8464290078	 0.2665854181	 0.101297
H	-0.3238951872	 3.1244108128	 0.98557386	 0.228011
141.5164	156.437	234.3523	306.9268	401.7019	490.773	520.6744	566.2635	603.4485	647.8092	649.9413	684.7407	797.1257	858.9024	873.2847	898.5242	932.5178	964.8973	1021.6577	1047.2179	1056.1902	1110.6998	1143.0917	1179.8462	1211.4395	1249.1694	1268.4886	1304.0821	1318.3963	1336.6614	1342.1237	1419.4932	1487.9174	1495.4548	1512.4457	2240.2356	3035.4037	3045.3897	3050.7534	3074.9243	3084.5368	3106.007	3162.4153	3484.4303	3503.8927
C#CC12CCCC1N2	C#C[C@]12CCC[C@H]1N2	
InChI=1S/C7H9N/c1-2-7-5-3-4-6(7)8-7/h1,6,8H,3-5H2	InChI=1S/C7H9N/c1-2-7-5-3-4-6(7)8-7/h1,6,8H,3-5H2/t6-,7+/m1/s1
