17
gdb 36333	5.13465	0.76938	0.72145	3.2722	80.1	-0.2429	0.0198	0.2628	1523.809	0.135128	-380.818435	-380.809579	-380.808635	-380.852709	32.101	
C	 0.03474916	-1.2031873486	-0.0013041698	-0.423419
C	 0.0093352354	-0.0024307541	-0.0159654203	 0.304161
C	-0.0187548566	 1.4568664294	-0.0038383816	-0.313002
N	 1.3203568104	 2.0216139345	 0.0653980169	-0.076192
C	 2.1101106726	 1.8105354211	 1.2934525126	-0.174922
C	 2.6750936552	 3.2514273011	 1.1152891239	-0.155329
C	 1.4411273057	 3.4847050025	 0.194820206	-0.18037
C	 2.8256464108	 4.0858552353	 2.2912484751	 0.268619
N	 2.9367848978	 4.7503111858	 3.2308596525	-0.322689
H	 0.0531170732	-2.2650920948	 0.0015080014	 0.203172
H	-0.4952925915	 1.8255939619	-0.9213833653	 0.140619
H	-0.6527829512	 1.7980553582	 0.8390402755	 0.113309
H	 1.4970953895	 1.7293092919	 2.2039953294	 0.113595
H	 2.8201759838	 0.9816925047	 1.2564776876	 0.130144
H	 3.6034047721	 3.2462441285	 0.5409565676	 0.138012
H	 1.6044936954	 4.0267954421	-0.7405753113	 0.123925
H	 0.6112403673	 3.9504551905	 0.7493884699	 0.110366
53.0236	79.6773	140.4846	181.9368	261.5674	318.1622	339.6579	349.3161	446.9663	543.1327	559.8998	620.6426	640.5031	670.4844	790.3414	896.4465	948.58	963.1649	988.0463	997.1771	1066.1456	1113.0781	1119.4518	1129.1909	1181.457	1214.4633	1238.7248	1261.5548	1294.6076	1329.5465	1360.7103	1391.7125	1479.0818	1503.8112	1529.1354	2244.7605	2358.6047	2902.2405	2982.6754	2995.2178	3036.8612	3083.0703	3096.7591	3107.2075	3505.0106
C#CCN1CC(C1)C#N	C#CCN1CC(C1)C#N	
InChI=1S/C7H8N2/c1-2-3-9-5-7(4-8)6-9/h1,7H,3,5-6H2	InChI=1S/C7H8N2/c1-2-3-9-5-7(4-8)6-9/h1,7H,3,5-6H2
