21
gdb 68482	2.71366	1.6845	1.2962	0.497	78.06	-0.2382	0.0756	0.3139	1052.8195	0.1837	-424.210615	-424.202775	-424.201831	-424.242185	32.527	
C	-0.1318912559	 1.5405580115	 0.0547555642	-0.443483
C	 0.0530265742	 0.0358633333	 0.0357350389	 0.404587
C	 1.1479957688	-0.5625494955	-0.9057047076	-0.289476
C	 1.4666722827	-1.6101025889	 0.1969333824	 0.117836
C	 0.8067234158	-0.6422346237	 1.2217599812	-0.293007
O	 0.8167493617	-2.8628982674	 0.0754912687	-0.266805
C	-0.4731808069	-2.8666487319	-0.512489949	-0.087698
C	-1.4693443213	-1.873516885	 0.0878869984	-0.092948
O	-1.2389695429	-0.5112935169	-0.2264620051	-0.306233
H	 0.8270358067	 2.0482825036	 0.1928421443	 0.107603
H	-0.5729885532	 1.8796718804	-0.88780474	 0.124249
H	-0.8042009969	 1.8334194876	 0.8671054942	 0.120995
H	 0.8306213806	-0.9087241706	-1.8907176017	 0.105962
H	 1.9863569396	 0.1289294203	-1.0269589394	 0.09909
H	 2.5184853137	-1.8527185443	 0.3624278473	 0.080258
H	 1.5446856264	 0.0452375085	 1.6444542605	 0.09959
H	 0.2285819319	-1.0814746243	 2.0364329554	 0.106027
H	-0.4139667644	-2.7041682326	-1.5989838097	 0.098479
H	-0.8579696971	-3.8796193733	-0.3518357975	 0.108513
H	-2.460852056	-2.0945401858	-0.3224403443	 0.108198
H	-1.5212440973	-2.0279939149	 1.1756256189	 0.098264
203.1263	220.2774	242.4218	273.8584	347.4558	355.3035	397.7513	437.1181	450.5046	490.0449	576.5519	645.0158	775.2789	783.0537	832.8127	882.8353	890.2924	891.6712	936.2781	970.8603	980.2965	1001.9455	1060.9649	1103.53	1113.2697	1136.8282	1148.7198	1207.7067	1216.2225	1222.6903	1254.5575	1267.8911	1272.9571	1310.5392	1331.6635	1381.1266	1407.2876	1410.8028	1416.0023	1451.812	1474.8251	1482.3784	1493.2045	1497.7001	1506.0933	2994.4657	3004.8021	3038.1024	3063.3845	3066.9462	3070.5355	3074.0983	3089.238	3109.8271	3115.8184	3126.4656	3127.8955
CC12CC(C1)OCCO2	C[C@@]12C[C@@H](C1)OCCO2	
InChI=1S/C7H12O2/c1-7-4-6(5-7)8-2-3-9-7/h6H,2-5H2,1H3	InChI=1S/C7H12O2/c1-7-4-6(5-7)8-2-3-9-7/h6H,2-5H2,1H3/t6-,7+
