17
gdb 110752	2.1881	1.47467	1.38435	1.3388	70.69	-0.2389	0.0092	0.2481	1060.6288	0.134904	-455.08671	-455.077878	-455.076934	-455.120392	32.438	
C	 0.1882088153	 0.8523069248	-0.3568910262	-0.245725
O	-0.4379742887	-0.0514484186	 0.5419865096	-0.243055
C	 0.456574475	-0.6831848846	 1.3916939864	 0.070226
C	 0.1550559391	-2.056463218	 1.8899257084	-0.163483
N	-0.4356067594	-2.8915445008	 0.8336162008	-0.345825
C	 0.6867674973	-2.6784868331	-0.0291031158	 0.300346
N	 1.0458810089	-3.1304018942	-1.150312538	-0.549655
C	 1.3877633559	-1.7986748932	 0.9586782783	 0.256875
O	 2.7360638199	-1.7008359417	 1.1726024058	-0.444746
H	 0.9101664653	 0.3361724455	-1.0025515824	 0.136137
H	-0.6023800735	 1.2872776917	-0.971774738	 0.130281
H	 0.7070320657	 1.6578165284	 0.1823229033	 0.11269
H	 0.9418052856	-0.029597404	 2.1224972742	 0.103857
H	 0.0942911899	-2.3505776359	 2.9296810828	 0.116247
H	-1.3373403073	-2.5895870731	 0.474762768	 0.242856
H	 0.3305706143	-3.7408560891	-1.5507622875	 0.221378
H	 3.1257855566	-2.571079334	 1.0255541002	 0.301597
70.1845	124.1775	154.1625	181.0386	222.4491	266.71	340.1633	365.2797	467.4857	477.8209	567.9023	653.9956	700.1926	748.6518	795.5058	834.9916	878.5902	909.0919	948.3692	1017.8655	1027.3281	1057.9127	1081.8081	1123.5189	1180.4999	1201.1563	1236.2018	1251.6153	1295.6812	1337.9131	1361.0045	1365.1763	1460.8544	1487.875	1495.1193	1508.5223	1798.1602	2997.1146	3059.4783	3075.2536	3127.157	3202.0833	3459.3848	3510.9086	3789.7877
COC1C2NC(=N)C12O	CO[C@H]1[C@H]2N[C]([NH])[C@@]12O	
InChI=1S/C5H8N2O2/c1-9-3-2-5(3,8)4(6)7-2/h2-3,8H,1H3,(H2,6,7)	InChI=1S/C5H8N2O2/c1-9-3-2-5(3,8)4(6)7-2/h2-3,8H,1H3,(H2,6,7)/t2-,3+,5+/m1/s1
