17
gdb 29820	3.14092	1.37059	0.96141	4.8152	81.6	-0.1868	-0.0342	0.1526	1184.4304	0.137528	-418.072141	-418.063596	-418.062652	-418.105881	31.72	
C	-0.0476173302	 1.4506350397	 0.0151586284	-0.356219
N	 0.00265614	-0.0082247799	-0.0032940978	-0.15
C	-1.1785022734	-0.7096161414	-0.0057983405	-0.018568
C	-1.2192591755	-2.0720508428	-0.0395253636	 0.175761
N	-2.4210523745	-2.8071488129	-0.1405677205	-0.592249
C	 0.0333210684	-2.7556570521	-0.0537176147	-0.084819
C	 1.2067197628	-2.0726565039	-0.0274889168	-0.236955
C	 1.2717364054	-0.6238700936	-0.0035795218	 0.427936
O	 2.3044657703	 0.0371669402	 0.0134064371	-0.425131
H	 0.9811356131	 1.8068046069	 0.0158316975	 0.180748
H	-0.570496038	 1.8271015307	-0.8696222551	 0.132738
H	-0.5627343332	 1.8060911531	 0.9133352799	 0.131107
H	-2.0780016798	-0.1043691536	 0.0096662787	 0.109226
H	-3.2397345386	-2.253289286	 0.078095966	 0.240668
H	-2.4197698146	-3.6329596823	 0.4461237004	 0.245838
H	 0.0328926556	-3.8420171482	-0.0908217096	 0.103452
H	 2.1629466322	-2.5809767538	-0.0325065976	 0.116467
37.4705	119.8392	179.2888	206.658	305.7142	332.1518	382.4411	409.3347	452.1464	520.5634	543.7248	606.4285	711.4074	738.9988	764.974	818.707	843.9449	856.9935	940.5652	990.6495	1058.3384	1140.6743	1146.3006	1153.5662	1180.4451	1222.9918	1310.6959	1349.0264	1400.9321	1445.9298	1490.7178	1500.2601	1506.8534	1585.8233	1654.4209	1686.6064	1756.5582	3037.1719	3096.8586	3162.7256	3173.0978	3188.2115	3215.5264	3525.7937	3616.2188
CN1C=C(N)C=CC1=O	Cn1cc(N)ccc1=O	
InChI=1S/C6H8N2O/c1-8-4-5(7)2-3-6(8)9/h2-4H,7H2,1H3	InChI=1S/C6H8N2O/c1-8-4-5(7)2-3-6(8)9/h2-4H,7H2,1H3
