19
gdb 23022	2.67189	0.98707	0.81132	2.1497	75.22	-0.2451	0.0028	0.248	1439.0304	0.157197	-456.268907	-456.25863	-456.257686	-456.306314	36.129	
C	 0.9518531876	 1.1115242484	-0.0479634103	-0.486918
C	-0.0108034487	-0.0197227939	 0.1755808113	 0.353393
N	-0.6053251016	-0.3070481373	 1.2699818754	-0.16689
O	-0.2861439097	 0.577404077	 2.3091594767	-0.391308
C	-0.3607558241	-0.8734235437	-1.0046588467	-0.113251
N	 0.7513257734	-1.5788538597	-1.6723450532	-0.349589
C	-0.3234208196	-2.3570969959	-1.018419248	-0.023796
C	 0.1307449378	-3.2127841769	 0.1396409668	-0.063892
O	 0.7878622338	-4.3804163649	-0.3316225684	-0.425538
H	 1.8038109399	 0.7473105694	-0.6288505967	 0.14869
H	 0.4746506512	 1.9089573794	-0.6317441241	 0.132489
H	 1.2944507655	 1.5344541012	 0.8951246781	 0.15367
H	-0.7703222363	 0.1981088781	 3.0500007837	 0.307123
H	-1.1006793282	-0.4125210969	-1.6607523866	 0.100411
H	 0.6220245327	-1.5611360703	-2.6801366025	 0.234858
H	-1.0390805412	-2.8503501039	-1.6744861861	 0.091245
H	 0.7741842869	-2.6269164523	 0.8060371532	 0.09941
H	-0.7318614405	-3.5535967437	 0.7201993812	 0.113575
H	 1.548010211	-4.0741746941	-0.8392558639	 0.286317
19.2627	45.1534	80.7912	102.9119	180.3228	240.4265	306.3	315.8178	368.0983	411.6196	425.4265	487.119	523.8464	566.9618	675.7098	782.8801	821.0941	903.6312	925.2064	955.5799	999.0426	1007.714	1032.4009	1051.4587	1066.0078	1117.2696	1175.7551	1199.478	1240.6464	1272.9717	1283.4122	1359.7693	1385.574	1390.6579	1407.4135	1434.8178	1473.226	1484.6347	1485.9597	1493.6551	1728.9949	3034.0525	3038.7817	3088.6883	3092.5611	3099.9337	3124.6281	3166.2349	3506.4847	3799.123	3821.8026
CC(=NO)C1NC1CO	CC(=NO)[C@H]1N[C@H]1CO	
InChI=1S/C5H10N2O2/c1-3(7-9)5-4(2-8)6-5/h4-6,8-9H,2H2,1H3	InChI=1S/C5H10N2O2/c1-3(7-9)5-4(2-8)6-5/h4-6,8-9H,2H2,1H3/t4-,5+/m0/s1
