18
gdb 66198	2.35825	1.54385	1.38447	2.2335	77.63	-0.2486	0.0209	0.2694	1048.4469	0.147108	-401.932163	-401.923631	-401.922687	-401.964944	32.839	
C	 0.0171009669	 1.5089153404	 0.0755914582	-0.422839
C	-0.0454638055	-0.0162267678	-0.0295190636	 0.159288
C	 0.706456635	-0.5517228242	-1.2620729117	-0.250042
C	 0.8179619132	-2.0749647435	-1.1788889583	-0.167912
N	 1.2759978121	-2.5402374269	 0.1262709686	-0.261898
C	 1.1461134876	-1.7608033395	 1.1102665553	 0.129723
O	 0.6064673503	-0.5130323952	 1.1702587472	-0.250175
C	-1.440717249	-0.4750117458	-0.0280700702	 0.387203
C	-2.5859758801	-0.8379374114	-0.0449218966	-0.508495
H	 1.0607618758	 1.8335056688	 0.0959970361	 0.126079
H	-0.484446764	 1.9651644451	-0.7814886517	 0.129529
H	-0.4759364447	 1.8436863546	 0.9908874316	 0.138714
H	 0.1928043725	-0.2341170386	-2.1739616351	 0.112402
H	 1.7059113121	-0.1022531879	-1.2636013971	 0.111497
H	-0.1519216147	-2.5404086626	-1.3943759854	 0.126007
H	 1.5157808507	-2.4461425001	-1.9368622975	 0.11108
H	 1.5012193524	-2.0445589361	 2.099529451	 0.124124
H	-3.5971448807	-1.1637424692	-0.0499764006	 0.205715
92.9599	149.385	191.5465	235.3444	248.8797	305.3233	394.0767	412.9214	486.9269	513.9572	584.8469	602.4393	638.2318	671.2346	687.4666	791.6945	859.0498	883.977	925.2255	961.3392	980.5681	1028.3834	1049.2349	1121.4513	1152.4238	1183.8615	1200.5874	1269.8958	1274.4978	1360.3451	1372.988	1404.6307	1411.6058	1471.8298	1482.8601	1487.8588	1491.4736	1737.9133	2235.0102	3032.2322	3041.7425	3051.5774	3068.4708	3098.6417	3131.8127	3137.7236	3156.8399	3499.5437
CC1(CCN=CO1)C#C	C[C@]1(CCN=CO1)C#C	
InChI=1S/C7H9NO/c1-3-7(2)4-5-8-6-9-7/h1,6H,4-5H2,2H3	InChI=1S/C7H9NO/c1-3-7(2)4-5-8-6-9-7/h1,6H,4-5H2,2H3/t7-/m1/s1
