21
gdb 57311	2.98112	1.0235	0.91775	4.5213	81.32	-0.248	-0.0194	0.2286	1377.34	0.180718	-420.451364	-420.440891	-420.439947	-420.486988	38.281	
C	-0.0236652965	 1.6794821595	-0.0466298935	-0.388869
C	 0.0470593369	 0.1452343555	-0.0382328285	 0.159995
C	 0.8110071721	-0.3174533083	 1.2239800365	-0.40953
C	-1.3898168717	-0.4257375108	-0.0220162822	-0.409508
C	 0.7825733491	-0.3354827797	-1.2956990557	 0.374031
N	 1.2316148745	 0.4754878049	-2.1597321061	-0.513023
N	 0.8997770416	-1.7483493411	-1.3794730435	-0.334498
C	 1.4998224167	-2.4743460098	-2.3762040202	 0.167281
O	 2.0366775376	-2.0246226685	-3.3639857379	-0.301235
H	 0.9755922469	 2.1187694118	-0.0636907273	 0.129374
H	-0.5530775787	 2.0435578121	-0.9292087468	 0.12939
H	-0.5480508057	 2.027689758	 0.8492869183	 0.098103
H	 0.3086943624	 0.0590554483	 2.1206659786	 0.122867
H	 0.8622107274	-1.4078639489	 1.3181233378	 0.097024
H	 1.8357241061	 0.0660939216	 1.2233226373	 0.132091
H	-1.9422657731	-0.1195790527	-0.9154472163	 0.132093
H	-1.4154535673	-1.5199394108	 0.0283314121	 0.097026
H	-1.9281476475	-0.0512010768	 0.8543658101	 0.122858
H	 1.6888008174	-0.0227316263	-2.9239669409	 0.251401
H	 0.501072719	-2.2885079509	-0.6277845367	 0.252071
H	 1.4388228829	-3.5615497171	-2.1734723052	 0.091058
42.8594	68.6578	183.7152	186.9376	235.6965	238.5446	262.1025	268.4421	294.3384	331.8907	371.5215	381.2353	474.087	526.6173	582.3785	666.6859	718.775	836.8881	926.1463	930.8958	947.3849	966.2586	973.5169	995.6163	1024.1033	1050.8581	1057.3387	1187.1819	1229.7733	1242.2528	1254.9535	1352.0201	1404.6208	1405.5231	1437.9419	1442.0344	1473.6764	1477.9307	1482.678	1493.9949	1500.7184	1509.6833	1520.4211	1728.4931	1811.9876	2941.5896	3026.8964	3031.0588	3046.7258	3089.3332	3094.0166	3110.2865	3111.3345	3122.6212	3139.9715	3484.0141	3628.8351
CC(C)(C)C(=N)NC=O	CC(C)(C)C(=N)NC=O	
InChI=1S/C6H12N2O/c1-6(2,3)5(7)8-4-9/h4H,1-3H3,(H2,7,8,9)	InChI=1S/C6H12N2O/c1-6(2,3)5(7)8-4-9/h4H,1-3H3,(H2,7,8,9)
