14
gdb 132059	2.36076	1.87091	1.04466	4.9787	72.22	-0.1964	-0.0294	0.167	1046.2935	0.101344	-477.996715	-477.989099	-477.988154	-478.028653	29.409	
N	 0.0050368464	 1.3975392218	 0.1700955837	-0.587217
C	 0.0091697058	 0.0218542092	 0.0630809438	 0.214202
C	-1.1403751278	-0.7036611322	 0.0402786785	 0.113153
F	-2.3181375005	-0.0624335031	 0.0577266282	-0.078984
C	-1.1838751082	-2.1426199247	-0.005344446	 0.305064
N	-2.2485014962	-2.832081209	-0.0262407904	-0.548314
O	 0.07602109	-2.7610252571	-0.0350440693	-0.24386
C	 1.2183467967	-2.0460958342	-0.0174410514	 0.081521
C	 1.256269039	-0.7068984139	 0.0308063796	-0.251666
H	 0.7905446878	 1.8767559241	-0.2424104539	 0.257326
H	-0.8826671926	 1.8349307404	-0.0285257896	 0.266081
H	-2.0315432934	-3.8270465456	-0.0664145928	 0.221187
H	 2.0905529072	-2.6869780938	-0.0444892951	 0.139287
H	 2.2044633257	-0.186058842	 0.0573017147	 0.11222
116.8318	177.6282	278.9074	288.6987	316.9372	362.5558	487.5233	496.5623	517.2519	542.026	570.6868	656.7543	692.7843	719.8416	766.8426	803.1512	853.1833	914.8229	948.2824	1024.8907	1107.0425	1190.1258	1242.5519	1274.335	1328.948	1388.9773	1474.5291	1628.9303	1646.6411	1717.5261	1746.6543	3210.2571	3229.6354	3504.9939	3575.1393	3682.4503
NC1=C(F)C(=N)OC=C1	N[C@@H]1C(=C([NH])OC=C1)F	
InChI=1S/C5H5FN2O/c6-4-3(7)1-2-9-5(4)8/h1-2,8H,7H2	InChI=1S/C5H6FN2O/c6-4-3(7)1-2-9-5(4)8/h1-3,8H,7H2/t3-/m0/s1
