18
gdb 87599	3.35041	1.36543	1.26142	2.5986	78.37	-0.2234	-0.0091	0.2143	1067.6846	0.147738	-401.895234	-401.887594	-401.886649	-401.927147	30.212	
C	-0.1821220829	 1.4257222643	-0.1008424663	-0.315081
N	 0.051003189	-0.0064954442	 0.0269211773	-0.118996
C	 1.4067326055	-0.492138447	-0.1487487868	-0.304533
C	 0.7609741816	-0.5119116261	 1.2050843163	 0.331278
C	 1.266261162	 0.3257885277	 2.3383200841	-0.161964
C	 1.19478696	-0.3330123316	 3.5003499368	-0.106978
C	 0.56243701	-1.6746214014	 3.2933799513	-0.01644
O	-0.7941893532	-1.583313325	 2.7974509738	-0.258433
C	 0.2655157004	-1.7823530148	 1.8572767244	-0.046765
H	 0.6815834153	 2.052266794	 0.1719716932	 0.099594
H	-0.4391710285	 1.6432739607	-1.1422500418	 0.126993
H	-1.0301570436	 1.7097085334	 0.5288450339	 0.136539
H	 1.5196541172	-1.4161177652	-0.7124287209	 0.116612
H	 2.2034822826	 0.2362386174	-0.300592685	 0.106524
H	 1.6194217227	 1.3414277508	 2.211897293	 0.108574
H	 1.505966802	 0.0433504939	 4.4664289907	 0.107236
H	 0.7661523699	-2.5235338618	 3.9382157627	 0.098269
H	 0.2366826602	-2.714344835	 1.3000760033	 0.097572
113.273	158.4283	230.9234	250.8851	336.2955	401.8562	426.7083	490.4196	537.1881	609.4602	738.2082	754.6387	818.2044	846.1433	853.7838	869.7841	913.1238	928.9314	945.3461	980.789	1024.727	1050.4464	1099.1022	1109.2586	1118.2194	1146.2321	1162.2913	1201.1344	1246.1713	1264.3187	1302.7192	1348.1596	1385.0301	1429.7142	1449.1615	1490.1799	1500.9589	1509.9577	1647.9467	2978.0486	3072.8445	3078.678	3112.5191	3153.7499	3164.4916	3169.8559	3203.1124	3226.0872
CN1CC11C=CC2OC12	CN1C[C@]21C=C[C@H]1O[C@@H]21	
InChI=1S/C7H9NO/c1-8-4-7(8)3-2-5-6(7)9-5/h2-3,5-6H,4H2,1H3	InChI=1S/C7H9NO/c1-8-4-7(8)3-2-5-6(7)9-5/h2-3,5-6H,4H2,1H3/t5-,6-,7-,8?/m1/s1
