21
gdb 111142	3.46982	1.08201	0.95843	1.8882	79.01	-0.2521	0.0756	0.3277	1324.5522	0.18076	-424.164055	-424.154943	-424.153999	-424.197649	35.389	
C	 0.4377797846	 0.984306669	 0.6179260698	-0.379482
C	 0.1558546034	-0.52021842	 0.7044367231	-0.214893
C	-1.3146517527	-0.8518154663	 0.4980491515	 0.027689
C	-1.8826192465	-0.8802892399	-0.9450624337	-0.043299
O	-1.0921747802	-2.1214606317	-1.1978783434	-0.342495
C	-1.7113973134	-2.3071582006	 0.1487643861	-0.058929
C	-3.0606559376	-1.815879205	-0.4892247453	 0.487287
C	-4.2345366806	-1.3267747676	 0.3338602114	-0.470606
O	-3.5752398857	-2.6433436906	-1.4884520104	-0.490732
H	 1.4965573143	 1.1972130414	 0.7936583485	 0.115642
H	 0.1796007964	 1.3806824401	-0.3700436799	 0.117008
H	-0.1413839081	 1.544634783	 1.3607203661	 0.111742
H	 0.7504582716	-1.0598321942	-0.0373842787	 0.119081
H	 0.4628286759	-0.8909835713	 1.6910732814	 0.093737
H	-1.9413621743	-0.3534526627	 1.2419003533	 0.07087
H	-1.8614024964	-0.1172847133	-1.7253855121	 0.091756
H	-1.4827580156	-3.2384555577	 0.6706905278	 0.090968
H	-3.9485426088	-0.6597538664	 1.1468467077	 0.121457
H	-4.9368160021	-0.799791586	-0.3187068325	 0.133885
H	-4.7615227291	-2.1869890515	 0.7570635612	 0.133709
H	-2.7973244448	-2.9332095188	-1.9886845919	 0.285607
84.2063	140.7656	161.1204	185.6411	240.4316	267.3186	343.4615	372.1679	421.6487	476.168	540.6792	625.9807	627.053	723.4303	748.7632	757.3141	784.8337	868.5065	884.3334	894.508	945.7964	976.9385	1056.3218	1062.1988	1079.5726	1105.1459	1124.5811	1127.1092	1136.3202	1146.5774	1195.165	1216.0421	1270.6946	1287.1416	1289.8258	1350.907	1393.58	1411.668	1426.2158	1437.5205	1480.4182	1490.6466	1499.9997	1502.0316	1506.2361	3025.6784	3030.4263	3053.2426	3076.1062	3085.2654	3099.912	3104.8566	3107.5353	3108.3981	3114.7143	3151.737	3719.6609
CCC1C2OC1C2(C)O	CC[C@H]1[C@H]2O[C@@H]1[C@]2(C)O	
InChI=1S/C7H12O2/c1-3-4-5-7(2,8)6(4)9-5/h4-6,8H,3H2,1-2H3	InChI=1S/C7H12O2/c1-3-4-5-7(2,8)6(4)9-5/h4-6,8H,3H2,1-2H3/t4-,5+,6-,7+
