16
gdb 13949	5.06084	1.30485	1.21442	1.4108	69.71	-0.2351	0.0449	0.28	1007.4864	0.12918	-346.519704	-346.512142	-346.511198	-346.551912	28.451	
C	-0.0570446583	-1.2115538128	 0.2276417467	-0.453414
C	-0.061631581	-0.0196269476	 0.0744945726	 0.312098
C	-0.0326530227	 1.4289460598	-0.1231664829	-0.472268
C	 1.3674955733	 1.9916805129	-0.0928016693	 0.29191
C	 2.0923916005	 2.4221767894	 1.1666600321	-0.332837
C	 1.9000369877	 3.3996661752	 0.0461894894	 0.04092
O	 2.892572403	 3.2119097039	-0.9641920079	-0.286337
C	 2.3940561113	 1.8688853675	-1.2173031586	-0.122031
H	-0.0626911664	-2.264141462	 0.3668172503	 0.198115
H	-0.510244947	 1.6728562648	-1.0819873019	 0.134065
H	-0.6389052647	 1.9166544035	 0.650798745	 0.133247
H	 1.4467040942	 2.5647215045	 2.0285705366	 0.114911
H	 3.0907309892	 2.0571201151	 1.3926817683	 0.117376
H	 1.4241764438	 4.3711368132	 0.1211899081	 0.105935
H	 3.1734266332	 1.1050966232	-1.1181838777	 0.111066
H	 1.9413556639	 1.8109774394	-2.2145378408	 0.107244
55.1645	110.755	254.6054	299.7411	345.7207	364.0007	426.4204	461.1836	622.2316	642.4195	708.827	760.9956	851.7871	897.7786	923.2663	934.8304	954.6146	987.7624	1004.7747	1024.5801	1065.0017	1081.8478	1100.7363	1154.5547	1183.2131	1264.8742	1288.1269	1323.9373	1342.7813	1409.9869	1463.2165	1483.8018	1516.0484	2238.7949	3012.2731	3022.6624	3046.964	3074.6407	3112.2199	3176.2964	3204.2152	3505.888
C#CCC12CC1OC2	C#CC[C@]12C[C@H]1OC2	
InChI=1S/C7H8O/c1-2-3-7-4-6(7)8-5-7/h1,6H,3-5H2	InChI=1S/C7H8O/c1-2-3-7-4-6(7)8-5-7/h1,6H,3-5H2/t6-,7-/m1/s1
