20
gdb 120279	2.98623	1.0084	0.87389	1.1967	74.71	-0.2316	0.0624	0.294	1373.4146	0.170379	-440.222142	-440.212789	-440.211844	-440.256875	34.441	
O	 0.0641401835	 1.4958088825	 0.1941141076	-0.42329
C	 0.1015870282	 0.084225238	 0.0382983363	-0.073563
C	-1.3371833558	-0.4192368867	 0.039163718	-0.197746
C	-1.421589975	-1.9311933129	-0.0785623937	-0.003926
C	-2.8058473963	-2.6185553884	-0.330024771	 0.069605
O	-3.9363652552	-1.8193184112	-0.6061691678	-0.42588
C	-2.1827439278	-3.2242150084	-1.5749419733	-0.03288
C	-1.6575762991	-2.1677188474	-2.4589485331	-0.243857
N	-0.8271542623	-2.5799736138	-1.3119873382	-0.14533
H	 0.965032086	 1.8267899818	 0.1365643359	 0.285329
H	 0.5933238806	-0.2049891541	-0.9020789092	 0.106103
H	 0.6632392988	-0.3930009033	 0.8583231576	 0.083497
H	-1.8150873064	-0.1095837431	 0.9777805287	 0.098644
H	-1.890853276	 0.0772379841	-0.7627438421	 0.118198
H	-0.923421645	-2.3934934591	 0.7803570662	 0.078299
H	-3.0313612866	-3.3693270004	 0.4371785455	 0.074667
H	-4.2860375468	-1.489533443	 0.2278779676	 0.286124
H	-2.2734411393	-4.2599659491	-1.8834295638	 0.09393
H	-1.2343019143	-2.4841374135	-3.4071060497	 0.120086
H	-2.1330391411	-1.1926208121	-2.4765960414	 0.13199
64.6031	85.3145	114.426	163.5981	246.4381	265.5816	284.9683	309.693	375.2312	471.8147	564.4743	581.3807	735.1041	767.2074	776.8352	808.1909	858.5126	932.8419	963.1337	999.2291	1021.634	1061.974	1073.3472	1089.8017	1105.7641	1122.2911	1148.6645	1171.1568	1193.4586	1219.3096	1231.7921	1242.0166	1278.0207	1304.1606	1311.3829	1325.6876	1372.8434	1396.0875	1433.0344	1460.9818	1485.854	1507.2859	1527.4608	2965.5666	3007.9365	3021.3931	3033.744	3048.2849	3094.2763	3129.1361	3171.9083	3215.044	3816.5947	3831.1805
OCCC1C(O)C2CN12	OCC[C@H]1[C@@H](O)[C@H]2CN12	
InChI=1S/C6H11NO2/c8-2-1-4-6(9)5-3-7(4)5/h4-6,8-9H,1-3H2	InChI=1S/C6H11NO2/c8-2-1-4-6(9)5-3-7(4)5/h4-6,8-9H,1-3H2/t4-,5+,6+,7?/m0/s1
