19
gdb 105813	2.5402	1.46085	1.2401	1.9184	75.59	-0.204	0.0553	0.2593	1097.5705	0.158199	-419.081568	-419.072835	-419.071891	-419.11507	33.241	
C	-0.2428615237	 1.5436905348	 0.0784666439	-0.294916
N	 0.1511153423	 0.136130744	 0.1677865268	-0.123051
C	 1.3548260335	-0.5116259398	-0.2618798971	-0.132756
C	 2.6936770896	 0.166799563	 0.2100009414	-0.075135
N	 2.3686388563	 1.43139154	 0.9126989907	-0.340188
C	 2.2403668993	 0.1311377094	 1.6126149404	-0.12073
C	 0.8961751882	-0.5659206078	 1.1760014741	 0.308275
C	 0.2535433278	-1.6603055449	 1.9735060024	-0.167238
O	-0.4407365753	-1.1590772612	 3.1100277365	-0.417291
H	 0.3796350455	 2.0912909814	-0.6308125167	 0.130255
H	-1.286635854	 1.5874184052	-0.2585375446	 0.099088
H	-0.1605643271	 2.0457125122	 1.0446185321	 0.127121
H	 1.3177887659	-1.2722983117	-1.0361982712	 0.094103
H	 3.6731456006	-0.0197721268	-0.2099414413	 0.095167
H	 3.2536559451	 1.8421922628	 1.2103855731	 0.231682
H	 2.78899071	-0.0885549215	 2.5187904887	 0.098408
H	-0.4085597366	-2.2380569026	 1.3128274431	 0.096678
H	 1.0153282817	-2.3405245541	 2.3710029661	 0.105063
H	-1.127579369	-0.5694622223	 2.7805247617	 0.285466
61.1977	127.0808	145.5152	227.8691	272.0124	284.6288	343.9411	396.3084	415.3435	508.3818	643.4455	673.864	735.5518	764.9526	814.2346	835.8961	872.8601	889.5746	916.1186	960.5975	981.2835	1024.6853	1048.6314	1076.2979	1089.7314	1106.0049	1141.8902	1169.6181	1201.7538	1226.9783	1233.1073	1289.6544	1297.5738	1344.4112	1370.8659	1414.0973	1439.1187	1463.2647	1489.5292	1490.4227	1501.8333	3003.0178	3013.2203	3068.2867	3096.4258	3136.9815	3150.3487	3197.248	3210.8087	3467.2264	3807.7521
CN1C2C3NC3C12CO	CN1[C@H]2[C@H]3N[C@H]3[C@@]12CO	
InChI=1S/C6H10N2O/c1-8-5-3-4(7-3)6(5,8)2-9/h3-5,7,9H,2H2,1H3	InChI=1S/C6H10N2O/c1-8-5-3-4(7-3)6(5,8)2-9/h3-5,7,9H,2H2,1H3/t3-,4+,5-,6+,8?/m0/s1
