13
gdb 21449	6.0486	1.48008	1.18911	2.4804	63.02	-0.2154	0.0023	0.2177	928.1903	0.098744	-390.963176	-390.956532	-390.955588	-390.994266	24.402	
N	 0.2367613393	 1.2682865474	 0.0041055742	-0.464478
C	 0.0552299904	 0.0040144701	 0.0014257303	 0.078868
N	-1.1884486382	-0.5650097319	 0.0112106931	-0.372666
C	-2.3953773421	 0.1149385566	 0.0251413454	 0.406758
C	-2.6817090187	 1.4623097408	 0.0325074055	-0.153351
N	-4.0406662451	 1.4746365026	 0.0456948809	-0.153217
N	-4.5614222023	 0.2417647038	 0.0462932517	-0.115237
N	-3.5584167276	-0.5936515176	 0.0338497371	-0.276123
H	 1.2316129597	 1.4778355421	-0.0045953653	 0.224392
H	 0.84630346	-0.7536237479	-0.0087068194	 0.097523
H	-1.2679446596	-1.5688162998	 0.0086279184	 0.266545
H	-2.0549964902	 2.3328907883	 0.0295004687	 0.177627
H	-4.6598082855	 2.2691051155	 0.0544470793	 0.283359
86.9404	191.5796	207.0273	364.6942	381.6216	485.9822	572.4016	614.3636	689.0162	730.3082	786.1694	802.3925	832.0139	986.0053	1033.4207	1038.0085	1056.4587	1125.3874	1143.2988	1238.5244	1268.9511	1309.6779	1357.4075	1408.325	1472.5548	1573.8799	1631.7154	1718.488	3062.5678	3335.9823	3522.4494	3654.3395	3661.6566
N=CNC1=CNN=N1	N=CNc1c[nH]nn1	
InChI=1S/C3H5N5/c4-2-5-3-1-6-8-7-3/h1-2H,(H3,4,5,6,7,8)	InChI=1S/C3H5N5/c4-2-5-3-1-6-8-7-3/h1-2H,(H3,4,5,6,7,8)
