16
gdb 133610	2.93266	1.3033	1.16908	2.7935	57.02	-0.2648	0.0785	0.3433	1065.054	0.121915	-569.405896	-569.397886	-569.396941	-569.439434	29.186	
F	-0.360085699	-0.0348866278	 0.2223047776	-0.084023
C	-0.162866684	 1.2826924646	 0.0558763244	 0.269342
F	 1.1496951314	 1.4821944819	-0.0834416211	-0.067853
F	-0.7567076576	 1.6375988605	-1.0981771028	-0.083619
C	-0.7356813627	 2.0995581145	 1.2152518201	-0.013157
C	-2.2271254335	 1.809670552	 1.4632834083	-0.258043
C	-2.177812126	 0.7519318316	 2.5780594859	-0.229919
C	-0.9326481512	 1.1797845014	 3.3576870024	-0.060522
O	-0.0370369914	 1.7535100364	 2.3978703385	-0.267317
H	-0.5477769642	 3.1515710241	 0.9684006476	 0.104455
H	-2.7181496967	 2.7216303396	 1.8143272537	 0.113885
H	-2.7433222119	 1.477293819	 0.5612420736	 0.127715
H	-3.0779016661	 0.7407318358	 3.1964643921	 0.107307
H	-2.0375212839	-0.2438568531	 2.1513414299	 0.125902
H	-1.1786204981	 1.9325595231	 4.1207122185	 0.098822
H	-0.4161710752	 0.3501540565	 3.8486067114	 0.117024
54.714	84.8155	181.6859	232.3106	248.7295	346.2162	402.5174	527.0383	562.6306	598.7359	658.5379	750.59	804.3937	880.901	894.1283	931.08	956.4538	971.4544	1051.2422	1086.4876	1123.0032	1175.4123	1191.5649	1197.6135	1221.2431	1254.5452	1299.8495	1310.2939	1326.6515	1347.0335	1394.4327	1413.0309	1488.6472	1500.3522	1528.6754	2998.7256	3038.4565	3068.5133	3073.0681	3086.4581	3120.4497	3131.8901
FC(F)(F)C1CCCO1	FC(F)(F)[C@H]1CCCO1	
InChI=1S/C5H7F3O/c6-5(7,8)4-2-1-3-9-4/h4H,1-3H2	InChI=1S/C5H7F3O/c6-5(7,8)4-2-1-3-9-4/h4H,1-3H2/t4-/m1/s1
