16
gdb 23316	3.5785	1.26072	1.05655	1.9093	76.13	-0.2286	-0.0449	0.1837	1118.2887	0.1251	-437.839963	-437.832516	-437.831572	-437.871919	29.075	
O	-0.3582721985	 1.1831096949	 0.9966523013	-0.39166
N	-0.1350269925	-0.1421562159	 0.6080064399	-0.201749
C	-1.0456585207	-0.5813307617	-0.1845272935	 0.349402
C	-0.8605335927	-1.9999046382	-0.6843194715	-0.333616
C	-2.1725607512	-2.7069352943	-0.9403091867	 0.048317
O	-3.1866516959	-2.5870982615	 0.0464831957	-0.248663
C	-3.3774604872	-1.902042767	-1.2161549038	-0.008905
C	-3.2644151049	-0.4246847597	-1.1895907589	-0.066142
C	-2.1870898089	 0.1862730012	-0.6759742608	-0.137864
H	 0.4029366401	 1.3590956207	 1.5592238224	 0.309288
H	-0.3100326136	-1.9777001817	-1.6358714698	 0.124085
H	-0.2431141193	-2.5584276993	 0.0244166899	 0.136079
H	-2.0909846384	-3.695602508	-1.3938739684	 0.095521
H	-4.1731074943	-2.326747989	-1.824065859	 0.096266
H	-4.0979020482	 0.154140149	-1.5753771982	 0.105164
H	-2.1339991438	 1.2647592306	-0.5961007384	 0.124476
80.2349	228.5131	260.436	292.4096	339.306	363.821	435.4795	475.684	566.2941	618.1537	665.8489	743.7287	771.5583	823.6065	833.0307	900.9186	953.5012	967.6023	994.3514	1003.7428	1024.4415	1072.5405	1137.1148	1179.7281	1224.9418	1274.4551	1286.2632	1334.2779	1375.2327	1397.9372	1425.6682	1454.6011	1469.6712	1671.9628	1697.8517	3013.646	3093.8685	3102.4719	3137.7175	3178.2236	3217.7087	3823.7965
ON=C1CC2OC2C=C1	ON=C1C[C@H]2O[C@H]2C=C1	
InChI=1S/C6H7NO2/c8-7-4-1-2-5-6(3-4)9-5/h1-2,5-6,8H,3H2	InChI=1S/C6H7NO2/c8-7-4-1-2-5-6(3-4)9-5/h1-2,5-6,8H,3H2/t5-,6+/m0/s1
