15
gdb 25088	3.3243	1.65258	1.12762	6.0652	67.13	-0.1932	0.0451	0.2383	1006.6791	0.116069	-453.988584	-453.981639	-453.980695	-454.020072	26.575	
O	 0.050495864	-0.0125112774	 0.2386154393	-0.417277
C	 0.0415426615	 1.186312974	 0.1483239274	 0.485362
O	-1.0813184732	 1.9826969305	 0.1965921655	-0.236078
C	-0.7091400519	 3.3288175259	 0.0389008464	-0.178978
C	 0.6239305872	 3.3696518943	-0.0920715926	 0.34195
N	 1.7001955963	 4.2168737427	-0.3393968543	-0.416368
C	 2.9216000843	 3.4622739983	 0.0318404342	-0.183859
C	 2.5213608677	 1.9814628618	-0.2015941546	-0.169809
N	 1.088739034	 2.0662383091	-0.007025293	-0.145889
H	-1.4953938205	 4.0588279613	 0.0530733235	 0.140742
H	 1.6329255036	 5.1443317768	 0.0550276466	 0.251969
H	 3.7660139638	 3.7656217629	-0.5908088619	 0.128271
H	 3.1906916545	 3.6152778107	 1.0859641249	 0.118825
H	 2.764406086	 1.6498533793	-1.2175418502	 0.135896
H	 2.9903370828	 1.3008897198	 0.5115027888	 0.145243
125.82	168.9903	204.1456	307.2475	354.8704	542.8059	586.9614	594.903	631.9349	663.3769	688.7522	750.8868	791.6696	820.4246	898.3072	945.9254	1033.4069	1045.4049	1057.7079	1123.3761	1125.6743	1210.6771	1251.7908	1267.5645	1301.6801	1339.5491	1371.489	1420.1959	1463.1976	1519.4753	1527.784	1742.1826	1881.4081	3009.1378	3041.9354	3102.1343	3116.4764	3319.6741	3599.2437
O=C1OC=C2NCCN12	O=c1occ2NCCn12	
InChI=1S/C5H6N2O2/c8-5-7-2-1-6-4(7)3-9-5/h3,6H,1-2H2	InChI=1S/C5H6N2O2/c8-5-7-2-1-6-4(7)3-9-5/h3,6H,1-2H2
