18
gdb 79790	4.21822	1.58514	1.49682	0.7545	73.82	-0.2218	0.0709	0.2927	915.2401	0.150718	-401.866377	-401.860152	-401.859207	-401.89658	26.789	
O	-0.0070561826	 1.4023425925	 0.0453504076	-0.4451
C	 0.0411672554	-0.0093392581	 0.0350088256	 0.12698
C	-1.3810323101	-0.5710076151	-0.0523066479	-0.068269
C	-1.3707664758	-0.4198002969	-1.6168558601	-0.050319
C	-1.8043621911	-1.9030616847	-1.8362732234	-0.072912
C	-0.5589977702	-2.6230814099	-2.3516681888	-0.180687
N	 0.1668203178	-2.0953187058	-1.1340260066	-0.150406
C	 0.18411998	-0.6295488709	-1.3765073031	-0.055395
C	-1.2127685343	-2.0668634142	-0.4061591008	-0.017172
H	 0.8824282349	 1.7301280922	-0.1216547385	 0.2845
H	 0.7102645453	-0.4073548639	 0.8103133228	 0.069928
H	-2.1900222752	-0.2593012188	 0.6060278207	 0.073881
H	-1.7549897787	 0.4351439681	-2.1641996428	 0.076504
H	-2.8312733395	-2.1265275281	-2.1249877637	 0.066826
H	-0.6298410901	-3.7129665158	-2.2906758323	 0.105792
H	-0.1192116406	-2.3327508177	-3.3121619457	 0.097477
H	 0.9571158622	-0.3066161694	-2.0754111922	 0.061726
H	-1.3783551075	-2.9027014336	 0.2709200992	 0.076648
198.1603	284.6648	318.2227	427.166	448.2081	500.6292	694.9548	722.0309	764.6609	818.463	824.4424	847.8254	874.4413	897.0335	902.7998	924.8566	956.1629	965.2926	977.19	1013.2515	1031.9413	1069.8153	1084.8791	1106.9549	1141.5161	1157.9264	1167.1336	1175.5204	1207.4401	1210.5728	1221.1669	1232.0708	1259.5804	1280.2299	1290.5754	1298.9938	1318.6944	1424.0228	1503.1408	3009.4793	3039.2033	3098.3376	3103.8865	3114.4308	3128.6651	3138.7021	3168.4745	3813.7643
OC1C2C3C4CN(C13)C24	O[C@H]1[C@H]2[C@@H]3[C@H]4CN([C@H]13)[C@@H]24	
InChI=1S/C7H9NO/c9-7-4-3-2-1-8(5(2)4)6(3)7/h2-7,9H,1H2	InChI=1S/C7H9NO/c9-7-4-3-2-1-8(5(2)4)6(3)7/h2-7,9H,1H2/t2-,3+,4+,5-,6+,7+/m1/s1
