14
gdb 129524	5.17279	0.99679	0.83663	2.5203	65.8	-0.2428	-0.0064	0.2364	1270.1654	0.102503	-470.039161	-470.031366	-470.030421	-470.072164	28.73	
N	-0.1677800156	 1.4101251496	 0.0960551127	-0.572094
C	 0.1130459089	 0.0566215696	 0.0468873268	 0.471561
O	 1.2418194828	-0.3888522859	 0.0703860109	-0.374488
N	-1.0275709639	-0.7323967318	 0.0128490911	-0.459267
C	-1.0395879752	-2.116655453	-0.0064927715	 0.498656
N	-2.2059640057	-2.726702597	 0.0327961524	-0.253154
O	-1.9063704265	-4.0863249356	-0.0087610446	-0.164542
C	-0.5764904285	-4.233476396	-0.0719025984	 0.084875
C	 0.0515643819	-3.0322870769	-0.0744928977	-0.330415
H	 0.6443560601	 1.9854883243	-0.0647807418	 0.269311
H	-1.0160881474	 1.751671206	-0.3288250312	 0.255163
H	-1.9343689752	-0.3041493249	 0.1219583067	 0.262984
H	-0.2189655732	-5.2511168467	-0.1081960868	 0.152006
H	 1.0984623873	-2.7984559516	-0.1091847286	 0.159403
64.8672	86.2949	176.0583	322.9394	365.6316	370.6276	391.18	513.2792	529.8511	598.67	629.4119	720.144	764.1713	807.4782	812.8567	878.5769	917.2544	948.8093	980.1313	1053.5329	1081.0111	1103.9563	1170.1551	1307.8013	1322.0983	1438.4013	1508.5577	1538.0704	1629.3294	1645.6764	1814.4073	3264.5753	3330.425	3583.0115	3624.7575	3699.5626
NC(=O)NC1=NOC=C1	NC(=O)Nc1nocc1	
InChI=1S/C4H5N3O2/c5-4(8)6-3-1-2-9-7-3/h1-2H,(H3,5,6,7,8)	InChI=1S/C4H5N3O2/c5-4(8)6-3-1-2-9-7-3/h1-2H,(H3,5,6,7,8)
