23
gdb 121398	4.05738	0.84275	0.73621	1.6082	83.02	-0.2564	0.0938	0.3501	1633.2598	0.206525	-425.444483	-425.435103	-425.434159	-425.479141	35.208	
C	-0.0192605439	 1.5527463858	 0.0121420753	-0.381081
C	 0.0195938062	 0.0225550063	 0.0119209065	-0.167303
C	 0.7594641161	-0.549005007	 1.2248903633	-0.205031
C	 0.8106756726	-2.0658195566	 1.237440815	 0.211198
O	 1.5377157526	-2.5029145029	 0.1104875414	-0.250721
C	 1.6277549065	-3.919579409	 0.0538377815	-0.075102
C	 2.2636985504	-4.4638435625	 1.3346053603	-0.205762
C	 1.5004237466	-3.8947447671	 2.5326601563	-0.079037
O	 1.4153066901	-2.4794055065	 2.4416078455	-0.251818
H	 0.9921425489	 1.973841803	-0.0037934462	 0.115318
H	-0.5533320701	 1.9373864643	-0.8623332329	 0.110001
H	-0.5221370957	 1.9386386161	 0.9061340978	 0.111915
H	-1.0062954039	-0.3695176897	-0.0061805036	 0.089961
H	 0.5025450265	-0.3402184042	-0.9013372275	 0.115147
H	 1.7922513609	-0.1827971031	 1.2523316101	 0.110484
H	 0.2793337074	-0.2278983113	 2.1560991359	 0.103046
H	-0.2092842658	-2.5012220681	 1.1868472948	 0.046493
H	 0.6219053762	-4.3536445521	-0.0816627451	 0.086653
H	 2.2208407486	-4.1593323955	-0.8326599766	 0.109411
H	 2.23818992	-5.5592974871	 1.3446186905	 0.09642
H	 3.3094604131	-4.143237599	 1.3848096125	 0.114303
H	 0.4860532476	-4.3287451219	 2.5728191505	 0.085984
H	 1.9996758489	-4.1168435618	 3.4794701346	 0.109519
68.9915	80.6286	113.543	192.9178	246.5981	262.2312	303.1967	338.4166	366.6591	480.4202	498.9858	568.8084	646.5148	744.9781	828.5929	867.598	899.6793	904.4144	941.0965	948.9323	960.2326	1011.0183	1052.8878	1071.295	1089.6643	1131.7344	1143.2323	1174.2925	1197.9411	1239.5509	1257.2864	1266.6829	1296.1225	1313.3679	1324.5515	1370.2085	1375.8028	1385.5376	1410.7428	1413.7926	1418.5635	1432.309	1468.004	1476.7878	1493.751	1497.3837	1499.1403	1506.5473	1511.2806	2883.7455	2955.0841	2962.9425	3018.7251	3027.9008	3041.3703	3042.3027	3066.6585	3085.4735	3087.6409	3089.639	3097.0252	3100.6401	3101.7288
CCCC1OCCCO1	CCCC1OCCCO1	
InChI=1S/C7H14O2/c1-2-4-7-8-5-3-6-9-7/h7H,2-6H2,1H3	InChI=1S/C7H14O2/c1-2-4-7-8-5-3-6-9-7/h7H,2-6H2,1H3
