16
gdb 32010	2.95839	1.32296	0.96882	5.9222	75.49	-0.2553	-0.0725	0.1829	1198.0387	0.124408	-437.951822	-437.943658	-437.942714	-437.985498	29.505	
C	 0.0070489436	 1.5604503569	 0.1905322889	-0.381642
C	-0.0186604785	 0.048528603	-0.0970497666	-0.280993
C	-1.4091714312	-0.5014234903	-0.1652064534	 0.423979
C	-2.0002312658	-1.0759736195	-1.2452184011	-0.263761
C	-3.3378202325	-1.5241116371	-1.0744768505	 0.046888
N	-4.0281557405	-1.4192928001	 0.0247646729	-0.324691
C	-3.4428764393	-0.8313544635	 1.1228860471	 0.439355
O	-3.9372671746	-0.6534081488	 2.1934406581	-0.324873
O	-2.0833994063	-0.378581706	 0.9796409471	-0.250262
H	 1.0395312106	 1.9106526901	 0.2666923406	 0.127649
H	-0.4857058555	 2.1205817126	-0.6096221214	 0.128758
H	-0.5039224457	 1.7829006676	 1.1299436224	 0.151911
H	 0.4913442342	-0.1761631078	-1.0379481314	 0.120195
H	 0.5150394771	-0.4811657154	 0.7016235183	 0.139416
H	-1.4747489264	-1.1875925477	-2.1827190619	 0.116642
H	-3.8476787991	-1.996688404	-1.914804129	 0.13143
51.2376	102.1845	124.9228	197.8705	269.1209	344.2621	440.6898	512.0858	540.3512	566.272	690.0898	740.0417	785.4539	805.5795	815.6405	821.737	947.0646	977.0801	1018.628	1041.7919	1084.3612	1088.9266	1115.5166	1240.2993	1273.8448	1348.8401	1401.9504	1414.8232	1418.1684	1474.6482	1496.4125	1507.5685	1579.4149	1681.2346	1881.3897	3039.2182	3050.4113	3094.7888	3122.6384	3127.8087	3137.748	3236.7224
CCC1=CC=NC(=O)O1	CCc1ccnc(=O)o1	
InChI=1S/C6H7NO2/c1-2-5-3-4-7-6(8)9-5/h3-4H,2H2,1H3	InChI=1S/C6H7NO2/c1-2-5-3-4-7-6(8)9-5/h3-4H,2H2,1H3
