19
gdb 58720	1.99469	1.45118	1.17497	2.7966	71.28	-0.2545	-0.0355	0.219	1157.3403	0.156322	-460.14117	-460.131277	-460.130333	-460.176695	34.819	
C	 0.0257548675	 1.4830658819	-0.1395169833	-0.434605
C	-0.0806772833	-0.025991519	 0.068842138	 0.051823
O	 0.5388825989	-0.4468693192	 1.2814710945	-0.435902
C	-1.5299682656	-0.5500796177	-0.0042511168	 0.192053
C	-2.1620258843	-0.6295578983	-1.4077258878	-0.130821
O	-2.202427508	-2.0715094436	-1.3605789935	-0.268963
C	-1.6236020444	-2.104051568	-0.0451966354	-0.122926
C	-2.4031639471	 0.0531633474	 1.0678929268	 0.087435
O	-3.4488095393	 0.6219077768	 0.8778741698	-0.250372
H	 1.0742552746	 1.7925465812	-0.118293064	 0.133598
H	-0.4012364599	 1.7808066642	-1.1019022346	 0.136835
H	-0.5133633618	 2.0330591538	 0.6419343979	 0.124329
H	 0.4771590712	-0.5349930005	-0.7274154015	 0.099702
H	 0.40647757	 0.2355559467	 1.9469614285	 0.286837
H	-3.1590448909	-0.1843346692	-1.4795168924	 0.128422
H	-1.5328752745	-0.2643244629	-2.2292660918	 0.097192
H	-0.654907462	-2.6166320018	-0.0168026142	 0.118185
H	-2.2936172625	-2.5656469532	 0.6914393893	 0.108294
H	-2.0118068287	-0.0863393487	 2.1014080906	 0.078883
61.3711	64.1755	82.3948	185.8603	214.1046	240.7272	256.0918	270.9387	315.0943	354.8313	442.2548	485.4033	611.289	707.395	831.1973	872.732	910.9839	944.2392	985.5942	999.1132	1030.3592	1043.422	1071.9806	1092.8079	1151.1545	1154.646	1167.3084	1191.4366	1264.2274	1302.4296	1308.4604	1368.5902	1383.6626	1408.6366	1420.1285	1425.5602	1489.1012	1495.6004	1510.9689	1535.4959	1820.6361	2869.4518	3010.0916	3019.6132	3026.2314	3031.7234	3061.1385	3084.9084	3099.6107	3121.7823	3820.5937
CC(O)C1(COC1)C=O	C[C@@H](O)C1(COC1)C=O	
InChI=1S/C6H10O3/c1-5(8)6(2-7)3-9-4-6/h2,5,8H,3-4H2,1H3	InChI=1S/C6H10O3/c1-5(8)6(2-7)3-9-4-6/h2,5,8H,3-4H2,1H3/t5-/m1/s1
