19
gdb 91951	2.38101	1.73341	1.3698	0.6322	74.02	-0.2571	0.0704	0.3276	1021.6335	0.15939	-423.00058	-422.9927	-422.991756	-423.032703	31.058	
C	-0.2637980084	 1.5431162192	-0.0008343231	-0.39966
C	 0.0152675837	 0.0338485137	-0.0059546507	-0.080294
C	 0.9265415672	-0.4011024181	-1.1960189799	-0.267512
C	 2.3157263056	-0.5403218628	-0.6032259292	 0.049581
O	 2.7263546312	 0.5936669767	 0.1762015201	-0.258952
C	 2.2268749733	-0.564226116	 0.8621754614	-0.04366
C	 0.7795831195	-0.4398018395	 1.2402976147	 0.430679
C	 0.3101711759	-0.2908067261	 2.6197963422	-0.252658
O	 0.2610419629	-1.5643231749	 1.9670767483	-0.285883
H	 0.6706062182	 2.1073641335	 0.0433294749	 0.142204
H	-0.8000219488	 1.8353935897	-0.909821004	 0.111025
H	-0.8820202161	 1.8306098036	 0.8555895358	 0.109632
H	-0.9344158974	-0.507901131	-0.038216476	 0.092021
H	 0.6166273248	-1.3727250063	-1.5971457806	 0.111562
H	 0.8985700192	 0.3190742098	-2.0196636039	 0.110159
H	 3.111965162	-1.0392134807	-1.1495597321	 0.098524
H	 2.9217730119	-1.0847024743	 1.5153134059	 0.101818
H	 1.0298366708	-0.2076987658	 3.4336795971	 0.115246
H	-0.6575611553	 0.1702912993	 2.812445409	 0.116168
102.3321	196.951	221.618	243.0147	306.7663	344.4979	378.3571	435.3631	495.0156	574.525	715.9324	754.7132	818.9699	856.3598	864.2761	879.0322	901.5344	942.8127	964.4395	995.2106	1017.0596	1049.1634	1091.0298	1111.1472	1127.4278	1139.2262	1161.2329	1217.6664	1239.5378	1250.011	1268.2988	1310.5343	1335.9053	1346.5842	1401.5533	1408.2963	1456.8815	1482.0397	1495.7451	1509.1512	1533.9196	3036.2634	3043.3999	3067.6615	3079.4444	3088.4939	3099.2472	3130.8736	3147.8701	3162.2431	3164.6582
CC1CC2OC2C11CO1	C[C@H]1C[C@H]2O[C@H]2[C@]21CO2	
InChI=1S/C7H10O2/c1-4-2-5-6(9-5)7(4)3-8-7/h4-6H,2-3H2,1H3	InChI=1S/C7H10O2/c1-4-2-5-6(9-5)7(4)3-8-7/h4-6H,2-3H2,1H3/t4-,5+,6+,7+/m0/s1
