24
gdb 113698	2.38144	1.22739	1.105	1.2219	86.22	-0.2098	0.05	0.2598	1286.7684	0.214618	-405.509044	-405.498277	-405.497332	-405.543878	41.059	
C	 1.246698237	 1.474409373	-0.9663814326	-0.431235
C	 0.2956887012	 0.3427878754	-0.5344173882	 0.279114
C	 0.4005455598	 0.0852337461	 0.9766690499	-0.397125
C	-1.1487704656	 0.7732568525	-0.8635755872	-0.368609
N	 0.4817354319	-0.9389802121	-1.2531656745	-0.10464
C	 1.3667696243	-1.1477539171	-2.3861031362	-0.259568
C	 1.5254393381	-1.94344291	-1.133597014	 0.005489
C	 2.8069275052	-1.9184238979	-0.3107091431	-0.124503
O	 3.5887922209	-0.7361823244	-0.393006748	-0.406242
H	 2.2960154561	 1.2001382829	-0.8512081584	 0.120821
H	 1.0841217677	 1.737523044	-2.0163501952	 0.116424
H	 1.0537898208	 2.3719491102	-0.3693205777	 0.106574
H	 0.0394382492	 0.9524994048	 1.5378547866	 0.115491
H	-0.2044151556	-0.7814505549	 1.2592422885	 0.123764
H	 1.4305569465	-0.1038230448	 1.2954822036	 0.084506
H	-1.2737189275	 0.8819455031	-1.9452154998	 0.112053
H	-1.8600492646	 0.0181609646	-0.5185125771	 0.112399
H	-1.3935385509	 1.7316610128	-0.3924445965	 0.098751
H	 0.9212657828	-1.5825433331	-3.2796782702	 0.10231
H	 2.1516518136	-0.4188575032	-2.5774268939	 0.123398
H	 1.1165587568	-2.9578909631	-1.1211280773	 0.081046
H	 2.5791451914	-2.1669218335	 0.735007356	 0.100978
H	 3.4341066553	-2.7343685344	-0.6938707272	 0.115428
H	 3.3705123756	-0.1750403308	 0.3553620424	 0.293376
84.0889	124.6105	163.2201	200.429	229.9597	233.376	263.6887	283.4072	292.0173	306.7405	353.8449	382.522	385.998	472.7517	499.76	625.3107	657.0829	761.1936	806.293	907.3568	927.093	931.3854	957.5256	959.6466	999.6388	1039.7704	1045.5068	1055.151	1101.1347	1124.6085	1134.7833	1168.241	1219.6653	1233.773	1245.7432	1261.3355	1352.2972	1386.7936	1392.7725	1394.5481	1402.0486	1425.9635	1431.9986	1474.209	1482.076	1492.0666	1494.6874	1499.7796	1501.698	1515.763	1526.4477	3002.3286	3030.7854	3036.2826	3042.2553	3043.8812	3059.7155	3083.5103	3097.8614	3100.6659	3105.1816	3113.889	3118.1029	3146.4363	3167.6223	3846.2558
CC(C)(C)N1CC1CO	CC(C)(C)N1C[C@H]1CO	
InChI=1S/C7H15NO/c1-7(2,3)8-4-6(8)5-9/h6,9H,4-5H2,1-3H3	InChI=1S/C7H15NO/c1-7(2,3)8-4-6(8)5-9/h6,9H,4-5H2,1-3H3/t6-,8?/m0/s1
