16
gdb 61739	3.82174	0.81965	0.7215	1.3434	71.45	-0.2691	-0.0971	0.172	1487.6669	0.120498	-437.914686	-437.904744	-437.9038	-437.951309	33.237	
C	 0.2777433559	 1.4780079504	 0.0385584503	-0.417486
C	-0.0381809571	-0.030904795	-0.0264566521	-0.125445
C	-1.5474395341	-0.3217356679	-0.0603749405	-0.286145
C	-2.1898212459	-0.0527304114	 1.2832239048	 0.154251
O	-3.110565569	 0.697494466	 1.4700905606	-0.230632
C	 0.6581666361	-0.6798734418	-1.2117126673	 0.298482
O	 0.1153443857	-1.3117677011	-2.0810126356	-0.26638
C	 2.1286955764	-0.5002739966	-1.2439671705	 0.245719
N	 3.2774300658	-0.3681723315	-1.2554262239	-0.300523
H	 1.353486966	 1.6612800142	 0.0957586696	 0.153845
H	-0.1168589675	 1.9946257551	-0.8416788117	 0.143766
H	-0.1898506294	 1.9179285561	 0.92311232	 0.149584
H	 0.4058985406	-0.5029852923	 0.8649133308	 0.124035
H	-2.0492987952	 0.2757273944	-0.8256326536	 0.136982
H	-1.7034023615	-1.3801996223	-0.3045534402	 0.142697
H	-1.734211307	-0.6238116764	 2.1275846893	 0.077251
40.88	50.4246	64.1726	132.1288	198.2619	213.8809	239.7145	288.1916	352.0245	374.9942	439.7266	530.7389	609.0307	712.1739	780.7737	795.0655	915.4593	956.0873	1005.7981	1054.4616	1094.381	1119.7991	1163.8153	1237.1333	1271.1275	1307.4311	1369.449	1419.0736	1429.4565	1459.7779	1497.2416	1502.3034	1797.3014	1840.5509	2336.3679	2846.1469	2988.554	3041.3326	3048.6655	3113.549	3122.9928	3131.9798
CC(CC=O)C(=O)C#N	C[C@@H](CC=O)C(=O)C#N	
InChI=1S/C6H7NO2/c1-5(2-3-8)6(9)4-7/h3,5H,2H2,1H3	InChI=1S/C6H7NO2/c1-5(2-3-8)6(9)4-7/h3,5H,2H2,1H3/t5-/m0/s1
