20
gdb 90804	3.01186	1.80154	1.48288	1.6859	80.03	-0.2129	0.0698	0.2826	963.8073	0.173721	-365.948122	-365.941059	-365.940115	-365.979441	29.408	
C	 0.3235027756	 1.5418065535	-0.0332901266	-0.388138
C	-0.0590501869	 0.0559454475	 0.0040746942	-0.013801
C	 0.3170988045	-0.6775760257	-1.3008384083	-0.252183
C	 1.5480514556	-1.5434896497	-1.1603321772	-0.00758
C	 2.5992620423	-1.40610228	-0.1243419926	-0.058554
C	 2.0854167202	-0.9097322116	 1.2387314959	-0.110001
C	 0.6027163199	-0.6334457199	 1.1832787516	-0.025526
C	 1.1025103212	-2.0544878659	 1.1924375413	-0.051459
N	 1.6626643442	-2.5890023429	-0.1141836834	-0.169409
H	 1.4007668499	 1.6610827598	-0.1925061685	 0.120896
H	-0.1989656095	 2.0603242354	-0.8442284631	 0.109611
H	 0.0679882116	 2.0420740252	 0.907158532	 0.108594
H	-1.1449299256	-0.0103931342	 0.1396302079	 0.073356
H	-0.5047681719	-1.3260266732	-1.6276487257	 0.107919
H	 0.4798107016	 0.0433524271	-2.1103723241	 0.100822
H	 1.9098507607	-1.9444985821	-2.1058137465	 0.092435
H	 3.6553835847	-1.5436762573	-0.336000566	 0.090778
H	 2.7318454096	-0.5829196483	 2.0418160219	 0.089858
H	 0.2111349242	-0.340147523	 2.1555875301	 0.086588
H	 0.8240460581	-2.7851399148	 1.941321347	 0.095794
79.758	234.5118	256.362	351.9826	398.5369	493.1104	557.3715	573.8112	686.9683	708.3167	730.2951	736.6107	813.0056	858.8797	882.5601	898.8544	915.739	959.2412	980.8477	989.1936	1016.4606	1040.5169	1062.2731	1070.4924	1077.2673	1096.2465	1121.8902	1134.5815	1180.113	1226.4538	1260.9748	1277.5914	1309.1123	1318.7969	1336.3056	1356.3815	1377.736	1404.5547	1434.1084	1444.1356	1487.2318	1497.1569	1498.8765	3017.6087	3026.3932	3032.2936	3060.6209	3096.1457	3100.4883	3118.4469	3127.6656	3150.6354	3185.3173	3203.7011
CC1CC2C3C4C1C4N23	C[C@H]1C[C@H]2[C@H]3[C@H]4[C@@H]1[C@H]4N23	
InChI=1S/C8H11N/c1-3-2-4-7-6-5(3)8(6)9(4)7/h3-8H,2H2,1H3	InChI=1S/C8H11N/c1-3-2-4-7-6-5(3)8(6)9(4)7/h3-8H,2H2,1H3/t3-,4-,5+,6+,7-,8+,9?/m0/s1
