12
gdb 132925	3.22035	1.43727	0.99375	5.8991	61.44	-0.2488	-0.0541	0.1947	1049.6041	0.077121	-513.965865	-513.958342	-513.957398	-513.998063	27.735	
N	-0.0055731903	 1.3468234907	 0.0079752648	-0.553387
C	-0.0189837679	 0.0026035287	 0.0007315793	 0.343705
N	-1.1620850119	-0.6391100056	 0.0039803162	-0.418831
C	-1.202824132	-2.00004035	-0.003286682	 0.436272
O	-2.1710239908	-2.6982500419	-0.0014763974	-0.337334
O	 0.0639231443	-2.7091512012	-0.0148147901	-0.219581
C	 1.2127174598	-2.0359197514	-0.0179328124	-0.007191
C	 1.2386183881	-0.6951958113	-0.0106662282	 0.114401
F	 2.379008034	 0.0113554592	-0.013610371	-0.080796
H	 0.8624089861	 1.8518628424	 0.0055747211	 0.280886
H	-0.8826456607	 1.8401221276	 0.015934705	 0.283069
H	 2.1007523411	-2.6585176071	-0.0267093352	 0.158788
86.902	191.1468	216.796	283.8232	345.1857	387.4867	390.0545	469.2991	547.7001	588.6685	601.7074	680.796	755.3935	765.3662	776.8854	818.5054	931.6528	1014.7233	1187.9855	1252.0554	1298.6534	1334.1484	1521.9745	1577.981	1634.5765	1730.6894	1887.2778	3202.6339	3616.6222	3755.7008
NC1=NC(=O)OC=C1F	Nc1nc(=O)occ1F	
InChI=1S/C4H3FN2O2/c5-2-1-9-4(8)7-3(2)6/h1H,(H2,6,7,8)	InChI=1S/C4H3FN2O2/c5-2-1-9-4(8)7-3(2)6/h1H,(H2,6,7,8)
