18
gdb 40521	3.19107	1.38501	1.18182	0.8612	71.4	-0.2273	0.0555	0.2828	1080.4678	0.14817	-439.003498	-438.995728	-438.994783	-439.036213	29.542	
C	 0.2589113876	 1.4937258565	 0.1105984095	-0.18237
O	 1.2154951025	 0.4693357948	-0.1653022772	-0.233531
C	-0.1537753147	 0.0880914632	-0.0047772551	-0.019881
C	-0.481555191	-0.7417089491	 1.1947927574	 0.447919
C	 0.3023165579	-0.5617823445	 2.5154235349	-0.2375
N	 0.3291218652	-2.0450908632	 2.7117253504	-0.325544
C	-0.2764607104	-2.2724176708	 1.3771550933	-0.122834
C	-1.8104224673	-2.3339199778	 1.445149626	-0.072504
O	-1.9079334173	-0.884211783	 1.3716610293	-0.342536
H	 0.3370516599	 1.9526582436	 1.0947449627	 0.121051
H	 0.0567175204	 2.1793576976	-0.7102053504	 0.123157
H	-0.6495491202	-0.227290103	-0.9232512688	 0.098961
H	 1.2887350552	-0.1148210185	 2.3511465985	 0.115771
H	-0.2299087352	-0.0205776225	 3.3034676981	 0.110479
H	 1.2723695422	-2.4082588083	 2.7768976632	 0.22493
H	 0.2555365667	-2.932768105	 0.6911340741	 0.083093
H	-2.3018009498	-2.8028230261	 0.583166789	 0.099029
H	-2.2184493416	-2.733598884	 2.3785692552	 0.112309
70.3632	119.7516	177.5167	227.8014	325.7748	365.1099	435.0703	477.2229	620.9105	686.1424	752.8942	836.4338	866.8717	870.0912	905.475	929.5423	975.6909	990.2305	1005.0603	1041.8382	1059.84	1077.1181	1110.7851	1113.1478	1149.8772	1155.1839	1168.5199	1177.3142	1185.7834	1256.8319	1277.0593	1306.6103	1332.3704	1366.9618	1394.33	1439.0413	1491.1312	1505.5381	1528.1069	3017.1068	3035.903	3086.9432	3089.9992	3093.4383	3103.302	3109.8819	3178.9619	3548.0854
C1OC1C12CNC1CO2	C1O[C@H]1[C@]12CN[C@H]1CO2	
InChI=1S/C6H9NO2/c1-4-6(9-1,3-7-4)5-2-8-5/h4-5,7H,1-3H2	InChI=1S/C6H9NO2/c1-4-6(9-1,3-7-4)5-2-8-5/h4-5,7H,1-3H2/t4-,5+,6-/m0/s1
