17
gdb 86488	2.16601	1.43957	1.0032	2.8884	74.73	-0.2392	-0.0594	0.1799	1199.8319	0.13425	-417.996823	-417.987639	-417.986695	-418.031795	32.151	
C	-0.3000139364	 1.5073872146	 0.2740639223	-0.33148
N	-0.115480201	 0.0764787069	 0.1592613423	-0.061107
C	-1.2530730812	-0.8029354229	 0.4722851593	-0.206506
C	-0.2790295499	-1.8065187244	 1.167864352	 0.024147
C	 0.7357600917	-0.596892368	 1.1469007898	-0.195316
C	-0.6735771177	-2.2638438627	 2.5722541752	 0.100804
O	-1.3484607676	-1.5920630684	 3.3044936736	-0.239903
C	 0.1367936104	-2.9320471937	 0.348242633	 0.249823
N	 0.4612142712	-3.8551738221	-0.2674756951	-0.328422
H	 0.6493157287	 2.0176316825	 0.0823762143	 0.130465
H	-1.0186984662	 1.8444746835	-0.479541682	 0.132312
H	-0.6683037292	 1.8191161386	 1.2687723654	 0.10443
H	-1.9462880765	-0.3939720239	 1.2211321705	 0.125035
H	-1.8051077672	-1.176702799	-0.3939570221	 0.130713
H	 1.752610885	-0.8250441093	 0.8164573839	 0.134528
H	 0.7603876393	-0.1040048413	 2.1306982942	 0.115125
H	-0.2717184234	-3.2502345402	 2.8807679034	 0.115351
39.1236	69.0471	155.4758	170.1564	212.7211	272.9658	276.8226	342.4666	354.0064	465.4291	547.1533	575.5336	657.456	763.1172	868.8608	878.5981	942.3563	987.3135	1016.6142	1075.1497	1116.8017	1127.2756	1143.0447	1191.4417	1243.5746	1249.7807	1255.8656	1303.6065	1343.7242	1421.5036	1452.4343	1485.8216	1494.957	1498.623	1522.329	1829.2783	2355.1609	2930.8186	2941.0166	2988.1705	3008.6492	3066.2959	3088.232	3092.7923	3107.5425
CN1CC(C1)(C=O)C#N	CN1CC(C1)(C=O)C#N	
InChI=1S/C6H8N2O/c1-8-3-6(2-7,4-8)5-9/h5H,3-4H2,1H3	InChI=1S/C6H8N2O/c1-8-3-6(2-7,4-8)5-9/h5H,3-4H2,1H3
