16
gdb 71271	2.58172	2.14972	1.48531	4.0737	67.69	-0.2269	0.0103	0.2371	892.786	0.124991	-437.877548	-437.870455	-437.869511	-437.908677	28.459	
C	-0.0118673172	 1.4953086139	-0.0913178806	-0.494165
C	-0.1064665463	 0.0128392749	 0.0863021196	 0.281384
O	 0.3552317856	-0.7574837457	-1.1020604022	-0.322963
C	-0.7665367845	-1.612019803	-0.9718263166	 0.074305
C	-0.8829265632	-2.1120941901	 0.4785255105	-0.043393
N	 0.2380436108	-1.8997141936	 1.3491825713	-0.330504
C	 0.7600798094	-0.6292714573	 1.1911552419	 0.429225
O	 1.744788403	-0.1691894589	 1.7192233827	-0.382497
C	-1.4385568178	-0.7724417356	 0.0798529066	-0.219065
H	 1.0400546791	 1.7894571903	-0.1385463896	 0.15435
H	-0.5209078753	 1.8118686073	-1.004759261	 0.12746
H	-0.4659779531	 2.0037026579	 0.7653324193	 0.131464
H	-1.1166664375	-2.1414371057	-1.8503918404	 0.11519
H	-1.5499085278	-2.9325559017	 0.7107764729	 0.114295
H	 0.8479258805	-2.6474116071	 1.6431152507	 0.255966
H	-2.4442814259	-0.4032633057	 0.2282067349	 0.108949
160.7406	192.6869	239.1565	306.9047	369.5672	459.4187	480.9759	578.1326	606.9755	678.3927	736.4921	743.835	787.5143	808.6556	829.6493	847.0596	888.1126	953.8003	1015.1203	1042.2471	1050.211	1075.0576	1111.7789	1122.1627	1157.1454	1198.3984	1246.7569	1314.9581	1349.8206	1365.6579	1413.4942	1420.5498	1478.2793	1480.6447	1837.3268	3046.7874	3119.0162	3134.7765	3182.8083	3197.214	3208.0136	3628.4538
CC12OC3C(NC1=O)C23	C[C@@]12O[C@H]3[C@@H](NC1=O)[C@@H]23	
InChI=1S/C6H7NO2/c1-6-2-3(4(2)9-6)7-5(6)8/h2-4H,1H3,(H,7,8)	InChI=1S/C6H7NO2/c1-6-2-3(4(2)9-6)7-5(6)8/h2-4H,1H3,(H,7,8)/t2-,3+,4-,6+/m1/s1
