21
gdb 39337	2.78434	1.73081	1.2894	1.529	80.84	-0.2216	0.0887	0.3103	1043.3181	0.18587	-387.094909	-387.08751	-387.086566	-387.126647	30.236	
C	-0.0559872978	 1.427949378	 0.0636922823	-0.423386
C	 1.318744521	 0.7978462544	 0.0310638633	 0.086082
O	 2.0337902441	 0.5960816587	 1.2214101136	-0.260494
C	 1.1934357846	-0.126790484	 2.1264280176	-0.119359
C	 0.1607783489	-0.8820998269	 1.2704345311	-0.068115
C	 0.577958206	-2.2670036506	 0.7401540777	-0.219568
C	-0.2176025575	-2.4202204848	-0.5726364699	-0.203529
C	-0.2951728052	-0.9888434033	-1.1807936566	-0.316806
C	 0.0994442084	-0.0744588446	-0.0283168803	 0.339797
H	-0.4229814033	 1.8677264261	 0.9861536781	 0.110815
H	-0.3699424544	 1.9525647376	-0.8339350861	 0.110961
H	 1.9765944697	 0.9678405218	-0.8144054087	 0.095909
H	 1.8324890546	-0.7840173674	 2.7249464791	 0.107648
H	 0.6929987885	 0.5714631068	 2.8122210572	 0.094381
H	-0.8036091176	-0.9437028417	 1.7880534897	 0.069758
H	 1.6551068201	-2.2575128851	 0.5325373371	 0.107789
H	 0.3868404754	-3.0767116563	 1.4506192527	 0.091298
H	 0.2321728372	-3.1457707385	-1.2557490224	 0.097427
H	-1.2281866096	-2.7794476106	-0.3483507532	 0.100384
H	 0.3849232731	-0.8727879464	-2.0316528219	 0.099501
H	-1.3025672562	-0.7700634431	-1.5502697105	 0.099507
94.3093	186.9145	216.6394	300.5118	342.9767	431.7556	501.4324	539.1185	631.8619	727.0306	754.653	797.0247	835.8733	849.857	863.8122	893.2069	940.5539	959.1125	983.7653	992.0232	1005.0083	1026.1469	1036.3625	1054.9207	1086.2252	1118.7181	1154.7277	1184.1788	1199.0164	1228.8723	1248.0094	1251.296	1263.7395	1292.841	1310.7467	1332.9008	1343.353	1360.5532	1376.1809	1412.2885	1478.8139	1490.4495	1493.3834	1511.764	1520.9816	2997.1254	3031.6349	3035.0846	3039.9251	3042.9598	3068.2438	3071.8139	3086.8185	3098.1081	3117.7056	3170.9401	3203.0742
C1C2OCC3CCCC123	C1[C@H]2OC[C@@H]3CCC[C@]123	
InChI=1S/C8H12O/c1-2-6-5-9-7-4-8(6,7)3-1/h6-7H,1-5H2	InChI=1S/C8H12O/c1-2-6-5-9-7-4-8(6,7)3-1/h6-7H,1-5H2/t6-,7+,8+/m0/s1
