21
gdb 114850	3.0494	1.30568	1.24641	2.7903	76.92	-0.2413	0.0782	0.3195	1119.156	0.185959	-424.237411	-424.229735	-424.228791	-424.269534	31.175	
O	-0.0675203732	 1.5086406225	 0.1346637824	-0.42496
C	 0.0805878741	 0.1002558875	 0.1447730012	-0.083287
C	-1.2810011701	-0.5757658949	 0.0533346554	 0.130807
O	-1.9312435685	-0.107658937	-1.158592517	-0.316987
C	-2.4063287918	-1.2803508842	-1.8448906772	 0.118262
C	-1.1960882675	-1.9841022691	-2.4883387152	-0.211756
C	-0.4862962838	-2.6082593437	-1.2423331655	-0.221823
C	-1.3635152137	-2.1100542067	-0.0672537813	-0.063031
C	-2.7753343611	-2.2209533043	-0.6899180809	-0.232025
H	-0.6216778432	 1.7050456384	-0.630545295	 0.291009
H	 0.7304925274	-0.2316876928	-0.6780111809	 0.084257
H	 0.57012284	-0.1624507113	 1.0894281245	 0.101977
H	-1.8766243963	-0.2320438711	 0.9121814761	 0.078211
H	-3.1977840769	-0.9757687924	-2.5305531233	 0.073316
H	-1.508917693	-2.7469308102	-3.2081753805	 0.096698
H	-0.5722855693	-1.258699476	-3.0158221651	 0.105766
H	-0.5095800584	-3.7014060031	-1.2803819715	 0.098563
H	 0.5618324662	-2.3155159766	-1.1564676577	 0.105515
H	-1.2017156564	-2.6291448602	 0.8785288166	 0.067888
H	-3.5725419851	-1.8238622325	-0.0570316543	 0.104551
H	-3.0277605893	-3.2344581322	-1.0132806508	 0.09705
103.7293	136.0698	202.3252	311.4832	380.9425	444.483	461.6698	478.6316	498.5293	577.5898	777.5588	781.3046	817.0504	824.9511	851.3066	887.8576	942.5636	944.3842	963.2576	974.3287	980.1959	1030.4115	1049.7588	1066.4232	1086.0259	1115.2573	1148.363	1162.7683	1193.8998	1230.4569	1231.2633	1254.3206	1277.1409	1311.6792	1319.3575	1332.6861	1341.7502	1346.4369	1369.1346	1409.158	1442.9434	1481.7182	1491.0918	1499.4017	1514.2524	2986.9412	3000.9221	3050.9949	3061.1387	3064.7758	3068.38	3099.2077	3107.0628	3114.9236	3115.6471	3121.0053	3789.444
OCC1OC2CCC1C2	OC[C@H]1O[C@H]2CC[C@@H]1C2	
InChI=1S/C7H12O2/c8-4-7-5-1-2-6(3-5)9-7/h5-8H,1-4H2	InChI=1S/C7H12O2/c8-4-7-5-1-2-6(3-5)9-7/h5-8H,1-4H2/t5-,6+,7-/m1/s1
