15
gdb 125430	5.9157	0.96067	0.87947	2.9322	68.28	-0.2714	-0.0295	0.2419	1296.3023	0.112089	-453.928812	-453.920709	-453.919765	-453.963304	28.004	
C	 0.0338407773	 1.4444254936	 0.2928897731	-0.496928
C	-0.0315193934	-0.0218852299	 0.0634891117	 0.411587
N	-1.0442751419	-0.8229382444	 0.2143531733	-0.352766
C	-0.5058498639	-2.0418162245	-0.137896429	 0.35272
N	 0.7549537689	-2.0036155208	-0.4823613305	-0.180018
O	 1.0783254887	-0.6485917023	-0.3498051804	-0.187812
C	-1.3184776836	-3.2790667089	-0.1291735681	-0.029116
C	-1.1831883284	-4.3023637635	-1.1828264521	-0.167475
O	-0.6399504375	-4.5086088819	 0.1151734833	-0.215111
H	 0.7738450645	 1.680576568	 1.0634535334	 0.161852
H	 0.3310230116	 1.9649872321	-0.6223097454	 0.160201
H	-0.9452251779	 1.8013828712	 0.6111256889	 0.165085
H	-2.2751771446	-3.161076285	 0.3751403587	 0.117483
H	-2.0447488805	-4.917356754	-1.4389530103	 0.123901
H	-0.4530778894	-4.1415911097	-1.9733348566	 0.136398
29.35	52.9156	151.1082	165.4166	268.1866	313.2016	431.3574	445.7051	666.6711	677.5678	727.676	772.492	872.3372	903.2248	932.7671	990.047	1000.1534	1052.932	1069.5631	1080.0207	1101.2764	1160.0439	1172.1043	1271.1392	1286.8734	1328.3658	1409.2129	1461.3283	1474.729	1475.751	1519.0029	1559.2641	1626.9897	3054.9451	3088.4406	3114.4464	3142.8651	3165.6035	3186.1976
CC1=NC(=NO1)C1CO1	Cc1nc(no1)[C@H]1CO1	
InChI=1S/C5H6N2O2/c1-3-6-5(7-9-3)4-2-8-4/h4H,2H2,1H3	InChI=1S/C5H6N2O2/c1-3-6-5(7-9-3)4-2-8-4/h4H,2H2,1H3/t4-/m1/s1
