18
gdb 127922	4.69342	1.04622	0.86475	1.9599	88.21	-0.2009	-0.047	0.1539	1345.9748	0.148464	-398.147749	-398.139123	-398.138179	-398.180884	32.232	
C	-0.0197106497	 1.432758974	 0.0078631153	-0.341481
N	 0.0549400991	-0.0133700456	 0.0027291183	-0.32507
C	-1.0507659283	-0.6681788854	 0.0088829498	 0.406695
N	-2.3301444742	-0.1024822662	 0.0203444657	-0.321143
N	-3.5227278526	-0.7394344365	 0.0271497246	-0.248793
C	-3.5054761477	-2.0388543769	 0.0227831676	 0.330736
C	-4.8263540726	-2.7542269849	 0.0303656889	-0.475291
C	-2.2625920723	-2.7761139333	 0.0111163143	-0.146193
C	-1.0857451588	-2.1177492852	 0.0044720119	-0.12141
H	 0.9908276146	 1.8491600016	 0.0014005073	 0.12432
H	-0.5443238856	 1.8402305283	-0.8747860957	 0.102829
H	-0.5306451051	 1.8345851192	 0.9010558187	 0.10284
H	-2.4202366097	 0.9000778731	 0.024288444	 0.268466
H	-5.643093088	-2.0311132956	 0.0380445911	 0.143569
H	-4.931689313	-3.3965090706	-0.851876548	 0.132482
H	-4.9191479055	-3.4009717372	 0.9107644121	 0.132505
H	-2.2964893412	-3.8608600012	 0.0078397641	 0.107444
H	-0.1255290296	-2.6190573876	-0.00433504	 0.127497
84.8709	150.1804	196.9744	200.2923	208.2072	325.9727	330.2387	386.3795	445.5419	501.5243	549.7244	631.5457	632.5233	741.8077	760.9893	811.7883	856.7355	975.1508	1018.9528	1023.9732	1050.0868	1061.981	1103.6869	1134.1489	1176.5085	1229.1411	1263.0593	1312.3382	1411.4906	1422.6608	1454.3081	1458.857	1480.4318	1483.1015	1504.6383	1506.2128	1597.9785	1669.5123	1709.7458	2932.8562	2970.291	3029.5753	3079.5811	3094.9658	3144.1793	3180.7233	3217.7068	3654.9915
CN=C1NN=C(C)C=C1	C[N]C1=CCC(=NN1)C	
InChI=1S/C6H9N3/c1-5-3-4-6(7-2)9-8-5/h3-4H,1-2H3,(H,7,9)	InChI=1S/C6H10N3/c1-5-3-4-6(7-2)9-8-5/h4,9H,3H2,1-2H3
