18
gdb 78897	2.92101	2.07265	1.66598	0.5037	72.34	-0.2388	0.0537	0.2925	871.1946	0.150307	-401.891149	-401.884721	-401.883777	-401.921645	26.907	
C	-0.0372605655	 1.5699335221	 0.029732293	-0.404182
C	 0.0649665456	 0.0446557633	 0.0277783015	 0.001972
C	 0.8578130895	-0.5555844712	-1.1248831056	-0.054245
C	 2.3158459024	-0.8075876768	-0.9611064018	-0.066972
C	 2.6946131726	-0.8971073759	 0.5312756622	 0.100872
O	 2.1125240693	 0.1176511263	 1.366368587	-0.306914
C	 0.8173039618	-0.5427369502	 1.2252465109	 0.066919
C	 1.4979877387	-1.8362070304	 0.6697191243	-0.063059
N	 1.2943045136	-1.9371478478	-0.8343169471	-0.169956
H	 0.9539733401	 2.0156997063	 0.1364661902	 0.138625
H	-0.4879563275	 1.9335300903	-0.8990197223	 0.113002
H	-0.659653091	 1.9195893323	 0.8598119002	 0.114815
H	-0.9417794078	-0.3956376699	-0.0005748871	 0.082745
H	 0.4993414051	-0.4095108022	-2.1401756382	 0.094319
H	 3.0094492076	-0.7676856595	-1.7947926347	 0.093213
H	 3.7323779525	-1.1282859036	 0.7721530449	 0.089293
H	 0.2703090094	-0.5597766983	 2.170142128	 0.080285
H	 1.4715531536	-2.7755293349	 1.2147863146	 0.089268
176.4331	212.2457	254.0073	424.2418	498.6482	534.1573	649.8027	692.1742	718.8334	756.8672	781.8239	843.4823	859.7458	890.4619	918.727	927.2183	940.8688	969.3106	993.8467	1019.964	1038.4884	1057.947	1082.887	1121.9711	1131.2855	1170.9003	1181.6237	1205.4232	1251.7016	1264.4989	1274.5779	1312.6627	1329.7225	1345.5355	1366.9015	1401.9078	1412.441	1495.2654	1505.8909	3010.9237	3040.7743	3090.9507	3101.9523	3112.9106	3133.0874	3149.6245	3156.4252	3165.8569
CC1C2C3C4OC1C4N23	C[C@H]1[C@H]2[C@H]3[C@H]4O[C@@H]1[C@H]4N23	
InChI=1S/C7H9NO/c1-2-3-4-7-5(8(3)4)6(2)9-7/h2-7H,1H3	InChI=1S/C7H9NO/c1-2-3-4-7-5(8(3)4)6(2)9-7/h2-7H,1H3/t2-,3-,4-,5+,6-,7+,8?/m0/s1
