13
gdb 131001	7.5811	0.74064	0.67758	2.3575	61.06	-0.2792	-0.0504	0.2288	1502.9652	0.087214	-489.829834	-489.821882	-489.820938	-489.864122	26.81	
O	-0.1837278914	 0.1845303312	 0.5501422747	-0.225722
C	 0.0600014045	 1.1005014509	-0.1860529383	 0.140737
C	 1.3681770914	 1.8684435573	-0.1353866093	-0.167899
O	 1.3051030454	 2.8799208581	-1.1452805854	-0.266393
C	 2.3771417061	 3.6616191106	-1.2577831706	 0.42086
N	 3.4563931676	 3.5723481539	-0.5265837433	-0.170662
O	 4.2810560834	 4.5700619316	-0.9952306941	-0.165905
N	 3.697130574	 5.2649249377	-2.0139271097	-0.043936
C	 2.5268094778	 4.7263221154	-2.1944789309	-0.116869
H	-0.6504558079	 1.4592781882	-0.9622792187	 0.105223
H	 1.5074795929	 2.3179126679	 0.8551597101	 0.165025
H	 2.2131326094	 1.1930383965	-0.3156467068	 0.165154
H	 1.8416608066	 5.0820591904	-2.9468926576	 0.160387
49.0478	61.1082	116.8569	128.6841	300.5639	353.9997	384.4343	570.8366	626.676	719.0322	735.1668	770.3987	881.0754	907.8903	922.5472	1021.6368	1042.3703	1061.0341	1092.099	1106.4568	1221.1348	1235.3437	1340.9331	1408.3679	1450.2064	1469.0713	1517.0628	1633.0658	1851.0369	2906.1763	3036.9324	3081.3066	3279.8898
O=CCOC1=NON=C1	O=CCOc1nonc1	
InChI=1S/C4H4N2O3/c7-1-2-8-4-3-5-9-6-4/h1,3H,2H2	InChI=1S/C4H4N2O3/c7-1-2-8-4-3-5-9-6-4/h1,3H,2H2
