22
gdb 101635	2.46834	0.90534	0.79189	3.329	83.54	-0.2781	0.0221	0.3002	1592.3107	0.190998	-404.368493	-404.357325	-404.356381	-404.40588	39.354	
C	 0.2988313444	 1.3097943742	 0.570231481	-0.392984
C	-0.3120658996	 0.4544862121	-0.5431911474	-0.183232
C	 0.686009834	 0.0141263146	-1.6157171821	 0.135921
C	 1.7767606126	-0.9209896489	-1.0929721669	-0.400414
O	-0.1025500076	-0.6416825903	-2.6256640469	-0.262445
C	 0.4610938481	-0.714371854	-3.9124391896	-0.001649
C	-0.4265261053	-1.6254648487	-4.7609644032	-0.397728
C	 0.5740785672	 0.6329557349	-4.5259581309	 0.263754
N	 0.6653786314	 1.6853246467	-4.9949878144	-0.328345
H	 1.0322013569	 0.7536612509	 1.1621436297	 0.119372
H	 0.7996000783	 2.1952812852	 0.1630624003	 0.121916
H	-0.4788422683	 1.6573516365	 1.2563998841	 0.120216
H	-0.7841014013	-0.4408037215	-0.1197944612	 0.102892
H	-1.1055135608	 1.0150013165	-1.0485989168	 0.111213
H	 1.147905554	 0.9113046849	-2.0553572976	 0.091901
H	 2.4490447642	-1.2478428196	-1.8921603924	 0.116216
H	 2.3920708486	-0.4173550009	-0.3422944089	 0.126674
H	 1.3286047174	-1.8097879161	-0.6372429981	 0.124572
H	 1.4794215337	-1.130895752	-3.8799126004	 0.113266
H	-0.0344389069	-1.708255923	-5.7774006382	 0.13635
H	-0.4557752355	-2.616738922	-4.3033602427	 0.134992
H	-1.4418910855	-1.2252217796	-4.8019736574	 0.147543
27.9737	60.8649	100.5089	138.3564	188.5262	205.1716	216.2832	245.1317	275.0522	284.1182	333.1314	402.6456	455.0597	481.4873	575.7753	618.7147	781.604	801.869	836.6346	874.526	956.6256	972.8417	1003.8784	1042.075	1083.3442	1117.0184	1131.5761	1144.9387	1169.797	1207.61	1288.4712	1329.2076	1343.4618	1356.5486	1383.1049	1402.5471	1406.7993	1409.6526	1415.4971	1481.0731	1482.5576	1491.2147	1495.8236	1498.4428	1505.2422	1510.5261	2350.6534	2989.3958	2995.4571	3033.6572	3036.9507	3040.9722	3057.6556	3074.9477	3103.9835	3107.257	3110.4591	3119.8978	3140.14	3143.6489
CCC(C)OC(C)C#N	CC[C@@H](C)O[C@@H](C)C#N	
InChI=1S/C7H13NO/c1-4-6(2)9-7(3)5-8/h6-7H,4H2,1-3H3	InChI=1S/C7H13NO/c1-4-6(2)9-7(3)5-8/h6-7H,4H2,1-3H3/t6-,7+/m1/s1
