15
gdb 50924	2.54558	1.16695	0.91708	3.1212	67.35	-0.2786	-0.0022	0.2763	1250.6037	0.111752	-453.947889	-453.939037	-453.938093	-453.982903	30.377	
O	-0.1850604457	 0.2941267139	 0.6033749523	-0.311015
C	 0.0323143674	 1.3910159101	 0.1397031923	 0.16382
N	 1.2578388831	 1.8268680923	-0.2762661124	-0.2744
C	 2.4379819179	 0.9835689025	-0.187614257	-0.155581
C	 2.9813066709	 0.6991454183	-1.5264448156	 0.301612
N	 3.4160852514	 0.4781630808	-2.5733434978	-0.327681
C	 3.472504314	 1.6221654117	 0.7312165448	 0.07228
C	 4.9093296818	 1.6618534191	 0.4439398093	-0.185062
O	 4.0779300989	 2.8122811528	 0.2394425154	-0.235199
H	-0.7457277998	 2.1649926745	 0.0072824905	 0.099316
H	 1.3695818825	 2.7631216774	-0.6344862459	 0.274519
H	 2.0908106531	 0.0418869535	 0.2539135916	 0.174916
H	 3.1341777877	 1.6738076126	 1.7661262961	 0.12191
H	 5.6089867994	 1.7366528247	 1.2738692587	 0.130434
H	 5.2932734675	 1.2024010658	-0.4634544724	 0.150132
41.3352	62.4046	136.2284	167.7534	191.3226	243.5595	325.5571	380.4949	467.4323	540.7828	574.4916	662.8612	723.1457	824.7938	903.2796	940.1566	962.6793	1032.9603	1046.6254	1099.7384	1109.3509	1169.8753	1172.8842	1194.7829	1289.0858	1306.1486	1343.2576	1423.0699	1424.2366	1509.2733	1527.1631	1804.4278	2363.9356	2971.9279	3065.1456	3102.2743	3118.3478	3198.1965	3632.3693
O=CNC(C#N)C1CO1	O=CN[C@@H](C#N)[C@H]1CO1	
InChI=1S/C5H6N2O2/c6-1-4(7-3-8)5-2-9-5/h3-5H,2H2,(H,7,8)	InChI=1S/C5H6N2O2/c6-1-4(7-3-8)5-2-9-5/h3-5H,2H2,(H,7,8)/t4-,5+/m0/s1
