15
gdb 27998	2.68128	1.40678	0.92545	3.1278	73.8	-0.1892	-0.0303	0.1589	1182.4368	0.114425	-450.182582	-450.174297	-450.173353	-450.215221	31.128	
N	 0.0771292504	 1.3860216866	 0.1707566546	-0.59412
C	-0.0297775763	 0.0104693125	 0.0553523792	 0.304014
C	-1.1320128055	-0.782313451	-0.0422005926	-0.217121
N	-0.6304407282	-2.1034193258	-0.0368899002	-0.084999
C	-1.3813363736	-3.2643683456	-0.0013925707	 0.162734
O	-2.5854297718	-3.2887406823	-0.0606507303	-0.301286
C	 0.7516819293	-1.9897099649	 0.0322063397	 0.42441
N	 1.5845252049	-3.0928108557	 0.1098356053	-0.594943
N	 1.1406321543	-0.7485904717	 0.0881798742	-0.369936
H	 0.9729471076	 1.7298682623	-0.145877911	 0.253974
H	-0.6908363898	 1.9063785835	-0.2272605864	 0.249946
H	-2.1885587104	-0.599267452	-0.0999173722	 0.142161
H	-0.7523396598	-4.1657276478	 0.0961204016	 0.096769
H	 1.4335203199	-3.7970844782	-0.6004627435	 0.25992
H	 2.5517370089	-2.7954464199	 0.1225588023	 0.268478
117.1518	185.7468	222.3637	226.4355	272.4554	292.5291	321.6282	409.6263	436.5577	570.0919	619.723	622.9796	646.3589	684.9699	710.2918	736.6631	776.7947	902.9326	1007.7038	1017.4132	1093.3273	1140.8635	1175.9632	1236.1257	1375.154	1405.8588	1442.2934	1479.2494	1598.9286	1625.8368	1665.1969	1680.3377	1807.8823	2991.627	3313.2616	3545.2596	3562.9783	3640.2066	3666.1037
NC1=CN(C=O)C(N)=N1	Nc1cn(C=O)c(N)n1	
InChI=1S/C4H6N4O/c5-3-1-8(2-9)4(6)7-3/h1-2H,5H2,(H2,6,7)	InChI=1S/C4H6N4O/c5-3-1-8(2-9)4(6)7-3/h1-2H,5H2,(H2,6,7)
