19
gdb 65393	4.06899	0.92864	0.90961	3.0355	77.97	-0.2521	-0.0022	0.25	1341.1766	0.158305	-419.170937	-419.16178	-419.160836	-419.205446	33.418	
C	 0.1758106716	 1.3256301542	 0.4249724341	-0.491264
C	-0.069198597	-0.1443586495	 0.1408790851	 0.274796
C	 0.9993287069	-0.905731974	-0.6114479795	-0.278435
N	 0.7926470175	-1.1266303583	 0.7994934345	-0.085923
C	 1.7402306689	-0.8822888575	 1.7764184181	 0.136771
O	 2.9214690245	-1.1041900124	 1.6651411636	-0.288784
C	-1.4902773383	-0.6158045193	-0.0260591682	-0.024611
C	-2.6573372307	 0.1311921178	 0.5085440029	-0.251571
N	-2.4249455948	 0.0531019815	-0.9444774137	-0.322676
H	 1.2468877851	 1.5429418562	 0.4342881121	 0.143304
H	-0.2809293977	 1.9582508262	-0.3432939206	 0.128163
H	-0.2397779049	 1.6229892677	 1.3923875164	 0.136772
H	 0.7113063515	-1.7216570058	-1.2688094861	 0.131358
H	 1.9034142084	-0.3747539897	-0.8989268141	 0.135211
H	 1.2770293131	-0.5210648467	 2.7145009021	 0.084672
H	-1.5570239091	-1.7007696375	-0.0624778421	 0.101629
H	-3.526857532	-0.414531561	 0.8632369133	 0.12654
H	-2.4839909411	 1.0766285466	 1.0139667637	 0.11335
H	-2.0290199216	 0.9280802314	-1.2797412817	 0.230697
45.3403	88.1368	149.027	205.2898	238.95	256.4054	284.5607	339.4343	397.3044	450.5508	480.57	667.1005	693.0687	818.8606	845.689	879.7276	921.7254	950.2742	956.2843	975.4909	1018.609	1040.2181	1088.4806	1105.9543	1127.0547	1132.4817	1156.7278	1173.8255	1201.8353	1259.3704	1289.8309	1321.7691	1376.6712	1413.1156	1417.4421	1440.7492	1484.262	1501.5219	1509.7593	1514.4809	1796.7184	2952.6893	3039.8453	3101.7747	3108.3495	3116.5451	3121.5028	3135.4592	3198.1206	3200.1391	3498.9254
CC1(CN1C=O)C1CN1	C[C@]1(CN1C=O)[C@H]1CN1	
InChI=1S/C6H10N2O/c1-6(5-2-7-5)3-8(6)4-9/h4-5,7H,2-3H2,1H3	InChI=1S/C6H10N2O/c1-6(5-2-7-5)3-8(6)4-9/h4-5,7H,2-3H2,1H3/t5-,6+,8?/m1/s1
