19
gdb 99588	2.21357	1.21919	0.82753	3.03	78.8	-0.2503	-0.0257	0.2246	1387.6914	0.154168	-422.986616	-422.975796	-422.974852	-423.023267	37.43	
C	 0.0480139637	 1.3725766546	-0.2156078926	-0.243176
O	-0.0142167519	 0.0155186248	 0.1781943445	-0.235206
C	-1.3013604627	-0.5610363046	 0.0645509156	-0.065811
C	-1.7478281681	-0.6625787618	-1.3323462543	 0.31875
C	-2.1140635645	-0.7644511432	-2.4727872063	-0.444036
C	-1.2419000962	-1.9508532392	 0.7339614737	-0.074645
C	-0.8351519424	-1.8388369964	 2.2148313251	-0.420727
C	-2.5936338972	-2.6385423615	 0.653482909	 0.164552
O	-2.7544562615	-3.8034880208	 0.4028300126	-0.249366
H	 1.0775272602	 1.6996029431	-0.0560163282	 0.133194
H	-0.2123368039	 1.5004213997	-1.2743349577	 0.125039
H	-0.6251937327	 1.9981204243	 0.3904588142	 0.107027
H	-2.0310861362	 0.0617820597	 0.6142496648	 0.092353
H	-2.440826189	-0.8574681053	-3.4794842218	 0.205965
H	-0.5194455102	-2.5678764322	 0.1927086251	 0.115732
H	-1.5918502315	-1.2953696071	 2.7930937968	 0.116594
H	-0.7212955514	-2.833316234	 2.6537307201	 0.133204
H	 0.109938725	-1.3002151356	 2.2992076238	 0.148019
H	-3.4605645495	-1.9807101746	 0.9032261455	 0.072538
51.285	60.4822	104.1793	128.8953	180.2113	183.1332	210.8019	252.1164	295.6779	331.9882	363.5727	390.7246	488.5172	582.8167	609.4701	636.1462	685.1547	885.017	893.0825	938.4449	991.1812	998.9225	1101.7952	1124.0351	1149.6026	1154.999	1184.5529	1216.2795	1268.2419	1306.1715	1357.4337	1366.3754	1395.2548	1431.6533	1478.5461	1485.2978	1492.8016	1501.7675	1510.5405	1838.9565	2229.4881	2843.3021	2932.6949	2986.6856	3036.2725	3051.4193	3084.3823	3111.1431	3126.2479	3144.2627	3500.1131
COC(C#C)C(C)C=O	CO[C@@H](C#C)[C@@H](C)C=O	
InChI=1S/C7H10O2/c1-4-7(9-3)6(2)5-8/h1,5-7H,2-3H3	InChI=1S/C7H10O2/c1-4-7(9-3)6(2)5-8/h1,5-7H,2-3H3/t6-,7-/m0/s1
