13
gdb 47286	3.42345	1.36493	1.06392	3.2757	62.4	-0.2943	-0.0985	0.1958	1046.4696	0.090195	-493.758577	-493.751479	-493.750535	-493.790695	25.996	
O	-0.0735071188	 1.1651701276	 1.634536058	-0.308977
C	-0.1387209044	 1.4838599985	 0.4801430468	 0.419236
O	-1.3427920094	 1.8269154141	-0.0576976788	-0.214619
C	-1.4576135863	 1.9806584568	-1.4541944529	 0.00259
O	-0.9359961333	 3.2060037112	-1.9162213052	-0.21462
C	 0.4129021742	 3.3539058338	-2.0401155937	 0.419231
O	 0.8551004011	 4.3133685596	-2.6078583303	-0.308975
C	 1.3065352771	 2.3230494434	-1.44113166	-0.193844
C	 1.0748463055	 1.5376137269	-0.3826368372	-0.193867
H	-0.9902604616	 1.1392467254	-1.9762611705	 0.13062
H	-2.52606435	 2.0194507362	-1.6592712454	 0.157281
H	 2.2951779236	 2.3346046653	-1.8881902223	 0.152972
H	 1.8794422524	 0.9252442712	 0.0111125315	 0.152972
81.5737	115.1723	271.6852	337.658	345.9322	416.0036	440.6122	564.3031	604.6093	690.3567	751.8953	772.2335	790.1776	866.7659	874.1098	1028.5699	1063.891	1078.767	1125.5646	1194.6716	1202.3534	1326.2184	1332.3073	1388.2789	1459.1755	1510.3965	1680.4021	1831.273	1839.5494	3056.4832	3159.9001	3186.9582	3203.2199
O=C1OCOC(=O)C=C1	O=C1OCOC(=O)C=C1	
InChI=1S/C5H4O4/c6-4-1-2-5(7)9-3-8-4/h1-2H,3H2	InChI=1S/C5H4O4/c6-4-1-2-5(7)9-3-8-4/h1-2H,3H2
