17
gdb 71530	2.56432	1.57266	1.4167	1.7073	79.94	-0.2338	0.0322	0.266	1011.5439	0.133678	-384.57304	-384.56503	-384.564086	-384.60523	31.495	
C	 0.0228778538	 1.4522711515	-0.0942593053	-0.525027
C	 0.0186452431	-0.0372657468	-0.0076919967	 0.42402
O	 0.5888160404	-0.82003751	-1.1020297502	-0.351849
C	 0.1103958009	-1.8176975311	-0.1637376926	 0.044861
C	 0.5190842461	-1.0185776244	 1.1068997191	-0.15444
C	-0.8824408865	-1.1490532503	 1.7336609883	-0.330565
C	-1.198925721	-1.033640048	 0.2212178263	 0.192105
C	-2.4581088002	-1.0325315457	-0.4524061047	 0.083415
C	-3.5222793309	-1.0178299109	-1.0145341339	-0.385513
H	 1.0469709542	 1.8256992703	-0.1903661845	 0.138532
H	-0.5529186446	 1.7829300656	-0.9637019495	 0.14577
H	-0.4241399265	 1.8869950716	 0.8050627702	 0.13207
H	 0.2289149738	-2.8728331268	-0.4068124489	 0.102289
H	 1.5005699268	-1.0122199927	 1.5783195789	 0.08756
H	-1.1243645395	-2.1072616709	 2.2001698966	 0.107786
H	-1.2233061562	-0.3214274407	 2.3610529972	 0.107394
H	-4.4582580037	-1.0095877308	-1.5159057003	 0.181593
115.053	141.4909	192.089	248.0956	287.4359	411.8382	428.0806	510.3856	523.5975	623.2927	634.1253	647.0395	662.7878	714.3266	770.5542	797.9466	857.7093	902.7131	929.2304	950.6544	1008.9031	1022.9547	1076.7537	1099.0668	1126.6676	1132.9782	1157.8115	1207.9565	1227.2583	1274.121	1300.8665	1356.6639	1415.5067	1472.0264	1487.4794	1513.8625	2229.0879	3040.5357	3058.6175	3115.0363	3116.5224	3118.0776	3128.2538	3140.6026	3501.61
CC12OC3C1CC23C#C	C[C@@]12O[C@H]3[C@@H]1C[C@@]23C#C	
InChI=1S/C8H8O/c1-3-8-4-5-6(8)9-7(5,8)2/h1,5-6H,4H2,2H3	InChI=1S/C8H8O/c1-3-8-4-5-6(8)9-7(5,8)2/h1,5-6H,4H2,2H3/t5-,6-,7+,8+/m0/s1
