18
gdb 39666	4.45928	1.04377	0.90293	0.3447	71.22	-0.25	0.0182	0.2681	1261.6778	0.149402	-439.071135	-439.063161	-439.062217	-439.10533	28.406	
C	 0.0092962662	 1.370637878	-0.2772923756	-0.089844
O	 1.2626830755	 1.5759096408	 0.4014112305	-0.27072
C	 1.4440189309	 0.1557676697	 0.5894264714	-0.088445
C	 0.0317522504	-0.1433193363	 0.0409269555	-0.043351
C	-0.9903442742	-0.5928363331	 1.0679155869	 0.080257
C	-2.4346934363	-0.7728706476	 0.5221164171	-0.207114
N	-2.7146851548	-2.2154453058	 0.6366125151	-0.259706
C	-1.6925973344	-2.7185517546	 1.1886357565	 0.118161
O	-0.6429675711	-1.9320473234	 1.5280509317	-0.233776
H	-0.8049687661	 1.952868218	 0.1732120638	 0.103672
H	 0.0717833369	 1.6180165603	-1.3446226471	 0.104105
H	 2.2683919966	-0.2359047214	-0.0194466034	 0.103011
H	 1.619610376	-0.1054658386	 1.6392825765	 0.113868
H	-0.0025241006	-0.8063301067	-0.8271323738	 0.088177
H	-0.9516313276	 0.0626212775	 1.9442818256	 0.100404
H	-3.1754589385	-0.207777502	 1.0965871699	 0.12189
H	-2.5236628643	-0.4572962406	-0.5236858941	 0.116825
H	-1.5623431745	-3.7669712442	 1.4335983634	 0.142586
53.6127	66.4915	73.6174	171.791	316.4589	353.6822	434.8909	517.8996	743.0885	808.3976	837.5752	876.9948	890.9716	939.0526	958.3096	972.3862	974.2169	993.1988	1013.4312	1040.7887	1066.7957	1094.8648	1125.1465	1154.8223	1161.8631	1177.7212	1241.8305	1250.8199	1306.248	1310.8385	1314.0081	1320.7361	1349.8877	1380.2779	1416.8771	1502.0402	1513.0688	1538.8345	1710.7623	3005.9779	3019.8823	3038.4676	3047.4254	3050.9129	3064.4785	3075.5291	3086.8947	3216.0561
C1OCC1C1CN=CO1	C1OCC1[C@H]1CN=CO1	
InChI=1S/C6H9NO2/c1-6(9-4-7-1)5-2-8-3-5/h4-6H,1-3H2	InChI=1S/C6H9NO2/c1-6(9-4-7-1)5-2-8-3-5/h4-6H,1-3H2/t6-/m1/s1
