17
gdb 109523	1.95843	1.47156	1.13395	2.9075	79.73	-0.2514	-0.0046	0.2468	1167.7077	0.133802	-380.817482	-380.808106	-380.807162	-380.851843	33.887	
C	-1.1334758302	 0.9828799034	 0.5118320227	-0.383115
C	 0.1029795311	 0.2670560418	-0.0217147643	-0.130307
N	 0.7733111166	-0.4492239602	 1.0711237406	-0.099124
C	 0.3844570851	-1.8324001264	 1.3645757425	-0.210771
C	-0.6167937814	-2.527958489	 0.6057152087	 0.364344
C	-1.4800453336	-3.1100246117	 0.0046512614	-0.447387
C	 1.7308879785	-1.5033717236	 0.7473574172	-0.180806
C	 2.0007582958	-1.8825704741	-0.6185079295	 0.310291
N	 2.2582447103	-2.1641363622	-1.7102688269	-0.336365
H	-0.8695200975	 1.6519192513	 1.3354541538	 0.128882
H	-1.5981451354	 1.5736679402	-0.2828819403	 0.12149
H	-1.8737780835	 0.263746878	 0.8747759683	 0.129833
H	-0.1701109262	-0.3988009921	-0.8512743481	 0.125535
H	 0.8293128077	 0.9899597104	-0.407537114	 0.119218
H	 0.3945749966	-2.0682520477	 2.4266250511	 0.132342
H	-2.2298139137	-3.6317753505	-0.5379459764	 0.212913
H	 2.6091825799	-1.5345586376	 1.387526773	 0.143025
80.5933	94.9016	118.8978	157.1185	225.3463	243.9177	270.1008	351.4415	401.8305	447.9474	592.4772	626.7264	644.2724	646.7433	678.5636	708.9707	812.7295	827.1928	849.0223	976.6218	1011.8234	1045.166	1092.9405	1123.5612	1138.5814	1179.16	1309.9169	1314.8586	1354.5544	1363.7019	1394.5113	1414.4403	1489.9172	1492.9863	1508.924	2237.5309	2352.7268	3019.4044	3045.1942	3074.6561	3118.751	3124.1739	3128.2396	3141.2848	3500.0766
CCN1C(C#C)C1C#N	CCN1[C@@H](C#C)[C@H]1C#N	
InChI=1S/C7H8N2/c1-3-6-7(5-8)9(6)4-2/h1,6-7H,4H2,2H3	InChI=1S/C7H8N2/c1-3-6-7(5-8)9(6)4-2/h1,6-7H,4H2,2H3/t6-,7+,9?/m0/s1
