21
gdb 120288	3.2607	1.02376	0.98021	0.9993	84.02	-0.2259	0.0217	0.2475	1341.5793	0.183089	-387.072439	-387.063692	-387.062748	-387.106645	32.829	
C	-0.1895318562	 1.3496540744	 0.0732839273	-0.222373
O	-0.2077735637	-0.0485828947	 0.2123157867	-0.233969
C	 0.843015803	-0.5293053863	 1.030930853	-0.080419
C	 0.7723582541	-2.0305125373	 1.0571952633	-0.026683
C	 1.4086355008	-2.8911258622	 2.1216889944	-0.085087
C	 1.7850536208	-2.2817150525	 3.4761773095	-0.272453
C	 0.4576771563	-1.8251516482	 4.0473637991	-0.077407
C	-0.5659249595	-2.1494304823	 3.2528501804	-0.06876
C	-0.11121681	-2.8289825437	 2.0076717039	-0.083668
H	 0.7447555841	 1.7050704849	-0.3919617946	 0.098765
H	-1.0291403338	 1.6276487483	-0.5690390715	 0.123292
H	-0.3007038993	 1.8619746753	 1.042907136	 0.100325
H	 1.8173553113	-0.2104946097	 0.6192267117	 0.079251
H	 0.7624073153	-0.1042769923	 2.0422665008	 0.091036
H	 0.825869596	-2.4579915151	 0.0588342318	 0.091087
H	 1.9557330888	-3.7653199296	 1.7884354063	 0.083473
H	 2.2632283859	-3.0295733764	 4.1228488761	 0.107047
H	 2.503469989	-1.4555447964	 3.3884820792	 0.107562
H	 0.382072431	-1.2793658657	 4.9813680928	 0.090983
H	-1.6086059301	-1.9288778886	 3.4512171089	 0.094392
H	-0.7001960437	-3.637689452	 1.5888279752	 0.083607
50.7974	86.9366	117.8554	207.5646	247.4171	270.1265	338.2783	431.033	498.1124	560.9773	695.7228	749.0218	775.1824	784.1376	810.5907	917.1859	937.2714	950.0198	957.8948	962.9686	997.817	1027.3412	1050.8267	1071.2131	1098.4887	1111.4169	1136.9917	1156.083	1182.1629	1184.5525	1215.1322	1235.7677	1275.0088	1303.0976	1310.5773	1352.8166	1378.1595	1397.5704	1453.8129	1478.9403	1481.5129	1484.4289	1500.7675	1524.6937	1666.7141	2943.4213	2962.8205	3001.601	3006.5639	3012.7989	3035.3086	3108.5634	3137.2404	3163.2957	3175.7877	3184.698	3209.8567
COCC1C2CC=CC12	COC[C@H]1[C@H]2CC=C[C@@H]12	
InChI=1S/C8H12O/c1-9-5-8-6-3-2-4-7(6)8/h2-3,6-8H,4-5H2,1H3	InChI=1S/C8H12O/c1-9-5-8-6-3-2-4-7(6)8/h2-3,6-8H,4-5H2,1H3/t6-,7+,8-/m1/s1
