16
gdb 124220	4.82645	0.99646	0.90382	1.8584	72.3	-0.2419	0.0047	0.2466	1283.8347	0.125203	-434.090021	-434.081737	-434.080793	-434.124018	29.918	
C	 0.0254694456	 1.6163080945	-0.1763369171	-0.445479
C	-0.008942262	 0.1256601619	-0.3089933751	 0.385904
N	 0.2193563421	-0.4933115847	-1.3798690332	-0.494111
O	-0.3263765797	-0.4286447124	 0.9370196773	-0.279111
C	-0.4804344593	-1.7706261388	 1.0543130906	 0.428547
C	-1.3244687486	-2.6889367402	 0.4633899935	-0.336085
C	-1.0062108782	-3.9023048824	 1.1152782716	 0.008432
N	-0.053910944	-3.7542707102	 2.0298608081	-0.221149
N	 0.2604437096	-2.4425975032	 1.9677694727	-0.248575
H	 0.2829887495	 2.0598591836	-1.1366555878	 0.155157
H	-0.9487611312	 1.9880973474	 0.1557613582	 0.147106
H	 0.7599959605	 1.9131202138	 0.5786862191	 0.143262
H	 0.1490007247	-1.5062055469	-1.268423558	 0.232515
H	-2.0608034938	-2.5026167457	-0.2999243679	 0.123615
H	-1.4418607912	-4.8771608583	 0.9521819867	 0.119316
H	 0.9555046959	-2.0561450485	 2.5845415212	 0.280658
44.8808	75.2089	139.1417	149.552	334.6686	348.4303	403.6934	509.7881	545.4664	561.3273	662.707	687.3651	760.6725	799.273	879.1369	895.8016	921.6925	929.4292	1004.7108	1048.392	1068.9341	1077.3318	1085.6702	1124.5306	1252.9069	1288.6678	1303.3475	1370.3787	1407.867	1437.7214	1473.7497	1476.2856	1509.4773	1603.024	1772.1608	3052.917	3110.9826	3173.8553	3246.6627	3279.9633	3469.1014	3670.9732
CC(=N)OC1=CC=NN1	C[C]([NH])Oc1ccn[nH]1	
InChI=1S/C5H7N3O/c1-4(6)9-5-2-3-7-8-5/h2-3,6H,1H3,(H,7,8)	InChI=1S/C5H7N3O/c1-4(6)9-5-2-3-7-8-5/h2-3,6H,1H3,(H,7,8)
