18
gdb 81861	2.8921	1.48743	1.13544	3.5932	72.04	-0.2417	0.0128	0.2545	1094.4459	0.148312	-439.118176	-439.109944	-439.109	-439.150672	32.142	
C	 0.011539554	 1.539897028	 0.0349330181	-0.470592
C	 0.0478653136	 0.0348753186	 0.030101236	 0.324144
C	-0.8521179975	-0.8133294472	 0.8999157712	-0.324412
C	 0.645372945	-0.8106666615	 1.134941345	-0.088966
C	 1.4732809597	-1.8942481554	 0.479836246	 0.021714
O	 1.1895754437	-3.201152534	 0.9252427429	-0.437014
C	 1.1141217792	-1.7780471791	-1.0167626712	 0.356946
O	 1.3339894471	-2.6459581971	-1.8362797798	-0.387341
N	 0.4628642188	-0.5935515203	-1.2078161334	-0.3511
H	 0.9784542395	 1.9567403216	-0.264859755	 0.129843
H	-0.7510086964	 1.922032056	-0.6540137723	 0.122241
H	-0.2319552165	 1.9132180095	 1.0333837013	 0.127839
H	-1.4600832585	-0.3094058654	 1.643523473	 0.11789
H	-1.3020500264	-1.7020514932	 0.4706915795	 0.128581
H	 1.023101782	-0.3329375288	 2.0305805752	 0.097524
H	 2.5448939286	-1.6641052993	 0.6007891337	 0.089733
H	 1.3658898867	-3.7739095193	 0.1644232025	 0.292751
H	-0.0364843928	-0.440854953	-2.0730611026	 0.25022
99.0141	156.4803	221.0091	245.6054	281.5728	337.0545	431.9417	440.9096	480.3659	518.1782	571.5293	586.9927	650.6822	738.9767	765.4793	841.7657	880.7697	916.9451	961.9325	983.3045	1001.4789	1053.4411	1080.6076	1092.364	1125.1446	1145.9405	1237.5639	1259.0308	1274.5321	1323.8411	1356.5516	1381.315	1414.0132	1429.6348	1436.626	1485.272	1490.3947	1502.9748	1824.0337	2964.5524	3030.2439	3091.5946	3117.697	3133.6251	3184.2472	3223.6155	3599.1237	3731.284
CC12CC1C(O)C(=O)N2	C[C@]12C[C@H]1[C@@H](O)C(=O)N2	
InChI=1S/C6H9NO2/c1-6-2-3(6)4(8)5(9)7-6/h3-4,8H,2H2,1H3,(H,7,9)	InChI=1S/C6H9NO2/c1-6-2-3(6)4(8)5(9)7-6/h3-4,8H,2H2,1H3,(H,7,9)/t3-,4+,6-/m0/s1
