21
gdb 103080	2.11476	1.34469	1.13832	2.5504	75.27	-0.2255	0.0624	0.2879	1225.6699	0.177648	-461.33514	-461.323997	-461.323053	-461.370531	41.065	
C	 0.2296771262	 1.5211193483	 0.186751543	-0.400621
C	-0.1211961366	 0.04830629	-0.0618773069	-0.22379
C	 0.6135090877	-0.5265098993	-1.2615592475	 0.329893
O	 0.3576306053	 0.1451334252	-2.4648822858	-0.457926
C	 2.0029946956	-1.1118234134	-1.0945879465	-0.075765
O	 2.5728869869	-1.0711148797	 0.1837291672	-0.41605
C	 0.8169973861	-2.0226748492	-1.4151863162	 0.284824
C	 0.3057912215	-3.0032532741	-0.3822775698	-0.459642
O	 0.7155424877	-2.4798706748	-2.7353335575	-0.444637
H	 1.2992248463	 1.6389133854	 0.3895080461	 0.129295
H	-0.0317802534	 2.144599477	-0.6747612893	 0.110636
H	-0.3203720918	 1.9115144619	 1.0479295591	 0.113684
H	 0.1198129616	-0.5283673578	 0.833118852	 0.109765
H	-1.1989993617	-0.0520481552	-0.2381222636	 0.102187
H	 0.8429943276	 0.9766885471	-2.4435617419	 0.282069
H	 2.6815858389	-0.9331633959	-1.9300924424	 0.088357
H	 3.0970617103	-1.8695258204	 0.3080730213	 0.289156
H	 0.5221343749	-2.6787988869	 0.6368600694	 0.130366
H	-0.7730725192	-3.153044273	-0.4860041964	 0.132265
H	 0.7906548838	-3.977565259	-0.527582222	 0.099765
H	 1.2859309421	-3.2522132061	-2.8207786224	 0.276171
67.714	132.7329	163.7748	191.91	204.5218	227.7966	239.6226	266.5439	271.6488	292.8519	316.7178	325.1151	413.0846	416.3707	450.9461	541.5925	612.3985	704.2534	734.5398	794.7375	882.7055	956.3447	982.0352	1005.293	1043.7296	1071.5385	1088.385	1141.4346	1172.2833	1190.5465	1262.8174	1275.0643	1279.9268	1314.6799	1319.172	1354.5411	1372.4908	1402.7215	1411.4432	1463.429	1471.3799	1494.102	1500.7863	1511.0794	1511.5291	3022.2662	3034.5647	3038.1874	3088.9225	3094.2432	3095.1486	3109.273	3118.017	3139.17	3787.2974	3797.3375	3805.7782
CCC1(O)C(O)C1(C)O	CC[C@@]1(O)[C@@H](O)[C@]1(C)O	
InChI=1S/C6H12O3/c1-3-6(9)4(7)5(6,2)8/h4,7-9H,3H2,1-2H3	InChI=1S/C6H12O3/c1-3-6(9)4(7)5(6,2)8/h4,7-9H,3H2,1-2H3/t4-,5-,6+/m0/s1
