18
gdb 63012	2.47595	1.77989	1.5398	1.8299	69.99	-0.2416	0.0644	0.306	951.1417	0.147324	-439.035807	-439.027955	-439.027011	-439.067559	31.501	
C	 0.0711627127	 1.529451217	 0.0255844738	-0.44118
C	 0.0033886389	 0.0055927132	 0.0053372016	 0.349352
O	-1.3413972902	-0.4752933566	-0.0209830681	-0.472569
C	 0.6642413598	-0.6254398747	-1.2319890821	-0.072364
N	 2.0882379559	-0.3107878723	-1.4124701168	-0.325702
C	 1.6988945562	-1.6041795683	-0.8094244153	-0.081116
C	 1.7363596665	-1.6054684114	 0.7072715024	 0.050701
O	 2.1273388914	-0.360976304	 1.297522348	-0.238764
C	 0.7337961221	-0.6484235121	 1.1963853131	-0.028031
H	 1.1140184039	 1.8515058427	 0.0038328948	 0.160802
H	-0.4522278626	 1.9464022523	-0.8401629504	 0.117354
H	-0.3948582935	 1.9286094376	 0.9350785262	 0.100858
H	-1.8359589926	-0.0034797488	 0.6573697027	 0.2803
H	 0.023575971	-0.7760063281	-2.0948683838	 0.094009
H	 2.3387709417	-0.4631714941	-2.3869365084	 0.234168
H	 1.8862852684	-2.5279106002	-1.3450166814	 0.089456
H	 2.0329645153	-2.5001405775	 1.247236546	 0.096989
H	 0.1965760853	-0.7498385448	 2.1391405177	 0.085736
149.7353	198.9916	234.7154	257.4589	323.9288	348.2581	372.6959	401.6773	546.731	559.235	598.1232	722.1237	790.1789	814.8744	854.615	878.8155	888.6504	907.0056	944.1783	959.9607	980.1925	1038.571	1057.1042	1088.986	1114.1634	1129.34	1149.4452	1187.0721	1216.3723	1236.7999	1256.0662	1306.0779	1343.127	1383.4385	1397.4838	1422.2571	1438.0552	1490.6621	1496.3892	3026.9669	3096.0222	3113.235	3141.8208	3154.5135	3164.436	3180.6905	3494.1889	3812.5076
CC1(O)C2NC2C2OC12	C[C@@]1(O)[C@H]2N[C@H]2[C@H]2O[C@@H]12	
InChI=1S/C6H9NO2/c1-6(8)4-2(7-4)3-5(6)9-3/h2-5,7-8H,1H3	InChI=1S/C6H9NO2/c1-6(8)4-2(7-4)3-5(6)9-3/h2-5,7-8H,1H3/t2-,3+,4-,5+,6+/m0/s1
