16
gdb 87550	2.71693	1.52326	1.17403	3.458	70.05	-0.2415	-0.014	0.2275	1047.69	0.123528	-437.8382	-437.830266	-437.829321	-437.870787	29.941	
O	-0.0522445842	 1.4441234586	 0.1710223371	-0.409623
C	-0.0043657179	 0.0627267934	 0.0022166187	 0.039128
C	-0.3429310634	-0.7496216061	 1.2020077476	-0.368366
C	-1.3124249915	-0.7072704235	 0.0412034171	 0.180338
C	-2.7323534595	-0.1925333549	-0.0019707542	-0.114385
C	-3.1934518787	-0.0714625148	-1.3943140068	-0.250993
N	-3.1862191035	-1.4345080597	-0.7827058434	-0.182905
C	-1.784669931	-1.8693598407	-0.7850684388	 0.34478
O	-1.3038772506	-2.8604940031	-1.2404547126	-0.314112
H	-0.3096773492	 1.8430966518	-0.6671693483	 0.293514
H	 0.7641500185	-0.3149518857	-0.6715502853	 0.110623
H	 0.1870950738	-1.6801424373	 1.3716682568	 0.143873
H	-0.6315117022	-0.200231761	 2.0916711908	 0.140662
H	-3.3090395744	 0.1414993238	 0.8512413058	 0.122103
H	-4.2006571907	 0.2871439268	-1.5822681861	 0.14092
H	-2.4784805855	 0.1446546424	-2.1850430783	 0.124443
101.6222	125.8569	171.3031	230.998	291.9601	327.075	421.9535	457.0184	577.2743	624.7808	680.359	724.9439	788.8083	820.9948	847.8047	905.0005	925.7635	970.6968	1014.1328	1037.2025	1043.7568	1066.7771	1112.9562	1117.9245	1141.2865	1182.7983	1205.9887	1229.9695	1286.9497	1290.9179	1379.749	1425.2806	1484.579	1500.2133	1909.6773	3108.8355	3110.9949	3137.378	3196.7252	3206.8113	3232.4614	3805.0025
OC1CC11C2CN2C1=O	O[C@H]1C[C@]21[C@H]1CN1C2=O	
InChI=1S/C6H7NO2/c8-4-1-6(4)3-2-7(3)5(6)9/h3-4,8H,1-2H2	InChI=1S/C6H7NO2/c8-4-1-6(4)3-2-7(3)5(6)9/h3-4,8H,1-2H2/t3-,4+,6-,7?/m1/s1
