16
gdb 45795	2.78447	1.86231	1.35104	2.7327	69.3	-0.2576	-0.0312	0.2264	935.9274	0.126731	-437.909723	-437.902854	-437.90191	-437.941102	26.835	
O	 0.0542392173	-0.03969265	-0.490169631	-0.29863
C	 0.0642329237	 1.0536605972	-0.0062319419	 0.427227
O	-1.099818009	 1.4641671087	 0.6321236404	-0.229988
C	-1.3536436074	 2.6652856907	 1.2654929339	 0.129786
N	-0.6594236197	 3.6957857933	 1.4512257849	-0.234788
C	 0.7012914969	 3.8311871698	 0.9772601848	 0.019779
C	 0.8703217455	 3.4344749159	-0.5169270371	-0.247283
C	 1.2382590125	 1.9929300171	-0.050359115	-0.142129
C	 1.59759434	 2.6116277365	 1.3349649599	-0.247311
H	-2.372634735	 2.6137523559	 1.6423522033	 0.141182
H	 1.0688580137	 4.8153840733	 1.2702307168	 0.08748
H	 0.0072000468	 3.5693264978	-1.171259307	 0.123142
H	 1.7427727998	 3.9177053718	-0.9617866711	 0.11991
H	 2.0289115734	 1.4754643871	-0.5908560005	 0.108659
H	 2.6542356019	 2.8864208626	 1.3590009155	 0.119863
H	 1.3465068295	 2.0540563523	 2.2390585242	 0.123099
97.4831	178.735	299.4496	317.0861	375.192	436.485	534.7637	582.4165	701.3566	737.574	805.5433	825.8435	840.4448	873.2571	925.3374	950.6741	956.9803	997.7193	1010.4602	1061.758	1090.8056	1096.9359	1167.3947	1186.3419	1233.5877	1256.2498	1275.0688	1277.9905	1345.1126	1375.845	1431.851	1470.992	1495.5313	1748.5626	1859.537	3071.6772	3074.1235	3095.7415	3127.9581	3132.954	3136.4611	3169.1018
O=C1OC=NC2CC1C2	O=C1OC=N[C@@H]2C[C@H]1C2	
InChI=1S/C6H7NO2/c8-6-4-1-5(2-4)7-3-9-6/h3-5H,1-2H2	InChI=1S/C6H7NO2/c8-6-4-1-5(2-4)7-3-9-6/h3-5H,1-2H2/t4-,5+
