13
gdb 13748	3.49838	1.77098	1.34733	6.2141	59.73	-0.2687	0.008	0.2767	881.2772	0.09574	-394.795906	-394.788275	-394.787331	-394.828235	27.186	
N	-0.1063512137	 1.1695111673	-0.123652544	-0.535334
C	-0.0860274426	-0.1999890022	-0.0332609727	 0.426416
O	 0.8241861136	-0.9015149671	-0.40327649	-0.347238
N	-1.2530051002	-0.7153034406	 0.5860459019	-0.123006
C	-2.5922459708	-0.5545244843	 0.0571359496	-0.247529
C	-1.9194403231	-1.9050052446	 0.0981281738	-0.143768
C	-1.5495484342	-2.5268337263	-1.1545153473	 0.311958
N	-1.3215298114	-3.0662581809	-2.1506508425	-0.324426
H	 0.7836346609	 1.5952501666	-0.3291187197	 0.27279
H	-0.7252746041	 1.6901487206	 0.4765869939	 0.264614
H	-3.3731019201	-0.3292238505	 0.7782516627	 0.139671
H	-2.7048419602	-0.0973102247	-0.9224890519	 0.157124
H	-2.2040465739	-2.6153318434	 0.8694148962	 0.148727
63.8327	117.8111	197.2918	251.5162	271.4373	419.564	446.6776	510.201	531.7181	554.3492	668.3639	729.9606	785.6025	813.2202	960.2522	1002.3264	1045.6439	1103.6274	1116.2673	1128.9987	1158.9202	1284.9121	1366.8675	1401.687	1508.0218	1618.0231	1828.7727	2364.1693	3110.0747	3152.2956	3205.4634	3591.9591	3715.1611
NC(=O)N1CC1C#N	NC(=O)N1C[C@H]1C#N	
InChI=1S/C4H5N3O/c5-1-3-2-7(3)4(6)8/h3H,2H2,(H2,6,8)	InChI=1S/C4H5N3O/c5-1-3-2-7(3)4(6)8/h3H,2H2,(H2,6,8)/t3-,7?/m1/s1
