21
gdb 88686	3.11302	0.95402	0.88158	2.4817	80.5	-0.252	0.0748	0.3269	1434.2311	0.179512	-424.194447	-424.184455	-424.183511	-424.229748	37.253	
C	 0.0052498803	 1.4685235602	-0.2143671903	-0.419823
C	-0.1146198174	 0.0060366376	 0.1287516021	 0.068904
O	 1.079888786	-0.7817787939	 0.0829813256	-0.268462
C	 0.4232032226	-0.6217433344	 1.3500409421	 0.052475
C	 1.148944194	 0.1110703277	 2.4255335343	-0.069914
C	 0.7020328007	-0.0337225363	 3.8752929678	-0.365358
C	 2.0290810881	-0.5928650096	 3.4244460147	 0.403484
C	 2.273741808	-2.0834416996	 3.3790348365	-0.448219
O	 3.1719544281	 0.1607380848	 3.7469775663	-0.463892
H	 0.8853535557	 1.9223539466	 0.2450636507	 0.133171
H	 0.0910295463	 1.5932673196	-1.2989371438	 0.128637
H	-0.8855975525	 2.0140047519	 0.1157376204	 0.121149
H	-0.9766565795	-0.4883771194	-0.3263913559	 0.083353
H	-0.0855097496	-1.5274064686	 1.6877793567	 0.08195
H	 1.523402032	 1.0915815797	 2.1550465091	 0.09988
H	 0.712556392	 0.8583774175	 4.4908578476	 0.113807
H	-0.1053067944	-0.7283829121	 4.0880456457	 0.108237
H	 1.3746186784	-2.6383889328	 3.1000634439	 0.118413
H	 3.0623254041	-2.3181521137	 2.6578345614	 0.137807
H	 2.5919172154	-2.4481065039	 4.3637543197	 0.105182
H	 3.4164145717	-0.0513499314	 4.6550971154	 0.279217
32.9776	114.7391	142.1395	170.606	215.4159	231.3631	301.6763	343.4692	378.0551	386.5051	415.5577	454.2485	484.7877	557.7461	718.6956	772.4554	821.5327	867.6201	898.4974	922.4512	964.3272	971.0411	1001.0347	1043.1658	1050.7925	1076.4142	1093.4993	1107.3393	1150.9797	1172.4525	1208.9567	1231.5553	1289.9386	1305.6618	1329.5353	1383.8052	1405.4046	1417.8231	1428.4048	1467.5984	1479.4149	1487.2089	1491.6931	1502.7545	1522.808	3026.6213	3038.6622	3068.5382	3084.0134	3093.1076	3099.0628	3122.7332	3126.6013	3134.4928	3180.9196	3219.4693	3788.0902
CC1OC1C1CC1(C)O	C[C@H]1O[C@H]1[C@H]1C[C@]1(C)O	
InChI=1S/C7H12O2/c1-4-6(9-4)5-3-7(5,2)8/h4-6,8H,3H2,1-2H3	InChI=1S/C7H12O2/c1-4-6(9-4)5-3-7(5,2)8/h4-6,8H,3H2,1-2H3/t4-,5-,6-,7+/m1/s1
