17
gdb 85120	1.85921	1.65223	1.36482	3.4608	71.18	-0.2475	-0.0357	0.2118	1066.9247	0.1336	-455.143303	-455.133882	-455.132938	-455.177461	34.148	
C	-0.3884488117	 1.2696678404	-0.0849282376	-0.395733
C	 0.0459874376	-0.1831229412	-0.0254842488	 0.002228
N	 1.2809397994	-0.5192751183	-0.7790809291	-0.338171
C	 2.0669413895	-0.6497949189	 0.3395643482	 0.313687
N	 3.2882737088	-0.680642608	 0.6700903748	-0.557206
C	 0.8402637846	-0.6051556118	 1.2658115675	 0.213012
O	 0.9493301469	 0.3135669132	 2.3164537995	-0.472457
C	 0.4439191387	-1.9728487014	 1.8126721319	 0.130875
O	-0.1798579549	-2.7987137477	 1.200754368	-0.244681
H	 0.421654644	 1.9403382902	 0.212720767	 0.123411
H	-0.7099543575	 1.5321470317	-1.0984491289	 0.116527
H	-1.2325945781	 1.4389114943	 0.5899292256	 0.138076
H	-0.7719318437	-0.8681964629	-0.2608479904	 0.109939
H	 1.5566731938	-0.2023821287	-1.697756871	 0.243779
H	 3.918614985	-0.5766661908	-0.1257465429	 0.218961
H	 1.8858865034	 0.5394820508	 2.3930618045	 0.302806
H	 0.7915164742	-2.1335129007	 2.8557031218	 0.094948
83.5786	89.7748	175.7651	186.9298	205.7561	246.0188	264.8072	333.4069	382.9383	414.2671	459.2507	557.1455	580.6182	683.185	703.7532	763.6904	829.7478	866.3004	894.6862	1010.7542	1051.7481	1068.3896	1078.888	1117.7	1165.7109	1231.1974	1255.0337	1309.3581	1354.8887	1365.3548	1384.0785	1404.0703	1415.9556	1486.6996	1490.7052	1790.6373	1831.602	2911.3275	3040.5915	3085.2729	3109.7201	3127.7203	3474.6122	3597.6677	3762.2777
CC1NC(=N)C1(O)C=O	C[C@H]1N[C]([NH])[C@]1(O)C=O	
InChI=1S/C5H8N2O2/c1-3-5(9,2-8)4(6)7-3/h2-3,9H,1H3,(H2,6,7)	InChI=1S/C5H8N2O2/c1-3-5(9,2-8)4(6)7-3/h2-3,9H,1H3,(H2,6,7)/t3-,5+/m1/s1
