18
gdb 90569	2.95992	1.19106	1.0032	3.2778	73.85	-0.2138	0.0013	0.2151	1214.0045	0.146378	-439.046586	-439.037844	-439.0369	-439.081255	31.341	
C	-0.146648426	 1.5954309845	 0.0459053893	-0.339092
N	 0.1525188835	 0.1722805226	 0.0640905779	-0.069559
C	 1.189921524	-0.3898548827	-0.8372650649	-0.176951
C	 1.8168412439	-1.1393478893	 0.3444931471	-0.164345
C	 2.2356306083	-0.1756795832	 1.396904115	 0.120777
O	 2.8504524952	 1.0430374814	 1.0139909242	-0.19403
C	 3.2215860918	 1.8806532167	 2.0031979334	 0.178129
O	 3.7058602527	 2.9510829193	 1.7912904803	-0.277286
C	 0.7625529394	-0.4387283669	 1.2309305098	-0.072327
H	 0.738287223	 2.2450202777	 0.1106451102	 0.126643
H	-0.6850427605	 1.8372831329	-0.876893779	 0.121907
H	-0.8108837262	 1.8281781412	 0.8848827803	 0.119945
H	 0.7593806581	-1.0447681188	-1.6010513071	 0.111829
H	 1.8453816755	 0.3474587043	-1.3157595223	 0.11867
H	 2.1436477199	-2.1704677164	 0.3320913822	 0.104733
H	 2.686182582	-0.6296902272	 2.2776503066	 0.11258
H	 3.0381113536	 1.4639395674	 3.0120651145	 0.080117
H	 0.1503860518	-0.8119523033	 2.0474319326	 0.098259
28.0391	111.0059	133.5188	172.1565	206.5115	290.5139	314.4439	366.0444	485.3018	568.4226	668.346	732.6379	748.9859	803.2793	890.6711	932.8871	967.2624	1011.368	1028.2683	1046.0859	1059.0909	1073.44	1106.5373	1148.6404	1167.1978	1182.4411	1192.0775	1238.8003	1248.0493	1273.1249	1315.6591	1355.8359	1414.7438	1443.9255	1450.1672	1482.2949	1508.4871	1514.37	1866.4979	2955.8877	2997.5505	3030.3902	3067.1675	3078.4835	3097.552	3127.0361	3146.3748	3204.89
CN1CC2C(OC=O)C12	CN1C[C@H]2[C@@H](OC=O)[C@@H]12	
InChI=1S/C6H9NO2/c1-7-2-4-5(7)6(4)9-3-8/h3-6H,2H2,1H3	InChI=1S/C6H9NO2/c1-7-2-4-5(7)6(4)9-3-8/h3-6H,2H2,1H3/t4-,5+,6-/m1/s1
