22
gdb 111922	2.15737	1.36779	0.92016	1.3127	83.83	-0.2366	0.031	0.2676	1364.9445	0.193463	-404.390605	-404.380615	-404.379671	-404.42618	36.423	
C	-0.1050220616	 1.595196828	-0.087605232	-0.382902
C	-0.0168862998	 0.0689901102	-0.1709812284	-0.170166
C	-1.383493876	-0.60519748	 0.0216651536	-0.000059
N	-2.3021329886	-0.2254397713	-1.0678011169	-0.314445
C	-2.6348381284	-1.2967864825	-1.6639871565	 0.402953
C	-3.5148319041	-1.4053353823	-2.8627839166	-0.473203
O	-2.1580205301	-2.4820448298	-1.1960592337	-0.266947
C	-1.4047312572	-2.1718159569	 0.006998912	 0.090574
C	-0.0825563681	-2.9205085047	-0.0323283405	-0.405025
H	 0.8751613814	 2.0551010545	-0.246685891	 0.105255
H	-0.7970699568	 1.9809791182	-0.8398752338	 0.141685
H	-0.4681824085	 1.9152032816	 0.8957428731	 0.109119
H	 0.3947085938	-0.2231775045	-1.1445401639	 0.097411
H	 0.6779222208	-0.3039320514	 0.5914369019	 0.090806
H	-1.8013117487	-0.2450828807	 0.9702059664	 0.07771
H	-2.9812504618	-1.9012671069	-3.6797894776	 0.142697
H	-4.395026892	-2.0144542529	-2.6339172645	 0.142785
H	-3.8290284279	-0.4114604305	-3.1793426275	 0.149522
H	-2.0027088871	-2.5410686113	 0.8490442705	 0.08686
H	 0.5364303645	-2.5984978083	-0.8734156737	 0.127372
H	 0.4777204806	-2.758506217	 0.8934374076	 0.122123
H	-0.2654987145	-3.9939276915	-0.1330557286	 0.125876
31.3631	105.2115	138.0234	160.991	191.4451	240.1454	242.5294	272.0238	329.7377	407.5259	465.0548	478.4879	622.6573	653.7077	722.0814	781.1771	833.6071	877.2904	948.1121	960.0237	963.6397	1029.8376	1043.6541	1066.2583	1068.7638	1082.6279	1131.925	1161.6099	1172.9559	1256.2362	1288.359	1308.1756	1340.9533	1358.6569	1386.4446	1394.3121	1407.15	1413.5539	1418.6734	1475.5877	1476.6743	1477.8409	1489.3331	1495.5507	1500.7798	1510.0808	1740.6092	3008.7199	3024.1864	3031.0929	3034.5767	3046.8112	3049.4482	3063.7991	3098.0194	3106.2641	3115.9806	3127.121	3128.0866	3164.8858
CCC1N=C(C)OC1C	CC[C@H]1N=C(C)O[C@H]1C	
InChI=1S/C7H13NO/c1-4-7-5(2)9-6(3)8-7/h5,7H,4H2,1-3H3	InChI=1S/C7H13NO/c1-4-7-5(2)9-6(3)8-7/h5,7H,4H2,1-3H3/t5-,7+/m0/s1
