14
gdb 25411	5.23636	1.05182	0.87588	4.1714	81.31	-0.2302	-0.0696	0.1606	1223.9133	0.103093	-432.908721	-432.901452	-432.900507	-432.940769	27.138	
N	-0.1355594171	 1.3426945562	 0.0084557914	-0.541225
C	 0.0134200931	 0.0730951467	 0.000955446	 0.35322
N	-1.1324579992	-0.7337042573	 0.0036077458	-0.319368
C	-1.081407367	-2.0818992378	-0.0035529431	-0.011744
C	 0.1230014427	-2.7293276303	-0.0139990163	 0.17031
C	 0.1578499241	-4.1975328191	-0.0216778351	 0.099583
O	 1.1527493755	-4.8808290887	-0.0308677965	-0.270218
N	 1.3084729661	-2.0110244376	-0.0173869156	-0.256027
C	 1.2491357015	-0.7253202677	-0.0104661263	-0.066959
H	 0.7697838829	 1.8095336159	 0.0055410832	 0.227738
H	-2.0143173998	-0.2392691865	 0.0113737792	 0.277696
H	-2.0292512792	-2.6083425405	-0.0006337215	 0.153346
H	-0.8601946723	-4.6555041575	-0.0178260267	 0.056533
H	 2.1843776886	-0.1654944657	-0.0131536244	 0.127115
81.2304	166.7632	195.9465	315.3175	409.4708	414.7083	420.634	485.573	625.9934	653.4996	709.2946	765.3088	814.5809	817.3177	837.1166	912.5646	949.5502	988.6395	1026.0683	1094.2965	1213.995	1265.5236	1328.3377	1370.313	1402.8153	1450.5401	1494.6178	1595.0648	1647.8498	1707.9572	1808.0115	2842.9355	3133.2022	3202.1741	3503.6406	3601.6528
N=C1NC=C(C=O)N=C1	[NH]c1[nH]cc(C=O)nc1	
InChI=1S/C5H5N3O/c6-5-2-7-4(3-9)1-8-5/h1-3H,(H2,6,8)	InChI=1S/C5H10N3O/c6-5-2-7-4(3-9)1-8-5/h3-8H,1-2H2
