20
gdb 74617	2.56127	1.89519	1.38028	1.9884	83.28	-0.2164	0.0117	0.2281	1010.6523	0.17139	-365.977943	-365.970003	-365.969059	-366.009725	32.12	
C	 0.0554993158	 1.4994645239	 0.0374172788	-0.502038
C	-0.0885550762	 0.0121549041	-0.0083096109	 0.26597
C	-0.0615621331	-0.7866834587	-1.086173607	-0.194453
C	-0.1168766738	-2.2063292462	-0.6659976895	-0.055787
C	-0.5467583711	-2.2638314336	 0.743245265	-0.088071
N	 0.8417714132	-2.7212880087	 0.4275283497	-0.165919
C	 1.3583710985	-1.5543920463	 1.1934160593	-0.172019
C	-0.0580074275	-0.8638175675	 1.237016259	 0.202545
C	-0.5515691979	-0.2841378906	 2.5453378473	-0.507564
H	 0.9706995466	 1.8012230446	 0.5641086508	 0.127679
H	 0.0942927593	 1.9236048651	-0.9694697533	 0.126071
H	-0.7787565729	 1.9695142439	 0.5726230189	 0.12759
H	 0.053208964	-0.4683499945	-2.1151697742	 0.092925
H	-0.3508866812	-3.0038798722	-1.360206378	 0.093113
H	-1.3060065756	-2.9059586095	 1.1812594315	 0.086475
H	 1.6552301807	-1.9211646787	 2.1800298278	 0.108371
H	 2.1847893707	-1.0021389406	 0.7326176456	 0.095173
H	 0.0170199085	 0.6089190988	 2.8265961461	 0.120211
H	-1.607798168	 0.0010055153	 2.4820929763	 0.121109
H	-0.4498966899	-1.0104985086	 3.3584507969	 0.118618
152.4626	188.9559	217.7226	241.1012	292.0501	325.9228	407.7925	468.8089	567.6443	581.176	625.9588	675.9188	780.1126	787.615	797.4462	834.3548	864.0693	888.417	967.1469	971.3717	985.3228	1012.3742	1033.2045	1059.8915	1072.1563	1138.097	1144.4459	1168.4381	1190.5001	1216.7046	1262.6683	1269.7823	1286.0194	1355.4663	1371.6475	1410.5767	1416.8213	1476.9975	1482.1146	1488.6561	1495.6301	1500.4703	1681.8781	3014.4762	3026.5374	3034.7473	3059.8403	3091.5253	3095.8064	3099.0867	3110.589	3143.5155	3191.8805	3207.6719
CC1=CC2C3N2CC13C	CC1=C[C@@H]2[C@H]3N2C[C@@]13C	
InChI=1S/C8H11N/c1-5-3-6-7-8(5,2)4-9(6)7/h3,6-7H,4H2,1-2H3	InChI=1S/C8H11N/c1-5-3-6-7-8(5,2)4-9(6)7/h3,6-7H,4H2,1-2H3/t6-,7-,8+,9?/m1/s1
