20
gdb 78170	1.96239	1.71434	1.02911	3.9573	80.	-0.2336	0.031	0.2646	1211.4839	0.171935	-403.194945	-403.186243	-403.185299	-403.228022	33.474	
C	-0.0335587713	 1.4806180614	 0.0703130019	-0.422441
C	 0.0735228761	-0.0277337814	 0.0490825893	-0.007799
C	 0.6600303411	-0.7133925994	-1.1515139174	-0.062063
C	 1.4462731874	-0.671766678	 0.1432828991	-0.178097
C	 1.4544490578	-2.0786432921	 0.6786811789	 0.410802
O	 2.0520655895	-2.5035091411	 1.6431673945	-0.388391
N	 0.62823368	-2.8126769594	-0.1454724283	-0.329064
C	 0.2744791725	-2.1732044449	-1.4089450534	 0.021127
C	-1.1857625326	-2.3957987748	-1.8046114421	-0.392837
H	 0.7998128048	 1.9448592237	-0.4672764467	 0.117426
H	-0.9629908097	 1.8154138619	-0.4031916406	 0.121116
H	-0.0224034049	 1.8630823961	 1.0961985621	 0.127903
H	-0.7250545906	-0.5485172371	 0.5716299781	 0.097663
H	 0.9460880674	-0.1107627077	-2.0057596094	 0.090328
H	 2.3219805878	-0.0579887167	 0.3092842963	 0.104571
H	 0.5473057409	-3.8072541691	-0.0033051486	 0.246094
H	 0.9136568773	-2.5609624547	-2.2178614256	 0.082198
H	-1.864173992	-2.0011551999	-1.0433470289	 0.125537
H	-1.3999549482	-1.8965717413	-2.7549181522	 0.120761
H	-1.3992439435	-3.4621813756	-1.9338691068	 0.115166
112.1112	154.9066	185.9484	214.1607	235.6728	265.8987	300.9468	405.5442	474.2124	488.8005	528.1352	609.8883	692.5362	742.3477	827.1634	843.2393	866.363	925.7588	940.4702	977.9476	1027.3653	1032.9518	1059.0561	1083.912	1118.1546	1128.0114	1142.1208	1164.7825	1214.1849	1250.0112	1291.9993	1305.831	1349.7469	1390.0797	1408.7744	1417.9205	1428.4577	1439.185	1492.7636	1493.534	1496.0923	1501.6639	1827.0401	2970.1517	3030.115	3036.7122	3094.8339	3099.3273	3102.7878	3120.6932	3138.4181	3178.9816	3204.9157	3638.3237
CC1C2C1C(=O)NC2C	C[C@H]1[C@H]2[C@@H]1C(=O)N[C@H]2C	
InChI=1S/C7H11NO/c1-3-5-4(2)8-7(9)6(3)5/h3-6H,1-2H3,(H,8,9)	InChI=1S/C7H11NO/c1-3-5-4(2)8-7(9)6(3)5/h3-6H,1-2H3,(H,8,9)/t3-,4-,5+,6+/m0/s1
