19
gdb 76417	3.14164	1.13581	1.04675	0.7227	71.57	-0.2366	0.0516	0.2882	1220.8132	0.158162	-460.118669	-460.109787	-460.108843	-460.15212	34.546	
O	 0.0788773073	 1.3311774311	 0.1249412085	-0.439027
C	 0.0884376275	-0.0651280753	 0.0508898593	-0.009519
C	-0.4240072596	-0.7732927356	 1.2935538212	-0.012717
O	-0.8826769273	 0.0587248009	 2.3209447644	-0.439675
C	-1.2634393131	-0.7617704996	 0.0265806923	 0.330971
O	-2.3498707002	 0.1253189935	 0.0658945113	-0.480789
C	-1.4884378794	-1.9940223653	-0.7860801374	-0.049256
C	-2.827528161	-2.6874552106	-0.77068765	-0.26811
C	-2.3706044134	-1.9556631239	-2.0092213173	-0.269615
H	-0.7979465178	 1.6022096068	-0.1883426792	 0.29596
H	 0.9268331131	-0.4751373609	-0.5050331151	 0.102319
H	 0.0340688662	-1.6968316604	 1.6363382609	 0.102333
H	-0.4692971377	 0.9215531421	 2.1567454574	 0.296071
H	-2.502798837	 0.3033474685	 1.0081707889	 0.295053
H	-0.6115667669	-2.6334061653	-0.8421202798	 0.082063
H	-2.8434664471	-3.7714903035	-0.7811700889	 0.109146
H	-3.6167503212	-2.2254327111	-0.1892130104	 0.118904
H	-2.8617152141	-1.0168533529	-2.236573874	 0.12687
H	-2.0701429482	-2.5345680885	-2.875365962	 0.109019
67.9265	144.3005	177.8624	238.2217	239.7142	306.2684	359.8555	374.9788	436.1806	453.1529	583.8791	610.1565	685.5096	703.8996	734.4932	791.7386	810.2115	835.6453	874.1605	921.293	959.1729	1016.289	1063.4669	1065.6158	1074.8379	1085.5802	1104.1034	1130.11	1142.2331	1200.0052	1204.3767	1226.7773	1290.4354	1317.5335	1358.1266	1368.4832	1379.8396	1404.426	1458.4038	1467.0178	1506.4268	3138.8102	3139.1495	3143.6848	3144.7239	3153.8747	3222.1884	3236.1233	3677.5517	3690.8841	3705.2252
OC1C(O)C1(O)C1CC1	O[C@H]1[C@@H](O)[C@]1(O)C1CC1	
InChI=1S/C6H10O3/c7-4-5(8)6(4,9)3-1-2-3/h3-5,7-9H,1-2H2	InChI=1S/C6H10O3/c7-4-5(8)6(4,9)3-1-2-3/h3-5,7-9H,1-2H2/t4-,5+,6-
