21
gdb 103185	2.07765	1.4969	1.39951	2.0354	74.64	-0.2346	0.0659	0.3006	1111.3843	0.179873	-461.33293	-461.322929	-461.321985	-461.367006	37.884	
C	-0.0529150186	 1.5769615037	-0.1716839751	-0.258499
O	-0.2387490113	 0.1740535381	-0.2529587219	-0.27716
C	 0.5934904637	-0.4983185545	-1.1597651226	 0.392754
C	 0.3134304754	-0.1267510181	-2.6156792865	-0.462602
C	 2.1316592771	-0.5379079051	-0.8142144957	 0.083044
O	 2.4000052475	-0.2654559294	 0.54001885	-0.445072
C	 2.1074279947	-2.0554539472	-1.1624234071	-0.290536
C	 0.5691767663	-2.0438918496	-0.9418862511	 0.041701
O	 0.2304345531	-2.3134361901	 0.4101993035	-0.429406
H	 0.9889449229	 1.8316145982	 0.0552417452	 0.129759
H	-0.362191987	 2.0939915375	-1.0905959687	 0.103484
H	-0.6883410958	 1.9237942498	 0.6469067741	 0.126418
H	 0.586815665	 0.9123417861	-2.8211911871	 0.122921
H	 0.8829488589	-0.756084989	-3.3058522475	 0.119566
H	-0.7513980197	-0.2553438784	-2.833985961	 0.127087
H	 2.794437329	 0.0975529433	-1.4075107207	 0.073736
H	 1.6904519058	-0.6853340582	 1.0463240609	 0.291009
H	 2.397426916	-2.2728530344	-2.193413115	 0.103645
H	 2.6779930026	-2.693320487	-0.4828394232	 0.098671
H	-0.0577139837	-2.6242575567	-1.6316354172	 0.063644
H	 0.497128138	-3.219825329	 0.5978229166	 0.285836
102.5508	133.9718	167.6572	187.6461	223.0736	249.6269	274.3577	312.5384	340.7332	368.0185	399.9972	443.4171	465.427	523.7994	568.0256	657.5793	811.9028	865.7452	877.4141	897.4535	919.9527	1019.2498	1028.8638	1068.5074	1112.2515	1132.552	1147.9041	1171.8381	1178.2747	1189.9655	1227.3049	1240.1468	1251.6715	1271.3164	1311.9411	1333.2394	1401.8463	1410.4543	1451.7902	1467.5342	1475.8469	1484.437	1494.7024	1506.9021	1507.8311	3001.6953	3011.1707	3039.9066	3060.4253	3068.4926	3076.2944	3111.6092	3112.7768	3116.8115	3121.8722	3749.7856	3807.1571
COC1(C)C(O)CC1O	CO[C@@]1(C)[C@@H](O)C[C@H]1O	
InChI=1S/C6H12O3/c1-6(9-2)4(7)3-5(6)8/h4-5,7-8H,3H2,1-2H3	InChI=1S/C6H12O3/c1-6(9-2)4(7)3-5(6)8/h4-5,7-8H,3H2,1-2H3/t4-,5+,6-
