12
gdb 129136	3.83962	0.76947	0.64101	3.5273	62.57	-0.2773	-0.0846	0.1927	1564.4015	0.074895	-465.038154	-465.028638	-465.027694	-465.077808	29.027	
N	 0.4317218574	 1.1924259238	 1.5400971332	-0.464867
C	 0.5665926422	 0.3121713363	 0.641284295	 0.293112
N	 1.7710732593	-0.1667743586	 0.0561840144	-0.300428
C	 1.3948692737	-1.0416831263	-0.793760535	 0.123855
O	 0.0643700788	-1.2908299107	-0.931862515	-0.214742
N	-2.5768001287	-3.5533506605	-3.0188573571	 0.011061
N	-2.6788413706	-2.7932618292	-2.2324890357	-0.002117
C	-0.5640618819	-0.4302315705	-0.0111111784	 0.373196
N	-1.8004437844	-0.3536520836	 0.1709165426	-0.489239
H	 1.3543851923	 1.5410735165	 1.8132012271	 0.24384
H	 2.0382603809	-1.6278241027	-1.4392181893	 0.165203
H	-2.313192799	-0.9971992344	-0.4343709016	 0.261127
13.4908	17.6447	52.9389	54.3741	75.6821	153.4768	334.4781	337.4144	527.3039	537.8504	650.713	772.1027	811.2405	877.1304	920.5277	921.6657	936.0167	984.0895	1050.6048	1123.3004	1237.8022	1319.6075	1349.3333	1644.0127	1756.885	1804.6779	2435.5504	3225.753	3457.7081	3491.6615	13.4916	17.6436	52.9352	54.3737	75.6796	153.4773	334.4781	337.415	527.3039	537.8508	650.7128	772.1028	811.2401	877.13	920.528	921.6659	936.0167	984.0892	1050.6049	1123.3003	1237.802	1319.6071	1349.3326	1644.0134	1756.8843	1804.6777	2435.5505	3225.7528	3457.7077	3491.6613
N=C1N=CON=NC1=N	[NH]c1ncoc1[NH].N#N	
InChI=1S/C3H3N5O/c4-2-3(5)7-8-9-1-6-2/h1,4-5H	InChI=1S/C3H3N3O.N2/c4-2-3(5)7-1-6-2;1-2/h1,4-5H;
