15
gdb 25805	4.13787	1.12366	0.88919	4.2307	75.85	-0.2168	-0.0502	0.1667	1247.9431	0.112118	-453.99954	-453.990937	-453.989993	-454.033521	30.673	
C	-0.0088583387	 1.4696657374	 0.0546627461	-0.477362
C	-0.0414030629	-0.0453552583	 0.0298377675	 0.288754
O	-0.0784211977	-0.7294715744	 1.0326735544	-0.31698
C	-0.0247831373	-0.6532832643	-1.3084801819	 0.285759
N	 0.0279464498	-0.0737376158	-2.4715744533	-0.276725
C	 0.0278196043	-1.0900906976	-3.3957757712	-0.191851
C	-0.0291079506	-2.2857786083	-2.7212817994	 0.366173
N	-0.123733044	-3.6001635765	-3.0982229167	-0.597405
O	-0.0622985268	-2.0287108882	-1.4013205039	-0.177777
H	 0.8831098048	 1.8432766499	-0.4570178508	 0.148446
H	-0.8711199465	 1.8800189938	-0.4795736631	 0.148971
H	-0.0159944757	 1.8040495868	 1.092438417	 0.136686
H	 0.0659333441	-0.9128791544	-4.4581306456	 0.119952
H	 0.221974625	-3.8023806757	-4.0239929186	 0.269701
H	 0.1970285122	-4.2600419043	-2.4037625204	 0.273659
49.1194	100.0659	148.6494	161.5324	254.7605	321.9395	330.2717	411.3908	537.5493	560.9172	575.2685	620.7209	711.5738	721.3463	736.9218	788.9436	943.5456	966.7099	1035.412	1041.4491	1081.399	1111.9861	1164.4446	1301.9186	1327.4761	1385.0441	1451.0451	1460.5649	1468.1725	1554.6582	1609.2427	1662.4873	1772.9614	3051.0772	3115.4028	3158.899	3267.3323	3572.78	3679.1109
CC(=O)C1=NC=C(N)O1	CC(=O)c1ncc(N)o1	
InChI=1S/C5H6N2O2/c1-3(8)5-7-2-4(6)9-5/h2H,6H2,1H3	InChI=1S/C5H6N2O2/c1-3(8)5-7-2-4(6)9-5/h2H,6H2,1H3
