15
gdb 34623	3.5635	1.20087	0.92474	2.788	75.46	-0.2678	-0.0549	0.213	1185.2231	0.113927	-416.818621	-416.810716	-416.809772	-416.851923	28.318	
N	 0.0296893398	-1.1520494402	-0.5076047472	-0.328847
C	-0.0091965316	-0.0174101413	-0.2760668538	 0.221073
C	-0.0063973094	 1.3824978842	 0.0130859203	 0.112106
C	-1.1420095664	 2.0849630169	-0.0783360027	-0.113388
C	-1.3411975244	 3.5571498379	 0.1371425462	-0.210352
N	-0.3768393286	 4.4089832349	 0.7875103291	-0.254503
C	 0.7086231148	 4.0843662751	 1.3336124424	 0.12953
O	 1.3814509987	 2.9056683577	 1.4192641764	-0.213029
C	 1.3486216543	 1.9797203954	 0.3379615748	-0.181321
H	-2.0470172086	 1.5552645032	-0.3681790455	 0.125534
H	-1.5771270137	 4.000997775	-0.8441722378	 0.147002
H	-2.2785350622	 3.6783390568	 0.7006517864	 0.148001
H	 1.2610635756	 4.8413160155	 1.8911094788	 0.130019
H	 2.0424259402	 1.1883509275	 0.6258953648	 0.149213
H	 1.7526842415	 2.4681794714	-0.5588466221	 0.138963
43.9626	145.2872	167.7036	179.593	306.9915	344.8883	428.9933	461.5341	560.3068	582.3775	618.9462	791.8496	831.7217	852.4746	937.5547	956.4971	971.2158	1004.5635	1017.4417	1092.2286	1155.0107	1187.2464	1284.8999	1299.5966	1361.3953	1385.4741	1418.123	1432.9416	1442.8799	1489.1501	1713.686	1780.8762	2333.718	2983.1596	3007.3768	3020.9548	3120.6986	3136.7457	3158.1563
N#CC1=CCN=COC1	N#CC1=CCN=COC1	
InChI=1S/C6H6N2O/c7-3-6-1-2-8-5-9-4-6/h1,5H,2,4H2	InChI=1S/C6H6N2O/c7-3-6-1-2-8-5-9-4-6/h1,5H,2,4H2
