21
gdb 41695	2.94323	1.73016	1.45349	1.8058	80.04	-0.2391	0.0773	0.3164	985.2731	0.186654	-387.073223	-387.066314	-387.06537	-387.104336	28.936	
C	 0.0181690428	 1.436625583	-0.3084294071	-0.086326
O	 1.3803297882	 1.5861731938	 0.1389973161	-0.301171
C	 1.4552752013	 0.1932105204	 0.5256091195	 0.139136
C	 1.6577280457	-0.025757871	 2.0172767612	-0.030174
C	 0.4894163932	 0.6003187783	 2.8232410278	-0.228883
C	-0.3124109787	-0.6914511905	 2.4952475503	-0.000802
C	 1.0598141413	-1.4191272089	 2.3717264698	-0.232042
C	-0.9845232611	-0.5833978436	 1.1193545058	-0.239193
C	-0.0018507061	-0.0686208464	 0.0421308195	-0.05877
H	-0.6765604633	 2.0642451809	 0.2664386657	 0.094941
H	-0.089379828	 1.6770296947	-1.3736128863	 0.097157
H	 2.2344786998	-0.3290815861	-0.0455016418	 0.068955
H	 2.6811357629	 0.206394635	 2.3220919243	 0.063521
H	 0.732002326	 0.663527138	 3.8871927813	 0.094221
H	 0.0981288758	 1.5639817851	 2.4891091777	 0.103479
H	-1.0156476135	-1.0616353438	 3.2452496901	 0.058738
H	 1.1523327341	-2.2225702796	 1.6327220553	 0.087841
H	 1.4190956991	-1.780174216	 3.3384884457	 0.098793
H	-1.3703368974	-1.5688450168	 0.8331683753	 0.095991
H	-1.8544804719	 0.0830422864	 1.1802083034	 0.095749
H	-0.0478513301	-0.6941467528	-0.8506184038	 0.078839
114.8802	198.846	314.8214	363.7687	389.494	434.703	505.9958	596.6708	735.3787	790.559	823.8947	842.7676	857.7576	869.6185	915.0598	922.2271	940.4288	961.8473	990.4114	1007.5947	1027.9099	1060.9868	1081.4505	1101.6973	1109.038	1118.9781	1139.8158	1151.8912	1166.8319	1221.2192	1246.8798	1249.4629	1264.1341	1282.9136	1299.3742	1318.8431	1343.2379	1349.3431	1361.7143	1378.6392	1391.3828	1480.2113	1489.8244	1510.9463	1525.2446	2998.1677	3010.1394	3018.965	3040.4755	3040.9194	3054.1838	3059.4356	3073.0998	3077.712	3091.0245	3103.7263	3115.1953
C1OC2C3CC(C3)CC12	C1O[C@H]2[C@H]3C[C@H](C3)C[C@@H]12	
InChI=1S/C8H12O/c1-5-2-6(1)8-7(3-5)4-9-8/h5-8H,1-4H2	InChI=1S/C8H12O/c1-5-2-6(1)8-7(3-5)4-9-8/h5-8H,1-4H2/t5-,6+,7-,8-/m0/s1
