14
gdb 67325	3.31013	1.43949	1.21585	4.0845	66.02	-0.2534	0.0186	0.2719	989.8892	0.100034	-436.594792	-436.587577	-436.586633	-436.626502	27.616	
O	-0.0618104053	 1.3435558197	-0.0582525106	-0.444104
C	 0.0389062806	-0.0145709351	-0.0443345762	 0.376284
C	 0.3490447887	-1.0078850999	 1.1435909711	-0.009278
O	-1.0199203924	-1.019000315	 1.6261479237	-0.314751
C	-1.1593806204	-0.9851962334	 0.1774219381	 0.040384
C	 0.0554032031	-1.9326263972	-0.0736999513	-0.085085
C	 0.7237698113	-0.9663644977	-1.0846791156	-0.286418
C	 0.2188334628	-0.9541960042	-2.4462025763	 0.275234
N	-0.1942288549	-0.9382369143	-3.5262806614	-0.323752
H	 0.8143925177	 1.7375147052	 0.0217238426	 0.299134
H	 1.1693092924	-1.0321447673	 1.8599044445	 0.108866
H	-2.1527875647	-0.9838162816	-0.2655682985	 0.126448
H	 0.0469999713	-3.0180151104	-0.0840742035	 0.116748
H	 1.8177332798	-0.9646349888	-1.0799497868	 0.120289
123.9401	132.8279	242.968	312.3566	333.8163	408.9368	457.8318	529.5104	615.0862	699.2738	767.1838	818.1822	840.4152	862.6612	904.1182	919.6227	931.8873	967.9518	1020.8681	1043.4523	1080.4944	1111.026	1139.3624	1171.7928	1187.6407	1229.5684	1285.2305	1304.0271	1341.4884	1429.682	2352.0891	3071.8937	3132.3441	3155.3719	3182.2967	3802.5718
OC12C3OC1C3C2C#N	O[C@@]12[C@H]3O[C@@H]1[C@H]3[C@H]2C#N	
InChI=1S/C6H5NO2/c7-1-2-3-4-6(2,8)5(3)9-4/h2-5,8H	InChI=1S/C6H5NO2/c7-1-2-3-4-6(2,8)5(3)9-4/h2-5,8H/t2-,3-,4-,5+,6-/m1/s1
