16
gdb 78731	4.63874	1.1804	1.06	1.2346	76.04	-0.2479	0.0159	0.2638	1116.3647	0.123959	-400.647248	-400.639696	-400.638752	-400.678987	29.975	
O	 0.1016333916	 1.3150885151	 0.1204531789	-0.443591
C	 0.0911250964	-0.0866190355	-0.0085189167	 0.165758
C	-1.3079860953	-0.6731195794	-0.1284499237	-0.137973
N	-1.3041638673	-0.5465400436	-1.6323610375	-0.210562
C	 0.2585592796	-0.6011516258	-1.4550557394	-0.071774
C	 0.2066369145	-2.1319392876	-1.3856569921	-0.304958
C	-1.2465137975	-1.915490926	-0.9693269727	 0.198325
C	-2.3117623542	-2.8591680893	-1.0330731249	 0.159915
C	-3.1856075265	-3.6842298076	-1.080355922	-0.370637
H	-0.5365077948	 1.672844991	-0.5094434065	 0.293035
H	 0.7733981568	-0.4690587703	 0.7565502682	 0.092787
H	-2.1883701948	-0.4293593485	 0.4558165258	 0.108793
H	 0.8931415099	-0.0681737866	-2.1601084256	 0.095695
H	 0.2541999407	-2.5919842315	-2.3749481119	 0.126288
H	 0.8837527947	-2.6477857732	-0.6976280192	 0.107744
H	-3.964177224	-4.4051036314	-1.1249218508	 0.191154
132.648	135.9825	229.463	325.1604	378.217	412.2594	457.2057	506.3927	534.3127	598.6179	614.1167	666.784	742.6385	790.7823	804.8171	873.4729	892.331	944.9569	964.5022	993.9378	1026.6017	1061.1607	1093.5556	1125.8254	1166.4742	1196.7783	1234.5585	1251.5007	1261.0438	1279.6059	1304.6731	1380.7525	1439.1169	1498.5461	2238.7705	3051.1022	3068.2732	3117.2919	3146.4412	3186.4596	3501.5022	3783.1635
OC1C2N3C1CC23C#C	O[C@H]1[C@H]2N3[C@@H]1C[C@@]23C#C	
InChI=1S/C7H7NO/c1-2-7-3-4-5(9)6(7)8(4)7/h1,4-6,9H,3H2	InChI=1S/C7H7NO/c1-2-7-3-4-5(9)6(7)8(4)7/h1,4-6,9H,3H2/t4-,5-,6-,7+,8?/m1/s1
