16
gdb 49522	2.95207	1.83353	1.51207	5.0196	68.52	-0.2391	0.0242	0.2633	893.5194	0.125711	-437.841272	-437.834681	-437.833737	-437.87225	26.322	
O	 0.1102714192	 0.0528112685	 0.4469208839	-0.321596
C	 0.1162386063	 1.2485360233	 0.2774463366	 0.15659
N	 1.1486526029	 1.9384252344	-0.3182426099	-0.031597
C	 2.5796572851	 1.6020975479	-0.2052928175	-0.072486
C	 2.8326468047	 2.9604079673	-0.9424249372	-0.229492
C	 1.5652760375	 3.3413974583	-0.1051385266	-0.087605
C	 2.1817199691	 3.3064167648	 1.3298171344	 0.032361
O	 1.756215719	 2.1858583219	 2.1066062433	-0.223613
C	 2.9050483246	 2.0357632771	 1.2632336834	 0.040748
H	-0.7514297012	 1.9064972427	 0.4866287971	 0.071256
H	 2.9201199727	 0.6357524952	-0.5667079089	 0.10815
H	 3.759705252	 3.4916507975	-0.7179566401	 0.108374
H	 2.640985247	 2.9092313913	-2.0145241492	 0.12369
H	 0.8790682541	 4.1414481653	-0.3765689668	 0.093504
H	 2.4872133455	 4.1985887834	 1.8642279908	 0.114349
H	 3.8435320814	 1.8031176011	 1.7518129466	 0.117368
123.9825	183.6159	265.6044	403.2793	413.5911	490.0046	592.4948	702.5805	716.6678	779.5251	813.664	839.2691	865.1791	874.8235	894.998	910.8489	981.605	1032.0491	1036.5645	1057.0573	1064.0336	1082.5326	1106.0548	1168.0184	1215.6323	1219.3465	1243.7228	1248.6332	1263.9687	1275.9067	1356.7129	1391.2096	1421.9722	1488.7518	1805.6697	2929.9272	3079.9671	3140.6229	3153.2978	3166.3281	3183.201	3197.8317
O=CN1C2CC1C1OC21	O=CN1[C@H]2C[C@@H]1[C@H]1O[C@@H]21	
InChI=1S/C6H7NO2/c8-2-7-3-1-4(7)6-5(3)9-6/h2-6H,1H2	InChI=1S/C6H7NO2/c8-2-7-3-1-4(7)6-5(3)9-6/h2-6H,1H2/t3-,4+,5-,6+
