15
gdb 66401	2.28437	1.58644	1.30909	2.2673	72.08	-0.2303	-0.0053	0.225	1022.2802	0.112013	-416.755655	-416.747377	-416.746433	-416.788321	31.477	
N	-0.1356689966	 1.5216052328	 0.0902893785	-0.602046
C	-0.0660110974	 0.1176714869	-0.0635831163	 0.139777
C	-1.1832585241	-0.9132080741	-0.1097385266	-0.0557
N	-0.4715823791	-1.6502974154	-1.1521331679	-0.344494
C	 0.6270918444	-0.7545384242	-1.1201988	 0.349265
O	 1.6562060887	-0.7290633356	-1.7282523847	-0.330659
C	-0.3624596621	-0.7955811743	 1.1544752562	-0.258454
C	 0.5153272109	-1.8339904274	 1.6095538106	 0.318848
C	 1.2413919488	-2.7169274834	 1.983442294	-0.422957
H	 0.7175529483	 1.8841957089	 0.5042321763	 0.250138
H	-0.2584420629	 1.981667703	-0.8064000804	 0.247019
H	-2.2520988116	-0.7546018502	-0.1578115396	 0.124912
H	-0.323146691	-2.6520208005	-1.0911455019	 0.24945
H	-0.8511085693	-0.2173691511	 1.9363421025	 0.131736
H	 1.8921267331	-3.4868738356	 2.3173944492	 0.203164
100.2779	127.7441	188.2958	252.9015	274.3456	315.686	373.2137	490.0463	507.7469	573.501	608.8042	650.9085	666.2803	700.5004	744.1967	764.0951	803.7439	850.9102	905.273	926.2918	992.8266	1040.7268	1058.9785	1132.0702	1204.1021	1248.1088	1282.2486	1319.3182	1334.9439	1454.4051	1662.0322	1901.6388	2236.6764	3138.2926	3212.8778	3500.1913	3502.7694	3546.2521	3574.8566
NC12C(NC1=O)C2C#C	N[C@@]12[C@@H](NC1=O)[C@H]2C#C	
InChI=1S/C6H6N2O/c1-2-3-4-6(3,7)5(9)8-4/h1,3-4H,7H2,(H,8,9)	InChI=1S/C6H6N2O/c1-2-3-4-6(3,7)5(9)8-4/h1,3-4H,7H2,(H,8,9)/t3-,4+,6+/m1/s1
