21
gdb 84714	2.56955	1.63057	1.18825	1.6151	82.62	-0.2479	0.012	0.2599	1101.1903	0.186009	-387.115735	-387.107954	-387.10701	-387.148437	31.417	
O	 0.4730774688	 1.2096147362	-0.4473100117	-0.421284
C	 0.1017218056	-0.1304237173	-0.1199227685	 0.074666
C	 0.6885912785	-0.5504549398	 1.2074466208	-0.120613
C	-0.2421054322	-0.8234319042	 2.1220351045	-0.086969
C	-1.6411026586	-0.7145033708	 1.5800263747	-0.031987
C	-2.5234655354	 0.4326079751	 2.1315800185	-0.218491
C	-3.3819942567	 0.8277474355	 0.918745607	-0.194844
C	-2.3934478895	 0.7758146434	-0.2628715356	-0.220695
C	-1.4366225986	-0.3943840905	 0.061965567	-0.040817
H	 0.4083916107	 1.7309403825	 0.3605257146	 0.274187
H	 0.4934659921	-0.7189265787	-0.9561789036	 0.086677
H	 1.7607847731	-0.5468153444	 1.3746512324	 0.095472
H	-0.0373244405	-1.0952416083	 3.1531615839	 0.095642
H	-2.1807078109	-1.6614601458	 1.7070530046	 0.075001
H	-3.1124058923	 0.1416669921	 3.0063729616	 0.092752
H	-1.8901189729	 1.2775783019	 2.4306984513	 0.087891
H	-4.1802313164	 0.0881548349	 0.7772415867	 0.094884
H	-3.8634377692	 1.8040544057	 1.0317385192	 0.091943
H	-2.8948298205	 0.6519026144	-1.2265577117	 0.093977
H	-1.8247224305	 1.7083854665	-0.326208193	 0.101565
H	-1.6940332845	-1.2730277583	-0.5350007127	 0.071044
38.7952	173.4738	236.1657	289.5461	353.6593	370.6496	486.923	529.1513	551.9812	591.9511	709.2249	740.7597	775.8909	807.0704	865.8689	875.0024	911.0902	922.2177	949.8538	984.5656	1002.4944	1022.1237	1036.9577	1056.7683	1077.9318	1117.8837	1137.3895	1161.1691	1189.1111	1221.6602	1247.0279	1257.9389	1300.8043	1305.9517	1314.2685	1324.6974	1338.9293	1347.1242	1350.0802	1377.4994	1432.2237	1491.5939	1497.3862	1513.47	1679.2702	3016.2974	3024.5287	3029.8392	3046.1189	3058.7265	3068.4375	3081.3616	3087.0337	3102.6652	3170.4218	3197.484	3799.864
OC1C=CC2CCCC12	O[C@H]1C=C[C@H]2CCC[C@@H]12	
InChI=1S/C8H12O/c9-8-5-4-6-2-1-3-7(6)8/h4-9H,1-3H2	InChI=1S/C8H12O/c9-8-5-4-6-2-1-3-7(6)8/h4-9H,1-3H2/t6-,7-,8+/m1/s1
