15
gdb 12258	3.40761	1.59797	1.23003	0.6288	58.55	-0.2675	0.005	0.2725	962.6874	0.118012	-436.91918	-436.91098	-436.910036	-436.952299	28.975	
O	-0.0176634683	 1.3002859225	-0.3914388456	-0.42106
C	 0.0312348556	-0.0882502631	-0.1249596643	-0.063341
C	-1.3285886577	-0.6014422328	 0.3033949793	 0.071316
O	-2.3047029151	-0.4309199471	-0.8006161585	-0.27826
C	-2.4420318994	-1.7933597895	-0.9372446747	 0.402211
N	-3.0284775061	-2.4975335489	-1.7913594231	-0.549262
C	-1.5765687409	-2.1288018423	 0.263501168	-0.015508
O	-0.4471093922	-2.9286053027	 0.0261275403	-0.425027
H	-0.6715667418	 1.4276693563	-1.0883426073	 0.292827
H	 0.3863864973	-0.6655534569	-0.9889162293	 0.10508
H	 0.7485379419	-0.2353941373	 0.6885807409	 0.12687
H	-1.6935589324	-0.0768162716	 1.1891063202	 0.104953
H	-3.4808272427	-1.9349317964	-2.5135694809	 0.23451
H	-2.1581362512	-2.4913026437	 1.1212605773	 0.108563
H	-0.7120840069	-3.6207019663	-0.5908343323	 0.306129
71.8152	109.8943	140.0987	174.8118	255.5809	301.4523	403.5051	432.4682	479.0025	552.5455	672.6107	768.6398	831.3973	865.2961	887.1442	943.8626	1005.4531	1029.9534	1081.4858	1110.5284	1161.4877	1189.3383	1218.5067	1241.8407	1308.0445	1334.542	1366.2117	1393.0266	1398.9289	1430.9645	1493.2822	1828.3196	3021.6324	3022.2914	3086.2971	3102.4376	3481.2356	3801.6234	3803.7501
OCC1OC(=N)C1O	OC[C@H]1O[C]([NH])[C@H]1O	
InChI=1S/C4H7NO3/c5-4-3(7)2(1-6)8-4/h2-3,5-7H,1H2	InChI=1S/C4H7NO3/c5-4-3(7)2(1-6)8-4/h2-3,5-7H,1H2/t2-,3+/m1/s1
