21
gdb 100319	2.30967	1.29259	1.10714	2.9245	74.03	-0.2573	0.0548	0.312	1224.9232	0.180164	-461.332841	-461.322641	-461.321697	-461.368049	37.722	
C	-0.1173606637	 1.4959457081	-0.1338340399	-0.405716
C	 0.004103669	-0.0200457418	 0.0415363026	-0.20322
C	 0.7666043691	-0.4698814426	 1.3025794204	 0.268889
O	 2.1022113676	 0.0431455784	 1.3186548964	-0.459573
C	 0.1190197418	 0.082232157	 2.5875414341	-0.095398
O	-1.2522584939	-0.2286701678	 2.6939304315	-0.427497
C	 0.8412761642	-1.9996305156	 1.3042364095	 0.063321
C	 1.1513559092	-2.8093511452	 2.4851315835	-0.196214
O	-0.1928080434	-2.7375261209	 1.9814455863	-0.247501
H	 0.8572776486	 1.9832491351	-0.0371557099	 0.119948
H	-0.5213083778	 1.7352317556	-1.1219088846	 0.111171
H	-0.790936253	 1.9289348999	 0.610354735	 0.138382
H	-0.9917375113	-0.4742608473	 0.0688378858	 0.121626
H	 0.5186200436	-0.4527698271	-0.8296419766	 0.078284
H	 2.5059247244	-0.1361000362	 0.4624995076	 0.281379
H	 0.6958373396	-0.2612040385	 3.4593431865	 0.09124
H	 0.2086077258	 1.1710454707	 2.5672953262	 0.119745
H	-1.3087563245	-1.1939704055	 2.6761682753	 0.294838
H	 1.1000390623	-2.430128848	 0.3334240927	 0.090787
H	 1.633152366	-3.7767108633	 2.3563053609	 0.123161
H	 1.3156725666	-2.334076005	 3.4481785267	 0.132347
50.6107	80.4424	162.6349	183.4703	216.3789	250.3564	256.2285	294.2711	324.3507	355.2214	391.8372	442.2386	531.8597	581.1156	593.9794	723.2777	785.3684	852.5225	869.1213	929.328	970.7841	990.7656	1040.5733	1053.3772	1092.2876	1100.3079	1120.2123	1151.0817	1157.649	1176.6346	1182.49	1241.7031	1288.1687	1296.9294	1364.1159	1382.4003	1391.3653	1408.3774	1440.8811	1455.7375	1475.2461	1497.2924	1505.9724	1518.0398	1538.7297	2994.2218	2997.2131	3044.456	3075.2741	3076.9164	3098.5034	3103.6888	3112.1649	3121.813	3194.5795	3743.8505	3804.4605
CCC(O)(CO)C1CO1	CC[C@@](O)(CO)[C@H]1CO1	
InChI=1S/C6H12O3/c1-2-6(8,4-7)5-3-9-5/h5,7-8H,2-4H2,1H3	InChI=1S/C6H12O3/c1-2-6(8,4-7)5-3-9-5/h5,7-8H,2-4H2,1H3/t5-,6-/m1/s1
