13
gdb 129341	5.59292	1.02767	0.86815	0.3214	70.87	-0.2512	-0.0856	0.1656	1227.6527	0.090338	-448.927777	-448.920422	-448.919478	-448.961055	25.67	
N	-0.1777239563	 1.3098725277	 0.0110010825	-0.414379
C	-0.0086347973	 0.0650261802	 0.0022480775	 0.108498
O	-1.1397245368	-0.7203385654	 0.006999227	-0.226512
C	-1.0372752967	-2.0699253757	-0.0005855389	 0.460417
C	-2.2427072366	-2.7967504968	 0.0031702067	-0.058159
N	-2.212238133	-4.1116989526	-0.0037216642	-0.22217
C	-0.9811388236	-4.6562043039	-0.0141895968	 0.103569
N	 0.1715829838	-4.0043888909	-0.0180192215	-0.178128
N	 0.1379507754	-2.6682224594	-0.0109058139	-0.273363
H	 0.7249092924	 1.7817552669	 0.0065970128	 0.244698
H	 0.9161423649	-0.5093107379	-0.0082700741	 0.158516
H	-3.2006555917	-2.2836751357	 0.0117073777	 0.152137
H	-0.9150762845	-5.7390089166	-0.0201057449	 0.144877
36.0504	85.1982	183.4068	211.5791	404.6506	419.168	479.1638	544.0236	633.6038	725.994	790.0058	843.7054	880.428	940.4229	996.5141	1023.8279	1050.4402	1067.4374	1118.764	1183.8718	1229.9244	1256.4836	1330.842	1389.1945	1419.5567	1447.9323	1561.7309	1607.5639	1745.6932	3156.3192	3172.9544	3200.2846	3516.9625
N=COC1=CN=CN=N1	[NH][CH]Oc1cncnn1	
InChI=1S/C4H4N4O/c5-2-9-4-1-6-3-7-8-4/h1-3,5H	InChI=1S/C4H4N4O/c5-2-9-4-1-6-3-7-8-4/h1-3,5H
