16
gdb 81493	2.27388	1.96312	1.20194	3.1941	69.56	-0.2648	0.0211	0.286	1007.2373	0.122515	-437.818334	-437.810074	-437.80913	-437.850769	31.357	
C	-0.0835186005	 1.5311158333	 0.0165941403	-0.46755
C	-0.0707937559	 0.0009601743	-0.0140654532	 0.201498
C	-1.3954603388	-0.4895487584	-0.3839492531	 0.221724
N	-2.47582304	-0.7479708914	-0.7048780555	-0.347247
C	 1.1983790756	-0.6859448851	-0.6324780592	-0.048966
O	 1.9857221133	-0.1800541302	 0.5047369847	-0.300635
C	 0.7556780751	-0.7205697772	 1.1165865576	-0.01975
C	 0.9618228975	-1.970106277	 0.2346202069	 0.117905
O	-0.1229606422	-2.8177263812	 0.062451313	-0.4044
H	 0.9047085371	 1.9029807728	 0.2866475952	 0.14856
H	-0.3652904333	 1.928786576	-0.9624746234	 0.137302
H	-0.817672376	 1.8901672725	 0.7433389513	 0.138289
H	 1.6124478075	-0.5612808699	-1.6335361887	 0.107736
H	 0.6394526387	-0.6325760286	 2.1965163872	 0.113327
H	 1.9027672824	-2.4843701624	 0.4560858992	 0.102348
H	 0.0535560196	-3.4215672474	-0.6662287926	 0.299858
122.7232	172.2278	220.3154	223.1046	254.2554	287.5407	344.4671	376.5363	509.94	547.2371	562.8624	628.8105	685.2283	747.349	847.0849	875.9545	898.839	903.1965	941.105	1048.8947	1089.2758	1133.8127	1148.5717	1151.6643	1177.7859	1190.9189	1230.4107	1260.3052	1266.4378	1303.0761	1401.0596	1423.647	1490.0361	1500.1698	2348.4992	3053.0657	3063.0318	3117.5226	3119.9341	3131.5389	3157.8096	3821.7733
CC1(C#N)C2OC1C2O	C[C@@]1(C#N)[C@H]2O[C@@H]1[C@H]2O	
InChI=1S/C6H7NO2/c1-6(2-7)4-3(8)5(6)9-4/h3-5,8H,1H3	InChI=1S/C6H7NO2/c1-6(2-7)4-3(8)5(6)9-4/h3-5,8H,1H3/t3-,4-,5+,6+
