18
gdb 45779	2.97959	1.41029	1.07327	3.0292	79.84	-0.2096	-0.0038	0.2058	1129.5855	0.149533	-401.989028	-401.981291	-401.980347	-402.021291	30.687	
O	 0.0084636239	-0.0755274	 0.0452920894	-0.363454
C	-0.01506822	 1.1377388128	 0.0414942459	 0.400853
C	-1.2956954648	 1.966572904	 0.0782354482	-0.410512
C	-1.1434021556	 3.3146931227	 0.7710015856	 0.323055
C	-2.3911673876	 4.1261214966	 1.0291032339	-0.317263
C	-1.6820869813	 3.4792753889	 2.1871192891	-0.295006
C	 0.1231636267	 4.0014384703	 0.4144840938	-0.194145
C	 1.1805437467	 3.2854201526	 0.0235627282	 0.004797
N	 1.135506599	 1.8893827875	-0.0719668927	-0.339946
H	-1.5822552054	 2.1259250308	-0.9718116094	 0.130478
H	-2.0745977723	 1.3511690737	 0.5328202587	 0.127559
H	-2.322664703	 5.2038430343	 0.9219512744	 0.11475
H	-3.3399075595	 3.7080242577	 0.7086412019	 0.11538
H	-2.1405668106	 2.6122156662	 2.6513987231	 0.120155
H	-1.1254680689	 4.1116906527	 2.8696229733	 0.115916
H	 0.195847501	 5.0797705796	 0.4904310537	 0.095995
H	 2.1340896005	 3.7285197	-0.2364511539	 0.117603
H	 1.9881943111	 1.3623733596	-0.1834374432	 0.253787
87.9834	122.9806	266.2832	285.2243	339.6627	426.2909	456.7996	494.9197	550.9299	572.2855	640.4203	698.9579	736.139	779.0047	819.2594	841.11	919.0242	939.2597	949.9445	958.3118	982.795	1017.8257	1057.9419	1081.7353	1084.0682	1171.3129	1190.5266	1207.6914	1285.8067	1294.973	1341.1944	1351.2626	1436.5762	1455.2234	1463.71	1469.5619	1498.9593	1715.0864	1804.065	3008.4607	3111.9552	3125.6239	3131.6244	3192.4622	3205.8458	3213.5955	3223.0147	3629.7608
O=C1CC2(CC2)C=CN1	O=C1CC2(CC2)C=CN1	
InChI=1S/C7H9NO/c9-6-5-7(1-2-7)3-4-8-6/h3-4H,1-2,5H2,(H,8,9)	InChI=1S/C7H9NO/c9-6-5-7(1-2-7)3-4-8-6/h3-4H,1-2,5H2,(H,8,9)
