12
gdb 129726	2.46102	1.92445	1.08025	4.9118	64.87	-0.2292	-0.0805	0.1487	988.5821	0.07629	-505.933166	-505.925352	-505.924408	-505.965285	29.041	
N	-0.0060403396	 1.375907129	 0.0823016556	-0.580714
C	-0.0409992114	 0.0260972679	 0.0250289144	 0.08154
C	-1.1663952141	-0.7469814982	 0.0105108848	 0.388925
O	-2.3945843638	-0.1772903261	 0.0201634987	-0.430537
N	-1.1087878512	-2.1044515703	-0.0107169949	-0.194354
N	-0.0574872091	-2.7693374717	-0.0254131742	 0.009912
O	 1.1845388099	-2.0275412641	-0.0251789564	-0.258706
C	 1.2444123776	-0.6672836703	-0.0075254429	 0.469181
O	 2.3087054877	-0.0949235168	-0.0238393644	-0.367021
H	 0.8943329457	 1.8072425874	-0.057361965	 0.287141
H	-0.8429474466	 1.9090249955	-0.0774186367	 0.281602
H	-3.0481207351	-0.8885685223	 0.004503631	 0.313031
115.6195	182.2227	248.778	266.6542	310.601	338.0809	390.4821	466.9624	516.9527	528.943	543.2981	552.7505	663.1826	664.0535	771.8869	807.4856	902.5325	976.0532	1150.7164	1166.6567	1324.7258	1385.1621	1433.1012	1524.224	1608.2071	1721.5475	1804.6955	3596.7281	3733.9468	3791.3746
NC1=C(O)N=NOC1=O	Nc1c(O)nnoc1=O	
InChI=1S/C3H3N3O3/c4-1-2(7)5-6-9-3(1)8/h7H,4H2	InChI=1S/C3H3N3O3/c4-1-2(7)5-6-9-3(1)8/h7H,4H2
