20
gdb 10397	2.56875	1.89548	1.38927	2.0617	70.65	-0.2487	0.0798	0.3285	988.8403	0.176265	-386.116725	-386.107937	-386.106992	-386.149829	32.737	
C	-1.5624020548	-0.0516123726	-0.2494993591	-0.261339
O	-0.169121013	 0.1913552364	-0.1778330083	-0.300819
C	 0.6495134997	-0.658846072	-0.9740147219	 0.39072
C	 0.493343504	-0.289048226	-2.4494863184	-0.095849
O	 0.7484368705	 1.0858026452	-2.6553822395	-0.429967
C	 2.1204700311	-0.6375125313	-0.4976990317	-0.268362
C	 2.1601138327	-2.1813106595	-0.6680769023	-0.219703
C	 0.6056465421	-2.1894284559	-0.7002653822	-0.28337
H	-1.9900639819	 0.2085093263	-1.2277873697	 0.114942
H	-1.8036713108	-1.1013922949	-0.0341868743	 0.114003
H	-2.0302889932	 0.5780112501	 0.511200326	 0.13016
H	 1.2106467008	-0.853166916	-3.0553716835	 0.10505
H	-0.5140844471	-0.5696926011	-2.8003766347	 0.080778
H	 0.3634717203	 1.5375866734	-1.8935500117	 0.286395
H	 2.8126808774	-0.0282041874	-1.081639215	 0.112302
H	 2.1692077132	-0.3385733404	 0.5517870279	 0.108468
H	 2.5968403258	-2.4863589454	-1.6221241657	 0.10793
H	 2.6384498282	-2.7551612457	 0.1274228319	 0.103371
H	 0.1828588731	-2.3954033949	 0.2867233006	 0.109149
H	 0.1092245118	-2.8237568383	-1.4400934082	 0.096139
90.1029	131.5431	153.6443	197.1832	210.367	270.4407	353.5556	364.606	429.3825	454.0247	538.8948	654.1465	727.4957	799.0646	853.8462	901.6565	909.5083	933.3067	979.4987	1040.4675	1080.2091	1087.3791	1106.7288	1160.8035	1181.5803	1192.4923	1201.1956	1228.3553	1242.3768	1251.2519	1275.7215	1295.7747	1301.8588	1359.2716	1438.8862	1469.5602	1477.9789	1486.4196	1489.2076	1506.0316	1508.9339	1519.1762	2962.737	2996.0496	3047.94	3053.9924	3066.0119	3070.2153	3074.6179	3104.206	3114.6039	3120.4611	3135.4391	3771.194
COC1(CO)CCC1	COC1(CO)CCC1	
InChI=1S/C6H12O2/c1-8-6(5-7)3-2-4-6/h7H,2-5H2,1H3	InChI=1S/C6H12O2/c1-8-6(5-7)3-2-4-6/h7H,2-5H2,1H3
