20
gdb 14749	10.63344	0.57227	0.55298	4.3653	77.63	-0.2464	0.0237	0.2701	1975.5751	0.176548	-345.193122	-345.183305	-345.18236	-345.228722	33.67	
C	 0.0022276484	 1.572045152	 0.0181932714	-0.380807
C	-0.0010690522	 0.0411647582	 0.006031288	-0.164291
C	-1.4136419935	-0.5525352453	 0.0077445566	-0.182453
C	-1.4201840836	-2.0798726099	 0.0044528503	-0.122952
N	-2.7863885835	-2.5980069871	-0.0335704686	-0.299537
C	-2.8345259626	-4.0532656354	 0.0125709857	-0.259498
C	-4.2175264653	-4.538599124	 0.0236964579	 0.255629
N	-5.3063525545	-4.922371681	 0.0564994107	-0.298204
H	 1.0221976385	 1.9682558965	 0.0152380791	 0.114375
H	-0.515212911	 1.9756423983	-0.8589605634	 0.117831
H	-0.5041275309	 1.9618223641	 0.9081601986	 0.115628
H	 0.5416010358	-0.3196529382	-0.8775905035	 0.098765
H	 0.5531717219	-0.333842032	 0.8765038627	 0.097182
H	-1.9575774388	-0.1912124925	 0.8924659867	 0.092794
H	-1.9742901722	-0.1966187661	-0.8648355304	 0.112959
H	-0.8984002929	-2.4488481697	-0.8891221938	 0.10704
H	-0.8489498165	-2.457044251	 0.8747421654	 0.080849
H	-3.3191925084	-2.2195262717	 0.7436653525	 0.229239
H	-2.337350702	-4.4511986817	-0.8812699961	 0.156086
H	-2.3123048566	-4.4980329534	 0.8807084103	 0.129363
53.0613	81.1375	82.8012	136.5056	149.8185	187.2324	249.4024	284.5943	365.6346	394.4744	460.0539	576.512	743.553	777.0073	812.5578	903.9914	939.4887	950.2342	999.1861	1030.8738	1058.9182	1071.9813	1145.1761	1148.3654	1180.8204	1234.5742	1271.811	1295.068	1321.2257	1327.5822	1356.8236	1390.8225	1414.8872	1425.7961	1486.8103	1490.1499	1495.3363	1496.694	1500.8515	1509.8033	1523.4735	2368.3709	2916.3004	2928.9138	3005.6666	3016.2398	3028.59	3031.9902	3041.5945	3044.8196	3069.0875	3098.8321	3104.9689	3515.3445
CCCCNCC#N	CCCCNCC#N	
InChI=1S/C6H12N2/c1-2-3-5-8-6-4-7/h8H,2-3,5-6H2,1H3	InChI=1S/C6H12N2/c1-2-3-5-8-6-4-7/h8H,2-3,5-6H2,1H3
