16
gdb 19045	4.38416	2.0412	1.78548	1.6578	68.94	-0.222	0.0068	0.2288	784.6309	0.13124	-346.562267	-346.555964	-346.55502	-346.59239	25.486	
C	 0.0655419865	 1.4677291024	 0.0382325724	-0.499767
C	-0.0801318614	-0.0189232371	-0.0196528706	 0.356116
C	-0.1558137388	-0.8030956043	-1.1099954434	-0.206277
C	-0.031872637	-2.2325766872	-0.6681684714	 0.044061
O	 1.3793097023	-2.3803711557	-0.1763586921	-0.297159
C	 0.9151490965	-2.1314298503	 1.1255917072	 0.102023
C	-0.526896121	-2.2673909501	 0.8096450311	-0.156394
C	-0.0519753902	-0.8843493774	 1.1908456531	-0.195499
H	 1.0332181847	 1.7503402332	 0.4713246065	 0.134385
H	-0.0031337427	 1.9151489879	-0.9566667303	 0.12627
H	-0.7062422244	 1.9214464387	 0.672401163	 0.124621
H	-0.0884499485	-0.4773304077	-2.1401371077	 0.095006
H	-0.2741210772	-3.0357798206	-1.3613866612	 0.081773
H	 1.5448074195	-2.4224040915	 1.9577008982	 0.109927
H	-1.3462529495	-2.8223851876	 1.2482105182	 0.098155
H	-0.2583352488	-0.4959751127	 2.181834847	 0.082759
161.1471	184.4766	303.9702	416.4434	473.8573	588.7361	641.3233	698.0553	722.7986	773.7358	790.5385	815.0212	839.7136	877.1368	942.9983	952.9486	966.3933	1023.1162	1038.4669	1048.8805	1067.8582	1077.1326	1111.9302	1178.2146	1212.9971	1226.3429	1272.3418	1307.0925	1351.7267	1380.7886	1412.5082	1478.6181	1487.2246	1667.5595	3020.2219	3067.3412	3114.3722	3137.3701	3179.7876	3184.0991	3199.6677	3212.8384
CC1=CC2OC3C2C13	CC1=C[C@H]2O[C@@H]3[C@H]2[C@H]13	
InChI=1S/C7H8O/c1-3-2-4-6-5(3)7(6)8-4/h2,4-7H,1H3	InChI=1S/C7H8O/c1-3-2-4-6-5(3)7(6)8-4/h2,4-7H,1H3/t4-,5+,6-,7+/m1/s1
