16
gdb 11493	6.36661	1.03598	0.94021	3.5951	68.88	-0.2387	-0.0689	0.1699	1205.8496	0.129942	-379.912923	-379.90471	-379.903766	-379.946211	29.313	
N	-0.177003869	 1.213426585	-0.6148002947	-0.503381
C	-0.1001046111	 0.050057122	-0.0926026123	 0.27933
N	-1.194668347	-0.6685615144	 0.3173860046	-0.328562
C	-2.4985090422	-0.0778538411	 0.3509440393	 0.072018
C	-3.3551213099	-0.1448584051	-0.8848960444	-0.237221
C	-3.6841620525	-1.0004897855	 0.3146735094	-0.301665
C	 1.21215668	-0.6801937105	 0.099830452	 0.107151
O	 2.2714655185	-0.2069898283	-0.215391044	-0.234796
H	 0.7685002031	 1.507705974	-0.8689765786	 0.234359
H	-1.0230878181	-1.4263286341	 0.9609897621	 0.243021
H	-2.5716313961	 0.8306127659	 0.9447435364	 0.108145
H	-3.984057867	 0.7089129883	-1.1071245374	 0.123547
H	-2.9292892547	-0.6369500929	-1.7507082337	 0.124309
H	-3.4878698366	-2.0648616953	 0.2379322197	 0.114094
H	-4.5444034254	-0.7452423754	 0.9225734348	 0.121695
H	 1.1437253479	-1.6954146527	 0.5545280769	 0.077957
65.7262	81.3585	139.9885	177.4779	284.3816	360.6675	379.312	409.9054	486.4918	583.1967	740.1072	766.4296	829.6304	848.8601	879.5322	916.6981	992.0959	1012.8504	1026.7986	1060.3641	1080.6521	1121.062	1143.4444	1193.1371	1205.0025	1258.1691	1322.8902	1399.4634	1429.2404	1461.6851	1499.8175	1535.4538	1700.8271	1834.2731	2866.6474	3126.9217	3136.2005	3150.6724	3220.0197	3242.1978	3461.7726	3606.6207
N=C(NC1CC1)C=O	N=C(NC1CC1)C=O	
InChI=1S/C5H8N2O/c6-5(3-8)7-4-1-2-4/h3-4H,1-2H2,(H2,6,7)	InChI=1S/C5H8N2O/c6-5(3-8)7-4-1-2-4/h3-4H,1-2H2,(H2,6,7)
