20
gdb 99624	2.30453	1.1271	0.8326	3.6355	79.71	-0.2769	0.0282	0.305	1411.3729	0.169896	-403.148676	-403.138687	-403.137743	-403.184119	36.03	
C	-0.7636501072	 1.1400817075	 0.2884592375	-0.413384
C	-0.1339743761	-0.2322910041	 0.1826970871	-0.009646
C	 1.2358355438	-0.4163761653	-0.4213536917	-0.301945
C	 1.0227388785	-0.6922415191	 1.0472720058	 0.000788
C	 1.6437094329	 0.1963104318	 2.115051618	-0.189916
C	 0.88654607	 0.1028469647	 3.46471459	-0.067408
O	 1.4372721616	 0.9326738793	 4.4597604173	-0.417325
C	 3.0514683795	-0.1562685125	 2.3410298403	 0.266705
N	 4.146367963	-0.4455530344	 2.5754205994	-0.329415
H	-0.0231641645	 1.9238842437	 0.4739526759	 0.121155
H	-1.2733185948	 1.3966544747	-0.6463074927	 0.126162
H	-1.5072032398	 1.1837168832	 1.0919589197	 0.123534
H	-0.8496403706	-1.0188223491	-0.0428342273	 0.093464
H	 1.4205770197	-1.2547166424	-1.0832027129	 0.12109
H	 1.7870700312	 0.4823960348	-0.6817461145	 0.118773
H	 1.0050837908	-1.7406039452	 1.3331635285	 0.099969
H	 1.6241230557	 1.2451899177	 1.8000934548	 0.129086
H	-0.1392513565	 0.4451600814	 3.3036359788	 0.125574
H	 0.8444081449	-0.9509943808	 3.7790525824	 0.104226
H	 2.3197646979	 0.6053319441	 4.6695029135	 0.298511
52.1785	95.6044	115.0355	155.6686	187.9646	200.0449	262.3261	331.6577	372.221	385.3436	414.4205	500.2921	537.206	598.2682	773.3696	820.4046	849.2608	880.384	911.0251	973.3542	1015.0341	1051.3309	1070.7652	1075.4787	1089.629	1111.6432	1151.2036	1165.1184	1197.8734	1202.473	1247.8107	1259.2024	1328.8819	1389.3218	1391.7834	1415.6515	1419.5724	1430.1232	1491.4605	1494.382	1502.4773	1507.4433	2348.778	2993.7368	3031.3154	3061.6284	3091.6929	3098.4051	3102.051	3130.1404	3135.2904	3145.6816	3216.1833	3796.0558
CC1CC1C(CO)C#N	C[C@H]1C[C@H]1[C@@H](CO)C#N	
InChI=1S/C7H11NO/c1-5-2-7(5)6(3-8)4-9/h5-7,9H,2,4H2,1H3	InChI=1S/C7H11NO/c1-5-2-7(5)6(3-8)4-9/h5-7,9H,2,4H2,1H3/t5-,6+,7+/m0/s1
