18
gdb 38153	3.02401	1.80182	1.3126	2.1277	75.48	-0.239	-0.0015	0.2375	967.558	0.151134	-401.929876	-401.923095	-401.92215	-401.960947	27.581	
C	 0.0134907179	 1.566613917	-0.0891609527	-0.088288
O	 1.3279383031	 1.8455964784	-0.5587870957	-0.258368
C	 2.2459644478	 0.9576911289	 0.0821575761	-0.158192
C	 1.3977818186	-0.2059694619	 0.5694625968	 0.317475
N	 1.9067476445	-1.5418059909	 0.8095398849	-0.396515
C	 1.2907838672	-0.7948565337	 1.9398110448	-0.122472
C	-0.1696334275	-0.9875383865	 2.1838036927	-0.086204
C	-0.8989240236	-0.5604988001	 1.1439788005	-0.118903
C	-0.0302031676	 0.0319121894	 0.0627468486	-0.126256
H	-0.1747996528	 2.0482578618	 0.8837351108	 0.091504
H	-0.6915647997	 1.9663058492	-0.822038203	 0.109906
H	 2.993213564	 0.6440204959	-0.6537041578	 0.117996
H	 2.7642629193	 1.4653067014	 0.9083531045	 0.099667
H	 1.2608515177	-2.2485460102	 0.4595785983	 0.226823
H	 1.9728707437	-0.5673043755	 2.7528495972	 0.096872
H	-0.5635183001	-1.4299258631	 3.0918410176	 0.103849
H	-1.9750252999	-0.6569635007	 1.0508800344	 0.102651
H	-0.2105482427	-0.4215753792	-0.9199424179	 0.088456
120.9811	202.5328	277.301	363.1636	380.7121	494.6487	576.838	594.1994	670.1392	753.5757	776.5858	783.678	841.6676	907.3251	938.1218	951.4545	960.9578	1001.4185	1028.4235	1059.7241	1069.1991	1078.3913	1094.2756	1111.0704	1133.721	1162.1116	1204.5447	1238.8555	1262.6427	1280.0509	1292.824	1307.6194	1344.0714	1372.0335	1392.0596	1435.5533	1510.2462	1521.6483	1644.5788	2977.3189	2999.0905	3034.0355	3071.5468	3098.6335	3162.1852	3184.6639	3209.0364	3464.8581
C1OCC23NC2C=CC13	C1OC[C@@]23N[C@@H]2C=C[C@@H]13	
InChI=1S/C7H9NO/c1-2-6-7(8-6)4-9-3-5(1)7/h1-2,5-6,8H,3-4H2	InChI=1S/C7H9NO/c1-2-6-7(8-6)4-9-3-5(1)7/h1-2,5-6,8H,3-4H2/t5-,6+,7-/m0/s1
