21
gdb 91146	2.86474	1.33127	1.17397	2.0819	83.65	-0.2321	0.0179	0.25	1174.5669	0.183078	-387.099363	-387.090856	-387.089912	-387.132404	33.074	
C	 0.4719710674	 1.4942500357	-0.2529474041	-0.402684
C	 0.0848371535	 0.0645179102	 0.0746320018	 0.156022
O	 0.5929887262	-0.8815160513	-0.9002305288	-0.318057
C	 1.3039913819	-1.6258919681	 0.1277948786	 0.098086
C	 2.7899336293	-1.415946432	 0.1296127589	-0.190395
C	 3.1845467492	-0.5771215221	 1.0931851427	 0.330241
C	 4.5827980302	-0.1333187864	 1.3879530999	-0.487951
C	 2.0161840082	-0.0824279718	 1.9293138017	-0.32607
C	 0.7794997195	-0.6915249085	 1.2454053391	-0.110536
H	 1.5575310464	 1.6112251026	-0.3105837418	 0.12281
H	 0.0523928077	 1.7715539116	-1.2251965659	 0.125552
H	 0.0771509647	 2.1889791545	 0.4968308898	 0.110328
H	-1.0100227235	-0.0132330299	 0.1305155393	 0.070486
H	 0.9979127208	-2.6786204224	 0.1188461121	 0.070905
H	 3.450829409	-1.8916198715	-0.5872299606	 0.089303
H	 5.3060533432	-0.5881200701	 0.706224317	 0.126119
H	 4.6745196822	 0.9573670169	 1.3063007337	 0.127671
H	 4.8704386568	-0.3910792409	 2.41533406	 0.126024
H	 2.1098826688	-0.419927584	 2.9704275876	 0.10315
H	 1.9877269409	 1.0140967312	 1.9739540087	 0.105179
H	 0.0732992376	-1.1256903738	 1.9531666803	 0.073818
73.7808	138.0056	186.9432	228.4083	266.6681	304.0667	376.1622	404.9781	477.9685	493.2511	599.6937	656.0572	774.0189	830.5905	854.7715	861.0002	882.7227	907.0034	957.1458	982.6458	987.4601	1006.3765	1042.4965	1056.1769	1092.1333	1113.3834	1134.8981	1170.5671	1196.1647	1237.3054	1263.2155	1288.6486	1313.1224	1331.2542	1333.765	1361.7931	1390.2409	1406.7375	1413.0947	1477.9926	1479.127	1485.1927	1487.0029	1500.6538	1710.0035	2996.5497	3011.6197	3018.3743	3033.0461	3034.4187	3039.0076	3063.1674	3103.4023	3105.5327	3114.0438	3119.4391	3188.6032
CC1OC2C=C(C)CC12	C[C@H]1O[C@H]2C=C(C)C[C@@H]12	
InChI=1S/C8H12O/c1-5-3-7-6(2)9-8(7)4-5/h4,6-8H,3H2,1-2H3	InChI=1S/C8H12O/c1-5-3-7-6(2)9-8(7)4-5/h4,6-8H,3H2,1-2H3/t6-,7+,8+/m1/s1
