24
gdb 14871	3.39676	1.20481	0.97921	0.1126	85.44	-0.2783	0.0848	0.3631	1319.2054	0.22345	-314.272822	-314.263299	-314.262354	-314.30694	35.568	
C	 0.0820557761	 1.7315504825	-0.1012956078	-0.382546
C	-0.3195724187	 0.2718208906	-0.3423051328	-0.197754
C	 0.7121991707	-0.4916217495	-1.1649264135	 0.051882
C	 2.1075990304	-0.7945016053	-0.5491053856	-0.224469
C	 2.083433347	-2.1743625488	-1.2578789291	-0.225747
C	 0.5433719001	-2.0234940779	-1.4533504895	 0.000077
C	-0.2975278194	-2.8140698666	-0.4478391668	-0.173181
C	-0.3357508407	-4.3143137646	-0.7581404569	-0.385843
H	 1.0386349483	 1.7965119308	 0.4285357989	 0.117665
H	 0.1924106168	 2.272926276	-1.047691347	 0.111784
H	-0.6665734921	 2.2583679429	 0.4987115182	 0.108899
H	-0.4676373314	-0.226843601	 0.6237032842	 0.092439
H	-1.2911025706	 0.2412375042	-0.8539314593	 0.091237
H	 0.8505964095	 0.0271893068	-2.1222579022	 0.062919
H	 2.9294564825	-0.1157307781	-0.7900545913	 0.091385
H	 2.0543482809	-0.8927220115	 0.5403544471	 0.095163
H	 2.625064595	-2.1592319746	-2.2076934799	 0.095875
H	 2.4278478931	-3.0380949796	-0.6819194673	 0.091226
H	 0.1827388059	-2.2516713187	-2.4630173957	 0.055459
H	 0.0922075799	-2.6630473634	 0.5675258978	 0.091682
H	-1.3225017627	-2.4221803492	-0.4407964571	 0.093711
H	-0.7748597143	-4.5002834292	-1.744786922	 0.112442
H	 0.6692482607	-4.7496227789	-0.7584019683	 0.116721
H	-0.932525407	-4.8588776969	-0.0195965141	 0.108977
91.8067	113.5579	129.7009	142.9288	215.6572	219.6442	255.9117	305.4378	371.6807	415.2917	503.3116	672.5576	746.5393	772.1353	795.8377	820.8237	892.8918	933.3345	941.445	947.2389	971.1622	998.1195	1014.5845	1047.2549	1063.106	1116.6164	1140.9871	1162.7808	1194.4842	1219.8492	1248.9761	1263.1404	1271.2687	1278.143	1296.8535	1311.823	1342.792	1347.1763	1392.7449	1396.4747	1410.6419	1412.0929	1479.7604	1485.6092	1487.7533	1498.5023	1499.1463	1501.7254	1507.3792	1509.6357	3009.7073	3013.3062	3017.7541	3028.0895	3029.0819	3031.0686	3044.7029	3049.1756	3053.5404	3054.9334	3090.6622	3095.9079	3096.9112	3100.512	3101.2272	3108.3587
CCC1CCC1CC	CC[C@H]1CC[C@H]1CC	
InChI=1S/C8H16/c1-3-7-5-6-8(7)4-2/h7-8H,3-6H2,1-2H3	InChI=1S/C8H16/c1-3-7-5-6-8(7)4-2/h7-8H,3-6H2,1-2H3/t7-,8+
