18
gdb 105848	2.06554	1.63965	1.19101	2.4601	73.76	-0.2215	-0.0048	0.2167	1111.8079	0.146433	-439.057863	-439.048752	-439.047808	-439.091919	33.506	
C	-0.4041331136	 1.3911228229	-0.1813928953	-0.334085
N	 0.2159596689	 0.0832017709	 0.0473908109	-0.371481
C	 0.8540785417	-0.487778073	-1.0729573393	 0.167463
C	 0.0407182833	-1.0182252666	-2.2425365436	 0.078603
O	 0.2729306366	-0.6621656128	-3.572585733	-0.415972
C	 0.9205535764	-2.0078581121	-1.5980646985	-0.16299
C	 2.3665488664	-1.8114439573	-2.0677730024	-0.353038
C	 2.3120463751	-0.4081649309	-1.4159588436	 0.352449
O	 3.1692303235	 0.3422309765	-1.0310217369	-0.335288
H	 0.2967463233	 2.1601464055	-0.5390319019	 0.121398
H	-1.2080400329	 1.2895563034	-0.9177850291	 0.119514
H	-0.8544755064	 1.7404644722	 0.7518384683	 0.125091
H	 0.8689898806	 0.1415225748	 0.8217199849	 0.233466
H	-1.0123352527	-1.1064870497	-1.9699112579	 0.10614
H	 0.023009905	 0.2603517618	-3.6891899786	 0.291042
H	 0.5450528384	-2.8751081562	-1.0718257161	 0.116106
H	 3.0978482678	-2.4470070918	-1.5623304461	 0.12481
H	 2.5226539686	-1.8425894377	-3.1466041318	 0.136773
65.2139	100.2151	150.9427	178.8301	256.0137	261.2676	290.0556	336.9253	416.7583	481.0735	553.2381	609.1227	683.8166	699.0525	762.0706	778.4521	865.5237	895.8029	966.7323	998.3648	1013.4243	1049.2767	1073.1069	1116.4491	1141.5461	1153.5599	1198.2221	1213.3825	1247.1644	1263.8478	1321.1791	1355.5247	1443.9023	1457.6883	1482.659	1488.4303	1494.267	1523.7556	1852.2001	2991.3789	3071.4243	3077.9366	3096.0129	3110.4558	3138.1085	3213.1784	3525.522	3813.5503
CNC12C(O)C1CC2=O	CN[C@]12[C@@H](O)[C@H]1CC2=O	
InChI=1S/C6H9NO2/c1-7-6-3(5(6)9)2-4(6)8/h3,5,7,9H,2H2,1H3	InChI=1S/C6H9NO2/c1-7-6-3(5(6)9)2-4(6)8/h3,5,7,9H,2H2,1H3/t3-,5+,6-/m1/s1
