20
gdb 102387	1.69333	1.57449	1.09476	2.523	75.22	-0.2809	0.0112	0.2921	1231.1456	0.168022	-440.284171	-440.273353	-440.272409	-440.319937	38.231	
C	 0.1683837527	 1.5537311863	-0.1454439829	-0.408753
C	 0.0551035898	 0.0469173781	 0.1023843126	-0.207141
C	-1.3956109345	-0.4858159276	 0.0418932633	 0.19373
C	-2.2691549357	 0.0596357988	 1.2039210762	-0.107381
O	-1.7358935918	-0.2416092193	 2.4720333602	-0.413476
O	-2.0979393193	-0.116448218	-1.128861186	-0.270183
C	-1.5998448643	-0.6188322209	-2.3592727421	-0.261345
C	-1.3615221146	-1.9662815082	 0.1882814364	 0.24827
N	-1.3502241427	-3.11262583	 0.3396468876	-0.347489
H	 1.2216521	 1.8451991793	-0.1852575565	 0.121789
H	-0.3008062415	 1.843168809	-1.0895949184	 0.131048
H	-0.3002869876	 2.1340913389	 0.6540212262	 0.132504
H	 0.6647241505	-0.5006038097	-0.6236552099	 0.112105
H	 0.4449076659	-0.2069930814	 1.0924281128	 0.133153
H	-2.3047940619	 1.1476353432	 1.1181841326	 0.130643
H	-3.2881529723	-0.3236606602	 1.0676514919	 0.117608
H	-1.8423156085	-1.1869459311	 2.6280056569	 0.300705
H	-0.6147571731	-0.2043775003	-2.6081694411	 0.118879
H	-1.5350965506	-1.714582596	-2.3507328598	 0.135966
H	-2.3150876307	-0.3106257909	-3.1242493299	 0.139368
79.6884	106.4721	115.8004	137.7363	161.4198	189.0935	223.2199	247.5997	286.9203	312.7677	385.1155	420.2159	435.9603	462.0562	571.2072	641.2854	699.6416	782.1683	886.1303	951.9902	995.1804	1035.7971	1075.8431	1107.7953	1121.1684	1158.2369	1182.0799	1188.0259	1239.4619	1243.4492	1319.0152	1366.0748	1388.5281	1408.2255	1414.7388	1471.9537	1483.2512	1492.5278	1495.9031	1501.4744	1510.5951	1515.8612	2341.488	3007.0756	3032.1829	3049.6532	3054.3052	3068.0769	3095.7162	3114.5479	3120.1064	3126.2288	3130.1354	3802.0871
CCC(CO)(OC)C#N	CC[C@@](CO)(OC)C#N	
InChI=1S/C6H11NO2/c1-3-6(4-7,5-8)9-2/h8H,3,5H2,1-2H3	InChI=1S/C6H11NO2/c1-3-6(4-7,5-8)9-2/h8H,3,5H2,1-2H3/t6-/m1/s1
