12
gdb 124387	5.11288	1.03235	0.97619	3.7587	57.05	-0.31	-0.0799	0.2301	1167.891	0.07493	-505.908033	-505.900131	-505.899187	-505.942169	26.524	
C	-0.1964219106	 1.4583517991	-0.1138676235	-0.487435
C	 0.2059524489	 0.0226620191	 0.0386571558	 0.426454
O	 1.0373573567	-0.4481711618	 0.7484509723	-0.289752
O	-0.5797367505	-0.7690292026	-0.8152904848	-0.269165
C	-0.2850651108	-2.0761265298	-0.8709330422	 0.536863
N	-1.0748036945	-3.0154591137	-0.4426250479	-0.149422
O	-0.4324553745	-4.1534019422	-0.7821472496	-0.136326
N	 0.7689912451	-3.8275470469	-1.4221546367	 0.059632
N	 0.8488666146	-2.5760064263	-1.4742518677	-0.195714
H	 0.3736313277	 2.0682072923	 0.5850343363	 0.165274
H	-0.0072287203	 1.7858319415	-1.1402135969	 0.170165
H	-1.2683179617	 1.5667567813	 0.071827645	 0.169426
44.5482	73.711	103.6451	122.428	337.3314	354.0388	451.0243	587.7942	600.2786	663.274	691.7454	712.8794	816.8615	892.5887	961.5639	1014.2354	1062.8743	1065.0338	1122.5259	1188.0865	1314.3551	1398.2888	1465.8093	1471.5617	1504.7937	1609.4128	1891.4149	3061.7623	3128.2756	3178.5181
CC(=O)OC1=NON=N1	CC(=O)Oc1nonn1	
InChI=1S/C3H3N3O3/c1-2(7)8-3-4-6-9-5-3/h1H3	InChI=1S/C3H3N3O3/c1-2(7)8-3-4-6-9-5-3/h1H3
