16
gdb 18386	3.48314	2.27474	1.53179	2.3932	64.27	-0.2409	0.0212	0.2621	811.7019	0.133945	-379.891637	-379.88517	-379.884225	-379.922143	25.17	
C	 0.0344918827	 1.5150907534	-0.0344869615	-0.087591
O	 1.4018555185	 1.9049502974	-0.2490603537	-0.229837
C	 2.3433253149	 1.6178023784	 0.6926473959	 0.142762
N	 2.3465019194	 0.9340441978	 1.7530112895	-0.267659
C	 1.205911497	 0.1746682252	 2.2636419531	-0.179151
C	 0.4831815318	-0.6630509859	 1.2192660531	-0.026231
N	-0.9796640657	-0.4946587379	 1.1202955606	-0.338495
C	-0.1105541844	 0.0166570229	 0.0432130708	-0.038495
H	-0.35129079	 1.9781361343	 0.8777763116	 0.128137
H	-0.5086736308	 1.9356327697	-0.8843317064	 0.117543
H	 3.2630461784	 2.1209933523	 0.3914566998	 0.120052
H	 1.5864687985	-0.4815818369	 3.0534693554	 0.108116
H	 0.4855015422	 0.842053523	 2.7489596308	 0.125677
H	 0.8861959517	-1.65932469	 1.0535277728	 0.094926
H	-1.4154728447	-1.3654049102	 0.8275495151	 0.236304
H	-0.0988106496	-0.5121847533	-0.9066169869	 0.093943
137.2006	215.3852	282.124	369.6473	379.8785	460.2301	527.6848	627.3245	756.2416	822.7433	846.7467	908.2008	930.9513	945.0083	971.8128	990.987	1003.6097	1029.5075	1044.317	1134.8593	1151.0902	1191.1492	1235.4935	1253.346	1263.7785	1286.3048	1355.9245	1387.5647	1415.5151	1435.5451	1472.8012	1493.5195	1519.8875	1748.4083	3038.6088	3062.2799	3072.2091	3111.7047	3132.1883	3133.1199	3144.8428	3505.115
C1OC=NCC2NC12	C1OC=NC[C@H]2N[C@@H]12	
InChI=1S/C5H8N2O/c1-4-5(7-4)2-8-3-6-1/h3-5,7H,1-2H2	InChI=1S/C5H8N2O/c1-4-5(7-4)2-8-3-6-1/h3-5,7H,1-2H2/t4-,5+/m1/s1
