16
gdb 64619	2.94136	1.46681	1.38189	4.8354	72.75	-0.2684	-0.027	0.2414	994.5398	0.12517	-396.920433	-396.912706	-396.911762	-396.952466	29.381	
C	-0.0943771698	 1.5938101436	-0.0174884467	-0.415086
C	 0.0402001923	 0.0624428526	 0.0211776586	 0.094222
N	 0.8458999803	-0.4197922863	-1.1353781856	-0.215465
C	 1.7642100441	-1.165748167	-0.6665772873	 0.035544
N	 1.8254352334	-1.4158525617	 0.7352219191	-0.114275
C	 2.1996140144	-0.1646380214	 1.4566340895	-0.261722
C	 0.7745066388	-0.5126027439	 1.2530878251	-0.05374
C	-1.3037324046	-0.5420392509	-0.0618505809	 0.293573
N	-2.3611459265	-1.0057600508	-0.0972793193	-0.334655
H	 0.8945166061	 2.0536141584	 0.0372280785	 0.12728
H	-0.5707857397	 1.9010850371	-0.9504543561	 0.154909
H	-0.6986572539	 1.9471581758	 0.8218795547	 0.138698
H	 2.5092469349	-1.6414542341	-1.297485395	 0.142832
H	 2.6522053748	-0.3245331855	 2.4297107444	 0.139925
H	 2.6383824747	 0.6324965626	 0.8640516373	 0.137385
H	 0.1838219108	-0.8861160786	 2.0813570937	 0.130577
125.1646	155.2992	207.0219	225.9392	269.4518	387.7034	419.2254	500.4422	530.5914	588.5612	647.5016	720.0695	801.8888	839.121	863.2567	904.3961	945.8316	970.0323	1024.3628	1046.7162	1079.1821	1113.0949	1136.4608	1160.9523	1182.6488	1195.2533	1257.4732	1316.8704	1364.4067	1409.3358	1482.3715	1488.3175	1500.3823	1667.3328	2360.0671	3056.6669	3122.3743	3136.6488	3144.7966	3184.7139	3194.4592	3216.8973
CC1(N=CN2CC12)C#N	C[C@]1(N=CN2C[C@@H]12)C#N	
InChI=1S/C6H7N3/c1-6(3-7)5-2-9(5)4-8-6/h4-5H,2H2,1H3	InChI=1S/C6H7N3/c1-6(3-7)5-2-9(5)4-8-6/h4-5H,2H2,1H3/t5-,6-,9?/m0/s1
