13
gdb 5488	3.60636	2.03876	1.30664	2.3354	62.45	-0.2207	-0.043	0.1777	856.1863	0.097646	-394.835329	-394.828505	-394.827561	-394.866331	25.111	
N	 0.0314940009	 1.3683115909	 0.1593109781	-0.592486
C	-0.033668133	-0.0142176567	 0.0630571083	 0.413925
N	-1.1127620999	-0.73690053	 0.1402490382	-0.325691
C	-0.6748720066	-2.0599778367	 0.0761569292	-0.089354
C	 0.6704987396	-2.1312569048	-0.0554981252	-0.113473
N	 1.1130498045	-0.7992413576	-0.0497447976	-0.092993
C	 2.4367029795	-0.3734223528	-0.0355379249	 0.170661
O	 3.3788336937	-1.114710792	-0.1338121271	-0.287105
H	 0.5189502581	 1.8226580005	-0.6033738515	 0.259389
H	-0.9045514083	 1.7444339786	 0.24856643	 0.269877
H	-1.3814556241	-2.8743325967	 0.1183831996	 0.122209
H	 1.3750232516	-2.9381248917	-0.1482066338	 0.157184
H	 2.519599184	 0.719504919	 0.0867446467	 0.107858
135.5909	194.4162	231.9234	279.4877	328.182	377.2659	565.7185	624.627	674.67	690.531	749.0931	790.2918	846.918	875.6823	931.2376	1035.6569	1083.4046	1088.0992	1187.5499	1197.8762	1303.1057	1385.0305	1437.2175	1463.3197	1569.6902	1602.6621	1661.7711	1821.5997	3002.0095	3257.3613	3309.7283	3533.5228	3626.5372
NC1=NC=CN1C=O	Nc1nccn1C=O	
InChI=1S/C4H5N3O/c5-4-6-1-2-7(4)3-8/h1-3H,(H2,5,6)	InChI=1S/C4H5N3O/c5-4-6-1-2-7(4)3-8/h1-3H,(H2,5,6)
