22
gdb 61562	2.80915	1.06062	0.88057	3.4344	83.61	-0.231	0.034	0.2649	1423.1275	0.193095	-404.367228	-404.35683	-404.355886	-404.40378	37.069	
C	-0.3399981138	 1.4529401955	 0.0090264484	-0.343404
N	-0.0187412786	 0.0394896904	 0.0313972758	-0.071342
C	 0.1268997713	-0.576105248	 1.3525121673	-0.196409
C	-1.18660543	-0.8813531526	 2.043046438	 0.013956
C	-1.9536919577	-2.1224628501	 1.6597837463	-0.254284
C	-1.2575874777	-2.049642108	 2.9954879698	-0.270081
C	 0.0487003961	-0.7691380121	-1.0755324485	 0.412101
C	-0.1136058486	-0.1149448049	-2.4422022762	-0.498276
O	 0.2447137482	-1.9723908151	-0.9841199496	-0.384929
H	-0.2782317498	 1.8546315172	-1.0005071055	 0.137835
H	-1.3511003247	 1.6494705519	 0.3910153717	 0.127255
H	 0.3677674285	 2.0088793464	 0.6364065301	 0.12677
H	 0.6879295697	-1.5007884261	 1.2078968412	 0.136644
H	 0.7312385202	 0.1001103434	 1.9714467196	 0.094889
H	-1.7780266628	-0.0110923729	 2.3163924222	 0.076079
H	-3.036950416	-2.0718120079	 1.6444739819	 0.104562
H	-1.5168765452	-2.7478552942	 0.8900036715	 0.146035
H	-0.3608683693	-2.6451587252	 3.1334097295	 0.114329
H	-1.8613179048	-1.9460466403	 3.8902907365	 0.108394
H	 0.6478601863	 0.6498940372	-2.6249366853	 0.136481
H	-0.0106645336	-0.9022888992	-3.1879109422	 0.147467
H	-1.0950378977	 0.3561682846	-2.5556276524	 0.135927
45.1138	67.5644	75.6904	102.4647	146.4044	205.9295	264.7854	308.734	323.6852	393.4523	432.0241	535.1074	590.4624	602.3187	748.1262	782.3822	810.7567	841.5112	902.5299	939.3393	987.4126	1008.4134	1030.5193	1049.1893	1062.3395	1086.0765	1125.6821	1141.9512	1153.1622	1199.6486	1201.255	1227.0043	1250.7478	1316.3369	1367.9357	1385.057	1424.5724	1437.4991	1460.991	1469.2349	1475.0435	1480.2576	1491.1833	1500.2863	1508.79	1530.4792	1745.2401	3006.9552	3019.4245	3044.0299	3052.6988	3107.1684	3116.1231	3131.2943	3136.8187	3141.4721	3159.7622	3164.6258	3211.5154	3232.3184
CN(CC1CC1)C(C)=O	CN(CC1CC1)C(=O)C	
InChI=1S/C7H13NO/c1-6(9)8(2)5-7-3-4-7/h7H,3-5H2,1-2H3	InChI=1S/C7H13NO/c1-6(9)8(2)5-7-3-4-7/h7H,3-5H2,1-2H3
