17
gdb 91256	4.01902	1.23264	1.00798	4.8523	77.9	-0.2204	-0.014	0.2064	1159.3482	0.137827	-418.011561	-418.003873	-418.002929	-418.043716	29.471	
C	 0.2128172671	 1.2504973153	-0.1992874584	-0.333363
N	 0.0270848468	 0.0984615481	 0.6591749119	-0.123
C	-1.1514243438	-0.8290680046	 0.5439414555	-0.215153
C	-0.1905056959	-1.9740022943	 1.0559869947	-0.047398
N	 0.1987538173	-3.1711507857	 0.3685507698	-0.359644
C	 1.5511832207	-3.0452990804	-0.0672815122	 0.414551
O	 2.2082579216	-3.967449101	-0.4897844811	-0.37326
C	 1.898491376	-1.5948992828	 0.0077569059	-0.403388
C	 0.8634364651	-1.0062341382	 0.6272785602	 0.334744
H	 1.1538578933	 1.7449918283	 0.0565497042	 0.142756
H	 0.2403035315	 0.9755279625	-1.2657807192	 0.119939
H	-0.6001924977	 1.9629419717	-0.0372042091	 0.135038
H	-2.0080184236	-0.5532702773	 1.1643119345	 0.115656
H	-1.4505292243	-0.9828338012	-0.4988750793	 0.123864
H	-0.2951065627	-2.1013563246	 2.1379816088	 0.111588
H	-0.0700811322	-4.0804086934	 0.715208787	 0.2421
H	 2.7285929408	-1.1713491925	-0.5349296533	 0.114971
117.83	165.438	187.7723	214.0151	286.3379	397.6251	470.6547	531.5426	570.1163	577.685	689.7789	726.7519	739.0719	808.5602	838.1705	881.9771	901.7768	968.4988	1034.0639	1055.1937	1113.759	1123.7477	1147.7425	1167.9966	1194.3483	1215.4525	1258.8241	1276.9027	1340.6742	1366.0466	1407.9349	1452.1173	1487.1559	1497.0866	1500.4506	1693.6155	1825.4014	2981.3907	3036.6193	3056.6315	3085.2966	3108.9649	3124.2337	3259.7905	3614.2333
CN1CC2NC(=O)C=C12	CN1C[C@H]2NC(=O)[CH][C]12	
InChI=1S/C6H8N2O/c1-8-3-4-5(8)2-6(9)7-4/h2,4H,3H2,1H3,(H,7,9)	InChI=1S/C6H8N2O/c1-8-3-4-5(8)2-6(9)7-4/h2,4H,3H2,1H3,(H,7,9)/t4-/m1/s1
