18
gdb 15989	3.73741	1.49123	1.2043	1.7318	68.11	-0.2518	0.0721	0.3239	1041.9654	0.152536	-384.899776	-384.89166	-384.890716	-384.932579	29.62	
C	 0.0980226757	 1.570136411	 0.0364988183	-0.382101
C	-0.2634971055	 0.1020516795	-0.2104585037	-0.195953
C	 0.6684621333	-0.5597057947	-1.2094484751	 0.072509
O	 2.0460228506	-0.6185490246	-0.741755438	-0.300401
C	 2.1400196013	-2.0417534469	-0.9684372123	-0.150188
C	 0.6651596835	-2.0830409331	-1.3474235461	 0.355685
C	-0.3760506521	-3.0788445113	-1.1082909774	-0.257035
O	 0.1219692037	-2.8020030973	-2.4295873119	-0.260659
H	 1.1262164971	 1.6530823808	 0.3992202232	 0.139607
H	 0.017553407	 2.1575668275	-0.8846596934	 0.116301
H	-0.565572889	 2.0199654393	 0.7806218781	 0.112532
H	-0.2263871178	-0.4589948711	 0.731052044	 0.097878
H	-1.2896904026	 0.0218970566	-0.5929996046	 0.100193
H	 0.6136609895	-0.0563647141	-2.1863569166	 0.085625
H	 2.8184199231	-2.2922042868	-1.7941603013	 0.114314
H	 2.4426822362	-2.5872833511	-0.0668431684	 0.109809
H	-0.1088819937	-4.0546992487	-0.7047056708	 0.120093
H	-1.4013481504	-2.762789745	-0.922185694	 0.121791
88.7359	100.4927	147.8838	219.1484	277.5136	293.9711	344.6033	466.636	492.0831	579.6467	762.7124	822.3795	865.4422	891.2345	922.6288	930.9207	979.3808	1017.2017	1040.5676	1095.0229	1108.9179	1125.2892	1149.1513	1157.0167	1172.4771	1193.5003	1265.662	1291.6664	1317.8138	1346.6798	1401.5331	1410.1029	1454.4986	1475.7542	1497.5485	1508.8917	1514.9973	1545.3045	2996.1211	3015.8249	3021.829	3038.3583	3062.0833	3063.3986	3084.2867	3105.7016	3121.6674	3171.4169
CCC1OCC11CO1	CC[C@H]1OC[C@]21CO2	
InChI=1S/C6H10O2/c1-2-5-6(3-7-5)4-8-6/h5H,2-4H2,1H3	InChI=1S/C6H10O2/c1-2-5-6(3-7-5)4-8-6/h5H,2-4H2,1H3/t5-,6-/m1/s1
