16
gdb 45633	3.89361	0.93986	0.81778	3.2632	77.5	-0.2155	-0.0051	0.2104	1363.79	0.123405	-400.762332	-400.753758	-400.752814	-400.796165	31.75	
O	-0.0741340432	 0.0001952635	-0.1270627384	-0.365602
C	-0.0442667157	 1.2049446291	-0.0448020466	 0.423588
C	-1.1951261883	 2.2145855132	-0.2022567814	-0.446579
C	-0.5385801028	 3.5555060772	 0.0205215104	 0.270486
C	-1.2507933307	 4.8776880126	-0.0216197408	-0.459375
C	-1.9058262019	 5.136963117	-1.3051531674	 0.310705
C	-2.4452001049	 5.3253485959	-2.3623508306	-0.45846
C	 0.7619451334	 3.3444430726	 0.2530103731	-0.114656
N	 1.0747041387	 1.9772663501	 0.2220591677	-0.32203
H	-1.6436045827	 2.1148393514	-1.1970647315	 0.157368
H	-1.9856861325	 1.9850932849	 0.5222895547	 0.143129
H	-2.010328038	 4.9248963583	 0.7732095562	 0.137298
H	-0.5373165003	 5.6824621141	 0.1955583757	 0.135009
H	-2.9199943299	 5.5018196303	-3.2955952347	 0.199583
H	 1.5429162175	 4.0667457653	 0.4466792203	 0.127955
H	 1.9859710513	 1.5782491945	 0.3725473833	 0.261581
58.9192	80.9618	132.7729	261.2848	279.392	340.7323	393.5765	454.8638	487.3972	495.708	580.7908	622.8955	633.0839	651.2443	756.0572	843.9405	861.5736	898.8772	929.6229	960.145	965.6158	1084.0114	1144.5573	1179.9105	1194.9405	1225.146	1298.4807	1328.4461	1369.4083	1401.2792	1433.7557	1458.1132	1711.1227	1841.7613	2238.3027	2992.7328	3044.876	3045.5402	3080.355	3232.5415	3505.9603	3667.8966
O=C1CC(CC#C)=CN1	O=C1CC(=CN1)CC#C	
InChI=1S/C7H7NO/c1-2-3-6-4-7(9)8-5-6/h1,5H,3-4H2,(H,8,9)	InChI=1S/C7H7NO/c1-2-3-6-4-7(9)8-5-6/h1,5H,3-4H2,(H,8,9)
