17
gdb 76745	2.12787	1.75957	1.17539	1.9667	64.26	-0.2379	0.0546	0.2925	1053.2912	0.133322	-496.048839	-496.039627	-496.038682	-496.082229	34.946	
O	 0.0145108786	 1.469101393	-0.0688332425	-0.446799
C	-0.008243184	 0.065109614	-0.0592114879	 0.029746
C	 0.2665799373	-0.5923165245	 1.3492807876	-0.027282
O	 0.4010000915	 0.3430816676	 2.411414103	-0.434871
C	-1.0822995571	-1.2851756803	 1.2754570186	 0.343084
O	-1.3087425615	-2.5795355781	 1.6964020348	-0.461584
C	-2.194027571	-0.273995324	 1.094062365	-0.430213
C	-1.3560885561	-0.6648259814	-0.0995350158	 0.322695
O	-1.8767039061	-1.2899577905	-1.2129218526	-0.460492
H	-0.0012017001	 1.7341200876	 0.8620804003	 0.282735
H	 0.6623358359	-0.3087862694	-0.8396845505	 0.086369
H	 1.0935917656	-1.3090701335	 1.336788577	 0.085452
H	 1.3359424296	 0.545225766	 2.5200950401	 0.294136
H	-1.6900730451	-2.5511219105	 2.5805002558	 0.291357
H	-3.1746499133	-0.7405465663	 1.0866233109	 0.118008
H	-2.1538867067	 0.719149722	 1.5307915123	 0.115944
H	-2.4354498477	-0.6597019716	-1.6809900559	 0.291716
84.3573	185.713	217.8861	238.8696	253.5385	267.4184	272.3666	281.7742	365.9755	414.0114	508.3603	516.4157	525.9531	653.8026	703.5314	732.374	783.9805	826.1818	863.8259	953.0475	999.7037	1047.8505	1081.081	1105.4148	1146.1968	1151.3434	1196.9425	1221.603	1253.7819	1290.714	1302.9705	1323.1604	1361.386	1406.2488	1422.4686	1441.304	1525.3731	3053.7133	3067.5314	3119.0709	3210.175	3726.1349	3796.8369	3800.6225	3820.3785
OC1C(O)C2(O)CC12O	O[C@H]1[C@@H](O)[C@@]2(O)C[C@@]12O	
InChI=1S/C5H8O4/c6-2-3(7)5(9)1-4(2,5)8/h2-3,6-9H,1H2	InChI=1S/C5H8O4/c6-2-3(7)5(9)1-4(2,5)8/h2-3,6-9H,1H2/t2-,3+,4+,5-
