18
gdb 80895	2.64479	1.77274	1.48208	2.367	70.43	-0.2243	0.0572	0.2816	945.8557	0.148622	-439.012431	-439.00497	-439.004026	-439.043678	30.898	
O	-0.1570295167	 1.4951732694	-0.0114669853	-0.461075
C	 0.0460244787	 0.092339499	-0.024095777	 0.048697
C	 0.1242733821	-0.5963779389	 1.3740467381	-0.055692
C	-1.3874464139	-0.264491929	 1.5203445474	-0.282304
C	-1.340183075	-0.6044183043	-0.0295409565	 0.406349
O	-2.3265066817	-0.2706499724	-0.939725299	-0.492705
C	-0.9982625905	-2.0920248301	 0.0726572768	-0.06851
C	 0.3790551614	-2.5748435294	-0.2024094119	-0.253773
N	 0.0376176474	-2.0789073172	 1.1480783605	-0.11564
H	 0.6913522782	 1.9244557074	 0.1329810563	 0.290144
H	 0.7778046365	-0.1657477084	-0.7930107491	 0.064949
H	 0.8693482275	-0.3206937138	 2.1191905	 0.072744
H	-1.9665111689	-0.9318558425	 2.1606567259	 0.103765
H	-1.5937834691	 0.7838942089	 1.7267600649	 0.110388
H	-2.3515835464	 0.692689665	-0.9857083725	 0.292079
H	-1.8263536811	-2.7895571894	 0.1690098553	 0.101213
H	 0.5366729187	-3.6501334898	-0.2132039251	 0.118977
H	 1.0550664627	-2.0349793545	-0.853657539	 0.120394
184.9031	235.3556	256.904	305.8405	365.3695	390.4551	425.3868	441.3132	550.7079	573.2141	617.7257	648.6885	768.4823	800.8202	864.3808	870.7148	925.9948	949.6074	960.2017	998.1041	1014.6853	1073.1004	1086.8985	1101.675	1110.1206	1132.2895	1152.756	1165.773	1196.7655	1227.2447	1237.3254	1251.8587	1272.6185	1309.2341	1358.961	1419.9235	1434.4465	1487.9788	1517.8455	3064.5084	3088.7912	3124.9589	3128.1377	3141.4948	3169.0375	3212.6445	3793.0476	3829.3687
OC1C2CC1(O)C1CN21	O[C@H]1[C@H]2C[C@]1(O)[C@H]1CN21	
InChI=1S/C6H9NO2/c8-5-3-1-6(5,9)4-2-7(3)4/h3-5,8-9H,1-2H2	InChI=1S/C6H9NO2/c8-5-3-1-6(5,9)4-2-7(3)4/h3-5,8-9H,1-2H2/t3-,4-,5+,6+,7?/m1/s1
