16
gdb 84321	2.53192	1.78588	1.33265	3.0522	70.82	-0.2478	-0.0512	0.1966	967.3919	0.125519	-437.883186	-437.875606	-437.874662	-437.915428	29.004	
O	 0.0140754182	 1.4364437347	 0.5396123676	-0.427325
C	 0.0165480798	 0.1270412671	-0.0328569036	 0.058826
C	 0.9796012273	-0.7577641444	 0.7329146171	-0.114751
C	 0.546894392	-1.4998100878	 1.7589584825	-0.13444
C	-0.889383153	-1.4629642503	 2.1632727597	 0.33361
O	-1.2487165308	-1.5683411959	 3.3160073415	-0.341734
N	-1.7672535017	-1.3033306056	 1.0901791172	-0.093679
C	-2.4935633655	-0.0786127725	 0.7932091721	-0.247487
C	-1.3608147693	-0.537088217	-0.0751630099	-0.043948
H	 0.2062447476	 1.3506325024	 1.4796724417	 0.289648
H	 0.3595866632	 0.2635488004	-1.0629300117	 0.098651
H	 2.0375868225	-0.6770585742	 0.4988899604	 0.118802
H	 1.2194512372	-2.0395975176	 2.4168575231	 0.127769
H	-3.5170161296	-0.2044241229	 0.4527949398	 0.132166
H	-2.3153730521	 0.7799865316	 1.4334592025	 0.137541
H	-1.6022029359	-1.016403078	-1.02214373	 0.106352
62.7795	182.8819	252.0244	254.7535	299.5176	382.2506	461.8242	504.7365	548.3203	611.9146	694.6176	718.1982	762.6328	842.4152	889.5876	939.4144	966.8424	995.1632	1003.6949	1010.0729	1082.1782	1104.1187	1122.291	1157.0289	1169.1339	1210.7397	1255.9431	1361.9234	1363.5133	1385.7053	1412.953	1422.0831	1509.6044	1667.6783	1786.6977	3062.7205	3120.0229	3124.7762	3167.8877	3200.9061	3213.8646	3811.182
OC1C=CC(=O)N2CC12	O[C@H]1C=CC(=O)N2C[C@@H]12	
InChI=1S/C6H7NO2/c8-5-1-2-6(9)7-3-4(5)7/h1-2,4-5,8H,3H2	InChI=1S/C6H7NO2/c8-5-1-2-6(9)7-3-4(5)7/h1-2,4-5,8H,3H2/t4-,5-,7?/m0/s1
