18
gdb 87097	2.90348	1.15129	0.97023	4.4637	79.29	-0.2859	-0.0813	0.2046	1260.7157	0.145191	-401.96894	-401.959231	-401.958287	-402.003813	34.806	
C	-0.1648686563	 1.5600459717	 0.2212508761	-0.422421
C	-0.052403976	 0.0562544368	 0.130760241	 0.000424
C	 1.1599886059	-0.6294182825	-0.3901457268	-0.305862
C	 0.8384752686	-0.7517461233	 1.1025586463	 0.178987
C	 1.7163071808	-0.0620576126	 2.1290259201	-0.491378
C	 0.2362207415	-2.0570153532	 1.4757623165	 0.258845
O	-0.42233418	-2.7573657979	 0.7384560956	-0.303936
C	 0.4637782355	-2.5082908573	 2.8686724422	 0.229866
N	 0.6312669486	-2.8748187078	 3.952605463	-0.321243
H	 0.8034420708	 2.0421428563	 0.3768641012	 0.123643
H	-0.5790979038	 1.9545363595	-0.7128062307	 0.13369
H	-0.8314334693	 1.864658885	 1.0344943052	 0.130697
H	-0.9848251562	-0.4567101867	-0.0876386842	 0.11893
H	 1.0291987028	-1.526068821	-0.9850077161	 0.142362
H	 2.0309158699	-0.0280925624	-0.6304378293	 0.122059
H	 2.1323563572	 0.8630493988	 1.7266450832	 0.123745
H	 1.1611356397	 0.1893776233	 3.0382097096	 0.14092
H	 2.5576524803	-0.6988780868	 2.420032437	 0.140671
40.034	138.0221	155.7656	168.6428	174.387	244.9687	280.3773	292.0915	344.9344	406.1685	434.3215	465.696	582.756	676.3899	710.6925	798.116	821.2038	899.3597	924.2684	968.4474	1027.0242	1046.0496	1088.0149	1104.9022	1132.7685	1147.1199	1201.5511	1289.6273	1317.3649	1399.2679	1418.8201	1428.8496	1472.3765	1485.8569	1490.088	1500.3585	1506.7822	1756.627	2336.0449	3038.1236	3045.317	3099.1394	3104.7307	3114.789	3131.8833	3135.7011	3156.5363	3229.3313
CC1CC1(C)C(=O)C#N	C[C@H]1C[C@]1(C)C(=O)C#N	
InChI=1S/C7H9NO/c1-5-3-7(5,2)6(9)4-8/h5H,3H2,1-2H3	InChI=1S/C7H9NO/c1-5-3-7(5,2)6(9)4-8/h5H,3H2,1-2H3/t5-,7-/m0/s1
