21
gdb 48205	1.94262	1.36857	0.87847	2.7862	83.19	-0.2381	-0.0152	0.2229	1366.0434	0.181016	-387.069953	-387.060361	-387.059417	-387.105882	34.76	
O	 0.0743347954	-0.0179981201	 0.2432685235	-0.257722
C	 0.0821730426	 1.1824601544	 0.1536948079	 0.176864
C	 1.3201590096	 2.0345593391	-0.0745572466	-0.112701
C	 1.1754166142	 2.7884276088	-1.3890490674	 0.014635
C	 2.388035234	 3.1146304511	-2.223565617	-0.270275
C	 1.4002101716	 2.0804004039	-2.7025376368	-0.275648
C	 1.5100741867	 2.9713894922	 1.1101445567	 0.014631
C	 2.083792054	 2.4542345533	 2.406476527	-0.275632
C	 2.8923889082	 3.3898717557	 1.5430034233	-0.270276
H	-0.8640678303	 1.7696651618	 0.2369930154	 0.065522
H	 2.1692451334	 1.3437702277	-0.1376571683	 0.083707
H	 0.3886461274	 3.5393751394	-1.3815963785	 0.084987
H	 2.419588927	 4.0731941006	-2.729523803	 0.115045
H	 3.3535159378	 2.7682161166	-1.8708739016	 0.114715
H	 1.6992362446	 1.0380429584	-2.6667184401	 0.123895
H	 0.7559522589	 2.3281790536	-3.5385988452	 0.114796
H	 0.734780887	 3.728753291	 1.2012522913	 0.084988
H	 1.6760568707	 2.8315396693	 3.3375267426	 0.114795
H	 2.3825311965	 1.4118279229	 2.4432610666	 0.123915
H	 3.738372057	 2.9778287732	 1.0034831106	 0.114714
H	 3.0371413338	 4.410142707	 1.8805365197	 0.115046
41.1899	60.5555	71.962	143.3578	175.5868	222.7974	337.8425	375.412	389.629	444.693	513.8579	770.413	778.7696	822.458	824.0194	832.5759	877.6939	913.0176	933.9591	951.9671	971.8795	1033.3258	1057.2358	1062.3335	1077.2022	1077.8752	1097.6568	1133.3791	1137.6424	1144.8232	1194.8208	1198.5366	1203.2869	1221.148	1229.8543	1263.4358	1282.3409	1401.409	1418.6432	1426.863	1469.6707	1471.3883	1501.7912	1507.8398	1832.6216	2840.5736	3044.5633	3127.8558	3131.8599	3132.7822	3132.9261	3136.8447	3138.6142	3210.1607	3211.1858	3224.9166	3225.8865
O=CC(C1CC1)C1CC1	O=CC(C1CC1)C1CC1	
InChI=1S/C8H12O/c9-5-8(6-1-2-6)7-3-4-7/h5-8H,1-4H2	InChI=1S/C8H12O/c9-5-8(6-1-2-6)7-3-4-7/h5-8H,1-4H2
