17
gdb 41032	3.30629	1.87397	1.54743	1.3192	73.	-0.216	0.0606	0.2766	885.1654	0.136178	-421.67145	-421.664945	-421.664001	-421.701962	27.177	
C	 0.0997841644	 1.5408895803	 0.230706099	-0.094934
O	 1.4660278371	 1.5538877597	-0.2712148437	-0.325403
C	 1.3789465742	 0.1850448901	-0.621676313	 0.456803
C	-0.0861491206	 0.0365147211	-0.0582619971	-0.166098
C	 0.4612080735	-0.8961975214	 1.1002665829	-0.354595
C	 1.7902380538	-0.943099121	 0.3254985059	 0.328124
C	 3.2831842013	-0.7255692578	-0.014987124	-0.322389
C	 2.422951536	-0.6793795395	-1.3500630848	-0.072947
O	 1.6677634704	-1.8408058098	-0.8589944706	-0.330998
H	 0.0499365535	 1.8389402246	 1.2836424816	 0.107202
H	-0.5329253278	 2.2039775909	-0.3696424368	 0.111383
H	-0.9743601314	-0.2771577421	-0.6017895908	 0.093264
H	 0.5071971908	-0.3898801142	 2.0676680705	 0.117083
H	-0.0207419171	-1.868484978	 1.2199393655	 0.125504
H	 3.7267370978	 0.2115799608	 0.3282771625	 0.12262
H	 3.9570347864	-1.5811282937	 0.0649768815	 0.111868
H	 2.7818504177	-0.7107822801	-2.3825386986	 0.093511
167.2775	244.2562	313.7529	382.5902	461.0764	482.6392	540.4028	631.1107	709.11	726.2323	770.7863	814.042	866.8117	908.0537	911.9546	946.0928	968.6025	987.1602	1004.9421	1019.3506	1064.6912	1082.8963	1105.4599	1129.9082	1154.7887	1163.6982	1181.4161	1188.3723	1222.0344	1228.2077	1262.5274	1291.7614	1309.2927	1346.2972	1458.5988	1474.1413	1518.4603	3027.8805	3064.4646	3067.6873	3078.3947	3080.043	3127.5496	3142.555	3147.6836
C1OC23C1CC21CC3O1	C1O[C@]23[C@H]1C[C@@]12C[C@H]3O1	
InChI=1S/C7H8O2/c1-4-3-8-7(4)5-2-6(1,7)9-5/h4-5H,1-3H2	InChI=1S/C7H8O2/c1-4-3-8-7(4)5-2-6(1,7)9-5/h4-5H,1-3H2/t4-,5+,6-,7-/m0/s1
