25
gdb 59333	2.94091	1.05071	0.9507	1.4297	89.	-0.2378	0.0778	0.3156	1430.1077	0.22642	-389.500094	-389.489376	-389.488431	-389.535407	40.664	
C	-0.211214917	 1.5145499021	-0.0550365656	-0.388005
C	-0.1195901324	-0.0185777832	 0.0042692456	 0.008565
C	-1.5180954544	-0.6470490354	-0.0346297279	-0.395901
C	 0.8051725445	-0.5150953149	-1.1087875127	 0.174129
C	 1.0098582188	-2.020666427	-1.3732732933	-0.375703
C	 0.6086932533	-1.6833318611	-2.8333258311	 0.450602
C	 1.7728627087	-1.6632658991	-3.8195883608	-0.423177
C	-0.601440067	-2.411643424	-3.3978053427	-0.436375
O	 0.2603230579	-0.3204627472	-2.4374688139	-0.345202
H	 0.7767740472	 1.9774519831	 0.0404395855	 0.107112
H	-0.6391233929	 1.8327078118	-1.011242003	 0.133681
H	-0.8450806016	 1.9040628838	 0.7477361208	 0.1065
H	 0.3664144189	-0.3002683209	 0.9505539358	 0.069863
H	-2.0096448732	-0.4261684094	-0.986527095	 0.131903
H	-1.4889579385	-1.7339373453	 0.0896200506	 0.107113
H	-2.140569516	-0.2438907864	 0.7703292215	 0.108051
H	 1.7647090451	 0.0170463913	-1.0165369737	 0.062241
H	 2.0219359581	-2.4025844582	-1.2268101758	 0.099849
H	 0.3017675883	-2.6746218148	-0.8611923272	 0.103581
H	 2.0970647099	-2.681472458	-4.0614819337	 0.111299
H	 1.4744170183	-1.1678593073	-4.7490487606	 0.121125
H	 2.6270700849	-1.1204853058	-3.4042903691	 0.115723
H	-1.4297720875	-2.4065058365	-2.6848316951	 0.119241
H	-0.9407963238	-1.9275046675	-4.3196624938	 0.121351
H	-0.3505167695	-3.45214166	-3.631759875	 0.112436
70.2003	72.7845	164.4387	196.6774	220.0191	236.4375	246.8117	263.9601	322.0931	335.5442	364.6562	397.0062	438.2053	460.0787	576.9683	639.5271	737.2038	858.36	873.8307	909.1144	920.0536	926.0265	954.0337	963.4353	970.6181	988.6447	1015.3655	1056.1237	1075.6849	1124.3609	1165.8229	1182.2301	1207.9244	1239.6618	1276.478	1289.8153	1299.056	1331.4673	1369.2026	1388.0882	1399.1535	1402.3662	1412.7442	1424.7276	1473.5889	1481.0693	1483.5439	1492.3642	1492.5845	1498.2238	1503.9279	1509.7175	1516.7763	2971.7849	2996.9556	3029.7796	3031.4283	3035.5398	3039.7269	3074.6293	3098.3546	3098.6148	3101.8809	3105.5304	3107.9859	3110.6531	3116.6085	3119.3283	3129.2127
CC(C)C1CC(C)(C)O1	CC(C)[C@H]1CC(C)(C)O1	
InChI=1S/C8H16O/c1-6(2)7-5-8(3,4)9-7/h6-7H,5H2,1-4H3	InChI=1S/C8H16O/c1-6(2)7-5-8(3,4)9-7/h6-7H,5H2,1-4H3/t7-/m1/s1
