19
gdb 73132	2.49575	1.80299	1.59773	3.0064	73.39	-0.2371	0.0728	0.31	955.9132	0.160102	-423.004659	-422.997186	-422.996242	-423.036162	30.042	
C	 0.3208676403	 1.5586540764	-0.0560087229	-0.473432
C	 0.0097369118	 0.0818988988	 0.0679157843	 0.430722
O	-1.3509313142	-0.1615363319	 0.5009220027	-0.323694
C	-0.9087955109	-1.0825718843	 1.5237262382	-0.080525
C	 0.5767321	-0.7535699195	 1.2564064484	-0.125449
C	 1.5304924982	-1.8287343383	 0.7021613347	-0.273175
C	 1.2846213097	-1.8306195627	-0.7971742616	 0.04524
O	-0.08299301	-2.0693723271	-1.1389173272	-0.247816
C	 0.390084488	-0.7201385498	-1.1745256954	-0.017417
H	 1.3679250009	 1.7150858149	-0.3389938449	 0.117514
H	-0.3122513913	 2.0179270176	-0.8228380039	 0.130795
H	 0.1344021173	 2.0710617087	 0.8913445708	 0.124586
H	-1.2928276149	-0.7981092771	 2.5103432785	 0.095059
H	-1.2005431861	-2.1132187412	 1.2967845548	 0.111025
H	 1.032898877	-0.1623680615	 2.0521019065	 0.080103
H	 2.5755485267	-1.5662347328	 0.9032429671	 0.104677
H	 1.3550940507	-2.8180305407	 1.1392190227	 0.115509
H	 2.01719295	-2.2545201915	-1.4809083246	 0.094578
H	 0.3983805667	-0.2541580182	-2.157742798	 0.091698
151.3433	210.9437	217.423	263.0898	323.9161	369.1147	392.8624	529.1048	582.3448	671.5483	706.169	789.6915	837.0066	862.7174	885.8624	892.2936	901.5381	953.5427	973.0155	1010.7715	1037.4081	1077.0794	1084.7811	1125.2224	1135.8383	1157.4069	1168.9899	1214.0166	1237.4803	1249.1456	1262.5326	1308.4165	1330.8463	1347.6632	1380.3896	1402.8267	1427.4025	1479.2731	1481.1053	1491.9746	1516.7614	3024.6334	3031.9214	3038.3644	3075.1061	3077.0373	3097.8958	3099.8068	3118.9257	3129.6594	3142.5482
CC12OCC1CC1OC21	C[C@]12OC[C@H]1C[C@H]1O[C@@H]21	
InChI=1S/C7H10O2/c1-7-4(3-8-7)2-5-6(7)9-5/h4-6H,2-3H2,1H3	InChI=1S/C7H10O2/c1-7-4(3-8-7)2-5-6(7)9-5/h4-6H,2-3H2,1H3/t4-,5-,6-,7+/m1/s1
