16
gdb 67014	2.21136	1.78673	1.65136	3.23	68.76	-0.2478	0.0013	0.2491	938.0194	0.123248	-437.85112	-437.843151	-437.842207	-437.883355	30.325	
C	-0.1583731142	 1.4790105785	 0.0396213326	-0.523984
C	 0.1393224199	 0.0220724932	 0.0284801395	 0.253256
C	 0.6479921805	-0.9875012643	-0.9027871267	-0.080264
C	 1.4614449808	-1.7284453587	 0.1627841086	-0.293218
C	 0.5113902949	-1.0691702208	 1.1820661694	 0.23673
O	 0.8758455545	-0.9048362906	 2.488115102	-0.463239
C	-0.8541868301	-1.5858306652	 0.7896815786	 0.356
O	-1.7783931816	-2.0097304516	 1.4194866233	-0.342147
N	-0.8245380468	-1.0342018866	-0.5506976812	-0.236926
H	 0.7333552451	 2.0513198451	 0.3145715098	 0.13987
H	-0.4947563935	 1.8080153393	-0.9474899822	 0.147866
H	-0.9466126271	 1.7106445212	 0.7633575419	 0.14243
H	 0.8514542237	-0.9027512223	-1.962184947	 0.117946
H	 1.4944312849	-2.8224495697	 0.1459632499	 0.116321
H	 2.4719960467	-1.318390748	 0.2319976837	 0.125846
H	 0.0789913023	-0.9885358896	 3.0292272278	 0.303512
116.3205	170.8736	179.1133	206.0121	274.7639	373.6602	419.7138	445.4979	520.2723	624.5588	629.0203	639.443	714.8244	759.0984	813.9154	851.3529	938.8222	957.5486	996.5652	1016.428	1055.7125	1095.8752	1114.9119	1132.3967	1169.1185	1242.6693	1262.4505	1360.9668	1402.2207	1406.9787	1456.7554	1480.9083	1486.4756	1500.6648	1891.7547	3037.5069	3052.263	3103.7113	3116.6055	3118.3519	3205.4275	3758.1996
CC12C3CC1(O)C(=O)N23	C[C@@]12[C@H]3C[C@]1(O)C(=O)N23	
InChI=1S/C6H7NO2/c1-5-3-2-6(5,9)4(8)7(3)5/h3,9H,2H2,1H3	InChI=1S/C6H7NO2/c1-5-3-2-6(5,9)4(8)7(3)5/h3,9H,2H2,1H3/t3-,5-,6+,7?/m1/s1
