20
gdb 104226	2.64265	1.30963	1.18429	3.5544	75.2	-0.2351	0.0545	0.2895	1148.1941	0.170354	-440.23997	-440.230839	-440.229895	-440.273559	35.093	
O	-0.1250810428	 1.4474429777	 0.0097522905	-0.436568
C	 0.011156755	 0.0284634576	 0.0775865265	-0.142041
C	-1.4000403589	-0.5411288272	-0.0027156432	 0.36453
O	-2.1902409365	 0.0135046958	 1.0224800348	-0.493635
C	-1.9935230242	-0.5521235065	-1.4494158086	-0.284985
C	-1.6739916745	-2.0758524553	-1.5499494929	-0.304372
C	-1.4501847146	-2.0766267894	-0.0355486152	 0.308891
C	-0.8352226447	-3.0340466612	 0.9089315591	-0.322646
N	-2.2976349826	-2.8369374488	 0.8743923053	-0.358004
H	 0.7145733012	 1.8509077598	 0.2463818956	 0.295563
H	 0.6314894235	-0.3564731768	-0.7442419833	 0.096172
H	 0.4706688957	-0.2754165851	 1.0291413327	 0.093392
H	-1.9250946461	 0.9400057784	 1.0944539349	 0.287299
H	-3.0673644996	-0.360104349	-1.4122706476	 0.114662
H	-1.5283761362	 0.1163688819	-2.1766884167	 0.101042
H	-2.4790693147	-2.7243368691	-1.8996544851	 0.115215
H	-0.7670960439	-2.2914371951	-2.1227364926	 0.099401
H	-0.496071088	-4.0053180261	 0.5575724094	 0.115178
H	-0.2746121315	-2.63805113	 1.7532915819	 0.106276
H	-2.5830512267	-2.2205571316	 1.6341517546	 0.24463
83.3216	117.8949	158.1988	239.0879	262.8052	275.8149	321.1835	355.5356	417.2327	446.8417	461.5883	538.3036	594.0458	727.4074	748.864	844.4896	887.4236	914.0209	918.1311	946.3224	959.0746	988.6511	1030.4847	1062.7407	1069.9912	1109.4341	1133.3712	1153.3339	1195.7098	1205.5547	1235.1482	1236.0567	1256.3368	1283.5215	1288.9131	1305.2547	1376.1658	1425.5816	1446.4267	1472.6418	1490.4913	1507.3002	1513.8253	2990.1764	3031.1242	3058.1318	3074.3134	3096.0328	3117.2101	3136.9611	3179.3857	3483.4539	3764.9678	3840.3937
OCC1(O)CCC11CN1	OC[C@@]1(O)CC[C@]21CN2	
InChI=1S/C6H11NO2/c8-4-6(9)2-1-5(6)3-7-5/h7-9H,1-4H2	InChI=1S/C6H11NO2/c8-4-6(9)2-1-5(6)3-7-5/h7-9H,1-4H2/t5-,6+/m1/s1
