21
gdb 116967	12.49116	0.39699	0.38936	0.9054	96.63	-0.2453	0.0446	0.2899	2787.2686	0.1794	-349.907009	-349.895753	-349.894808	-349.947124	38.853	
C	-0.0286106893	 1.589503573	 0.0275385685	-0.381386
C	-0.0052825205	 0.0599786069	 0.014066259	-0.152329
C	 0.7048188618	-0.5054750513	-1.2332448229	-0.335594
C	 0.7379642154	-1.9636349742	-1.2652014868	 0.067438
C	 0.7449362253	-3.1684652696	-1.2551435525	 0.071752
C	 0.7783473293	-4.6254281753	-1.2873801162	-0.347874
C	 1.4981527481	-5.1702924936	-2.5504698487	-0.337971
C	 1.532186873	-6.6262609419	-2.5840934325	 0.294316
C	 1.543249127	-7.8282359034	-2.5818518936	-0.440084
H	 0.9862326707	 2.0028353643	 0.0207344251	 0.115587
H	-0.5531531915	 1.9870303715	-0.8486068764	 0.115586
H	-0.5361474061	 1.9691452685	 0.9193384751	 0.114797
H	 0.4998881752	-0.3181132424	 0.9098202996	 0.108615
H	-1.0272071441	-0.3338100521	 0.0475359895	 0.108615
H	 0.2039911891	-0.1280681091	-2.1353401744	 0.123392
H	 1.7299131886	-0.1123053717	-1.2737823166	 0.123396
H	 1.2860989067	-5.015299491	-0.3972833908	 0.137755
H	-0.2398380698	-5.0311885666	-1.2600508124	 0.137758
H	 0.9912932897	-4.7854264548	-3.4428216276	 0.140544
H	 2.5179355806	-4.7696567132	-2.5796359853	 0.140539
H	 1.5615434809	-8.8892701239	-2.59489589	 0.195146
3.5336	51.8113	52.866	89.6413	134.3567	179.1067	228.8202	241.1001	308.2994	348.355	397.0365	452.5631	486.2066	525.7919	615.0008	643.7529	743.3451	765.6289	801.1679	872.9263	895.302	964.3037	1007.7622	1034.8293	1042.068	1108.1628	1122.3979	1163.8982	1193.5675	1259.0394	1282.8314	1304.6716	1306.8094	1321.5444	1365.1437	1381.3978	1412.7117	1472.1558	1475.1575	1483.462	1491.8913	1498.9618	1508.9826	2239.0862	2366.9421	3006.7179	3028.9751	3029.2267	3032.9004	3039.9315	3041.0425	3056.2782	3072.623	3079.259	3099.6149	3105.1364	3511.3651
CCCC#CCCC#C	CCCC#CCCC#C	
InChI=1S/C9H12/c1-3-5-7-9-8-6-4-2/h1H,4-7H2,2H3	InChI=1S/C9H12/c1-3-5-7-9-8-6-4-2/h1H,4-7H2,2H3
