17
gdb 38662	3.06509	1.88415	1.52228	3.0892	70.21	-0.2341	0.0315	0.2655	892.2242	0.140343	-418.006189	-417.999812	-417.998868	-418.036932	25.937	
C	 0.0661737529	 1.5479600729	 0.2349747123	-0.225446
C	 1.4630081752	 2.008373855	-0.1436180783	-0.03585
N	 2.5195635079	 1.3473678592	 0.6407628431	-0.32044
C	 2.2370945589	 0.8801467922	-0.7308698469	-0.067229
C	 1.3722808476	-0.3643362708	-0.7389531776	 0.081277
O	 1.9352297548	-1.4347757706	 0.0571683757	-0.226106
C	 1.154517039	-1.5020639978	 1.162799021	 0.130559
N	 0.1152608371	-0.7841599284	 1.2588513448	-0.26963
C	 0.055338029	 0.0093795978	 0.0209390333	-0.018718
H	-0.186183596	 1.7921866106	 1.2695920661	 0.12842
H	-0.670227859	 2.029598404	-0.416891054	 0.09816
H	 1.6198204882	 3.0281667115	-0.4814950387	 0.088397
H	 3.3644106638	 1.9128814607	 0.631553815	 0.234699
H	 2.9819794025	 1.0272229329	-1.5057253684	 0.088477
H	 1.223455406	-0.7489235395	-1.7502887912	 0.088366
H	 1.4985642139	-2.2121983935	 1.9064958917	 0.136139
H	-0.8439426218	-0.285134776	-0.5289053776	 0.088927
119.0737	203.5489	351.4636	362.2052	464.8748	581.0574	605.0376	667.0956	767.1644	804.3392	858.6859	862.2314	879.2729	902.0194	920.2554	956.5918	961.1324	995.0749	1001.2851	1061.6365	1063.1673	1090.4066	1123.8418	1127.785	1168.582	1209.7653	1242.4019	1264.7761	1292.7309	1318.2049	1327.0681	1342.6424	1361.633	1391.2391	1430.2803	1477.7421	1700.1104	3043.7051	3057.9599	3088.5667	3110.1725	3155.631	3169.1081	3215.9555	3505.7509
C1C2NC2C2OC=NC12	C1[C@H]2N[C@H]2[C@H]2OC=N[C@@H]12	
InChI=1S/C6H8N2O/c1-3-5(8-3)6-4(1)7-2-9-6/h2-6,8H,1H2	InChI=1S/C6H8N2O/c1-3-5(8-3)6-4(1)7-2-9-6/h2-6,8H,1H2/t3-,4+,5-,6+/m1/s1
