15
gdb 27697	2.8222	1.33984	0.91888	3.6695	77.63	-0.2522	-0.0458	0.2064	1221.5323	0.11227	-416.876058	-416.867441	-416.866497	-416.909775	30.127	
C	 0.0869950814	 1.4226720366	-0.0174519627	-0.495647
C	-0.0450309189	-0.0556809743	-0.0115400103	 0.383654
N	-1.1245457653	-0.7700151628	-0.1324171515	-0.332471
C	-0.7046183188	-2.0872005778	-0.0613109112	 0.175418
C	-1.6464522266	-3.2344049403	-0.1590367951	-0.501004
C	 0.6515975039	-2.0925577509	 0.1042617721	 0.160035
O	 1.0835370086	-0.7853673906	 0.1371042804	-0.201574
C	 1.5956710219	-3.1273627907	 0.2348959425	 0.219954
N	 2.3464282405	-4.0043939853	 0.340429796	-0.342304
H	 0.7407093633	 1.7514759372	-0.8314131758	 0.158071
H	-0.8998719084	 1.8666478199	-0.1454466008	 0.164834
H	 0.5247742045	 1.7775892214	 0.9208980703	 0.158084
H	-2.1825015857	-3.2079898716	-1.1131808248	 0.152248
H	-1.1174955867	-4.1863834503	-0.0791686782	 0.148452
H	-2.3973091337	-3.1805129306	 0.6357664191	 0.152249
91.9842	124.3842	136.6029	139.0741	208.6256	257.4986	323.786	389.5087	518.091	548.6605	581.3069	635.2677	691.0726	710.0581	788.9878	982.0331	997.4199	1053.6271	1064.1095	1066.9648	1129.9106	1252.8567	1288.6006	1372.9846	1412.081	1423.6507	1473.9384	1474.3088	1476.4082	1481.7557	1604.4019	1636.8468	2338.304	3044.5529	3050.0109	3102.9777	3107.0431	3136.5851	3164.7434
CC1=NC(C)=C(O1)C#N	Cc1nc(C)c(o1)C#N	
InChI=1S/C6H6N2O/c1-4-6(3-7)9-5(2)8-4/h1-2H3	InChI=1S/C6H6N2O/c1-4-6(3-7)9-5(2)8-4/h1-2H3
