21
gdb 63003	2.38238	1.74641	1.5127	2.4195	81.15	-0.221	0.0694	0.2904	1017.4844	0.18392	-383.22427	-383.216162	-383.215218	-383.256129	33.311	
C	 0.0877954111	 1.5255939826	 0.0120436696	-0.414837
C	-0.0070686191	-0.005103589	 0.0018207849	 0.290142
C	-1.4717618438	-0.4745199502	-0.0004830569	-0.435388
C	 0.7027496724	-0.6293155619	-1.2180033651	-0.077869
N	 2.1304867227	-0.3018186784	-1.3735491357	-0.321569
C	 1.7428328578	-1.5928539246	-0.7676184148	-0.044586
C	 1.7437106478	-1.6030301352	 0.747840871	-0.044586
N	 2.1320769659	-0.3202451724	 1.370604288	-0.321569
C	 0.7041577931	-0.6456345106	 1.2123293564	-0.077869
H	 1.1354974662	 1.8307791394	 0.0134963834	 0.154592
H	-0.4017795339	 1.9545403765	-0.869576635	 0.099179
H	-0.4007735156	 1.9426609882	 0.8998999266	 0.099178
H	-2.0021798976	-0.09818903	-0.8817276182	 0.111674
H	-1.5403743278	-1.5681666737	-0.0077901414	 0.112257
H	-2.0011548254	-0.1100668815	 0.8863524677	 0.111674
H	 0.1103740009	-0.7980427117	-2.1141035273	 0.073688
H	 2.4006492515	-0.460988768	-2.3417529553	 0.226093
H	 1.9536194893	-2.5150789169	-1.2985095362	 0.080008
H	 1.9551053721	-2.5322996905	 1.2660547771	 0.080008
H	 2.403359311	-0.4924014227	 2.3362697619	 0.226093
H	 0.1128196213	-0.8263839595	 2.1067688892	 0.073688
154.1805	202.1895	227.9067	259.1898	312.6802	332.3369	332.3922	404.059	536.7874	558.514	576.0083	699.0606	765.3498	802.2302	835.4937	870.0024	872.8003	893.6558	914.6202	932.6277	948.7122	957.9794	975.0998	1029.8825	1065.6193	1070.9444	1125.6892	1128.1173	1157.6666	1164.447	1225.0347	1231.2259	1232.6744	1258.1875	1263.3745	1333.4	1390.7001	1393.2349	1410.3185	1414.7547	1436.5399	1487.2464	1488.5362	1503.0218	1510.4768	3023.9284	3029.5123	3086.4762	3093.4471	3096.3268	3130.1109	3133.2078	3140.8593	3159.9893	3174.0117	3488.6979	3490.1292
CC1(C)C2NC2C2NC12	CC1(C)[C@H]2N[C@H]2[C@H]2N[C@@H]12	
InChI=1S/C7H12N2/c1-7(2)5-3(8-5)4-6(7)9-4/h3-6,8-9H,1-2H3	InChI=1S/C7H12N2/c1-7(2)5-3(8-5)4-6(7)9-4/h3-6,8-9H,1-2H3/t3-,4+,5-,6+
