20
gdb 72168	2.33877	2.20291	1.67137	1.3824	76.71	-0.2193	0.0846	0.3039	918.634	0.1743	-403.117861	-403.110926	-403.109981	-403.14868	29.165	
C	 0.0069606723	 1.5325992793	 0.036697278	-0.517711
C	-0.0008885571	 0.0241267703	-0.0254641741	 0.320181
C	 0.2188304753	-0.8233047756	-1.2939729331	-0.236816
N	-0.431833605	-1.969023016	-0.5457379395	-0.147439
C	 0.6371406335	-2.1852303481	 0.4819935063	-0.19772
C	 0.7178236566	-0.7672025235	 1.1081917726	 0.058505
O	-0.1888249501	-0.7153094055	 2.21592651	-0.273752
C	-1.4698856963	-1.0403236953	 1.6524641903	-0.122216
C	-1.2594646683	-0.873317803	 0.1540549682	-0.038289
H	 1.0040834939	 1.9311581926	-0.1830821559	 0.1189
H	-0.6903681765	 1.9686424615	-0.6867845685	 0.114656
H	-0.2770213718	 1.8799195326	 1.0351305118	 0.13364
H	-0.4123141155	-0.508815142	-2.1299870176	 0.104346
H	 1.2336939305	-1.023352292	-1.6523628583	 0.095646
H	 0.3450926959	-2.9327231075	 1.2223757466	 0.112035
H	 1.5543312556	-2.5204452996	-0.0087367266	 0.102184
H	 1.6904979758	-0.4099700289	 1.446827481	 0.075919
H	-1.7757692939	-2.0603081017	 1.9224257608	 0.107591
H	-2.2196707121	-0.3428845853	 2.0423796064	 0.108452
H	-2.142171633	-0.6289496621	-0.4371347984	 0.08189
205.8474	218.9936	256.9069	294.7953	407.1359	435.5688	525.8943	601.6234	620.4098	701.5677	740.3616	813.9449	836.2593	870.7578	889.1146	916.775	928.4136	948.5296	978.0747	991.4286	1030.8956	1041.6554	1062.871	1107.163	1148.1862	1152.2706	1166.1981	1197.9701	1223.3571	1227.9175	1236.8023	1244.6551	1293.8731	1317.6996	1331.3749	1354.5134	1380.2623	1411.0246	1493.4061	1495.5024	1499.8131	1519.4358	1530.9414	3010.9294	3027.2924	3043.3254	3059.4216	3067.2069	3088.4508	3100.5572	3103.5513	3116.4331	3118.2992	3123.0791
CC12CN3CC1OCC23	C[C@@]12CN3C[C@@H]1OC[C@@H]23	
InChI=1S/C7H11NO/c1-7-4-8-2-6(7)9-3-5(7)8/h5-6H,2-4H2,1H3	InChI=1S/C7H11NO/c1-7-4-8-2-6(7)9-3-5(7)8/h5-6H,2-4H2,1H3/t5-,6-,7-/m0/s1
