23
gdb 101300	2.92341	0.85044	0.7459	3.3684	87.9	-0.244	-0.0162	0.2278	1622.7672	0.203504	-388.300065	-388.28954	-388.288596	-388.336204	38.303	
C	-0.2389942613	 1.5597108915	-0.0268280598	-0.395152
C	-0.1044602407	 0.0384234352	-0.1454320153	-0.164276
C	 0.9296512358	-0.4379590705	-1.1865255826	 0.009
C	 2.3637711994	-0.0209655338	-0.8293271646	-0.398494
C	 0.8307533133	-1.9493962275	-1.3368015648	 0.015506
C	-0.1542025364	-2.5980674746	-2.2467838521	-0.317601
C	 1.3350251529	-2.7135031213	-2.565321797	-0.122
C	 1.8604301609	-2.0084015454	-3.7536688045	 0.164348
O	 2.7873836018	-2.3969301596	-4.4230586839	-0.276312
H	 0.6824976487	 2.0276526376	 0.3319704335	 0.121013
H	-0.4864701023	 2.0114426726	-0.9942445581	 0.114482
H	-1.0352397757	 1.8254885071	 0.6753355003	 0.114833
H	 0.1569003196	-0.3854904262	 0.834173695	 0.093411
H	-1.0803421747	-0.3876332755	-0.4088720354	 0.097711
H	 0.6644552428	 0.0279755315	-2.1451672795	 0.071414
H	 3.07582173	-0.3705866569	-1.583127197	 0.126794
H	 2.4637801268	 1.0653492011	-0.7567755862	 0.118078
H	 2.6640709212	-0.4495876866	 0.1344149538	 0.11344
H	 1.0320712082	-2.4832944471	-0.4096883613	 0.095517
H	-0.6664357248	-3.5023923602	-1.9391181341	 0.126192
H	-0.7375732218	-1.9530228011	-2.8981974424	 0.121474
H	 1.8193863803	-3.6665567399	-2.3822643452	 0.104811
H	 1.3217257359	-1.0693597806	-4.0188860188	 0.065813
52.7711	75.6095	88.9394	155.9457	200.3962	214.0056	244.4862	279.3566	304.2198	359.8387	384.7304	444.2022	479.9652	556.9528	766.3531	796.9257	830.8541	853.6787	870.8347	928.4001	968.4243	970.6922	999.7646	1029.2174	1048.5457	1054.6038	1074.0162	1135.0154	1147.8277	1175.5203	1191.6047	1196.4392	1234.3785	1285.7086	1305.899	1342.6459	1351.3664	1375.151	1411.3873	1416.8523	1419.0428	1448.808	1482.3586	1487.4665	1496.0248	1499.5187	1505.7541	1511.8714	1811.9439	2859.1892	3007.5584	3016.5316	3031.4764	3034.2568	3051.2099	3097.2175	3098.982	3108.0604	3116.7748	3123.2102	3125.5958	3175.9684	3215.3803
CCC(C)C1CC1C=O	CC[C@@H](C)[C@H]1C[C@H]1C=O	
InChI=1S/C8H14O/c1-3-6(2)8-4-7(8)5-9/h5-8H,3-4H2,1-2H3	InChI=1S/C8H14O/c1-3-6(2)8-4-7(8)5-9/h5-8H,3-4H2,1-2H3/t6-,7+,8-/m1/s1
