15
gdb 13675	4.00032	1.28479	1.17803	3.4792	61.24	-0.251	-0.0002	0.2508	1027.7776	0.117219	-399.767244	-399.759001	-399.758057	-399.800781	29.108	
O	 0.0435135441	 1.3024304215	-0.365033113	-0.428372
C	-0.1502759614	 0.0903297948	 0.2905244823	 0.123451
C	-1.2584727777	-0.0616285944	 1.3103203216	-0.347247
C	-1.3573057122	-0.7334071936	-0.0459392102	 0.045977
O	-2.1632559586	-0.150471912	-1.0394556408	-0.248055
C	-3.5175423691	-0.5374369675	-1.0164450471	-0.192448
C	-4.2957007321	 0.0716293793	 0.0796168672	 0.262944
N	-4.9211910683	 0.5525353982	 0.9232697039	-0.301794
H	-0.6965603348	 1.4180440239	-0.9737231584	 0.296218
H	 0.7868785586	-0.4283714461	 0.4681182528	 0.108228
H	-1.1008132304	-0.6880160945	 2.1816377304	 0.12104
H	-1.8848344919	 0.8077801785	 1.4726325962	 0.146423
H	-1.2849556066	-1.8175112389	-0.1226823189	 0.099797
H	-3.9518095246	-0.216561912	-1.9680704519	 0.165575
H	-3.619375665	-1.6298841672	-0.950349084	 0.148262
38.3837	91.5021	174.6369	219.7696	270.8322	313.7082	367.5167	372.5853	475.7228	559.9174	663.8225	747.1341	807.0212	873.3719	909.5016	990.2609	1022.1437	1040.9928	1064.5376	1092.4577	1119.3322	1131.519	1172.4832	1240.2797	1300.9791	1349.0742	1366.6278	1407.5057	1425.7216	1469.8684	1478.7852	2360.2727	3015.7417	3092.896	3109.8084	3140.1483	3157.2059	3236.4314	3782.5715
OC1CC1OCC#N	O[C@H]1C[C@H]1OCC#N	
InChI=1S/C5H7NO2/c6-1-2-8-5-3-4(5)7/h4-5,7H,2-3H2	InChI=1S/C5H7NO2/c6-1-2-8-5-3-4(5)7/h4-5,7H,2-3H2/t4-,5+/m0/s1
