14
gdb 47335	3.2538	1.19869	0.896	2.316	73.66	-0.2615	-0.1049	0.1566	1195.9699	0.101468	-436.716371	-436.708709	-436.707765	-436.749	27.782	
O	-0.0288028432	-0.0331714862	 0.1463249446	-0.30273
C	-0.0264735928	 1.164814412	-0.0338272342	 0.371659
C	-1.3131929008	 1.9839900057	-0.0900138606	-0.199208
O	-1.1653087573	 3.1653243282	-0.8565321391	-0.23406
C	-0.1489324012	 4.0133511244	-0.3895456313	-0.166564
C	 1.1767595934	 3.2883345387	-0.2439548861	 0.135733
C	 1.2237359889	 1.9480596042	-0.1356510958	-0.239705
C	 2.3544869662	 4.0922589598	-0.2118205003	 0.244306
N	 3.2844061581	 4.7822969438	-0.1863045908	-0.307867
H	-2.1000582384	 1.3887982889	-0.5566043576	 0.152131
H	-1.623834728	 2.2118051373	 0.9452914587	 0.123103
H	-0.0522620025	 4.8240403766	-1.1173802776	 0.152088
H	-0.413757679	 4.4723443636	 0.5806110816	 0.128895
H	 2.1581681166	 1.4038455029	-0.0549357616	 0.142219
99.57	124.8878	147.2937	265.7491	334.8184	403.9927	426.8751	483.5341	524.8472	569.3491	590.3274	637.4279	850.3923	897.2449	922.7899	972.8635	1002.4096	1049.3871	1131.8494	1166.3635	1226.8103	1269.493	1302.7504	1316.6784	1357.3809	1404.6006	1464.2418	1481.7177	1661.3814	1792.1197	2335.3382	2947.1967	2957.6099	3090.6932	3124.259	3204.8658
O=C1COCC(=C1)C#N	O=C1COCC(=C1)C#N	
InChI=1S/C6H5NO2/c7-2-5-1-6(8)4-9-3-5/h1H,3-4H2	InChI=1S/C6H5NO2/c7-2-5-1-6(8)4-9-3-5/h1H,3-4H2
