20
gdb 107800	2.54637	1.64872	1.31563	1.9874	77.78	-0.2229	0.0752	0.2981	1059.0382	0.170283	-403.071804	-403.063297	-403.062352	-403.104844	32.633	
C	-0.1648206686	 1.3684675699	 0.0140329481	-0.26826
O	 0.0055339485	-0.037265971	 0.033666133	-0.297694
C	 0.6372821926	-0.5518666241	-1.0785445497	 0.381864
C	 0.032988645	-0.4298096292	-2.5126559497	-0.321585
C	 0.7524228932	-1.749799051	-2.7775424923	-0.037838
C	 0.8075955815	-2.0941725448	-1.3397165758	-0.121586
N	 2.077487671	-1.7856873872	-2.0471997914	-0.160041
C	 2.1734700852	-0.4730657055	-1.3154324454	 0.031968
C	 2.8744550502	 0.6613873062	-2.0417886325	-0.429814
H	 0.797952902	 1.8979403248	 0.0080148345	 0.115733
H	-0.7478894365	 1.6936047322	-0.8589387928	 0.115983
H	-0.7078390932	 1.6354984866	 0.9229409687	 0.132095
H	-1.0485565225	-0.5862353333	-2.4795548172	 0.111729
H	 0.2664681857	 0.4464676078	-3.1239697524	 0.094438
H	 0.6716717176	-2.4024523595	-3.6365541536	 0.099475
H	 0.6175985678	-2.9878288282	-0.7612114048	 0.100555
H	 2.6845053682	-0.6898397231	-0.3707174442	 0.084618
H	 2.3815895528	 0.9275693927	-2.9803555947	 0.121031
H	 2.9257868591	 1.5575951923	-1.4143854821	 0.116586
H	 3.9001131904	 0.3616812744	-2.2818791659	 0.130744
72.4066	155.2055	182.7292	186.512	252.3969	287.5707	355.6129	395.0939	496.5544	561.6527	637.5155	690.0111	732.7279	793.318	839.4748	866.6759	914.1033	960.3365	974.3807	982.0254	1014.128	1050.9589	1080.0842	1102.983	1111.0848	1142.7673	1158.1641	1176.2499	1180.9046	1192.8476	1219.5212	1238.3788	1258.61	1319.6371	1341.8445	1395.7734	1409.9061	1480.789	1486.9807	1489.7386	1492.032	1505.8708	1509.832	2995.0416	3036.7403	3046.2459	3048.9732	3053.6767	3101.2567	3107.6879	3120.5981	3124.1885	3200.402	3215.3793
COC12CC3C1N3C2C	CO[C@]12C[C@@H]3[C@H]1N3[C@H]2C	
InChI=1S/C7H11NO/c1-4-7(9-2)3-5-6(7)8(4)5/h4-6H,3H2,1-2H3	InChI=1S/C7H11NO/c1-4-7(9-2)3-5-6(7)8(4)5/h4-6H,3H2,1-2H3/t4-,5+,6+,7-,8?/m0/s1
