16
gdb 28207	4.90395	1.22969	0.99993	2.0527	73.42	-0.1658	0.041	0.2067	1151.1136	0.125536	-437.887005	-437.87922	-437.878276	-437.919197	29.198	
C	 0.1379920946	 1.4661361978	 0.0775819633	-0.498378
C	-0.0481510184	-0.0086870722	-0.0497678981	 0.321403
C	-0.0697233345	-0.8129796829	-1.181281976	-0.399412
C	-0.0690460077	-2.1451827241	-0.7023748928	 0.27157
C	-0.0636123071	-2.1151352424	 0.6506848121	 0.305217
N	-0.1001880228	-0.8254988847	 1.0843947553	-0.431995
O	-0.3739011296	-3.3261569972	 1.2131497786	-0.283534
C	-0.1541870305	-4.1909847327	 0.0697703877	 0.005474
O	-0.3594550076	-3.4363517542	-1.1260794337	-0.278834
H	 1.1460444067	 1.7436567507	 0.4155123837	 0.12591
H	-0.0208695535	 1.9411924583	-0.893600965	 0.139136
H	-0.5760501813	 1.9100027877	 0.7826005676	 0.123254
H	-0.0561875229	-0.4570721708	-2.1991101283	 0.103316
H	 0.039535419	-0.5036212844	 2.0268624847	 0.264508
H	 0.8904864288	-4.5400808704	 0.1056443641	 0.101331
H	-0.8622290432	-5.0195522587	 0.110955577	 0.131033
121.8935	133.3684	216.1317	260.1463	272.8754	296.8586	409.9132	487.217	548.7367	620.056	646.6629	718.173	751.49	773.8394	838.7493	897.8788	979.3489	1006.9365	1049.472	1060.0697	1107.9453	1137.5286	1173.0031	1240.4994	1253.9938	1375.1627	1413.3706	1415.0459	1456.3593	1476.8255	1496.4843	1518.3126	1541.0965	1552.5543	1662.1369	2968.8618	3004.1533	3050.5382	3117.4056	3126.9843	3256.102	3669.6359
CC1=CC2=C(N1)OCO2	Cc1cc2c([nH]1)OCO2	
InChI=1S/C6H7NO2/c1-4-2-5-6(7-4)9-3-8-5/h2,7H,3H2,1H3	InChI=1S/C6H7NO2/c1-4-2-5-6(7-4)9-3-8-5/h2,7H,3H2,1H3
