17
gdb 50785	9.96682	0.42484	0.4206	2.1797	86.02	-0.2505	-0.0305	0.22	2463.1501	0.131707	-384.63947	-384.628984	-384.62804	-384.67845	35.166	
O	-0.5354831027	 0.4193525456	 0.532398548	-0.229634
C	-0.0694256693	 1.4646262107	 0.1706067229	 0.172352
C	 1.3687067511	 1.6245546828	-0.3294455141	-0.414811
C	 1.4717854244	 2.5776135419	-1.4247723724	 0.079136
C	 1.4959343494	 3.3601577001	-2.340105107	 0.04723
C	 1.5675117922	 4.3258206833	-3.4293129408	-0.347642
C	 2.3909736461	 5.5862129146	-3.0509998839	-0.340154
C	 2.45866983	 6.5475425032	-4.1432755501	 0.292633
C	 2.4952180535	 7.3193576437	-5.0638220965	-0.435531
H	-0.6542181606	 2.4099622338	 0.1869351646	 0.093228
H	 1.9626345625	 1.9702174447	 0.5310501337	 0.155111
H	 1.7491529899	 0.6335585103	-0.5979543831	 0.155286
H	 2.01558337	 3.8610784419	-4.3151088347	 0.14523
H	 0.5586077274	 4.6361681444	-3.7246263925	 0.144388
H	 1.9428761088	 6.0529170303	-2.1663296981	 0.14172
H	 3.400979461	 5.2775198084	-2.7581514239	 0.142945
H	 2.5372709063	 8.0119904305	-5.8675238219	 0.198513
8.4565	43.7264	57.0494	85.1243	127.6683	175.5127	262.8886	320.9496	358.1777	438.0458	468.8139	497.8916	521.7486	623.2983	652.3967	720.4842	764.2591	828.4197	965.3471	1008.1478	1028.5428	1037.6551	1043.2655	1162.8224	1194.2085	1212.3623	1282.0426	1292.5113	1305.1642	1366.3008	1414.3815	1440.79	1471.0768	1481.4846	1841.3924	2240.2875	2368.1163	2899.8627	2999.0741	3032.7534	3042.2231	3060.6981	3078.098	3082.3277	3506.7905
O=CCC#CCCC#C	O=CCC#CCCC#C	
InChI=1S/C8H8O/c1-2-3-4-5-6-7-8-9/h1,8H,3-4,7H2	InChI=1S/C8H8O/c1-2-3-4-5-6-7-8-9/h1,8H,3-4,7H2
