20
gdb 15721	3.37207	1.58305	1.27804	1.7802	70.99	-0.2425	0.0678	0.3103	1033.6358	0.177023	-386.137767	-386.128945	-386.128	-386.171575	31.914	
C	 0.0828807594	 1.4369802097	-0.0611145657	-0.236088
O	-0.2277431563	 0.0684061448	-0.1694753109	-0.242863
C	 0.5283740231	-0.6127570739	-1.1380085463	 0.167508
C	 2.0178006453	-0.8470908973	-0.7965193115	-0.23208
C	 2.4203697826	-2.0996131331	-1.6233611015	-0.200727
C	 1.0959145163	-2.656639043	-2.2194693166	-0.237748
C	-0.0121780513	-2.0300822106	-1.3621612045	 0.088692
O	-0.1082208291	-2.6542793847	-0.0883027098	-0.433038
H	 1.1068667406	 1.6077277028	 0.3027762271	 0.106268
H	-0.0293937248	 1.9587300414	-1.0259481386	 0.097371
H	-0.618078824	 1.8716449457	 0.6559325272	 0.125474
H	 0.456294494	-0.0804736409	-2.1038961264	 0.05553
H	 2.6421801288	 0.021115131	-1.0208341909	 0.089917
H	 2.08913713	-1.0464306445	 0.2758529121	 0.121287
H	 3.1337533459	-1.8561653111	-2.4151080476	 0.09695
H	 2.9027619487	-2.8412624541	-0.9826535193	 0.107658
H	 0.9736969221	-2.3435242744	-3.2628466899	 0.098205
H	 1.0470501817	-3.7502409507	-2.2089387564	 0.086726
H	-0.9897023392	-2.0166420029	-1.8643532996	 0.060075
H	-0.3478191536	-3.5746395343	-0.2330655208	 0.280884
58.526	84.3701	139.8058	191.0136	206.2107	260.1361	328.8276	359.5138	434.6494	511.0646	641.4005	711.2058	782.3117	857.6999	870.1937	896.3216	954.8327	994.641	1022.8051	1041.6447	1058.2291	1104.6828	1169.4777	1180.736	1188.3864	1194.4885	1221.7352	1238.6397	1268.4126	1284.8299	1307.9219	1326.4971	1342.2775	1363.564	1396.104	1436.162	1479.4914	1482.7283	1485.1828	1490.2607	1508.6568	1511.6912	2935.6596	2967.1665	3003.4403	3017.8832	3038.8972	3059.5538	3069.6414	3075.3372	3098.2748	3110.3939	3118.2773	3822.1039
COC1CCCC1O	CO[C@H]1CCC[C@H]1O	
InChI=1S/C6H12O2/c1-8-6-4-2-3-5(6)7/h5-7H,2-4H2,1H3	InChI=1S/C6H12O2/c1-8-6-4-2-3-5(6)7/h5-7H,2-4H2,1H3/t5-,6+/m1/s1
