17
gdb 127227	3.07963	1.38837	0.96868	5.4458	81.71	-0.2203	-0.0345	0.1859	1192.6972	0.136458	-418.044035	-418.03539	-418.034446	-418.077856	31.086	
C	 0.0121773991	 1.4892667087	 0.0370990092	-0.32161
N	-0.0095623081	 0.0326100629	 0.048175922	 0.000859
C	-1.1781916137	-0.6705383841	 0.0830205511	-0.035241
C	-1.2203704151	-2.0279923135	 0.0120986511	 0.110899
C	-2.4934888627	-2.8139963618	 0.0627887409	-0.47743
C	 0.0412983927	-2.7485841894	-0.1148846871	 0.271499
O	 0.1325529083	-3.971893363	-0.1871095681	-0.387734
C	 1.2073122933	-1.8600312138	-0.1446658215	-0.079197
N	 1.1872719776	-0.5612165156	-0.073798957	-0.203111
H	 0.9554110113	 1.8176510345	 0.4722453276	 0.164514
H	-0.0650632544	 1.8793597523	-0.9839270105	 0.147134
H	-0.8193894199	 1.8738166953	 0.6311557855	 0.142493
H	-2.0735612743	-0.0646756012	 0.177301318	 0.127066
H	-2.5972921038	-3.4268905071	-0.8389649535	 0.147982
H	-2.4736657027	-3.5162053888	 0.9031331525	 0.147759
H	-3.3712143723	-2.1691175027	 0.1582396043	 0.10972
H	 2.1901702846	-2.3136691427	-0.2326262142	 0.134399
57.9043	107.7524	132.8601	182.0918	259.8902	295.1088	342.6382	435.2283	446.4507	528.4224	536.5458	580.963	743.5414	775.9474	804.0818	905.0554	939.8855	945.3692	1013.3816	1062.3469	1095.941	1143.9223	1153.061	1211.4094	1316.4323	1338.6359	1383.2347	1415.3987	1445.074	1454.3769	1465.1986	1484.6774	1491.7358	1512.8846	1579.2174	1664.8844	1721.3273	3035.2291	3039.0961	3091.2465	3115.3225	3117.8905	3164.3976	3179.9357	3182.2992
CN1C=C(C)C(=O)C=N1	Cn1cc(C)c(=O)cn1	
InChI=1S/C6H8N2O/c1-5-4-8(2)7-3-6(5)9/h3-4H,1-2H3	InChI=1S/C6H8N2O/c1-5-4-8(2)7-3-6(5)9/h3-4H,1-2H3
