21
gdb 82844	3.00215	1.68825	1.67332	1.4702	80.39	-0.235	0.084	0.3191	955.9294	0.186376	-387.100608	-387.093724	-387.09278	-387.131431	29.432	
C	-0.1335229636	 1.5942905324	 0.0742016255	-0.424967
C	 0.0587812171	 0.0888275279	-0.013710851	 0.036217
C	 0.8010271428	-0.5890277329	-1.20587365	-0.065232
C	 2.1304092441	 0.1412069541	-1.5296213203	-0.230223
C	 3.0054432631	-0.3074907831	-0.3421454649	 0.096272
C	 2.7988143842	-1.8310647551	-0.3472398275	-0.234238
C	 1.2874542667	-1.7087748279	-0.1982243414	-0.052744
C	 1.0997170808	-0.6081399735	 0.8954675898	 0.09158
O	 2.3536518731	 0.0956920082	 0.8763442771	-0.286294
H	 0.8258485038	 2.1138421664	 0.1335511546	 0.129117
H	-0.6835824532	 1.9790208638	-0.7919398651	 0.108659
H	-0.7037833095	 1.8581045418	 0.9718988016	 0.111111
H	-0.9033456795	-0.4218020261	 0.1205385175	 0.065378
H	 0.2174902916	-0.8647017338	-2.0856959487	 0.058083
H	 2.5602360759	-0.2089571098	-2.4743280312	 0.093685
H	 2.0233225919	 1.2264827787	-1.5921997912	 0.102429
H	 4.0281407248	 0.0701806611	-0.3224400951	 0.071046
H	 3.1153220875	-2.3084997565	-1.2786521265	 0.096212
H	 3.2830668207	-2.3206104516	 0.5018985178	 0.102019
H	 0.6778529065	-2.6056107263	-0.1111546103	 0.067582
H	 0.8528085614	-0.8471884179	 1.9326385693	 0.064308
175.683	204.2089	235.8831	420.9616	439.3403	455.9294	533.7613	591.751	629.6122	754.3623	797.9583	826.8103	844.1461	853.5612	867.189	908.8743	932.2574	937.9126	968.3241	973.7142	984.4161	1023.5206	1040.4656	1073.1482	1104.4213	1123.1012	1127.3055	1148.2469	1189.9465	1213.9957	1224.4586	1233.1038	1254.9433	1287.1995	1292.5502	1306.7368	1327.3611	1347.0061	1368.5827	1384.7793	1408.1151	1477.7652	1489.8199	1494.7814	1511.1862	3023.2859	3032.4818	3047.7393	3061.1403	3077.6065	3089.0591	3090.3046	3104.7939	3114.4237	3117.4377	3121.4328	3140.8222
CC1C2CC3CC2C1O3	C[C@H]1[C@H]2C[C@@H]3C[C@H]2[C@H]1O3	
InChI=1S/C8H12O/c1-4-6-2-5-3-7(6)8(4)9-5/h4-8H,2-3H2,1H3	InChI=1S/C8H12O/c1-4-6-2-5-3-7(6)8(4)9-5/h4-8H,2-3H2,1H3/t4-,5+,6+,7+,8-/m0/s1
