17
gdb 130452	3.31261	1.11047	0.86159	5.5731	70.76	-0.2172	0.0403	0.2576	1305.8442	0.138587	-451.347786	-451.339467	-451.338523	-451.380968	31.199	
N	 0.2908434347	 1.358644023	 1.325487673	-0.512891
H	 0.5752365273	 0.3881029323	 1.4139390176	 0.240211
H	 0.0019101434	 2.6433948116	 3.084020664	 0.27734
H	 0.9429147331	 1.7868887033	 0.6734364678	 0.235825
C	-1.0780148671	 1.4362813017	 0.7803759805	-0.162387
C	-1.595224222	 2.8827184476	 0.8149635437	-0.305441
C	-1.7489151311	 3.4304203982	 2.1957037592	 0.37081
N	-2.7429335098	 4.1474442574	 2.6482953917	-0.283081
N	-2.4692640067	 4.4517236605	 3.9806628187	-0.334587
C	-1.3244709984	 3.8929627503	 4.2570177693	 0.449568
O	-0.6762215523	 3.9129901866	 5.4306565931	-0.426229
N	-0.8073595884	 3.2443917007	 3.1835520291	-0.33911
H	-1.1521226241	 1.0567151408	-0.2497175331	 0.097064
H	-1.7203956924	 0.8049376029	 1.4035701585	 0.12347
H	-0.909964178	 3.5141343202	 0.2300508237	 0.112936
H	-2.5704609766	 2.9458400791	 0.3255256796	 0.1397
H	-1.2326778517	 4.4201971936	 6.0362220634	 0.316801
79.7386	136.601	151.3324	254.4923	288.7568	319.9622	385.6118	427.2365	442.1746	499.9777	622.2353	685.4661	709.9657	753.8994	767.3892	850.8917	901.052	954.6393	1022.3941	1028.2213	1038.4165	1077.872	1090.4115	1148.5164	1185.7789	1236.667	1269.232	1321.3083	1369.4308	1416.6971	1422.7604	1473.1615	1508.698	1554.4217	1586.7853	1620.716	1654.7459	2987.5001	3001.5706	3072.628	3106.1953	3488.174	3558.0453	3567.6634	3793.303
[NH3+]CCC1=N[N-]C(O)=N1	NCCc1nnc(O)[nH]1	
InChI=1S/C4H7N4O/c5-2-1-3-6-4(9)8-7-3/h1-2,5H2,(H-,6,7,8,9)/q-1/p+1	InChI=1S/C4H8N4O/c5-2-1-3-6-4(9)8-7-3/h1-2,5H2,(H2,6,7,8,9)
