18
gdb 96893	2.72436	1.28843	1.07007	2.4458	76.42	-0.2424	0.0191	0.2615	1203.7927	0.14547	-439.053057	-439.043889	-439.042945	-439.086907	33.761	
C	-0.1235315935	 1.3208020682	-0.0148743421	-0.342242
N	-0.0615934334	-0.1245508991	 0.1426375561	-0.342994
C	-1.0977861226	-0.8049815891	 0.0046164774	 0.481864
O	-2.421143258	-0.3885410163	-0.2812963515	-0.335254
C	-2.9015864847	-1.7464759836	-0.0343268566	 0.373498
C	-4.1389282089	-1.8887908264	 0.7846006939	-0.491703
C	-2.3330439318	-2.6048492883	-1.101418089	 0.089613
O	-2.1081447688	-2.1721956996	-2.3960970542	-0.426964
C	-1.4536406385	-2.2404837506	 0.1162979692	-0.345267
H	 0.4975100833	 1.6140493966	-0.8686923544	 0.131304
H	-1.1362947023	 1.7126741655	-0.1650732662	 0.12546
H	 0.3108860551	 1.794249328	 0.8719239603	 0.129788
H	-4.9962422371	-1.4448197168	 0.2671585023	 0.141071
H	-4.3572407664	-2.9467102936	 0.9554170818	 0.133944
H	-4.026642733	-1.3931094888	 1.75359213	 0.138779
H	-2.6464331881	-3.6452955738	-1.0841867507	 0.121487
H	-2.1725728571	-1.2080158953	-2.3861743439	 0.29949
H	-0.9962445242	-2.9733470272	 0.7656149378	 0.118125
91.9155	102.9506	183.4686	201.5492	212.7304	233.2254	266.6591	324.5676	411.4371	486.966	489.27	578.856	679.1832	708.6043	735.4352	804.5408	892.2117	909.8545	947.3632	962.4467	999.1798	1053.8065	1081.2235	1128.1985	1134.555	1151.3477	1166.411	1208.326	1246.4711	1313.3129	1374.715	1415.8544	1439.7692	1474.4107	1484.762	1492.7487	1498.9419	1503.6373	1858.7967	3017.8191	3037.275	3084.109	3089.4026	3104.4967	3120.1988	3159.3389	3222.0866	3769.6789
CN=C1OC2(C)C(O)C12	CN=C1O[C@@]2(C)[C@@H](O)[C@@H]12	
InChI=1S/C6H9NO2/c1-6-3(4(6)8)5(7-2)9-6/h3-4,8H,1-2H3	InChI=1S/C6H9NO2/c1-6-3(4(6)8)5(7-2)9-6/h3-4,8H,1-2H3/t3-,4-,6+/m0/s1
