19
gdb 99621	2.28096	1.24923	0.99543	1.9068	77.14	-0.2478	0.0358	0.2835	1262.922	0.15642	-422.96867	-422.958818	-422.957874	-423.00325	37.02	
O	-0.1061858182	 1.4592385604	 0.1201625569	-0.423422
C	-0.1133646561	 0.0557345746	 0.2689458213	-0.064886
C	-1.5011104058	-0.5660135136	-0.0276121225	-0.240716
C	-1.9242307551	-0.2067340476	-1.3829382731	 0.279776
C	-2.208748245	 0.0725521391	-2.5189856482	-0.455164
C	-1.4796612565	-2.0862657078	 0.1327806333	 0.428038
O	-0.6256163372	-2.7400732078	-0.7656880006	-0.471035
C	-1.5265454999	-2.6899751181	 1.501044834	-0.314591
C	-2.7231415883	-2.8138452681	 0.5741543925	-0.324929
H	-0.3453765229	 1.6507418677	-0.794249592	 0.285211
H	 0.6339674741	-0.4362439423	-0.3676321794	 0.107907
H	 0.1450790294	-0.147425199	 1.3120744809	 0.114613
H	-2.2167244817	-0.1431303959	 0.6880634772	 0.110498
H	-2.494673864	 0.32769113	-3.5098823162	 0.203727
H	-0.9650203477	-2.5706454924	-1.6537769466	 0.285864
H	-0.9213216255	-3.5749957559	 1.6576650583	 0.128463
H	-1.6028284809	-2.0307966738	 2.3590966732	 0.117057
H	-3.6163305942	-2.2409511596	 0.7991840614	 0.114777
H	-2.9000792743	-3.7840700099	 0.1244868497	 0.118813
75.5259	105.8367	124.9406	161.7814	204.4909	302.1785	322.0878	350.3397	385.9692	395.7555	410.2814	500.7879	539.1564	573.0185	637.7648	657.2719	772.9033	816.2606	837.1463	907.5843	937.1013	944.5362	987.4926	1048.2176	1054.7474	1069.7002	1082.8227	1087.9089	1189.3319	1199.3288	1218.3968	1288.5919	1299.4918	1330.2424	1379.5676	1409.231	1423.3059	1454.6413	1502.951	1510.3485	2220.4582	3018.9676	3039.5696	3095.0964	3134.3073	3139.0907	3220.8207	3234.4599	3499.3804	3769.1613	3790.2371
OCC(C#C)C1(O)CC1	OC[C@@H](C#C)C1(O)CC1	
InChI=1S/C7H10O2/c1-2-6(5-8)7(9)3-4-7/h1,6,8-9H,3-5H2	InChI=1S/C7H10O2/c1-2-6(5-8)7(9)3-4-7/h1,6,8-9H,3-5H2/t6-/m1/s1
