19
gdb 93740	2.87335	1.27242	1.14474	3.7707	71.13	-0.2485	-0.0244	0.2241	1133.6783	0.158411	-460.185355	-460.176432	-460.175488	-460.219381	33.766	
O	-0.7746782108	 1.0559910288	 0.9445518496	-0.438543
C	-0.027775298	 0.1266486234	 0.1403403296	 0.098018
C	 0.9300912692	-0.7283353252	 0.9903032966	-0.242311
C	 0.0788937821	-1.9182897605	 1.5141525413	-0.256156
C	-1.3244914551	-1.7783894306	 0.8499803921	 0.320742
O	-2.2833836262	-1.1850656403	 1.7076812652	-0.500283
C	-1.0359093769	-0.8925041441	-0.3897140774	-0.26043
C	-1.9093172521	-3.1230843485	 0.4424837532	 0.120459
O	-1.3098232179	-3.9542177384	-0.1902888749	-0.27052
H	-0.150491895	 1.603881517	 1.4311300027	 0.288992
H	 0.4885119202	 0.6704641434	-0.6609439346	 0.071702
H	 1.750861825	-1.0863834246	 0.3607315735	 0.112586
H	 1.3832056797	-0.1384093672	 1.794007566	 0.09283
H	 0.5281509762	-2.8715840411	 1.227003541	 0.125119
H	-0.0446474811	-1.9133865351	 2.5988008461	 0.114023
H	-2.036766106	-0.2526096982	 1.7869041133	 0.28616
H	-1.9415443123	-0.4287332042	-0.7871702387	 0.118617
H	-0.5689377571	-1.499560169	-1.1716768005	 0.122992
H	-2.9601900437	-3.2673362157	 0.7736879659	 0.096001
55.4316	68.2033	179.8477	241.7775	256.7058	336.9029	357.4483	399.7966	404.3218	449.1696	532.066	571.1547	672.9657	757.3468	777.2382	795.3347	844.8672	886.2909	933.4068	960.9962	967.267	1022.502	1045.2167	1071.0574	1098.1351	1139.0674	1197.5446	1216.0574	1228.6874	1272.4906	1284.1717	1305.2223	1339.3482	1358.3618	1390.7699	1404.8039	1444.6394	1466.6992	1475.1245	1495.3895	1831.0367	2910.6451	3019.9212	3045.6267	3063.384	3075.4104	3083.2144	3122.8079	3127.946	3729.7214	3820.7694
OC1CCC(O)(C1)C=O	O[C@H]1CC[C@@](O)(C1)C=O	
InChI=1S/C6H10O3/c7-4-6(9)2-1-5(8)3-6/h4-5,8-9H,1-3H2	InChI=1S/C6H10O3/c7-4-6(9)2-1-5(8)3-6/h4-5,8-9H,1-3H2/t5-,6+/m0/s1
