20
gdb 68750	2.44889	1.68403	1.21306	3.7342	79.25	-0.2344	0.0341	0.2685	1090.5105	0.17128	-403.198244	-403.189264	-403.18832	-403.231398	34.266	
C	-0.0298291844	 1.5253854491	-0.0679909295	-0.48629
C	-0.0290613746	 0.0209142386	 0.0447439501	 0.287363
C	 1.2136779318	-0.7773668396	-0.2419315292	-0.363485
C	 0.6466413615	-0.750647929	 1.1693612758	 0.169491
C	 1.4130365622	-0.1748740532	 2.3317734607	-0.482594
C	-0.2452898028	-1.9361878506	 1.45838431	 0.383788
O	-0.110228666	-2.7478699439	 2.3494547401	-0.390225
N	-1.2492296127	-1.9259572418	 0.5210921351	-0.330095
C	-1.3400801876	-0.7083747622	-0.2644627548	-0.227945
H	 0.9393975778	 1.9463931087	 0.2132874343	 0.123494
H	-0.2380680336	 1.8414107376	-1.0971120285	 0.122604
H	-0.7917769077	 1.9750804372	 0.5787529755	 0.120984
H	 1.1431030579	-1.69390339	-0.8199047301	 0.118893
H	 2.1306422987	-0.2165545173	-0.3961403002	 0.112588
H	 2.091613774	 0.6210419631	 2.0130318744	 0.110126
H	 0.7398108423	 0.234213181	 3.0924292113	 0.122997
H	 2.0041159696	-0.9626914526	 2.8078902106	 0.144541
H	-1.9860377395	-2.6110677383	 0.5650180383	 0.249296
H	-2.2007188242	-0.094123661	 0.0392943011	 0.104216
H	-1.4469107827	-0.9247207258	-1.3354036048	 0.110253
111.9476	151.8868	182.3869	187.6219	212.2088	262.7022	314.9144	380.122	431.159	490.5189	495.6492	543.6164	672.425	690.9523	721.2432	788.3596	836.7299	905.4936	941.8859	974.1442	991.4155	1027.3459	1060.9574	1070.0166	1106.8845	1120.1238	1176.0063	1193.3185	1227.7943	1247.1804	1335.8905	1364.7299	1394.2559	1415.3681	1424.5451	1445.6893	1480.7551	1490.3207	1492.8492	1495.756	1506.8978	1530.8956	1820.8369	2990.3087	3025.2346	3030.8889	3038.7678	3082.3718	3102.55	3108.4724	3116.6018	3118.7607	3204.39	3649.0771
CC12CC1(C)C(=O)NC2	C[C@@]12C[C@]1(C)C(=O)NC2	
InChI=1S/C7H11NO/c1-6-3-7(6,2)5(9)8-4-6/h3-4H2,1-2H3,(H,8,9)	InChI=1S/C7H11NO/c1-6-3-7(6,2)5(9)8-4-6/h3-4H2,1-2H3,(H,8,9)/t6-,7+/m0/s1
