25
gdb 101826	3.71618	0.64166	0.62747	0.3817	87.41	-0.246	0.0853	0.3313	1974.0202	0.224724	-426.620749	-426.608685	-426.60774	-426.659428	42.235	
C	-1.2420175721	 1.6335382844	 0.3958913368	-0.23314
O	-0.5700279338	 0.4475296437	 0.7456777217	-0.249299
C	-0.7966033428	-0.645803934	-0.1324765851	 0.12215
C	-0.0481494944	-0.5074471573	-1.4582536222	-0.399055
C	-0.3517806572	-1.8801162481	 0.6518871442	-0.078397
O	-0.6277445609	-3.0222657999	-0.1279490475	-0.263635
C	-0.4590668922	-4.2715049901	 0.5339183051	 0.167012
C	-1.1723307898	-5.3106868339	-0.3239747682	-0.388489
C	 1.0183222469	-4.616500891	 0.7453807969	-0.394221
H	-1.0639946392	 2.3531131895	 1.1993464215	 0.124888
H	-0.8756855443	 2.0681169914	-0.5455651457	 0.106786
H	-2.3277302786	 1.4726693717	 0.3000562138	 0.101779
H	-1.8768756683	-0.7418665948	-0.3326692566	 0.068708
H	 1.0197099753	-0.3518229066	-1.2712594757	 0.116425
H	-0.1717482474	-1.4214218475	-2.0438687566	 0.135255
H	-0.4212224585	 0.3329496428	-2.0502407272	 0.110117
H	 0.7202553048	-1.7868944496	 0.8846651637	 0.094272
H	-0.8978872206	-1.9129539494	 1.6073636761	 0.089789
H	-0.9549587741	-4.2162569792	 1.5183563448	 0.063634
H	-0.702459252	-5.3747061821	-1.3107074373	 0.121247
H	-1.1263874665	-6.2977802717	 0.1453834589	 0.111488
H	-2.22137409	-5.0362287659	-0.461944182	 0.119417
H	 1.5232129027	-3.8788364121	 1.3752379478	 0.119014
H	 1.1148078059	-5.5909639716	 1.2347367513	 0.113634
H	 1.537967117	-4.6601756888	-0.2174603385	 0.120618
28.3741	52.4303	78.6687	111.2781	137.9729	187.8504	209.01	232.8271	244.9246	268.2981	290.7469	329.648	401.5048	424.9856	459.8829	508.2968	545.3731	818.0915	854.8468	923.7082	927.9468	936.5752	937.2201	948.9391	1078.6318	1115.9835	1135.4776	1151.5507	1157.5446	1178.0882	1178.9022	1185.6583	1201.0991	1226.8363	1265.1029	1337.4846	1367.2092	1375.6297	1379.6133	1394.9338	1400.8044	1411.9821	1433.5123	1477.7604	1479.9318	1483.2796	1485.8289	1493.0178	1494.8678	1501.5487	1509.7506	1513.0895	1524.6348	2953.3279	2965.0728	2975.2897	2977.2021	3014.8623	3024.3338	3036.882	3042.1743	3042.5607	3107.1987	3107.6318	3111.6789	3113.7323	3115.9102	3122.9319	3132.2951
COC(C)COC(C)C	CO[C@@H](C)COC(C)C	
InChI=1S/C7H16O2/c1-6(2)9-5-7(3)8-4/h6-7H,5H2,1-4H3	InChI=1S/C7H16O2/c1-6(2)9-5-7(3)8-4/h6-7H,5H2,1-4H3/t7-/m0/s1
