17
gdb 98309	2.99791	1.11579	0.95089	2.8121	65.42	-0.2626	0.0001	0.2627	1270.6982	0.133593	-496.100159	-496.090662	-496.089718	-496.135465	32.883	
C	-0.0966641301	 1.3195851197	-0.1514760582	-0.245614
O	-0.0880624125	-0.1099401819	 0.0041654502	-0.231192
C	-1.2866553784	-0.698238709	 0.0049549868	 0.439455
O	-2.3425000295	-0.1202954896	-0.0880325429	-0.371895
C	-1.1874540207	-2.2192004329	 0.1185404162	-0.020867
O	-2.4723096028	-2.7527527127	 0.2703142541	-0.428157
C	-0.4603149067	-2.7749240082	-1.1041191113	 0.058855
C	-0.9434234014	-3.9789333859	-1.7840466234	-0.168224
O	-1.1640104106	-2.6758336053	-2.3383582302	-0.238603
H	 0.9495540236	 1.6230453852	-0.142532428	 0.141164
H	-0.5705667776	 1.5956808906	-1.0960088567	 0.152322
H	-0.6406156013	 1.7886437272	 0.6715755918	 0.147911
H	-0.5795150669	-2.4558704581	 1.0041278015	 0.109295
H	-3.0835408799	-2.0402575171	 0.0291243046	 0.301471
H	 0.597573879	-2.5167098601	-1.1548480873	 0.103875
H	-0.2384298049	-4.6036484409	-2.3302381631	 0.113404
H	-1.8338511692	-4.4696979709	-1.401987834	 0.1368
54.5775	77.003	117.2262	121.9186	188.8604	227.844	268.1923	349.3789	373.8195	403.8025	463.8526	624.3621	660.1371	780.3476	810.0951	903.4183	918.6645	965.1582	1009.9504	1019.9136	1099.79	1154.4288	1164.5291	1173.6986	1177.9457	1209.5496	1239.6836	1287.3401	1300.8391	1349.4121	1412.4015	1447.7562	1476.6528	1482.5147	1495.6804	1514.9352	1812.9414	3008.1352	3058.2832	3096.6192	3115.6099	3137.2756	3168.4167	3201.044	3716.6007
COC(=O)C(O)C1CO1	COC(=O)[C@@H](O)[C@H]1CO1	
InChI=1S/C5H8O4/c1-8-5(7)4(6)3-2-9-3/h3-4,6H,2H2,1H3	InChI=1S/C5H8O4/c1-8-5(7)4(6)3-2-9-3/h3-4,6H,2H2,1H3/t3-,4+/m1/s1
