18
gdb 62196	5.43014	0.6021	0.56197	4.3038	79.87	-0.2537	0.0191	0.2727	1881.2734	0.146585	-398.080743	-398.070523	-398.069579	-398.116865	35.974	
N	 0.0650338949	 1.5260246676	-0.0869827649	-0.503645
C	 0.0187148945	 0.0645290109	-0.022609818	-0.132187
C	-1.4043383677	-0.5377627878	 0.0969813906	-0.137296
N	-2.0438557105	 0.0030772583	 1.2883426741	-0.306982
C	-3.4830631462	-0.2745659312	 1.35431557	-0.281712
C	-4.0527116905	 0.1756152754	 2.6189837126	 0.268102
C	-4.5097480478	 0.5266502924	 3.6727756586	-0.410727
C	 0.7051736489	-0.5162750353	-1.1835792415	 0.286456
N	 1.2091774656	-0.9892311949	-2.1091266448	-0.314993
H	-0.307095005	 1.83709346	-0.9807442888	 0.236812
H	-0.5761046272	 1.8669920545	 0.6267866874	 0.246531
H	 0.5849240947	-0.2431988382	 0.8687391117	 0.13061
H	-1.9877542836	-0.229729145	-0.7790909943	 0.118158
H	-1.3496600594	-1.6399702326	 0.0781341974	 0.106063
H	-1.6023624809	-0.3732163782	 2.122317904	 0.228767
H	-3.9685421978	 0.2518589744	 0.5219566928	 0.141539
H	-3.7178698658	-1.3459714771	 1.2169665592	 0.120599
H	-4.9216733062	 0.8437604767	 4.5989885138	 0.203905
43.5218	77.9609	92.0176	147.5622	155.8519	237.7001	273.6928	318.3828	328.4426	342.3274	419.6957	532.0507	579.2664	588.1583	620.4684	671.9276	787.5489	855.8972	907.9366	935.6231	966.824	1001.4015	1037.6964	1103.2365	1142.2715	1154.138	1200.4535	1235.2479	1295.8735	1318.5437	1354.7959	1398.9869	1421.17	1491.8578	1493.7323	1506.4455	1662.3471	2246.1127	2365.0478	2935.227	2956.7133	3006.3294	3031.0214	3058.3309	3473.7455	3504.897	3509.2048	3555.678
NC(CNCC#C)C#N	N[C@@H](CNCC#C)C#N	
InChI=1S/C6H9N3/c1-2-3-9-5-6(8)4-7/h1,6,9H,3,5,8H2	InChI=1S/C6H9N3/c1-2-3-9-5-6(8)4-7/h1,6,9H,3,5,8H2/t6-/m1/s1
