17
gdb 82774	2.96576	1.87722	1.53258	1.4381	65.52	-0.2493	0.0608	0.3101	886.2403	0.13897	-458.933937	-458.927653	-458.926709	-458.964353	26.471	
O	 0.0505633311	 1.4073725246	 0.0364710067	-0.455498
C	 0.0492792546	 0.0040611936	-0.0177664061	 0.188601
C	 0.5346141499	-0.6213826912	 1.3089556714	-0.024996
O	-0.5025233885	-0.1065145282	 2.2080885917	-0.317097
C	-1.3764608091	-1.0403063979	 1.5174318597	 0.044623
C	-0.194628912	-2.0099451431	 1.3358139721	 0.113615
O	-0.3077882885	-2.7292604064	 0.1372512899	-0.279163
C	-1.2696258821	-2.0158746718	-0.6725128325	-0.092107
C	-1.3750910238	-0.6483237153	 0.0027361228	-0.14288
H	-0.2952886495	 1.6292189226	 0.9126272507	 0.285385
H	 0.6347203844	-0.2924081796	-0.8910258409	 0.092724
H	 1.5511506408	-0.4291141878	 1.6499201849	 0.08723
H	-2.3110134445	-1.2542502354	 2.0328015314	 0.092968
H	 0.0752071076	-2.659169869	 2.1670630425	 0.102059
H	-0.893191431	-1.9604187152	-1.698846268	 0.11704
H	-2.2222979245	-2.5638407202	-0.6802509748	 0.103056
H	-2.1704085848	 0.0007143805	-0.3601728114	 0.08444
182.9981	280.0182	341.0648	370.5767	460.7238	535.3309	592.5933	629.7786	727.4847	769.428	822.4838	853.5699	857.4104	904.7943	917.0834	932.0159	952.934	989.6473	995.8939	1024.1281	1049.8446	1109.2937	1121.4802	1152.2518	1182.1205	1197.219	1208.3978	1237.9982	1242.5345	1265.7478	1287.3421	1300.8749	1330.3794	1339.935	1394.7552	1445.2543	1524.621	3006.027	3074.2181	3093.2421	3132.4261	3133.8847	3138.8083	3148.2824	3743.7412
OC1C2OC3C2OCC13	O[C@H]1[C@H]2O[C@@H]3[C@H]2OC[C@H]13	
InChI=1S/C6H8O3/c7-3-2-1-8-6-4(2)9-5(3)6/h2-7H,1H2	InChI=1S/C6H8O3/c7-3-2-1-8-6-4(2)9-5(3)6/h2-7H,1H2/t2-,3-,4+,5-,6-/m1/s1
