22
gdb 61806	2.16386	1.27019	1.04446	3.5766	82.92	-0.2479	0.0314	0.2793	1289.9807	0.192898	-404.372355	-404.362141	-404.361197	-404.407609	37.836	
C	-0.1815459922	 1.7689155362	 0.3285108954	-0.41565
C	-0.0111320185	 0.2775735846	 0.0207612969	-0.030147
N	 0.6409024812	 0.1168278327	-1.2818857017	-0.27765
C	 0.2556691816	-0.8033744834	-2.2025090032	 0.160005
O	-0.6451920642	-1.6061789864	-2.0635080773	-0.330288
C	 0.7126480482	-0.4934854477	 1.1257846247	 0.396472
C	 2.1189901308	-0.035179941	 1.4609982338	-0.480952
C	-0.1535805284	-1.0238855917	 2.2443366295	-0.311857
C	 0.4105550574	-1.9703067942	 1.2109419293	-0.313944
H	 0.7826823684	 2.2886080582	 0.3598086032	 0.114299
H	-0.799655523	 2.2516028004	-0.4335772065	 0.123748
H	-0.6616116631	 1.9033643041	 1.301620614	 0.12972
H	-0.998973944	-0.1753724336	-0.1026562576	 0.111925
H	 1.4044961868	 0.7304358775	-1.5192495975	 0.243218
H	 0.8616922471	-0.7369956013	-3.1285135847	 0.07367
H	 2.1406189864	 0.9916663328	 1.8430634975	 0.115068
H	 2.5614871302	-0.6774880107	 2.2281540989	 0.118922
H	 2.772466969	-0.0824301545	 0.5815698993	 0.107571
H	 0.2646018719	-1.0449238414	 3.2453086945	 0.106512
H	-1.2186057386	-0.8158524077	 2.2165710937	 0.110394
H	-0.2620341403	-2.3873471208	 0.4703159546	 0.144642
H	 1.2130930833	-2.6339533419	 1.5157966933	 0.104322
52.8125	74.7884	165.7896	192.8155	218.3922	239.3917	253.1856	267.1891	318.1178	340.3813	406.5787	487.7969	516.3049	529.6901	699.7799	782.4111	796.4069	874.0989	881.6214	916.3685	945.603	960.298	1016.8037	1029.7154	1050.1437	1076.2851	1085.0076	1105.8339	1133.0742	1141.0144	1189.5563	1211.6765	1293.9127	1325.4641	1343.8774	1399.8707	1407.3701	1426.6995	1430.8509	1473.2983	1489.6382	1491.2582	1499.1892	1505.4055	1510.1001	1524.0507	1796.2089	2929.6242	3023.1897	3037.0368	3074.2803	3081.8165	3101.073	3106.6377	3122.203	3125.0879	3134.8153	3204.759	3226.6067	3629.2848
CC(NC=O)C1(C)CC1	C[C@@H](NC=O)C1(C)CC1	
InChI=1S/C7H13NO/c1-6(8-5-9)7(2)3-4-7/h5-6H,3-4H2,1-2H3,(H,8,9)	InChI=1S/C7H13NO/c1-6(8-5-9)7(2)3-4-7/h5-6H,3-4H2,1-2H3,(H,8,9)/t6-/m1/s1
