14
gdb 5160	7.53069	1.21293	1.06948	2.3335	67.39	-0.2043	0.0102	0.2145	1048.3708	0.108604	-378.746816	-378.739725	-378.738781	-378.778738	25.917	
N	-0.2166164276	 1.3277029134	 0.0513599349	-0.428645
C	-0.4274066566	 0.1389819852	-0.3026630613	 0.109422
O	-0.2341793968	-0.8649623524	 0.5986019682	-0.211734
C	-0.6565496267	-2.1129458278	 0.2461052991	 0.376559
C	-1.8087417327	-2.5841316052	-0.3344850825	-0.267586
C	-1.6664563898	-4.0034126641	-0.4067009313	-0.132014
C	-0.4507295014	-4.3354468111	 0.1361170005	-0.092111
N	 0.1649501187	-3.1667905204	 0.5294316503	-0.296315
H	-0.376938539	 1.9568493045	-0.732617499	 0.236577
H	-0.7536292772	-0.2325940155	-1.2804018564	 0.109009
H	-2.6559041771	-1.9921645519	-0.6411809091	 0.103509
H	-2.3901991584	-4.6968671443	-0.8057029824	 0.099749
H	 0.0278675656	-5.2890552066	 0.2846037502	 0.122329
H	 1.067879949	-3.0759922138	 0.9620055986	 0.27125
60.1943	117.419	165.4338	339.751	435.9152	465.4223	481.9282	628.314	650.7357	706.7047	776.0656	790.2546	828.8592	845.205	891.9792	985.7163	1042.084	1052.0231	1062.2263	1107.4546	1145.7783	1256.6268	1278.9506	1303.3854	1398.7802	1428.491	1485.5627	1513.6096	1615.2651	1747.0272	3065.3102	3249.8775	3263.8794	3280.1323	3522.1153	3683.1503
N=COC1=CC=CN1	[NH][CH]Oc1ccc[nH]1	
InChI=1S/C5H6N2O/c6-4-8-5-2-1-3-7-5/h1-4,6-7H	InChI=1S/C5H6N2O/c6-4-8-5-2-1-3-7-5/h1-4,6-7H
