18
gdb 85303	2.47059	1.8599	1.33521	3.3909	73.13	-0.2536	0.0154	0.269	1000.0364	0.14923	-439.083674	-439.076167	-439.075223	-439.115538	29.611	
C	-0.2624940065	 1.5567807628	 0.1618763503	-0.401745
C	 0.0662581434	 0.0784120347	 0.0131226811	 0.127218
O	 0.9028297706	-0.0858416291	-1.1655682283	-0.285456
C	 2.1780386508	-0.552184476	-1.0242165138	 0.437435
N	 2.9895595663	-0.6524249254	-1.9879425217	-0.535305
C	 2.527443968	-0.9754611104	 0.3773459353	 0.003618
C	 1.3984422309	-1.8720524777	 0.9304148674	-0.267438
C	 0.776874216	-0.496791997	 1.2354822967	 0.069147
O	 2.1062049023	 0.0939746196	 1.2794152139	-0.291824
H	 0.6392470869	 2.1117963831	 0.4324517726	 0.14601
H	-0.6551332372	 1.9529748746	-0.7775582822	 0.130748
H	-1.0163967388	 1.7037761703	 0.9421594792	 0.11619
H	-0.8450228829	-0.5001518697	-0.184865964	 0.092331
H	 2.5531012956	-0.3322769262	-2.8557237998	 0.220083
H	 3.5765993975	-1.2481715351	 0.4736229963	 0.110028
H	 0.881600519	-2.5461287367	 0.2446130413	 0.118314
H	 1.7040799036	-2.3945725404	 1.8371064224	 0.121355
H	 0.2062661248	-0.3396590015	 2.1545818834	 0.089291
102.9927	165.3066	247.8193	269.8306	344.0253	414.2303	436.4673	462.1627	541.4048	668.2735	711.5894	761.1032	825.7954	878.3943	907.5102	916.3221	930.472	947.0811	958.9325	1011.8161	1031.984	1057.3495	1103.8297	1115.9679	1139.8732	1172.2799	1211.6381	1250.6019	1286.9522	1302.4671	1326.2562	1336.1092	1377.018	1400.3727	1404.7475	1485.0599	1487.865	1501.7686	1765.3178	3029.7073	3045.3486	3077.1903	3085.3222	3119.3841	3137.2887	3144.1574	3149.3746	3457.6095
CC1OC(=N)C2CC1O2	C[C@H]1O[C]([NH])[C@@H]2C[C@H]1O2	
InChI=1S/C6H9NO2/c1-3-4-2-5(9-4)6(7)8-3/h3-5,7H,2H2,1H3	InChI=1S/C6H9NO2/c1-3-4-2-5(9-4)6(7)8-3/h3-5,7H,2H2,1H3/t3-,4-,5+/m1/s1
