21
gdb 97735	2.79123	0.79099	0.73298	1.889	89.43	-0.235	0.0329	0.2679	1670.4778	0.180357	-387.05071	-387.039881	-387.038937	-387.087931	38.155	
C	-0.0168108714	 1.4863768585	 0.3262904617	-0.409664
C	 0.1027059144	 0.0083652505	 0.0305871608	-0.017116
C	 0.6798622821	-0.5329056504	-1.2485466875	-0.016321
C	 1.1958495242	 0.3496499577	-2.3623264427	-0.408859
C	 1.4583428653	-0.707563889	 0.0603012605	-0.231461
C	 2.6661057947	 0.0241077953	 0.2970107821	 0.078945
C	 3.6891797535	 0.6362690159	 0.488810384	 0.044311
C	 4.911812091	 1.377792097	 0.7884066508	-0.191267
O	 4.7346520668	 2.4072657023	 1.7552042431	-0.404499
H	 0.8668714791	 2.0414265886	 0.0059038023	 0.135485
H	-0.8914984538	 1.9148719112	-0.1751343848	 0.116162
H	-0.1339667487	 1.654045128	 1.4021687425	 0.118867
H	-0.7039856511	-0.5861607499	 0.452277568	 0.087816
H	 0.2218603073	-1.454165719	-1.5999641838	 0.08792
H	 1.7463725161	 1.211421421	-1.9802670586	 0.132624
H	 1.8763892237	-0.2103018361	-3.0123816514	 0.120412
H	 0.370328225	 0.7182278774	-2.981037851	 0.11595
H	 1.4509393731	-1.7091945625	 0.4813242366	 0.104529
H	 5.6969888419	 0.6698691951	 1.1004277796	 0.115322
H	 5.2839609215	 1.8804070674	-0.1116783702	 0.135945
H	 4.2638849654	 2.0183084311	 2.4996126782	 0.284899
26.0197	71.1434	94.1845	150.4771	162.2245	165.1168	218.4221	260.17	300.2672	334.0468	391.2474	457.3976	483.7453	583.2489	620.1409	733.312	747.7629	789.9584	913.9854	934.1745	965.6005	990.5204	1037.7204	1037.8804	1076.4321	1078.8863	1131.2314	1152.3422	1186.3887	1190.1195	1215.953	1264.0512	1353.1872	1373.333	1376.573	1419.3792	1421.2643	1424.7643	1434.5118	1484.9185	1492.472	1493.0274	1500.7212	1512.3268	2343.6167	2970.8015	3035.5795	3038.6351	3056.25	3092.4754	3094.0252	3119.2847	3127.3234	3135.436	3136.7819	3149.7258	3817.0181
CC1C(C)C1C#CCO	C[C@H]1[C@@H](C)[C@H]1C#CCO	
InChI=1S/C8H12O/c1-6-7(2)8(6)4-3-5-9/h6-9H,5H2,1-2H3	InChI=1S/C8H12O/c1-6-7(2)8(6)4-3-5-9/h6-9H,5H2,1-2H3/t6-,7+,8-
