15
gdb 22702	2.8309	1.24427	1.0209	2.3631	71.5	-0.2463	-0.0481	0.1983	1155.4887	0.111226	-453.81701	-453.80878	-453.807836	-453.850568	29.805	
O	-0.171978934	 1.4391907495	 0.1935402716	-0.396656
N	 0.0270990247	 0.0389657295	 0.2029835258	-0.314835
C	-1.0549865956	-0.5755902586	 0.01300954	 0.451328
C	-2.566883997	-0.4754666925	-0.1298047637	-0.120731
C	-2.4755978459	-1.6428684943	-1.1561075767	-0.22739
C	-1.5346333415	-2.0274674699	 0.0184387004	 0.149455
N	-2.6669708019	-1.5630447141	 0.9533862959	-0.346647
C	-0.7563296402	-3.2857582312	 0.2403306707	 0.040683
O	-0.4534851703	-4.0389354331	-0.6476555929	-0.23204
H	 0.7251787312	 1.7661246709	 0.3217452862	 0.310511
H	-3.2182153465	 0.3942292901	-0.1336759219	 0.115386
H	-3.3761807191	-2.2549692928	-1.2179187176	 0.124646
H	-2.0116413949	-1.4365266376	-2.119185191	 0.128569
H	-2.2672843204	-1.2054131247	 1.8271568137	 0.227876
H	-0.4635046087	-3.4730376813	 1.2967702696	 0.089844
49.3706	139.9803	155.5475	182.1864	255.7958	319.6909	391.6396	436.0959	509.8344	590.9055	687.8668	703.5055	762.9715	797.2818	849.3875	919.4503	954.1487	982.5996	1017.3808	1038.4821	1056.9956	1109.4918	1154.2012	1190.0512	1209.3868	1250.7951	1279.9277	1331.1219	1407.9325	1422.4906	1488.0896	1809.2515	1828.0095	2892.6571	3092.4526	3165.2703	3178.795	3394.8183	3816.9113
ON=C1C2CC1(N2)C=O	ON=C1[C@H]2C[C@@]1(N2)C=O	
InChI=1S/C5H6N2O2/c8-2-5-1-3(6-5)4(5)7-9/h2-3,6,9H,1H2	InChI=1S/C5H6N2O2/c8-2-5-1-3(6-5)4(5)7-9/h2-3,6,9H,1H2/t3-,5-/m1/s1
