20
gdb 120094	3.6117	1.08989	0.98242	1.5676	79.31	-0.2215	0.0615	0.2831	1290.4926	0.1703	-403.041374	-403.03288	-403.031936	-403.075069	32.325	
C	-0.0597067829	 1.4882170112	 0.0467271939	-0.390827
C	 0.3766346534	 0.0358428	-0.0276928335	-0.043512
O	 0.188359691	-0.4235649065	-1.3615973688	-0.25285
C	 0.5086222467	-1.7705501173	-1.5157265528	 0.135369
C	 0.7483936146	-2.4624979365	-2.8114196432	-0.16673
C	 1.774510202	-1.7913380236	-3.7409795728	-0.028169
C	 2.3579023198	-0.5224722486	-3.2599069373	-0.254355
N	 2.8532357609	-1.8075768725	-2.6988818031	-0.15168
C	 1.85531935	-2.410234074	-1.7365880832	-0.069968
H	 0.545050611	 2.1101055887	-0.6196286751	 0.128664
H	-1.1080111543	 1.590188959	-0.2476351136	 0.129307
H	 0.053603437	 1.8658446611	 1.0673094826	 0.117972
H	 1.4322430924	-0.0753331559	 0.2622939486	 0.101669
H	-0.2183298999	-0.5838816104	 0.6630605999	 0.091843
H	-0.0790183673	-2.41035157	-0.8477150634	 0.092537
H	 0.1414185388	-3.2972247963	-3.1389992797	 0.095379
H	 1.9698544591	-2.1920874271	-4.7305598302	 0.098329
H	 3.1102852154	-0.0688677773	-3.9001329798	 0.115462
H	 1.7768728241	 0.157863054	-2.6566551956	 0.151373
H	 2.2405827281	-3.186067108	-1.0849713329	 0.100187
66.5795	79.505	132.2637	231.3918	263.3934	302.1821	366.2089	450.0131	550.3542	653.1813	691.1916	724.9598	744.1757	773.6619	821.3597	879.5308	894.0278	912.7287	978.7815	999.34	1015.5434	1027.1357	1056.5995	1077.3321	1083.2895	1110.1235	1129.3031	1143.9558	1160.1145	1187.022	1219.8721	1250.3594	1281.3845	1295.4205	1344.0291	1360.5172	1393.1586	1413.8846	1463.0272	1484.4634	1493.9385	1499.1212	1528.7029	2970.4017	3008.4356	3041.0749	3045.1276	3118.7571	3122.2875	3128.3396	3157.0284	3172.9349	3189.4469	3265.9022
CCOC1C2C3CN3C12	CCO[C@H]1[C@H]2[C@H]3CN3[C@@H]12	
InChI=1S/C7H11NO/c1-2-9-7-5-4-3-8(4)6(5)7/h4-7H,2-3H2,1H3	InChI=1S/C7H11NO/c1-2-9-7-5-4-3-8(4)6(5)7/h4-7H,2-3H2,1H3/t4-,5+,6-,7+,8?/m1/s1
