18
gdb 101804	4.44962	0.7927	0.73416	4.3738	65.42	-0.2497	0.0368	0.2865	1525.541	0.146775	-513.397813	-513.387977	-513.387032	-513.433287	35.437	
N	-0.2281681368	 1.1013187393	-0.0850116945	-0.553167
C	-0.4541764524	-0.2056091227	-0.3665360701	 0.51822
O	-0.3543726265	-0.7023436947	-1.4741343791	-0.422861
O	-0.7735325714	-0.8825390344	 0.7581803482	-0.253447
C	-0.8873225191	-2.3119376547	 0.6245325489	-0.125627
C	-2.280430552	-2.7534581988	 0.1947418594	 0.106381
O	-2.6642920063	-2.2285419834	-1.0696779217	-0.457813
C	-2.3741094253	-4.2862308109	 0.1292261346	-0.058606
O	-3.6154286287	-4.674318195	-0.4116177889	-0.424161
H	-0.157108565	 1.7350927322	-0.8612868132	 0.277194
H	-0.4579298935	 1.4627371667	 0.8242619751	 0.273459
H	-0.1339134797	-2.6628078006	-0.0869501949	 0.134381
H	-0.6580429832	-2.7077265761	 1.6170802904	 0.123819
H	-3.015341359	-2.3908013456	 0.9267829635	 0.089541
H	-1.8732041987	-1.8871360277	-1.5170940923	 0.303612
H	-1.5329158649	-4.6736609706	-0.4730715834	 0.07848
H	-2.2983311655	-4.7241762567	 1.1312575684	 0.100101
H	-3.750012252	-4.0849814463	-1.1666227303	 0.290495
45.3303	73.1818	113.0128	168.6825	207.4	271.6673	292.3841	321.8807	356.103	460.2355	495.1226	505.5045	544.5996	556.1878	586.4186	680.1712	789.3172	866.5662	874.1541	925.4885	1037.9714	1090.1968	1102.843	1112.2693	1122.9376	1150.5038	1232.8471	1270.9248	1306.1682	1359.2297	1367.3353	1404.7809	1433.4976	1447.7971	1457.9451	1479.8621	1504.9106	1611.0015	1795.2429	2944.1533	3018.3819	3059.9504	3062.461	3119.8388	3624.0337	3665.8651	3753.0998	3757.2076
NC(=O)OCC(O)CO	NC(=O)OC[C@@H](O)CO	
InChI=1S/C4H9NO4/c5-4(8)9-2-3(7)1-6/h3,6-7H,1-2H2,(H2,5,8)	InChI=1S/C4H9NO4/c5-4(8)9-2-3(7)1-6/h3,6-7H,1-2H2,(H2,5,8)/t3-/m0/s1
