18
gdb 9722	2.88833	1.83489	1.598	4.7616	70.99	-0.2496	0.0338	0.2834	910.3853	0.155569	-344.005794	-343.99779	-343.996846	-344.038711	29.775	
C	-0.0022487865	 1.5315982005	-0.0416243017	-0.45317
C	 0.0252768504	-0.0013059651	-0.0024518966	 0.125124
C	 0.6710307947	-0.6523787683	-1.2826698813	-0.256583
C	 1.5974937029	-1.7678262975	-0.7372479818	-0.208186
C	 1.2618994857	-1.8325635813	 0.7708081124	-0.178242
N	 0.8007400844	-0.4910719844	 1.1524187475	-0.297877
C	-1.3606653166	-0.5010071003	 0.1438533205	 0.307037
N	-2.4454894137	-0.8904706271	 0.229537332	-0.352959
H	 1.0159407088	 1.9115859928	-0.1766476229	 0.118384
H	-0.6138611862	 1.8877445107	-0.8738977448	 0.142483
H	-0.4109001641	 1.9342388867	 0.888249502	 0.147497
H	-0.09387436	-1.0374259143	-1.9598536462	 0.127774
H	 1.2349921912	 0.108853209	-1.8281108067	 0.107007
H	 1.4425522453	-2.7248976856	-1.2415630494	 0.111438
H	 2.6474695158	-1.4928841694	-0.8782968548	 0.102803
H	 0.4449039622	-2.5409303859	 0.9503437155	 0.129982
H	 2.1040771358	-2.1359158084	 1.3967563681	 0.108331
H	 1.6032983698	 0.1222554578	 1.2674513083	 0.219157
32.2702	157.3284	185.1994	240.7462	256.6262	323.8164	402.0194	498.6967	587.0074	618.2909	627.6884	759.3085	789.6923	812.7122	870.4858	888.1225	916.2236	962.0538	1003.2563	1046.8425	1081.9966	1115.536	1160.1962	1170.4964	1230.1756	1257.4108	1290.8376	1314.0905	1331.3782	1361.6507	1407.0568	1459.349	1487.7267	1489.4101	1496.5362	1502.09	1512.7298	2353.0451	3041.3464	3044.3417	3051.7653	3068.7105	3096.2975	3110.3756	3116.8616	3121.9448	3135.7517	3499.4351
CC1(CCCN1)C#N	C[C@]1(CCCN1)C#N	
InChI=1S/C6H10N2/c1-6(5-7)3-2-4-8-6/h8H,2-4H2,1H3	InChI=1S/C6H10N2/c1-6(5-7)3-2-4-8-6/h8H,2-4H2,1H3/t6-/m0/s1
