19
gdb 85011	2.40226	1.59563	1.00712	0.2391	78.8	-0.2534	-0.0036	0.2497	1188.2779	0.160142	-419.279839	-419.270804	-419.269859	-419.313876	33.137	
C	-0.2573381762	 1.517675675	 0.0379744704	-0.399637
C	 0.0857153729	 0.0289734433	-0.0351526854	-0.114914
C	 0.9782894344	-0.4074073777	-1.2118049478	-0.303782
C	 2.0067813815	-1.3480599313	-0.6113872875	 0.369572
N	 2.8123237493	-2.0554521487	-1.2906621478	-0.540421
N	 1.8970283438	-1.2512101532	 0.7789084964	-0.121684
C	 2.7742782909	-1.932184731	 1.7072553506	-0.370175
C	 0.8470432572	-0.445009245	 1.2035040098	 0.413868
O	 0.5942271926	-0.1950725269	 2.3590146797	-0.375722
H	 0.650351466	 2.1303111529	 0.0222925661	 0.121928
H	-0.8814802694	 1.814773352	-0.8096294688	 0.120017
H	-0.7955685551	 1.735074747	 0.9636398573	 0.144157
H	-0.8491073265	-0.5463054455	-0.0421596527	 0.115323
H	 0.4401244726	-0.9007043333	-2.0225770267	 0.138392
H	 1.503525368	 0.4490615742	-1.648396161	 0.136183
H	 3.434865152	-2.6050352481	-0.6971520635	 0.214626
H	 2.6907501582	-3.019200536	 1.5995267687	 0.139824
H	 3.8165793589	-1.6405020862	 1.5411916366	 0.140685
H	 2.4696294188	-1.6427068215	 2.7135828954	 0.171758
55.8679	113.3646	162.3804	195.8999	222.3483	257.2036	303.3943	353.8318	394.6201	538.6751	569.9253	587.1642	607.5348	696.1209	751.7593	871.1758	894.9712	922.0708	939.8131	1019.02	1048.9198	1091.4594	1134.5085	1140.5865	1157.9368	1203.1663	1245.5122	1277.6051	1303.2185	1319.0652	1347.3778	1406.9329	1416.691	1455.0484	1475.8999	1494.8782	1496.1016	1500.0394	1513.0305	1740.5364	1831.3124	3028.2513	3032.9629	3040.6554	3058.1154	3091.257	3108.7525	3121.9174	3129.9551	3153.8085	3471.5257
CC1CC(=N)N(C)C1=O	C[C@H]1C[C]([NH])N(C)C1=O	
InChI=1S/C6H10N2O/c1-4-3-5(7)8(2)6(4)9/h4,7H,3H2,1-2H3	InChI=1S/C6H10N2O/c1-4-3-5(7)8(2)6(4)9/h4,7H,3H2,1-2H3/t4-/m0/s1
