22
gdb 103789	2.75445	0.85903	0.7391	1.2937	93.72	-0.2284	0.0459	0.2743	1672.8488	0.191688	-367.176572	-367.165556	-367.164612	-367.213886	39.12	
C	 0.1297890724	 1.5458348932	 0.1717793053	-0.384174
C	-0.3054289341	 0.1376986115	-0.2502673469	-0.227265
C	 0.5818593689	-0.4665242637	-1.3264564617	 0.342265
C	 0.5148128707	 0.1918389707	-2.6909529307	-0.466735
N	 1.8917134701	-0.9245970821	-0.8388536586	-0.353756
C	 0.8977044652	-1.9364129151	-1.2926342616	-0.334981
C	 0.3667304104	-2.8493706613	-0.3181081735	 0.124659
C	-0.0944023064	-3.6339178017	 0.4717584841	 0.112888
C	-0.6408751391	-4.5778315078	 1.4355356434	-0.501222
H	 1.1694420502	 1.5346065537	 0.5130810045	 0.131005
H	 0.0493065023	 2.2667954504	-0.6484716885	 0.109366
H	-0.4929597468	 1.9141406524	 0.9926212656	 0.110647
H	-0.2890012822	-0.5239492371	 0.6199096911	 0.116287
H	-1.3409280878	 0.154237458	-0.6144140736	 0.090643
H	 0.8668406074	 1.2282285005	-2.6462912236	 0.125992
H	 1.135113792	-0.3403488467	-3.4197019117	 0.111424
H	-0.5124446474	 0.2074807006	-3.0713931979	 0.125184
H	 2.5993588632	-0.8106175601	-1.5617907372	 0.2257
H	 1.0795720535	-2.386439584	-2.2676965153	 0.09743
H	-1.7235857003	-4.4533859649	 1.5501130423	 0.146348
H	-0.4574235035	-5.612896582	 1.1263075663	 0.147571
H	-0.1855202487	-4.4425971447	 2.4229112583	 0.150724
28.8226	70.2405	81.2153	99.3527	203.7772	212.5808	228.1959	266.9189	284.0846	347.0645	371.2273	396.1123	434.9092	536.6471	589.5417	689.0961	763.6244	786.8126	861.5336	882.9769	968.2166	978.8504	1009.8063	1040.9825	1052.5032	1053.4961	1083.0819	1100.7798	1137.857	1169.9291	1229.2805	1265.0902	1322.6304	1340.2456	1387.6163	1405.6927	1413.9697	1415.655	1444.4654	1475.2105	1477.421	1478.613	1488.9083	1499.8749	1506.9425	1510.7113	2368.2593	3025.1735	3025.4991	3029.2927	3037.1768	3084.5289	3086.6424	3087.1696	3094.522	3096.2257	3106.9593	3108.9421	3114.4817	3483.7485
CCC1(C)NC1C#CC	CC[C@@]1(C)N[C@H]1C#CC	
InChI=1S/C8H13N/c1-4-6-7-8(3,5-2)9-7/h7,9H,5H2,1-3H3	InChI=1S/C8H13N/c1-4-6-7-8(3,5-2)9-7/h7,9H,5H2,1-3H3/t7-,8+/m0/s1
