18
gdb 49226	3.82436	1.04263	0.88496	4.4429	81.06	-0.2465	-0.0564	0.1901	1303.2931	0.148046	-401.94891	-401.940808	-401.939864	-401.982213	30.546	
O	-0.1027632921	 0.0014439258	 0.00867558	-0.268113
C	-0.010066232	 1.2089731713	-0.0101006087	 0.070099
C	 1.2585639275	 1.9392901317	 0.0443373736	 0.245529
C	 1.3574653185	 3.2764930405	-0.0075423833	-0.151868
C	 2.7845195013	 3.7450923594	 0.0396026327	-0.349192
C	 3.5652952816	 2.4549541176	 0.3470260437	 0.327439
C	 5.0319065677	 2.366350733	 0.1673851267	-0.291056
N	 4.4473921103	 2.3830707973	 1.5226920913	-0.340633
C	 2.6096146946	 1.271985076	 0.1385490632	-0.376983
H	-0.9140462935	 1.8561150875	-0.0731321634	 0.065942
H	 0.5140844888	 3.9541921665	-0.0942181722	 0.111196
H	 3.077943965	 4.1908884509	-0.921810799	 0.127146
H	 2.9462533883	 4.5233363534	 0.79748671	 0.116004
H	 5.4896336403	 1.4234299329	-0.1210538658	 0.120474
H	 5.5601305764	 3.2489763078	-0.1867167393	 0.10793
H	 4.5617581825	 3.3067532894	 1.934602333	 0.225294
H	 2.6743570844	 0.5601016228	 0.9662281416	 0.139906
H	 2.8312211704	 0.7133488663	-0.7794411741	 0.120885
51.0127	113.681	160.445	281.3722	301.0052	377.5001	397.4957	436.8963	450.7637	551.4555	728.2294	776.2529	806.9198	839.6647	884.3324	903.5328	934.2281	946.6122	990.7331	1001.1779	1018.4041	1045.5423	1075.7636	1131.1593	1156.1217	1198.0856	1201.2282	1254.9376	1267.8937	1286.8419	1304.8547	1369.14	1402.9158	1420.3863	1465.9809	1477.3327	1513.7357	1681.2771	1786.4067	2874.2167	3004.2037	3034.0343	3034.5477	3092.2171	3098.2683	3181.9702	3188.6964	3485.0301
O=CC1=CCC2(CN2)C1	O=CC1=CC[C@]2(CN2)C1	
InChI=1S/C7H9NO/c9-4-6-1-2-7(3-6)5-8-7/h1,4,8H,2-3,5H2	InChI=1S/C7H9NO/c9-4-6-1-2-7(3-6)5-8-7/h1,4,8H,2-3,5H2/t7-/m1/s1
