18
gdb 72178	2.40193	2.21976	1.70112	0.5633	69.37	-0.2209	0.0738	0.2948	870.7282	0.150905	-439.043502	-439.036946	-439.036002	-439.073947	27.859	
O	 0.0994903725	 1.3901466238	-0.0551925166	-0.490457
C	 0.0313038243	 0.0054911584	-0.0506306946	 0.401744
C	 0.2108092432	-0.8267042873	-1.3214881906	-0.23198
N	-0.4559670519	-1.9512139164	-0.5475049676	-0.149078
C	 0.6212846301	-2.1941133339	 0.472155286	-0.196142
C	 0.7533819794	-0.7803463822	 1.0820311644	 0.017101
O	-0.1366073314	-0.6622274155	 2.2002129545	-0.28314
C	-1.4362249996	-0.9884794607	 1.6669204195	-0.130315
C	-1.2580055211	-0.8438090695	 0.1623759851	-0.067038
H	 0.078847518	 1.6886034235	 0.8619931661	 0.289161
H	-0.4316102635	-0.4960960878	-2.1406253918	 0.116429
H	 1.214333603	-1.050412693	-1.6940256013	 0.102222
H	 0.3145938217	-2.9327621022	 1.2155859661	 0.115353
H	 1.5220495259	-2.5566663129	-0.0285691057	 0.108214
H	 1.7405901178	-0.4345384219	 1.3882885445	 0.083454
H	-1.7406550003	-1.9998750979	 1.9666904692	 0.11177
H	-2.169796627	-0.2783454249	 2.0631220223	 0.112147
H	-2.1394022011	-0.5741380695	-0.4172525393	 0.090555
227.6385	277.8778	310.3744	351.9657	429.8229	456.4583	516.208	612.9182	638.371	692.6312	752.2257	808.2481	851.1657	863.7634	905.0259	925.4738	949.3205	974.8389	1008.9724	1035.6497	1054.223	1056.6277	1107.3895	1138.0174	1146.682	1162.3707	1196.2305	1222.1452	1230.4721	1242.857	1286.9747	1309.0427	1331.7258	1346.895	1376.1115	1396.1175	1494.9434	1519.5803	1529.4516	3017.2788	3057.9046	3067.3275	3070.9234	3117.66	3121.2028	3125.9763	3134.983	3789.5958
OC12CN3CC1OCC23	O[C@@]12CN3C[C@@H]1OC[C@@H]23	
InChI=1S/C6H9NO2/c8-6-3-7-1-5(6)9-2-4(6)7/h4-5,8H,1-3H2	InChI=1S/C6H9NO2/c8-6-3-7-1-5(6)9-2-4(6)7/h4-5,8H,1-3H2/t4-,5-,6+/m0/s1
