15
gdb 128183	1.85062	0.99606	0.67777	3.5579	72.81	-0.2409	-0.015	0.2259	1587.8528	0.106228	-450.18183	-450.169713	-450.168769	-450.224252	36.483	
C	-0.1699361421	 1.4641211361	 0.0464721593	-0.331422
N	-0.0070329372	 0.0294580508	-0.0650323626	-0.33274
C	 0.3425037464	-0.7519178329	 1.004176761	 0.464918
C	 0.4280748856	-2.1975044617	 0.6869354871	-0.41881
C	 0.6825461922	-3.0673205597	 1.6449386615	 0.448946
N	 0.7953815211	-3.8758765644	 2.5426190656	-0.493204
N	 3.1097744177	-1.5524656358	 3.6589104185	-0.012811
N	 3.2734344828	-0.5001647186	 3.9274182452	 0.009608
O	 0.5721130275	-0.2964441233	 2.114480737	-0.403528
H	 0.1344663655	 1.7460791484	 1.0549260288	 0.173737
H	 0.4575343511	 1.9919854764	-0.680241067	 0.123055
H	-1.2127317406	 1.7668855386	-0.1062696453	 0.124372
H	-0.2350272127	-0.4165145756	-0.9373881284	 0.243894
H	 0.3088573027	-2.5661873513	-0.325752984	 0.120952
H	 1.73460714	-4.1306099969	 2.8448481134	 0.283032
16.6136	30.6743	45.0761	54.8966	64.2375	80.3171	90.4665	127.4893	156.8077	291.449	388.3838	408.1196	475.0938	492.1328	550.6629	748.9644	769.4339	850.5929	938.2795	966.3534	1053.5015	1141.8124	1154.213	1170.1329	1228.594	1420.1004	1440.4017	1492.7602	1500.4452	1560.1216	1747.0015	2145.4115	2435.6655	3023.4438	3074.2868	3154.9422	3185.7988	3501.5471	3652.3349
CNC1=CC(=N)N=NO1	CNC(=O)[CH][C][NH].N#N	
InChI=1S/C4H6N4O/c1-6-4-2-3(5)7-8-9-4/h2,5-6H,1H3	InChI=1S/C4H6N2O.N2/c1-6-4(7)2-3-5;1-2/h2,5H,1H3,(H,6,7);
