14
gdb 98943	3.35026	0.98975	0.83479	1.6838	65.69	-0.2664	-0.0786	0.1877	1338.9352	0.099334	-470.027568	-470.018109	-470.017165	-470.063581	31.531	
N	 0.0532534635	 1.0395477941	-0.6293777067	-0.484069
C	-0.2779610787	 0.0389485181	 0.3616197951	-0.275019
C	 0.8952668897	-0.472075829	 1.1829145082	 0.424211
O	 2.0427216487	-0.1531184493	 1.075884271	-0.316439
O	 0.4505394725	-1.3837901502	 2.1251602332	-0.227893
C	 1.3743630785	-2.0550103988	 2.8844079051	 0.333448
N	 1.1899497565	-2.1353013997	 4.1277645151	-0.436142
C	 2.4406814884	-2.7159197094	 2.1589459524	 0.243486
N	 3.2863659628	-3.3153079979	 1.6469000527	-0.322177
H	 0.4686136091	 1.848559271	-0.1771999904	 0.24277
H	 0.7680005077	 0.6800116314	-1.2551337747	 0.244302
H	-1.0289397717	 0.4262492867	 1.060002724	 0.156033
H	-0.7452024961	-0.8304671582	-0.1172574057	 0.1533
H	 1.8964201691	-2.7233280188	 4.5692603908	 0.264188
40.3073	56.5309	78.9959	126.4762	194.3182	221.8185	274.9598	318.1733	382.0441	465.5729	554.0593	625.3392	666.5609	745.4387	808.5887	888.9074	913.1069	915.1261	950.3367	1056.2038	1130.2466	1159.594	1183.4594	1316.5775	1374.5698	1385.7837	1448.3846	1677.5369	1726.9375	1857.4681	2349.963	3042.6085	3079.5037	3503.1102	3509.6634	3574.3497
NCC(=O)OC(=N)C#N	NCC(=O)O[C]([NH])C#N	
InChI=1S/C4H5N3O2/c5-1-3(7)9-4(8)2-6/h7H,2,6H2	InChI=1S/C4H5N3O2/c5-1-3(7)9-4(8)2-6/h7H,2,6H2
