19
gdb 105417	2.67649	1.22088	1.02729	4.0833	72.14	-0.2467	-0.0219	0.2248	1218.4343	0.157037	-460.14561	-460.136091	-460.135147	-460.180757	33.931	
O	 0.3624538947	 1.3508472295	-0.0334946602	-0.414989
C	 0.2490532362	-0.0570367374	-0.0907631286	-0.107209
C	-1.1969043685	-0.5537487048	-0.0058678662	 0.40048
C	-2.0904592878	 0.0539614251	-1.0974707901	-0.336171
C	-2.2750335231	 1.5525950836	-0.9589451506	 0.155928
O	-2.0165920745	 2.3457345578	-1.8328981775	-0.26656
C	-1.3245405906	-2.0852116558	 0.1892181456	-0.345838
C	-1.9568054146	-1.7191407003	 1.5463081036	-0.064668
O	-1.7691993098	-0.3085221022	 1.3081383293	-0.317089
H	 0.208401545	 1.718674945	-0.9097038985	 0.300872
H	 0.7140098437	-0.4752336249	-0.9975202273	 0.093785
H	 0.7953885087	-0.4490364342	 0.7735608836	 0.112412
H	-1.6949032571	-0.1629299744	-2.0954781234	 0.114642
H	-3.084806382	-0.4037002763	-1.011383254	 0.120222
H	-2.6968255216	 1.876070249	 0.0135588012	 0.10793
H	-1.9743622911	-2.5975367218	-0.5217200183	 0.113989
H	-0.370741676	-2.6141960465	 0.2482124147	 0.114691
H	-3.0165978917	-1.9768649125	 1.660267785	 0.106645
H	-1.4141228598	-2.059122809	 2.4355407317	 0.110928
61.2166	84.0658	95.5258	124.5963	180.0663	242.0652	311.0174	352.6698	423.5086	439.4752	458.0362	519.348	722.2744	781.1144	817.89	869.9202	892.1314	938.4275	976.6871	1003.4373	1014.2218	1028.3803	1090.7757	1115.8171	1142.6947	1158.2055	1171.3707	1211.8673	1250.589	1271.2946	1300.9768	1302.7001	1351.5017	1398.999	1412.5166	1416.7007	1454.2931	1482.1259	1491.2437	1532.1696	1810.2	2940.5137	2984.8966	3022.3715	3024.7645	3062.8713	3073.9078	3076.8036	3089.5818	3131.3302	3822.3085
OCC1(CC=O)CCO1	OC[C@@]1(CC=O)CCO1	
InChI=1S/C6H10O3/c7-3-1-6(5-8)2-4-9-6/h3,8H,1-2,4-5H2	InChI=1S/C6H10O3/c7-3-1-6(5-8)2-4-9-6/h3,8H,1-2,4-5H2/t6-/m1/s1
