19
gdb 35281	3.34949	0.91118	0.81025	3.4158	80.89	-0.2427	0.03	0.2727	1443.6129	0.159574	-382.038065	-382.029248	-382.028304	-382.072558	32.362	
N	-0.1353138786	-1.1403979727	 0.2145592157	-0.344653
C	-0.057193915	 0.0142928615	 0.1985274759	 0.287019
C	 0.0360235582	 1.4473367079	 0.1742791377	-0.186167
C	 0.792775998	 2.1698542756	 1.2810614616	-0.280698
C	 1.3704469656	 2.1302826876	-0.100905654	 0.006703
C	 2.6070584295	 1.318766548	-0.4167802107	-0.17909
N	 3.8003512942	 2.1410087458	-0.252539483	-0.065602
C	 4.4532954399	 2.0977106835	 1.0526394432	-0.218786
C	 5.064407137	 1.4246910648	-0.1266201602	-0.220796
H	-0.850167058	 1.9345250475	-0.2177017325	 0.135362
H	 0.3590587559	 3.0919863767	 1.6496204133	 0.131541
H	 1.2489782046	 1.5460273088	 2.0412737083	 0.13763
H	 1.2903734057	 3.0441321906	-0.6812474299	 0.113359
H	 2.6299615096	 0.4075340894	 0.2065486279	 0.100104
H	 2.5703551429	 0.9883327765	-1.4618610269	 0.118557
H	 4.8466633191	 3.0418409345	 1.4178182856	 0.119107
H	 4.0237804844	 1.4555876399	 1.820081531	 0.110623
H	 5.0389066799	 0.3361840378	-0.1442930604	 0.115594
H	 5.911527837	 1.8687712463	-0.6412131027	 0.120195
54.3379	88.0403	94.6679	191.8397	216.0218	320.1532	353.6069	382.8515	455.9358	554.4942	614.6569	764.9759	781.2238	820.1314	839.5114	875.9286	905.6088	918.7375	958.5149	1018.8042	1033.1392	1067.1984	1076.929	1112.2648	1119.2757	1120.8432	1130.4173	1159.6044	1174.7037	1203.0446	1228.4509	1288.0008	1323.1489	1354.0521	1380.2568	1431.6235	1483.7935	1489.1933	1497.6897	1522.9584	2350.0545	2953.5691	3051.3572	3095.2569	3099.8852	3144.3793	3163.29	3173.0447	3179.2037	3193.3407	3234.7975
N#CC1CC1CN1CC1	N#C[C@H]1C[C@H]1CN1CC1	
InChI=1S/C7H10N2/c8-4-6-3-7(6)5-9-1-2-9/h6-7H,1-3,5H2	InChI=1S/C7H10N2/c8-4-6-3-7(6)5-9-1-2-9/h6-7H,1-3,5H2/t6-,7+/m1/s1
