25
gdb 122023	5.11491	0.49073	0.46433	2.2778	87.42	-0.2513	0.0799	0.3312	2398.7031	0.226193	-426.616404	-426.604421	-426.603477	-426.654741	41.574	
C	-0.0294202838	 1.3982432384	 0.0601190266	-0.226603
O	-0.0043615563	-0.0061585359	 0.0072414116	-0.233641
C	 0.6746935286	-0.5878392988	 1.0999155663	-0.053698
C	 0.6796320145	-2.1092544178	 0.9413446477	 0.007537
C	 1.4063718	-2.517966356	-0.3467388526	-0.391216
C	 1.2752773811	-2.7600793327	 2.2024754777	-0.192041
C	 1.1655884712	-4.2877278547	 2.2405653086	-0.176727
C	 1.6738025449	-4.8787979223	 3.5491792889	-0.072745
O	 1.5455571475	-6.2909022821	 3.4722126613	-0.421709
H	 0.9853739415	 1.8277235733	 0.0450738789	 0.101712
H	-0.5744520807	 1.7512898006	-0.818991862	 0.125238
H	-0.5402467168	 1.7653884473	 0.9650584657	 0.101142
H	 1.7115423906	-0.2074476198	 1.1513778899	 0.07828
H	 0.1805314269	-0.3046709988	 2.0456342388	 0.078609
H	-0.3714729848	-2.4192628417	 0.8588135771	 0.081376
H	 1.3053162931	-3.5878081967	-0.5481252943	 0.114769
H	 0.9987833901	-1.9701776726	-1.1991615937	 0.131568
H	 2.4775028598	-2.2893456645	-0.2781850671	 0.104126
H	 2.331343582	-2.4670670459	 2.2938648642	 0.091621
H	 0.7682537188	-2.3467014145	 3.0857306998	 0.089066
H	 0.1210441662	-4.5941891115	 2.1037594811	 0.10433
H	 1.734326637	-4.7404725074	 1.4213412386	 0.110848
H	 2.7242620671	-4.5824990123	 3.7074268341	 0.082014
H	 1.0923243712	-4.4713606733	 4.3929833238	 0.081819
H	 1.8635879304	-6.6672541802	 4.297818639	 0.284326
50.0443	71.963	83.094	100.4539	121.0448	144.4585	202.6983	229.7094	249.0566	263.6665	281.2165	308.1392	366.3084	423.4837	507.1191	540.0837	759.2245	841.7913	874.0326	930.6492	953.1161	989.4328	1014.0919	1019.89	1058.7225	1077.7084	1127.2454	1161.7473	1169.4352	1181.2689	1194.0935	1215.8036	1229.6997	1242.656	1272.8623	1294.7443	1310.0993	1322.4291	1338.6871	1382.4432	1393.7466	1407.2193	1425.3577	1463.8244	1479.7761	1485.1463	1485.6921	1495.8723	1501.4582	1504.0223	1508.9209	1527.1498	1529.3792	2933.91	2955.2715	2963.9115	2967.1698	2979.969	2998.0879	3007.3904	3011.998	3028.7872	3033.1929	3038.1138	3084.7983	3102.0186	3110.4244	3130.0983	3830.0653
COCC(C)CCCO	COC[C@@H](C)CCCO	
InChI=1S/C7H16O2/c1-7(6-9-2)4-3-5-8/h7-8H,3-6H2,1-2H3	InChI=1S/C7H16O2/c1-7(6-9-2)4-3-5-8/h7-8H,3-6H2,1-2H3/t7-/m0/s1
