15
gdb 45071	2.54516	1.68852	1.15255	6.8126	69.25	-0.2655	-0.0387	0.2267	1026.0453	0.113715	-416.820717	-416.813266	-416.812322	-416.853129	27.991	
O	 0.0190680239	 0.0032204938	-0.2200758284	-0.279054
C	-0.0291715538	 1.1713018887	 0.0272317198	 0.394675
C	-1.285613028	 1.9923969071	 0.3434160522	-0.319455
C	-0.7660553515	 3.27488056	 0.9503346957	-0.048181
N	 0.1312211197	 3.0175975449	 2.0909785736	-0.318975
C	 0.7128502933	 3.3598463084	 0.7867717867	-0.053867
C	 1.2104343248	 2.1328210219	 0.0408400362	-0.271476
C	 2.4083411436	 1.5176864308	 0.5949750692	 0.311635
N	 3.3705328987	 1.0533291042	 1.0340142966	-0.32163
H	-1.8285178281	 2.175529576	-0.5925922995	 0.13684
H	-1.9404205897	 1.4201563919	 1.0049771858	 0.153494
H	-1.3764220996	 4.1710642766	 0.941027169	 0.105864
H	 0.166987272	 3.8196398076	 2.7137336732	 0.247031
H	 1.2238207609	 4.305973987	 0.6509448839	 0.112822
H	 1.4086033439	 2.392621701	-1.0089952839	 0.150276
67.1325	135.2068	160.7573	338.2643	379.9736	408.6204	469.711	510.796	584.0659	633.5637	682.9751	756.3606	832.9066	865.6193	872.1083	946.9054	957.8685	1009.0002	1047.3037	1060.9656	1090.0984	1140.4461	1152.05	1188.7539	1228.2596	1244.8736	1294.9097	1315.639	1373.7737	1427.4449	1443.2413	1873.5508	2366.5158	3021.4885	3043.1272	3110.9792	3172.6548	3183.7228	3523.2645
O=C1CC2NC2C1C#N	O=C1C[C@H]2N[C@H]2[C@H]1C#N	
InChI=1S/C6H6N2O/c7-2-3-5(9)1-4-6(3)8-4/h3-4,6,8H,1H2	InChI=1S/C6H6N2O/c7-2-3-5(9)1-4-6(3)8-4/h3-4,6,8H,1H2/t3-,4+,6-/m0/s1
