18
gdb 77140	2.91908	1.20233	0.91068	2.2723	74.62	-0.2492	-0.0394	0.2098	1273.4735	0.144805	-439.124764	-439.115089	-439.114145	-439.160002	33.83	
C	-0.2906064626	 1.4566038502	 0.0257311073	-0.401272
C	 0.0660338388	-0.0227939068	-0.0287072303	-0.071066
N	 0.9271910657	-0.4608655812	-1.1464059177	-0.092343
C	 1.9939609059	-1.03908328	-0.316714111	-0.307317
C	 1.1884819144	-0.5277566016	 0.9021557055	 0.378498
O	 1.3784908941	-0.5076300795	 2.0782900477	-0.274477
C	 0.5016361159	-0.7390123612	-2.4154036545	 0.370785
C	 1.5063201772	-1.4603931213	-3.2970891453	-0.488405
O	-0.6079800352	-0.4069523736	-2.7928393017	-0.362211
H	 0.6050539865	 2.0806175813	-0.0440103148	 0.120521
H	-0.955813924	 1.7014806653	-0.8050812811	 0.157071
H	-0.7994235727	 1.6802119329	 0.9678915752	 0.135841
H	-0.8434882305	-0.6351182435	 0.0474142584	 0.122753
H	 2.085317613	-2.131885028	-0.3627652803	 0.140285
H	 2.9861365631	-0.5904276221	-0.4416780455	 0.14328
H	 2.492299437	-0.9878902613	-3.2553537361	 0.136261
H	 1.6246559064	-2.5001620905	-2.9715198354	 0.13981
H	 1.1369570269	-1.4539858192	-4.3221584603	 0.151987
63.2697	85.2741	114.7513	144.069	152.2112	206.3534	217.2152	336.8202	404.4914	450.1516	554.0512	568.8322	600.5775	632.185	732.8761	797.6512	910.2692	939.2059	1011.8733	1030.7992	1051.7846	1078.7939	1111.3417	1138.1346	1141.1473	1163.995	1265.8843	1275.1368	1346.5741	1379.224	1398.228	1425.7044	1469.2271	1478.6276	1482.913	1484.0372	1501.9262	1766.557	1927.8178	3015.6621	3022.4826	3041.7186	3046.9461	3069.1669	3104.5014	3121.4975	3138.0263	3161.9652
CC1N(CC1=O)C(C)=O	C[C@H]1N(CC1=O)C(=O)C	
InChI=1S/C6H9NO2/c1-4-6(9)3-7(4)5(2)8/h4H,3H2,1-2H3	InChI=1S/C6H9NO2/c1-4-6(9)3-7(4)5(2)8/h4H,3H2,1-2H3/t4-/m1/s1
