13
gdb 127749	2.15673	1.9087	1.01911	2.0607	69.05	-0.2553	-0.0538	0.2015	1067.4681	0.090278	-448.939986	-448.93206	-448.931116	-448.972811	28.025	
C	-0.0775419791	 1.425598783	 0.0160176291	-0.340167
N	-0.0076301326	-0.0228304088	 0.0789830049	-0.032234
N	 0.0030394742	-0.7525815625	-1.028787932	-0.126425
N	 0.0701584225	-2.0206854917	-0.6870714572	-0.271689
C	 0.1031670568	-2.1032838946	 0.656722461	 0.280463
O	 0.1718516048	-3.2571703116	 1.321508815	-0.40706
C	 0.0547320981	-0.8238581439	 1.1936293884	 0.177491
C	 0.0606072376	-0.3402906871	 2.5131162906	 0.238947
N	 0.0646152052	 0.0806957655	 3.593039829	-0.350654
H	 0.8043043591	 1.8674489976	 0.4861784595	 0.167208
H	-0.1142175523	 1.6959134732	-1.0384889585	 0.178237
H	-0.9749570619	 1.7833092623	 0.5265199994	 0.167222
H	 0.1909741177	-3.9675982213	 0.6659535107	 0.318661
99.5525	129.9788	149.1152	196.5645	288.3531	364.5937	416.3341	421.9277	532.6975	561.4982	596.0397	679.1595	680.9569	755.2986	835.5154	1060.9969	1101.4489	1152.7045	1171.5285	1260.4422	1306.6753	1353.4662	1411.0379	1454.1285	1480.3946	1494.1544	1523.5384	1656.9128	2341.6565	3060.4553	3131.2912	3176.0497	3782.9681
CN1N=NC(O)=C1C#N	Cn1nnc(O)c1C#N	
InChI=1S/C4H4N4O/c1-8-3(2-5)4(9)6-7-8/h9H,1H3	InChI=1S/C4H4N4O/c1-8-3(2-5)4(9)6-7-8/h9H,1H3
