23
gdb 57533	3.23301	0.93779	0.88869	2.5305	82.12	-0.2429	0.0652	0.3081	1453.0763	0.20261	-425.404552	-425.394135	-425.393191	-425.440291	38.443	
C	-0.0653500972	 1.6082280577	 0.2162537444	-0.408319
C	 0.0111225891	 0.0825909695	 0.046239388	 0.353912
C	 0.7682306572	-0.5638463168	 1.2158194379	-0.410942
C	-1.3976280375	-0.5062356327	-0.0684193094	-0.39903
O	 0.620715556	-0.2507645656	-1.2178429398	-0.291546
C	 1.9854067217	-0.0013571445	-1.3881778744	 0.087536
C	 2.9932417921	-1.1563233484	-1.151716746	-0.095611
O	 3.520980111	-1.0027032444	-2.4849119094	-0.274496
C	 2.4484402527	-0.1096351002	-2.8518160082	-0.101349
H	 0.924849994	 2.0623034751	 0.3183111591	 0.114728
H	-0.5641399712	 2.0588949127	-0.6464554924	 0.121498
H	-0.6337662588	 1.8629935832	 1.1160587255	 0.115454
H	 0.2478994428	-0.3696765766	 2.1587366393	 0.115876
H	 0.8347307824	-1.6472820583	 1.0799071425	 0.122031
H	 1.7822634363	-0.1633526758	 1.3113028726	 0.114575
H	-1.9205380615	-0.070760025	-0.9243902053	 0.120958
H	-1.3455264331	-1.588432768	-0.2156936774	 0.11903
H	-1.978933406	-0.302900961	 0.8356200817	 0.110188
H	 2.2993243878	 0.9339321651	-0.9120229666	 0.078549
H	 3.7645529041	-1.0194371307	-0.3848832873	 0.098489
H	 2.4969610106	-2.1257263126	-1.0101192073	 0.099129
H	 1.6966710556	-0.5972002829	-3.4862022349	 0.106877
H	 2.8137693418	 0.7992454202	-3.3419975126	 0.102463
48.9201	76.6918	100.9426	186.8488	198.0149	245.4562	271.754	304.2415	318.0232	334.8827	385.971	448.0201	482.7711	497.3559	711.4851	768.2492	870.7573	880.0984	907.7287	914.2061	923.452	956.0267	1013.2761	1024.035	1031.7565	1040.5361	1052.6314	1134.6556	1152.3224	1162.0857	1192.4561	1224.8388	1253.3078	1267.5009	1281.6032	1296.4855	1348.5649	1393.8388	1395.6681	1416.6047	1425.7728	1471.5312	1482.6255	1485.565	1497.4087	1498.4918	1500.7724	1517.4913	1527.2138	3004.6121	3019.4244	3035.1768	3037.0089	3041.4861	3047.3194	3064.2928	3075.2292	3104.9068	3110.3707	3113.9705	3116.2467	3121.5569	3122.9782
CC(C)(C)OC1COC1	CC(C)(C)OC1COC1	
InChI=1S/C7H14O2/c1-7(2,3)9-6-4-8-5-6/h6H,4-5H2,1-3H3	InChI=1S/C7H14O2/c1-7(2,3)9-6-4-8-5-6/h6H,4-5H2,1-3H3
