16
gdb 34710	3.13341	1.70195	1.5152	1.6429	77.73	-0.2305	-0.0029	0.2276	913.105	0.125139	-363.523374	-363.516524	-363.51558	-363.554385	28.03	
C	-0.0369066743	-1.2729748485	-0.1079530035	-0.44458
C	-0.0013287826	-0.0759890019	-0.0004782498	 0.358151
C	 0.0222165042	 1.3710854497	 0.0945727344	-0.155039
C	-0.2971460993	 2.117181703	 1.4637408387	-0.126711
C	 0.2628182823	 1.259822424	 2.5663003297	-0.09763
C	 1.5963297397	 1.2257517212	 2.4464389008	-0.068347
C	 2.0166832559	 2.1435376917	 1.3590905961	-0.058425
C	 0.8840645874	 3.0294600371	 1.0259538337	-0.053777
N	 1.3421120788	 2.0699241239	-0.0277429541	-0.163261
H	-0.0612261412	-2.3307599568	-0.198919603	 0.197066
H	-0.6043209253	 1.8047679839	-0.6904050023	 0.120072
H	-1.3034341851	 2.5132061786	 1.5819990565	 0.079676
H	-0.3452673765	 0.6258564822	 3.1986792032	 0.108355
H	 2.2838599062	 0.5975329174	 2.9971920616	 0.104687
H	 3.0421080483	 2.4724343367	 1.2470721648	 0.101576
H	 0.9009091216	 4.1068622979	 0.8989006132	 0.098187
125.4676	150.1504	320.3856	359.7559	496.501	542.4446	547.8572	623.1307	649.9308	654.0315	737.328	749.2147	803.6782	814.4421	838.5036	862.5636	904.8369	931.2182	942.2728	981.604	1008.3924	1027.985	1067.1938	1084.5685	1123.0295	1151.5954	1183.3991	1235.1601	1266.4127	1280.8983	1347.2963	1361.9873	1376.8579	1637.5054	2232.4805	3064.5255	3136.9397	3164.5047	3198.4629	3208.9	3232.9462	3503.2682
C#CC1C2C=CC3C2N13	C#C[C@H]1[C@H]2C=C[C@@H]3[C@H]2N13	
InChI=1S/C8H7N/c1-2-6-5-3-4-7-8(5)9(6)7/h1,3-8H	InChI=1S/C8H7N/c1-2-6-5-3-4-7-8(5)9(6)7/h1,3-8H/t5-,6+,7-,8+,9?/m1/s1
