27
gdb 102496	1.92684	1.25298	0.95493	0.9242	92.29	-0.2424	0.0775	0.3199	1456.8998	0.248378	-390.696042	-390.683943	-390.682999	-390.732769	44.774	
C	 0.5326409343	 0.9728507903	-0.8165949973	-0.388379
C	 0.1339865499	-0.436724197	-0.3693571983	-0.187101
C	-1.3323360464	-0.53658165	 0.0742084271	 0.120314
O	-2.1601886625	-0.1851194154	-1.0408179688	-0.258245
C	-2.956218039	 0.9657577153	-0.8711384955	-0.238433
C	-1.7688130844	-1.9321709313	 0.614105465	 0.266771
C	-0.9291704756	-2.3123045373	 1.8482634677	-0.418397
C	-3.2486037997	-1.851420869	 1.037107083	-0.414558
C	-1.623118431	-3.0109362043	-0.475026285	-0.40954
H	 1.5822880801	 1.0031516237	-1.1247811452	 0.108799
H	-0.0754609975	 1.2972213329	-1.6651978254	 0.128494
H	 0.4045359669	 1.7013799851	-0.0075151812	 0.106778
H	 0.3012111325	-1.1373701922	-1.1946597391	 0.105519
H	 0.7826977908	-0.7539877507	 0.4536893078	 0.094897
H	-1.4971980482	 0.1911621778	 0.885004297	 0.05717
H	-3.5241859832	 1.1016459812	-1.7961535999	 0.121779
H	-3.6663659677	 0.8621933932	-0.037889232	 0.104387
H	-2.3507391141	 1.8674192705	-0.6979945787	 0.104676
H	-0.9593431921	-1.5258129582	 2.611726437	 0.105707
H	-1.3219646502	-3.2274670875	 2.3042493572	 0.109358
H	 0.1186707123	-2.4984838188	 1.596561338	 0.113756
H	-3.8878536663	-1.6013262675	 0.187030161	 0.123786
H	-3.5844679953	-2.8126187088	 1.4405796322	 0.10462
H	-3.4003418337	-1.09563867	 1.8167935916	 0.100121
H	-0.5757334368	-3.1924765145	-0.7351215324	 0.107083
H	-2.0423823122	-3.9615514575	-0.128210089	 0.102435
H	-2.1539728508	-2.71312973	-1.3830033367	 0.128202
61.2066	86.0925	110.6449	175.3569	193.3666	200.0571	234.7861	256.3693	263.7015	285.236	302.2993	322.9196	339.4366	357.5072	400.3595	456.9795	490.408	543.1322	757.3753	780.4292	876.3679	931.1145	937.0402	938.4294	953.0018	956.4342	1025.1222	1032.3323	1068.4593	1104.1412	1128.2102	1149.9448	1182.8302	1208.9904	1235.8585	1246.8438	1274.2727	1303.6558	1326.2613	1377.5949	1388.8946	1392.9423	1397.0327	1404.0225	1428.7526	1476.5639	1479.2278	1482.6097	1487.4404	1488.6135	1494.0883	1497.2869	1506.1928	1506.4968	1509.1157	1516.0244	1525.1243	2966.2293	2986.1067	3023.219	3027.4452	3031.1715	3033.8911	3036.4201	3045.7007	3080.8142	3085.6559	3090.7077	3095.9375	3099.9867	3101.7433	3104.5121	3118.6975	3119.9634	3122.2019
CCC(OC)C(C)(C)C	CC[C@@H](OC)C(C)(C)C	
InChI=1S/C8H18O/c1-6-7(9-5)8(2,3)4/h7H,6H2,1-5H3	InChI=1S/C8H18O/c1-6-7(9-5)8(2,3)4/h7H,6H2,1-5H3/t7-/m1/s1
