23
gdb 69325	2.77969	1.31032	1.24236	1.7398	84.7	-0.2496	0.0821	0.3317	1190.9497	0.204596	-388.309297	-388.299845	-388.2989	-388.34256	37.23	
C	 0.0652146079	 1.5105597407	-0.0944649576	-0.485675
C	-0.0656774597	 0.0219105243	 0.0720715243	 0.420698
C	-1.316887873	-0.7102153788	-0.3899178444	-0.285337
C	-1.1448262381	-2.1435664422	 0.1632838085	-0.255272
C	-0.2621551739	-2.0195840481	 1.4430831269	 0.280448
C	-1.1231795211	-1.7655097792	 2.6925144374	-0.430067
C	 0.6290428641	-3.251373087	 1.6446281731	-0.436658
C	 0.5537476293	-0.7664944088	 1.1456338669	-0.029915
O	 1.1311715795	-0.7496402132	-0.168393439	-0.314603
H	 1.0076280554	 1.8655679613	 0.3300162393	 0.128309
H	 0.0462856355	 1.7846924473	-1.1552373782	 0.125637
H	-0.7614939807	 2.0324361189	 0.3995252949	 0.118793
H	-2.1967157487	-0.2133188342	 0.0373205278	 0.099256
H	-1.4333911257	-0.6913642943	-1.4787332211	 0.10274
H	-2.1016020775	-2.6290824342	 0.3759017067	 0.091043
H	-0.623824307	-2.7571393481	-0.5750529575	 0.110315
H	-1.7311591335	-2.6455700796	 2.9272399571	 0.114926
H	-0.499378693	-1.5502797298	 3.5675649824	 0.111601
H	-1.8018478653	-0.9172565954	 2.5524261914	 0.111675
H	 1.3082062168	-3.3763962507	 0.7961817896	 0.128781
H	 1.2329766527	-3.1616872015	 2.554793451	 0.106258
H	 0.0253382925	-4.1611882636	 1.7366021996	 0.109329
H	 1.1648027837	-0.3169166639	 1.927791401	 0.077717
119.1169	177.3954	186.7226	220.6601	224.2941	264.2579	313.8615	325.8751	369.0717	385.7864	403.5524	524.7132	551.7705	600.8823	709.0764	764.6165	849.1612	857.1682	903.6455	929.3469	945.4985	950.1198	979.3849	1002.7376	1017.2685	1035.7115	1048.4659	1099.2448	1168.6351	1200.4598	1211.2644	1243.6941	1250.5163	1267.6168	1317.0673	1336.9761	1350.1404	1395.4468	1410.3007	1416.2109	1455.0547	1476.1582	1485.1593	1487.6141	1489.5563	1494.7006	1500.1867	1504.2408	1510.6921	3023.4048	3027.2569	3030.1382	3035.0856	3061.5251	3073.439	3087.151	3092.0096	3093.5077	3097.6129	3106.4879	3110.5097	3116.9633	3121.1737
CC12CCC(C)(C)C1O2	C[C@]12CCC(C)(C)[C@H]1O2	
InChI=1S/C8H14O/c1-7(2)4-5-8(3)6(7)9-8/h6H,4-5H2,1-3H3	InChI=1S/C8H14O/c1-7(2)4-5-8(3)6(7)9-8/h6H,4-5H2,1-3H3/t6-,8+/m1/s1
