23
gdb 52706	2.01528	0.90997	0.738	1.3512	91.77	-0.2456	0.0477	0.2933	1721.793	0.201262	-388.273843	-388.261876	-388.260932	-388.313221	41.466	
C	 0.5757371657	 1.071849589	 1.0329133389	-0.497724
C	 0.3442389293	-0.3140339456	 0.6512999023	-0.003286
C	 0.1507370203	-1.4603468793	 0.3348550672	 0.133097
C	-0.1013271563	-2.8568222939	-0.0514971371	-0.038537
C	-1.585847741	-3.1092444311	-0.325832068	-0.388856
O	 0.5934468727	-3.2261363642	-1.2359270866	-0.26021
C	 2.0205946099	-3.2228981707	-1.1599693771	 0.156105
C	 2.5456025309	-4.4729310425	-0.4479527791	-0.391939
C	 2.520485108	-3.1279821966	-2.5973274563	-0.388025
H	 1.3293145605	 1.1502909017	 1.8242942517	 0.147269
H	 0.9265945764	 1.6633071324	 0.1800875653	 0.150496
H	-0.343649876	 1.5395915028	 1.402164913	 0.149518
H	 0.2116814501	-3.504042406	 0.7837605279	 0.087961
H	-2.1834328301	-2.8697322912	 0.5571882535	 0.120197
H	-1.9211765129	-2.4864896609	-1.1587414262	 0.131589
H	-1.7356877807	-4.159572299	-0.5886948407	 0.120053
H	 2.344123176	-2.3278061231	-0.6086741852	 0.077165
H	 2.183648941	-4.5375538505	 0.58252263	 0.114534
H	 2.2270660776	-5.3749438563	-0.9805472409	 0.11907
H	 3.63982462	-4.4604784985	-0.4113882957	 0.112197
H	 2.1361867869	-2.2229482371	-3.0746842741	 0.120924
H	 3.6140780396	-3.103531934	-2.6263173612	 0.108746
H	 2.178652622	-3.9919666455	-3.1766206518	 0.119654
20.7375	28.2947	66.6852	122.2937	143.951	188.125	206.5781	236.916	243.6889	284.1042	328.5601	350.1262	395.3948	442.5171	456.4431	543.1305	586.8756	730.1644	815.4041	888.1641	926.3026	942.3586	977.8669	1035.0375	1052.4019	1054.6216	1107.901	1113.5261	1146.6221	1158.8495	1187.3002	1207.895	1335.5444	1354.914	1372.6263	1391.1976	1398.3471	1404.4002	1413.5605	1414.5172	1477.4564	1478.9586	1480.4591	1481.8445	1485.1134	1494.6874	1495.4142	1509.3632	2362.9675	2966.058	2998.9655	3026.8172	3034.0645	3040.2243	3050.1674	3087.288	3088.6046	3103.8497	3107.7924	3113.568	3121.9848	3130.3559	3134.0142
CC#CC(C)OC(C)C	CC#C[C@@H](C)OC(C)C	
InChI=1S/C8H14O/c1-5-6-8(4)9-7(2)3/h7-8H,1-4H3	InChI=1S/C8H14O/c1-5-6-8(4)9-7(2)3/h7-8H,1-4H3/t8-/m1/s1
