18
gdb 68866	2.48235	1.83223	1.44742	2.7162	70.52	-0.2243	0.0678	0.292	958.2696	0.148453	-439.047017	-439.039303	-439.038359	-439.078614	31.532	
O	-0.019494472	 1.3591413227	-0.1311233172	-0.485838
C	 0.0282053426	-0.0285934983	-0.0511393259	 0.378683
C	-0.3219826823	-0.6996432768	 1.2723457251	-0.401613
C	-1.2586697236	-0.8101405645	 0.1014676457	 0.365063
O	-2.468651604	-0.1121864306	 0.1614659886	-0.482111
C	-1.1459068227	-2.0331883168	-0.7518265634	-0.158671
N	-1.0815457727	-1.6487953682	-2.1822392017	-0.351398
C	 0.1653814839	-1.9747562978	-1.4491804734	-0.018956
C	 0.964363237	-0.7456140094	-1.016681326	-0.283214
H	-0.9509923725	 1.6036592593	-0.0357072976	 0.278986
H	 0.210425902	-1.5851001448	 1.6071707221	 0.108431
H	-0.6257586923	-0.0193584695	 2.0605184574	 0.123336
H	-2.7656819338	-0.0222417618	-0.7544627094	 0.293713
H	-1.6161369676	-2.9701225045	-0.4666145297	 0.090064
H	-1.3440753876	-2.4480817721	-2.7546292145	 0.232787
H	 0.6861499956	-2.8881620142	-1.7174051507	 0.089409
H	 1.1863630546	-0.0941058206	-1.8665452286	 0.120334
H	 1.9127588354	-1.036759192	-0.5513173308	 0.100994
157.3124	184.0648	228.0594	290.4639	381.5357	391.7933	430.1369	492.2942	506.788	555.4518	563.8118	647.1956	738.6506	786.0076	816.175	868.0618	888.3588	921.6887	929.6372	939.9351	970.1759	1010.0958	1043.7707	1082.119	1118.6027	1138.9855	1166.8024	1180.414	1211.0009	1256.1783	1261.6889	1302.7233	1343.0601	1365.9373	1409.1359	1413.6103	1427.4366	1475.3492	1488.4659	3041.3393	3097.0566	3121.5393	3147.7587	3166.915	3219.1022	3496.789	3732.4076	3757.4698
OC12CC1(O)C1NC1C2	O[C@@]12C[C@]1(O)[C@H]1N[C@H]1C2	
InChI=1S/C6H9NO2/c8-5-1-3-4(7-3)6(5,9)2-5/h3-4,7-9H,1-2H2	InChI=1S/C6H9NO2/c8-5-1-3-4(7-3)6(5,9)2-5/h3-4,7-9H,1-2H2/t3-,4-,5-,6-/m0/s1
