19
gdb 124450	3.15388	1.25509	1.11986	1.9521	76.15	-0.2842	-0.0234	0.2609	1167.0418	0.159363	-415.390139	-415.381153	-415.380209	-415.424091	33.388	
C	 0.1481694895	 1.5053120702	 0.0251310479	-0.405653
C	-0.0035733093	-0.0318290029	 0.0070123231	 0.145807
C	 0.6691763029	-0.6420868269	 1.2469088234	-0.401669
C	-1.5037705858	-0.3993370604	-0.0159858635	-0.405657
C	 0.638334525	-0.5613999755	-1.2502001346	 0.405806
N	 1.6425602115	-1.4321368702	-1.2928996222	-0.284871
N	 1.8217987001	-1.5590354318	-2.6020983311	-0.076025
N	 1.0033232098	-0.8322781619	-3.3467597872	-0.099679
N	 0.2429361445	-0.1907710061	-2.5017265727	-0.260659
H	 1.2029178955	 1.7965628339	 0.0568680926	 0.116044
H	-0.3020515521	 1.9528755234	-0.8645308119	 0.137745
H	-0.3453362182	 1.9194819083	 0.9103387227	 0.111941
H	 0.1955986105	-0.251014544	 2.1528574695	 0.10811
H	 0.5775980117	-1.731715891	 1.2550577005	 0.121873
H	 1.7343858287	-0.3977355846	 1.2839392993	 0.121853
H	-1.9914674012	 0.0049602917	-0.9066088192	 0.13773
H	-1.6433042976	-1.4850828868	-0.0138773265	 0.116049
H	-2.0024743828	 0.0089185183	 0.8690556815	 0.11195
H	 2.5252653376	-2.1608251037	-3.0032156517	 0.299304
35.4611	156.1735	198.5434	216.4965	270.3957	275.1027	326.7564	335.6064	338.3489	450.8586	483.0444	568.6205	597.6664	736.4736	808.0389	839.1626	936.4476	946.2921	967.2181	1031.5193	1047.474	1052.161	1061.2008	1125.5635	1181.4718	1228.6321	1230.2072	1242.601	1279.0704	1344.5628	1395.8734	1401.1202	1427.5502	1467.5898	1475.9444	1484.8751	1488.3286	1499.7692	1501.4714	1514.024	1542.0491	3033.2406	3035.2122	3042.2824	3101.9277	3104.1187	3112.3375	3117.5384	3120.9293	3124.4298	3650.5798
CC(C)(C)C1=NNN=N1	CC(C)(C)c1n[nH]nn1	
InChI=1S/C5H10N4/c1-5(2,3)4-6-8-9-7-4/h1-3H3,(H,6,7,8,9)	InChI=1S/C5H10N4/c1-5(2,3)4-6-8-9-7-4/h1-3H3,(H,6,7,8,9)
