14
gdb 56614	2.04312	1.37086	0.88949	3.3456	69.24	-0.277	-0.0567	0.2203	1235.4255	0.096925	-436.654091	-436.644432	-436.643488	-436.689472	33.13	
O	-0.1896756814	 1.3638317817	 0.0599307068	-0.406887
C	 0.0197706743	-0.0311175655	-0.0546891229	-0.054295
C	 0.732852575	-0.4038852967	-1.2723185022	 0.282339
C	 1.3623551051	-0.6760291697	-2.258596967	-0.403025
C	 0.7681992867	-0.5565416133	 1.2177622996	-0.259434
C	 0.0957499559	 0.0414325543	 2.470234778	 0.174802
O	 0.682704342	 0.712676901	 3.2679903895	-0.223824
C	 0.7337140689	-2.0134990263	 1.2890112128	 0.271679
N	 0.6644410695	-3.1648997788	 1.3623781024	-0.303717
H	 0.6363454828	 1.8156393284	-0.1494391895	 0.299028
H	-0.9822637604	-0.4749194069	-0.0615046562	 0.146672
H	 1.8995302113	-0.9299692329	-3.1398499572	 0.217431
H	 1.8062060161	-0.2104521376	 1.2027270105	 0.149332
H	-0.9816269358	-0.2059266578	 2.5687915752	 0.109897
50.723	76.6179	106.091	167.0724	194.302	206.2368	267.238	323.6334	406.3527	428.0198	485.5458	515.8564	580.0844	597.841	658.4096	694.5876	883.8685	952.1132	1014.8934	1029.4144	1063.7126	1100.6926	1198.094	1258.6379	1295.0253	1348.6908	1415.287	1420.4369	1852.2263	2239.9751	2356.2782	2921.5664	3053.1921	3081.6151	3499.1892	3801.8198
OC(C#C)C(C=O)C#N	O[C@@H](C#C)[C@@H](C=O)C#N	
InChI=1S/C6H5NO2/c1-2-6(9)5(3-7)4-8/h1,4-6,9H	InChI=1S/C6H5NO2/c1-2-6(9)5(3-7)4-8/h1,4-6,9H/t5-,6+/m1/s1
