21
gdb 70999	2.91787	1.57274	1.41556	1.8504	83.01	-0.24	0.0582	0.2982	1035.7829	0.183842	-386.991841	-386.984279	-386.983335	-387.023164	31.725	
C	-0.0924333206	 1.5664429142	 0.0435720926	-0.493607
C	-0.0348696022	 0.0575724393	 0.0173374103	 0.250378
C	 1.0489853403	-0.7367129154	-0.9069603464	-0.360892
C	 0.7448541871	-1.8792376347	 0.1217711026	 0.234063
C	 1.207375147	-2.7276968519	 1.3397666518	-0.205609
O	 0.4764391962	-1.7795269887	 2.2163746502	-0.329602
C	 0.6916920809	-0.7928509716	 1.1353354601	 0.123189
C	-0.7475770049	-2.1685647179	-0.2008190985	-0.229156
C	-1.3141649816	-0.7253269255	-0.2864070417	-0.242797
H	 0.8773056332	 2.0017406751	 0.3060560492	 0.11523
H	-0.3848712277	 1.9660899964	-0.9342135853	 0.118573
H	-0.8292707947	 1.9149188276	 0.7761503208	 0.124271
H	 0.7638141894	-0.8870261753	-1.952693984	 0.099822
H	 2.049568096	-0.3078468878	-0.8388873774	 0.108001
H	 0.818522009	-3.7449103709	 1.4385039242	 0.111538
H	 2.281343944	-2.6985342627	 1.5569244443	 0.106137
H	 1.6636888442	-0.3225442409	 1.3373172283	 0.072456
H	-0.8392460682	-2.7190204986	-1.142355038	 0.091037
H	-1.229895515	-2.7512036478	 0.5850926833	 0.111135
H	-2.0935407466	-0.5333720039	 0.4571715904	 0.103536
H	-1.7221111758	-0.473489719	-1.2704459468	 0.092298
206.299	220.3331	237.2875	270.414	322.9721	372.1486	457.8131	467.0747	573.6288	582.4985	638.8623	748.5522	792.325	823.663	849.9118	852.9227	901.6931	923.9881	952.06	957.7443	987.7681	1000.4895	1012.536	1024.8001	1084.8235	1127.9595	1151.9543	1156.5355	1181.9898	1215.6606	1226.9306	1238.4439	1250.382	1267.1758	1299.7682	1326.3798	1339.172	1412.2665	1416.7545	1483.4294	1485.9666	1491.0173	1494.4271	1507.378	1513.6574	3001.9961	3025.3383	3032.0225	3044.7329	3054.2177	3058.0314	3085.4569	3089.617	3097.3437	3100.9739	3122.8232	3135.0209
CC12CC3(COC13)CC2	C[C@@]12C[C@]3(CO[C@H]13)CC2	
InChI=1S/C8H12O/c1-7-2-3-8(4-7)5-9-6(7)8/h6H,2-5H2,1H3	InChI=1S/C8H12O/c1-7-2-3-8(4-7)5-9-6(7)8/h6H,2-5H2,1H3/t6-,7-,8+/m1/s1
