27
gdb 122140	1.76478	0.94261	0.6578	0.8184	93.58	-0.2407	0.084	0.3247	1869.0917	0.249279	-390.702982	-390.690759	-390.689815	-390.741597	43.246	
C	-1.0841173453	 1.2292261004	-0.4956259606	-0.382126
C	-0.4129216315	-0.1395723741	-0.3583421181	-0.183648
C	 0.1302875973	-0.6573340282	-1.6838654934	-0.038684
O	 0.7293691935	-1.9194176158	-1.4611177679	-0.270303
C	 1.2947663925	-2.5548014091	-2.6108145552	 0.134643
C	 2.7988621822	-2.7520597318	-2.3872208193	-0.166425
C	 3.5678857711	-1.4461205489	-2.1776395099	-0.390754
C	 0.5755037035	-3.8870102505	-2.8539205453	-0.166423
C	-0.9239927937	-3.7392490862	-3.1193939747	-0.390762
H	-0.3816631126	 1.9833741444	-0.8676493827	 0.115369
H	-1.9287392985	 1.1921775942	-1.1926382828	 0.115365
H	-1.4654676974	 1.5790728134	 0.4680206444	 0.11624
H	 0.4130798846	-0.0882725644	 0.3605182138	 0.10486
H	-1.1236312648	-0.8741848355	 0.0377725645	 0.10485
H	-0.6865301908	-0.7381566993	-2.4201463808	 0.083804
H	 0.8645628416	 0.055476931	-2.0944999052	 0.083779
H	 1.1479594933	-1.9058783791	-3.4894194508	 0.061428
H	 2.9302921399	-3.4015864832	-1.5126297075	 0.100917
H	 3.2098984412	-3.2962651925	-3.2467759159	 0.089363
H	 4.6314080899	-1.6375251006	-2.004751433	 0.109083
H	 3.4872743702	-0.7894468763	-3.0515831974	 0.107335
H	 3.1781294083	-0.9057742086	-1.3106238981	 0.127694
H	 1.0584256019	-4.3938197247	-3.6988323791	 0.089372
H	 0.7330193052	-4.5239549014	-1.9743948568	 0.100901
H	-1.4177369559	-3.2530248043	-2.2735820504	 0.127692
H	-1.1144872346	-3.1376344754	-4.0156448736	 0.107345
H	-1.3964337809	-4.7149027437	-3.2694162843	 0.109086
41.7151	62.0806	87.3715	105.0505	138.0843	141.1321	177.3045	224.7309	238.1036	255.3619	288.9231	332.4449	369.1999	429.1103	495.2985	509.7886	764.0163	766.7242	778.3454	872.6197	902.273	913.0894	935.9061	944.802	1014.4165	1039.3651	1045.9438	1062.8136	1118.6096	1125.3803	1135.7827	1155.461	1191.5303	1198.5551	1268.5951	1280.6179	1305.2145	1312.4852	1316.8868	1335.7432	1371.0465	1389.5911	1394.2605	1401.7095	1406.0185	1411.8943	1446.9587	1469.6489	1481.1665	1492.0035	1497.4958	1497.9292	1499.7751	1506.727	1510.7556	1511.5637	1530.6827	2954.3275	2975.5611	2984.5321	3019.1264	3027.6992	3031.0969	3032.2009	3033.0525	3037.2912	3055.5812	3066.3232	3069.5183	3097.0441	3097.8157	3098.6368	3107.0584	3116.3587	3117.3181
CCCOC(CC)CC	CCCOC(CC)CC	
InChI=1S/C8H18O/c1-4-7-9-8(5-2)6-3/h8H,4-7H2,1-3H3	InChI=1S/C8H18O/c1-4-7-9-8(5-2)6-3/h8H,4-7H2,1-3H3
