21
gdb 80520	2.06949	1.45463	1.21697	3.1827	84.94	-0.2407	-0.016	0.2247	1179.1999	0.181296	-387.083702	-387.074349	-387.073405	-387.117513	35.169	
C	 0.1028519534	 1.6197250213	-0.3671571547	-0.422533
C	 0.2380717811	 0.1196037041	-0.1968989689	-0.061648
C	 1.470909295	-0.6798432505	-0.4163635627	-0.117232
C	 2.7326713111	 0.0021994518	 0.1320793333	-0.26424
C	 2.12293678	-0.0076273965	 1.5741748672	-0.027856
C	 2.0990703924	 1.2524189763	 2.4319279386	-0.425
C	 0.8207799771	-0.5991519418	 1.0129982747	 0.231774
C	 0.0729095324	-1.6714396177	 1.6743482103	 0.061104
O	 0.2893582939	-2.0660497334	 2.7981822466	-0.277714
H	 1.0346303877	 2.1529604475	-0.1735398087	 0.129226
H	-0.1970612726	 1.8470477799	-1.3960227166	 0.121396
H	-0.6630850325	 2.0256064042	 0.3012873872	 0.126494
H	-0.6459948147	-0.4141663089	-0.5476795938	 0.09453
H	 1.4765296291	-1.5527316354	-1.0588014085	 0.100106
H	 3.6292844123	-0.6133032129	 0.0426742925	 0.110205
H	 2.9492848822	 0.9863407878	-0.2952125271	 0.102862
H	 2.603685008	-0.8038815188	 2.1499056758	 0.099196
H	 1.6333214088	 2.1017897312	 1.926464129	 0.114016
H	 1.5437155898	 1.0668121245	 3.3569195532	 0.132817
H	 3.1176049377	 1.546514072	 2.7087973569	 0.11452
H	-0.730836752	-2.1294429547	 1.0494860357	 0.057977
92.0815	138.4233	160.4769	191.9787	224.5396	242.6224	264.3321	294.0164	353.2402	461.2507	488.7675	579.9785	655.152	697.8886	735.7358	825.4344	866.8343	903.79	940.0114	970.8446	981.9486	1036.2572	1055.1514	1077.8696	1098.3055	1118.5097	1121.7213	1154.2119	1178.964	1236.5859	1251.2378	1257.5201	1324.6018	1337.8994	1389.9781	1401.5076	1410.8126	1428.4625	1460.9535	1487.2675	1493.9809	1497.7004	1504.6667	1505.7876	1791.466	2842.3674	3035.7469	3039.371	3054.7838	3063.7737	3096.5492	3099.356	3103.6224	3115.0952	3119.4347	3138.0335	3181.0436
CC1C2CC(C)C12C=O	C[C@H]1[C@H]2C[C@@H](C)[C@@]12C=O	
InChI=1S/C8H12O/c1-5-3-7-6(2)8(5,7)4-9/h4-7H,3H2,1-2H3	InChI=1S/C8H12O/c1-5-3-7-6(2)8(5,7)4-9/h4-7H,3H2,1-2H3/t5-,6+,7-,8+/m1/s1
