21
gdb 124536	3.5275	0.95179	0.90054	2.3968	86.27	-0.228	0.0294	0.2574	1441.8585	0.182639	-383.314366	-383.304441	-383.303497	-383.350231	35.877	
C	-0.0598170954	 1.5951410904	 0.1722453047	-0.385174
C	-0.0486058446	 0.0659953259	-0.0003034005	-0.06265
C	 0.920214795	-0.5958491532	 0.9954704169	-0.385149
C	-1.4337353249	-0.5117448935	 0.1112023923	 0.354223
N	-1.983086546	-1.1468672498	-0.9214545866	-0.303815
N	-3.2028821354	-1.5253682684	-0.4782734581	-0.255535
C	-3.453925805	-1.1540892924	 0.8038368059	 0.391498
C	-4.7378285588	-1.4676993919	 1.5004005968	-0.50363
C	-2.3184692971	-0.4893137402	 1.2202105355	-0.382479
H	 0.9465042329	 2.0075531421	 0.0424088161	 0.107269
H	-0.7209848622	 2.0696756265	-0.5587304089	 0.118539
H	-0.4087196912	 1.8771453535	 1.171997428	 0.110407
H	 0.2936409567	-0.1625632407	-1.0159787164	 0.088536
H	 0.6126992245	-0.4072735431	 2.0301836659	 0.110409
H	 0.9562542929	-1.6794060555	 0.8496663574	 0.118544
H	 1.9338541048	-0.1996939962	 0.872094034	 0.107253
H	-3.8101368605	-2.0311046224	-1.1005822269	 0.26519
H	-4.9039101553	-2.5480800996	 1.5847769333	 0.135307
H	-4.7253872722	-1.0539438589	 2.510719394	 0.142385
H	-5.6013773012	-1.041914451	 0.9762952968	 0.134585
H	-2.1575277069	-0.0505344515	 2.19229968	 0.094286
32.1591	54.041	116.9458	166.5771	221.0383	249.211	250.2852	307.0278	349.3086	429.3049	489.3874	492.3468	590.749	670.0062	715.7966	747.3128	811.4411	893.7657	929.6864	964.3507	985.8392	1000.993	1044.1317	1062.2362	1068.2095	1123.412	1158.9585	1174.1968	1199.1854	1302.8845	1340.394	1347.0826	1395.8426	1411.8463	1415.899	1437.0937	1456.5735	1482.5377	1486.1176	1486.5579	1489.9429	1502.242	1513.0603	1516.8655	1615.7486	3026.8945	3028.1201	3030.8489	3044.491	3077.1713	3091.1705	3099.0855	3107.5954	3109.8358	3129.3943	3255.8162	3670.0312
CC(C)C1=NNC(C)=C1	CC(C)c1n[nH]c(C)c1	
InChI=1S/C7H12N2/c1-5(2)7-4-6(3)8-9-7/h4-5H,1-3H3,(H,8,9)	InChI=1S/C7H12N2/c1-5(2)7-4-6(3)8-9-7/h4-5H,1-3H3,(H,8,9)
