15
gdb 74667	3.70255	1.55378	1.47703	1.4295	64.55	-0.2242	0.0543	0.2785	908.644	0.114625	-453.918517	-453.911891	-453.910946	-453.949354	26.705	
N	 0.0498933088	 1.2996244345	 0.0267526656	-0.577962
C	-0.0606711595	-0.0601151306	 0.0101256241	 0.489131
N	-1.1442521336	-0.7395841337	 0.0502822751	-0.342755
C	-0.7304687381	-2.1233597929	 0.0077477965	-0.064877
C	-0.6601852934	-2.7954730902	-1.3946388313	 0.022445
O	 0.0592951241	-1.910649418	-2.2503067814	-0.22553
C	 0.8212306776	-2.7542355685	-1.3906438946	-0.007922
C	 0.8372851425	-2.0921572799	 0.0008560469	 0.032219
O	 1.1544678835	-0.7002685566	 0.0329330477	-0.254572
H	 0.9087495065	 1.6667391403	-0.3516770858	 0.265511
H	-0.7861871505	 1.7850215179	-0.2576503731	 0.270406
H	-1.2100078912	-2.7504255523	 0.7636888855	 0.080804
H	-1.3447439193	-3.4930270106	-1.8632417701	 0.110243
H	 1.5582340348	-3.4040616151	-1.8484952678	 0.10796
H	 1.389553588	-2.6220419444	 0.7776898427	 0.094899
137.194	208.3677	330.3339	357.4238	403.8768	510.0878	535.2876	633.1548	683.161	702.3333	764.47	784.2809	837.5201	872.756	897.2853	904.9479	927.0955	956.2023	1011.2856	1027.9265	1051.2164	1072.7199	1160.0874	1201.4559	1222.1135	1227.1862	1260.0339	1289.3212	1330.6384	1377.5346	1417.496	1614.6972	1738.2269	3076.8316	3111.439	3178.4343	3193.9506	3596.1484	3709.8227
NC1=NC2C3OC3C2O1	NC1=N[C@H]2[C@H]3O[C@H]3[C@H]2O1	
InChI=1S/C5H6N2O2/c6-5-7-1-2-4(8-2)3(1)9-5/h1-4H,(H2,6,7)	InChI=1S/C5H6N2O2/c6-5-7-1-2-4(8-2)3(1)9-5/h1-4H,(H2,6,7)/t1-,2+,3-,4+/m0/s1
