17
gdb 87581	2.69659	1.42517	1.22305	1.2933	67.95	-0.2442	0.0622	0.3064	1077.5381	0.133802	-458.894656	-458.886348	-458.885404	-458.92757	31.363	
C	-0.0152216935	 1.560286794	-0.0461933344	-0.417162
C	-0.0622860536	 0.062344056	 0.0936850298	-0.024555
O	 1.180744476	-0.653515713	-0.1064025187	-0.302467
C	 0.5946592903	-0.6614195254	 1.1786459286	 0.387527
C	 1.2930123559	-0.1772966876	 2.4387245976	-0.094036
O	 0.2665153579	-0.1898927213	 3.4526911175	-0.257103
C	 0.9415759387	-1.4215041414	 3.1478112385	-0.020137
C	 0.2155266313	-1.9877269478	 1.9085889016	 0.025464
O	-1.1314962394	-2.3330076802	 2.051107632	-0.429663
H	 0.8586877048	 1.9749205196	 0.4624847831	 0.125252
H	 0.0329536644	 1.8471297915	-1.1015786722	 0.133092
H	-0.9160781691	 2.00984128	 0.3847838275	 0.129459
H	-0.9161743685	-0.4327586237	-0.3709672535	 0.105239
H	 2.1323587889	 0.4937842809	 2.5696314987	 0.121498
H	 1.4370077087	-1.9344219678	 3.9635683455	 0.114182
H	 0.7357217698	-2.8336661671	 1.4507279839	 0.113077
H	-1.5433715526	-1.6109408166	 2.5428241244	 0.290332
100.8585	134.7064	174.5678	181.5374	252.605	301.6881	434.4182	457.7983	485.4935	522.7306	603.1304	678.7306	768.9195	793.9376	854.1676	864.5539	894.6045	952.2827	987.3222	1002.2672	1031.9932	1048.848	1106.7169	1122.2998	1142.1058	1165.3283	1198.5277	1221.3651	1262.9382	1291.6362	1354.1159	1364.7288	1410.2063	1432.2886	1474.6676	1489.7407	1530.1774	3039.3612	3090.0963	3102.0272	3104.671	3127.8145	3189.5363	3208.5639	3776.2409
CC1OC11C2OC2C1O	C[C@H]1O[C@]21[C@H]1O[C@H]1[C@H]2O	
InChI=1S/C6H8O3/c1-2-6(9-2)4(7)3-5(6)8-3/h2-5,7H,1H3	InChI=1S/C6H8O3/c1-2-6(9-2)4(7)3-5(6)8-3/h2-5,7H,1H3/t2-,3+,4-,5+,6+/m1/s1
