19
gdb 47442	2.73527	1.34298	0.99805	3.2759	75.53	-0.2351	0.0268	0.2619	1202.1994	0.162041	-419.224341	-419.216007	-419.215062	-419.258087	30.982	
O	-0.2055277727	 0.0053829123	-0.5342959682	-0.382558
C	-0.0869280858	 1.1770017058	-0.2502912759	 0.402883
N	-1.096002794	 2.0315993783	 0.0991180531	-0.298086
C	-0.6729822637	 3.3628778668	 0.496381097	-0.16545
C	 0.7543887003	 3.4490289853	-0.0942259532	-0.240582
C	 1.2271561531	 1.9823280786	-0.1815258623	-0.145079
C	 2.0435342383	 1.5255294676	 1.0128741291	 0.034524
C	 2.8995918394	 0.3230617325	 0.9159972854	-0.235853
N	 3.5095072204	 1.6647620782	 1.0203779807	-0.33633
H	-2.0286448949	 1.6782221662	 0.2438785155	 0.252024
H	-1.335987864	 4.1314369287	 0.0868637255	 0.11534
H	-0.6679749431	 3.4776313168	 1.5894456584	 0.111517
H	 0.7056594512	 3.885185716	-1.095761143	 0.114383
H	 1.4130725098	 4.0742308912	 0.5122024924	 0.119847
H	 1.8000543214	 1.7830642317	-1.0926503033	 0.089648
H	 1.5927726023	 1.7536165735	 1.9782887326	 0.091135
H	 3.046211115	-0.3148665121	 1.7822289748	 0.120757
H	 2.9259033723	-0.195911781	-0.0378483139	 0.125555
H	 3.830492745	 1.9641584137	 0.1018126855	 0.226323
65.9703	76.494	156.3237	160.4102	275.899	319.9866	396.0261	504.346	524.7363	651.3386	695.7047	702.6684	791.7982	843.3997	881.4618	893.0929	927.576	950.43	966.8695	1007.7816	1032.7699	1082.7473	1092.4862	1130.4626	1160.4601	1179.5123	1207.9936	1241.6121	1251.1001	1264.8229	1269.5465	1284.1286	1318.4123	1335.3593	1366.1039	1427.7062	1448.1223	1493.2385	1517.2119	1537.8557	1827.4163	3002.3874	3054.4879	3062.718	3073.0091	3109.6017	3116.6447	3118.9324	3203.9566	3484.8569	3639.9043
O=C1NCCC1C1CN1	O=C1NCC[C@H]1[C@H]1CN1	
InChI=1S/C6H10N2O/c9-6-4(1-2-7-6)5-3-8-5/h4-5,8H,1-3H2,(H,7,9)	InChI=1S/C6H10N2O/c9-6-4(1-2-7-6)5-3-8-5/h4-5,8H,1-3H2,(H,7,9)/t4-,5+/m0/s1
