18
gdb 72917	2.75849	1.782	1.40441	1.0255	69.85	-0.235	0.0537	0.2887	956.8932	0.148827	-439.034346	-439.026975	-439.026031	-439.066233	29.433	
O	 0.1884160628	 1.3446548877	-0.2635331738	-0.471066
C	 0.0606447858	-0.0273175818	-0.009351968	 0.345368
C	 0.2200342287	-0.865088938	-1.2881786679	-0.111367
O	-1.0118532932	-1.5712637345	-1.028048873	-0.292201
C	-1.3538025696	-0.6891913735	 0.0734695742	 0.042127
C	-1.4625622241	-1.3454022881	 1.4309865717	-0.051771
C	-0.6014514606	-2.5294391757	 1.6726298276	-0.240128
N	-0.164969305	-1.2174306516	 2.1533397684	-0.096821
C	 0.7863047156	-0.5097517198	 1.276309648	-0.259198
H	 0.0649097673	 1.8247723565	 0.5626043174	 0.282803
H	 0.158211868	-0.2515102851	-2.1942368278	 0.114156
H	 1.08189457	-1.5388267962	-1.3509244119	 0.102446
H	-2.2074315459	-0.0509096109	-0.1748821259	 0.080822
H	-2.3586231787	-1.1786577989	 2.0210641426	 0.091845
H	-0.8617373503	-3.2355730646	 2.4559270655	 0.116135
H	-0.1174342991	-2.9643262862	 0.8021623316	 0.127878
H	 1.6493181818	-1.1452953247	 1.0518488153	 0.11537
H	 1.1654147564	 0.3652343656	 1.8181491058	 0.103602
63.3109	218.5173	270.4996	320.3195	355.654	384.8542	416.6584	519.2321	618.4161	661.2157	696.1079	771.4536	806.0923	855.5072	914.5402	922.6954	951.7824	957.893	1008.3402	1034.2816	1059.3021	1065.9555	1093.32	1117.1333	1138.7181	1143.8941	1163.5388	1199.8711	1223.5607	1263.9775	1274.3761	1312.5167	1338.3895	1348.1884	1382.353	1404.4161	1491.3333	1509.6608	1518.2121	3024.5089	3027.618	3062.8812	3072.3001	3079.7942	3109.5297	3153.6983	3197.5448	3803.5396
OC12COC1C1CN1C2	O[C@]12CO[C@H]1[C@H]1CN1C2	
InChI=1S/C6H9NO2/c8-6-2-7-1-4(7)5(6)9-3-6/h4-5,8H,1-3H2	InChI=1S/C6H9NO2/c8-6-2-7-1-4(7)5(6)9-3-6/h4-5,8H,1-3H2/t4-,5+,6-,7?/m1/s1
