25
gdb 121913	4.04842	0.59729	0.57775	2.3065	86.47	-0.2558	0.0626	0.3184	2086.357	0.226184	-426.639112	-426.627358	-426.626414	-426.676604	42.491	
C	 0.0605158995	 1.6296732023	 0.0495400308	-0.378613
C	 0.0280337252	 0.099062193	 0.0746770142	-0.164498
C	-1.3919002476	-0.4733786764	 0.0177212123	-0.16075
C	-1.431230325	-2.0037321931	 0.0442471965	-0.203311
C	-2.8523485932	-2.5718540824	-0.073717968	 0.136695
O	-3.5042716986	-2.125885098	-1.2565773746	-0.44244
C	-2.868059528	-4.1105381057	-0.0295701441	 0.11812
C	-4.2812141264	-4.6759381006	 0.0790888831	-0.41817
O	-2.2353460753	-4.5204071809	-1.2485704742	-0.452409
H	 1.0863593532	 2.0103853356	 0.0829858207	 0.107412
H	-0.4106285818	 2.0194324391	-0.8596978448	 0.113805
H	-0.4789412775	 2.0513586458	 0.9051759695	 0.111364
H	 0.6095928755	-0.2934690074	-0.7702868088	 0.092326
H	 0.53236825	-0.263351019	 0.9807795323	 0.088948
H	-1.9762373345	-0.0792595833	 0.8619019417	 0.083812
H	-1.8985081506	-0.1244534265	-0.8893320925	 0.108972
H	-0.8244572794	-2.4113957003	-0.7741827062	 0.104237
H	-0.9814431498	-2.3729785452	 0.9766083846	 0.083496
H	-3.458801991	-2.1973812982	 0.7611357966	 0.075522
H	-3.1316503265	-2.6657321779	-1.9664727052	 0.284025
H	-2.2682810636	-4.4468466564	 0.830864086	 0.066125
H	-4.9092694159	-4.2740550278	-0.720014427	 0.137173
H	-4.2726676328	-5.7704302912	 0.0107605079	 0.100904
H	-4.7311419839	-4.4108430396	 1.0412382465	 0.120196
H	-2.4303973818	-5.4505165158	-1.3944592073	 0.287056
53.5171	67.4088	90.764	119.0867	144.1476	219.5613	235.996	243.8969	259.5677	279.6158	299.5241	326.1932	414.4674	451.8932	488.1442	549.2533	677.3482	738.2412	792.6544	823.0837	894.6501	908.4023	940.9877	996.0219	1008.8831	1026.9057	1058.863	1079.8118	1099.3182	1118.8427	1140.3087	1164.586	1213.546	1235.2795	1262.6063	1298.2459	1318.4863	1330.9251	1355.7551	1367.402	1383.4439	1398.1556	1400.5054	1412.2731	1417.0724	1438.0395	1482.0988	1486.4529	1487.2582	1498.8543	1500.2349	1501.4543	1513.609	2976.625	3003.4699	3009.258	3014.4164	3026.3669	3027.8262	3030.1618	3037.4694	3056.1562	3075.9176	3094.0708	3094.7543	3098.8346	3126.758	3763.6915	3833.8669
CCCCC(O)C(C)O	CCCC[C@@H](O)[C@@H](C)O	
InChI=1S/C7H16O2/c1-3-4-5-7(9)6(2)8/h6-9H,3-5H2,1-2H3	InChI=1S/C7H16O2/c1-3-4-5-7(9)6(2)8/h6-9H,3-5H2,1-2H3/t6-,7-/m1/s1
