18
gdb 61964	2.73528	0.76851	0.6238	4.6477	74.71	-0.2903	-0.0073	0.283	1710.9037	0.145246	-439.131343	-439.121264	-439.12032	-439.167814	34.368	
C	 0.0288435573	 1.5994105032	 0.0609866975	-0.39874
C	-0.0016484289	 0.0761367087	 0.0081741447	 0.096396
C	 0.6963664402	-0.484886053	-1.2289072626	-0.186498
C	 0.6725975541	-2.0249076881	-1.2754383578	-0.351698
C	 1.3003109165	-2.5489105354	-2.4854397811	 0.258701
N	 1.7966808933	-2.9445153055	-3.4508783138	-0.2999
O	 0.6843059015	-0.4605875556	 1.1612197372	-0.193248
C	-0.0463140435	-0.7557683918	 2.2548250425	 0.171332
O	 0.4407460295	-1.1544075387	 3.2684662377	-0.268031
H	 1.0614355185	 1.9590087937	 0.0883682711	 0.143197
H	-0.4657600987	 2.0228200065	-0.8182338711	 0.130551
H	-0.4855849469	 1.9672795396	 0.9532703864	 0.130675
H	-1.0429240663	-0.277294983	 0.0307701051	 0.092584
H	 0.2059966131	-0.0800108679	-2.1196543921	 0.129063
H	 1.7338294287	-0.1357845685	-1.2450522132	 0.138887
H	 1.1911887377	-2.4303930797	-0.4012569953	 0.176882
H	-0.3596349813	-2.3937043524	-1.2343746732	 0.149434
H	-1.1325682251	-0.5992599021	 2.101855178	 0.080415
49.4392	60.7747	109.2471	127.8797	153.3032	213.9605	232.5951	255.057	339.8113	397.0832	458.4803	479.7537	568.9214	613.6572	776.1558	891.7742	942.0514	951.6067	970.3531	1035.4107	1045.8267	1097.7951	1125.9414	1151.4638	1177.7257	1237.5633	1283.3251	1319.5544	1354.7657	1376.9806	1402.4561	1414.0594	1438.812	1470.0827	1482.8341	1489.2424	1496.2372	1868.6045	2365.1578	2941.8538	3002.6331	3040.3805	3043.918	3058.6021	3088.9404	3108.5684	3119.7061	3125.0695
CC(CCC#N)OC=O	C[C@@H](CCC#N)OC=O	
InChI=1S/C6H9NO2/c1-6(9-5-8)3-2-4-7/h5-6H,2-3H2,1H3	InChI=1S/C6H9NO2/c1-6(9-5-8)3-2-4-7/h5-6H,2-3H2,1H3/t6-/m0/s1
