22
gdb 64417	2.40318	1.66348	1.32553	0.5201	81.47	-0.2185	0.0852	0.3037	1089.3376	0.194664	-404.326985	-404.318256	-404.317312	-404.359806	34.761	
C	-0.0379224271	 1.5356775426	-0.0274443479	-0.410772
C	 0.0046621295	 0.0071746947	 0.0199656651	 0.333057
C	-1.4309239286	-0.5515569425	 0.0241409735	-0.428824
O	 0.7003155746	-0.3862086225	-1.1711750784	-0.28399
C	 1.0349830606	-1.7629046595	-1.2096616484	-0.090588
C	 2.0861518335	-2.1015441454	-0.1564351412	-0.155524
N	 1.7586560253	-1.5634820554	 1.1764878891	-0.1108
C	 2.2031590976	-0.1956591505	 1.4447387031	-0.261168
C	 0.759832795	-0.4807697233	 1.258959201	-0.016305
H	 0.972001303	 1.9439744306	-0.1064282844	 0.120862
H	-0.6141323299	 1.8699308741	-0.8956596223	 0.118634
H	-0.5069579664	 1.9370238425	 0.8759675476	 0.113042
H	-1.932686253	-0.2915005794	-0.9119733366	 0.120824
H	-1.4556724901	-1.6381901064	 0.1425411116	 0.121278
H	-2.000697144	-0.1208641975	 0.8531452051	 0.116337
H	 0.1418520305	-2.3880798188	-1.0722948805	 0.093878
H	 1.421407928	-1.9601967433	-2.2142181083	 0.107461
H	 2.1795202285	-3.1914158438	-0.0728865943	 0.102124
H	 3.0620227286	-1.716620335	-0.4742741885	 0.104234
H	 2.6107243497	-0.014823317	 2.4365538869	 0.107926
H	 2.7113773673	 0.330629937	 0.6384848536	 0.113717
H	 0.1333519374	-0.5502586113	 2.1473473043	 0.084597
77.6388	192.9826	206.7317	243.6804	288.6118	323.6694	343.9499	384.0982	408.3109	476.3192	495.6619	529.4817	655.4288	705.7924	761.5773	834.588	887.6167	907.7784	927.9003	948.1817	962.2298	1000.4932	1029.5799	1077.9157	1089.6347	1111.807	1129.6274	1140.3045	1179.7905	1192.2851	1220.5415	1250.1605	1265.8871	1302.4674	1321.9065	1372.8063	1392.6723	1404.2169	1404.4929	1418.7612	1474.3583	1483.8624	1488.4842	1497.2447	1503.6719	1513.6279	1514.5647	3006.4646	3021.0889	3040.9206	3045.567	3058.4748	3083.6214	3090.1139	3105.3312	3111.3932	3115.0871	3122.9612	3128.9326	3174.2269
CC1(C)OCCN2CC12	CC1(C)OCCN2C[C@@H]12	
InChI=1S/C7H13NO/c1-7(2)6-5-8(6)3-4-9-7/h6H,3-5H2,1-2H3	InChI=1S/C7H13NO/c1-7(2)6-5-8(6)3-4-9-7/h6H,3-5H2,1-2H3/t6-,8?/m0/s1
