12
gdb 130812	8.38854	0.66536	0.61647	3.7914	79.44	-0.2682	-0.0821	0.1861	1639.8277	0.078878	-431.645433	-431.637805	-431.63686	-431.679036	25.756	
O	-0.0969996416	-0.0339960292	-0.0003713269	-0.22546
C	-0.0033593598	 1.1723114799	 0.0078032677	 0.002407
C	 1.2413533821	 1.8931890548	-0.0004041744	 0.144104
C	 2.2717004601	 2.5273905916	-0.0070536322	 0.012243
C	 3.4585558516	 3.2849538143	-0.0143073948	 0.19022
N	 4.6849424499	 2.7267517633	-0.0311785424	-0.254855
N	 5.4839543946	 3.7722727169	-0.0323735782	-0.091101
N	 4.9160718145	 4.9752702262	-0.0179805483	-0.164846
C	 3.6191286379	 4.6907144743	-0.0061745422	-0.163398
H	-0.8997882311	 1.8249218962	 0.0227955523	 0.102372
H	 6.4868039854	 3.6649808811	-0.0437521411	 0.304822
H	 2.8702066663	 5.4653650209	 0.0071675705	 0.14349
58.7131	75.2772	114.038	205.2521	267.246	417.8863	513.4945	527.5065	583.2631	707.4357	719.8632	742.8054	896.2563	970.4713	994.267	1017.627	1059.0395	1157.0836	1225.1143	1246.7309	1348.6375	1386.3544	1421.3178	1477.7547	1549.6139	1761.5069	2320.2501	2920.9645	3283.4812	3654.3434
O=CC#CC1=NNN=C1	O=CC#Cc1n[nH]nc1	
InChI=1S/C5H3N3O/c9-3-1-2-5-4-6-8-7-5/h3-4H,(H,6,7,8)	InChI=1S/C5H3N3O/c9-3-1-2-5-4-6-8-7-5/h3-4H,(H,6,7,8)
