19
gdb 85767	2.65831	1.21633	0.99463	2.4359	77.77	-0.2421	-0.0364	0.2058	1267.6132	0.156212	-423.065817	-423.056121	-423.055177	-423.101249	34.623	
C	-0.1609011684	 0.7743415136	 2.0255646576	-0.404823
C	 0.2026042356	-0.1139269836	 0.840716013	-0.083801
C	 0.2077026739	 0.4797470117	-0.606091144	-0.275579
C	 1.6369070106	-0.063140996	-0.8583895835	-0.221136
C	 2.7227390606	 0.9154672528	-1.2855553296	 0.37201
C	 4.1137147458	 0.327965622	-1.3777049892	-0.485508
O	 2.4802409538	 2.083581272	-1.4812937816	-0.293089
C	 1.686715354	-0.4545692779	 0.6475946458	 0.381681
O	 2.5728249675	-0.7945532254	 1.3761737657	-0.29606
H	 0.3946482332	 1.7169116437	 1.994572914	 0.130181
H	-1.229254635	 1.0112714448	 2.0204809194	 0.124397
H	 0.074961109	 0.2739820266	 2.9693144065	 0.135968
H	-0.3672708481	-1.051400451	 0.8829196581	 0.106728
H	-0.5682897309	 0.1089468251	-1.2759226171	 0.108703
H	 0.2058829095	 1.5716005484	-0.6199619308	 0.137685
H	 1.6888721909	-0.9651748016	-1.4785476357	 0.116209
H	 4.1503743874	-0.4368695412	-2.1620305537	 0.136802
H	 4.840438599	 1.1115851371	-1.5946758506	 0.14075
H	 4.3562478517	-0.1715879011	-0.4323887542	 0.16888
39.7535	67.4465	136.7003	165.6803	194.4328	206.7141	241.6177	336.0662	358.0316	461.2126	530.5656	586.2217	591.702	664.2147	752.4174	808.8016	890.0906	913.719	936.241	970.1653	997.3245	1021.1188	1083.157	1101.8872	1121.4593	1134.404	1175.4573	1197.4916	1235.2874	1264.1201	1294.9734	1336.9906	1385.4608	1406.0501	1467.8944	1474.4873	1487.5836	1494.7857	1496.2831	1806.4194	1876.5625	3028.484	3032.7746	3038.6437	3056.8629	3084.4305	3096.1959	3109.3818	3115.5783	3142.5527	3153.2593
CC1CC(C(C)=O)C1=O	C[C@H]1C[C@@H](C(=O)C)C1=O	
InChI=1S/C7H10O2/c1-4-3-6(5(2)8)7(4)9/h4,6H,3H2,1-2H3	InChI=1S/C7H10O2/c1-4-3-6(5(2)8)7(4)9/h4,6H,3H2,1-2H3/t4-,6-/m0/s1
