16
gdb 80320	3.59247	1.14282	1.10985	4.0592	77.49	-0.2476	-0.0529	0.1947	1125.9265	0.12534	-400.758337	-400.750602	-400.749658	-400.7906	29.581	
O	-0.0071974587	 1.4199362037	 0.0696071227	-0.41948
C	-0.0665799392	 0.03374471	 0.007096295	 0.13195
C	-1.3541992432	-0.7335864427	 0.0109322582	-0.116165
C	-2.6183865785	 0.0487757053	-0.3418800788	-0.32767
C	-2.3731970298	 0.4996863775	-1.7773801356	 0.144071
C	-1.2111662937	 0.0193330426	-2.2623543689	-0.167362
C	-0.4589292805	-0.7463489637	-1.2470049444	-0.139836
C	-3.2861871803	 1.3264740751	-2.4841411926	 0.209384
N	-4.0538289424	 1.9979007472	-3.0346003115	-0.332551
H	-0.4849944548	 1.7887932916	-0.6830721778	 0.291532
H	 0.7521573359	-0.3976828579	 0.5740357463	 0.117976
H	-1.4431377227	-1.6104318711	 0.6412072557	 0.101017
H	-3.5222299211	-0.5655577137	-0.2738912483	 0.133646
H	-2.76157058	 0.907362806	 0.3254732572	 0.141064
H	-0.8494708795	 0.1935424021	-3.2687427724	 0.128882
H	 0.1459363285	-1.5936810422	-1.5483744347	 0.103542
98.252	166.1322	190.4741	242.7311	269.6101	381.6613	491.9346	544.1988	554.9512	567.5392	630.4719	731.8077	743.6902	790.1578	862.1347	912.7525	930.5723	964.432	983.9642	1024.5301	1052.4654	1067.3449	1103.0049	1179.1281	1191.6594	1200.4783	1276.266	1304.9381	1328.767	1343.4691	1360.2706	1440.4693	1475.2056	1646.826	2334.1297	3038.615	3075.8188	3165.4622	3175.6278	3185.4274	3211.8045	3778.7797
OC1C2CC(=CC12)C#N	O[C@H]1[C@H]2CC(=C[C@@H]12)C#N	
InChI=1S/C7H7NO/c8-3-4-1-5-6(2-4)7(5)9/h1,5-7,9H,2H2	InChI=1S/C7H7NO/c8-3-4-1-5-6(2-4)7(5)9/h1,5-7,9H,2H2/t5-,6+,7-/m1/s1
