18
gdb 92440	2.61353	1.57747	1.48441	1.9738	70.27	-0.2183	-0.0188	0.1995	974.56	0.150466	-439.092908	-439.085349	-439.084404	-439.125211	29.752	
O	 0.11723576	 1.4151198999	-0.0618938418	-0.43614
C	 0.0219179959	 0.0070011508	-0.0106827769	 0.140423
C	 0.6721900958	-0.6302474541	 1.2706780591	-0.251475
C	-0.5106651167	-1.3408196005	 1.9453580758	-0.116136
N	-1.4557985515	-0.2855024063	 2.39276893	-0.318099
C	-2.1967932758	 0.1553920586	 1.1594907393	-0.193854
C	-1.4406226014	-0.5426471492	 0.0159666671	-0.161694
C	-1.2124420218	-1.9010318283	 0.6954948721	 0.426051
O	-1.5005299696	-3.0163040743	 0.3645341375	-0.327172
H	-0.0664472317	 1.7599671329	 0.8185600009	 0.290061
H	 0.5218473792	-0.3438651028	-0.9170383884	 0.100951
H	 1.4681652243	-1.3326779951	 1.0061325518	 0.114202
H	 1.0948737113	 0.1430113656	 1.9183611999	 0.110714
H	-0.2660010283	-2.047611784	 2.7358993253	 0.085568
H	-2.1077777019	-0.6719389918	 3.0653957059	 0.230737
H	-3.2468289107	-0.1590793995	 1.172307628	 0.109108
H	-2.1797015948	 1.2454268776	 1.062127557	 0.107204
H	-1.9537644222	-0.5544295095	-0.9426410327	 0.089551
58.7587	136.1377	261.2838	313.8619	363.0085	412.9428	450.1469	504.0129	556.6356	643.3001	701.5403	751.3531	777.6238	823.9604	859.9658	882.6046	908.1605	970.549	995.2538	1027.5607	1050.8026	1064.3784	1082.6929	1132.715	1154.9519	1160.4516	1186.6247	1231.5994	1239.7431	1290.2352	1306.9818	1314.8541	1339.9079	1368.5591	1425.5118	1438.3615	1470.8549	1533.4069	1880.9293	3029.5414	3052.9845	3065.8447	3076.3721	3106.8795	3140.9221	3151.7975	3540.8504	3809.3689
OC1CC2NCC1C2=O	O[C@H]1C[C@H]2NC[C@@H]1C2=O	
InChI=1S/C6H9NO2/c8-5-1-4-6(9)3(5)2-7-4/h3-5,7-8H,1-2H2	InChI=1S/C6H9NO2/c8-5-1-4-6(9)3(5)2-7-4/h3-5,7-8H,1-2H2/t3-,4+,5-/m0/s1
