20
gdb 79354	2.68905	1.80572	1.62318	0.7503	76.91	-0.2209	0.0862	0.3071	951.0981	0.174143	-403.14251	-403.135309	-403.134364	-403.173773	29.477	
C	-0.1315635721	 1.4702151655	 0.0381684361	-0.406579
C	 0.0550006969	-0.0427863369	-0.0218910279	 0.040817
C	 0.9357089264	-0.5434461928	-1.1863195633	 0.084618
C	 2.3640687466	-0.3196087775	-0.6598768629	-0.247966
C	 2.1833085763	-0.7208410964	 0.7941119154	-0.047777
C	 1.2809523048	-1.8808208687	 1.0090063636	-0.039096
C	 0.8014943812	-2.6950747589	-0.1781574275	-0.103134
O	 0.7211119139	-1.9401651459	-1.3840940276	-0.281419
N	 0.7623802151	-0.512907678	 1.1975751953	-0.129708
H	 0.82855755	 1.9939432631	 0.0785048442	 0.118146
H	-0.6809581042	 1.8294768374	-0.8380199156	 0.11304
H	-0.6932717059	 1.741229287	 0.9360790126	 0.129531
H	-0.9262280446	-0.527707298	-0.0745431694	 0.083935
H	 0.7285774395	-0.0690273128	-2.147254122	 0.07928
H	 3.0822532701	-0.93899603	-1.203487645	 0.110934
H	 2.6774207936	 0.7260964822	-0.7451350639	 0.105477
H	 2.9360796265	-0.4599213142	 1.5311505173	 0.087583
H	 1.3632286412	-2.4519430846	 1.9317125851	 0.091489
H	 1.482062265	-3.5416878518	-0.3444148887	 0.106766
H	-0.1886017706	-3.1201650986	 0.0484912445	 0.104061
138.8087	204.765	232.1472	286.0607	389.4576	410.6439	487.2948	522.2763	664.5936	715.5645	744.6087	783.9365	808.8318	865.0362	879.6953	906.1434	930.6689	962.2308	997.8141	1042.5057	1048.54	1055.1655	1081.4128	1112.7628	1120.6095	1152.5187	1156.0642	1189.4576	1238.7421	1256.8628	1259.7748	1302.5856	1317.0411	1333.7021	1365.1432	1372.8576	1405.1794	1409.7113	1439.1364	1484.0452	1490.8326	1501.3723	1521.9695	2980.526	3016.2287	3039.6703	3047.2068	3052.8435	3099.6381	3102.0216	3110.8689	3119.4622	3123.7577	3158.9956
CC1C2CC3C(CO2)N13	C[C@H]1[C@H]2C[C@@H]3[C@H](CO2)N13	
InChI=1S/C7H11NO/c1-4-7-2-5-6(3-9-7)8(4)5/h4-7H,2-3H2,1H3	InChI=1S/C7H11NO/c1-4-7-2-5-6(3-9-7)8(4)5/h4-7H,2-3H2,1H3/t4-,5+,6-,7+,8?/m0/s1
