17
gdb 47229	2.33731	1.80655	1.30687	2.2251	73.6	-0.2473	-0.0341	0.2132	1003.7969	0.137025	-421.829583	-421.822114	-421.82117	-421.861704	29.041	
O	-0.0161138039	-0.0185012676	 0.3605258064	-0.308998
C	 0.0244225903	 1.1625075212	 0.0935166603	 0.361482
C	-1.2634393943	 1.9804145807	 0.0141622107	-0.289798
C	-1.271619891	 3.3161797712	-0.7616654437	-0.281817
C	-0.6665134241	 3.2216277971	-2.1412873209	-0.092441
C	 0.6054134408	 2.9031003793	-2.3900878642	-0.034658
C	 1.6376429184	 2.600601613	-1.3677710184	 0.009517
O	 1.5365626358	 3.1950100011	-0.071078514	-0.240353
C	 1.3737715924	 1.7819626752	-0.1472267746	-0.06463
H	-2.0136106785	 1.2907354165	-0.3863108761	 0.133759
H	-1.5601461374	 2.1734721917	 1.0541647699	 0.135994
H	-2.3116819596	 3.646864166	-0.8392368589	 0.10342
H	-0.738348776	 4.0724018728	-0.1822281187	 0.144773
H	-1.3181102326	 3.4207113847	-2.9877999188	 0.102132
H	 0.9549902813	 2.847630607	-3.4171405322	 0.095221
H	 2.6601795936	 2.5544308242	-1.741322355	 0.110333
H	 2.1905222849	 1.185681506	 0.2570748181	 0.116063
64.3235	188.1879	250.9925	287.4044	323.8971	395.0687	456.9813	549.6473	588.0364	602.9141	690.007	736.2131	777.6266	845.5871	865.319	875.9252	925.0624	977.9411	993.8035	1033.9941	1056.7553	1076.3335	1122.8805	1187.7611	1225.9941	1252.8375	1263.6889	1280.6774	1346.4646	1365.5401	1375.647	1415.5038	1441.9403	1447.9105	1488.7132	1715.9102	1788.0251	3026.9001	3061.3488	3079.834	3112.9476	3114.7076	3133.6195	3157.0693	3179.1933
O=C1CCC=CC2OC12	O=C1CCC=C[C@H]2O[C@@H]12	
InChI=1S/C7H8O2/c8-5-3-1-2-4-6-7(5)9-6/h2,4,6-7H,1,3H2	InChI=1S/C7H8O2/c8-5-3-1-2-4-6-7(5)9-6/h2,4,6-7H,1,3H2/t6-,7+/m1/s1
