20
gdb 13281	7.18181	0.806	0.76652	2.2666	72.29	-0.2456	0.0727	0.3184	1524.7425	0.175808	-386.110764	-386.101633	-386.100689	-386.145822	31.579	
C	 0.1537722099	 1.5029393449	 0.1176023888	-0.383305
C	-0.1269760258	 0.0230238879	-0.1535222849	-0.183047
C	 0.775602356	-0.5505799183	-1.2365856375	-0.045426
O	 0.4506952266	-1.9172014891	-1.4228892868	-0.251123
C	 1.1978170567	-2.542459162	-2.4248138869	 0.094154
C	 2.6215620021	-3.0455149818	-2.0721287825	-0.094207
O	 2.2591280714	-4.397983385	-2.4192719202	-0.273238
C	 0.8725899801	-4.0346423729	-2.5880132213	-0.099772
H	 1.1865441593	 1.6600878323	 0.4479124782	 0.117224
H	-0.0027918718	 2.1109953172	-0.7802700275	 0.117019
H	-0.5060603518	 1.8903517981	 0.8989622115	 0.119496
H	 0.0116209863	-0.5646756063	 0.7610566401	 0.10907
H	-1.1696982288	-0.1178117842	-0.4601864102	 0.108386
H	 0.6425792889	 0.001398746	-2.1831631893	 0.086612
H	 1.8345479345	-0.4425213951	-0.9472135004	 0.088795
H	 1.1590124146	-1.9661353523	-3.3603221623	 0.073661
H	 3.4568879442	-2.6766323999	-2.6782297698	 0.100843
H	 2.8621412164	-2.9391150643	-1.0055978939	 0.100673
H	 0.2372638246	-4.4138241908	-1.7776806312	 0.11025
H	 0.4740469167	-4.3609448246	-3.5547135439	 0.103934
52.3109	70.774	86.6014	126.2098	163.7513	235.5018	298.0004	332.1579	445.4398	490.6989	742.2068	765.7533	871.5917	888.477	902.4801	909.5551	983.3443	1025.813	1041.5549	1045.5828	1071.6955	1122.5859	1154.1967	1158.2199	1166.0673	1191.992	1216.4957	1268.7151	1277.7722	1301.0587	1316.8695	1331.5917	1349.8302	1398.2081	1414.5391	1449.2166	1491.8791	1498.2002	1501.5171	1507.0164	1524.8389	1527.7704	2950.5456	2979.1067	2997.6257	3005.4962	3023.6968	3032.47	3040.4182	3064.1134	3073.2465	3075.2267	3100.9136	3109.8355
CCCOC1COC1	CCCOC1COC1	
InChI=1S/C6H12O2/c1-2-3-8-6-4-7-5-6/h6H,2-5H2,1H3	InChI=1S/C6H12O2/c1-2-3-8-6-4-7-5-6/h6H,2-5H2,1H3
