25
gdb 115595	2.9645	0.95301	0.90054	1.6967	88.77	-0.2379	0.0805	0.3183	1508.9789	0.226999	-389.491677	-389.480778	-389.479834	-389.528192	40.021	
C	-0.1861008531	 1.6709979183	 0.1983151717	-0.382436
C	-0.1042319894	 0.1547839175	-0.0159305426	-0.204865
C	 0.7505080182	-0.5329870095	 1.0428342772	-0.074091
C	 0.1691501843	-0.681783972	 2.4638189153	-0.083177
O	 0.4007460638	-2.1015202966	 2.4724717305	-0.328311
C	 0.8775849074	-2.0918705805	 1.0909202768	 0.416104
C	-0.075022608	-2.8871254495	 0.2046549078	-0.438771
C	 2.3212816891	-2.6003557469	 1.024435434	-0.208619
C	 2.5046715498	-4.045939016	 1.4984658875	-0.394569
H	 0.8072747901	 2.1312718347	 0.1558832272	 0.115778
H	-0.8081699892	 2.1468634548	-0.565773111	 0.113815
H	-0.6197060918	 1.9112346598	 1.1754254206	 0.119297
H	-1.1170492312	-0.265067871	-0.0125376211	 0.098935
H	 0.3109763906	-0.0504977954	-1.0110419397	 0.09741
H	 1.7423948847	-0.0685202872	 1.0544644511	 0.068556
H	 0.7031433291	-0.1714155923	 3.2743945744	 0.097266
H	-0.9010837704	-0.4416862228	 2.5459278025	 0.09031
H	-1.0965525947	-2.5084006421	 0.2843630656	 0.117093
H	 0.2301070258	-2.8434146669	-0.8465209566	 0.111101
H	-0.0886921541	-3.9359260485	 0.5129889439	 0.125239
H	 2.6865381154	-2.4838622366	-0.0051046919	 0.089753
H	 2.934444659	-1.9410259295	 1.6500697922	 0.093902
H	 3.5672691952	-4.299015625	 1.5625030977	 0.109021
H	 2.0635011145	-4.1757392707	 2.4909568617	 0.137068
H	 2.0370110351	-4.7662918561	 0.8207371852	 0.11419
31.4739	84.5972	102.678	154.4353	194.9597	212.8239	225.274	263.7358	310.0022	324.9175	353.5437	388.7828	456.2737	547.7491	643.6438	763.5324	781.1369	803.1678	878.0709	906.7526	926.8409	963.1969	969.8573	995.7075	1021.3075	1031.1415	1059.2885	1074.5059	1127.5657	1148.3963	1173.2059	1174.6627	1217.2388	1234.8366	1275.4738	1298.2592	1321.8964	1333.4779	1357.9631	1373.7762	1402.2695	1406.885	1409.9174	1415.1922	1470.4221	1481.163	1489.5253	1494.962	1501.0387	1506.1883	1508.0949	1511.6653	1528.007	2991.7929	3015.5403	3021.83	3030.5728	3033.6403	3040.6939	3043.1887	3047.4363	3055.8758	3062.656	3097.8117	3104.5458	3106.0823	3113.1372	3119.4894	3125.2054
CCC1COC1(C)CC	CC[C@H]1CO[C@]1(C)CC	
InChI=1S/C8H16O/c1-4-7-6-9-8(7,3)5-2/h7H,4-6H2,1-3H3	InChI=1S/C8H16O/c1-4-7-6-9-8(7,3)5-2/h7H,4-6H2,1-3H3/t7-,8+/m0/s1
