16
gdb 55328	2.09301	1.61534	1.15615	5.24	69.31	-0.2522	-0.0016	0.2506	1081.147	0.125872	-434.082962	-434.074545	-434.073601	-434.116399	30.937	
N	 0.4780319291	 0.4767964396	-0.6869041807	-0.515118
C	-0.3077218972	 0.3155304041	 0.4152958205	 0.393457
O	-0.1863479762	 0.9711047145	 1.430481863	-0.359807
C	-1.4080452761	-0.7388526521	 0.2841075737	-0.120866
C	-2.1801515332	-0.7332389674	-1.0663917299	-0.188911
N	-1.2646601632	-1.7952050067	-1.5556180854	-0.316571
C	-0.9402166856	-2.1699413886	-0.160903576	-0.138705
C	 0.4354058487	-2.6079497812	 0.0738857981	 0.304244
N	 1.5165124338	-2.9735540206	 0.2547729287	-0.320261
H	 1.2888043977	 1.0674861821	-0.595216116	 0.265713
H	 0.4360944003	-0.1850289272	-1.4479139639	 0.274165
H	-1.9971827637	-0.70571371	 1.1968702035	 0.116377
H	-3.2208039836	-1.0586130562	-0.9397613351	 0.11199
H	-2.1547852263	 0.1883767051	-1.652215414	 0.131175
H	-1.6695445782	-2.5292615073	-2.1271987187	 0.237233
H	-1.6147801664	-2.924651098	 0.267493442	 0.125885
67.7869	108.1004	146.5402	219.0874	264.524	309.4253	408.0946	431.9823	510.615	545.7242	564.2193	625.3122	678.9173	778.694	801.4784	823.8264	950.2997	988.0472	1000.6462	1020.6212	1058.1372	1096.2486	1131.1101	1142.2018	1194.6156	1250.8393	1302.784	1323.7082	1360.6112	1372.8472	1390.7731	1522.0608	1618.0441	1805.0173	2358.8065	3005.1471	3019.6801	3102.0946	3156.2029	3527.7406	3563.4713	3705.2698
NC(=O)C1CNC1C#N	NC(=O)[C@H]1CN[C@H]1C#N	
InChI=1S/C5H7N3O/c6-1-4-3(2-8-4)5(7)9/h3-4,8H,2H2,(H2,7,9)	InChI=1S/C5H7N3O/c6-1-4-3(2-8-4)5(7)9/h3-4,8H,2H2,(H2,7,9)/t3-,4-/m0/s1
