18
gdb 44149	3.23229	1.22212	1.13508	3.7072	75.3	-0.2444	0.0052	0.2496	1142.3922	0.148546	-401.921411	-401.91358	-401.912636	-401.954883	30.076	
O	-0.1178780679	 0.1149435866	 0.2162574899	-0.342356
C	-0.0260367772	 1.3012243647	 0.0818676991	 0.422334
N	-0.9988781281	 2.3234106629	 0.082023493	-0.337359
C	 0.0194703489	 3.3713375313	-0.0378006742	-0.024853
C	 1.05125456	 3.2927907604	 1.055706055	-0.045764
C	 0.7594610449	 2.8737363171	 2.4739189048	-0.016482
C	 0.9429788451	 3.866556373	 3.5965866161	-0.27879
C	-0.4419616046	 3.4224515849	 3.2141715032	-0.261277
C	 1.1002595065	 2.3077437568	-0.1197720774	-0.262494
H	-1.7430289416	 2.3519938664	 0.7699952317	 0.244758
H	-0.1393494319	 4.2199710633	-0.690133203	 0.111837
H	 1.8290552088	 4.0495626714	 0.9551844126	 0.102495
H	 1.0251799541	 1.847376155	 2.7071052345	 0.11066
H	 1.3640097075	 3.5137202891	 4.5311324367	 0.117808
H	 1.2396306679	 4.8755049343	 3.3275322623	 0.112753
H	-1.0680205118	 4.1378977668	 2.6903641537	 0.110719
H	-0.979895387	 2.7607422698	 3.8839953176	 0.119486
H	 1.9526723565	 2.2234539462	-0.7784547757	 0.116525
29.4213	102.4848	169.1519	268.0989	332.2439	406.7095	462.0622	562.2275	649.3518	722.5339	746.8641	783.8629	804.7694	827.3513	834.1075	865.2481	915.4077	924.6525	940.6243	994.9002	1038.3087	1057.9773	1061.83	1072.3991	1085.1372	1118.0228	1136.8312	1140.0296	1194.5987	1203.2469	1235.4482	1272.2059	1316.1378	1333.0985	1364.0038	1426.5085	1469.9655	1503.3322	1897.8412	3113.6265	3127.3109	3132.2047	3153.2848	3201.7645	3207.6818	3223.1698	3225.3154	3550.6831
O=C1NC2C(C3CC3)C12	O=C1N[C@H]2[C@@H](C3CC3)[C@@H]12	
InChI=1S/C7H9NO/c9-7-5-4(3-1-2-3)6(5)8-7/h3-6H,1-2H2,(H,8,9)	InChI=1S/C7H9NO/c9-7-5-4(3-1-2-3)6(5)8-7/h3-6H,1-2H2,(H,8,9)/t4-,5+,6-/m0/s1
