15
gdb 34484	3.77489	1.5165	1.25195	4.1705	80.48	-0.2341	-0.0826	0.1515	967.2566	0.113987	-379.566292	-379.559567	-379.558623	-379.597386	26.501	
N	-0.307757337	-0.8324989008	 0.6905308292	-0.350977
C	-0.1936958786	 0.2329196643	 0.2426568628	 0.243935
C	-0.0250151375	 1.5057176668	-0.3518166096	 0.057979
C	-1.0635164205	 2.3742247627	-0.5362337432	-0.025789
C	-1.8223211118	 2.7711358986	 0.7229695268	-0.172744
N	-0.8191825366	 3.9404877829	 0.7704288877	-0.143176
C	 0.6002731889	 3.6977746325	 0.1731317874	-0.0121
C	 1.2406838832	 2.325523114	-0.0821470909	-0.313771
C	-0.5786786554	 3.814678832	-0.689994997	-0.072548
H	-2.8049988769	 3.2324307582	 0.6039384321	 0.13554
H	-1.8097477235	 2.0674244382	 1.5578207966	 0.143613
H	 1.218299079	 4.5542671181	 0.4236974202	 0.117553
H	 1.7613257028	 1.8896325763	 0.7760805312	 0.145391
H	 1.9699846402	 2.4159246836	-0.8976873113	 0.135049
H	-0.8656338764	 4.5656476326	-1.4161617721	 0.112045
118.0012	162.0847	283.7383	403.2536	416.836	512.0418	549.8646	593.3445	620.8736	707.6297	734.8221	783.7165	839.6928	866.2411	926.5249	954.0665	988.4603	1021.2361	1046.7367	1067.6364	1076.4265	1119.6712	1143.5465	1182.977	1222.7657	1254.2035	1275.2062	1284.3664	1357.5463	1469.6606	1510.9914	1549.4827	2307.1342	3025.7386	3069.0115	3088.861	3138.5577	3173.9078	3187.8617
N#CC1=C2CN3C(C1)C23	N#C[C]1[C]2CN3[C@@H](C1)[C@@H]23	
InChI=1S/C7H6N2/c8-2-4-1-6-7-5(4)3-9(6)7/h6-7H,1,3H2	InChI=1S/C7H6N2/c8-2-4-1-6-7-5(4)3-9(6)7/h6-7H,1,3H2/t6-,7+,9?/m0/s1
