20
gdb 92706	2.11071	1.76061	1.18951	2.9278	81.68	-0.2248	0.0146	0.2395	1116.2455	0.171168	-403.137021	-403.128171	-403.127227	-403.170409	34.089	
C	-0.038073785	 1.4914526885	 0.0358283306	-0.512477
C	 0.0219630405	-0.0045268595	-0.0079062182	 0.257742
C	 0.0010707192	-0.780503517	-1.0981943032	-0.189359
C	 0.0502912823	-2.2532946847	-0.7718628163	-0.299462
C	 0.4096230166	-2.2813086607	 0.7368804063	 0.051996
O	 1.7704647088	-2.6345852681	 0.9591107897	-0.428231
C	 0.0956778657	-0.8571035351	 1.2191196085	 0.236488
C	 0.5313755716	-0.3679338068	 2.551439673	-0.295132
N	-0.8819442869	-0.7126745768	 2.3251663499	-0.35885
H	 0.8858542389	 1.9196518211	 0.4436321991	 0.131266
H	-0.1917263976	 1.9095671473	-0.9620673943	 0.130666
H	-0.8567420605	 1.848973332	 0.67385886	 0.122135
H	-0.0718738276	-0.405521572	-2.1139921626	 0.08969
H	-0.915942861	-2.7355051199	-0.9718348654	 0.113285
H	 0.8009347129	-2.8084615739	-1.3451141632	 0.108501
H	-0.1714899047	-3.0138923967	 1.2992885827	 0.09969
H	 2.3167503057	-1.9648605705	 0.5322263532	 0.278114
H	 1.0700064643	-1.0467869019	 3.2059097487	 0.1309
H	 0.8034810119	 0.6793665935	 2.656842218	 0.10645
H	-1.4287576452	 0.1365500012	 2.1948180835	 0.226588
58.7448	152.5008	214.9978	225.3365	250.5809	269.8542	323.5664	334.4133	462.6502	473.4236	538.0395	604.6678	655.5783	759.7295	809.9544	854.7939	874.892	911.0974	931.4629	952.8661	980.2744	1004.4122	1033.5547	1055.1125	1069.8535	1083.8576	1106.4859	1163.5302	1174.8712	1243.9384	1265.0088	1282.2383	1289.2227	1317.0877	1348.8799	1399.6622	1416.2821	1430.9775	1478.0819	1479.5249	1489.0413	1508.3369	1704.3758	3017.5365	3019.1427	3062.7561	3065.2099	3107.0642	3108.0085	3115.0776	3183.5135	3196.1568	3479.7795	3795.9309
CC1=CCC(O)C11CN1	CC1=CC[C@@H](O)[C@]21CN2	
InChI=1S/C7H11NO/c1-5-2-3-6(9)7(5)4-8-7/h2,6,8-9H,3-4H2,1H3	InChI=1S/C7H11NO/c1-5-2-3-6(9)7(5)4-8-7/h2,6,8-9H,3-4H2,1H3/t6-,7-/m1/s1
