19
gdb 80074	2.51487	1.85281	1.53129	2.2626	80.3	-0.2102	0.0026	0.2128	959.9884	0.161908	-382.015697	-382.008271	-382.007327	-382.047163	30.1	
C	-0.2162985001	 1.4980760296	-0.0829112863	-0.299484
N	 0.0130323419	 0.0611517409	 0.0173614831	-0.108988
C	 1.3244974	-0.5447719648	-0.249515007	-0.081814
C	 2.5685266387	 0.2505009778	-0.3833237746	-0.076946
C	 3.1922170447	 0.8493915407	 0.6396230377	-0.047064
C	 2.7012303131	 0.7614603343	 2.031937366	-0.084062
N	 1.4691248033	 1.5146543027	 2.3849901885	-0.336375
C	 1.4078547571	 0.0498075883	 2.2716848871	-0.046654
C	 0.686172498	-0.5999401109	 1.1184932944	-0.030954
H	 0.6570393267	 2.1246018477	 0.1125366009	 0.132245
H	-0.5915883698	 1.6987344779	-1.0928985635	 0.105483
H	-0.995134766	 1.7780942541	 0.6314450955	 0.118397
H	 1.2681910394	-1.4127944544	-0.9052845898	 0.085063
H	 2.9956189465	 0.3196285709	-1.3807212458	 0.092989
H	 4.1162734826	 1.3944936611	 0.4669524469	 0.092708
H	 3.4665631217	 0.7042245337	 2.8025191962	 0.086864
H	 1.506116276	 1.7726552304	 3.3681780189	 0.231456
H	 1.3286926622	-0.5144968253	 3.1977703595	 0.081639
H	 0.202778584	-1.5320222346	 1.4090150522	 0.085496
143.8935	164.465	241.5835	293.7359	316.952	421.3931	488.5465	526.8181	581.6483	656.3196	700.2536	757.3354	776.3591	821.6892	858.1576	886.1583	900.7734	928.0495	975.3475	992.1985	1004.456	1051.7066	1087.7261	1117.5478	1135.0588	1159.5113	1162.2761	1177.971	1197.1544	1225.9026	1258.2106	1348.4744	1355.9518	1399.6239	1404.1491	1429.6634	1452.5914	1462.2594	1488.1823	1497.1583	1690.1293	3029.3498	3098.0081	3099.3062	3105.6133	3118.7005	3126.796	3137.2511	3149.9067	3171.9353	3495.085
CN1C2C=CC3NC3C12	CN1[C@H]2C=C[C@H]3N[C@H]3[C@@H]12	
InChI=1S/C7H10N2/c1-9-5-3-2-4-6(8-4)7(5)9/h2-8H,1H3	InChI=1S/C7H10N2/c1-9-5-3-2-4-6(8-4)7(5)9/h2-8H,1H3/t4-,5+,6-,7+,9?/m1/s1
