17
gdb 128857	6.03343	0.72675	0.69892	3.0254	71.09	-0.2727	-0.0255	0.2472	1605.6236	0.136811	-451.296152	-451.287457	-451.286513	-451.331372	29.374	
C	 0.006826521	 1.3722733313	-0.0223973644	-0.231492
O	-0.0022582582	-0.0371359174	 0.0339329389	-0.230228
C	 0.7002633242	-0.5464561693	 1.1382855194	-0.058008
C	 0.5987277841	-2.0695676333	 1.0520495449	-0.169269
N	 1.3080071387	-2.7124520708	 2.1444316457	 0.146076
N	 2.6331110252	-2.7646379524	 2.2240306374	-0.248323
C	 2.7977768575	-3.3947370484	 3.380419175	 0.079148
N	 1.626458075	-3.7090463367	 3.977171858	-0.207139
N	 0.6862661803	-3.266109361	 3.1796258587	-0.122436
H	 1.0307170465	 1.7684397325	-0.1017991001	 0.111818
H	-0.5571682985	 1.6644154952	-0.9107501486	 0.134584
H	-0.468355646	 1.8169451954	 0.8653609904	 0.112062
H	 1.7585229238	-0.2416066932	 1.1199054322	 0.114966
H	 0.2665018674	-0.1961793977	 2.0894517039	 0.106886
H	-0.4417178225	-2.3884335323	 1.1201711407	 0.160863
H	 1.0230604139	-2.4195958038	 0.108934239	 0.152124
H	 3.7649870875	-3.632616188	 3.7922311289	 0.148366
38.2982	81.4786	91.7315	105.5691	231.7028	241.2389	339.6976	360.3385	457.0597	707.5309	728.1906	789.9285	808.6731	902.7524	998.3285	1028.4125	1046.4881	1059.5426	1075.106	1161.4587	1168.5957	1175.9514	1210.1774	1232.7116	1248.4684	1285.4115	1318.9047	1341.8136	1351.265	1408.5733	1428.9486	1480.197	1483.326	1487.091	1494.2582	1504.827	1535.1216	2967.8007	2981.431	3007.63	3027.3719	3092.3553	3123.4645	3156.3922	3287.4077
COCCN1N=CN=N1	COCCn1ncnn1	
InChI=1S/C4H8N4O/c1-9-3-2-8-6-4-5-7-8/h4H,2-3H2,1H3	InChI=1S/C4H8N4O/c1-9-3-2-8-6-4-5-7-8/h4H,2-3H2,1H3
