21
gdb 39400	2.32657	2.08473	1.67407	1.4804	79.9	-0.2339	0.0803	0.3142	941.2641	0.187013	-387.068597	-387.061839	-387.060895	-387.099286	28.996	
C	-0.1074946375	 1.5232397176	 0.0023479638	-0.257873
C	 1.4564121618	 1.5058798204	-0.0594034858	-0.053352
C	 2.169614924	 1.7015918389	 1.2904788377	-0.200495
C	 1.3291538168	 1.314881032	 2.5238317846	-0.203926
C	 0.7505922372	-0.1208725678	 2.5423941678	-0.204791
C	 0.5303358425	-0.7853086319	 1.1871458466	 0.099982
O	 1.8047523893	-0.9325736347	 0.4876417987	-0.297503
C	 1.3706535213	-0.0031544991	-0.5065338104	 0.127385
C	-0.094803985	-0.0166454158	-0.0289551107	-0.087533
H	-0.5948929529	 2.0345409298	 0.8345887885	 0.09746
H	-0.5365448418	 1.9091010269	-0.9272971312	 0.098634
H	 1.8893585898	 2.1693220797	-0.8125281045	 0.066518
H	 3.102432799	 1.1275939037	 1.2782591293	 0.111825
H	 2.4472300425	 2.7568268724	 1.3966938626	 0.088041
H	 1.9440196584	 1.4543711796	 3.4196373079	 0.092321
H	 0.5109186698	 2.0352011815	 2.6229286268	 0.101204
H	 1.4381772233	-0.7862869805	 3.0786464236	 0.111729
H	-0.1896359461	-0.1368797726	 3.1081073119	 0.093633
H	 0.0751385272	-1.7714353412	 1.3370672215	 0.077924
H	 1.7187253134	-0.2520598832	-1.5116043261	 0.070184
H	-0.8984824628	-0.5520767157	-0.5352588627	 0.068632
168.5588	272.1423	291.4329	351.579	382.2473	471.6371	547.7019	637.5172	670.2217	733.8977	764.2574	817.4271	827.6118	862.6828	885.5892	891.6871	917.0903	942.665	990.6949	1008.4741	1028.6084	1062.4776	1072.081	1082.1514	1132.7335	1146.1162	1149.0743	1205.4807	1214.111	1219.9197	1243.8965	1273.4396	1276.6685	1307.5327	1321.9873	1332.6147	1349.9622	1354.1232	1378.8858	1388.3188	1402.9924	1470.1222	1478.6973	1487.7005	1518.6713	3017.2655	3029.2533	3034.0692	3044.8164	3052.8174	3055.6119	3067.3905	3070.3032	3083.2286	3085.281	3103.7028	3111.8836
C1C2CCCC3OC2C13	C1[C@H]2CCC[C@@H]3O[C@H]2[C@H]13	
InChI=1S/C8H12O/c1-2-5-4-6-7(3-1)9-8(5)6/h5-8H,1-4H2	InChI=1S/C8H12O/c1-2-5-4-6-7(3-1)9-8(5)6/h5-8H,1-4H2/t5-,6-,7+,8-/m1/s1
