15
gdb 98926	4.0782	0.83928	0.7685	2.6445	69.73	-0.2984	-0.0759	0.2225	1478.9446	0.109814	-453.985211	-453.975623	-453.974678	-454.021595	32.156	
C	 0.0865040835	 1.3122082195	 0.4042396169	-0.379683
C	-0.2200184124	 0.0106136707	-0.3324857849	-0.305439
C	 0.8659970349	-0.3770842374	-1.3020268852	 0.457901
O	 1.8512269677	 0.2283339304	-1.5814093858	-0.29362
O	 0.5658368255	-1.6407695967	-1.8371113469	-0.260756
C	 1.2529864731	-2.1019360347	-2.9219833816	 0.329796
N	 1.3761580028	-1.4344947818	-3.9828334215	-0.441009
C	 1.7442736028	-3.450045594	-2.7107962072	 0.248232
N	 2.1480790265	-4.5267014747	-2.5905399169	-0.313634
H	 1.0056281161	 1.225124288	 0.9890548739	 0.137998
H	 0.2193070296	 2.137731991	-0.2989724767	 0.141646
H	-0.73216394	 1.5630178903	 1.0833752685	 0.122352
H	-0.3657567305	-0.8280564783	 0.3578051025	 0.146399
H	-1.1525843979	 0.0794274973	-0.9063342344	 0.147948
H	 1.8944254185	-1.9513064797	-4.6921772608	 0.261868
32.651	52.665	68.0825	139.264	197.8361	211.8396	260.4871	313.992	383.9611	470.5561	547.3298	606.5779	644.7396	723.8769	802.2603	847.1003	860.6693	913.8207	1004.2999	1062.6175	1080.8305	1108.089	1118.5135	1277.5206	1323.5412	1375.4991	1419.1704	1453.1707	1494.1499	1500.5657	1713.3873	1889.4785	2350.1932	3043.909	3056.2792	3076.2954	3129.629	3133.8345	3514.1204
CCC(=O)OC(=N)C#N	CCC(=O)O[C]([NH])C#N	
InChI=1S/C5H6N2O2/c1-2-5(8)9-4(7)3-6/h7H,2H2,1H3	InChI=1S/C5H6N2O2/c1-2-5(8)9-4(7)3-6/h7H,2H2,1H3
