23
gdb 94695	3.1803	1.30744	1.13528	1.4255	84.62	-0.2504	0.0753	0.3257	1185.7654	0.207702	-388.3009	-388.292456	-388.291512	-388.333128	34.899	
C	-0.7820634439	 1.2584111611	 0.1705776168	-0.407903
C	 0.0911423661	 0.0190082158	-0.0496843397	 0.050002
C	 0.9596394798	 0.1727569177	-1.3241308887	-0.213697
C	 2.2496500219	-0.6804309465	-1.2950260368	-0.2763
C	 2.7619285298	-0.8646183977	 0.1423370298	 0.438247
O	 4.0581601373	-1.4059227133	 0.1991747556	-0.490723
C	 1.7126055954	-1.6459659662	 0.9577422357	-0.263899
C	 0.9979234393	-0.282611266	 1.1619474371	-0.012154
C	 2.3996055068	 0.3829137791	 1.0105206277	-0.297335
H	-0.1647377684	 2.1424892949	 0.3703961513	 0.113656
H	-1.395346202	 1.4756647244	-0.7108055132	 0.109339
H	-1.4564252384	 1.1227177818	 1.022698017	 0.10975
H	-0.5757713067	-0.8452891382	-0.1757114907	 0.068635
H	 0.369651459	-0.0480653791	-2.2194582604	 0.094049
H	 1.2454205313	 1.2273475402	-1.4105459442	 0.099521
H	 2.0912625291	-1.6716363723	-1.7357755684	 0.103509
H	 3.0218653279	-0.1874632149	-1.9022278334	 0.078175
H	 4.6181307447	-0.9180061685	-0.4143666194	 0.270281
H	 1.1661099575	-2.4496179508	 0.4537626252	 0.084314
H	 2.1523168665	-2.0223121466	 1.8849183235	 0.10041
H	 0.4679039832	-0.1326969658	 2.1053220058	 0.059039
H	 2.9564369469	 0.3571934026	 1.9501891782	 0.099934
H	 2.4726684867	 1.3816123883	 0.5701886711	 0.083151
129.746	211.615	253.7772	256.2055	278.8158	338.6054	375.2286	411.1746	428.7269	467.6016	507.3163	559.587	660.4494	759.3193	791.4181	866.1816	876.9191	914.9236	919.3172	939.9294	947.8927	995.3411	1015.6861	1028.9131	1050.4633	1063.4975	1078.3926	1136.1403	1145.5131	1185.2955	1189.8919	1215.9863	1232.6828	1249.0226	1265.7306	1278.3983	1326.4508	1339.475	1357.9678	1362.2066	1387.6451	1396.3996	1410.1245	1476.3888	1490.14	1495.6678	1498.2153	1501.8436	1522.8467	3000.1514	3004.9687	3022.5842	3035.6723	3044.0315	3053.8112	3054.8598	3076.3254	3078.2101	3089.7726	3096.1352	3107.8998	3114.4442	3800.7028
CC1CCC2(O)CC1C2	C[C@H]1CC[C@]2(O)C[C@H]1C2	
InChI=1S/C8H14O/c1-6-2-3-8(9)4-7(6)5-8/h6-7,9H,2-5H2,1H3	InChI=1S/C8H14O/c1-6-2-3-8(9)4-7(6)5-8/h6-7,9H,2-5H2,1H3/t6-,7-,8-/m0/s1
