19
gdb 37808	2.46383	2.1378	1.6447	1.147	72.88	-0.2255	0.0791	0.3047	904.6805	0.162951	-423.021915	-423.015277	-423.014333	-423.052642	27.764	
C	-0.0163017022	 1.4983223086	-0.1165627618	-0.202806
C	 1.3789422092	 2.1304866092	 0.0028075551	-0.227119
C	 2.09934266	 1.9045034058	 1.3280292351	-0.104639
C	 1.5308119879	 1.1756714121	 2.5436606292	 0.031549
O	 0.4020428963	 0.3512712112	 2.3963264915	-0.259238
C	 0.6553033514	-0.5205334593	 1.2997437082	 0.183524
C	-0.0458271882	-0.0280882036	 0.0287246278	-0.213178
O	 2.0702545324	-0.576841078	 1.1232431494	-0.265164
C	 2.6294883651	 0.5477400694	 1.7521515724	 0.045004
H	-0.668123491	 1.9335839414	 0.6477747038	 0.114889
H	-0.4433600476	 1.7714799328	-1.0877829072	 0.092176
H	 2.0192380331	 1.769351467	-0.8129697598	 0.105936
H	 1.2744385064	 3.210951163	-0.146456702	 0.100925
H	 2.7612805616	 2.7178084521	 1.6199044726	 0.088683
H	 1.6171370868	 1.5772501274	 3.5455140294	 0.106754
H	 0.3123639063	-1.5253354621	 1.5734165781	 0.0922
H	-1.0875538089	-0.3691649747	 0.0498745486	 0.098945
H	 0.4373544838	-0.5227166267	-0.8215688061	 0.107881
H	 3.6474630076	 0.3798314444	 2.0813757857	 0.103676
152.0518	246.696	272.6782	375.7632	394.6013	509.4601	595.9105	656.5095	713.5594	744.4514	761.7622	802.1047	812.9986	851.564	898.127	915.3486	928.007	966.5058	1032.9206	1048.7905	1072.0325	1085.3825	1086.8965	1102.2642	1127.5432	1153.5303	1197.2629	1205.5315	1242.8972	1289.7866	1295.7337	1340.1202	1359.1269	1374.6077	1383.4576	1387.9234	1408.1121	1424.2239	1471.6394	1484.0667	1492.0477	3017.798	3028.6307	3040.0114	3046.7491	3061.162	3073.9097	3090.8992	3124.5693	3184.5806	3194.8482
C1CC2C3OC(C1)OC23	C1C[C@H]2[C@H]3O[C@@H](C1)O[C@@H]23	
InChI=1S/C7H10O2/c1-2-4-6-7(4)9-5(3-1)8-6/h4-7H,1-3H2	InChI=1S/C7H10O2/c1-2-4-6-7(4)9-5(3-1)8-6/h4-7H,1-3H2/t4-,5+,6+,7-
