19
gdb 117060	4.39144	0.8019	0.68682	1.4422	76.28	-0.2305	-0.0284	0.2021	1666.5506	0.157414	-456.384486	-456.373849	-456.372905	-456.4217	36.146	
C	 0.0152720576	 1.4621693066	-0.072183809	-0.390727
C	-0.0541671954	-0.0518069249	-0.0807511629	-0.046016
O	 0.6660471247	-0.5116488318	-1.2441980509	-0.214297
C	 0.7097233882	-1.8265566241	-1.4139233367	 0.471307
O	 0.1960788461	-2.6366069961	-0.6721195712	-0.39401
C	 1.4824720854	-2.2432643104	-2.6557903524	 0.210387
N	 2.0100034966	-1.355575302	-3.4119422536	-0.521333
N	 1.4922236425	-3.599780527	-2.7770399241	-0.296313
C	 2.1490444793	-4.290128923	-3.8571030282	-0.336183
H	 1.0524168448	 1.8041337103	-0.0208829172	 0.136256
H	-0.4387658488	 1.8776869078	-0.9757630538	 0.136294
H	-0.5223760023	 1.8517502039	 0.7973944784	 0.121489
H	 0.4021164305	-0.4923165226	 0.8114484499	 0.123823
H	-1.0839364086	-0.4187146936	-0.1374727186	 0.123817
H	 2.493932726	-1.7842930738	-4.2026438845	 0.209877
H	 1.0062394662	-4.107128855	-2.0547234956	 0.264509
H	 3.22734142	-4.0804016722	-3.8776779778	 0.132863
H	 2.0141395818	-5.3651802547	-3.7280089404	 0.135371
H	 1.7321972555	-4.0074953473	-4.8335542615	 0.132886
34.6972	61.1202	76.9741	124.5834	140.3128	149.465	248.2649	256.2527	332.8575	346.4193	418.2796	445.4567	507.7527	532.6498	738.861	804.6776	823.405	868.8293	883.7024	904.1345	1019.0263	1063.9011	1135.7166	1160.746	1181.371	1184.7559	1196.3749	1271.4287	1291.2476	1346.3876	1402.4351	1426.2069	1456.4876	1481.383	1485.027	1495.0841	1517.037	1519.9338	1552.0976	1709.828	1784.3972	3000.5207	3041.9463	3048.7539	3050.636	3089.76	3122.7837	3130.7859	3133.0113	3463.7265	3635.4361
CCOC(=O)C(=N)NC	CCOC(=O)C(=N)NC	
InChI=1S/C5H10N2O2/c1-3-9-5(8)4(6)7-2/h3H2,1-2H3,(H2,6,7)	InChI=1S/C5H10N2O2/c1-3-9-5(8)4(6)7-2/h3H2,1-2H3,(H2,6,7)
