13
gdb 130676	6.37266	0.90433	0.79581	5.4124	65.36	-0.2607	-0.006	0.2548	1319.6104	0.088214	-452.729816	-452.721835	-452.720891	-452.763162	28.699	
O	-0.1426406425	-0.0850166296	 0.0054170661	-0.387556
C	-0.0693324312	 1.1086832539	 0.0112440852	 0.514486
N	-1.0810618907	 2.0618935821	 0.0296363182	-0.431303
C	-0.5011291661	 3.3039771059	 0.0275862733	 0.454913
C	-1.3020093343	 4.5726766163	 0.0450201633	-0.503078
C	-0.4987548363	 5.7864340678	 0.0408584582	 0.343657
C	 0.1330471309	 6.8057065119	 0.0378062352	-0.424144
N	 0.7869133995	 3.2338167865	 0.0086336374	-0.165201
O	 1.0843315036	 1.8466786372	-0.0027749383	-0.230556
H	-2.0591992906	 1.8300299172	 0.04236988	 0.287971
H	-1.9772372512	 4.565484648	-0.8224272759	 0.164554
H	-1.9539652729	 4.5561019053	 0.9299577065	 0.164477
H	 0.707799672	 7.6990080076	 0.0344550609	 0.21178
41.3338	112.0163	163.024	276.8388	308.4491	331.7346	414.9701	451.4809	533.6848	636.0161	646.6261	671.0596	710.9815	768.2157	770.0229	924.1293	955.6407	966.8436	975.9834	1038.509	1194.2035	1233.8139	1234.8638	1348.8432	1457.2942	1491.3302	1664.2078	1908.9683	2259.1814	3008.3419	3033.6812	3504.0725	3684.9548
O=C1NC(CC#C)=NO1	O=c1[nH]c(CC#C)no1	
InChI=1S/C5H4N2O2/c1-2-3-4-6-5(8)9-7-4/h1H,3H2,(H,6,7,8)	InChI=1S/C5H4N2O2/c1-2-3-4-6-5(8)9-7-4/h1H,3H2,(H,6,7,8)
