23
gdb 53093	2.54605	0.93874	0.84977	0.2499	97.09	-0.221	0.0575	0.2785	1559.5621	0.202271	-351.137478	-351.125971	-351.125027	-351.175934	40.825	
C	 0.0933657532	 1.5169140781	-0.072570163	-0.49977
C	 0.0410976514	 0.0625566097	-0.0194073905	 0.081767
C	 0.0029852574	-1.1425030207	 0.0188798976	 0.080219
C	-0.024018645	-2.5756766363	 0.0523609802	-0.278342
C	-0.5225905092	-3.3329869593	 1.2883319467	-0.044043
C	-0.9368191804	-2.6068688055	 2.5481186543	-0.418553
C	-1.3424254924	-3.3599473122	 0.0215041266	 0.313301
C	-2.6511944657	-2.5999671505	-0.0643666325	-0.452609
C	-1.3332442066	-4.6488840811	-0.7798460901	-0.447534
H	 0.7875994321	 1.8595668141	-0.8482922415	 0.146315
H	-0.889270456	 1.9457645424	-0.3000793216	 0.144176
H	 0.4277553328	 1.944434039	 0.8796888341	 0.14403
H	 0.8004118766	-3.0463788414	-0.4780555254	 0.097526
H	 0.0294957908	-4.2505033741	 1.4812208734	 0.079988
H	-1.3579645325	-1.622391649	 2.3348782513	 0.129003
H	-1.6805416673	-3.1837621402	 3.1091140161	 0.113024
H	-0.0717270757	-2.4541264193	 3.2024107931	 0.118098
H	-2.6038850003	-1.6307189167	 0.4340351708	 0.127732
H	-2.9159883658	-2.415557645	-1.1118112885	 0.11509
H	-3.4659836884	-3.1794603886	 0.385457428	 0.109981
H	-2.1068074915	-5.3381923474	-0.4200274111	 0.11349
H	-1.5291175179	-4.4561006083	-1.8412065741	 0.115662
H	-0.3698158895	-5.1631205876	-0.7050260639	 0.111449
7.8159	82.0026	93.2106	150.0699	162.7475	198.1314	222.4706	229.2333	263.8433	279.2232	351.2356	386.372	400.6543	457.0741	512.1373	576.4448	692.4527	756.418	774.6662	904.0782	954.1891	970.5703	985.2116	1003.0332	1052.1138	1053.3288	1060.9231	1083.7576	1133.8342	1144.487	1164.276	1213.5343	1253.2192	1330.3418	1367.6915	1408.4869	1414.5584	1415.9741	1425.4458	1441.5987	1477.814	1478.7215	1480.5018	1487.7589	1490.6057	1498.6731	1504.7875	1515.6159	2359.6262	3017.9806	3021.5472	3028.2018	3033.9273	3077.9259	3079.1052	3081.7485	3082.5293	3088.9946	3095.418	3114.0646	3124.9703	3131.2829	3138.0902
CC#CC1C(C)C1(C)C	CC#C[C@H]1[C@@H](C)C1(C)C	
InChI=1S/C9H14/c1-5-6-8-7(2)9(8,3)4/h7-8H,1-4H3	InChI=1S/C9H14/c1-5-6-8-7(2)9(8,3)4/h7-8H,1-4H3/t7-,8+/m1/s1
