17
gdb 47468	3.39306	1.10521	0.88668	1.8914	73.75	-0.2432	-0.029	0.2142	1277.6586	0.134373	-421.80744	-421.79871	-421.797765	-421.841579	31.821	
O	-0.276674805	 0.1496498757	 0.6334664342	-0.290928
C	-0.1632871736	 1.2684104973	 0.2117211411	 0.359308
C	-1.2996044303	 2.1740571015	-0.2751269371	-0.179871
O	-0.6922527719	 3.3838645448	-0.6858297691	-0.248221
C	 0.5316528613	 3.5221738113	 0.0344302789	-0.115138
C	 1.1179153223	 2.1066169195	 0.1148196317	-0.110922
C	 2.1230585164	 1.859434636	 1.2533498827	-0.376749
C	 2.8722185012	 0.6172601551	 1.1124690478	 0.317187
C	 3.5166120858	-0.3871809188	 0.9763184785	-0.439798
H	-1.8442788741	 1.7306897858	-1.1141302546	 0.141772
H	-2.0106587013	 2.3248846189	 0.5539525177	 0.123468
H	 1.1575745471	 4.2312786081	-0.5111030693	 0.123721
H	 0.3496444408	 3.9241217531	 1.0459700003	 0.096674
H	 1.5856103631	 1.8647792543	-0.8481844253	 0.127286
H	 2.8293155726	 2.6994063272	 1.2874519306	 0.135431
H	 1.5915927551	 1.8658245754	 2.213287549	 0.138484
H	 4.0677287705	-1.2881747954	 0.8677931628	 0.198297
53.2302	81.0045	136.5672	206.4799	231.3204	327.0492	334.3888	417.7372	475.8711	574.1022	620.4003	628.7854	648.888	660.0187	731.4625	893.3423	937.2946	951.204	967.6333	1023.7568	1082.6473	1088.151	1099.0975	1155.3152	1202.288	1217.0822	1243.5366	1278.9489	1319.7984	1325.3753	1359.6152	1395.2185	1467.3031	1476.447	1517.0487	1861.3497	2244.823	2961.5214	2978.4235	3018.2012	3035.837	3054.9706	3085.214	3107.1403	3506.9218
O=C1COCC1CC#C	O=C1COC[C@H]1CC#C	
InChI=1S/C7H8O2/c1-2-3-6-4-9-5-7(6)8/h1,6H,3-5H2	InChI=1S/C7H8O2/c1-2-3-6-4-9-5-7(6)8/h1,6H,3-5H2/t6-/m1/s1
