21
gdb 75255	2.64737	1.68767	1.34302	0.2781	87.66	-0.2104	0.0273	0.2378	1063.3325	0.183945	-349.933876	-349.925974	-349.92503	-349.965703	32.216	
C	-0.011606004	 1.5278002402	 0.0118211142	-0.499676
C	-0.001646879	 0.0305173589	-0.0293248825	 0.23782
C	 0.0787418306	-0.7486581365	-1.1223073367	-0.161299
C	 0.0226603682	-2.2449540606	-0.8268705552	-0.356295
C	-0.0149057435	-2.2751866482	 0.6955576738	 0.259323
C	 1.1326406681	-1.7149826586	 1.4815964483	-0.359004
C	-0.0511836177	-0.8230318096	 1.193137473	 0.180957
C	-1.2319102297	-1.1450545182	 2.1337845347	-0.288934
C	-1.1989418792	-2.6263885637	 1.6183517455	-0.280376
H	 0.8416643825	 1.9134263259	 0.583644105	 0.126187
H	 0.0206247487	 1.9623239878	-0.9910778562	 0.120159
H	-0.9137187342	 1.9012189235	 0.5128792506	 0.124667
H	 0.208719037	-0.3677025165	-2.1319175094	 0.080195
H	-0.8751853236	-2.7058244438	-1.2623187595	 0.102443
H	 0.8777198898	-2.7824316316	-1.257925654	 0.104766
H	 1.3019615068	-2.0646694613	 2.4977726557	 0.103235
H	 2.037036774	-1.4899702314	 0.9270381277	 0.113317
H	-1.0538688442	-0.9874669466	 3.2025713605	 0.093725
H	-2.1530601276	-0.6276098458	 1.856816648	 0.103021
H	-2.100836752	-2.8896099272	 1.0601443901	 0.101815
H	-1.0155201309	-3.4072206067	 2.3644301665	 0.093957
147.2847	177.2194	222.7003	245.6707	277.8489	335.1594	413.9737	539.8202	562.4103	591.8379	668.6935	711.8521	769.4175	771.6804	812.9391	826.9156	921.3283	931.0434	941.7343	954.3495	960.5287	966.552	1030.6235	1060.9536	1074.0849	1090.0367	1124.0346	1147.4224	1186.5693	1218.8065	1239.501	1242.5577	1258.6426	1278.7584	1326.611	1351.3703	1384.5278	1413.5678	1471.3355	1476.6483	1478.2581	1482.0134	1489.3297	1500.008	1675.3397	3004.8915	3018.0976	3031.6643	3036.4656	3046.179	3064.349	3091.8824	3104.8452	3108.6785	3112.1032	3165.5818	3205.9777
CC1=CCC23CC12CC3	CC1=CC[C@@]23C[C@@]12CC3	
InChI=1S/C9H12/c1-7-2-3-8-4-5-9(7,8)6-8/h2H,3-6H2,1H3	InChI=1S/C9H12/c1-7-2-3-8-4-5-9(7,8)6-8/h2H,3-6H2,1H3/t8-,9+/m1/s1
