18
gdb 43823	3.195	1.43402	1.15075	4.0668	75.79	-0.2486	-0.0082	0.2404	1082.5725	0.148375	-401.942038	-401.934437	-401.933493	-401.974897	29.795	
O	 0.0459282912	 0.0293032674	-0.1671792131	-0.305571
C	-0.0013765249	 1.2231598015	-0.0907361866	 0.392111
C	-1.2743569303	 2.0710684952	 0.0783267233	-0.445869
C	-0.7977858598	 3.5168498294	 0.0791452992	 0.374409
C	-1.4994839205	 4.5832320927	-0.7216956737	-0.319538
C	-1.5315619734	 4.6275145509	 0.7862103983	-0.312426
C	 0.7131412553	 3.4545231311	 0.0693743445	-0.10524
C	 1.4116931346	 2.7355906884	 1.1581324541	-0.26017
N	 1.1632670452	 2.0667658933	-0.150376774	-0.137539
H	-1.9697786518	 1.8416966187	-0.734274721	 0.143603
H	-1.7644332319	 1.7648882407	 1.0088862539	 0.138917
H	-0.8905193991	 5.3161583655	-1.2416633173	 0.118122
H	-2.4079621013	 4.3058979227	-1.2462702349	 0.118325
H	-2.4625861397	 4.382330271	 1.2868229627	 0.117674
H	-0.9428953351	 5.3883934911	 1.2883688239	 0.117848
H	 1.2510319006	 4.2114201488	-0.495270634	 0.102696
H	 2.4597678797	 2.9249378508	 1.3666317412	 0.134556
H	 0.8286754211	 2.4029190807	 2.0137013536	 0.128094
28.7365	171.6819	246.3752	283.9157	319.7926	442.3662	480.3808	506.6801	570.4277	654.7856	726.0722	780.2523	782.6817	842.0663	868.4038	886.273	928.2887	956.1769	990.6268	1012.6421	1034.1135	1060.8135	1076.9216	1088.2342	1098.3136	1120.2653	1168.7134	1184.6529	1190.6106	1244.8285	1273.6072	1299.6724	1318.1671	1409.8767	1458.315	1467.557	1503.3582	1507.7523	1866.2233	3052.5884	3093.213	3111.6377	3123.8939	3128.1179	3144.0373	3203.0168	3203.455	3218.367
O=C1CC2(CC2)C2CN12	O=C1CC2(CC2)[C@H]2CN12	
InChI=1S/C7H9NO/c9-6-3-7(1-2-7)5-4-8(5)6/h5H,1-4H2	InChI=1S/C7H9NO/c9-6-3-7(1-2-7)5-4-8(5)6/h5H,1-4H2/t5-,8?/m1/s1
