14
gdb 133256	3.36563	1.39133	0.99044	1.6905	69.89	-0.2373	-0.0761	0.1612	1092.672	0.101145	-474.133054	-474.125623	-474.124679	-474.165064	27.831	
C	-0.0333721704	 1.4170635545	 0.0022665173	-0.307595
N	-0.0075975322	-0.0405853968	 0.043041359	-0.038126
N	-0.0413646908	-0.6440257759	-1.1404453093	-0.045509
N	-0.0232915083	-1.9200511743	-1.2258024613	-0.278483
C	 0.0316194675	-2.6400800565	-0.0653457453	 0.409013
F	 0.0458657238	-3.943834488	-0.2681153072	-0.048649
C	 0.0689640154	-2.1192553359	 1.17722262	-0.394007
C	 0.0498505832	-0.6818373835	 1.3067162121	 0.440755
N	 0.0758252709	 0.0665978431	 2.3450770454	-0.566889
H	 0.8611135011	 1.8119567008	 0.488785933	 0.161374
H	-0.0770033324	 1.7113506513	-1.0446985385	 0.153476
H	-0.9021070066	 1.7826080104	 0.5540132454	 0.161372
H	 0.1120385459	-2.744702296	 2.0593607081	 0.132962
H	 0.1165229431	-0.5005316732	 3.1897734915	 0.220307
118.3083	164.6432	197.9502	293.0274	341.4098	368.603	464.0139	470.3959	536.9425	600.0769	694.6667	749.0134	752.3802	794.7276	807.6189	871.7104	979.9478	1056.6792	1098.0094	1153.4628	1215.2867	1247.3655	1292.7912	1359.2447	1389.7131	1432.9977	1467.3018	1502.1149	1503.2449	1648.4376	1717.3243	3066.2942	3134.1436	3183.3521	3219.7394	3504.399
CN1N=NC(F)=CC1=N	Cn1nnc(F)cc1[NH]	
InChI=1S/C4H5FN4/c1-9-4(6)2-3(5)7-8-9/h2,6H,1H3	InChI=1S/C4H10FN4/c1-9-4(6)2-3(5)7-8-9/h3-4,6-8H,2H2,1H3
