19
gdb 86143	2.18379	1.69391	1.22825	2.032	70.58	-0.2558	-0.0307	0.2251	1079.9499	0.159097	-460.197857	-460.189101	-460.188157	-460.231099	33.601	
C	 0.4410170245	 1.5232725919	-0.1305239721	-0.394872
C	 0.0179341357	 0.0618742139	 0.0698423239	-0.09113
C	 0.2174510778	-0.8535783806	-1.1702406338	-0.250849
C	 1.4621280893	-1.7099253496	-0.8695643005	 0.096484
O	 2.6195730176	-0.9221050555	-1.0920758295	-0.44335
C	 1.3402531559	-1.9766640106	 0.6366948436	 0.015759
O	 2.5504134914	-2.3578364124	 1.2386706969	-0.448107
C	 0.8705352463	-0.611284715	 1.1428031091	 0.377335
O	 1.2428199211	-0.1507736738	 2.1947520561	-0.341128
H	 1.4641180962	 1.5671574916	-0.5127208972	 0.143118
H	-0.2191458031	 2.0183226711	-0.8484854149	 0.115058
H	 0.3995524531	 2.066647898	 0.8169816763	 0.133752
H	-1.025325976	 0.0388441134	 0.4087271168	 0.105531
H	-0.6469362632	-1.5069707284	-1.3246933033	 0.103661
H	 0.3682059016	-0.2811974046	-2.0883769523	 0.122978
H	 1.4900109626	-2.6314117014	-1.4660860049	 0.071901
H	 3.2926528775	-1.2773101521	-0.4939813614	 0.290677
H	 0.5449361393	-2.7195232582	 0.8213220922	 0.095325
H	 2.6284331725	-1.8009804277	 2.0304137051	 0.297858
72.7946	130.8766	218.9272	235.6733	253.516	293.245	339.5578	376.5532	462.4059	507.5617	535.1441	566.0638	586.6563	681.6142	743.9991	824.3945	853.3858	900.6931	931.2469	978.8139	1021.9256	1039.3731	1053.8774	1119.5705	1151.6618	1170.272	1191.555	1222.9205	1252.016	1286.2832	1313.9862	1332.8066	1354.0901	1377.6089	1399.3227	1412.4428	1423.4961	1481.0922	1492.7782	1507.5085	1833.5528	2961.4621	3014.9575	3030.0299	3046.2304	3061.6204	3112.3729	3120.6478	3132.4076	3684.5822	3739.8171
CC1CC(O)C(O)C1=O	C[C@H]1C[C@@H](O)[C@@H](O)C1=O	
InChI=1S/C6H10O3/c1-3-2-4(7)6(9)5(3)8/h3-4,6-7,9H,2H2,1H3	InChI=1S/C6H10O3/c1-3-2-4(7)6(9)5(3)8/h3-4,6-7,9H,2H2,1H3/t3-,4+,6+/m0/s1
