15
gdb 123581	3.99164	1.61647	1.25542	2.9483	70.3	-0.2362	-0.013	0.2232	946.0335	0.11564	-416.766485	-416.760369	-416.759425	-416.796866	24.899	
C	 0.0438278402	 1.4775892045	-0.0138598177	-0.248749
C	 1.2825091924	 0.6644222678	 0.0296557041	-0.024314
C	 1.9637558232	 0.3889643571	 1.3874704756	-0.374525
C	 0.8674030491	-0.349623638	 2.1045454287	 0.368772
N	 0.6910189322	-0.8689477575	 3.2868296868	-0.241731
O	-0.5901277216	-1.4410573509	 3.2177636861	-0.180666
C	-1.1243086867	-1.2383302661	 1.9870359785	-0.058601
C	-0.2377926465	-0.5424709292	 1.2386654114	 0.155327
N	-0.0638734309	-0.0046358738	-0.0612042383	-0.199366
H	-0.2840079052	 1.969372157	 0.8987461464	 0.128713
H	-0.2404442307	 1.9775576906	-0.9345530608	 0.129155
H	 1.8911035228	 0.5896095443	-0.8650474008	 0.108593
H	 2.8542413996	-0.2341890768	 1.2570090277	 0.140881
H	 2.2752736039	 1.3049326407	 1.8983496628	 0.14111
H	-2.1100625817	-1.6447539497	 1.8317016695	 0.1554
170.5969	235.128	353.1232	447.1721	456.9965	593.2841	618.4639	687.883	715.9191	751.4942	782.888	823.7416	832.7623	881.1242	908.4694	957.4052	961.7772	1058.477	1081.9986	1101.6892	1117.1855	1119.9274	1172.9868	1184.5968	1252.019	1285.4809	1287.9071	1372.4667	1420.1357	1478.4489	1498.5234	1561.1228	1675.2992	3055.6409	3093.2769	3111.0836	3170.4668	3204.1058	3279.0027
C1C2CC3=NOC=C3N12	C1[C@H]2Cc3nocc3N12	
InChI=1S/C6H6N2O/c1-4-2-8(4)6-3-9-7-5(1)6/h3-4H,1-2H2	InChI=1S/C6H6N2O/c1-4-2-8(4)6-3-9-7-5(1)6/h3-4H,1-2H2/t4-,8?/m1/s1
