14
gdb 22809	2.99648	1.46709	1.01436	3.3154	62.94	-0.2626	-0.0642	0.1984	1084.1505	0.101136	-510.932554	-510.924859	-510.923915	-510.965537	27.964	
O	 0.0148425946	 1.3314351036	 0.2996060439	-0.335516
N	 0.0238605075	-0.0120528195	 0.0395272656	-0.164087
C	-1.1200446601	-0.5844690561	-0.0240786613	 0.194934
C	-1.0867713901	-2.0759253423	-0.2828056984	-0.174374
O	-2.2125767935	-2.4478175064	-1.0628453649	-0.2128
C	-3.378257423	-2.1323379653	-0.38708096	 0.016607
O	-3.5375643378	-0.7257502122	-0.1609736142	-0.236036
C	-2.466368189	 0.0746981349	 0.1019884648	 0.384851
O	-2.647256362	 1.2268518937	 0.3758329177	-0.302202
H	 0.9546963446	 1.5512581476	 0.2783913416	 0.318783
H	-0.1868665328	-2.3467968156	-0.835481775	 0.146753
H	-1.0939889164	-2.6330062278	 0.6689449912	 0.116875
H	-4.2228309889	-2.4310756957	-1.0091959474	 0.140463
H	-3.4230592632	-2.6380562988	 0.5912649563	 0.105749
46.6697	120.4194	239.9937	271.3465	337.861	390.7787	415.9424	451.8462	490.8588	555.6402	623.527	692.8794	757.1623	806.5028	983.8241	1018.3714	1037.0082	1066.4604	1071.2177	1144.2986	1227.0431	1250.0551	1267.9809	1321.8488	1379.8428	1432.7347	1454.075	1489.4058	1523.6074	1697.7887	1838.2867	2968.4724	2975.7377	3128.0643	3132.1146	3783.9044
ON=C1COCOC1=O	ON=C1COCOC1=O	
InChI=1S/C4H5NO4/c6-4-3(5-7)1-8-2-9-4/h7H,1-2H2	InChI=1S/C4H5NO4/c6-4-3(5-7)1-8-2-9-4/h7H,1-2H2
