21
gdb 123200	2.90981	0.61863	0.53096	4.7961	81.91	-0.2441	0.0267	0.2708	2074.6202	0.181237	-420.401847	-420.3911	-420.390156	-420.439483	36.689	
C	-0.1945696962	 1.5088047539	-0.1099539526	-0.386579
C	-0.0823163716	-0.0051613986	-0.0661017344	-0.028659
O	-1.3848655774	-0.5527675077	 0.0236802239	-0.251262
C	-1.4070086384	-1.9647508421	 0.051234606	-0.069742
C	-2.8626151863	-2.4005611417	 0.0345830348	-0.141379
N	-3.4937695576	-1.9469108759	-1.1997461663	-0.295814
C	-4.930937189	-2.1721208073	-1.2144485186	-0.259011
C	-5.5340977074	-1.6644108173	-2.4505077387	 0.25868
N	-6.0166740038	-1.2473300964	-3.4133044522	-0.299588
H	 0.7989348327	 1.9618487561	-0.1761752432	 0.118983
H	-0.7783009544	 1.8259636154	-0.9788301399	 0.128781
H	-0.687970767	 1.8841910705	 0.7909957105	 0.127889
H	 0.4245288408	-0.3843184521	-0.9687862874	 0.092778
H	 0.5197672754	-0.3251093414	 0.8006742433	 0.088899
H	-0.8841990586	-2.3757409678	-0.8269404432	 0.10175
H	-0.9075610447	-2.3474310828	 0.9559881841	 0.090667
H	-2.9113102469	-3.49585463	 0.0833518464	 0.107187
H	-3.361141761	-2.0092673476	 0.940506084	 0.091789
H	-3.2949498383	-0.9573537807	-1.3100209957	 0.241392
H	-5.1238339301	-3.2514050053	-1.1585706365	 0.152832
H	-5.4703399904	-1.7172238812	-0.3621565643	 0.130406
39.428	68.4636	81.5832	100.7535	129.3642	178.2368	213.6136	247.7128	300.9191	323.7895	394.4359	437.027	520.3222	572.903	804.148	820.7011	846.6408	916.111	928.9026	967.0067	1002.3781	1057.1041	1110.8879	1125.2927	1152.531	1162.1521	1171.4644	1190.8219	1235.2462	1264.8587	1297.1421	1302.5433	1355.2728	1384.0684	1404.6852	1414.9956	1450.4469	1483.7908	1488.421	1493.8349	1498.7876	1507.0441	1508.4931	1535.5068	2368.7051	2928.1327	2937.2083	2959.0683	2972.7443	2988.4774	3007.9292	3040.3974	3045.1955	3045.7203	3120.779	3122.148	3527.3013
CCOCCNCC#N	CCOCCNCC#N	
InChI=1S/C6H12N2O/c1-2-9-6-5-8-4-3-7/h8H,2,4-6H2,1H3	InChI=1S/C6H12N2O/c1-2-9-6-5-8-4-3-7/h8H,2,4-6H2,1H3
