23
gdb 104054	2.73576	1.24924	1.14104	1.7762	84.77	-0.2376	0.077	0.3146	1233.0599	0.205392	-388.26184	-388.252644	-388.2517	-388.29585	35.598	
C	-0.2601424533	 1.5005023356	 0.0488397386	-0.391344
C	-0.0244877479	-0.014725001	 0.0887346802	-0.239474
C	 0.814190475	-0.5002421499	 1.2764625732	 0.351006
C	 2.2049304525	 0.1405064262	 1.297487526	-0.449928
C	 0.1176187232	-0.4188147719	 2.686194321	-0.293824
C	 0.2752565372	-1.9426817449	 2.8486034616	 0.12805
O	-0.8830223393	-2.6744296976	 2.3875112228	-0.294972
C	-0.2604667331	-2.9384789842	 1.1084407712	-0.099135
C	 0.9493031084	-2.0577351219	 1.4528527165	-0.128945
H	 0.6674169603	 2.0579236953	-0.111363709	 0.117914
H	-0.9445731321	 1.7628814649	-0.7637093028	 0.113286
H	-0.7060576397	 1.8575970031	 0.983748757	 0.119569
H	-1.0003820051	-0.5121707064	 0.1149482916	 0.104253
H	 0.458620577	-0.334383389	-0.8452738019	 0.089439
H	 2.147098683	 1.2217712989	 1.4562945219	 0.117002
H	 2.8160132785	-0.2757852197	 2.105862869	 0.111298
H	 2.7356413065	-0.0373042083	 0.3544197009	 0.110154
H	 0.6694871274	 0.1796763782	 3.4169702963	 0.093943
H	-0.9284075503	-0.1024812992	 2.6836748152	 0.105901
H	 0.6731262456	-2.3431978225	 3.7850737714	 0.071498
H	-0.007913062	-4.0023510378	 1.0039513788	 0.096082
H	-0.8947764836	-2.6460947553	 0.2641074576	 0.100745
H	 1.9390625217	-2.4777028127	 1.2720989427	 0.067481
51.494	97.9731	186.9799	234.8969	258.6645	284.2412	315.6598	335.6446	389.3339	431.3056	469.0505	614.4763	723.9031	786.397	791.8412	831.1816	870.8546	905.4193	929.8601	947.4356	983.0369	1008.2656	1012.1996	1021.8961	1029.4438	1058.7379	1085.1135	1110.0811	1148.3324	1170.7223	1190.8974	1211.3412	1235.6186	1258.1088	1274.0562	1299.2963	1306.6683	1347.7421	1362.5281	1368.8211	1407.3738	1412.4855	1461.3356	1480.9317	1493.836	1498.691	1504.6372	1512.1765	1525.3957	3005.3338	3010.8445	3022.2122	3036.0216	3049.3766	3054.2394	3062.1821	3067.4252	3086.6571	3098.3059	3100.3747	3104.9769	3110.1406	3112.0965
CCC1(C)CC2OCC12	CC[C@@]1(C)C[C@H]2OC[C@@H]12	
InChI=1S/C8H14O/c1-3-8(2)4-7-6(8)5-9-7/h6-7H,3-5H2,1-2H3	InChI=1S/C8H14O/c1-3-8(2)4-7-6(8)5-9-7/h6-7H,3-5H2,1-2H3/t6-,7-,8+/m1/s1
