19
gdb 18294	3.03133	2.07741	1.85269	0.3286	70.81	-0.2148	0.0892	0.3039	841.0787	0.16761	-365.033123	-365.025888	-365.024944	-365.064203	28.422	
C	-0.2587904208	 1.5400989794	 0.0661497394	-0.434249
C	-0.0278031533	 0.0470011277	-0.0078599639	 0.015737
C	 0.5858665394	-0.6234125725	-1.18714041	-0.0461
C	 1.1324475948	 0.1431756766	-2.3824633405	-0.116002
O	 2.0630322897	 1.1530428518	-2.0292471	-0.235922
C	 3.0707657235	 0.6321295318	-1.1773162523	-0.081898
C	 2.4923123622	 0.2793046428	 0.1914000798	-0.155584
N	 1.3021363739	-0.5807664427	 0.0994907374	-0.119936
H	 0.421093832	 2.1006117086	-0.5765641348	 0.145864
H	-1.2854668517	 1.7645276187	-0.2429534119	 0.117889
H	-0.1448565153	 1.9015015116	 1.0952075022	 0.119286
H	-0.7794562833	-0.5263681265	 0.5354145512	 0.084105
H	 0.2295833766	-1.6185087021	-1.4552904856	 0.085383
H	 1.6147724987	-0.5747107802	-3.0672768661	 0.096404
H	 0.3285969019	 0.6405872365	-2.9357509396	 0.114413
H	 3.5278918926	-0.2581044537	-1.6402530141	 0.092927
H	 3.8417548737	 1.4028175335	-1.0879393118	 0.109129
H	 3.2506832874	-0.2527969145	 0.7791533111	 0.102353
H	 2.256175218	 1.2014905431	 0.7349350595	 0.106199
137.3782	182.3706	232.4781	273.2061	345.6896	428.1412	451.0902	509.335	544.6314	702.5866	741.9823	778.6722	812.3068	873.6605	923.1397	963.3202	1018.1747	1021.9232	1059.3192	1100.4296	1121.0703	1133.9173	1146.3805	1171.5528	1186.0913	1254.3935	1271.2378	1315.6851	1336.0754	1370.6871	1379.4474	1384.6382	1408.8095	1418.5862	1450.725	1489.7438	1497.2308	1498.3653	1505.8912	1517.8285	2961.5015	2972.0134	3021.4048	3031.293	3057.6521	3065.1252	3085.7091	3087.883	3088.6098	3098.0763	3144.966
CC1C2COCCN12	C[C@H]1[C@H]2COCCN12	
InChI=1S/C6H11NO/c1-5-6-4-8-3-2-7(5)6/h5-6H,2-4H2,1H3	InChI=1S/C6H11NO/c1-5-6-4-8-3-2-7(5)6/h5-6H,2-4H2,1H3/t5-,6+,7?/m0/s1
