13
gdb 124065	3.9039	1.63065	1.15854	4.8063	65.56	-0.2511	-0.0346	0.2165	949.0489	0.0923	-452.742212	-452.735884	-452.73494	-452.774013	23.506	
C	 0.0147908101	 1.5149992291	 0.1181683854	-0.187164
O	 1.2902241132	 2.0344111153	-0.3365113585	-0.232219
C	 2.2760786986	 1.2183544477	-0.7515867868	 0.139476
N	 2.3132229896	-0.0553997711	-0.8318882849	-0.341033
C	 1.142496079	-0.6769949307	-0.4217061548	 0.397845
N	 0.9686251936	-1.9786687943	-0.4234378414	-0.220361
O	-0.3264837713	-2.1607954285	 0.0566190824	-0.168692
C	-0.8821814531	-0.9635083862	 0.328672753	-0.040036
C	-0.0044822974	 0.0253129847	 0.048245452	 0.063656
H	-0.1235587284	 1.8932283329	 1.1373216404	 0.143734
H	-0.7482321593	 1.9789286625	-0.5170076533	 0.143727
H	 3.1373298508	 1.8126448465	-1.0461260594	 0.144547
H	-1.8918780352	-0.993250288	 0.7087392257	 0.15652
33.0384	222.8791	283.0913	438.6709	491.0254	525.4943	596.4837	630.736	747.5737	764.4844	832.8862	868.4788	931.3892	944.7081	959.3963	972.437	1039.7415	1123.0336	1142.9367	1244.8007	1245.2943	1289.2514	1384.1629	1415.4107	1458.5556	1515.046	1536.3107	1663.3635	1679.2839	3030.5641	3061.7067	3182.5839	3260.2536
C1OC=NC2=NOC=C12	C1OC=Nc2nocc12	
InChI=1S/C5H4N2O2/c1-4-2-9-7-5(4)6-3-8-1/h2-3H,1H2	InChI=1S/C5H4N2O2/c1-4-2-9-7-5(4)6-3-8-1/h2-3H,1H2
