21
gdb 52844	3.20087	0.91702	0.87855	0.1318	93.73	-0.2341	0.0227	0.2569	1484.3727	0.181528	-349.950103	-349.940182	-349.939238	-349.98607	36.113	
C	 0.0181594734	 1.4999010272	 0.0155587663	-0.498885
C	 0.0192402591	 0.0434691511	 0.0006496768	 0.040254
C	 0.0179038902	-1.1614371554	-0.0067132136	 0.060449
C	 0.0181532862	-2.6262760228	-0.0272092047	 0.08874
C	 0.6873068441	-3.1242071639	-1.3331894826	-0.419204
C	 0.7124799045	-3.2346020402	 1.2407480887	-0.24625
C	-0.1398143755	-4.4620280114	 1.6470356689	-0.262581
C	-1.4643483494	-4.1944220133	 0.9736326393	-0.075674
C	-1.389441482	-3.2045823329	 0.0893120413	-0.080733
H	 0.6701150484	 1.8913533737	 0.8046337794	 0.145149
H	 0.3710995309	 1.9103655858	-0.9372333056	 0.144634
H	-0.9878735822	 1.8964810872	 0.1931707661	 0.145484
H	 1.7022859531	-2.7247938257	-1.4202702013	 0.119208
H	 0.7363055288	-4.2177563685	-1.3404338273	 0.112797
H	 0.1191538143	-2.8004601874	-2.2101109992	 0.118548
H	 1.7596884503	-3.4808566472	 1.0469365727	 0.09816
H	 0.6919663638	-2.4921732499	 2.0417706845	 0.112643
H	 0.2938641393	-5.4068937306	 1.290610225	 0.105818
H	-0.2275719588	-4.5606197416	 2.7349300273	 0.10386
H	-2.3542908064	-4.780051499	 1.1780087511	 0.092294
H	-2.1957793522	-2.8437392854	-0.5390101929	 0.095288
25.962	72.7895	101.1994	133.5198	245.8078	257.2923	289.2647	296.677	342.3627	442.6172	465.2467	525.3623	560.5366	705.3594	753.0742	783.4431	832.0658	877.1823	921.4351	951.951	971.8517	990.6443	1004.146	1053.0505	1053.7716	1064.8261	1094.6788	1122.1358	1179.459	1185.2048	1244.6193	1256.3169	1313.6924	1320.1372	1370.8396	1403.7364	1415.0398	1479.3943	1479.6473	1481.4847	1486.0847	1496.3226	1500.0593	1688.9303	2364.8533	3010.0833	3024.1121	3033.325	3051.5655	3067.2108	3083.5653	3083.6751	3109.3415	3110.4605	3114.1899	3181.3063	3208.8759
CC#CC1(C)CCC=C1	CC#C[C@@]1(C)CCC=C1	
InChI=1S/C9H12/c1-3-6-9(2)7-4-5-8-9/h4,7H,5,8H2,1-2H3	InChI=1S/C9H12/c1-3-6-9(2)7-4-5-8-9/h4,7H,5,8H2,1-2H3/t9-/m1/s1
