14
gdb 16295	3.49251	1.78984	1.47846	3.8785	63.58	-0.2638	0.0025	0.2663	854.7453	0.108228	-378.686112	-378.679189	-378.678245	-378.717242	26.173	
O	 0.0562067195	 1.399000834	-0.0993651131	-0.422903
C	 0.0772386927	 0.014315553	 0.0070153295	 0.09026
C	 0.3048468082	-0.6401909341	 1.4271248428	-0.258898
C	-1.0797684461	-1.2739740148	 1.3238233398	-0.099945
N	-2.0292948647	-0.1613287051	 1.1364551472	-0.37649
C	-1.2981391579	-0.700679188	-0.0462109255	 0.218159
C	-1.9821677947	-1.2389333116	-1.1719119862	 0.155677
N	-2.5199676098	-1.6759616712	-2.099607001	-0.340571
H	-0.6561820243	 1.70628975	 0.4777976716	 0.296086
H	 0.7737748593	-0.3668578395	-0.7412052937	 0.117407
H	 1.1192125948	-1.3668859646	 1.4209097965	 0.120777
H	 0.4360910752	 0.063521471	 2.2516031522	 0.119657
H	-1.4146614456	-2.2326163175	 1.6983047114	 0.126012
H	-2.9762851364	-0.5380372615	 1.1157709884	 0.254773
123.8101	163.071	191.1032	347.73	417.5213	495.7056	499.5229	545.0772	570.1201	664.4423	693.5793	825.2026	864.59	903.0705	943.3978	988.3417	1028.6771	1043.0554	1104.864	1137.888	1169.3666	1202.8159	1226.9389	1279.3539	1292.411	1350.2171	1389.9002	1442.2359	1473.7597	2343.4807	3076.5398	3111.3758	3139.3461	3208.1708	3490.3352	3759.726
OC1CC2NC12C#N	O[C@H]1C[C@H]2N[C@@]12C#N	
InChI=1S/C5H6N2O/c6-2-5-3(7-5)1-4(5)8/h3-4,7-8H,1H2	InChI=1S/C5H6N2O/c6-2-5-3(7-5)1-4(5)8/h3-4,7-8H,1H2/t3-,4+,5-/m1/s1
