17
gdb 82665	3.0838	1.67132	1.34186	1.7047	71.09	-0.2367	-0.017	0.2197	967.7662	0.136947	-421.796712	-421.789767	-421.788823	-421.827895	27.945	
C	-0.052704076	 1.4868817038	 0.003825148	-0.423788
C	 0.0749380257	-0.0298788122	 0.0670752216	 0.026274
C	 1.0690683261	-0.6388832779	-0.95785502	 0.056651
O	 2.3141616456	 0.0321478977	-0.6091495792	-0.28299
C	 2.2663731053	-0.7975583188	 0.551919607	 0.101776
C	 1.5260842575	-1.9514241371	-0.2039299883	-0.216037
C	 0.6469850952	-2.1019454657	 1.0306796929	 0.437139
O	 0.1645461322	-3.0216321984	 1.6247763031	-0.327401
C	 0.8517460173	-0.6060842513	 1.2923330564	-0.232817
H	 0.9283126732	 1.9619976567	 0.0648673031	 0.141153
H	-0.5247095059	 1.7953618042	-0.9359707537	 0.116601
H	-0.6741167001	 1.8570846699	 0.8249741058	 0.119196
H	-0.9129520893	-0.4963477774	-0.0167645851	 0.09186
H	 0.8400218233	-0.6148622894	-2.0225011733	 0.091499
H	 3.1850431439	-0.8818854831	 1.1267739254	 0.108605
H	 2.0114611618	-2.7531488931	-0.7532684316	 0.102474
H	 0.7256367442	-0.1474394579	 2.269127828	 0.089804
146.7666	206.6978	229.4964	264.9958	390.911	501.5364	567.8957	581.5674	688.4693	718.7293	791.2882	806.4779	825.3014	830.7891	862.9093	919.9595	954.591	991.3083	997.2976	1025.3259	1043.5142	1086.6419	1096.0405	1113.6895	1140.1492	1165.2409	1191.7037	1225.3109	1236.4396	1270.1101	1283.3426	1332.6643	1382.2186	1406.8973	1491.6657	1503.378	1896.2131	3036.3967	3048.0917	3099.0904	3133.0529	3136.7569	3156.4476	3165.2192	3170.3614
CC1C2OC3C2C(=O)C13	C[C@H]1[C@H]2O[C@@H]3[C@H]2C(=O)[C@H]13	
InChI=1S/C7H8O2/c1-2-3-5(8)4-6(2)9-7(3)4/h2-4,6-7H,1H3	InChI=1S/C7H8O2/c1-2-3-5(8)4-6(2)9-7(3)4/h2-4,6-7H,1H3/t2-,3+,4+,6-,7+/m1/s1
