17
gdb 12317	3.10088	2.17528	1.33946	3.0877	73.59	-0.2438	-0.0254	0.2185	919.5522	0.143731	-363.895274	-363.887838	-363.886894	-363.926854	28.169	
C	 0.0171467722	 1.4995518124	-0.0839172362	-0.470255
C	-0.0087836245	-0.0016394062	-0.0248718161	 0.26041
C	-1.1301223989	-0.7165396292	 0.1357020329	-0.166023
C	-1.1141778089	-2.2174124783	 0.1806767236	-0.26969
C	 0.117558309	-2.7216496196	-0.5574345226	-0.084038
O	 1.3069940951	-2.0604560538	-0.1133963547	-0.255192
C	 1.2992075316	-0.6937418878	-0.0847013822	 0.328953
N	 2.3868580057	-0.0358707173	-0.0438825002	-0.519144
H	 0.642984214	 1.9080239446	 0.7145220352	 0.147415
H	 0.4578741692	 1.8459278722	-1.0240788703	 0.137971
H	-0.9927284643	 1.9086851871	 0.0047535674	 0.108538
H	-2.0833999431	-0.2067241203	 0.2486714803	 0.096262
H	-1.1130395557	-2.5727474848	 1.2209928185	 0.125359
H	-2.0137765212	-2.6332774831	-0.2878323417	 0.113758
H	 0.2967528375	-3.7856825094	-0.3873194811	 0.116996
H	-0.0022176799	-2.5582503778	-1.6372774678	 0.109788
H	 3.1801615922	-0.6795525185	-0.076794845	 0.218892
100.8652	165.6933	205.5274	303.6426	312.325	363.3311	436.3995	499.5948	537.9128	648.5624	724.0224	748.4679	863.9417	896.6792	911.146	934.4174	957.9196	1038.7684	1074.8557	1079.1255	1087.2979	1133.1082	1183.6121	1233.0803	1272.3278	1311.8135	1366.7734	1393.7413	1416.3631	1438.551	1468.3694	1469.5221	1486.7198	1507.1815	1699.2377	1728.5935	3007.9044	3016.8541	3043.4975	3062.0854	3104.2235	3105.0708	3123.6071	3161.9788	3466.0261
CC1=CCCOC1=N	CC1=C(OCC[CH]1)[NH]	
InChI=1S/C6H9NO/c1-5-3-2-4-8-6(5)7/h3,7H,2,4H2,1H3	InChI=1S/C6H9NO/c1-5-3-2-4-8-6(5)7/h3,7H,2,4H2,1H3
