13
gdb 20488	5.12561	2.04424	1.48879	3.6567	59.36	-0.2447	-0.0097	0.235	772.1015	0.098787	-394.757765	-394.75179	-394.750846	-394.788205	21.864	
C	-0.0564945289	 1.534569562	 0.101348269	-0.167445
O	 1.2672290708	 1.9218053279	-0.3013152157	-0.28269
C	 2.119725213	 0.794758011	-0.6090679621	-0.17117
C	 1.2292637809	-0.3806133014	-0.3706725933	 0.262969
C	 0.0000237758	 0.0474585948	 0.03096951	 0.300703
N	-0.7034725059	-1.0846276119	 0.2120609381	-0.326091
N	 0.0734062119	-2.1718098464	-0.07064066	-0.118327
N	 1.251522037	-1.7345354176	-0.4255860017	-0.281548
H	-0.261512078	 1.9178201369	 1.1111838577	 0.123904
H	-0.7942727518	 1.977757079	-0.5827134059	 0.123911
H	 2.4664662948	 0.8801806983	-1.6469585985	 0.126451
H	 2.9990367668	 0.8203266777	 0.0473689072	 0.126441
H	-1.6549899965	-1.2342433204	 0.5059360552	 0.282889
90.2422	207.0264	254.5445	431.0462	549.8769	602.4341	681.0291	715.2385	726.7966	861.7231	880.6823	998.3891	1017.1962	1038.6317	1056.8434	1067.882	1160.7018	1175.4038	1214.2186	1234.5074	1318.7187	1347.5158	1375.9684	1433.0249	1517.7041	1526.5404	1536.4252	1609.2057	2993.7621	3014.3984	3016.9335	3043.1364	3664.6749
C1OCC2=C1NN=N2	C1OCc2c1[nH]nn2	
InChI=1S/C4H5N3O/c1-3-4(2-8-1)6-7-5-3/h1-2H2,(H,5,6,7)	InChI=1S/C4H5N3O/c1-3-4(2-8-1)6-7-5-3/h1-2H2,(H,5,6,7)
