19
gdb 102916	2.17937	0.94244	0.69392	1.7041	79.59	-0.2486	-0.0359	0.2127	1611.7403	0.154241	-422.987265	-422.976548	-422.975604	-423.024501	36.867	
C	-0.1450799345	 1.4861318031	-0.0803569341	-0.390444
C	 0.0400061706	-0.032630137	-0.1140991624	-0.199745
C	 0.880033954	-0.5001615141	-1.3110715277	 0.061004
O	 2.168652062	 0.0756129527	-1.1955100189	-0.255244
C	 2.9185994986	 0.0192488748	-2.4008817237	-0.220632
C	 4.2271199137	 0.62260516	-2.1950924543	 0.282926
C	 5.3129638593	 1.1140445873	-2.0511319899	-0.412693
C	 0.9730096102	-2.0240857227	-1.295216341	 0.129009
O	 0.1455986238	-2.7604784044	-1.763740996	-0.243495
H	 0.8221487462	 1.9921970492	-0.040343259	 0.14071
H	-0.6769275791	 1.8381568847	-0.9709744256	 0.115726
H	-0.7268483711	 1.7838953582	 0.7967769759	 0.11791
H	 0.5303949432	-0.3726318346	 0.8062473445	 0.112802
H	-0.9278409241	-0.5422385179	-0.1709029478	 0.121116
H	 0.3890750609	-0.1914397563	-2.2478749659	 0.089468
H	 3.042541314	-1.0227661109	-2.7398056688	 0.128135
H	 2.3825498817	 0.549631508	-3.2051927011	 0.128441
H	 6.2723452724	 1.5500711587	-1.9186785251	 0.205049
H	 1.8780012783	-2.4032755687	-0.7646940891	 0.089959
42.0736	54.7514	95.8947	110.6231	126.3665	213.5471	227.6175	263.2112	299.0873	332.3473	418.5579	459.4168	474.1767	614.1987	616.3358	681.9721	780.9414	866.8796	964.4243	979.186	986.6971	1022.7335	1031.6315	1074.3307	1110.7117	1151.3421	1167.5236	1254.3314	1275.413	1299.3376	1339.3795	1374.7334	1396.8756	1405.3439	1426.7048	1478.9668	1493.6409	1500.255	1508.9357	1836.3528	2249.7506	2864.545	2961.7847	2983.0821	2986.2618	3035.9951	3040.6572	3081.2965	3107.2303	3131.1868	3505.5069
CCC(OCC#C)C=O	CC[C@@H](OCC#C)C=O	
InChI=1S/C7H10O2/c1-3-5-9-7(4-2)6-8/h1,6-7H,4-5H2,2H3	InChI=1S/C7H10O2/c1-3-5-9-7(4-2)6-8/h1,6-7H,4-5H2,2H3/t7-/m1/s1
