20
gdb 80748	3.4756	1.03792	1.0119	2.3841	79.61	-0.2298	-0.0241	0.2057	1266.1994	0.171167	-403.140407	-403.13166	-403.130715	-403.174412	32.399	
C	 0.2506141905	 1.8175249895	-0.1691461592	-0.429753
C	-0.0409963982	 0.3393914664	-0.0306955108	 0.017496
C	 0.272396562	-0.7095611825	-1.0410110763	-0.044111
C	 1.2585464025	-0.4221705922	-2.1655519914	-0.26696
C	 2.5682408987	 0.046538652	-1.4728771054	-0.079792
C	 2.3688670461	-0.35505318	 0.0246199745	-0.193044
N	 0.9623594243	-0.7069586888	 0.2627195265	-0.11197
C	 3.7833048343	-0.6318492581	-2.063580408	 0.147616
O	 4.7457590202	-0.0684861511	-2.5144133504	-0.248277
H	 1.0279012052	 2.0541481638	-0.8961337047	 0.127785
H	-0.6611662452	 2.3357514072	-0.4842675381	 0.127329
H	 0.5487167341	 2.2443062231	 0.7952004929	 0.129812
H	-0.9425818118	 0.1600825327	 0.5543800917	 0.09435
H	-0.4401835488	-1.5133794381	-1.2103113834	 0.090715
H	 1.4298539772	-1.3476453011	-2.7287451774	 0.1117
H	 0.8971946575	 0.3213498716	-2.8819037433	 0.121032
H	 2.7212933214	 1.1209507093	-1.5808249409	 0.099036
H	 2.9638209917	-1.2450959168	 0.2630790464	 0.113131
H	 2.6966675664	 0.4407877197	 0.6996657287	 0.120575
H	 3.7248670319	-1.747896587	-2.0453776814	 0.073329
71.8307	80.1622	126.1287	171.0417	242.079	317.4816	343.0786	415.2334	422.8829	536.7522	702.0815	702.9478	734.105	771.8972	857.0854	887.6727	907.0249	942.5432	972.6689	996.5875	1025.3691	1059.6306	1087.3695	1113.1551	1143.3237	1151.24	1165.6835	1200.0463	1251.6887	1284.7065	1298.7891	1311.0417	1326.424	1353.2493	1381.1942	1416.2292	1425.5546	1437.6539	1485.1404	1494.4742	1496.7572	1505.6146	1834.8905	2834.6003	3029.3321	3034.3923	3039.6565	3081.3255	3085.1438	3092.826	3101.9828	3106.2205	3132.3328	3145.3154
CC1C2CC(CN12)C=O	C[C@H]1[C@H]2C[C@@H](CN12)C=O	
InChI=1S/C7H11NO/c1-5-7-2-6(4-9)3-8(5)7/h4-7H,2-3H2,1H3	InChI=1S/C7H11NO/c1-5-7-2-6(4-9)3-8(5)7/h4-7H,2-3H2,1H3/t5-,6-,7+,8?/m0/s1
