14
gdb 21556	3.93272	1.89662	1.28077	3.4017	70.84	-0.1965	-0.0372	0.1593	890.1869	0.110247	-374.915812	-374.909	-374.908056	-374.946484	26.691	
N	 0.0346231982	 1.3943747139	 0.1656836674	-0.589735
C	-0.036912368	 0.0180450683	 0.0608698212	 0.328137
C	-1.2007150598	-0.6881155861	 0.0368457992	-0.225675
C	-1.1988812301	-2.1317208605	-0.0038691382	 0.398391
N	-2.2763183204	-2.8330471979	-0.0223073682	-0.574805
N	 0.1016479994	-2.6734958217	-0.0292132494	-0.302028
N	 1.2641560846	-2.0120012367	-0.0126646096	-0.181406
C	 1.2075649831	-0.719823646	 0.0333611276	-0.037535
H	 0.8654078509	 1.8273984692	-0.2078729111	 0.256207
H	-0.8076648614	 1.9016241622	-0.0600983196	 0.258591
H	-2.1717865704	-0.2077225965	 0.0507936267	 0.105607
H	-2.0726054653	-3.8330835224	-0.0558815864	 0.189768
H	 0.2026468975	-3.6769177564	-0.0625470086	 0.261069
H	 2.1603287718	-0.2002340693	 0.0563880089	 0.113414
153.6194	199.4029	320.668	352.0557	408.9132	468.5244	514.0084	542.0966	566.0582	595.9483	676.922	722.8852	748.9174	767.1793	864.621	883.7556	949.2118	1012.9513	1091.6852	1138.5172	1175.4931	1268.134	1327.3525	1384.5826	1441.7811	1466.0876	1597.467	1651.5113	1678.074	1713.6123	3178.0084	3205.3793	3455.7079	3575.8849	3616.28	3679.5064
NC1=CC(=N)NN=C1	N[C@@H]1C=C([NH])NN=C1	
InChI=1S/C4H6N4/c5-3-1-4(6)8-7-2-3/h1-2H,(H4,5,6,8)	InChI=1S/C4H7N4/c5-3-1-4(6)8-7-2-3/h1-3,6,8H,5H2/t3-/m1/s1
