19
gdb 62216	5.67837	0.55291	0.51994	1.645	78.	-0.2517	-0.0347	0.2171	2013.8583	0.157025	-419.221511	-419.211052	-419.210107	-419.258602	35.63	
C	 0.2836464707	 1.414731165	 0.1261165963	-0.397155
C	 0.0263896069	-0.090486458	 0.0136140242	-0.051198
N	-1.368438944	-0.5256122721	 0.091380258	-0.310935
C	-1.9878418448	-0.4366505484	 1.4065917883	-0.132096
C	-3.343021393	-1.1693761757	 1.382984222	-0.342887
C	-4.0094196504	-1.1412284991	 2.6819179625	 0.255809
N	-4.5184597739	-1.1089307322	 3.7186559025	-0.300242
C	 0.6195186672	-0.6836476097	-1.2641608135	 0.151272
O	 1.3958089564	-0.1174849019	-1.9874600513	-0.236722
H	 1.3485949119	 1.6290344116	 0.0100790214	 0.143231
H	-0.2469750406	 1.9548570849	-0.665097979	 0.121824
H	-0.0480709639	 1.8005750152	 1.0935525994	 0.120005
H	 0.5555729441	-0.6117052565	 0.8284382905	 0.112135
H	-1.9213358314	-0.0051325493	-0.5845624935	 0.221061
H	-1.3290757168	-0.9310430361	 2.1285148515	 0.13045
H	-2.1423267363	 0.5922262916	 1.768790709	 0.113582
H	-4.007033896	-0.7093513893	 0.6410886182	 0.150268
H	-3.1897500546	-2.2075239173	 1.0716549983	 0.163755
H	 0.2578919582	-1.7146879325	-1.4731422947	 0.087845
44.3541	62.6385	72.7041	99.4798	144.7677	189.5001	242.2378	265.015	320.2961	390.977	400.6113	442.4231	557.4822	636.3789	766.3796	788.0452	829.829	912.747	932.2315	967.0222	1034.2373	1061.3375	1091.5798	1128.3609	1149.0611	1172.195	1233.4281	1280.5562	1318.2981	1322.1998	1336.101	1388.3025	1410.1768	1412.412	1468.8027	1485.5523	1488.9627	1507.2087	1515.76	1836.7717	2365.0294	2896.6591	2976.8153	2986.0799	3042.5611	3045.0663	3068.9616	3094.863	3115.0494	3132.9067	3495.7348
CC(NCCC#N)C=O	C[C@@H](NCCC#N)C=O	
InChI=1S/C6H10N2O/c1-6(5-9)8-4-2-3-7/h5-6,8H,2,4H2,1H3	InChI=1S/C6H10N2O/c1-6(5-9)8-4-2-3-7/h5-6,8H,2,4H2,1H3/t6-/m1/s1
