20
gdb 117292	4.76362	0.69377	0.61526	0.7957	80.39	-0.229	-0.0012	0.2277	1827.4058	0.170685	-436.528631	-436.518314	-436.517369	-436.565368	36.952	
C	 0.0884519212	 1.485224405	-0.089540896	-0.38813
C	-0.0193359427	 0.0166403354	 0.3263984241	-0.155861
C	-1.2577863082	-0.6671374398	-0.256245228	-0.312668
C	-1.4182518851	-2.1084002203	 0.2138844891	 0.448539
O	-0.8400426364	-2.542236983	 1.1998789153	-0.383285
N	-2.278709534	-2.8516821778	-0.5523117935	-0.348698
C	-2.6749506528	-4.2002652457	-0.412041931	 0.424468
N	-2.2736538263	-4.7990143773	 0.7490257444	-0.551237
N	-3.3905495772	-4.663309579	-1.3663418339	-0.563069
H	 0.9813751657	 1.9498211742	 0.3390571892	 0.118172
H	 0.1495658981	 1.590994501	-1.1786035979	 0.113993
H	-0.7805723399	 2.0605773957	 0.2491448272	 0.115215
H	 0.8753043461	-0.5301971269	 0.0076149623	 0.108812
H	-0.0508570249	-0.071816829	 1.4162426545	 0.123823
H	-2.1649868439	-0.1229364853	 0.0429177799	 0.133881
H	-1.2394424294	-0.6384610113	-1.3532381765	 0.114594
H	-2.6764851513	-2.4343476999	-1.3805072348	 0.26479
H	-1.5508451228	-4.3254693416	 1.2793049489	 0.281067
H	-2.3197288298	-5.802862021	 0.7813936648	 0.249699
H	-3.6562996265	-5.6300095432	-1.1896736281	 0.205894
25.7985	68.206	100.092	116.6203	146.6697	241.9999	276.4357	311.0534	378.2774	405.3238	439.9516	533.5424	569.6731	594.5532	671.8331	727.7724	744.6921	759.9979	793.4407	882.2253	897.6398	944.6167	997.6242	1054.4903	1112.2624	1118.8722	1138.5219	1143.8911	1208.0459	1253.1681	1312.2016	1337.7275	1397.0025	1416.729	1445.992	1460.992	1489.8325	1496.313	1500.3448	1509.2025	1620.0751	1739.3895	1765.7064	3014.6184	3029.5673	3046.4302	3052.831	3081.4035	3104.7096	3107.2343	3502.4146	3508.329	3628.0826	3697.7009
CCCC(=O)NC(N)=N	CCCC(=O)NC(=N)N	
InChI=1S/C5H11N3O/c1-2-3-4(9)8-5(6)7/h2-3H2,1H3,(H4,6,7,8,9)	InChI=1S/C5H11N3O/c1-2-3-4(9)8-5(6)7/h2-3H2,1H3,(H4,6,7,8,9)
