21
gdb 83962	2.15571	1.88968	1.73136	1.2663	81.49	-0.2302	0.0202	0.2504	973.2081	0.185702	-387.096978	-387.089506	-387.088562	-387.128289	31.034	
C	-0.2558642642	 1.5341944852	 0.0092663463	-0.436913
C	 0.058367231	 0.0390921374	 0.0029602156	 0.041784
C	 0.9174009193	-0.5192599753	-1.1647482832	-0.093592
C	 2.2647872262	 0.2376907909	-1.193268244	-0.071688
O	 2.997684147	 0.0910668603	 0.0174023845	-0.254155
C	 2.253125987	 0.2251314835	 1.2224013612	-0.071688
C	 0.9061305721	-0.531444588	 1.173008776	-0.093588
C	 1.1525764249	-1.945783712	 0.6646278384	-0.065681
C	 1.1589969235	-1.9388365581	-0.6687779317	-0.065682
H	 0.631737515	 2.1708309775	 0.0165493358	 0.123864
H	-0.8443643154	 1.8034975366	-0.8750107793	 0.113824
H	-0.8523063737	 1.7943797826	 0.8909516177	 0.113825
H	-0.8947378895	-0.5019048281	-0.0044597313	 0.071715
H	 0.4352657919	-0.4475242145	-2.145102149	 0.059979
H	 2.9180978407	-0.1623238924	-1.9756042709	 0.10434
H	 2.0921284975	 1.301639709	-1.4206212818	 0.087454
H	 2.8988896621	-0.1829979307	 2.0068083745	 0.10434
H	 2.0781886705	 1.2866663211	 1.4591082311	 0.087455
H	 0.4145516121	-0.4698996983	 2.1493575645	 0.059978
H	 1.3705057922	-2.789642309	 1.3084208334	 0.092214
H	 1.3831589797	-2.7759495978	-1.3192034777	 0.092214
172.5387	198.8465	286.707	293.7294	295.7475	381.6635	425.9998	523.9948	541.5967	622.287	710.2479	770.3541	781.8077	836.1148	836.728	866.6475	914.7676	954.8547	967.6463	969.5824	1003.6141	1043.4697	1050.4089	1085.1757	1086.3796	1128.914	1138.7751	1144.6688	1209.446	1250.0696	1251.9344	1287.3261	1309.0182	1323.6083	1337.4004	1341.4217	1385.7424	1387.2321	1408.8177	1420.5606	1491.6411	1494.2422	1515.7642	1516.5342	1663.3576	2976.5567	2982.1928	3030.3573	3034.851	3054.9433	3057.4842	3067.9083	3070.5823	3089.5477	3118.8173	3188.6708	3214.263
CC1C2COCC1C=C2	C[C@H]1[C@H]2COC[C@@H]1C=C2	
InChI=1S/C8H12O/c1-6-7-2-3-8(6)5-9-4-7/h2-3,6-8H,4-5H2,1H3	InChI=1S/C8H12O/c1-6-7-2-3-8(6)5-9-4-7/h2-3,6-8H,4-5H2,1H3/t6-,7+,8-
