15
gdb 53849	3.69354	0.91911	0.81555	2.7629	67.96	-0.264	-0.0701	0.1939	1382.0354	0.109912	-453.963805	-453.954336	-453.953392	-453.999549	32.164	
C	-0.1901436941	 1.3615367125	-0.1290429799	-0.471418
C	 0.405345047	-0.0224919559	-0.054858717	 0.344161
O	 0.9655220348	-0.466717367	 0.9153302528	-0.274306
C	 0.2630861626	-0.8779663652	-1.3164254721	 0.315348
N	-0.2802947125	-0.3961161768	-2.3520984588	-0.503217
O	 0.789699923	-2.1147863238	-1.104984944	-0.208407
C	 0.8603980809	-3.0047862117	-2.2024217426	-0.222144
C	-0.4492995891	-3.5422328242	-2.6042169203	 0.256914
N	-1.4703213598	-3.9697980055	-2.9336988055	-0.284034
H	 0.2499969198	 1.9218154625	-0.9587307779	 0.157576
H	-1.2626162831	 1.3004081785	-0.336523744	 0.159124
H	-0.0141725445	 1.8745272416	 0.816614789	 0.141465
H	-0.3614929427	-1.0393452889	-3.1384459021	 0.242286
H	 1.3333891972	-2.5280572129	-3.0708910571	 0.162329
H	 1.4985127004	-3.8283145032	-1.8738439706	 0.184325
45.257	57.1232	87.3294	127.7581	204.0284	225.8814	331.8413	359.328	375.8415	408.8966	513.6817	560.6666	644.2399	691.9788	776.5962	875.675	910.3664	947.8375	1017.7188	1037.403	1048.637	1126.5891	1177.8829	1293.6759	1326.709	1387.2319	1400.7179	1454.3951	1462.3567	1472.8171	1722.2775	1821.7108	2364.2176	3033.1199	3055.5984	3115.1287	3120.1546	3163.4224	3499.9102
CC(=O)C(=N)OCC#N	CC(=O)C(=N)OCC#N	
InChI=1S/C5H6N2O2/c1-4(8)5(7)9-3-2-6/h7H,3H2,1H3	InChI=1S/C5H6N2O2/c1-4(8)5(7)9-3-2-6/h7H,3H2,1H3
