17
gdb 116876	3.43705	0.60912	0.54925	1.9418	81.02	-0.2551	0.0095	0.2647	2008.0025	0.13157	-421.72854	-421.717834	-421.71689	-421.766486	36.309	
C	-0.2755845109	 1.4107531517	-0.3636439867	-0.219947
O	-0.3838933943	 0.0252076028	-0.5973755483	-0.227225
C	-0.984017422	-0.6499585172	 0.4893888371	-0.203019
C	-1.074285794	-2.0762350628	 0.2080784437	-0.01276
C	-1.1596613054	-3.2589497421	 0.004688406	 0.183521
C	-1.2967585161	-4.6953485624	-0.272807105	-0.240311
O	-2.5194709533	-5.0078445472	-0.9333439148	-0.389527
C	-0.1276247839	-5.2003700602	-1.0090840008	 0.331601
C	 0.8075209119	-5.6229055575	-1.6331241526	-0.451663
H	 0.1942243199	 1.8502470782	-1.2460259275	 0.133401
H	-1.2612981585	 1.8792750568	-0.2130423146	 0.106223
H	 0.3467264752	 1.6300417965	 0.5186199812	 0.106582
H	-0.3999472123	-0.4933594165	 1.4134883736	 0.11917
H	-1.9931144318	-0.2466147502	 0.6858803371	 0.118846
H	-1.3624428691	-5.2305395367	 0.6835385689	 0.149758
H	-2.5110683896	-4.5469220506	-1.7805146913	 0.291016
H	 1.638869244	-5.9950103725	-2.179582276	 0.204334
19.1562	58.365	71.1061	116.6886	173.1086	205.8704	230.1642	276.8697	320.1812	338.6317	373.0153	430.6172	525.2451	584.0241	629.2491	643.071	674.9125	811.1786	938.5163	981.7647	1026.2396	1041.0373	1137.2982	1169.8152	1182.8034	1220.5075	1253.707	1260.0815	1309.6553	1408.462	1414.4975	1477.5214	1484.8219	1493.644	1515.3868	2239.2063	2371.0314	2944.7094	2962.6621	2970.0588	3013.5358	3029.3038	3123.0914	3502.5631	3799.2126
COCC#CC(O)C#C	COCC#C[C@@H](O)C#C	
InChI=1S/C7H8O2/c1-3-7(8)5-4-6-9-2/h1,7-8H,6H2,2H3	InChI=1S/C7H8O2/c1-3-7(8)5-4-6-9-2/h1,7-8H,6H2,2H3/t7-/m0/s1
