14
gdb 133194	3.11176	1.44658	0.99358	1.347	70.56	-0.2274	-0.0677	0.1597	1107.641	0.101528	-474.170382	-474.162728	-474.161784	-474.202711	28.469	
C	-0.2349869484	 1.4721960313	 0.0138963918	-0.454755
C	 0.0023309801	-0.0045613532	-0.0260824819	 0.366751
N	 0.0539103985	-0.6071077308	-1.1736383015	-0.219134
N	 0.2700048479	-1.9368102665	-1.1495471927	-0.25829
C	 0.443598682	-2.7331922934	-0.0300906854	 0.266025
N	 0.6431545146	-3.9916183079	-0.1297360555	-0.556691
C	 0.3566255696	-1.8973776858	 1.1747099045	 0.283536
F	 0.5082023165	-2.5534069842	 2.3122212613	-0.048415
N	 0.1549562211	-0.6443420644	 1.2012816747	-0.325016
H	 0.5956563385	 1.9784041712	 0.5168124992	 0.143747
H	-0.3390758551	 1.8641388929	-0.9980859304	 0.143796
H	-1.1407259013	 1.6974689134	 0.586628367	 0.143747
H	 0.3069372373	-2.3884516429	-2.0522886809	 0.282254
H	 0.7468373687	-4.4038338194	 0.7947326798	 0.232447
90.4486	154.2969	212.5704	301.8253	318.5583	327.6717	432.265	500.9844	542.6698	571.6812	619.9512	689.4689	707.4529	757.4953	817.8831	822.2933	972.3212	1022.4707	1064.5768	1107.6092	1240.4179	1280.098	1337.9744	1408.2613	1417.7758	1459.4213	1473.9408	1478.6401	1601.2465	1680.6293	1716.5173	3043.2144	3097.8387	3155.3203	3524.7051	3615.1667
CC1=NNC(=N)C(F)=N1	CC1=NN[C@@H]([NH])C(=N1)F	
InChI=1S/C4H5FN4/c1-2-7-3(5)4(6)9-8-2/h1H3,(H2,6,9)	InChI=1S/C4H6FN4/c1-2-7-3(5)4(6)9-8-2/h4,6,9H,1H3/t4-/m1/s1
