13
gdb 130484	4.05821	1.67229	1.18428	3.2221	76.98	-0.2177	-0.0933	0.1244	935.9572	0.091878	-415.592906	-415.586953	-415.586008	-415.623129	23.847	
O	-0.0562387653	 1.2674177239	 0.0092266061	-0.220243
C	 1.0842068168	 2.0072555541	 0.0025158851	 0.085605
C	 2.3355544572	 1.4942445244	-0.0121042954	-0.30024
C	 2.4425174651	 0.0824113338	-0.020834518	 0.256646
C	 3.3861596113	-0.8994723761	-0.0352839564	-0.184857
N	 2.8011469023	-2.177942058	-0.0365975647	-0.215004
C	 1.5026827379	-2.044766729	-0.0229071753	-0.093797
C	 1.1511779758	-0.6358573772	-0.0125574431	 0.298114
N	-0.0275142402	-0.109403792	 0.0014561095	-0.161104
H	 0.8340067575	 3.0594960265	 0.0105952938	 0.153313
H	 3.1894205856	 2.1605708849	-0.0165905196	 0.13223
H	 4.4622738437	-0.8063023301	-0.0451374242	 0.116183
H	 0.8180282122	-2.8815794152	-0.0206483177	 0.133154
199.1362	233.2724	406.5409	413.8198	532.2106	546.3898	606.6826	630.0031	751.2217	752.2997	801.7692	836.1928	860.4149	862.2782	902.8128	934.0577	936.0252	1014.0274	1069.1073	1212.6371	1231.8572	1262.7516	1298.5435	1339.8547	1403.5217	1487.3142	1587.5272	1638.9738	1656.5062	3208.0242	3233.6825	3238.9545	3241.1739
O1C=CC2=CN=CC2=N1	o1ccc2cncc2n1	
InChI=1S/C6H4N2O/c1-2-9-8-6-4-7-3-5(1)6/h1-4H	InChI=1S/C6H4N2O/c1-2-9-8-6-4-7-3-5(1)6/h1-4H
