17
gdb 34412	2.77517	1.52951	1.29824	4.0362	72.39	-0.25	0.0055	0.2555	1017.3305	0.138577	-418.003166	-417.995705	-417.994761	-418.035125	28.833	
N	-0.0272167215	-1.1855400562	 0.0604520538	-0.341403
C	-0.0214368699	-0.0293197468	 0.0418114206	 0.233844
C	 0.0222812568	 1.4278184811	 0.0001199148	 0.285781
C	-0.7271754118	 2.0649131508	-1.1721335797	-0.265518
C	 0.0190555942	 3.4083179256	-1.3590663068	-0.197634
N	 1.4331036836	 3.1480329847	-1.0316799049	-0.278508
C	 1.4366448497	 2.1418753341	 0.0092615006	-0.102517
C	 0.9975459636	 2.6324107514	 1.404171735	-0.083319
O	-0.3111412564	 2.0241492117	 1.27077181	-0.319934
H	-0.6233272897	 1.4323698596	-2.0602351587	 0.119135
H	-1.790103425	 2.1784034703	-0.9469223107	 0.132181
H	-0.0710913665	 3.8160522227	-2.3676547719	 0.116251
H	-0.3805123925	 4.1543084614	-0.6641105235	 0.128994
H	 1.9135023843	 2.7891057399	-1.8497571088	 0.229793
H	 2.3306385502	 1.521272867	-0.0224605966	 0.105284
H	 1.5558947252	 2.2019886821	 2.2425663604	 0.119098
H	 0.9382203556	 3.7195841506	 1.5155805864	 0.118471
112.8103	151.8043	199.642	234.1397	362.9794	408.5573	502.7547	537.9533	564.1152	642.6417	654.4886	785.6129	823.3816	847.1484	883.6213	928.4035	962.4214	994.2101	1009.513	1038.3521	1071.2657	1109.1975	1147.6299	1154.549	1170.4566	1212.5834	1214.3164	1249.5187	1319.8609	1338.8269	1352.4387	1388.5719	1466.4417	1473.5767	1506.0997	1519.791	2348.122	3036.8066	3052.652	3056.9996	3091.9087	3115.3564	3123.5587	3132.8785	3530.2606
N#CC12CCNC1CO2	N#C[C@]12CCN[C@H]1CO2	
InChI=1S/C6H8N2O/c7-4-6-1-2-8-5(6)3-9-6/h5,8H,1-3H2	InChI=1S/C6H8N2O/c7-4-6-1-2-8-5(6)3-9-6/h5,8H,1-3H2/t5-,6+/m0/s1
