17
gdb 45103	2.61873	1.95702	1.34768	4.6236	71.82	-0.2409	0.0312	0.2721	950.8607	0.139338	-418.005422	-417.998501	-417.997557	-418.036747	27.858	
O	-0.1004529994	 0.0688026476	 0.5281856233	-0.370431
C	-0.0493893388	 1.2096759417	 0.1234509803	 0.370805
N	-1.1801645647	 1.9070063396	-0.2749366708	-0.319565
C	-1.3191198891	 3.3316153476	-0.1330113094	 0.014238
C	-1.0435360254	 3.9588446852	 1.2179194854	-0.324639
C	-0.0497103622	 4.109359888	 0.0857000171	-0.044228
C	 1.2343913252	 3.3412473456	-0.0382430922	-0.023477
C	 1.8561850026	 2.5212066748	 1.0465568418	-0.257294
N	 1.1706232732	 1.8842587215	-0.0748504341	-0.11634
H	-2.0120205386	 1.3682332016	-0.0717410166	 0.249691
H	-2.0932048419	 3.7529881601	-0.765314597	 0.107302
H	-1.5934068682	 4.8451224669	 1.515456308	 0.121227
H	-0.8180023449	 3.2757343808	 2.0300105902	 0.129239
H	-0.0103984917	 5.0916008577	-0.371603251	 0.101534
H	 1.9055004109	 3.750760966	-0.7905205691	 0.104094
H	 2.9331658668	 2.3830342486	 1.0749775943	 0.128802
H	 1.3671123463	 2.4975410066	 2.0167221199	 0.129041
95.31	191.1188	268.2478	397.4769	424.1895	468.4888	518.5977	566.0402	647.8528	688.0469	748.8125	780.3392	796.0243	832.363	874.4422	919.0545	959.3495	995.0752	1019.4536	1055.0258	1077.3124	1090.1183	1105.073	1126.1907	1130.7139	1156.2894	1170.6419	1238.1422	1267.2512	1358.3117	1392.9493	1411.3217	1423.848	1447.781	1493.4679	1513.9542	1806.5925	3112.7529	3122.8374	3132.5139	3161.3718	3172.7685	3200.4005	3221.7163	3582.8264
O=C1NC2CC2C2CN12	O=C1N[C@H]2C[C@H]2[C@H]2CN12	
InChI=1S/C6H8N2O/c9-6-7-4-1-3(4)5-2-8(5)6/h3-5H,1-2H2,(H,7,9)	InChI=1S/C6H8N2O/c9-6-7-4-1-3(4)5-2-8(5)6/h3-5H,1-2H2,(H,7,9)/t3-,4+,5-,8?/m1/s1
