21
gdb 91769	2.3426	1.75835	1.57023	1.9208	76.36	-0.2357	0.0677	0.3034	987.5174	0.186404	-424.24205	-424.234592	-424.233648	-424.273439	31.152	
O	 0.0838769156	 1.3997998189	-0.2062392163	-0.435837
C	 0.038790119	-0.0094219415	-0.0326924685	 0.128296
C	 0.695939888	-0.5304298233	 1.2860231689	-0.282904
C	-0.4176589359	-1.3288730497	 2.0037113397	 0.128838
C	-1.2840815195	-1.8094450914	 0.8268730173	-0.227663
C	-1.4311393508	-0.4869040968	 0.0528924536	-0.03104
C	-2.3045144109	 0.4588366021	 0.9013211826	-0.21556
C	-1.69740378	 0.669216205	 2.2961051036	-0.071326
O	-1.2022783327	-0.5306992563	 2.8854026343	-0.273333
H	 1.0063140552	 1.6623977571	-0.2782530667	 0.283602
H	 0.5157238939	-0.4995148549	-0.8944484905	 0.065713
H	 1.542404222	-1.189256116	 1.0693825335	 0.095403
H	 1.0664045591	 0.2928779589	 1.9030855546	 0.109115
H	-0.0260294649	-2.1365270365	 2.6265661607	 0.07097
H	-0.754288839	-2.5675780025	 0.2375181257	 0.087574
H	-2.2365799757	-2.2295188838	 1.1594051909	 0.09977
H	-1.8684496361	-0.6075770022	-0.9418183781	 0.063076
H	-2.4109092743	 1.43163728	 0.4130826979	 0.111465
H	-3.303897476	 0.0163140052	 0.9858999528	 0.092848
H	-0.8935342728	 1.414174694	 2.2228688274	 0.100877
H	-2.443807584	 1.0551142336	 2.9965302266	 0.100116
135.1825	256.9405	283.1482	291.3588	374.5998	398.7542	426.0175	446.0642	511.3228	564.3438	725.2107	748.004	805.579	815.7645	832.5554	892.4068	901.2231	942.3579	967.2732	998.7471	1013.8984	1043.1881	1064.4018	1078.4662	1092.7867	1136.4237	1175.0905	1198.2519	1221.8875	1230.5566	1251.6111	1274.3167	1298.9562	1314.4651	1334.8446	1347.3054	1364.0841	1371.6614	1389.3158	1419.8681	1426.9707	1472.1339	1478.5782	1496.6616	1524.7437	2979.1499	3015.4503	3035.0072	3036.5142	3052.4817	3070.2113	3082.0318	3085.2106	3095.5281	3102.9824	3103.2428	3826.5889
OC1CC2CC1CCO2	O[C@H]1C[C@@H]2C[C@H]1CCO2	
InChI=1S/C7H12O2/c8-7-4-6-3-5(7)1-2-9-6/h5-8H,1-4H2	InChI=1S/C7H12O2/c8-7-4-6-3-5(7)1-2-9-6/h5-8H,1-4H2/t5-,6+,7+/m1/s1
