18
gdb 127876	2.25963	1.75865	1.00796	1.4815	77.88	-0.1997	-0.0067	0.193	1174.0623	0.146821	-431.411681	-431.401855	-431.40091	-431.447008	33.236	
C	 0.1727884906	 1.3402507831	-0.5066595699	-0.327403
N	 0.009168904	-0.0903440227	-0.3502215083	-0.3828
C	-1.1205291258	-0.6167504172	-0.0888284708	 0.506487
N	-2.4301452052	-0.1756402799	 0.1084021806	-0.102063
C	-3.0098996374	 1.1455915154	-0.0075250609	-0.335297
N	-3.2680260734	-1.2353352761	 0.3507891513	-0.121707
N	-2.5837226361	-2.3007217395	 0.3430840407	-0.108763
N	-1.2931763944	-1.9834657411	 0.0887198287	-0.055188
C	-0.2510156857	-2.9758303639	 0.0053603267	-0.320319
H	 0.1166984425	 1.8801065588	 0.4511116139	 0.107719
H	 1.169045096	 1.5328077372	-0.9161360409	 0.121102
H	-0.549382155	 1.8065615435	-1.1931480154	 0.101569
H	-3.099788581	 1.460035997	-1.0523217442	 0.145726
H	-4.0067026957	 1.0955358037	 0.4326689818	 0.162091
H	-2.4133651355	 1.8775572779	 0.5380062199	 0.152628
H	-0.7016546123	-3.9483360646	 0.2028977514	 0.154147
H	 0.2037302539	-2.9654327103	-0.9894927531	 0.150611
H	 0.5301800305	-2.7643602212	 0.7409735385	 0.15146
70.4555	83.0452	131.1073	135.7225	139.7812	207.6944	223.6544	264.0195	283.5591	328.0119	551.3133	601.5804	663.2143	705.6661	722.6858	834.0894	978.7613	1038.0839	1079.8483	1085.4038	1120.2551	1151.3217	1159.3059	1174.6405	1251.9525	1343.7317	1368.406	1423.5727	1438.1842	1451.4137	1461.4505	1469.1813	1485.8354	1493.7982	1495.5401	1509.3518	1515.6602	1518.955	1765.5199	2971.6627	3016.959	3046.6169	3048.722	3080.6267	3109.1007	3124.4265	3159.1247	3164.0195
CN=C1N(C)N=NN1C	CN=c1n(C)nnn1C	
InChI=1S/C4H9N5/c1-5-4-8(2)6-7-9(4)3/h1-3H3	InChI=1S/C4H9N5/c1-5-4-8(2)6-7-9(4)3/h1-3H3
