19
gdb 83749	2.70398	1.60431	1.3618	1.8342	74.19	-0.2322	0.0762	0.3084	1018.7099	0.160127	-422.986444	-422.978729	-422.977785	-423.018489	30.99	
O	-0.0766458719	 1.194683379	-0.5375157035	-0.427344
C	-0.0989425386	-0.1405813331	-0.1584085704	 0.107601
C	-0.3676462764	-0.4881891668	 1.2779281978	 0.012929
O	-0.8525285218	 0.6141906545	 2.0187760212	-0.278354
C	-2.2858342769	 0.6220581635	 1.9102404442	-0.153012
C	-2.5940963252	 0.0279081706	 0.5380366325	 0.348175
C	-3.9943012592	-0.3394866122	 0.1310372334	-0.341707
C	-3.2982533216	 0.8249753623	-0.5314142559	-0.290203
C	-1.3994120068	-0.8452363917	 0.2302331248	-0.233286
H	-0.2203167875	 1.7003629995	 0.2753552232	 0.292455
H	 0.6283146308	-0.7381032951	-0.7014541472	 0.099907
H	 0.2174597258	-1.201795174	 1.8496152818	 0.096816
H	-2.7162618886	 0.0079177067	 2.7156977948	 0.100756
H	-2.6245342779	 1.6547595281	 2.036057103	 0.110343
H	-4.1391060865	-1.249999405	-0.4412375108	 0.115205
H	-4.7971789728	-0.12570972	 0.8301385077	 0.111814
H	-3.635284445	 1.8271628567	-0.2854574746	 0.109092
H	-2.9526878824	 0.7072667835	-1.551722831	 0.126522
H	-1.5532884776	-1.8715038866	-0.0846362512	 0.092293
96.3723	147.63	254.3165	277.7207	306.1379	379.812	446.8335	496.4931	580.0414	657.3909	702.1324	751.3057	773.0288	791.8715	824.502	888.4295	929.5358	944.7824	962.2858	988.7868	1031.4579	1049.1169	1062.5095	1066.7518	1076.8891	1094.6948	1101.8322	1121.956	1188.5871	1202.6956	1228.392	1260.689	1297.3322	1315.7519	1338.4196	1369.1355	1406.2186	1440.4997	1467.3595	1502.9518	1515.6398	2988.7812	3082.8549	3122.719	3131.5475	3144.1697	3152.9867	3169.6215	3202.8467	3223.9395	3729.9149
OC1C2OCC3(CC3)C12	O[C@H]1[C@H]2OCC3(CC3)[C@@H]12	
InChI=1S/C7H10O2/c8-5-4-6(5)9-3-7(4)1-2-7/h4-6,8H,1-3H2	InChI=1S/C7H10O2/c8-5-4-6(5)9-3-7(4)1-2-7/h4-6,8H,1-3H2/t4-,5+,6-/m0/s1
