17
gdb 30067	3.0823	1.25879	1.00477	3.331	79.61	-0.2144	0.0202	0.2346	1181.5081	0.13715	-380.921942	-380.913337	-380.912393	-380.955979	31.004	
C	 0.2696742114	 1.3599439477	 0.1963940187	-0.357581
N	 0.0947414682	-0.0755125188	 0.0802530339	-0.0314
C	-0.0139120373	-0.7640604258	-1.1025019723	-0.101418
C	-0.1759754407	-2.1001857714	-0.8216365204	-0.1595
C	-0.1639594289	-2.2318179768	 0.5909331802	-0.231276
C	 0.0022418537	-0.972034449	 1.1243515755	 0.292764
C	 0.0648016752	-0.5542002073	 2.5643014897	-0.455204
C	 1.364445543	 0.0010710424	 2.9675040877	 0.270622
N	 2.3843540642	 0.4567572308	 3.2639933159	-0.317934
H	 1.1870127291	 1.6040753076	 0.7397243988	 0.167866
H	 0.3334260286	 1.7866396236	-0.8054377421	 0.145475
H	-0.5785543398	 1.8232870159	 0.7125673036	 0.136888
H	 0.0354346894	-0.2380212952	-2.0429152589	 0.118776
H	-0.2882744406	-2.8908773355	-1.5467701838	 0.099992
H	-0.2628247853	-3.1434409908	 1.1611240423	 0.097794
H	-0.7056245625	 0.1882111851	 2.8140203074	 0.155534
H	-0.1417366577	-1.4305266425	 3.1860960836	 0.168603
55.2717	86.3018	106.4491	199.9889	255.3914	281.1432	382.7944	412.7766	477.5248	618.9742	631.0861	693.7258	722.294	757.1062	787.5411	841.9941	897.5732	924.3835	932.7397	1033.9395	1076.4606	1115.8361	1151.9703	1185.2272	1219.3276	1276.6303	1321.3485	1347.0476	1405.1604	1449.2932	1452.4548	1466.9501	1487.4771	1516.8255	1532.9838	1593.0825	2357.3198	3017.2329	3035.5018	3091.1318	3099.2674	3144.0558	3240.0986	3251.3033	3269.077
CN1C=CC=C1CC#N	Cn1cccc1CC#N	
InChI=1S/C7H8N2/c1-9-6-2-3-7(9)4-5-8/h2-3,6H,4H2,1H3	InChI=1S/C7H8N2/c1-9-6-2-3-7(9)4-5-8/h2-3,6H,4H2,1H3
