16
gdb 43363	2.35576	2.074	1.21419	3.7411	78.64	-0.2367	-0.0614	0.1752	993.8929	0.126325	-400.755286	-400.748135	-400.747191	-400.786875	27.82	
O	-0.1207210243	 0.2586669191	 0.8175069053	-0.342323
C	-0.0753789428	 1.2496853645	 0.1193212508	 0.34247
C	-1.3020441887	 1.7895986091	-0.5338389451	-0.170688
C	-1.6698283863	 3.0791217696	-0.5135441834	-0.068469
C	-0.9255412026	 4.2215279597	 0.0219379318	-0.080844
C	 0.3987245154	 4.3340827053	 0.1887943831	-0.090542
C	 1.4056805575	 3.314572807	-0.1931927906	-0.075287
C	 2.0539175039	 2.3959822336	 0.8201626314	-0.244625
N	 1.1194541294	 1.8996621741	-0.1596815388	-0.08852
H	-1.9927079624	 1.0312117269	-0.8877670001	 0.122981
H	-2.6634767203	 3.3205513188	-0.8853535856	 0.106739
H	-1.5384713171	 5.0794055287	 0.2886744222	 0.102836
H	 0.8030202607	 5.2689425297	 0.5709136815	 0.107614
H	 2.0393025041	 3.612396261	-1.0315575908	 0.113946
H	 3.0926206834	 2.1033706183	 0.6937008874	 0.127864
H	 1.7054904401	 2.4515922245	 1.848007021	 0.136848
97.4855	200.0752	222.4169	326.0418	360.9208	408.286	482.5237	529.467	650.2639	684.5133	715.7359	790.2817	821.4673	838.3292	879.1075	942.7184	976.2257	1001.5228	1006.5471	1016.4847	1081.6841	1095.985	1126.783	1162.6696	1185.5806	1235.5427	1253.3082	1386.1342	1392.065	1436.2361	1453.126	1510.2327	1667.4404	1705.5709	1770.6979	3076.8786	3110.3741	3140.4904	3149.6373	3166.8106	3190.6334	3201.8689
O=C1C=CC=CC2CN12	O=C1C=CC=C[C@H]2CN12	
InChI=1S/C7H7NO/c9-7-4-2-1-3-6-5-8(6)7/h1-4,6H,5H2	InChI=1S/C7H7NO/c9-7-4-2-1-3-6-5-8(6)7/h1-4,6H,5H2/t6-,8?/m0/s1
