21
gdb 107807	3.29122	1.44386	1.25638	0.4205	86.03	-0.2175	0.021	0.2385	1096.9966	0.183881	-349.932354	-349.924601	-349.923656	-349.964249	31.95	
C	 0.072686745	 1.5301146485	 0.1636492784	-0.385689
C	 0.003892653	 0.0147499684	-0.0587560692	-0.291472
C	-1.4098863458	-0.5412383966	-0.0932240085	 0.306702
C	-2.2626257413	-0.4668441326	 1.2458538166	-0.259587
C	-2.7056317477	-1.9007806286	 0.9994470418	-0.079313
C	-3.0544923353	-2.1614226905	-0.4925214856	-0.082944
C	-3.3091038296	-0.9890674044	-1.3754966331	-0.091092
C	-2.3423835015	-0.0825292282	-1.2005241236	-0.143014
C	-1.6248336555	-2.0982529993	-0.0339603021	-0.128428
H	 1.1110068325	 1.8711736652	 0.2176865191	 0.111768
H	-0.4130395358	 2.0803593231	-0.6485738275	 0.118494
H	-0.4210054584	 1.8162155968	 1.0985085364	 0.120017
H	 0.5115798059	-0.2433251354	-0.9976289203	 0.096832
H	 0.5613659542	-0.4928562989	 0.7393936068	 0.092552
H	-1.596994468	-0.4244051586	 2.1135243186	 0.098408
H	-3.0174885237	 0.3230853449	 1.3211376408	 0.088129
H	-3.0628553307	-2.593359158	 1.7525911118	 0.083305
H	-3.5107755329	-3.1252910286	-0.6872789815	 0.081232
H	-4.1789944532	-0.891067503	-2.0133817193	 0.092896
H	-2.3032455541	 0.9053255067	-1.6435908783	 0.091656
H	-0.877574947	-2.8748609307	-0.1526404413	 0.07955
98.5388	174.7567	206.0615	295.1508	352.6241	381.2694	408.9092	551.3118	606.4609	701.5741	724.2129	746.4553	767.7963	782.1889	791.7201	830.1214	906.3509	913.1232	932.4302	961.6119	967.1092	981.7287	1002.6512	1019.3481	1033.4833	1055.6213	1089.9489	1111.6035	1121.0747	1145.6967	1190.5465	1214.5596	1245.5505	1269.9612	1293.1413	1320.4274	1369.9164	1374.2781	1376.9776	1411.5983	1480.864	1490.073	1501.1005	1507.1479	1645.2525	3012.647	3033.8166	3035.978	3043.9736	3090.3382	3102.4113	3105.017	3166.8028	3173.4967	3186.0652	3193.2948	3218.1039
CCC12CC3C(C=C1)C23	CC[C@@]12C[C@H]3[C@@H](C=C1)[C@@H]23	
InChI=1S/C9H12/c1-2-9-4-3-6-7(5-9)8(6)9/h3-4,6-8H,2,5H2,1H3	InChI=1S/C9H12/c1-2-9-4-3-6-7(5-9)8(6)9/h3-4,6-8H,2,5H2,1H3/t6-,7+,8-,9+/m1/s1
