15
gdb 24200	4.22168	1.65906	1.4354	3.1142	69.96	-0.2159	-0.0023	0.2136	887.7813	0.116158	-416.736714	-416.730718	-416.729773	-416.767819	23.966	
C	-0.0173533674	 1.513620143	-0.0745045846	-0.163114
C	 1.5464168556	 1.3416800569	-0.0005426308	-0.199742
C	 1.1411488761	 0.1557682859	 0.9532759479	-0.163111
N	-0.0873598495	-0.0266016373	 0.0333303543	-0.229124
C	 0.6494245853	-0.3324009672	-1.2011408386	 0.297483
C	 1.6928109471	 0.508251155	-1.2666344476	 0.312682
O	 2.3935956529	 0.2537392199	-2.39295568	-0.209047
C	 1.6747397239	-0.7858223683	-2.9563331251	 0.005984
N	 0.6257067591	-1.1733255576	-2.2854359828	-0.363172
H	-0.4599205372	 1.9735396911	 0.8139602639	 0.114554
H	-0.4515701804	 1.9217957223	-0.9884471808	 0.120089
H	 2.2450655229	 2.1343750029	 0.2592295072	 0.091249
H	 1.7974378343	-0.7142102657	 1.0067988744	 0.120088
H	 0.8209534871	 0.4722533938	 1.9503073894	 0.114551
H	 2.0554861304	-1.1669521746	-3.8891880669	 0.150629
39.1044	311.4567	419.4698	506.8073	542.5714	637.335	665.6753	714.9905	743.9296	758.2534	799.1161	812.416	838.4882	898.5738	933.3462	989.9778	1022.7388	1031.8713	1047.1071	1091.9524	1117.3985	1166.2215	1193.9796	1216.0211	1237.9679	1258.6819	1299.249	1346.6633	1408.993	1481.4925	1487.1365	1525.873	1620.2977	3051.7793	3063.0818	3134.3252	3138.9645	3140.998	3293.0401
C1C2CN1C1=C2OC=N1	C1[C@H]2CN1c1c2ocn1	
InChI=1S/C6H6N2O/c1-4-2-8(1)6-5(4)9-3-7-6/h3-4H,1-2H2	InChI=1S/C6H6N2O/c1-4-2-8(1)6-5(4)9-3-7-6/h3-4H,1-2H2
