21
gdb 36867	4.09995	0.84321	0.80912	1.7505	85.63	-0.2272	0.0304	0.2576	1517.8221	0.183297	-387.084369	-387.075602	-387.074658	-387.119053	32.508	
C	-0.0830460313	 1.5522068318	 0.0343806253	-0.355534
C	-0.1119330989	 0.0878941582	 0.4295445995	 0.109214
C	-1.1344581505	-0.8341771645	-0.0779004666	-0.181436
O	 0.1977769612	-0.85770509	-0.5946325062	-0.229578
C	 1.3050634234	 2.1245306264	-0.0251403586	 0.353847
C	 1.9408733643	 2.5567590945	-1.1155597265	-0.163353
C	 3.3062213312	 3.1222368465	-0.8118106125	-0.243528
C	 3.5532896438	 2.6645459938	 0.6491041457	-0.201648
C	 2.1507872882	 2.3367026465	 1.217815101	-0.301654
H	-0.5750662269	 1.6570616896	-0.9381691413	 0.107228
H	-0.6850756803	 2.1104335456	 0.7673856706	 0.103047
H	 0.3407997883	-0.1477400579	 1.3942933777	 0.091305
H	-1.4267879366	-1.703334372	 0.5101542443	 0.11235
H	-1.8948676249	-0.4640207495	-0.7650088428	 0.11136
H	 1.5195051424	 2.5474555432	-2.1156037324	 0.084288
H	 4.0816321075	 2.7634684316	-1.498257912	 0.101997
H	 3.3019207197	 4.21833006	-0.9032443552	 0.101378
H	 4.1617869562	 1.7549084683	 0.6438946063	 0.107135
H	 4.0895183872	 3.4081691342	 1.2440958334	 0.094209
H	 1.7426128923	 3.1671752796	 1.8135163825	 0.099623
H	 2.1663100439	 1.4668285741	 1.8849471878	 0.099752
49.2465	61.7796	110.2132	157.8796	246.8029	316.1036	355.7949	414.8587	500.9921	607.2916	694.0982	781.7868	814.9655	842.302	860.825	881.6697	901.7823	919.8405	940.2709	961.2508	976.6607	1038.7297	1065.9884	1091.5108	1098.3219	1151.917	1156.6386	1162.6016	1174.6738	1224.4874	1232.1145	1246.6943	1292.7617	1299.743	1318.7975	1326.5339	1332.0385	1369.0169	1443.4888	1461.9601	1483.4124	1488.3435	1506.495	1530.9695	1720.3519	2993.6728	2998.4254	3000.0142	3041.5114	3049.0869	3062.0599	3072.575	3079.4362	3097.047	3101.3188	3164.5534	3184.2754
C(C1CO1)C1=CCCC1	C([C@H]1CO1)C1=CCCC1	
InChI=1S/C8H12O/c1-2-4-7(3-1)5-8-6-9-8/h3,8H,1-2,4-6H2	InChI=1S/C8H12O/c1-2-4-7(3-1)5-8-6-9-8/h3,8H,1-2,4-6H2/t8-/m0/s1
