16
gdb 54636	4.06132	1.22122	1.01623	2.8721	71.32	-0.2559	-0.0636	0.1923	1158.5096	0.123591	-437.898359	-437.890369	-437.889425	-437.931679	29.31	
C	 0.0046215588	 1.3942790545	 0.194771211	-0.476368
C	 0.0348089346	-0.1154226298	 0.1458212071	 0.311723
O	 1.0490650913	-0.770787532	 0.1164832374	-0.282015
C	-1.3063790436	-0.7930360771	 0.1376645729	 0.302713
N	-2.4348041691	-0.1886911406	 0.1250525466	-0.295174
C	-3.4428516106	-1.2135213449	 0.0817665714	-0.026861
C	-3.405518516	-2.1248272818	-1.1325536386	-0.316226
C	-2.6692694656	-2.5311016216	 0.1043682354	 0.059616
O	-1.3064044953	-2.1514811592	 0.1727652901	-0.225531
H	 1.0270295632	 1.7704439958	 0.2366387899	 0.140282
H	-0.5093776682	 1.7899627582	-0.6865649632	 0.154732
H	-0.5662638198	 1.7354920569	 1.0633032423	 0.154984
H	-4.3767923293	-1.0108077874	 0.5904969818	 0.111726
H	-4.3153389009	-2.6750447425	-1.3445189063	 0.130081
H	-2.8411230733	-1.803101825	-2.0013200494	 0.133981
H	-2.8914872263	-3.4256990436	 0.6704671216	 0.122338
52.3736	106.0008	134.7134	188.5444	347.8139	373.6183	432.9991	492.2169	568.4366	623.669	701.8528	742.2175	750.7927	819.1737	910.3047	935.184	961.6057	981.6532	1029.6059	1039.4394	1045.3547	1079.8094	1125.7774	1130.4301	1143.5794	1189.1676	1285.9181	1350.1273	1372.7599	1396.0602	1456.5909	1460.5791	1463.8541	1656.7739	1806.9145	3052.8034	3116.9862	3134.9282	3161.6586	3191.1761	3206.2245	3230.4113
CC(=O)C1=NC2CC2O1	CC(=O)C1=N[C@H]2C[C@H]2O1	
InChI=1S/C6H7NO2/c1-3(8)6-7-4-2-5(4)9-6/h4-5H,2H2,1H3	InChI=1S/C6H7NO2/c1-3(8)6-7-4-2-5(4)9-6/h4-5H,2H2,1H3/t4-,5+/m0/s1
