18
gdb 18410	3.17464	2.1399	1.43637	1.5244	66.69	-0.2495	0.0769	0.3264	880.9306	0.155972	-384.920813	-384.913981	-384.913037	-384.951622	27.032	
C	-0.0156798628	 1.5331089807	 0.0604453409	-0.199524
C	 1.4320834949	 2.0391028623	-0.0052645329	-0.063458
O	 2.100735714	 1.845493216	-1.2403881351	-0.241218
C	 2.4409306845	 0.5003488646	-1.5281053081	-0.117366
C	 1.3000034321	-0.2506600385	-2.1968428927	 0.045853
O	 0.9784722797	-1.5550976372	-1.6953960762	-0.257836
C	 0.0465522789	-0.4914058085	-1.4717027189	 0.070037
C	-0.1572787643	 0.0046827628	-0.050431138	-0.246662
H	-0.4303337729	 1.8689250328	 1.0195350633	 0.098168
H	-0.6040856738	 2.0232195098	-0.7250160355	 0.106204
H	 1.4449111633	 3.1212933024	 0.1610309282	 0.107087
H	 2.0145238286	 1.571148707	 0.8073611564	 0.087334
H	 3.3077573645	 0.5406407581	-2.1956562807	 0.107948
H	 2.7401291107	-0.0391613231	-0.6179995697	 0.102801
H	 1.2543528651	-0.1693703546	-3.2831221083	 0.092901
H	-0.8611313869	-0.5745318803	-2.0714028781	 0.092092
H	 0.571925616	-0.4885326249	 0.6019726425	 0.113384
H	-1.1476635517	-0.3050889794	 0.300114363	 0.102256
140.9335	204.2297	298.9624	343.0474	374.8965	399.6076	454.6445	528.6256	606.8763	760.5427	817.366	829.3406	894.7984	918.411	949.9284	979.0519	1014.5852	1057.4152	1063.0367	1093.3494	1141.2673	1152.6953	1167.9048	1215.3182	1247.8067	1276.9398	1300.7287	1331.2143	1353.6126	1376.9835	1387.4533	1403.9125	1419.1956	1470.3643	1487.4074	1487.7272	1488.3364	1503.2682	2957.2215	3004.4601	3022.7256	3039.52	3065.6029	3072.1857	3073.2196	3078.6198	3096.2954	3112.0119
C1COCC2OC2C1	C1COC[C@H]2O[C@H]2C1	
InChI=1S/C6H10O2/c1-2-5-6(8-5)4-7-3-1/h5-6H,1-4H2	InChI=1S/C6H10O2/c1-2-5-6(8-5)4-7-3-1/h5-6H,1-4H2/t5-,6+/m0/s1
