20
gdb 101065	2.13082	1.37112	0.96058	5.8254	80.21	-0.2339	0.0273	0.2612	1290.7597	0.170298	-399.298133	-399.288177	-399.287233	-399.333216	36.27	
C	 0.0896516972	 1.3164792952	 0.34140361	-0.321705
N	 0.1034618859	-0.1074732752	 0.0429130069	-0.263438
C	 0.6306895688	-0.487351102	-1.264353565	-0.041456
C	 2.1444486053	-0.2738101247	-1.437755806	-0.434627
C	 0.1639073791	-1.9244234311	-1.5397929068	 0.134572
C	 0.950482629	-2.8947174658	-2.3598302807	-0.27315
N	 0.8320951667	-3.0880017092	-0.9118669212	-0.327012
C	-1.2836308337	-2.0454526551	-1.5843213169	 0.310918
N	-2.4316829827	-2.1350646887	-1.6807772561	-0.345336
H	 1.0768890522	 1.8096532831	 0.341771825	 0.096635
H	-0.5404066076	 1.8325098563	-0.3913767432	 0.131929
H	-0.3595983706	 1.4689635187	 1.3266255037	 0.129667
H	 0.5687429374	-0.6270135116	 0.7794511411	 0.217587
H	 0.1175615302	 0.1491682019	-1.9972191971	 0.104914
H	 2.4666928417	-0.4186390395	-2.4726444492	 0.129282
H	 2.402324318	 0.7506449032	-1.1581687356	 0.134611
H	 2.7332881504	-0.9401634425	-0.7955190831	 0.111673
H	 0.4185457834	-3.6242997785	-2.9619928915	 0.144156
H	 1.8964742675	-2.5595187983	-2.7717821868	 0.124596
H	 1.6840653719	-2.7786067962	-0.4491113975	 0.236182
52.8437	86.6236	142.9031	196.4593	210.0566	219.4832	263.1919	298.523	326.8625	397.4902	407.5943	492.5076	573.5143	596.8462	680.2896	726.5701	855.0776	862.0802	903.9616	932.901	985.0328	1010.1742	1056.0256	1073.2263	1100.5148	1141.3202	1159.1285	1166.3072	1214.4699	1257.5018	1279.4399	1334.8745	1357.4573	1377.6866	1407.0816	1460.2294	1482.3945	1490.2556	1497.1375	1500.1423	1517.2239	1522.0434	2361.8406	2954.1369	3024.8354	3033.3083	3061.6365	3101.8707	3109.5922	3120.4844	3128.3393	3217.4079	3497.3481	3526.1226
CNC(C)C1(CN1)C#N	CN[C@@H](C)[C@]1(CN1)C#N	
InChI=1S/C6H11N3/c1-5(8-2)6(3-7)4-9-6/h5,8-9H,4H2,1-2H3	InChI=1S/C6H11N3/c1-5(8-2)6(3-7)4-9-6/h5,8-9H,4H2,1-2H3/t5-,6+/m0/s1
