16
gdb 33841	4.53182	1.0828	1.00419	4.8133	75.15	-0.2625	0.006	0.2684	1172.6156	0.125593	-396.86603	-396.858466	-396.857522	-396.898196	29.045	
N	 0.0392662793	-1.1452973973	 0.1256276571	-0.342277
C	 0.0467750924	 0.0094901735	 0.06258224	 0.234132
C	 0.0335537623	 1.4340461152	-0.0681142312	 0.190386
C	-0.691931935	 2.2165617736	-1.1861143402	-0.392404
C	 0.4843165022	 3.2191040516	-1.1584797194	 0.344873
C	 1.0791755707	 3.9292774316	-2.3058022985	-0.306222
N	 0.4481848531	 4.676795904	-1.193707147	-0.36231
C	 1.1774537068	 2.4317005662	-0.0626927815	-0.143013
N	 0.3139415063	 2.2719435761	 1.0945256614	-0.338485
H	-0.758807746	 1.6635352177	-2.1254275769	 0.139033
H	-1.6845068318	 2.5902364252	-0.9131126605	 0.115576
H	 2.1570124822	 4.0477126923	-2.376476935	 0.131691
H	 0.5645396972	 3.8741740019	-3.2617062385	 0.122289
H	-0.4753051018	 5.0004805295	-1.4725730003	 0.236965
H	 2.2397896213	 2.2566123227	 0.0563476496	 0.124489
H	-0.3589597693	 3.0304782461	 1.1961621411	 0.245278
84.0782	151.5695	218.4924	270.0344	330.8201	399.386	452.4039	518.1137	559.1555	591.2222	647.2229	797.57	834.0119	844.8403	900.9778	931.803	954.1716	979.1561	998.3296	1014.2691	1066.9515	1096.9574	1115.7941	1136.7578	1146.2748	1222.3979	1234.9458	1255.6547	1265.1564	1294.4689	1409.728	1424.7407	1481.6311	1515.7227	2358.0696	3048.4866	3107.42	3117.4426	3193.2985	3198.5988	3466.6298	3494.2321
N#CC12CC3(CN3)C1N2	N#C[C@]12C[C@]3(CN3)[C@H]1N2	
InChI=1S/C6H7N3/c7-2-5-1-6(3-8-6)4(5)9-5/h4,8-9H,1,3H2	InChI=1S/C6H7N3/c7-2-5-1-6(3-8-6)4(5)9-5/h4,8-9H,1,3H2/t4-,5+,6-/m0/s1
