12
gdb 18430	4.30701	1.54564	1.38419	3.7322	55.55	-0.2646	-0.0483	0.2163	863.2066	0.08267	-418.471563	-418.464955	-418.464011	-418.502884	23.703	
O	-0.0681317087	 0.0466306295	-0.2758723132	-0.250637
C	-0.0261544006	 1.1847184144	 0.1170666792	 0.15452
C	 1.2251645851	 2.0010658828	 0.0683794565	-0.136204
C	 1.2500671121	 3.480190683	-0.138753561	 0.074755
O	 0.0458302074	 4.0879133697	 0.3964799548	-0.260432
C	 0.4341396757	 3.7197098202	 1.6881249773	 0.46664
O	-0.0821884019	 4.0201228581	 2.7099009183	-0.303736
C	 1.6537465404	 2.9678658511	 1.2090047633	-0.29045
H	-0.9170724649	 1.6912859002	 0.5366753906	 0.11376
H	 2.0705266628	 1.4651317745	-0.3549820573	 0.135327
H	 1.7897580089	 4.0255253231	-0.8994803497	 0.148932
H	 2.6072854237	 2.8736938835	 1.7063338212	 0.147524
89.6233	133.0679	222.6894	309.5373	433.3888	466.8142	569.9942	687.503	765.0739	813.0109	827.7403	885.4823	925.2357	985.4817	1019.6492	1030.2723	1044.5672	1073.5678	1095.3369	1175.2499	1257.4154	1295.8885	1371.4408	1447.7578	1820.0043	1956.7509	2946.628	3165.7025	3229.9874	3243.2473
O=CC1C2OC(=O)C12	O=C[C@H]1[C@H]2OC(=O)[C@@H]12	
InChI=1S/C5H4O3/c6-1-2-3-4(2)8-5(3)7/h1-4H	InChI=1S/C5H4O3/c6-1-2-3-4(2)8-5(3)7/h1-4H/t2-,3+,4-/m1/s1
