18
gdb 102267	2.17927	1.16047	0.79112	6.608	74.72	-0.242	0.026	0.2681	1397.6084	0.146831	-439.084422	-439.074841	-439.073897	-439.119454	34.794	
N	-0.106483301	 2.0971392145	 0.5642256474	-0.521248
H	-0.3082712024	 0.5292160074	-0.1575803888	 0.318917
H	 0.8261751915	 2.4342054195	 0.7768442237	 0.253467
H	-0.4761573816	 2.6991860276	-0.1661690077	 0.255121
C	-0.9673707652	 2.1437250288	 1.7584827008	-0.170351
C	-2.1595682622	 1.1618527096	 1.6429024314	-0.194868
C	-1.7339310166	-0.3401357034	 1.6067190016	-0.332909
C	-1.4827693778	-0.9571911702	 0.224298196	 0.378926
O	-0.6426773256	-0.3054355195	-0.5851129468	-0.380993
O	-2.0033382023	-1.9917164844	-0.1066422487	-0.329002
C	-3.0643819421	 1.4033524138	 2.7647438808	 0.311997
C	-3.780053526	 1.6045502107	 3.7091020452	-0.431826
H	-0.3656207213	 1.8535832628	 2.6252242336	 0.129845
H	-1.3542418403	 3.1507873227	 1.9563639822	 0.118242
H	-2.7004822621	 1.3946828364	 0.7144232576	 0.121681
H	-0.8302628371	-0.468080458	 2.2163523326	 0.123647
H	-2.5156884159	-0.9474981258	 2.0610891124	 0.148011
H	-4.428537582	 1.7771396776	 4.5322532465	 0.201343
66.5473	74.0409	124.6183	148.0948	242.1768	246.8913	302.8721	320.475	417.556	452.3104	481.9811	524.3356	626.1757	643.3006	653.9234	697.0446	856.971	877.5806	896.3631	945.959	972.5001	1007.7272	1028.1187	1077.2356	1097.6237	1145.4229	1239.7978	1271.4209	1309.1412	1326.522	1336.2453	1362.2448	1413.447	1469.8909	1487.4766	1501.2327	1652.947	1850.1186	2237.5555	3005.4292	3027.217	3038.8436	3090.1155	3140.7266	3173.8726	3502.6693	3504.0341	3582.6543
[NH3+]CC(CC([O-])=O)C#C	NC[C@@H](CC(=O)O)C#C	
InChI=1S/C6H9NO2/c1-2-5(4-7)3-6(8)9/h1,5H,3-4,7H2,(H,8,9)	InChI=1S/C6H9NO2/c1-2-5(4-7)3-6(8)9/h1,5H,3-4,7H2,(H,8,9)/t5-/m1/s1
