16
gdb 44646	3.06077	1.73384	1.55627	3.0778	67.01	-0.2335	-0.0105	0.223	894.0577	0.126236	-437.848132	-437.841539	-437.840595	-437.879275	26.003	
O	-0.4333663359	 0.2913407862	 0.4055971047	-0.317703
C	-0.1386049348	 1.3728271454	 0.0135311839	 0.441464
O	-0.960278656	 2.2875938748	-0.6228869453	-0.250797
C	 0.1262408593	 3.2533811215	-0.7600092787	 0.08046
C	 0.2600862658	 4.2308043786	 0.4295535674	 0.010211
C	-0.7586772708	 4.1605272241	 1.5890005282	-0.260747
C	 0.2030441439	 3.1355228229	 2.2598812403	-0.181814
N	 1.1967418695	 3.2760792106	 1.1341861202	-0.142482
C	 1.083280832	 2.3002321147	-0.0091964077	-0.185431
H	 0.2231110194	 3.5981940646	-1.7875699757	 0.105193
H	 0.6734548735	 5.207898741	 0.1642037806	 0.08761
H	-0.8761049683	 5.0994779193	 2.1317654479	 0.114577
H	-1.7422393957	 3.7763239646	 1.3158744127	 0.132679
H	 0.6407709251	 3.4634903793	 3.2061189797	 0.114064
H	-0.1921115586	 2.1251546157	 2.3938170589	 0.138011
H	 2.0291820318	 1.8915213566	-0.3632227971	 0.114704
101.8898	170.2175	258.5775	368.3934	460.963	506.9066	649.0166	694.5496	743.213	770.8951	801.5107	830.9252	869.492	901.3996	922.0871	934.0069	980.2119	1003.3165	1017.6737	1065.3168	1095.7386	1107.5709	1173.9692	1197.4115	1215.1382	1220.4346	1229.2487	1255.4462	1263.8415	1307.9428	1318.0805	1339.976	1477.5874	1512.3925	1928.4524	3057.969	3066.4202	3086.1591	3105.2743	3118.4149	3139.621	3143.6241
O=C1OC2C3CCN3C12	O=C1O[C@H]2[C@H]3CCN3[C@@H]12	
InChI=1S/C6H7NO2/c8-6-4-5(9-6)3-1-2-7(3)4/h3-5H,1-2H2	InChI=1S/C6H7NO2/c8-6-4-5(9-6)3-1-2-7(3)4/h3-5H,1-2H2/t3-,4-,5+/m1/s1
