21
gdb 104789	2.20481	1.47734	1.07497	0.9551	77.27	-0.252	0.055	0.307	1197.8491	0.181032	-424.181531	-424.172104	-424.17116	-424.215757	35.496	
C	-1.6436632106	-0.5301124687	-0.2119502525	-0.39564
C	-0.1597498769	-0.1834168571	-0.0388814584	-0.256896
C	 0.7490307387	-0.6157914403	-1.1940527097	 0.284434
C	 0.3798495108	 0.0035809516	-2.5445312555	-0.131356
O	 0.5632243119	 1.4106431169	-2.5865787561	-0.421789
C	 2.3000275894	-0.4876867502	-0.9216587397	-0.317522
C	 2.4153533744	-2.0037534719	-1.1025033253	 0.037937
O	 1.5638141625	-2.6177203662	-0.1233203864	-0.25167
C	 0.9704620472	-2.1446751662	-1.33574981	-0.017276
H	-2.1022022309	-0.0050476046	-1.0567217511	 0.110975
H	-1.7828997055	-1.604170154	-0.3759231518	 0.123991
H	-2.2092423047	-0.2593488245	 0.6846847805	 0.118337
H	-0.0438210437	 0.8975682547	 0.1237565991	 0.086225
H	 0.2180334743	-0.6632005111	 0.8694000315	 0.120594
H	 1.0360122206	-0.4012429358	-3.3234910331	 0.105933
H	-0.6493568957	-0.2725300165	-2.8207656197	 0.091791
H	-0.0585427298	 1.8100967681	-1.9706615907	 0.286865
H	 2.8045835306	 0.0990517085	-1.6917510834	 0.119584
H	 2.592779611	-0.1216076216	 0.0655723024	 0.1056
H	 3.2480812393	-2.594822237	-1.465604557	 0.103413
H	 0.4118190972	-2.8629487742	-1.9268406629	 0.096471
66.4173	111.2699	161.4886	185.1989	206.5509	264.3593	293.4232	329.3552	374.4581	415.182	456.3893	584.4356	678.9187	781.3119	784.3773	836.282	860.1242	876.9517	923.0022	937.9239	976.3529	989.8818	1025.3694	1038.7741	1051.2567	1074.8198	1111.804	1138.7992	1148.9975	1210.9652	1223.1143	1251.861	1264.054	1300.6254	1320.9078	1368.0272	1375.4681	1389.7172	1416.1324	1424.4074	1477.8695	1490.787	1498.2034	1505.2789	1514.6675	2987.3166	3009.5202	3034.7573	3059.7573	3067.9448	3073.9952	3101.1689	3104.9607	3128.0062	3166.5538	3189.0858	3825.2983
CCC1(CO)CC2OC12	CC[C@@]1(CO)C[C@H]2O[C@@H]12	
InChI=1S/C7H12O2/c1-2-7(4-8)3-5-6(7)9-5/h5-6,8H,2-4H2,1H3	InChI=1S/C7H12O2/c1-2-7(4-8)3-5-6(7)9-5/h5-6,8H,2-4H2,1H3/t5-,6-,7+/m1/s1
