22
gdb 90894	2.35304	1.90633	1.40117	1.5584	84.07	-0.2308	0.0787	0.3095	1038.3354	0.195646	-367.188118	-367.180062	-367.179118	-367.219941	33.132	
C	-0.176818285	 1.5520870075	-0.0039438067	-0.422064
C	 0.0307278858	 0.037914248	 0.0145887702	 0.007341
C	 0.8955871195	-0.5072220784	-1.1508100573	-0.186916
N	 1.6044988055	-1.7008409424	-0.6373876879	-0.101497
C	 2.5647163914	-1.45528306	 0.4523186967	-0.037392
C	 2.2871763648	-0.1457772632	 1.1971759026	-0.301108
C	 0.7666128121	-0.5435487186	 1.2404903466	 0.317604
C	 0.05587662	-0.418998252	 2.5727032685	-0.496657
C	 1.1887774235	-1.9589744759	 0.7346854202	-0.108972
H	 0.7741889872	 2.0909194699	 0.0682372827	 0.116808
H	-0.6636534849	 1.8666742148	-0.9331081672	 0.116628
H	-0.812069954	 1.8817957373	 0.8247320368	 0.115157
H	-0.9558138772	-0.4459974765	-0.0301261645	 0.06707
H	 0.2882619922	-0.8039470452	-2.0111677704	 0.103356
H	 1.6204559875	 0.2353409283	-1.5036661065	 0.099533
H	 3.5100196074	-1.9853069915	 0.4067786087	 0.087316
H	 2.7295979415	-0.1636736189	 2.1970836329	 0.100995
H	 2.5634159052	 0.7951801577	 0.7096842557	 0.091841
H	-0.0557510004	 0.6293269138	 2.8707403414	 0.119236
H	-0.9472419949	-0.8597837247	 2.5255585909	 0.1141
H	 0.6080980577	-0.9303247977	 3.3682621178	 0.115596
H	 0.810849885	-2.9292619023	 1.0373244888	 0.082022
151.4326	222.4814	231.0912	239.3968	290.4932	312.7478	371.0433	448.8401	495.7538	552.3525	619.6378	710.9455	749.315	802.1931	848.7615	859.368	868.8522	925.3089	940.3054	957.3285	969.1284	992.1599	1024.7725	1048.9466	1058.5841	1102.8968	1126.8254	1143.3321	1164.322	1184.0954	1210.1057	1235.179	1246.2933	1266.2743	1286.54	1318.7733	1338.2053	1351.073	1387.7925	1408.1166	1414.265	1487.2228	1493.1756	1493.3511	1497.5417	1504.2424	1513.5181	2994.8097	3021.9773	3029.8976	3036.3464	3044.6425	3081.1618	3085.3967	3091.3576	3094.6189	3096.3659	3100.2671	3161.5969	3175.8447
CC1CN2C3CC1(C)C23	C[C@H]1CN2[C@H]3C[C@]1(C)[C@@H]23	
InChI=1S/C8H13N/c1-5-4-9-6-3-8(5,2)7(6)9/h5-7H,3-4H2,1-2H3	InChI=1S/C8H13N/c1-5-4-9-6-3-8(5,2)7(6)9/h5-7H,3-4H2,1-2H3/t5-,6-,7-,8-,9?/m0/s1
