21
gdb 113834	4.08837	0.80262	0.7292	2.5514	80.65	-0.2251	0.0655	0.2906	1594.6003	0.182355	-420.333952	-420.324294	-420.32335	-420.369466	35.422	
C	 0.3816003716	 1.7540563697	-0.5736683694	-0.312685
N	-0.0099412984	 0.3858685376	-0.2716239384	-0.08562
C	 1.0395157326	-0.5718741194	 0.0438057077	-0.259542
C	 0.0806649844	-0.1276120118	 1.0993045296	 0.017972
C	 0.5570854254	 0.7067205746	 2.2460929218	-0.039466
N	-0.4652000929	 1.1808980105	 3.2013017024	-0.356126
C	 0.5781537193	 0.2464562724	 3.6645632044	-0.045368
C	 0.0631582866	-1.0859010913	 4.1583971882	-0.064558
O	-0.6078360871	-0.9334517679	 5.3985035718	-0.422058
H	 1.3149219003	 2.0874600612	-0.0921577512	 0.096153
H	 0.5206269488	 1.8429367568	-1.6558414993	 0.125608
H	-0.421853403	 2.4358001188	-0.2773633338	 0.127899
H	 0.9546159345	-1.5556744341	-0.4109094714	 0.116014
H	 2.0612457084	-0.1975196019	 0.1221070904	 0.101727
H	-0.7506304927	-0.7810274723	 1.3499880384	 0.098578
H	 1.3488699645	 1.4085062773	 1.9938305509	 0.085584
H	-0.2611452537	 2.1297858988	 3.5016519996	 0.234418
H	 1.3679286852	 0.6638186089	 4.2880842128	 0.089469
H	-0.5915577869	-1.5493609806	 3.4082098038	 0.093642
H	 0.8980552592	-1.7706717572	 4.3407454917	 0.109157
H	-1.309476966	-0.2905286098	 5.2409599101	 0.289202
36.5448	68.3949	124.0238	163.4523	212.8616	239.2874	293.9251	367.335	410.5916	425.728	445.6355	515.0819	597.8967	741.8524	811.7272	834.4528	886.655	910.5476	957.5284	971.7955	995.4171	1034.5876	1053.8335	1069.7194	1100.2258	1123.4492	1128.8807	1158.7656	1166.086	1187.9767	1202.5156	1244.9479	1268.0731	1277.3154	1331.8051	1338.4882	1370.9326	1412.3926	1447.5362	1451.8033	1485.0348	1492.7886	1498.5579	1507.0432	1515.3826	2970.7338	3014.9885	3065.8521	3076.3464	3077.5177	3103.6242	3113.9328	3129.7137	3144.0335	3168.082	3509.3486	3791.6238
CN1CC1C1NC1CO	CN1C[C@H]1[C@H]1N[C@H]1CO	
InChI=1S/C6H12N2O/c1-8-2-5(8)6-4(3-9)7-6/h4-7,9H,2-3H2,1H3	InChI=1S/C6H12N2O/c1-8-2-5(8)6-4(3-9)7-6/h4-7,9H,2-3H2,1H3/t4-,5-,6-,8?/m0/s1
