23
gdb 86998	5.691	0.56423	0.54925	2.9682	88.34	-0.2465	-0.0177	0.2287	2054.1005	0.204166	-388.299979	-388.28981	-388.288866	-388.336421	36.697	
C	-0.0284625985	 1.6061698467	-0.0061258175	-0.407019
C	 0.048360621	 0.0877133837	 0.0042973117	 0.058406
C	 1.0683222068	-0.6273962516	-0.9263037006	-0.260398
C	 1.3413510565	-1.6478810481	 0.2133481607	 0.0551
C	 2.7672798554	-2.135506995	 0.4357739784	-0.225356
C	 2.9071022766	-3.0257307344	 1.6852510627	-0.270502
C	 4.3456841711	-3.3985759964	 1.9524555928	 0.159651
O	 4.7694125406	-4.5226195216	 2.0340207065	-0.238447
C	 0.7211334042	-0.6276189349	 1.2106006947	-0.240858
H	 0.9608480476	 2.050636441	 0.1528545961	 0.109261
H	-0.4112048676	 1.979830415	-0.962620133	 0.114678
H	-0.6909089094	 1.977265983	 0.7841154215	 0.114139
H	-0.9499978309	-0.3349702315	-0.1573315938	 0.072102
H	 0.712202768	-1.0110084669	-1.8859111227	 0.095385
H	 1.9456739219	 0.0045797132	-1.1086936473	 0.093193
H	 0.6729881733	-2.5105995684	 0.1056942749	 0.072341
H	 3.1078969396	-2.6929994419	-0.4465246949	 0.109788
H	 3.4349602545	-1.2678475904	 0.5302834328	 0.095536
H	 2.541128742	-2.4690111207	 2.560495073	 0.120713
H	 2.317961666	-3.9431961852	 1.5945708025	 0.119412
H	 5.0283796383	-2.5221102922	 2.0661155628	 0.066914
H	 1.495378657	 0.00655502	 1.6602073465	 0.090967
H	 0.076555956	-1.0058815534	 2.0082428921	 0.094994
48.374	54.0153	90.5341	115.508	151.5745	227.1723	289.0443	294.6479	375.3883	389.1986	438.9645	524.7786	599.5115	765.9213	778.0666	810.7007	848.5274	896.5762	917.6186	954.5473	959.9612	991.6017	1008.2827	1039.895	1079.6239	1105.5786	1141.3324	1147.1334	1169.5347	1213.4818	1233.1428	1248.0845	1259.1606	1271.2333	1281.1429	1299.6049	1324.0263	1357.5122	1372.282	1398.6009	1412.4297	1430.9621	1463.9831	1476.0186	1491.502	1495.2044	1495.9498	1504.971	1835.9276	2842.347	3007.7712	3012.8225	3021.312	3028.0963	3030.6067	3033.4704	3041.309	3051.8183	3088.6104	3089.7658	3093.9526	3096.2665	3101.3715
CC1CC(CCC=O)C1	C[C@H]1C[C@@H](CCC=O)C1	
InChI=1S/C8H14O/c1-7-5-8(6-7)3-2-4-9/h4,7-8H,2-3,5-6H2,1H3	InChI=1S/C8H14O/c1-7-5-8(6-7)3-2-4-9/h4,7-8H,2-3,5-6H2,1H3/t7-,8+
