18
gdb 126972	3.2262	1.03134	0.79444	4.9452	75.7	-0.2306	-0.0196	0.2109	1435.9291	0.146927	-435.23763	-435.228403	-435.227459	-435.27226	32.917	
C	-0.0787351942	 1.4989684659	-0.0156809691	-0.405006
C	 0.111235828	-0.0127862989	-0.0325483885	-0.111322
N	 0.6627159163	-0.4757863991	 1.2390917325	-0.396198
C	 0.8312626314	-1.8210720749	 1.4447490066	 0.342496
N	 0.3273479137	-2.7504980086	 0.6705021861	-0.187369
O	 0.667534076	-3.9466217187	 1.2786058126	-0.17381
N	 1.3923369268	-3.7360865962	 2.4121925448	-0.133996
C	 1.5116537672	-2.4459481804	 2.5463717898	 0.268199
C	 2.2352367968	-1.8016393076	 3.6794033754	-0.513409
H	 0.8767795652	 2.0194577319	 0.1202658846	 0.115528
H	-0.5052421519	 1.8377355038	-0.9634705278	 0.130401
H	-0.7496383265	 1.8008483292	 0.7938107177	 0.131857
H	-0.8473536517	-0.5206991743	-0.1762065372	 0.140429
H	 0.750656168	-0.3139324191	-0.8761279134	 0.111189
H	 1.4081374621	 0.0968006129	 1.6087666709	 0.24023
H	 3.0941727455	-1.2195609585	 3.3246861729	 0.135329
H	 1.5766624987	-1.1172967996	 4.2253254842	 0.144651
H	 2.6010158387	-2.5618022876	 4.3714402679	 0.160801
64.6634	100.8262	120.2128	142.0639	245.7066	259.4672	261.9311	343.808	382.6121	476.8726	519.5854	613.6248	653.5988	747.54	803.9772	826.7396	910.7341	928.1372	953.5841	1008.6634	1062.7151	1068.7825	1089.8858	1150.4213	1169.2008	1261.3468	1293.7034	1362.2245	1407.6894	1417.3985	1427.4428	1479.836	1483.0922	1493.1117	1498.2448	1513.59	1524.7176	1584.4366	1651.7978	2993.7065	3032.0921	3034.2418	3076.9955	3084.9521	3105.3817	3125.2591	3142.794	3593.96
CCNC1=NON=C1C	CCNc1nonc1C	
InChI=1S/C5H9N3O/c1-3-6-5-4(2)7-9-8-5/h3H2,1-2H3,(H,6,8)	InChI=1S/C5H9N3O/c1-3-6-5-4(2)7-9-8-5/h3H2,1-2H3,(H,6,8)
