20
gdb 104617	2.45598	1.25516	0.98748	4.4397	79.67	-0.2383	0.0224	0.2607	1273.0709	0.171222	-399.31654	-399.306863	-399.305919	-399.350992	35.926	
C	 0.6914086244	 1.4894825594	 0.0459066376	-0.414809
C	-0.0220986223	 0.1459032262	-0.0141835934	 0.091404
C	 0.3053419909	-0.7615737226	-1.2316942667	-0.317389
C	 1.0234300619	-1.7172128439	-0.227725016	 0.163005
C	 2.5660761858	-1.7514678424	-0.3722087048	-0.212235
N	 3.3017935449	-2.450360942	 0.6687260059	-0.504553
N	 0.4844250445	-0.9161071569	 0.9000186059	-0.352537
C	 0.5244229681	-3.1022156331	-0.2129273427	 0.269752
N	 0.169244152	-4.202610115	-0.2175449131	-0.35102
H	 1.7645124836	 1.3908375005	-0.1506031602	 0.118926
H	 0.2738450626	 2.1791418855	-0.6957274178	 0.127203
H	 0.5669684215	 1.9500409419	 1.0324244167	 0.125835
H	-1.0959376561	 0.3059602295	 0.1349275609	 0.088222
H	-0.5613385094	-1.1975563237	-1.7277977331	 0.129783
H	 0.9704951886	-0.3272988232	-1.9818906661	 0.115383
H	 2.8062690661	-2.2125600637	-1.338009197	 0.125119
H	 2.9177282367	-0.7145152481	-0.4162620729	 0.110923
H	 3.1375831549	-2.0337643416	 1.5802394539	 0.228261
H	 2.9990953325	-3.4186958679	 0.7271512683	 0.248843
H	 1.1811430989	-0.6197335389	 1.5771104445	 0.209885
71.4029	107.1632	151.0117	167.5225	217.9349	250.3033	286.9332	334.4447	357.0384	389.5062	436.4005	536.7697	576.0433	646.0356	696.2105	784.4067	845.6949	856.9831	880.814	919.8209	940.1743	962.9055	1046.999	1070.9905	1106.9508	1134.8178	1147.0348	1167.7017	1190.6438	1249.9314	1276.5109	1308.6438	1344.5891	1370.1937	1393.764	1405.1444	1415.2102	1472.248	1484.4939	1491.9903	1494.5821	1665.0804	2347.1001	3026.454	3031.0341	3032.4464	3076.5225	3078.5311	3096.6939	3102.101	3143.2925	3490.7327	3507.4031	3572.3328
CC1CC(CN)(N1)C#N	C[C@H]1C[C@@](CN)(N1)C#N	
InChI=1S/C6H11N3/c1-5-2-6(3-7,4-8)9-5/h5,9H,2-3,7H2,1H3	InChI=1S/C6H11N3/c1-5-2-6(3-7,4-8)9-5/h5,9H,2-3,7H2,1H3/t5-,6-/m0/s1
