15
gdb 35659	4.15866	0.93311	0.80064	3.5762	78.92	-0.2859	-0.064	0.2219	1345.8404	0.114271	-379.716866	-379.708908	-379.707964	-379.749948	28.796	
N	-0.1694966203	-1.1578968969	-0.1959248159	-0.31268
C	-0.0990126571	-0.0070760583	-0.1205529266	 0.267814
C	-0.0124831238	 1.4499800764	-0.019051516	-0.177817
C	-0.6273068794	 2.0213302195	 1.2963091743	-0.235458
C	 0.2450947521	 3.2484272074	 1.6458485855	-0.320105
C	 1.5414097593	 2.9614450701	 0.9080011741	 0.1954
C	 1.4091536866	 1.9793382337	 0.0095285052	-0.150298
C	 2.729267693	 3.709105179	 1.1366966236	 0.21078
N	 3.6784553458	 4.3374372975	 1.349489422	-0.32168
H	-0.528494678	 1.863831638	-0.8980573767	 0.146851
H	-1.6849036789	 2.2627962666	 1.1813578962	 0.130217
H	-0.5390950243	 1.2675367286	 2.0820710703	 0.143495
H	-0.1926426936	 4.186261163	 1.282336342	 0.136206
H	 0.3946149186	 3.365457909	 2.7224238705	 0.140139
H	 2.1828256	 1.6188821564	-0.6556116087	 0.147136
80.4784	123.213	141.4716	197.8563	257.7022	382.949	468.4862	527.3377	533.4182	560.9921	586.3074	641.7254	835.6703	854.703	900.6725	907.3567	974.2608	1015.74	1031.008	1075.5599	1152.873	1178.2213	1233.8152	1268.9843	1280.9673	1300.6348	1333.6754	1359.8601	1485.7838	1500.9075	1680.7224	2342.9654	2362.0315	3002.1522	3038.5044	3079.7055	3095.7151	3134.4106	3230.4566
N#CC1CCC(=C1)C#N	N#C[C@H]1CCC(=C1)C#N	
InChI=1S/C7H6N2/c8-4-6-1-2-7(3-6)5-9/h3,6H,1-2H2	InChI=1S/C7H6N2/c8-4-6-1-2-7(3-6)5-9/h3,6H,1-2H2/t6-/m0/s1
