16
gdb 90644	3.98492	1.11496	1.02645	4.5179	70.42	-0.2608	0.0019	0.2627	1175.2369	0.12273	-437.848382	-437.840037	-437.839093	-437.881108	31.359	
C	-0.0596421124	 1.3885799648	-0.1231750916	-0.406132
C	 0.0025925142	-0.0995614838	 0.1353442407	 0.104357
O	 0.9694249059	-0.7543495823	-0.7708304799	-0.315433
C	 1.8015594593	-1.0759877741	 0.3343318872	 0.014815
C	 0.8216842145	-0.5384471978	 1.3483117686	-0.196483
C	 1.0493094645	-2.0498338904	 1.2194350209	 0.26539
O	 0.0872014166	-2.8945871792	 0.6802102429	-0.463612
C	 1.8135039145	-2.6382307582	 2.2935660911	 0.257837
N	 2.4407800307	-3.0831467921	 3.1571881221	-0.332926
H	 0.9281345853	 1.846614084	-0.0219838518	 0.131976
H	-0.4312674457	 1.5778910512	-1.1342255716	 0.138109
H	-0.7423788281	 1.8640924671	 0.5890271118	 0.129616
H	-0.9812060817	-0.5706560173	 0.0434087479	 0.105946
H	 2.8776344319	-1.0376525086	 0.2136290243	 0.13287
H	 0.9637465433	 0.0063013897	 2.2715768377	 0.128867
H	 0.145652357	-2.7884772431	-0.2801050302	 0.304803
120.3776	140.0035	180.61	233.5185	244.6938	309.7341	348.0647	406.8366	467.2644	521.9426	563.3643	622.6602	721.196	781.3129	827.6174	861.0467	911.7942	927.919	1010.9766	1039.4743	1045.0665	1077.8232	1091.0083	1126.5352	1155.4841	1217.4687	1244.1677	1294.9858	1362.7064	1382.478	1398.9674	1410.4667	1484.9192	1491.052	2354.6441	3040.7594	3064.4999	3114.258	3126.2256	3189.4466	3214.5175	3744.2905
CC1OC2C1C2(O)C#N	C[C@H]1O[C@H]2[C@@H]1[C@]2(O)C#N	
InChI=1S/C6H7NO2/c1-3-4-5(9-3)6(4,8)2-7/h3-5,8H,1H3	InChI=1S/C6H7NO2/c1-3-4-5(9-3)6(4,8)2-7/h3-5,8H,1H3/t3-,4-,5+,6-/m1/s1
