15
gdb 128277	5.05633	1.0745	0.89164	1.4379	74.06	-0.2138	-0.0602	0.1536	1243.7622	0.113612	-450.1487	-450.140527	-450.139583	-450.181788	29.672	
C	-0.0315001088	 1.4477322368	-0.0416883339	-0.310256
N	-0.0682817835	 0.0040566379	 0.0641015915	-0.34426
C	-1.2273234318	-0.7075143996	 0.0409875543	 0.490706
N	-1.1013566646	-2.0578962239	-0.02462414	-0.298733
C	-2.2267370984	-2.7314372103	-0.006054123	-0.063059
C	-3.457735462	-2.0541505078	 0.0777882742	 0.411017
O	-4.6107110008	-2.7556331177	 0.1051430857	-0.421385
N	-3.5125571777	-0.7391676775	 0.120605283	-0.275178
N	-2.3823687338	-0.0325055932	 0.0964171464	-0.285657
H	 1.0036982599	 1.7773116162	 0.0674907403	 0.122711
H	-0.4221430516	 1.808661524	-1.0021454475	 0.130049
H	-0.6327903775	 1.9013691093	 0.7502818732	 0.151836
H	 0.7591217231	-0.5282738636	-0.1451336059	 0.254438
H	-2.187749859	-3.8166922527	-0.0607930821	 0.134718
H	-5.3240670533	-2.103086528	 0.1562436037	 0.303054
84.0689	99.3997	150.3095	198.0978	360.1315	376.994	412.3092	431.6519	480.5727	487.4178	581.1096	593.807	665.9843	805.0333	825.5679	868.3751	968.6956	1046.5257	1097.3956	1148.3943	1158.6424	1186.4166	1222.0211	1289.9463	1380.2535	1392.3992	1447.793	1475.9314	1488.4755	1516.5366	1568.6074	1593.6157	1642.8105	3018.3365	3091.5444	3134.3941	3162.264	3663.028	3754.9783
CNC1=NC=C(O)N=N1	CNc1ncc(O)nn1	
InChI=1S/C4H6N4O/c1-5-4-6-2-3(9)7-8-4/h2H,1H3,(H,7,9)(H,5,6,8)	InChI=1S/C4H6N4O/c1-5-4-6-2-3(9)7-8-4/h2H,1H3,(H,7,9)(H,5,6,8)
