21
gdb 116890	5.53513	0.47398	0.45211	0.9244	85.61	-0.2508	0.04	0.2909	2434.2433	0.179365	-424.195005	-424.183447	-424.182503	-424.234189	39.614	
C	 0.0085110039	 1.5604198513	 0.0689117623	-0.385684
C	-0.0238634842	 0.0322171106	 0.1157214155	-0.169335
C	-1.4396153624	-0.5347829363	-0.1129013663	-0.050785
O	-1.990377245	-0.0988246844	-1.3573261558	-0.417399
C	-1.4557023295	-1.9956549338	 0.003047454	 0.053956
C	-1.4311903604	-3.1995511443	 0.0571860385	 0.063098
C	-1.4465883804	-4.6540347859	 0.1401092915	-0.327921
C	-2.8388378314	-5.2132423216	 0.4543553312	-0.062938
O	-2.7135520725	-6.6239692717	 0.5046819166	-0.415173
H	 1.0298997236	 1.9351039139	 0.1832223696	 0.109266
H	-0.390435287	 1.9241181807	-0.881236082	 0.131395
H	-0.598087505	 1.9927661411	 0.872649717	 0.113568
H	 0.6416709853	-0.389993664	-0.6482447402	 0.095094
H	 0.3422358196	-0.3348583885	 1.0815141899	 0.105677
H	-2.1094679639	-0.1058106224	 0.6440651804	 0.110534
H	-1.561026796	-0.6110171018	-2.0516596045	 0.281409
H	-1.1012646376	-5.0951678208	-0.8029714211	 0.137229
H	-0.7506833677	-5.0000799636	 0.9141671271	 0.138868
H	-3.1906116546	-4.7995594864	 1.4111203698	 0.099147
H	-3.5453405622	-4.8927583197	-0.3255811586	 0.100222
H	-3.5775508228	-6.9974835325	 0.7002315652	 0.289773
11.9373	60.9059	69.693	106.8619	138.6755	170.73	222.2679	239.6064	275.008	289.5241	326.0544	353.2937	433.3026	494.1363	524.0003	580.3454	766.535	792.6434	816.9386	899.1898	976.0602	1000.973	1058.4062	1080.8508	1086.9787	1094.2561	1112.9461	1168.305	1221.3942	1238.0479	1251.0386	1292.1282	1304.0022	1326.0185	1331.9326	1373.6451	1404.9939	1420.4723	1454.7856	1475.6112	1479.8931	1494.6355	1509.1189	1527.7016	2359.7988	2984.4225	3015.3623	3018.5984	3029.8663	3030.1103	3036.9642	3067.0031	3067.9648	3102.2456	3125.4376	3803.3016	3835.1724
CCC(O)C#CCCO	CC[C@@H](O)C#CCCO	
InChI=1S/C7H12O2/c1-2-7(9)5-3-4-6-8/h7-9H,2,4,6H2,1H3	InChI=1S/C7H12O2/c1-2-7(9)5-3-4-6-8/h7-9H,2,4,6H2,1H3/t7-/m1/s1
