18
gdb 60915	3.8822	1.07648	0.86476	3.402	77.33	-0.228	-0.0084	0.2196	1313.355	0.149648	-435.307444	-435.298631	-435.297687	-435.34151	31.343	
C	-0.2731919688	 1.4300900706	-0.0320710673	-0.339836
N	-0.069056954	-0.0189006377	-0.0106572169	-0.179911
C	 0.1359026871	-0.6589428024	 1.195750746	 0.14758
O	 0.0674760353	-0.1217065167	 2.2769477059	-0.323448
C	 0.025734858	-0.6772481407	-1.2328866121	 0.495477
N	 0.1252805591	-0.0508073723	-2.3421028942	-0.336462
C	 0.2214926346	-1.0729093116	-3.3898989992	-0.160481
C	-0.0949001716	-2.4279983983	-2.6963373559	-0.186519
N	 0.0504523474	-2.0775979319	-1.2702470987	-0.371565
H	 0.5764612198	 1.923621485	-0.5087925157	 0.151556
H	-1.172561055	 1.6690094167	-0.6025950249	 0.142894
H	-0.3744485302	 1.7558351663	 1.0015360381	 0.162207
H	 0.3895596295	-1.7235928882	 1.070981338	 0.100245
H	-0.4642419573	-0.852329191	-4.2136481787	 0.112234
H	 1.2364166479	-1.06935399	-3.8070327025	 0.115209
H	-1.1150815547	-2.7672966796	-2.9149508581	 0.108759
H	 0.597709176	-3.2257020591	-2.9762261543	 0.118455
H	-0.5885432532	-2.5471648492	-0.6433012594	 0.243606
78.0124	108.2614	123.6213	147.5676	195.7995	291.4231	322.3921	351.6357	453.6532	481.398	584.6771	702.0106	785.1184	803.9668	856.0974	913.7052	952.4251	1003.0245	1033.2773	1054.1497	1073.5937	1115.0349	1158.6479	1165.8515	1211.9648	1247.391	1317.1792	1321.6623	1355.2294	1378.1302	1434.6524	1447.4561	1487.1413	1490.0615	1505.8811	1510.7892	1532.0657	1708.2018	1803.7177	3011.0296	3022.5585	3025.1769	3066.9929	3069.922	3091.0278	3133.2446	3180.9592	3580.1109
CN(C=O)C1=NCCN1	CN(C=O)[C]1[N]CCN1	
InChI=1S/C5H9N3O/c1-8(4-9)5-6-2-3-7-5/h4H,2-3H2,1H3,(H,6,7)	InChI=1S/C5H9N3O/c1-8(4-9)5-6-2-3-7-5/h4H,2-3H2,1H3,(H,6,7)
