15
gdb 28558	2.40928	1.81153	1.04132	2.4092	70.58	-0.1967	-0.0313	0.1653	1070.4505	0.11449	-450.180802	-450.172536	-450.171591	-450.213478	30.785	
N	 0.1614423571	 1.4128782963	 0.0284613003	-0.613441
C	-0.0139055804	 0.0183052067	-0.0241227699	 0.218109
C	-1.069254577	-0.830205868	 0.0126232197	-0.126131
N	-0.6723146826	-2.1650731594	-0.0018850617	-0.351965
C	 0.6306514376	-2.1395552912	-0.0623395939	 0.455675
N	 1.4625184591	-3.2107727096	-0.1833505733	-0.592658
N	 1.1312801616	-0.8316840804	-0.063649996	-0.129887
C	 2.4501534719	-0.4367251113	 0.030152548	 0.176703
O	 3.3908497105	-1.2013879755	 0.0701067246	-0.326931
H	 0.0402040459	 1.8643687615	-0.8726471248	 0.251277
H	-0.4695429467	 1.8477378964	 0.6898081559	 0.254405
H	-2.116190774	-0.5678276704	 0.0538611315	 0.108981
H	 1.0496897031	-4.0944129835	 0.0685631919	 0.26518
H	 2.4310054303	-3.0498451578	 0.0547232743	 0.281364
H	 2.5432140537	 0.6580689063	 0.0748203934	 0.129319
106.3159	142.6694	205.2984	241.5244	263.1046	316.0709	356.2512	431.4603	460.0062	534.5906	569.5591	615.1243	642.9792	745.0523	752.7258	797.4978	822.1061	860.1091	1052.5866	1056.8056	1106.9997	1189.0953	1205.3171	1285.6153	1319.366	1341.8927	1412.6039	1444.0844	1576.5776	1636.8383	1665.4068	1670.6306	1789.3689	3043.8647	3243.8763	3501.2881	3560.0782	3592.1991	3698.1992
NC1=CN=C(N)N1C=O	Nc1cnc(N)n1C=O	
InChI=1S/C4H6N4O/c5-3-1-7-4(6)8(3)2-9/h1-2H,5H2,(H2,6,7)	InChI=1S/C4H6N4O/c5-3-1-7-4(6)8(3)2-9/h1-2H,5H2,(H2,6,7)
