18
gdb 48915	2.57816	1.81328	1.42836	2.0312	75.91	-0.2459	-0.0399	0.2059	966.1465	0.148898	-401.897989	-401.890672	-401.889727	-401.930334	28.354	
O	-0.7092722204	 0.9859564054	-0.5909587097	-0.245943
C	 0.1336603242	 1.1123780058	 0.2623369002	 0.029663
C	 1.3826435157	 1.9135898729	 0.0881689552	 0.261555
C	 2.8483173972	 1.4261431715	 0.1888374184	-0.282484
C	 2.878342092	 2.9564444947	 0.0411354897	-0.028338
C	 1.7618112307	 2.9067539797	-1.049841352	-0.050644
C	 0.8961276941	 4.1474479693	-0.8802885144	-0.262698
C	 0.9187899954	 4.2086276954	 0.6732947579	-0.173764
N	 1.7480333855	 3.0410180662	 1.071686204	-0.161633
H	 0.0326451712	 0.6295264315	 1.2603149211	 0.087213
H	 3.1544417482	 1.0324894969	 1.1586232883	 0.114394
H	 3.2200356909	 0.8354819608	-0.649358899	 0.107377
H	 3.7351034164	 3.6310724787	 0.0951424799	 0.084116
H	 1.9779663275	 2.5362536372	-2.0531473213	 0.077764
H	 1.337070738	 5.0313632504	-1.3507648981	 0.101469
H	-0.1079310767	 4.0086552543	-1.28932339	 0.121034
H	 1.3841710207	 5.1186864411	 1.0624060517	 0.109141
H	-0.0738805505	 4.119396638	 1.1234630481	 0.111779
45.9797	152.2659	207.4479	271.4384	399.7673	418.095	478.3439	675.0271	692.6782	732.1996	763.8763	819.6712	837.0699	881.7944	916.5229	935.1907	951.1675	987.3598	1004.8407	1025.6816	1037.7005	1071.3747	1085.552	1110.7966	1146.6798	1185.4487	1199.746	1221.7649	1243.1588	1252.3172	1268.312	1287.3615	1327.3656	1353.2238	1411.6276	1489.7079	1496.5272	1507.6804	1815.6827	2883.2838	3054.4294	3062.4647	3080.1268	3094.3164	3095.1883	3110.8032	3113.0729	3156.48
O=CC12CC3C1CCN23	O=C[C@@]12C[C@H]3[C@@H]1CCN23	
InChI=1S/C7H9NO/c9-4-7-3-6-5(7)1-2-8(6)7/h4-6H,1-3H2	InChI=1S/C7H9NO/c9-4-7-3-6-5(7)1-2-8(6)7/h4-6H,1-3H2/t5-,6-,7-/m0/s1
