16
gdb 18768	4.03931	2.21479	1.72353	1.0889	63.98	-0.2456	0.0622	0.3077	767.0006	0.131672	-383.669018	-383.662814	-383.66187	-383.699231	24.394	
O	-0.0516830309	 1.3895395411	 0.1005314918	-0.296779
C	 1.39149941	 1.538228084	 0.0402090996	-0.18853
C	 1.5602140704	 0.0374312596	 0.1796284901	 0.2577
C	 2.5345368376	-1.0645669451	-0.1899442325	-0.188527
O	 2.0863177239	-1.8521741348	 0.9446480403	-0.296781
C	 1.3501645094	-0.7362303325	 1.5078644057	 0.083711
C	-0.1790390368	-0.8235262689	 1.2784561576	-0.262044
C	 0.0281570149	-0.0513014274	-0.0479902947	 0.083714
H	 1.7097664708	 1.9506110905	-0.9278337332	 0.104121
H	 1.7825048581	 2.1713080542	 0.8455143238	 0.109083
H	 2.3814799037	-1.5798297591	-1.1455957992	 0.109083
H	 3.5956687828	-0.7941377946	-0.093362621	 0.10412
H	 1.7424384082	-0.4330802035	 2.4834894929	 0.076003
H	-0.5387587926	-1.8501631591	 1.1752177221	 0.114561
H	-0.7956940934	-0.2801778348	 1.9985612491	 0.114561
H	-0.454165536	-0.3990690697	-0.9667101325	 0.076004
135.1281	235.9035	314.222	343.9373	421.3199	499.5841	698.6368	717.5593	799.8776	854.4816	866.1109	903.8413	964.2445	973.3889	978.9419	1005.0562	1030.9013	1051.4961	1113.9442	1124.6204	1152.2676	1169.589	1183.887	1194.8317	1254.4675	1265.4234	1267.9686	1299.7377	1321.3461	1357.1017	1395.7957	1440.5955	1519.0656	1522.0446	2996.9897	3000.7845	3053.7397	3055.0012	3056.8786	3058.3459	3069.9592	3128.4932
O1CC23COC2CC13	O1C[C@@]23CO[C@@H]2C[C@@H]13	
InChI=1S/C6H8O2/c1-4-6(2-7-4)3-8-5(1)6/h4-5H,1-3H2	InChI=1S/C6H8O2/c1-4-6(2-7-4)3-8-5(1)6/h4-5H,1-3H2/t4-,5-,6+/m1/s1
