19
gdb 38290	3.71875	1.67513	1.64324	2.1627	76.62	-0.228	0.0849	0.3129	896.8148	0.16296	-385.799959	-385.794109	-385.793165	-385.829735	26.327	
C	-0.0345300797	 1.5593962072	 0.0168796518	-0.223596
C	 1.5168493863	 1.4093387211	 0.0510520133	-0.046763
C	 1.2576417923	 0.1447666753	 0.9251984982	-0.223596
C	-0.030607363	 0.0009778395	 0.0590573682	-0.046763
C	 0.392514754	-0.5123218238	-1.3422966402	-0.017502
C	 0.8441693411	 0.5803902781	-2.3620894307	 0.029841
O	 1.7202974933	-0.386086557	-3.0346004898	-0.318525
C	 1.9296954705	-0.6080051996	-1.5990341629	 0.029841
C	 1.9802161444	 0.9326675875	-1.3505100838	-0.017502
H	-0.4199843888	 1.9881976481	 0.9454975811	 0.094552
H	-0.4970729794	 2.0627780024	-0.8354820384	 0.095194
H	 2.127820315	 2.2220299942	 0.4475840194	 0.060628
H	 1.9930199505	-0.6633004887	 0.9149036655	 0.095194
H	 1.0223235186	 0.4092057623	 1.9593523918	 0.094552
H	-0.8948168963	-0.5289149108	 0.4632181112	 0.060628
H	-0.2013933547	-1.3250695017	-1.7631864901	 0.075575
H	 0.2456066205	 1.2344612015	-2.9972546966	 0.091334
H	 2.6392162464	-1.3859858187	-1.3146970624	 0.091334
H	 2.8427398791	 1.4454449031	-1.7789328655	 0.075575
292.1376	310.7108	438.4371	457.9432	509.8095	571.041	621.446	757.1761	812.976	827.2925	831.027	837.225	882.8729	895.5843	903.6898	904.015	940.054	983.6892	994.6905	1004.124	1013.5735	1072.9167	1079.3009	1099.052	1110.0391	1122.4577	1150.2997	1162.0273	1179.0238	1198.708	1237.8391	1239.3019	1249.8983	1259.1492	1274.4982	1310.6656	1326.4515	1329.7596	1381.5198	1491.1295	1521.6269	3055.1748	3059.1928	3086.1065	3087.3835	3100.553	3101.781	3107.6589	3112.8747	3115.0677	3120.3093
C1C2CC1C1C3OC1C23	C1[C@H]2C[C@@H]1[C@H]1[C@@H]3O[C@H]1[C@H]23	
InChI=1S/C8H10O/c1-3-2-4(1)6-7-5(3)8(6)9-7/h3-8H,1-2H2	InChI=1S/C8H10O/c1-3-2-4(1)6-7-5(3)8(6)9-7/h3-8H,1-2H2/t3-,4+,5-,6+,7-,8+
