16
gdb 40399	4.12685	1.26201	1.15111	1.8204	67.78	-0.2265	0.0484	0.2749	1068.7271	0.123181	-437.744817	-437.7375	-437.736556	-437.777273	28.172	
C	-0.4202542442	 1.2724248603	-0.5172490322	-0.163742
O	 0.7367971472	 1.5105132333	 0.2842535901	-0.229525
C	 0.2506960107	 0.1660948277	 0.1736502128	-0.080224
C	-0.2914026431	-0.4256887752	 1.4169341652	 0.453032
O	-1.3363922746	-1.3973308327	 1.3341785257	-0.25617
C	-1.5346684996	-0.2576820538	 2.1723610497	-0.066766
C	-0.7572925176	-0.4734036649	 3.5210773459	-0.090081
N	-0.1095815887	-1.8054469797	 3.4637943018	-0.314197
C	 0.5000282196	-0.6513974989	 2.7657376091	-0.155585
H	-1.3544216166	 1.6634738979	-0.1192297911	 0.117601
H	-0.280653937	 1.3923035366	-1.5902090712	 0.121391
H	 0.8962815454	-0.4922074611	-0.4098233252	 0.106145
H	-2.4115516159	 0.3559531032	 2.0042838353	 0.111702
H	-0.9449887536	 0.0452856765	 4.4510626563	 0.103364
H	 0.4008786044	-1.9159809675	 4.3409192873	 0.234158
H	 1.4979699937	-0.2922951216	 2.9768483506	 0.108897
48.2548	139.7856	172.3555	316.7203	407.3105	453.9174	504.4031	597.8432	666.3068	757.7184	806.6743	813.8775	822.0969	860.721	887.9059	896.4062	917.4184	933.9978	990.7603	1009.9173	1048.3939	1067.1454	1098.6173	1102.0102	1129.9108	1157.8816	1167.9639	1209.7086	1273.095	1283.9289	1297.3206	1343.4368	1415.2959	1492.0542	1525.294	3091.2311	3100.293	3180.893	3190.0129	3207.2894	3219.3967	3464.7626
C1OC1C12OC1C1NC21	C1O[C@H]1[C@]12O[C@H]1[C@H]1N[C@@H]21	
InChI=1S/C6H7NO2/c1-2(8-1)6-4-3(7-4)5(6)9-6/h2-5,7H,1H2	InChI=1S/C6H7NO2/c1-2(8-1)6-4-3(7-4)5(6)9-6/h2-5,7H,1H2/t2-,3+,4-,5+,6-/m1/s1
