17
gdb 45856	2.67642	1.75028	1.17379	3.8472	74.83	-0.2214	-0.0234	0.198	1033.4261	0.137106	-418.021347	-418.013464	-418.01252	-418.054335	30.014	
O	-0.0773459273	 0.3785557774	 1.0498942428	-0.332397
C	-0.0433364048	 1.3384917444	 0.3118115775	 0.335425
C	-1.2870965395	 1.8801405054	-0.3822880535	-0.26646
N	-1.2612544473	 3.2738936855	-0.8001027383	-0.262431
C	-0.1177054834	 3.7923964195	-1.0108034873	 0.073723
N	 1.1101756631	 3.188888108	-0.8526128955	-0.385669
C	 1.2421366875	 2.059297122	 0.0330461434	 0.264572
C	 2.2450405507	 2.0975537665	 1.1773111632	-0.292083
C	 2.5047222663	 1.2236087838	-0.0125385743	-0.295979
H	-1.4514908855	 1.2429767999	-1.2673907402	 0.138367
H	-2.1417595489	 1.6963183131	 0.2762444702	 0.138388
H	-0.061585206	 4.8130425765	-1.391391474	 0.112206
H	 1.9157967924	 3.7918046453	-0.9251622691	 0.241709
H	 2.8224959135	 3.0099374658	 1.2859163195	 0.11545
H	 1.9376047751	 1.6205183992	 2.1007404417	 0.148161
H	 2.3764412764	 0.1541062105	 0.1058292804	 0.147691
H	 3.2611873977	 1.5308517771	-0.7270544467	 0.119327
55.2841	73.1463	253.6831	273.6376	345.1994	395.251	463.7775	501.7256	514.9376	550.8197	614.1403	654.8278	776.0548	831.0149	838.198	928.5923	937.7443	959.2869	988.6954	1001.9488	1023.503	1063.0436	1086.1764	1132.9339	1166.2778	1202.5809	1236.6529	1294.2152	1311.5739	1356.3621	1418.6639	1446.299	1447.7596	1476.946	1506.5133	1739.567	1799.1516	2977.7217	3076.6673	3124.739	3131.6553	3136.1377	3224.5003	3238.4785	3606.5435
O=C1CN=CNC11CC1	O=C1CN=CNC21CC2	
InChI=1S/C6H8N2O/c9-5-3-7-4-8-6(5)1-2-6/h4H,1-3H2,(H,7,8)	InChI=1S/C6H8N2O/c9-5-3-7-4-8-6(5)1-2-6/h4H,1-3H2,(H,7,8)
