16
gdb 64891	2.0286	1.70553	1.10306	6.105	75.02	-0.2863	-0.0013	0.285	1106.9952	0.123568	-396.939561	-396.930331	-396.929387	-396.973199	33.709	
C	-0.1150412892	 1.5374928702	-0.0018201666	-0.462474
C	-0.0109422241	 0.0204156356	-0.0143519035	 0.13284
C	 1.3040588996	-0.6444623921	-0.3606735699	-0.329971
C	 0.8342677157	-0.6909754972	 1.075464289	 0.109748
N	 1.528384527	 0.1571996982	 2.0062510616	-0.551983
C	 0.3525844593	-1.9584380384	 1.5895652991	 0.255384
N	 0.0072645981	-2.9537050458	 2.0674819427	-0.336272
C	-1.2111738582	-0.6529120175	-0.4501376463	 0.263113
N	-2.1861995509	-1.1566576686	-0.8142320714	-0.336759
H	 0.7906458756	 1.9707644089	 0.4219884232	 0.152541
H	-0.2513785793	 1.9074220536	-1.021821625	 0.144399
H	-0.9720009129	 1.8620889659	 0.5948061883	 0.142984
H	 1.2814691677	-1.5626583141	-0.9336622188	 0.161336
H	 2.1398055658	 0.0175128582	-0.5559457246	 0.146478
H	 0.9805467801	 0.2920267407	 2.8507414667	 0.254356
H	 2.4091116656	-0.2681345376	 2.2800628655	 0.254281
110.1037	111.4197	178.8502	197.0502	202.8102	262.0262	297.3372	322.5415	401.8499	420.8499	484.3328	565.366	592.9974	628.876	659.8271	717.1016	821.4379	880.4897	926.3341	948.865	993.9448	1085.2002	1104.9348	1132.3083	1224.6425	1279.2202	1291.4587	1353.8242	1409.049	1468.0956	1490.5604	1499.5455	1663.4686	2345.6816	2356.1485	3054.0458	3120.2003	3151.238	3159.2041	3251.6469	3498.6387	3576.4118
CC1(CC1(N)C#N)C#N	C[C@]1(C[C@]1(N)C#N)C#N	
InChI=1S/C6H7N3/c1-5(3-7)2-6(5,9)4-8/h2,9H2,1H3	InChI=1S/C6H7N3/c1-5(3-7)2-6(5,9)4-8/h2,9H2,1H3/t5-,6-/m0/s1
