16
gdb 90315	2.62134	1.7061	1.1931	2.5029	69.64	-0.2464	-0.0394	0.207	1024.5566	0.12412	-437.878663	-437.871014	-437.87007	-437.911014	28.864	
C	-0.2497479966	 1.4973663207	-0.3254716008	-0.393747
C	 0.0114977624	 0.0318727203	-0.0743840922	 0.084611
O	 1.2915336062	-0.4094280558	-0.7273778715	-0.278889
C	 1.8383345376	-0.5251996456	 0.5155189736	 0.420548
N	 2.9846013252	-0.2957096427	 1.0002861052	-0.301816
C	 2.7090741255	-0.0379456207	 2.4328268951	-0.266213
C	 1.1912426732	 0.3614533426	 2.5109644189	 0.352103
O	 0.6714879057	 1.0875460329	 3.3049216912	-0.278896
C	 0.5925839989	-0.4092732746	 1.3090900423	-0.287614
H	 0.5875867201	 2.1108722685	 0.0179996393	 0.142272
H	-0.3999095798	 1.6798372236	-1.392913179	 0.141252
H	-1.150840021	 1.8084853555	 0.2120742801	 0.141115
H	-0.8005872598	-0.6075964811	-0.4254739942	 0.110099
H	 2.8919370156	-0.913216113	 3.0712353593	 0.134724
H	 3.3400348044	 0.7754828242	 2.8019468109	 0.14444
H	 0.1514392626	-1.3410015248	 1.6732918619	 0.13601
88.1894	119.4947	224.1764	242.9656	343.2494	383.1152	430.3184	480.3793	576.7843	633.3485	670.7058	717.5426	765.1174	802.6588	880.6345	943.8372	967.5209	1013.5557	1044.9971	1062.4547	1079.5271	1141.0149	1154.2277	1177.0835	1207.824	1265.3047	1268.2032	1352.747	1364.7493	1416.7436	1466.372	1478.9274	1492.3228	1754.8588	1876.7032	3020.7075	3046.5978	3080.2284	3097.0963	3097.4578	3122.2616	3130.2052
CC1OC2=NCC(=O)C12	C[C@H]1O[C]2[N]CC(=O)[C@@H]12	
InChI=1S/C6H7NO2/c1-3-5-4(8)2-7-6(5)9-3/h3,5H,2H2,1H3	InChI=1S/C6H7NO2/c1-3-5-4(8)2-7-6(5)9-3/h3,5H,2H2,1H3/t3-,5-/m1/s1
