19
gdb 81511	3.11334	1.43385	1.11822	3.6032	81.35	-0.2245	0.0199	0.2444	1114.7693	0.158196	-381.994825	-381.9859	-381.984955	-382.02906	33.342	
C	 0.2571667745	 1.5172852764	 0.0872208408	-0.339273
N	 0.1667078532	 0.0579304258	-0.0097755331	-0.098559
C	-0.9586390305	-0.7749454018	 0.5612528115	-0.07134
C	-0.0128755984	-1.9833417488	 0.32759854	-0.228385
C	 0.8125920618	-0.8525506293	 1.0002338013	-0.0733
C	-0.384134432	-0.6606059005	 2.0333252604	 0.188771
C	-0.6043065444	 0.6092259397	 2.8711012735	-0.486007
C	-0.6125375902	-1.8074322927	 2.9178250134	 0.234754
N	-0.794166934	-2.6853205366	 3.6495919904	-0.351455
H	 0.712902494	 1.8991540935	 1.007311829	 0.1172
H	 0.8677277667	 1.8730095845	-0.7503387919	 0.124286
H	-0.7345133197	 1.9697228444	-0.0203812806	 0.125902
H	-1.9970901655	-0.6437587471	 0.2513540627	 0.093974
H	-0.1968697763	-2.8924546852	 0.8964952088	 0.137852
H	 0.2408622086	-2.159400567	-0.7152351811	 0.114329
H	 1.8808551184	-0.8216158184	 1.222441737	 0.095829
H	-0.8329819637	 1.4810739261	 2.2654991605	 0.135511
H	-1.445739869	 0.4513174218	 3.5513401997	 0.142539
H	 0.2741693165	 0.8294535552	 3.4858845677	 0.137371
28.8656	114.9765	156.7341	184.3251	254.9165	288.8453	348.7077	366.1721	515.8083	521.6173	540.2666	600.5815	681.5027	737.9421	752.2772	796.0726	884.7711	893.2644	914.2307	1023.3137	1029.2226	1066.15	1075.6211	1125.6014	1129.1654	1157.3938	1169.3849	1179.1704	1184.7578	1205.5355	1242.516	1250.5054	1280.1003	1416.7604	1444.8024	1482.2557	1487.8368	1497.4264	1501.992	1533.3626	2336.0041	3014.9946	3053.9313	3067.5431	3093.8463	3100.0884	3100.6236	3111.0781	3116.0553	3189.8138	3191.123
CN1C2CC1C2(C)C#N	CN1[C@H]2C[C@@H]1[C@]2(C)C#N	
InChI=1S/C7H10N2/c1-7(4-8)5-3-6(7)9(5)2/h5-6H,3H2,1-2H3	InChI=1S/C7H10N2/c1-7(4-8)5-3-6(7)9(5)2/h5-6H,3H2,1-2H3/t5-,6+,7+
