14
gdb 84202	3.41308	1.17761	0.91592	1.0468	64.87	-0.2813	-0.0992	0.1821	1201.6095	0.099403	-473.875469	-473.86729	-473.866346	-473.908824	28.607	
C	-0.07971974	 1.5797386624	 0.0316811807	-0.389501
C	 0.0215674429	 0.0511792999	-0.0121126149	-0.128894
N	 0.7899711141	-0.4367290791	-1.1578222319	-0.258697
C	 1.7280026236	-1.138725474	-0.6687994097	 0.307847
O	 1.8013636055	-1.2745364753	 0.7019951743	-0.234433
C	 0.7331091127	-0.5282048068	 1.2116498336	 0.417961
O	 0.5206417713	-0.4260269943	 2.3759501144	-0.307708
C	 2.8041675175	-1.8634510251	-1.4216152271	 0.103612
O	 2.8864429332	-1.8522621957	-2.6186515673	-0.209028
H	 0.9145815996	 2.0336825398	 0.0471690317	 0.137723
H	-0.6118407888	 1.9397061871	-0.8508514013	 0.147165
H	-0.6192311605	 1.884594315	 0.9316179087	 0.149537
H	-0.9894708358	-0.3734922301	-0.059573992	 0.147475
H	 3.5134222047	-2.4078291539	-0.7672956592	 0.116942
88.1338	114.1086	172.692	182.3003	213.8343	238.6687	387.7561	425.8282	529.702	624.5776	670.7292	734.7878	760.8752	812.6127	907.7923	953.6299	1011.1009	1029.4533	1092.907	1127.7874	1150.6065	1225.0973	1290.1386	1301.8726	1402.8729	1424.0362	1486.5387	1496.3892	1693.8967	1836.54	1924.9332	2947.8798	3037.2568	3055.5044	3133.9766	3145.8479
CC1N=C(OC1=O)C=O	C[C@H]1N=C(OC1=O)C=O	
InChI=1S/C5H5NO3/c1-3-5(8)9-4(2-7)6-3/h2-3H,1H3	InChI=1S/C5H5NO3/c1-3-5(8)9-4(2-7)6-3/h2-3H,1H3/t3-/m1/s1
