18
gdb 112683	2.47491	1.3839	1.17165	3.018	68.26	-0.2391	0.0056	0.2447	1131.4275	0.148467	-476.258198	-476.249421	-476.248477	-476.291953	32.106	
C	 0.5126691214	 1.0734145882	-0.3222645946	-0.251024
O	 0.4812410728	-0.325200655	-0.0647836633	-0.234668
C	 0.5193203859	-0.6573955419	 1.2877069245	 0.200544
C	 0.457678005	-2.1814439151	 1.4244557244	-0.258791
C	 1.930864541	-2.5851280431	 1.3391521484	-0.108763
N	 2.3346215235	-2.896703842	-0.0363080175	-0.515688
C	 2.6462606685	-1.3349105179	 1.8780450365	 0.416775
O	 3.7857283456	-1.2226996488	 2.2226850809	-0.342435
O	 1.7775316078	-0.273445122	 1.869397265	-0.233263
H	 1.4487231647	 1.5228707375	 0.0254787575	 0.140815
H	 0.4250097827	 1.1965322394	-1.4029619252	 0.135873
H	-0.3306773511	 1.5799031027	 0.1680837441	 0.116211
H	-0.2491564016	-0.1077929691	 1.8454805888	 0.088209
H	 0.0398482125	-2.4421376293	 2.3997939338	 0.120879
H	-0.152553998	-2.6295543901	 0.640201643	 0.135491
H	 2.1789619206	-3.4384170483	 1.9742353712	 0.107301
H	 2.0811422895	-2.1181389628	-0.640179835	 0.240752
H	 3.3469041693	-2.9853172524	-0.0755787026	 0.24178
88.6153	94.1363	136.3198	197.9336	237.1015	274.5394	341.362	385.7226	415.2298	492.5612	535.845	684.0336	730.2242	787.7038	828.3082	866.4381	917.1741	944.7749	974.6109	1028.245	1037.9083	1105.4666	1137.7924	1153.8003	1180.157	1182.9394	1235.9221	1246.5997	1291.4996	1332.5066	1376.0533	1399.836	1414.4319	1476.3824	1480.2648	1485.9922	1511.2689	1658.0781	1883.1626	3005.7001	3034.8825	3079.007	3082.3392	3091.5646	3138.2302	3145.7159	3478.7471	3562.3869
COC1CC(N)C(=O)O1	CO[C@H]1C[C@@H](N)C(=O)O1	
InChI=1S/C5H9NO3/c1-8-4-2-3(6)5(7)9-4/h3-4H,2,6H2,1H3	InChI=1S/C5H9NO3/c1-8-4-2-3(6)5(7)9-4/h3-4H,2,6H2,1H3/t3-,4-/m1/s1
