12
gdb 130733	3.17314	1.51087	1.02353	1.2435	75.27	-0.2582	-0.0992	0.1591	1046.0347	0.07804	-431.63797	-431.630772	-431.629828	-431.669833	26.669	
O	-0.053456593	-0.0701760544	 0.0044383975	-0.354637
C	 0.0305865615	 1.1368031608	 0.0081637723	 0.398703
N	-1.1223844364	 1.944217832	 0.0278578193	-0.269331
N	-1.2283085631	 3.2780812732	 0.0360423869	-0.024491
N	-0.1546236433	 3.9709005126	 0.0254817938	-0.211493
C	 1.0580302216	 3.3293083793	 0.006652494	-0.027869
C	 1.2332603602	 1.971067785	-0.0024855144	-0.062109
C	 2.5077366224	 1.3605676968	-0.021654626	 0.27564
C	 3.5963253258	 0.8468688808	-0.0380462072	-0.372037
H	-2.0127564539	 1.4602364222	 0.037360248	 0.288228
H	 1.9132852973	 3.9955807353	-0.0008385023	 0.147214
H	 4.5523677409	 0.3835167964	-0.052620642	 0.212181
110.8722	138.0145	193.6433	329.0771	383.9014	458.0434	478.4959	572.493	607.4727	618.8741	639.5313	660.9403	737.4789	773.5575	801.6073	941.299	971.2143	1074.0914	1120.7656	1199.5504	1243.9326	1348.7827	1417.431	1518.5477	1591.3552	1812.2952	2228.7737	3203.889	3498.7858	3580.8482
O=C1NN=NC=C1C#C	O=C1N[N]N=C[C]1C#C	
InChI=1S/C5H3N3O/c1-2-4-3-6-8-7-5(4)9/h1,3H,(H,6,7,9)	InChI=1S/C5H3N3O/c1-2-4-3-6-8-7-5(4)9/h1,3H,(H,6,7,9)
