19
gdb 31958	3.21462	0.98048	0.80911	2.7466	79.69	-0.2109	0.0249	0.2359	1455.003	0.160446	-419.252254	-419.243006	-419.242062	-419.287337	33.395	
C	-0.2013929502	 1.5487846976	 0.1476522509	-0.367985
C	 0.078475928	 0.0404348177	 0.0213555888	-0.30764
C	 0.8235652306	-0.5379414601	 1.1800608557	 0.304377
C	 2.0838294431	-1.0692708196	 1.3001343714	-0.184196
N	 2.3294586314	-1.490643308	 2.5884930687	-0.304388
C	 1.2341556585	-1.2106343407	 3.2583156221	 0.287997
C	 0.9796989804	-1.4405367375	 4.7151506959	-0.17635
O	-0.3698360639	-1.8252457735	 4.9668446149	-0.419856
N	 0.2936590577	-0.6316249628	 2.4530474981	-0.319415
H	 0.7326602802	 2.1104151042	 0.2406255499	 0.128654
H	-0.7403518667	 1.9190466036	-0.7298318844	 0.116383
H	-0.8104188705	 1.7709338337	 1.0303238872	 0.111027
H	-0.8717881917	-0.4925785191	-0.1215590015	 0.105869
H	 0.6688570827	-0.1472448432	-0.8812687069	 0.120104
H	 2.8238622401	-1.1803249271	 0.521152968	 0.101414
H	 1.7096806241	-2.1712359503	 5.0844855059	 0.125222
H	 1.1212411365	-0.5167567358	 5.2888681314	 0.126722
H	-0.5046638482	-2.6859954358	 4.5556672947	 0.287382
H	-0.635148712	-0.3800371635	 2.749720709	 0.264677
40.9634	76.4186	124.7595	147.6354	211.7644	272.7175	326.4544	372.6881	413.4344	471.0019	577.0055	621.4992	685.5701	698.3537	762.2609	783.7218	842.9906	958.365	973.3303	1009.4792	1030.8719	1063.6075	1069.6272	1088.1031	1172.8083	1190.8245	1199.3254	1272.5416	1287.2782	1355.8749	1358.8429	1400.3553	1408.7463	1419.5383	1457.7003	1479.4538	1497.3198	1498.4468	1503.7865	1541.3463	1620.6604	3010.8726	3027.534	3036.1497	3066.0415	3073.3108	3105.1191	3116.2625	3241.1276	3658.1319	3805.4859
CCC1=CN=C(CO)N1	CCc1cnc(CO)[nH]1	
InChI=1S/C6H10N2O/c1-2-5-3-7-6(4-9)8-5/h3,9H,2,4H2,1H3,(H,7,8)	InChI=1S/C6H10N2O/c1-2-5-3-7-6(4-9)8-5/h3,9H,2,4H2,1H3,(H,7,8)
