16
gdb 13222	8.96346	0.7987	0.76976	1.4054	89.06	-0.2373	-0.0116	0.2257	1455.1814	0.1298	-309.407303	-309.399269	-309.398325	-309.440049	29.656	
C	-0.284868511	-3.8806305018	-0.4000469339	-0.57159
C	-0.1800920729	-2.6852846194	-0.260307673	 0.295879
C	-0.0622738778	-1.3394059549	-0.1036458191	-0.238325
C	 0.0436678513	-0.1404181679	 0.0373245237	 0.397442
C	 0.1846750491	 1.2840150978	 0.2220872851	-0.196097
C	-0.0196465595	 1.89485879	 1.6501644677	-0.214178
C	 1.1514109086	 2.8684766658	 1.3567347277	-0.216978
C	 1.6173419549	 1.9178566998	 0.2233173503	-0.214177
H	-0.3778131836	-4.9308822504	-0.5226357266	 0.187842
H	-0.4493523772	 1.8157278018	-0.4967451306	 0.108054
H	-1.0032418671	 2.3138289166	 1.8709913766	 0.107672
H	 0.2384580532	 1.165641674	 2.4216321782	 0.117711
H	 0.7944568496	 3.8242050273	 0.9626135362	 0.106868
H	 1.8549343888	 3.0675956835	 2.167091573	 0.104491
H	 2.3579246271	 1.1954085987	 0.5742338914	 0.117712
H	 1.9635562566	 2.3555143291	-0.7149526268	 0.107673
77.1784	85.3683	163.878	231.6468	266.4223	435.4654	471.3469	513.4599	538.9996	558.3087	589.7918	599.5757	716.6363	787.2863	854.6393	907.3723	935.6278	938.7846	997.1873	1016.8236	1117.1858	1200.968	1203.1502	1234.2771	1240.0332	1254.7019	1274.9596	1278.1747	1356.8593	1478.1105	1487.6817	1508.2805	2178.7734	2354.4442	3038.069	3063.2251	3068.6159	3072.6459	3111.8909	3126.0082	3135.2345	3506.371
C#CC#CC1CCC1	C#CC#CC1CCC1	
InChI=1S/C8H8/c1-2-3-5-8-6-4-7-8/h1,8H,4,6-7H2	InChI=1S/C8H8/c1-2-3-5-8-6-4-7-8/h1,8H,4,6-7H2
