17
gdb 29182	3.04306	1.37968	0.95662	4.5285	82.87	-0.1898	-0.0356	0.1542	1193.6631	0.136919	-418.041191	-418.032825	-418.031881	-418.073833	32.218	
C	-0.069668807	 1.527688843	 0.0052327544	-0.501888
C	-0.0145517863	 0.0264146863	-0.0204054563	 0.294847
C	-0.0131632304	-0.6769546808	-1.1743520668	-0.243741
C	 0.0171991011	-2.1242784721	-1.2149139081	 0.37861
N	 0.0180708297	-2.7975923238	-2.2957062367	-0.549187
O	 0.0405044404	-2.7614501652	 0.0190268581	-0.244086
C	 0.0697542197	-2.0523802304	 1.1789215735	-0.001769
C	 0.0285893034	-0.7068729873	 1.2372524209	 0.103087
N	-0.0677210844	 0.0063577765	 2.4526646902	-0.587304
H	 0.8445415549	 1.9553879691	 0.4376088518	 0.128249
H	-0.1814380871	 1.933294639	-1.0021068394	 0.135514
H	-0.9042367974	 1.8741551869	 0.62382534	 0.151309
H	-0.0441213197	-0.1870574443	-2.1397999957	 0.11668
H	 0.0394101093	-3.7972333475	-2.0927323866	 0.214922
H	 0.1041534017	-2.7044596647	 2.0434500526	 0.116656
H	 0.0324323547	-0.595594392	 3.2609717749	 0.242536
H	 0.6084730872	 0.7583388673	 2.5219407232	 0.245567
98.4949	172.0577	204.9374	252.5929	291.8409	341.4602	351.381	379.7297	431.2433	525.7058	559.7731	614.8088	715.8744	741.6639	756.3352	793.0137	831.6966	834.1035	859.9379	901.9936	1019.1926	1064.0544	1088.8873	1126.1123	1178.7033	1210.7344	1280.9038	1299.8062	1369.5505	1408.9973	1457.3989	1476.7281	1490.3698	1617.083	1652.0229	1693.1747	1743.7916	3021.8512	3081.1631	3132.0691	3204.9782	3211.2821	3488.1922	3516.9304	3607.7322
CC1=CC(=N)OC=C1N	C[C@@H]1C=C([NH])OC=C1N	
InChI=1S/C6H8N2O/c1-4-2-6(8)9-3-5(4)7/h2-3,8H,7H2,1H3	InChI=1S/C6H9N2O/c1-4-2-6(8)9-3-5(4)7/h2-4,8H,7H2,1H3/t4-/m1/s1
