20
gdb 107786	2.55332	1.59653	1.26417	2.8326	77.8	-0.2309	0.0583	0.2892	1071.0967	0.170974	-403.07419	-403.065703	-403.064759	-403.107126	32.782	
C	 0.0265630545	 1.6101653725	 0.0114535207	-0.429138
C	 0.0789723181	 0.0882477353	 0.0461067123	-0.004311
C	 1.0743321829	-0.7091945663	-0.7994530764	-0.054795
C	 1.1978699837	-1.7661363789	 0.2276746742	-0.130134
N	 2.3737104891	-0.8944154756	-0.0498846394	-0.15474
C	 2.1552664654	-0.2145294363	 1.2700106049	-0.182849
C	 0.6896482182	-0.6844100951	 1.2634127419	 0.307425
C	-0.1021146004	-0.9115629417	 2.5188622105	-0.221678
O	-0.3227821285	 0.3591451939	 3.1215429613	-0.419461
H	 1.018778914	 2.0622360453	 0.0906947218	 0.119679
H	-0.4153721242	 1.9563228293	-0.9295037559	 0.109927
H	-0.5842918718	 1.9872605008	 0.8368049507	 0.132621
H	-0.9214803457	-0.3224667274	-0.1383140657	 0.072033
H	 1.1404480935	-0.794273099	-1.876747725	 0.091894
H	 1.2097210436	-2.8478702921	 0.1936293274	 0.093238
H	 2.7579037405	-0.7327575586	 2.0216549078	 0.101666
H	 2.373664338	 0.8570286544	 1.2993884196	 0.102597
H	-1.0551596913	-1.4096789263	 2.2753473575	 0.087416
H	 0.454180701	-1.5816823159	 3.1950306209	 0.087811
H	-0.8214862305	 0.2260820817	 3.9330227809	 0.290799
82.5772	141.8018	183.4137	241.068	250.5703	291.6547	324.9134	373.7586	488.4056	567.402	666.316	685.9349	756.7388	795.8571	821.8053	872.1131	912.8549	946.0413	959.264	984.0957	1012.0617	1022.7771	1063.8785	1076.3867	1096.4355	1133.2838	1146.503	1166.0337	1171.875	1198.5473	1225.3856	1248.0165	1272.7484	1285.6037	1326.5825	1348.847	1395.8545	1408.8934	1467.9431	1491.8865	1498.763	1515.2278	1521.6723	2957.0774	2983.8657	3030.374	3037.8629	3049.8245	3099.4216	3104.9797	3121.9525	3189.6006	3203.7189	3828.462
CC1C2C3N2CC13CO	C[C@H]1[C@@H]2[C@H]3N2C[C@@]13CO	
InChI=1S/C7H11NO/c1-4-5-6-7(4,3-9)2-8(5)6/h4-6,9H,2-3H2,1H3	InChI=1S/C7H11NO/c1-4-5-6-7(4,3-9)2-8(5)6/h4-6,9H,2-3H2,1H3/t4-,5+,6+,7+,8?/m0/s1
