18
gdb 48266	2.20711	1.07198	0.79314	2.6159	76.98	-0.2776	-0.0507	0.2269	1441.2823	0.145933	-401.956776	-401.947356	-401.946412	-401.992439	33.04	
O	-0.5917175321	 0.8375701086	-0.7870642354	-0.22448
C	 0.1287300751	 1.0720909561	 0.1423534309	 0.154926
C	 1.3147399386	 2.051214327	 0.0608884891	-0.233944
C	 1.2488337385	 2.9744571618	-1.1744655492	-0.221363
C	 2.5188473021	 3.7661288918	-1.3872351241	 0.011302
C	 3.6923064433	 3.1373152484	-2.1003831037	-0.261774
C	 2.894070438	 4.2291574043	-2.7701105478	-0.276252
C	 1.4302641308	 2.7858827108	 1.3208809563	 0.265883
N	 1.4930980644	 3.3641117513	 2.3197655758	-0.315638
H	 0.0052474369	 0.5748847204	 1.1268526289	 0.115633
H	 2.2102391219	 1.4136524625	-0.0191511296	 0.157319
H	 1.0419567828	 2.3367872735	-2.0389390359	 0.126356
H	 0.3872666824	 3.6426659907	-1.0675511494	 0.125901
H	 2.7660444553	 4.4455413277	-0.5758892386	 0.107455
H	 4.6928579999	 3.3668502185	-1.7519851304	 0.119963
H	 3.5759597553	 2.1266830584	-2.4799285044	 0.111369
H	 2.244395308	 3.9474968675	-3.5923267441	 0.117207
H	 3.3472984389	 5.2079203507	-2.8783735084	 0.120138
46.558	75.6575	88.15	132.2465	164.9122	252.8722	264.8437	353.2506	402.1496	515.523	567.3624	620.4612	762.8196	791.4587	813.4388	838.0312	877.0143	931.5694	972.2491	1010.0897	1050.5254	1059.4503	1083.7168	1099.1812	1140.4138	1164.5649	1199.5381	1226.2438	1232.5504	1253.4915	1316.5111	1345.8476	1417.6187	1419.4943	1468.5649	1483.195	1508.2088	1841.0646	2355.6105	2922.1635	2994.3463	3051.0045	3098.3231	3128.4984	3135.9225	3146.5504	3209.2826	3224.8263
O=CC(CC1CC1)C#N	O=C[C@@H](CC1CC1)C#N	
InChI=1S/C7H9NO/c8-4-7(5-9)3-6-1-2-6/h5-7H,1-3H2	InChI=1S/C7H9NO/c8-4-7(5-9)3-6-1-2-6/h5-7H,1-3H2/t7-/m0/s1
