15
gdb 125239	3.1022	1.40654	0.97354	3.5395	71.95	-0.2222	-0.0546	0.1677	1135.5999	0.113877	-454.000372	-453.992557	-453.991612	-454.032611	29.707	
C	 0.02484081	 1.5374370296	-0.0237449807	-0.486886
C	-0.0257561647	 0.0374512003	-0.0196464539	 0.247403
C	-1.1686985761	-0.6833163373	-0.1255984051	-0.305951
C	-1.1730214843	-2.1423245839	-0.1172820619	 0.436348
O	-2.1521650598	-2.8653062419	-0.2073315017	-0.400454
N	 0.1070380851	-2.6718904115	 0.0091806931	-0.28864
N	 1.2760189689	-2.0025514305	 0.118092675	-0.310295
C	 1.2028689455	-0.7112274525	 0.1033760192	 0.383987
O	 2.3474357318	 0.0041847991	 0.2096361409	-0.413251
H	 0.648503878	 1.9014246836	-0.8468253532	 0.150257
H	-0.9758604265	 1.9624150395	-0.1229774745	 0.132428
H	 0.4798610275	 1.9119406406	 0.8990749405	 0.15026
H	-2.1370513783	-0.2055388229	-0.2218947559	 0.126437
H	 0.1872624378	-3.6788266394	 0.0230332332	 0.272665
H	 3.0722985352	-0.6315114128	 0.2831955649	 0.305691
118.0889	153.3234	196.768	282.1811	362.303	371.7462	402.0224	469.2169	509.7513	523.9384	575.4844	610.996	710.26	729.0903	761.454	810.5471	922.6569	936.7643	1027.3938	1068.8883	1136.0332	1192.2753	1257.0902	1298.801	1329.9987	1415.2038	1433.5056	1473.8802	1474.5795	1494.2067	1604.0516	1681.3895	1781.308	3042.9221	3099.395	3135.2911	3203.7475	3612.3536	3777.1514
CC1=CC(=O)NN=C1O	Cc1cc(=O)[nH]nc1O	
InChI=1S/C5H6N2O2/c1-3-2-4(8)6-7-5(3)9/h2H,1H3,(H,6,8)(H,7,9)	InChI=1S/C5H6N2O2/c1-3-2-4(8)6-7-5(3)9/h2H,1H3,(H,6,8)(H,7,9)
