15
gdb 49609	3.03162	1.60128	1.12958	6.2591	68.17	-0.2502	-0.0093	0.2408	1032.0588	0.113605	-453.964526	-453.957083	-453.956138	-453.996936	27.626	
N	 0.0604125894	 1.2835043691	-0.004621395	-0.41126
C	-0.0304413888	 0.0213110214	 0.0189060538	 0.078947
N	-1.2352731755	-0.6762791841	-0.0411630914	-0.149486
C	-1.286463671	-2.111491701	-0.0287395264	-0.036472
C	-1.9506476755	-2.7524654798	 1.1771605406	-0.340393
C	-2.7532564262	-2.4050372876	-0.0485751477	 0.07904
O	-3.4280980198	-1.1693979329	-0.0590833763	-0.244901
C	-2.5299507247	-0.1233960133	-0.0524276964	 0.498491
O	-2.8606401502	 1.0186038807	-0.0337138683	-0.337409
H	 1.040029228	 1.5578138222	 0.0461606467	 0.23268
H	 0.8101089033	-0.6806852866	 0.08245991	 0.098903
H	-0.5531340716	-2.634128419	-0.6307455648	 0.126097
H	-1.7541067414	-3.8059286122	 1.3432381411	 0.132798
H	-2.0838479363	-2.1513702921	 2.0698673373	 0.143705
H	-3.2277270896	-3.1553211648	-0.667008973	 0.12926
76.4248	142.9732	161.4032	220.695	340.1638	472.8687	486.3616	496.1865	700.8959	718.7066	754.4201	768.7335	815.5697	818.8218	834.3197	987.688	995.0669	1026.5297	1056.4816	1060.9693	1070.0575	1111.1351	1156.3726	1165.5715	1204.0736	1251.7574	1324.5229	1379.3465	1420.6465	1434.6494	1466.7865	1727.526	1913.7704	3039.9855	3138.0499	3183.0277	3204.6817	3235.3023	3504.0695
N=CN1C2CC2OC1=O	[NH][CH]N1[C@H]2C[C@H]2OC1=O	
InChI=1S/C5H6N2O2/c6-2-7-3-1-4(3)9-5(7)8/h2-4,6H,1H2	InChI=1S/C5H6N2O2/c6-2-7-3-1-4(3)9-5(7)8/h2-4,6H,1H2/t3-,4+/m0/s1
