16
gdb 74503	3.67766	1.18264	0.99902	5.0885	76.39	-0.2603	-0.0274	0.2329	1186.192	0.123818	-400.75669	-400.748741	-400.747797	-400.789113	30.043	
C	 0.0912858043	 1.5094942316	 0.0693469856	-0.4871
C	-0.0215141258	 0.0216064232	-0.0010591858	 0.309895
C	-0.1619071785	-0.7276316292	-1.1015517881	-0.263408
C	-0.1265825437	-2.1792502321	-0.7545490469	 0.297009
O	 1.1163754925	-2.604333401	-0.1389865719	-0.281387
C	 0.0301725249	-2.2651253186	 0.7180740406	-0.029765
C	 0.0576495687	-0.8405397854	 1.2509790619	-0.340595
C	-0.8023738017	-3.1701256268	-1.5526550894	 0.220152
N	-1.3590811102	-3.9387958213	-2.2123373129	-0.334636
H	 1.0653944902	 1.8097905813	 0.4748880724	 0.139336
H	-0.0228333027	 1.9683183064	-0.9156645114	 0.135402
H	-0.6693339572	 1.9312084186	 0.7380517899	 0.133977
H	-0.2456151655	-0.3675332327	-2.1183802007	 0.11774
H	-0.3767253506	-3.0838536664	 1.3042098426	 0.122325
H	 0.9713777387	-0.6470209811	 1.8256877188	 0.135992
H	-0.7889290836	-0.6529547064	 1.9235036054	 0.125064
119.8802	145.7162	180.0127	197.8653	318.9905	363.6773	423.4078	484.726	490.706	547.9841	603.9558	648.271	747.2403	811.3267	866.708	887.0572	911.3922	963.2557	992.786	1014.5298	1042.6311	1087.5717	1154.66	1194.1755	1219.5411	1284.3694	1310.1278	1331.8726	1406.9131	1415.4858	1457.2636	1478.0591	1484.1976	1695.1614	2362.1617	3023.0814	3032.8409	3068.7805	3072.3891	3121.0769	3164.1275	3223.8067
CC1=CC2(OC2C1)C#N	CC1=C[C@]2(O[C@H]2C1)C#N	
InChI=1S/C7H7NO/c1-5-2-6-7(3-5,4-8)9-6/h3,6H,2H2,1H3	InChI=1S/C7H7NO/c1-5-2-6-7(3-5,4-8)9-6/h3,6H,2H2,1H3/t6-,7-/m0/s1
