16
gdb 16714	5.98893	1.39596	1.25185	0.9041	80.51	-0.2164	-0.0169	0.1996	973.3927	0.131169	-309.440041	-309.433134	-309.432189	-309.470854	27.485	
C	 0.0698377287	-1.1697760811	 0.0887604666	-0.426835
C	-0.014008258	 0.0323162728	 0.0458442941	 0.214758
C	-0.0499727354	 1.4446155319	-0.011069619	 0.173611
C	-1.1474121091	 2.2243306117	-0.0310492874	-0.17793
C	-0.8078107403	 3.6689110709	-0.0031192361	-0.064182
C	-0.0706323103	 4.1332140086	 1.2433000481	-0.275324
C	 0.7146477985	 3.7220760597	 0.0287930932	-0.04507
C	 1.2254234815	 2.285581804	-0.0473057277	-0.330227
H	 0.1258384441	-2.2291387021	 0.1257894126	 0.189461
H	-2.1640860263	 1.8502004044	-0.0313133247	 0.100963
H	-1.4110987295	 4.3833254833	-0.5517632176	 0.08948
H	-0.1031101376	 5.1932958546	 1.4726909563	 0.111829
H	-0.0852689802	 3.4792970165	 2.1095618826	 0.115932
H	 1.2498524083	 4.4914329476	-0.5145590784	 0.088246
H	 1.899094952	 2.0294344219	 0.7787539507	 0.119173
H	 1.7818327437	 2.0992872252	-0.9742628335	 0.116115
121.2902	157.6853	291.4721	343.4559	462.1598	519.0699	535.0324	552.1887	579.2958	635.6739	689.2913	790.6639	807.3916	852.5736	881.2885	902.3266	936.5014	985.8479	1019.1024	1047.2344	1068.1229	1091.821	1103.52	1178.2927	1184.736	1210.5102	1273.4217	1312.7977	1348.624	1373.9338	1472.2694	1485.0467	1652.0581	2218.145	3028.6983	3061.9861	3123.2821	3170.4611	3181.8392	3208.3748	3213.9026	3505.1541
C#CC1=CC2CC2C1	C#CC1=C[C@H]2C[C@H]2C1	
InChI=1S/C8H8/c1-2-6-3-7-5-8(7)4-6/h1,3,7-8H,4-5H2	InChI=1S/C8H8/c1-2-6-3-7-5-8(7)4-6/h1,3,7-8H,4-5H2/t7-,8+/m0/s1
