20
gdb 14019	4.91539	1.14453	1.06662	1.9416	75.55	-0.2392	0.0721	0.3114	1187.4327	0.176555	-348.970041	-348.961579	-348.960635	-349.00332	31.09	
C	 0.278592626	 1.5151481915	 0.2161632057	-0.37186
C	-0.1904640971	 0.1026218522	-0.1505900636	-0.197673
C	 0.5504131288	-0.47599919	-1.3387404324	-0.048941
C	 1.8833883663	-1.1721910964	-1.148445797	-0.354
C	 0.6664013925	-1.9569354848	-1.5345912921	 0.282811
C	-0.0288818127	-3.0887493216	-0.7821662683	-0.13581
O	-0.2395999992	-3.807396286	-2.0177072829	-0.277182
C	 0.419094958	-2.781907982	-2.79352908	-0.136959
H	 1.3444087227	 1.5228690632	 0.4668019878	 0.118923
H	 0.1303854548	 2.2087176879	-0.6187846563	 0.115051
H	-0.2742817002	 1.9060587004	 1.0759584555	 0.111845
H	-0.0613844142	-0.5618194051	 0.713669753	 0.094868
H	-1.2677983992	 0.1176521643	-0.3626216446	 0.100015
H	 0.4543671764	 0.1070227407	-2.2538905112	 0.081204
H	 2.660443183	-1.0293520799	-1.8931731605	 0.11142
H	 2.2549166601	-1.2833076112	-0.1330198946	 0.110715
H	 0.5973391726	-3.6554059107	-0.0800604804	 0.098704
H	-0.9772003237	-2.8340877324	-0.2900607448	 0.099842
H	-0.2528528662	-2.3356946405	-3.5394003538	 0.098196
H	 1.3153265013	-3.1637413296	-3.3012949894	 0.098832
71.738	102.2557	139.3575	177.4999	248.5463	290.5686	336.8049	418.6596	444.9532	597.6907	770.4064	806.3511	860.0593	874.9973	889.7503	932.0318	956.8456	994.648	1003.9769	1029.8471	1051.7947	1059.3219	1104.3572	1125.8612	1136.333	1151.9641	1161.1823	1189.5516	1229.0472	1294.1097	1308.7386	1318.1109	1352.2529	1387.8355	1410.2543	1441.5001	1484.0008	1497.7903	1503.2245	1507.3964	1510.6796	1535.5525	2991.0257	3002.5974	3014.7682	3032.6205	3035.2001	3037.6862	3045.2476	3099.7445	3106.0378	3112.9726	3115.1524	3197.8729
CCC1CC11COC1	CC[C@H]1CC21COC2	
InChI=1S/C7H12O/c1-2-6-3-7(6)4-8-5-7/h6H,2-5H2,1H3	InChI=1S/C7H12O/c1-2-6-3-7(6)4-8-5-7/h6H,2-5H2,1H3/t6-/m0/s1
