19
gdb 12786	3.47673	1.62637	1.34046	2.1377	72.52	-0.2218	0.0771	0.2989	1003.0474	0.164652	-365.008541	-365.000192	-364.999248	-365.041161	31.008	
C	-0.2162844139	 1.3429760861	 0.1088909978	-0.234209
O	 0.3696279839	 0.0812476233	-0.1132518757	-0.240975
C	 0.7691664071	-0.5575277383	 1.0632695229	 0.128989
C	-0.3040123155	-1.2105900786	 2.0184688487	-0.2653
C	 0.4527640839	-2.5293755083	 1.8442763661	-0.105822
N	 0.3491693197	-2.8428992203	 0.39808288	-0.358605
C	 1.4192141187	-1.929220196	 0.8740033392	 0.301599
C	 2.8660562771	-2.1912166465	 0.5914801186	-0.512574
H	 0.4749750014	 2.0290520394	 0.6251750646	 0.098862
H	-0.4653041159	 1.763248481	-0.8684508823	 0.126856
H	-1.1372089901	 1.2706177517	 0.7069315836	 0.108081
H	 1.4360633709	 0.0963050894	 1.6496156796	 0.060068
H	-0.2896799819	-0.7981798843	 3.02927696	 0.096342
H	-1.3241712287	-1.2298961311	 1.6283183072	 0.111817
H	 0.6128340461	-3.3109664227	 2.5770654462	 0.090196
H	 0.796508812	-3.7491842695	 0.2547178038	 0.220888
H	 3.1094691158	-1.9644899321	-0.4527953773	 0.137217
H	 3.5107190352	-1.5739029372	 1.2265602743	 0.121676
H	 3.1200759442	-3.2410906158	 0.7753647627	 0.114895
96.4495	144.0203	167.2654	206.6069	217.1666	286.2224	329.2065	426.1782	469.23	552.8477	630.8378	703.3953	822.6635	854.9993	901.9888	930.1705	957.7945	1021.9563	1024.5293	1043.8969	1090.8843	1102.8011	1119.309	1159.0724	1179.5304	1186.0558	1214.6272	1240.7061	1254.2742	1309.9349	1340.9854	1385.3378	1409.7557	1444.9034	1472.5618	1481.4019	1486.0302	1487.9901	1499.1999	1509.9352	2960.6364	2970.7038	3017.9187	3024.0304	3067.4228	3088.9467	3093.5576	3114.1485	3128.5896	3188.3028	3457.0446
COC1CC2NC12C	CO[C@H]1C[C@H]2N[C@@]12C	
InChI=1S/C6H11NO/c1-6-4(7-6)3-5(6)8-2/h4-5,7H,3H2,1-2H3	InChI=1S/C6H11NO/c1-6-4(7-6)3-5(6)8-2/h4-5,7H,3H2,1-2H3/t4-,5+,6-/m1/s1
