18
gdb 43146	2.36924	2.08876	1.68577	1.9822	73.97	-0.22	-0.0197	0.2003	896.5698	0.150891	-401.943667	-401.936983	-401.936039	-401.974476	27.611	
O	 0.0022012778	 0.0165325443	 0.1482447554	-0.334453
C	-0.0126757312	 1.2106368424	 0.0456432564	 0.403619
C	-1.1762516133	 2.2106970214	-0.009564133	-0.140742
C	-0.8215321431	 3.0431010842	 1.2562830651	-0.225037
C	 0.7553389406	 3.0696648134	 1.2456190116	-0.21497
C	 1.117053486	 2.2506953473	-0.0128328605	-0.086348
N	 0.7563657487	 3.1210047634	-1.1618612227	-0.105475
C	 0.0741768742	 2.4276937599	-2.2715565832	-0.277255
C	-0.7408950432	 3.0561957963	-1.2005278252	-0.014649
H	-2.1767709405	 1.784274298	-0.0441580481	 0.089255
H	-1.2509505126	 4.0467378288	 1.2047957476	 0.111157
H	-1.2058953364	 2.5613730227	 2.1590390771	 0.113268
H	 1.1532855112	 4.0828257409	 1.1598684128	 0.121394
H	 1.1690272032	 2.6093844697	 2.1464362034	 0.112967
H	 2.1358385863	 1.8721409122	-0.0751059622	 0.08913
H	 0.1706145796	 2.9378168827	-3.2246755695	 0.123508
H	 0.1228842561	 1.3426504059	-2.3368045696	 0.13652
H	-1.2545782633	 3.9973513463	-1.3805835154	 0.098112
144.0321	208.2273	310.4206	323.8253	458.2752	499.4922	551.5968	620.3423	720.3198	737.3089	776.7573	797.1254	826.1177	874.7861	877.2846	913.7797	944.266	1002.8333	1013.8579	1027.6472	1059.7737	1075.821	1110.6524	1136.8824	1143.1173	1153.3933	1199.3995	1207.8511	1247.7043	1248.2934	1278.7889	1283.7203	1316.2833	1322.8742	1377.1188	1479.4567	1500.7349	1506.6905	1881.8223	3059.1638	3070.5205	3101.3948	3107.3836	3124.0718	3134.0228	3137.6307	3142.8989	3197.7562
O=C1C2CCC1N1CC21	O=C1[C@H]2CC[C@@H]1N1C[C@@H]21	
InChI=1S/C7H9NO/c9-7-4-1-2-5(7)8-3-6(4)8/h4-6H,1-3H2	InChI=1S/C7H9NO/c9-7-4-1-2-5(7)8-3-6(4)8/h4-6H,1-3H2/t4-,5-,6-,8?/m0/s1
