21
gdb 30731	2.87133	1.22058	0.92092	1.0984	87.56	-0.1805	0.0575	0.238	1341.3754	0.182341	-383.30896	-383.298676	-383.297732	-383.344402	37.116	
C	 0.2343921057	 1.0029434692	 0.6037685363	-0.32413
N	-0.2280330031	 0.268566058	-0.5808605665	-0.387666
C	-1.2870882372	-0.6358008934	-0.3629634232	 0.195998
C	-1.3285596915	-1.9751433936	-0.024790801	 0.153825
C	-0.1523530387	-2.8658542219	 0.2361012277	-0.514063
C	-2.7112598435	-2.3532041236	 0.030718137	 0.201976
C	-3.2455568713	-3.7135629017	 0.36103457	-0.50345
C	-3.4518078501	-1.2317232468	-0.2617650586	-0.183822
N	-2.5830744702	-0.1950038187	-0.4987779753	-0.275309
H	 1.0368192927	 1.6874491209	 0.3116755881	 0.11486
H	-0.590068441	 1.6018323203	 1.0014492869	 0.124802
H	 0.5999135542	 0.3549797238	 1.4152066244	 0.108419
H	 0.5501073356	-0.2005748314	-1.0271416473	 0.229656
H	-0.195452379	-3.3208794707	 1.2334997334	 0.121611
H	-0.0892085808	-3.6920343615	-0.4838025893	 0.120132
H	 0.7885381601	-2.3089858665	 0.1751577335	 0.103429
H	-2.9305860993	-4.0488040625	 1.3574718861	 0.117717
H	-4.339587344	-3.7221197361	 0.3432226895	 0.115284
H	-2.8990575717	-4.4742750621	-0.3499530895	 0.118163
H	-4.5199361529	-1.0916090078	-0.315594627	 0.108078
H	-2.8233582341	 0.7256245661	-0.8218953555	 0.254491
50.5255	113.22	119.342	134.992	176.8757	221.9077	232.4681	274.2003	291.4483	383.978	478.1206	489.3763	560.9414	648.6675	669.4292	703.4351	706.3122	737.0219	786.7959	938.3807	1001.0428	1034.4302	1050.2181	1073.6829	1092.9434	1122.6898	1150.0556	1162.5293	1212.8441	1266.3174	1340.5948	1410.0971	1415.6888	1422.2905	1444.7763	1455.9078	1478.5059	1485.0773	1488.6411	1489.4971	1501.2958	1510.905	1515.3111	1569.3064	1642.0755	2983.9677	3011.7243	3013.6394	3055.1258	3055.8806	3072.0982	3089.4189	3098.7888	3110.5202	3255.0943	3553.7607	3684.1056
CNC1=C(C)C(C)=CN1	CNc1c(C)c(C)c[nH]1	
InChI=1S/C7H12N2/c1-5-4-9-7(8-3)6(5)2/h4,8-9H,1-3H3	InChI=1S/C7H12N2/c1-5-4-9-7(8-3)6(5)2/h4,8-9H,1-3H3
