15
gdb 6355	5.06157	1.13003	0.97275	3.3303	59.28	-0.2481	-0.0049	0.2432	1159.1958	0.117694	-437.007339	-436.998618	-436.997674	-437.041777	29.925	
C	 0.2875347201	 1.4717472658	-0.1325002356	-0.242991
O	-0.1830559154	 0.2260904315	-0.6712999972	-0.217579
C	 0.7569385543	-0.7030442581	-0.8897473898	 0.444436
O	 1.933845587	-0.5219292294	-0.6639135778	-0.37222
C	 0.1491900772	-1.9832422458	-1.421078049	-0.419486
C	 0.9226996975	-2.6955707448	-2.547487374	 0.385658
N	 2.2731200464	-2.6879433653	-2.414613995	-0.51192
O	 0.3237814283	-3.2666575175	-3.4359066057	-0.356621
H	 1.0073620102	 1.934215143	-0.8116635995	 0.146783
H	-0.5974999882	 2.098096469	-0.0260030858	 0.141289
H	 0.7663616032	 1.313792399	 0.8367969243	 0.145089
H	 0.0963674814	-2.6821652017	-0.5760222991	 0.163519
H	-0.8673321657	-1.8124242871	-1.7708966067	 0.156178
H	 2.7044125428	-2.0547975375	-1.7555264247	 0.279237
H	 2.8148294108	-3.0881416512	-3.1632738245	 0.258628
42.6586	60.2084	122.7762	168.4321	216.4369	308.2477	380.4577	388.0243	439.3512	516.9658	579.652	624.0113	705.5441	758.9338	872.9152	919.8601	964.6404	1032.7429	1127.9961	1178.0717	1180.0065	1209.5829	1243.1862	1337.8236	1361.7511	1445.9809	1475.2236	1482.6363	1495.5075	1613.676	1789.4921	1812.0865	3044.4893	3056.7308	3133.8174	3157.0719	3166.8813	3547.0908	3700.9487
COC(=O)CC(N)=O	COC(=O)CC(=O)N	
InChI=1S/C4H7NO3/c1-8-4(7)2-3(5)6/h2H2,1H3,(H2,5,6)	InChI=1S/C4H7NO3/c1-8-4(7)2-3(5)6/h2H2,1H3,(H2,5,6)
