23
gdb 65918	2.80453	1.28059	1.09673	1.5333	84.98	-0.2402	0.0808	0.321	1240.3786	0.205875	-388.271245	-388.262085	-388.261141	-388.305305	35.038	
C	-0.1275786265	 1.662471378	-0.2995358471	-0.437899
C	-0.012066979	 0.1589887228	-0.0770247121	 0.402621
C	 1.01081772	-0.5667823555	-0.993982656	-0.332025
C	 1.8368020181	-0.7440238533	 0.2917275193	-0.064997
O	 0.8173653774	-0.1185767898	 1.0958413828	-0.321865
C	-1.3771070528	-0.4991558751	 0.0503463642	 0.014523
C	-1.4719660896	-1.9955326866	 0.4650136206	-0.244163
C	-2.6932592839	-1.6323716607	 1.3516481926	-0.217584
C	-2.2487187213	-0.147495894	 1.292410636	-0.232864
H	 0.8628888546	 2.1226504565	-0.3619193736	 0.114039
H	-0.6671669467	 1.87640406	-1.2289705616	 0.111774
H	-0.668793486	 2.1325732318	 0.5273300992	 0.127383
H	 0.6447103939	-1.4942311447	-1.4378308715	 0.109108
H	 1.4617365662	 0.0511957675	-1.7724925152	 0.10376
H	 2.026797116	-1.7784184532	 0.602353056	 0.100317
H	 2.7819045613	-0.1873809535	 0.327086617	 0.098815
H	-1.9371971902	-0.3219721966	-0.8761561476	 0.064109
H	-1.6159028125	-2.7391155483	-0.3229267127	 0.087691
H	-0.6110608556	-2.2792192112	 1.0761791339	 0.113655
H	-3.6387955131	-1.7933292018	 0.8254260099	 0.09745
H	-2.7598797446	-2.1016502255	 2.3359157901	 0.096072
H	-1.6116518033	 0.1141097337	 2.1419069249	 0.119489
H	-3.0222906225	 0.6155539397	 1.1776337409	 0.090592
79.9891	86.7994	129.4184	183.4084	226.5642	261.426	309.749	355.0317	425.086	524.3541	564.2701	704.6332	781.9092	785.8045	803.4481	867.9748	896.3815	896.9646	936.6176	949.2147	953.7072	967.2727	993.4578	1018.5029	1030.7662	1049.961	1101.9583	1163.6524	1167.599	1195.5566	1211.0222	1225.6339	1244.1808	1255.6449	1258.2947	1264.7882	1275.2993	1288.0353	1289.2456	1349.1224	1377.9902	1403.6277	1472.7646	1482.758	1484.5007	1488.2666	1494.9129	1507.3059	1531.4732	3012.1559	3028.9274	3034.0973	3050.5985	3053.3216	3056.2661	3062.0493	3075.8884	3098.2609	3103.5719	3111.9135	3112.4493	3122.8559	3130.1778
CC1(CCO1)C1CCC1	C[C@]1(CCO1)C1CCC1	
InChI=1S/C8H14O/c1-8(5-6-9-8)7-3-2-4-7/h7H,2-6H2,1H3	InChI=1S/C8H14O/c1-8(5-6-9-8)7-3-2-4-7/h7H,2-6H2,1H3/t8-/m0/s1
