18
gdb 126282	3.26693	1.14434	0.90561	2.278	85.09	-0.2078	-0.048	0.1598	1305.544	0.149734	-398.150785	-398.142443	-398.141498	-398.184135	31.449	
C	 0.0837173792	 1.5533463608	-0.1178641823	-0.372842
C	-0.0498996483	 0.0276325132	 0.0347123843	-0.29577
C	 0.64935314	-0.4982450242	 1.2622722086	 0.304248
C	-0.0098184935	-0.9161689943	 2.3682646317	-0.219216
C	 0.6965600077	-1.3933288756	 3.5443282035	 0.393828
N	 0.0834650797	-1.789806538	 4.6010673952	-0.562149
N	 2.089609698	-1.3643979386	 3.3782938332	-0.302509
N	 2.7837496987	-0.9689266755	 2.2985282539	-0.18842
C	 2.0928276176	-0.5504111567	 1.2841754433	-0.05492
H	 1.1329978434	 1.8588504329	-0.178978466	 0.124827
H	-0.4193523279	 1.894969748	-1.0271645276	 0.121744
H	-0.3640929019	 2.0698189202	 0.7363858291	 0.12918
H	-1.1085978121	-0.2467535968	 0.0772493349	 0.113666
H	 0.3680044267	-0.4612506212	-0.8545587249	 0.113949
H	-1.0919855834	-0.9174684955	 2.4338282085	 0.119699
H	 0.7364668296	-2.0901725887	 5.3269254107	 0.19445
H	 2.6708309398	-1.6826016394	 4.1397466164	 0.262112
H	 2.6721976567	-0.2394246205	 0.4210033273	 0.118124
59.6377	131.5292	156.7031	207.6619	287.2203	317.8208	422.6713	458.3962	513.8042	567.2119	612.1061	664.8262	726.4005	740.2168	790.4419	793.419	895.7149	910.2518	938.2106	982.0427	1020.1514	1066.7695	1089.5221	1126.926	1156.8512	1199.4253	1272.1075	1323.0632	1350.9838	1373.4658	1410.2057	1420.2097	1454.2308	1485.1012	1497.6707	1507.4347	1590.9736	1663.7242	1714.9331	3028.1712	3040.0288	3077.0435	3112.6662	3116.6333	3183.4285	3202.3166	3453.3873	3612.1344
CCC1=CC(=N)NN=C1	CC[C@@H]1C=C([NH])NN=C1	
InChI=1S/C6H9N3/c1-2-5-3-6(7)9-8-4-5/h3-4H,2H2,1H3,(H2,7,9)	InChI=1S/C6H10N3/c1-2-5-3-6(7)9-8-4-5/h3-5,7,9H,2H2,1H3/t5-/m1/s1
