16
gdb 131345	4.23421	1.07516	0.91942	3.6539	71.74	-0.2241	0.0157	0.2397	1244.4932	0.126874	-434.088676	-434.080997	-434.080053	-434.121399	29.004	
O	 0.7860853682	 1.0102130692	-0.2750826722	-0.410156
C	 0.2269075201	-0.1974185976	-0.1185657475	 0.417445
N	-0.9444261545	-0.4858849203	-0.6515066386	-0.291319
N	-1.0959725567	-1.783011138	-0.2379824435	-0.269541
C	-0.0432022381	-2.1878421937	 0.4956323519	 0.415403
N	 0.8281015327	-1.1893509389	 0.5918559464	-0.419938
C	 0.0889617455	-3.5271593562	 1.0811962486	-0.124126
C	 1.4667846108	-4.1570578974	 1.1768720803	-0.255123
C	 0.7847240615	-3.6802204817	 2.421573603	-0.255135
H	 1.6269880366	 0.9844630954	 0.1964493893	 0.309069
H	-1.924396112	-2.2916490673	-0.4967664103	 0.275697
H	-0.7444108564	-4.1920678402	 0.8791855314	 0.087004
H	 1.5401652482	-5.2234491142	 0.9963500501	 0.118959
H	 2.2893695045	-3.5640683143	 0.7954009637	 0.141387
H	 1.1491561342	-2.7668378633	 2.8762461897	 0.141422
H	 0.3815533855	-4.4134084214	 3.1108089376	 0.118953
59.8808	145.596	154.7417	310.6155	377.2369	398.1953	418.7348	473.0582	514.0119	639.1724	728.498	766.6354	777.2619	800.6154	825.9046	912.9525	921.219	1028.1981	1045.3534	1070.4511	1092.6609	1117.4903	1121.4514	1159.9935	1205.5471	1206.5417	1227.2403	1268.29	1399.692	1427.9134	1460.3322	1479.0024	1509.9699	1592.4792	1639.1072	3142.2985	3144.664	3162.5229	3229.9588	3244.0505	3673.1421	3818.6345
OC1=NNC(=N1)C1CC1	Oc1n[nH]c(n1)C1CC1	
InChI=1S/C5H7N3O/c9-5-6-4(7-8-5)3-1-2-3/h3H,1-2H2,(H2,6,7,8,9)	InChI=1S/C5H7N3O/c9-5-6-4(7-8-5)3-1-2-3/h3H,1-2H2,(H2,6,7,8,9)
