14
gdb 25864	4.302	1.08804	0.86991	5.8291	67.59	-0.2095	-0.0303	0.1792	1223.1122	0.102796	-470.101514	-470.093479	-470.092535	-470.134383	29.944	
N	 0.0411239143	 1.3573451998	 0.0682292637	-0.542865
C	 0.0158645423	-0.0153279384	 0.0829203287	 0.315536
O	 1.0270826653	-0.694997071	 0.1567957617	-0.377884
C	-1.3094212107	-0.6483447817	 0.0445985249	 0.268834
C	-2.5839472827	-0.1814517231	 0.0956590603	-0.195302
N	-3.4239521461	-1.2739964141	 0.0402589137	-0.337911
C	-2.6993890802	-2.4753974705	-0.0367515653	 0.465522
O	-3.1404426278	-3.6021617081	-0.0906748722	-0.421788
N	-1.3890350759	-2.0350141527	-0.0372695417	-0.402646
H	 0.9538269211	 1.7690597106	-0.0508745285	 0.26532
H	-0.7346736541	 1.8702610919	-0.3167703257	 0.256907
H	-2.9572506944	 0.8243444803	 0.1892212152	 0.146728
H	-4.4284958288	-1.2650768274	 0.0733831795	 0.274812
H	-0.5784940521	-2.6312489855	-0.0550283444	 0.284737
71.376	131.5354	164.7696	268.1866	363.5923	369.3396	455.9636	461.2949	504.8211	542.3851	556.9952	624.1191	653.273	715.1964	756.0775	764.1651	790.4713	967.0773	988.8507	1087.9834	1100.5572	1181.9578	1188.5149	1337.3848	1371.6182	1409.2496	1456.697	1620.8644	1646.5416	1766.9273	1857.3474	3275.8435	3589.6829	3679.0679	3688.2166	3714.152
NC(=O)C1=CNC(=O)N1	NC(=O)c1c[nH]c(=O)[nH]1	
InChI=1S/C4H5N3O2/c5-3(8)2-1-6-4(9)7-2/h1H,(H2,5,8)(H2,6,7,9)	InChI=1S/C4H5N3O2/c5-3(8)2-1-6-4(9)7-2/h1H,(H2,5,8)(H2,6,7,9)
