18
gdb 119847	4.60834	0.95994	0.84469	1.7737	74.	-0.2443	0.0104	0.2547	1389.2692	0.14776	-439.077545	-439.069264	-439.06832	-439.111029	30.588	
C	 0.0474293662	 1.4921543415	-0.0792790228	-0.391972
C	-0.0356451405	-0.0209557814	-0.0385546289	-0.043149
O	 0.672570618	-0.52795455	-1.1864331835	-0.272422
C	 0.7376603894	-1.8534962599	-1.2946668854	 0.462498
N	 0.2211812086	-2.698547347	-0.4891298976	-0.335981
C	 0.5903337903	-4.0497168691	-0.9438534353	-0.187492
C	 1.3617350871	-3.8802138403	-2.2492166049	 0.035231
O	 0.5896219604	-3.2386424195	-3.2690881015	-0.245321
C	 1.4720171092	-2.431249881	-2.4684729443	-0.104806
H	 1.0877191772	 1.8277188081	-0.0412644829	 0.128245
H	-0.4073821028	 1.8835131971	-0.9936181299	 0.131655
H	-0.4831871074	 1.9156297778	 0.7785305594	 0.123245
H	 0.4184922773	-0.437849693	 0.8666830929	 0.12141
H	-1.0692946552	-0.3798606618	-0.0782341026	 0.12544
H	 1.2072154975	-4.539861575	-0.1805194219	 0.112292
H	-0.3088097575	-4.6608682319	-1.0807934912	 0.125477
H	 2.0984062711	-4.600283354	-2.5938711293	 0.105045
H	 2.2676071612	-1.9098780205	-2.9896590801	 0.110607
58.5591	110.4683	155.3265	232.8742	279.9337	305.9546	352.0933	402.6663	437.0631	699.4967	717.8702	786.5569	809.5713	824.7357	863.9684	892.3616	925.6246	932.91	980.5788	1036.1067	1055.2611	1068.068	1102.4218	1142.8429	1183.0299	1213.0058	1235.7651	1279.6381	1289.6276	1321.3358	1362.0656	1398.5398	1413.9235	1445.3598	1476.0385	1485.4394	1496.6231	1519.8344	1697.7658	3032.8739	3046.4499	3047.2854	3071.6233	3084.8233	3121.5398	3125.3913	3156.6642	3181.362
CCOC1=NCC2OC12	CCOC1=NC[C@H]2O[C@@H]12	
InChI=1S/C6H9NO2/c1-2-8-6-5-4(9-5)3-7-6/h4-5H,2-3H2,1H3	InChI=1S/C6H9NO2/c1-2-8-6-5-4(9-5)3-7-6/h4-5H,2-3H2,1H3/t4-,5-/m1/s1
