19
gdb 64963	3.38044	1.11265	0.96636	2.1959	78.11	-0.2376	-0.0165	0.2211	1277.6129	0.157978	-423.019021	-423.010041	-423.009097	-423.053287	33.944	
O	 0.0678446562	 1.4228187443	 0.1072556401	-0.455371
C	 0.0646326941	 0.0228538173	 0.0437183272	 0.278229
C	-0.5706184637	-0.7520150705	 1.1845789338	-0.304057
C	-1.3019240769	-0.6117611689	-0.1154310255	-0.270488
C	 1.1955813017	-0.6463728079	-0.6903202855	 0.317719
O	 1.2824842974	-1.8621816126	-0.7109984281	-0.364685
C	 2.1824778441	 0.2273682628	-1.381641411	-0.126256
C	 3.6415526505	-0.2203126067	-1.3388602816	-0.251121
C	 2.8747739405	-0.3523416658	-2.6064915387	-0.24509
H	 0.6651690347	 1.6891520822	 0.814739914	 0.287076
H	-0.1268025547	-1.7123389636	 1.4174896816	 0.140586
H	-0.9134243788	-0.1577607961	 2.0241616423	 0.11593
H	-2.129304714	 0.0862698483	-0.1627530621	 0.128384
H	-1.3622594673	-1.478450789	-0.7622498972	 0.138087
H	 1.9777987165	 1.2886588265	-1.3706224006	 0.102008
H	 4.3922357447	 0.5569289516	-1.2524726118	 0.116622
H	 3.8362613736	-1.1269500513	-0.7774633328	 0.135907
H	 2.5547903681	-1.3473565562	-2.8930261588	 0.138909
H	 3.0812343132	 0.3322726057	-3.4209106953	 0.117613
49.5856	61.7552	181.4025	243.3705	284.0209	298.279	310.8521	340.643	414.7347	449.9441	557.5157	730.8454	755.8132	784.4029	802.6192	828.6772	838.684	859.8816	920.6993	926.2174	954.3128	1001.2168	1043.4004	1065.0328	1087.3986	1093.6292	1095.6173	1106.9776	1143.5861	1205.3245	1212.136	1217.3779	1267.4896	1301.3937	1351.9908	1408.0849	1436.5317	1453.4579	1472.608	1484.0652	1757.6892	3139.5288	3141.4128	3142.9967	3147.9266	3213.8651	3227.9933	3237.3621	3243.8721	3251.4718	3798.5527
OC1(CC1)C(=O)C1CC1	OC1(CC1)C(=O)C1CC1	
InChI=1S/C7H10O2/c8-6(5-1-2-5)7(9)3-4-7/h5,9H,1-4H2	InChI=1S/C7H10O2/c8-6(5-1-2-5)7(9)3-4-7/h5,9H,1-4H2
