14
gdb 29989	3.51	1.73881	1.17137	3.039	69.02	-0.2162	-0.0105	0.2058	970.887	0.104319	-432.899193	-432.892353	-432.891409	-432.930832	25.18	
C	 0.0062265032	 1.4647819472	 0.0142406879	-0.345208
N	-0.0267138122	 0.0167366315	 0.0423276752	-0.135441
C	-0.1499265987	-0.8357747153	-1.0396263894	-0.018538
N	-0.1524989734	-2.1286277065	-0.7309878934	-0.369141
C	-0.024367337	-2.0823546024	 0.6123292638	 0.34315
C	 0.055241312	-0.8235110395	 1.1274298542	 0.296003
N	 0.184035712	-0.8461570097	 2.4957886603	-0.363575
C	 0.1752191789	-2.1286260817	 2.7357239439	 0.044905
O	 0.0521071886	-2.9631025375	 1.6501789672	-0.197692
H	 0.9476238404	 1.8380068054	 0.4274773534	 0.155001
H	-0.0833346186	 1.7993369606	-1.0208110165	 0.146669
H	-0.8218891626	 1.8814949247	 0.5946389992	 0.154999
H	-0.2350008276	-0.4424309374	-2.0417045628	 0.136216
H	 0.253861225	-2.6156152096	 3.694168137	 0.152651
85.5143	159.5816	229.6191	251.6609	378.7182	548.9471	616.4813	624.508	644.7534	718.0844	762.7093	778.2972	807.9797	822.5378	936.3432	1056.0236	1080.4606	1123.4802	1154.733	1242.5978	1255.0008	1305.3314	1354.0889	1430.8451	1453.5597	1470.0588	1479.7239	1504.5066	1516.8424	1565.3552	1596.7211	3046.0591	3110.4326	3141.2147	3252.7096	3285.385
CN1C=NC2=C1N=CO2	Cn1cnc2c1nco2	
InChI=1S/C5H5N3O/c1-8-2-6-5-4(8)7-3-9-5/h2-3H,1H3	InChI=1S/C5H5N3O/c1-8-2-6-5-4(8)7-3-9-5/h2-3H,1H3
