19
gdb 17680	3.87759	1.51273	1.28065	2.4125	71.32	-0.2409	0.0906	0.3315	1021.8764	0.164276	-365.02435	-365.015686	-365.014742	-365.057319	31.947	
C	-0.0285063455	 1.4773482937	-0.1452928891	-0.424823
C	 0.0363129432	-0.0089735459	 0.0935519997	 0.037344
O	 1.3210241961	-0.6453183931	-0.0301675056	-0.299612
C	 0.6696923414	-0.671558742	 1.2516781338	 0.344502
C	 1.3553473201	 0.0975390702	 2.3607076001	-0.465365
C	 0.1933478297	-2.0403949727	 1.6653514906	-0.044512
C	 0.0057368048	-3.120378412	 0.6715512754	-0.246066
N	 1.1398812257	-3.1719787965	 1.6155733691	-0.329494
H	 0.7843989266	 2.0113173752	 0.3493261798	 0.128737
H	 0.0342312121	 1.686314032	-1.2184149107	 0.13241
H	-0.9822593191	 1.8765743749	 0.2165139463	 0.124763
H	-0.7633722485	-0.5726439194	-0.3911846345	 0.0861
H	 1.7543227419	 1.0502310866	 2.0108769999	 0.127624
H	 0.6557701297	 0.2899429794	 3.1813579154	 0.124166
H	 2.1851253817	-0.4914657411	 2.7650238672	 0.135586
H	-0.4287418512	-2.0408814203	 2.5588730094	 0.088686
H	-0.7597400748	-3.8742736713	 0.8313428805	 0.114048
H	 0.225304799	-2.8890414389	-0.3660310502	 0.126503
H	 1.9733261971	-2.8651261989	 1.1152443528	 0.239405
87.2299	152.7408	158.3522	169.46	209.8739	280.97	305.341	371.443	475.1878	480.7455	586.6798	681.4872	785.0131	838.3113	857.46	893.4222	947.8436	970.7084	987.2546	1010.6925	1061.7278	1101.4636	1115.1695	1137.0925	1149.7156	1178.6866	1205.145	1227.608	1276.2869	1304.9403	1348.1819	1404.1585	1417.0613	1422.3185	1459.0617	1476.1987	1485.5053	1496.26	1498.7717	1518.1407	3039.7097	3042.7787	3087.9497	3100.1434	3101.3372	3115.5303	3122.1575	3135.7532	3146.7935	3207.5424	3475.2444
CC1OC1(C)C1CN1	C[C@H]1O[C@]1(C)[C@H]1CN1	
InChI=1S/C6H11NO/c1-4-6(2,8-4)5-3-7-5/h4-5,7H,3H2,1-2H3	InChI=1S/C6H11NO/c1-4-6(2,8-4)5-3-7-5/h4-5,7H,3H2,1-2H3/t4-,5-,6+/m1/s1
