14
gdb 9007	6.47079	0.86315	0.76872	1.1433	68.15	-0.2466	-0.0985	0.1481	1411.1335	0.102862	-382.533419	-382.524119	-382.523175	-382.569799	29.951	
C	 0.1988731653	 1.4636299023	-0.0048867121	-0.499044
C	-0.0054104521	 0.0306960871	-0.1541115073	 0.139347
C	-0.1738669461	-1.1537506618	-0.2774654478	 0.037112
C	-0.3883562302	-2.5819332184	-0.4169477098	-0.492386
C	-1.5417441337	-3.1310195084	 0.4131075263	 0.298758
O	-2.2551143144	-2.491727929	 1.1439270052	-0.253984
C	-1.7934753169	-4.641132029	 0.2855488827	 0.084158
O	-1.1400234515	-5.3680483747	-0.4149632945	-0.216289
H	 1.2309850822	 1.6904926427	 0.2837980384	 0.149588
H	-0.009141939	 1.9947369062	-0.9401328081	 0.149764
H	-0.4607247526	 1.8766234514	 0.7659172266	 0.155195
H	-0.5789292166	-2.8679911387	-1.4613302512	 0.166315
H	 0.5068938003	-3.1595589922	-0.1453363311	 0.166329
H	-2.6436140446	-4.9868651476	 0.9102554029	 0.115136
22.483	37.106	79.193	128.4073	197.8668	203.9504	271.2659	373.1011	416.3264	450.2748	515.4435	597.1096	801.5155	822.0999	845.1037	1026.918	1052.0316	1055.0529	1147.3816	1176.6988	1204.7455	1355.0752	1362.1148	1414.359	1422.2448	1477.3224	1477.69	1815.722	1824.2109	2384.165	2929.4194	3016.4177	3029.3264	3035.9926	3090.4146	3092.5515
CC#CCC(=O)C=O	CC#CCC(=O)C=O	
InChI=1S/C6H6O2/c1-2-3-4-6(8)5-7/h5H,4H2,1H3	InChI=1S/C6H6O2/c1-2-3-4-6(8)5-7/h5H,4H2,1H3
