19
gdb 53545	2.58669	0.95805	0.81195	2.8132	85.08	-0.2406	-0.0153	0.2254	1503.877	0.156298	-385.86965	-385.859463	-385.858519	-385.906817	35.431	
C	 0.2068921319	 1.4585188462	-0.5926524814	-0.496188
C	 0.1113686397	 0.0516153567	-0.2298486255	 0.048815
C	 0.0334789584	-1.1071554992	 0.086417893	 0.095838
C	-0.0702329615	-2.5181495496	 0.4496095763	-0.449253
C	-1.4396218918	-3.1192704576	 0.1500702442	 0.270738
C	-1.8614998641	-3.3523468039	-1.2910026337	-0.293766
C	-1.5353158816	-4.5281394106	-0.4343514039	-0.317478
C	-2.5248079403	-2.7698537277	 1.1004708959	 0.123842
O	-2.3808699906	-2.1213427849	 2.1064415253	-0.267038
H	 1.2507729001	 1.7680588503	-0.7158467421	 0.145729
H	-0.3113351907	 1.6645108586	-1.5358693023	 0.143872
H	-0.2393783143	 2.0983758371	 0.1765967896	 0.150535
H	 0.6976728015	-3.0924270517	-0.0831843252	 0.119246
H	 0.1306257914	-2.638661849	 1.5207236474	 0.145864
H	-2.9002216893	-3.1738244173	-1.5495539676	 0.124654
H	-1.1511863054	-3.0404597846	-2.0481283041	 0.13545
H	-0.5956727224	-5.0465306498	-0.5890577293	 0.129696
H	-2.3468968329	-5.1635076043	-0.0950543627	 0.126024
H	-3.5235673479	-3.1800773787	 0.8156510461	 0.063422
22.6051	39.5374	81.7284	139.298	189.1226	225.5867	276.0543	311.8355	326.7418	378.9193	395.0583	492.2568	550.1797	766.497	775.1506	797.6058	849.7208	909.1248	927.9782	966.6539	1017.876	1048.4074	1053.2133	1054.2915	1067.0148	1088.2046	1167.9251	1193.7522	1212.3108	1307.7511	1341.9011	1357.9797	1415.3169	1439.8646	1456.6395	1468.06	1478.5537	1480.1449	1498.1387	1819.893	2376.0681	2842.3876	3024.8821	3026.0455	3064.2007	3085.2623	3087.2846	3133.507	3135.8102	3214.274	3228.3904
CC#CCC1(CC1)C=O	CC#CCC1(CC1)C=O	
InChI=1S/C8H10O/c1-2-3-4-8(7-9)5-6-8/h7H,4-6H2,1H3	InChI=1S/C8H10O/c1-2-3-4-8(7-9)5-6-8/h7H,4-6H2,1H3
