16
gdb 98391	3.08629	1.06015	0.80026	2.3731	69.95	-0.2586	-0.042	0.2165	1361.4482	0.123157	-471.23098	-471.221217	-471.220273	-471.26696	33.025	
N	 0.1114028642	 1.4679171057	-0.0066191271	-0.484108
C	 0.04188985	 0.0219025944	 0.0537848254	-0.293302
C	-1.3946811429	-0.5346864887	-0.0012082455	 0.41041
O	-2.3410837696	 0.2149272902	-0.075104432	-0.331961
N	-1.5940507984	-1.9385235887	 0.0260652026	-0.182209
C	-2.9429318231	-2.3826052928	-0.1174088809	 0.084028
N	-3.3174571107	-3.5269117658	 0.2594293982	-0.398515
C	-0.5077743231	-2.8399280955	 0.108357162	 0.174321
O	-0.5739364433	-4.0258987763	-0.0365074539	-0.252823
H	-0.3600808543	 1.7898927619	-0.847298365	 0.240621
H	-0.4293327068	 1.8608235856	 0.7588263201	 0.241213
H	 0.6249933316	-0.4021000737	-0.7721510537	 0.145935
H	 0.5252698603	-0.3199160128	 0.9767528409	 0.147636
H	-3.5597618838	-1.6004739381	-0.5585085851	 0.146008
H	-4.3103178917	-3.6429676886	 0.0547474169	 0.241056
H	 0.4390344916	-2.3200663966	 0.317908447	 0.11169
42.0844	66.0994	90.7278	131.5397	205.3525	239.0828	252.8814	272.5205	341.7852	390.8911	492.4843	515.6751	568.8532	747.4638	837.1264	863.524	927.1435	932.1147	961.3451	1017.0163	1087.5542	1146.2433	1167.2629	1181.5265	1256.891	1335.5879	1365.5134	1402.3108	1418.9436	1454.8464	1483.6771	1678.9781	1724.8511	1784.3046	1855.0099	3019.3585	3039.1233	3075.3805	3137.4959	3483.2058	3499.0767	3566.7938
NCC(=O)N(C=N)C=O	NCC(=O)N(C=N)C=O	
InChI=1S/C4H7N3O2/c5-1-4(9)7(2-6)3-8/h2-3,6H,1,5H2	InChI=1S/C4H7N3O2/c5-1-4(9)7(2-6)3-8/h2-3,6H,1,5H2
