20
gdb 109709	3.07621	1.0616	0.96788	1.4367	75.86	-0.2323	0.0608	0.2931	1295.9451	0.16932	-440.214127	-440.20455	-440.203606	-440.248812	34.571	
C	-0.1774711642	 0.7498065661	-2.0422561296	-0.320493
N	 0.0635022763	-0.2987923794	-1.0567785112	-0.134745
C	 1.3590722308	-0.3823045574	-0.3707857644	-0.118438
C	 2.4855161321	 0.5947179398	-0.6274958988	-0.086698
O	 3.0805060646	 0.4248833414	-1.9076526526	-0.413726
C	 0.1230354232	 0.0320542432	 0.344673845	 0.266736
C	-0.1932621717	 1.352511101	 1.0575495157	-0.148457
O	-0.8941380134	 0.6367393562	 2.0947316339	-0.276121
C	-0.6790806258	-0.6418326137	 1.4526267634	-0.14096
H	 0.1593581882	 1.7526813539	-1.7430860636	 0.106176
H	 0.3364075227	 0.4866745631	-2.9696396058	 0.139202
H	-1.252637281	 0.8014193621	-2.2394571212	 0.123821
H	 1.6996838555	-1.4123120594	-0.2387565012	 0.084391
H	 2.1295916238	 1.6280364888	-0.6053692724	 0.111678
H	 3.2309781404	 0.495314049	 0.1777522997	 0.096645
H	 3.3952610997	-0.4831392138	-1.9692190943	 0.285067
H	 0.6584674143	 1.9198821927	 1.4537468415	 0.105918
H	-0.8538053938	 2.0386093584	 0.5102918928	 0.106281
H	-1.615833529	-1.1063329165	 1.1199336295	 0.110097
H	-0.1331288727	-1.3399808154	 2.0993894837	 0.103627
78.3128	95.5573	130.0887	168.2911	186.5116	239.5698	257.853	287.5806	337.6708	435.2	464.5819	556.3246	625.3426	745.4087	821.2097	868.4829	947.0503	980.9615	1003.6584	1029.1348	1034.1787	1059.0832	1100.2254	1110.2814	1136.9558	1144.4931	1152.9397	1169.2766	1181.2154	1213.757	1227.6621	1303.3909	1338.1956	1357.5428	1387.1358	1414.5199	1449.1414	1485.8817	1492.0385	1494.4906	1503.9402	1512.6434	1529.6408	2978.874	2995.1198	3002.5097	3015.4027	3043.1735	3058.6634	3066.948	3076.5134	3093.8366	3124.1966	3810.3249
CN1C(CO)C11COC1	CN1[C@@H](CO)C21COC2	
InChI=1S/C6H11NO2/c1-7-5(2-8)6(7)3-9-4-6/h5,8H,2-4H2,1H3	InChI=1S/C6H11NO2/c1-7-5(2-8)6(7)3-9-4-6/h5,8H,2-4H2,1H3/t5-,7?/m0/s1
