16
gdb 28897	2.29237	1.8286	1.02417	4.9357	75.03	-0.2184	-0.0143	0.2041	1098.1567	0.124532	-437.9469	-437.93853	-437.937586	-437.979665	31.48	
C	 0.0677506479	 1.5099284108	 0.0098054328	-0.560082
C	 0.0655756323	 0.000722492	 0.0019004854	 0.025773
C	 0.050772862	-0.7327948946	-1.1920565999	 0.286676
O	 0.0709438788	-0.1504969322	-2.4241099234	-0.436058
C	-0.0007216063	-2.1272311317	-1.1517204299	-0.066963
N	-0.0248519032	-2.8148548817	-0.013201855	-0.26665
C	 0.0125323293	-2.1398739537	 1.1324725163	-0.06693
C	 0.0646330928	-0.7459319468	 1.1877405709	 0.286569
O	 0.0989048342	-0.1775126665	 2.4259527212	-0.436086
H	 1.0785905598	 1.9369391313	 0.0031622472	 0.147776
H	-0.4698884775	 1.9184580529	-0.8531694342	 0.135869
H	-0.4545993113	 1.9096160159	 0.886157951	 0.135642
H	 0.2230705282	 0.7952319252	-2.3383903763	 0.296331
H	-0.0204677843	-2.6821903604	-2.0850199529	 0.110915
H	 0.0034079808	-2.7051186075	 2.0597466288	 0.110917
H	 0.2509833465	 0.7689926572	 2.3491853779	 0.296299
94.0275	141.1982	238.6404	259.2045	263.0263	314.126	345.644	362.0451	486.4332	506.3199	553.9288	585.0979	628.3075	684.0564	756.5596	821.5474	894.3241	933.9397	936.0132	1047.8802	1118.8112	1143.9185	1183.0306	1208.2273	1261.2709	1322.1797	1344.3917	1357.3222	1415.0971	1478.298	1492.2912	1509.1224	1523.7229	1610.2704	1650.6235	3017.4679	3074.7066	3082.0675	3170.6379	3174.9914	3835.4857	3836.9673
CC1=C(O)C=NC=C1O	Cc1c(O)cncc1O	
InChI=1S/C6H7NO2/c1-4-5(8)2-7-3-6(4)9/h2-3,8-9H,1H3	InChI=1S/C6H7NO2/c1-4-5(8)2-7-3-6(4)9/h2-3,8-9H,1H3
