18
gdb 50855	5.95468	0.71121	0.66136	2.7657	78.51	-0.2467	0.0074	0.2541	1683.2876	0.148076	-435.294699	-435.285275	-435.284331	-435.330211	33.486	
N	 0.9494586784	 0.0023077468	 0.3834928107	-0.479722
C	-0.1611770399	 0.3351474457	-0.1386600521	 0.106814
N	-1.348961305	-0.1232504227	 0.3968274747	-0.358175
C	-2.5943570079	 0.1759222435	-0.1580926667	 0.523025
O	-2.7217588554	 0.846440689	-1.1621803061	-0.389267
N	-3.6463010921	-0.3824819394	 0.5325272882	-0.387492
C	-4.9964166625	-0.0442693668	 0.1885175065	 0.061083
C	-5.626777433	-0.7199754534	-0.9967419787	-0.233399
C	-6.0492268286	-1.0999976484	 0.3997839536	-0.295032
H	 1.7187668796	 0.4271495646	-0.1301061929	 0.228955
H	-0.3277834676	 0.974551676	-1.0076614553	 0.139192
H	-1.2627641399	-0.7470913479	 1.1862533997	 0.251523
H	-3.4828082353	-0.6845927093	 1.4811457927	 0.24149
H	-5.2781419947	 0.9904298148	 0.3696239024	 0.104182
H	-6.3024735813	-0.1325598365	-1.6067874091	 0.123103
H	-5.0106620414	-1.4210705123	-1.5458664804	 0.127354
H	-5.7212992367	-2.0622391697	 0.7778063751	 0.115924
H	-7.0198622065	-0.7806172342	 0.7610869178	 0.120442
40.8772	59.9187	119.9931	138.9006	169.7717	231.4107	338.4331	381.9133	407.1358	475.559	521.5756	582.927	763.0124	767.2557	782.772	824.6019	836.9341	855.7411	955.2463	1006.3722	1054.4047	1065.9884	1079.1935	1085.9763	1124.8023	1133.0341	1177.3943	1193.2253	1214.289	1269.5656	1311.6507	1391.687	1402.1774	1461.0268	1472.3061	1498.0443	1531.4921	1729.9344	1806.8648	3124.4951	3126.7769	3138.9147	3152.5671	3222.7525	3243.4073	3510.6122	3602.4064	3612.6315
N=CNC(=O)NC1CC1	N=CNC(=O)NC1CC1	
InChI=1S/C5H9N3O/c6-3-7-5(9)8-4-1-2-4/h3-4H,1-2H2,(H3,6,7,8,9)	InChI=1S/C5H9N3O/c6-3-7-5(9)8-4-1-2-4/h3-4H,1-2H2,(H3,6,7,8,9)
