17
gdb 112873	2.16109	1.65199	1.29021	1.7468	64.44	-0.2679	-0.0005	0.2674	1049.6335	0.135073	-496.141454	-496.132735	-496.131791	-496.175348	31.542	
C	 0.4862827956	 1.4040707226	-0.0109363179	-0.406389
C	-0.023768023	-0.0220980186	-0.0143528938	 0.220096
O	 0.4086123164	-0.7271863166	-1.1672363533	-0.272859
C	 1.3048367863	-1.7544023888	-0.7914352317	-0.044973
C	 2.7250764733	-1.5305699172	-1.3271811047	-0.09156
O	 3.3823271773	-0.4448303636	-0.6978388597	-0.415301
C	 1.3021012123	-1.7268560154	 0.7321217616	 0.402859
O	 1.9345569183	-2.4137503404	 1.4822832149	-0.351587
O	 0.4797881113	-0.7330209442	 1.1260658433	-0.221209
H	 1.5762264549	 1.3948210234	-0.0865380662	 0.151161
H	 0.0722909053	 1.9371168226	-0.8711597072	 0.132609
H	 0.1778320179	 1.9161725164	 0.9044211973	 0.129968
H	-1.1185444194	-0.067999803	 0.0370481207	 0.103678
H	 0.9304322772	-2.72401642	-1.1478850138	 0.115305
H	 3.288275466	-2.4670594724	-1.2190015351	 0.114855
H	 2.6573226792	-1.287836048	-2.3913771347	 0.131077
H	 3.6945724212	-0.7498977568	 0.1613645401	 0.30227
72.1812	94.561	114.792	187.3059	251.6154	279.9933	351.3743	413.8745	475.4147	507.2199	544.4058	635.8549	737.6547	741.4507	837.0523	880.6851	896.2749	957.9903	995.1964	1075.8152	1084.7614	1105.2211	1138.3943	1149.4131	1208.633	1240.4782	1312.7814	1341.7034	1378.4393	1390.6947	1404.4083	1413.8519	1418.7863	1479.7321	1485.4616	1493.7961	1879.4941	3012.9509	3028.3109	3036.2727	3050.4103	3101.8218	3130.4082	3144.7032	3808.7188
CC1OC(CO)C(=O)O1	C[C@H]1O[C@@H](CO)C(=O)O1	
InChI=1S/C5H8O4/c1-3-8-4(2-6)5(7)9-3/h3-4,6H,2H2,1H3	InChI=1S/C5H8O4/c1-3-8-4(2-6)5(7)9-3/h3-4,6H,2H2,1H3/t3-,4-/m0/s1
