15
gdb 27948	3.16159	1.28539	0.91903	1.797	76.15	-0.2606	-0.0893	0.1713	1203.6532	0.113276	-416.880391	-416.872452	-416.871507	-416.913817	28.103	
C	-0.3143295141	 1.4133940479	-0.1463385588	-0.469401
C	-0.0607869476	-0.0649357428	-0.0645737924	 0.338546
C	-0.1977400028	-0.9120227393	-1.1639165217	-0.219693
C	 0.0649494775	-2.2625207972	-0.9631527297	 0.224775
C	-0.0536666942	-3.2522790834	-2.0795092685	 0.110689
O	-0.3770003552	-2.9568608868	-3.2030999286	-0.247832
N	 0.4353385294	-2.7577240918	 0.2234258877	-0.301018
C	 0.5364783956	-1.8637441348	 1.2074117337	 0.061188
N	 0.3104698405	-0.553473908	 1.1298122718	-0.293307
H	 0.5859559273	 1.9645105628	 0.1428370924	 0.152423
H	-0.6105798169	 1.7187855441	-1.151896597	 0.130118
H	-1.1012205523	 1.6981805106	 0.559039105	 0.152421
H	-0.4949939611	-0.5563572983	-2.1429604298	 0.133309
H	 0.1856819017	-4.2907799492	-1.7734655185	 0.101463
H	 0.8363744021	-2.2455051338	 2.1804799143	 0.126319
48.2852	119.6682	169.1557	183.2367	244.8807	360.2228	446.6688	468.9145	550.5661	564.3405	677.072	786.8931	804.7464	918.1181	951.265	1000.2271	1004.3729	1022.8594	1053.5239	1064.8297	1158.829	1252.497	1264.8925	1336.3993	1378.8542	1396.8501	1410.5765	1473.8749	1480.1452	1496.7415	1586.1731	1622.7422	1813.9255	2941.1463	3046.3686	3108.3091	3136.4996	3165.7545	3211.7904
CC1=CC(C=O)=NC=N1	Cc1cc(C=O)ncn1	
InChI=1S/C6H6N2O/c1-5-2-6(3-9)8-4-7-5/h2-4H,1H3	InChI=1S/C6H6N2O/c1-5-2-6(3-9)8-4-7-5/h2-4H,1H3
