19
gdb 70614	2.39801	1.86281	1.31179	2.1016	74.29	-0.2299	0.0797	0.3096	1019.0063	0.158896	-422.992224	-422.984161	-422.983216	-423.024483	31.65	
C	-0.4462723771	 1.4040576271	 0.0108532515	-0.486565
C	-0.0258451988	-0.0440328456	 0.0207062412	 0.208747
C	-0.3039812735	-0.9425786857	 1.2241772745	-0.379969
C	 1.1108247943	-0.6086094206	 0.8330282493	 0.083128
O	 1.8405519138	-1.5584606307	 0.0978417531	-0.261118
C	 1.0727774993	-1.9252885408	-1.0465485958	-0.171303
C	 0.0855078798	-0.7849728805	-1.2887802722	 0.361934
C	-0.914416397	-0.7963557092	-2.3572217372	-0.25487
O	 0.2669694131	 0.0097038331	-2.4668455006	-0.272803
H	 0.1417988208	 1.9758672814	-0.7112976584	 0.141503
H	-1.5042162433	 1.5107701151	-0.2569893091	 0.117353
H	-0.3140573871	 1.8518097236	 1.0003273187	 0.115206
H	-0.7060720476	-0.4495516421	 2.1031654257	 0.115477
H	-0.6713334106	-1.9520951801	 1.0721428543	 0.116433
H	 1.7485055742	-0.0115656755	 1.4742924306	 0.10605
H	 1.7446535433	-2.0571981018	-1.898784321	 0.128251
H	 0.5442613768	-2.872302502	-0.865874182	 0.102558
H	-0.9679378778	-1.6409010979	-3.0443385614	 0.114195
H	-1.8461457527	-0.2460056879	-2.2332100912	 0.115792
103.1517	181.6521	217.0829	245.3222	265.4763	340.1964	389.5467	442.4428	471.0636	548.1781	611.8729	715.1561	794.3942	826.4289	847.9768	896.7274	901.2846	963.7442	970.2951	1003.775	1029.6281	1039.3298	1059.0183	1097.1974	1120.5313	1130.4037	1150.9058	1159.8163	1176.5662	1227.6254	1282.2167	1308.6472	1350.6352	1398.3983	1418.1924	1436.4034	1482.6105	1485.6844	1503.9876	1511.4766	1535.1286	2998.5974	3031.2063	3077.1036	3092.4201	3093.3685	3122.9266	3129.3548	3161.6263	3184.6387	3215.9707
CC12CC1OCC21CO1	C[C@]12C[C@H]1OC[C@]12CO1	
InChI=1S/C7H10O2/c1-6-2-5(6)8-3-7(6)4-9-7/h5H,2-4H2,1H3	InChI=1S/C7H10O2/c1-6-2-5(6)8-3-7(6)4-9-7/h5H,2-4H2,1H3/t5-,6+,7-/m1/s1
