14
gdb 17507	5.0736	1.82346	1.66558	1.8518	67.52	-0.2378	0.0147	0.2524	786.8268	0.106496	-345.294742	-345.288476	-345.287532	-345.324848	25.233	
C	 0.0940987196	-1.2134555388	 0.0233576291	-0.321273
C	 0.0277299842	-0.0140727493	-0.0212672376	 0.067596
C	-0.0890118582	 1.410493624	-0.0822367499	 0.351066
C	-1.1376252074	 2.2231844977	 0.7396043153	-0.266257
C	-0.9028534907	 3.3265302326	-0.2877737221	-0.138588
C	 0.583062708	 3.1873490105	-0.6643143136	 0.100615
O	 1.1516170016	 2.158659782	 0.1433214804	-0.32995
C	-0.4244768155	 2.3280996605	-1.3372877335	-0.1973
H	 0.1621084431	-2.2725455149	 0.0659801863	 0.188785
H	-2.1353325722	 1.7893727175	 0.6472665882	 0.115815
H	-0.8796986211	 2.3979609825	 1.7880772092	 0.108592
H	-1.465670042	 4.237338686	-0.4428220927	 0.098225
H	 1.2178179662	 3.986912078	-1.0202016846	 0.113659
H	-0.6943532558	 2.1230487318	-2.3632428845	 0.109015
157.4588	163.0433	410.9966	469.9358	496.7146	545.9636	577.355	629.2141	682.3934	761.338	766.3863	784.4801	811.1805	873.2809	928.4967	962.0567	970.7341	1007.5778	1025.7692	1037.9292	1055.8746	1080.4375	1142.7743	1168.7514	1227.7273	1271.4339	1312.535	1359.909	1485.6594	2242.9362	3058.8037	3127.5054	3206.3096	3213.0722	3228.6401	3501.5208
C#CC12CC3C(O1)C23	C#C[C@@]12C[C@H]3[C@@H](O1)[C@@H]23	
InChI=1S/C7H6O/c1-2-7-3-4-5(7)6(4)8-7/h1,4-6H,3H2	InChI=1S/C7H6O/c1-2-7-3-4-5(7)6(4)8-7/h1,4-6H,3H2/t4-,5+,6-,7+/m1/s1
