22
gdb 102474	2.16778	1.08294	0.83102	3.8012	80.92	-0.2363	0.0296	0.2659	1510.7893	0.19143	-441.510602	-441.499085	-441.49814	-441.548392	39.366	
C	-0.4265687567	 0.9152685533	 0.6342098696	-0.388142
C	-0.1760860721	-0.477914874	 0.053506035	-0.17956
C	 0.4962497351	-0.4400741474	-1.3261420326	 0.033586
O	 1.7341695562	 0.2004286081	-1.1722562716	-0.225918
C	 2.431884691	 0.4341826697	-2.3781001971	-0.242567
C	 0.6585486415	-1.8800880617	-1.8642555383	 0.373105
O	 1.6572641141	-2.5435310552	-1.6579202419	-0.373113
N	-0.4245064036	-2.3419428542	-2.5555633616	-0.309972
C	-0.5046567464	-3.6934369514	-3.0748234016	-0.334536
H	 0.5107516632	 1.469306941	 0.718707468	 0.140098
H	-1.1050178049	 1.4947706295	-0.0024870642	 0.106053
H	-0.8786504329	 0.8469578381	 1.6282655014	 0.111754
H	 0.4743926533	-1.0578681238	 0.7174114644	 0.126361
H	-1.1184551365	-1.0312212016	-0.0338449915	 0.091213
H	-0.139446281	 0.1326901376	-2.0292741448	 0.049917
H	 3.3298832597	 1.0000312235	-2.1197007848	 0.127293
H	 2.728571221	-0.5034690628	-2.8632536286	 0.130875
H	 1.8294083913	 1.0306646565	-3.0819939446	 0.095026
H	-1.2004562299	-1.7189025309	-2.707856625	 0.245106
H	-0.6185727011	-3.6966201803	-4.1646070242	 0.125156
H	 0.4283422095	-4.1941687274	-2.8133082716	 0.172643
H	-1.3431607009	-4.2440940969	-2.6337024442	 0.125621
37.0516	81.3611	94.3001	104.2937	121.0748	181.77	193.8875	211.5386	251.0863	259.1158	323.2234	348.5529	449.2799	478.7312	501.4004	714.1573	754.6717	775.8519	886.8709	937.6486	961.2857	1043.9533	1056.5107	1107.5331	1143.7398	1154.1924	1168.5417	1173.7206	1181.6709	1222.9103	1238.5763	1288.9831	1317.8527	1375.1615	1389.3666	1406.5405	1437.6975	1477.6195	1482.0357	1486.1184	1493.0587	1495.0473	1499.6869	1508.8761	1511.688	1559.5102	1785.9257	2909.3161	2977.4805	3026.769	3035.5117	3038.2068	3059.628	3078.4874	3079.3784	3101.6852	3119.9686	3132.5121	3152.5238	3643.0375
CCC(OC)C(=O)NC	CC[C@@H](OC)C(=O)NC	
InChI=1S/C6H13NO2/c1-4-5(9-3)6(8)7-2/h5H,4H2,1-3H3,(H,7,8)	InChI=1S/C6H13NO2/c1-4-5(9-3)6(8)7-2/h5H,4H2,1-3H3,(H,7,8)/t5-/m1/s1
