20
gdb 86103	2.32829	1.32606	0.91579	4.1446	86.66	-0.2034	0.0038	0.2072	1317.8866	0.170667	-403.201032	-403.191758	-403.190814	-403.235263	34.126	
C	 0.1433244793	 1.5783949267	-0.0019930549	-0.388716
C	 0.0204275734	 0.0527819392	 0.0134206071	 0.023349
C	 0.7434847884	-0.6184899731	-1.1899491974	-0.332124
C	 1.9580546542	-1.2830352082	-0.5708070345	 0.235216
C	 3.0326314396	-1.9275988835	-1.3802440185	-0.488159
C	 1.8671320148	-1.213438236	 0.7596830938	-0.090242
N	 0.7149805899	-0.5324495091	 1.1828068896	-0.048977
C	 0.2950420305	-0.4508279727	 2.4749370634	 0.135804
O	 0.8794387275	-0.9234499999	 3.4295280886	-0.338979
H	 1.1962193965	 1.8758686853	-0.0369248973	 0.131992
H	-0.3616377361	 1.9890993408	-0.8823956905	 0.120936
H	-0.3089005382	 2.0245468987	 0.8886936506	 0.123813
H	-1.0365962276	-0.2283174489	 0.0479042654	 0.09716
H	 0.1050018389	-1.3556298226	-1.6950470134	 0.11275
H	 1.0141712783	 0.1270027435	-1.9478525236	 0.109173
H	 3.5250565896	-1.2053425264	-2.0447474055	 0.124811
H	 3.799862785	-2.3758044291	-0.7431670598	 0.130178
H	 2.626909693	-2.7171861677	-2.0267692282	 0.125503
H	 2.5270223417	-1.6037996876	 1.5201781919	 0.147846
H	-0.6606312786	 0.1024812604	 2.5624915333	 0.068664
67.4251	100.8874	180.2449	187.2888	222.8115	255.8018	293.7986	338.0037	366.4226	410.8037	502.2541	533.8537	597.2892	731.4165	853.7765	883.4291	892.2415	901.9197	937.2406	1018.3291	1022.1583	1040.504	1043.8354	1109.7266	1116.4654	1160.5199	1220.8273	1248.451	1275.1038	1287.9052	1341.2442	1369.5659	1407.9021	1412.5618	1438.6616	1445.9124	1476.179	1487.0518	1492.8032	1494.4434	1497.54	1728.0039	1783.2696	2936.8057	3008.6021	3012.7549	3035.4851	3043.1187	3051.2621	3057.3395	3109.895	3110.4554	3115.2117	3257.2409
CC1CC(C)=CN1C=O	C[C@H]1CC(=CN1C=O)C	
InChI=1S/C7H11NO/c1-6-3-7(2)8(4-6)5-9/h4-5,7H,3H2,1-2H3	InChI=1S/C7H11NO/c1-6-3-7(2)8(4-6)5-9/h4-5,7H,3H2,1-2H3/t7-/m0/s1
