22
gdb 9963	2.41424	1.57915	1.42058	1.3573	78.24	-0.2406	0.0732	0.3138	1082.743	0.197746	-350.200098	-350.190005	-350.189061	-350.234295	37.29	
C	 2.721357272	 0.6851380607	 0.827718397	-0.397234
C	 1.5991604527	-0.3175895299	 0.5269313594	-0.225447
C	 1.5588895715	-0.7503610045	-0.9272918124	 0.383446
O	 1.3308341356	 0.3216446896	-1.8188571496	-0.473695
C	 2.4034370968	-1.8907235158	-1.4670255692	-0.0851
C	 3.3627207049	-2.7125229998	-0.6315181321	-0.414422
C	 0.8851033045	-2.0212283127	-1.3700048552	-0.063702
C	 0.1864288799	-2.9794863811	-0.429129485	-0.415269
H	 3.7072194995	 0.2609312805	 0.608268853	 0.116725
H	 2.6043685056	 1.5978667008	 0.234063429	 0.113002
H	 2.7118381103	 0.9807570174	 1.8809780668	 0.114844
H	 1.7081595886	-1.1897720881	 1.1777646571	 0.093722
H	 0.631175854	 0.1361184815	 0.7737275586	 0.103629
H	 2.1492273584	 0.8244106472	-1.8908425131	 0.277848
H	 2.7557873337	-1.7113366527	-2.4802944043	 0.080444
H	 3.0096754369	-2.8664649713	 0.3910794795	 0.115958
H	 3.5142040885	-3.7034540423	-1.0748178207	 0.117532
H	 4.3442937043	-2.2293299381	-0.5680812919	 0.114768
H	 0.3783175215	-1.9049405135	-2.3242798504	 0.092598
H	 0.7164899826	-3.1127563908	 0.5170709192	 0.113624
H	-0.8232562789	-2.6263955375	-0.1918323441	 0.120271
H	 0.0893502871	-3.9693242196	-0.8886899315	 0.116457
81.6239	131.2681	164.8487	170.8074	200.4062	232.542	250.7309	277.6397	287.0068	338.3828	413.5891	463.5368	523.5757	541.2338	683.6937	777.6767	781.2005	826.1881	907.4653	976.3508	1008.3815	1024.437	1040.6166	1046.7083	1091.0917	1110.4211	1143.9238	1160.0848	1175.8771	1228.9462	1289.943	1310.6232	1313.1251	1363.2706	1378.5227	1406.0149	1415.2903	1423.7442	1461.3461	1472.1945	1490.6126	1495.5161	1500.254	1500.4655	1512.0707	1518.0206	3028.5728	3030.963	3034.128	3035.1544	3079.2176	3081.8139	3087.4826	3104.1702	3105.4765	3106.3199	3116.7888	3131.1957	3147.8973	3800.196
CCC1(O)C(C)C1C	CC[C@@]1(O)[C@@H](C)[C@H]1C	
InChI=1S/C7H14O/c1-4-7(8)5(2)6(7)3/h5-6,8H,4H2,1-3H3	InChI=1S/C7H14O/c1-4-7(8)5(2)6(7)3/h5-6,8H,4H2,1-3H3/t5-,6+,7+
