19
gdb 87199	3.74066	0.945	0.85877	6.9547	72.36	-0.239	0.0324	0.2714	1365.8061	0.159894	-456.359267	-456.350072	-456.349128	-456.393324	34.818	
N	 0.0224121701	 1.4483457279	 0.1338553285	-0.516981
C	 0.0859405386	 0.0123962574	 0.0203434523	-0.081322
C	-0.3083658563	-0.7669289828	 1.2585511635	-0.31613
C	-1.2369338129	-0.7341678331	 0.0758766887	 0.32255
N	-2.4822959462	 0.0045515818	 0.2322274178	-0.566556
H	-2.319446246	 0.819718988	 0.8163768334	 0.251038
H	-2.7818708999	 0.3641144131	-0.6729458331	 0.23588
H	-3.340714278	-1.5387151361	 0.5994508261	 0.315846
C	-1.4338188856	-1.9968582978	-0.7404344087	-0.405035
C	-2.3819566413	-3.0300963362	-0.1082642419	 0.41232
O	-3.4135015513	-2.5263002495	 0.5814423973	-0.374098
O	-2.2235914408	-4.2144678324	-0.248103084	-0.335426
H	 0.824822244	 1.8008768834	 0.646541728	 0.239559
H	 0.0442077797	 1.8843110681	-0.7830116288	 0.233576
H	 0.8681947868	-0.4283787663	-0.6006707213	 0.079677
H	 0.2111628155	-1.6924278835	 1.4796464698	 0.131251
H	-0.584404135	-0.1832984397	 2.1307775079	 0.12071
H	-1.8440745514	-1.7394999044	-1.7283010726	 0.120142
H	-0.4838249001	-2.503299258	-0.9190489828	 0.133
72.112	90.2701	146.7807	237.5516	283.2912	294.7616	331.3103	351.4993	387.4034	430.1681	471.5449	568.8241	595.774	668.3429	758.204	829.5849	847.0075	870.5398	914.7691	918.3887	950.6246	970.6834	1001.8839	1025.7107	1056.5274	1094.0375	1146.8026	1156.7954	1194.7361	1265.6235	1275.0786	1305.2594	1334.712	1365.3596	1429.2955	1461.0055	1482.5391	1495.2763	1658.0609	1662.1703	1857.619	3009.2031	3073.1552	3118.8635	3133.9072	3223.0751	3285.6443	3465.9655	3493.2748	3557.0503	3567.1127
NC1CC1([NH3+])CC([O-])=O	N[C@H]1C[C@]1(N)CC(=O)O	
InChI=1S/C5H10N2O2/c6-3-1-5(3,7)2-4(8)9/h3H,1-2,6-7H2,(H,8,9)	InChI=1S/C5H10N2O2/c6-3-1-5(3,7)2-4(8)9/h3H,1-2,6-7H2,(H,8,9)/t3-,5-/m0/s1
