19
gdb 95857	2.3813	1.43453	1.13073	0.3474	77.28	-0.24	0.0368	0.2768	1161.7528	0.158492	-422.988959	-422.980201	-422.979257	-423.022138	33.46	
C	 0.0145936246	 1.5381076062	 0.0382982711	-0.407299
C	 0.0234952997	 0.0219411807	-0.0561037276	 0.118791
C	 0.7948837858	-0.4966640572	-1.2685363257	-0.080916
O	 0.8718578177	-1.9141516564	-1.2570234254	-0.248288
C	 1.4907367209	-2.3813683113	-0.0775878912	-0.090604
C	 0.7375999721	-1.8934822065	 1.172500829	-0.077785
O	 0.636501442	-0.4713442911	 1.1417020259	-0.268494
C	-0.5710768707	-2.5420546243	 1.3246630729	 0.354404
C	-1.6354361052	-3.0826812207	 1.4634013706	-0.487084
H	 1.0357907625	 1.9285039346	 0.0891176405	 0.124087
H	-0.4838629727	 1.9748130681	-0.8326406492	 0.117993
H	-0.5178895573	 1.8560901367	 0.9380751236	 0.131732
H	-1.0060667281	-0.3624017116	-0.1110521014	 0.088443
H	 0.2911200626	-0.2193959032	-2.1991356772	 0.10958
H	 1.8083204082	-0.0601051393	-1.2703894385	 0.08808
H	 1.498766866	-3.4730569754	-0.1268992761	 0.119578
H	 2.5281565738	-2.0139721193	-0.0127672635	 0.093201
H	 1.3464571774	-2.1163776416	 2.0569397198	 0.113632
H	-2.5760968493	-3.5602250981	 1.5869789425	 0.200947
107.9258	112.0749	193.2633	208.2783	270.6489	296.2731	338.3426	404.9521	420.064	474.524	539.9392	603.6093	627.1843	673.8564	754.0438	800.4566	869.3315	897.0793	924.5898	964.4783	995.3961	1040.2499	1117.2359	1127.9683	1145.4462	1158.8897	1166.8043	1260.1327	1305.7034	1321.5425	1338.2895	1362.2683	1383.887	1393.3516	1408.7881	1424.4839	1476.1733	1482.6049	1490.4489	1500.5211	2232.1722	2962.8311	2974.5643	3002.256	3041.6788	3042.7593	3088.4523	3102.0285	3114.8619	3125.0144	3502.3532
CC1COCC(O1)C#C	C[C@H]1COC[C@@H](O1)C#C	
InChI=1S/C7H10O2/c1-3-7-5-8-4-6(2)9-7/h1,6-7H,4-5H2,2H3	InChI=1S/C7H10O2/c1-3-7-5-8-4-6(2)9-7/h1,6-7H,4-5H2,2H3/t6-,7-/m0/s1
