18
gdb 54862	3.10346	1.31014	1.23284	3.2061	77.09	-0.2316	-0.0054	0.2262	1086.081	0.147958	-401.945345	-401.93726	-401.936316	-401.978361	30.845	
C	 0.581337937	 0.4870003399	-0.7776553666	-0.484923
C	-0.1649698521	 0.1562557818	 0.4950410717	 0.382456
O	 0.106791081	 0.6608457919	 1.5605456464	-0.313045
C	-1.2907093204	-0.8920717169	 0.4100117618	-0.117427
C	-2.1571121491	-0.8756283584	-0.8374013722	-0.11219
C	-2.2298829593	-2.0699234907	-1.4302801945	-0.05427
C	-1.377669073	-3.0657482628	-0.7175152172	-0.089229
N	 0.0681976037	-2.704087672	-0.7571806623	-0.32549
C	-0.7515250061	-2.3330342942	 0.4170083279	-0.069366
H	 1.4262606975	 1.1386281327	-0.5510770209	 0.129552
H	 0.9053028203	-0.4384018065	-1.2636984172	 0.172371
H	-0.0909488516	 0.9910879207	-1.481960186	 0.132902
H	-1.8935521875	-0.7332220938	 1.3119505973	 0.103484
H	-2.6475354651	 0.026933653	-1.1846877012	 0.106236
H	-2.8014349056	-2.3015376286	-2.3207380051	 0.105648
H	-1.6494735578	-4.1143006816	-0.6644176841	 0.096268
H	 0.621267974	-3.5223482366	-0.5074382206	 0.233431
H	-0.5347015958	-2.802774848	 1.3691829627	 0.10359
55.3768	139.7303	173.5294	181.7667	307.2752	388.9797	422.0118	465.0197	569.8314	596.745	706.4153	752.1854	784.0382	823.8741	834.5132	855.2096	916.4266	945.0825	950.2676	971.318	999.2533	1020.3199	1068.5145	1082.8341	1116.5355	1151.6084	1167.1492	1221.1321	1238.8984	1273.9264	1296.5011	1319.4278	1381.0309	1391.8117	1404.003	1462.9482	1474.154	1659.1094	1803.7774	3036.0147	3041.1943	3102.244	3153.5117	3170.5593	3183.7077	3189.8123	3217.0337	3479.398
CC(=O)C1C=CC2NC12	CC(=O)[C@H]1C=C[C@H]2N[C@@H]12	
InChI=1S/C7H9NO/c1-4(9)5-2-3-6-7(5)8-6/h2-3,5-8H,1H3	InChI=1S/C7H9NO/c1-4(9)5-2-3-6-7(5)8-6/h2-3,5-8H,1H3/t5-,6-,7+/m1/s1
