17
gdb 75779	2.41298	1.29647	1.22511	3.4055	74.53	-0.2658	0.008	0.2738	1126.4193	0.134532	-418.049036	-418.039702	-418.038758	-418.083296	33.19	
C	-0.0009581392	 1.4213361564	 0.0176687266	-0.35994
N	 0.0821852821	-0.0183787796	-0.0152861119	-0.080702
C	 0.0187392628	-0.9219615678	-1.0524567396	 0.42918
O	-0.0275177981	-0.7744564411	-2.2427008595	-0.360731
C	 0.0325733801	-2.1127096277	-0.0698216411	-0.436111
C	 0.0979080804	-1.0246482256	 1.0597787828	 0.140467
C	 1.3563088186	-1.0232244273	 1.930944268	-0.441013
C	-1.1129389183	-0.9647702075	 1.8951141522	 0.263265
N	-2.0589756477	-0.8925698318	 2.5552026871	-0.333783
H	 0.8917142684	 1.8690581217	 0.4683525709	 0.135449
H	-0.0833117714	 1.7638787543	-1.0161974729	 0.170457
H	-0.8848828771	 1.7526806547	 0.5745946671	 0.149688
H	-0.8746500598	-2.7172709098	-0.0815466588	 0.155247
H	 0.9131112506	-2.754440871	-0.1277546561	 0.142215
H	 2.2414853042	-1.0779037926	 1.2917283514	 0.13538
H	 1.4145853728	-0.1146814538	 2.5367527831	 0.142929
H	 1.3520276516	-1.8815597816	 2.6081388207	 0.148002
75.5352	100.4844	150.6684	182.5324	194.7877	231.8678	257.6993	314.3898	393.326	458.5963	529.8988	557.8526	610.0493	622.2072	729.6932	811.6522	891.4866	935.729	964.3944	1063.4389	1064.4918	1127.6167	1153.5558	1169.772	1203.2418	1239.6151	1284.8926	1395.1434	1409.0809	1444.0614	1463.3825	1482.38	1484.5964	1494.759	1515.6574	1892.7231	2352.5408	3025.9765	3046.6102	3084.3922	3093.3659	3124.2776	3130.3486	3136.5646	3157.3239
CN1C(=O)CC1(C)C#N	CN1C(=O)C[C@]1(C)C#N	
InChI=1S/C6H8N2O/c1-6(4-7)3-5(9)8(6)2/h3H2,1-2H3	InChI=1S/C6H8N2O/c1-6(4-7)3-5(9)8(6)2/h3H2,1-2H3/t6-/m1/s1
