19
gdb 87849	3.67603	1.28272	1.2161	0.6699	74.78	-0.2412	0.0831	0.3243	1102.8802	0.159666	-422.987654	-422.980013	-422.979069	-423.019639	30.391	
C	-0.0065327677	 1.5108814238	-0.121761421	-0.419137
C	-0.0219952977	 0.0177451214	 0.0733304531	-0.041324
O	 1.2479463072	-0.663946984	-0.0142501426	-0.313362
C	 0.5666215222	-0.6435135914	 1.236362429	 0.479731
C	 1.2061559842	 0.0021390126	 2.4815653471	-0.320263
C	 0.9398255077	-1.1848317647	 3.4343089575	 0.070798
C	 1.3597237938	-2.4304805836	 2.6206769427	-0.236469
C	 0.1046701886	-1.9661299004	 1.8508036083	-0.014742
O	-0.4583437293	-1.5029206181	 3.1201600036	-0.298628
H	 0.8159411335	 1.9711864975	 0.430986506	 0.127237
H	 0.1116976911	 1.7585056485	-1.1817069806	 0.130013
H	-0.9494017386	 1.9494045366	 0.2227858793	 0.125924
H	-0.8280222051	-0.506636104	-0.444674435	 0.088342
H	 2.2658034377	 0.2245410336	 2.3316435321	 0.115169
H	 0.6888915126	 0.9048946667	 2.81462063	 0.114891
H	 1.143205925	-1.0640831352	 4.4975953178	 0.084046
H	 2.324133804	-2.4374451941	 2.1074700785	 0.11134
H	 1.1810028027	-3.3557821444	 3.1687376467	 0.113004
H	-0.5406993618	-2.6230353707	 1.2692807675	 0.083431
111.0978	166.9672	197.2813	239.7672	361.0697	405.4393	448.9959	526.3322	532.3334	574.7076	762.8712	793.4889	832.2579	844.8522	872.8061	899.6097	907.0424	945.6971	988.1208	1000.4664	1015.1169	1034.7298	1062.0455	1093.2119	1119.3389	1147.21	1170.9521	1193.7199	1207.6646	1224.4964	1250.1436	1276.9721	1304.4217	1310.0733	1367.8795	1410.0424	1469.431	1477.6032	1488.789	1492.622	1530.7613	3037.9655	3066.347	3074.3242	3083.3241	3101.6105	3119.3814	3128.2385	3129.7888	3135.8914	3150.065
CC1OC11CC2CC1O2	C[C@H]1O[C@]21C[C@@H]1C[C@H]2O1	
InChI=1S/C7H10O2/c1-4-7(9-4)3-5-2-6(7)8-5/h4-6H,2-3H2,1H3	InChI=1S/C7H10O2/c1-4-7(9-4)3-5-2-6(7)8-5/h4-6H,2-3H2,1H3/t4-,5+,6-,7+/m1/s1
