18
gdb 18017	3.71925	1.84874	1.49332	1.623	67.64	-0.2304	0.0594	0.2898	897.5484	0.153918	-384.887521	-384.879931	-384.878986	-384.92007	27.86	
C	 0.1038549009	 0.6822499708	-0.4873225997	-0.23972
O	-0.4628131589	 0.0101120021	 0.6191124472	-0.228367
C	 0.4892463657	-0.4665456591	 1.5216466393	 0.129011
C	-0.1225888619	-1.3972464923	 2.6029063814	-0.277549
C	 0.8015510011	-2.5543676595	 2.1419990444	-0.079683
C	 0.2600429561	-3.3577365339	 0.9431968097	-0.073505
O	 0.834165405	-2.4281312772	-0.0083344093	-0.280749
C	 1.4127701119	-1.640708389	 1.0417237421	 0.074184
H	 0.71737729	 0.0068148128	-1.0974032766	 0.127377
H	-0.7238493771	 1.0552723884	-1.0951061896	 0.125677
H	 0.7218996981	 1.5365113665	-0.1679930808	 0.09796
H	 1.0836566584	 0.3605670848	 1.9455369826	 0.057468
H	 0.0568078729	-1.0582277087	 3.6253084343	 0.104537
H	-1.19289018	-1.5736978005	 2.4709626046	 0.111288
H	 1.3797105999	-3.0903950703	 2.8926057155	 0.076917
H	 0.690896165	-4.3594217016	 0.8215623504	 0.101064
H	-0.8317483637	-3.4214180318	 0.8568617714	 0.105764
H	 2.4765594366	-1.4414372315	 0.883822553	 0.068327
45.2268	116.2915	186.4804	236.8098	277.8881	362.4087	425.0447	594.7683	671.0025	757.8174	799.2839	849.2768	896.7345	920.6861	964.9151	993.3798	1024.9212	1030.2232	1075.0708	1107.9491	1145.7703	1146.7968	1172.6395	1178.3272	1190.4716	1217.863	1253.7199	1262.3767	1286.454	1300.3507	1323.346	1360.1753	1371.6056	1472.4598	1481.9744	1489.3011	1507.3976	1520.2208	2952.4558	2979.1972	3011.1345	3048.5478	3056.8745	3064.1505	3067.6945	3117.6144	3118.2584	3128.6415
COC1CC2COC12	CO[C@H]1C[C@H]2CO[C@@H]12	
InChI=1S/C6H10O2/c1-7-5-2-4-3-8-6(4)5/h4-6H,2-3H2,1H3	InChI=1S/C6H10O2/c1-7-5-2-4-3-8-6(4)5/h4-6H,2-3H2,1H3/t4-,5-,6+/m0/s1
