18
gdb 85200	2.56306	1.21079	0.86189	2.2357	79.39	-0.2324	-0.0294	0.203	1316.4287	0.144537	-401.904117	-401.894695	-401.89375	-401.938778	34.212	
C	-0.1762360417	 1.5119344696	 0.0542857159	-0.332096
N	-0.1077993805	 0.0640153853	 0.0499035893	-0.083189
C	-1.3239444648	-0.6896541324	 0.4290091529	-0.288028
C	-0.4166486825	-1.609993778	 1.2553024611	 0.384577
O	-0.5216178587	-2.6782346662	 1.7772998015	-0.292912
C	 0.728982536	-0.5992719519	 1.0761123201	-0.079276
C	 2.0945789318	-1.1313231792	 0.624652484	-0.355333
C	 3.0755101191	-0.0734321888	 0.4165393589	 0.297692
C	 3.8665648614	 0.8175014044	 0.2556945767	-0.442436
H	 0.8176566392	 1.9228946017	-0.1396696885	 0.142831
H	-0.8479650777	 1.8535526799	-0.7394823876	 0.124919
H	-0.5422012334	 1.9230600046	 1.0144809707	 0.093326
H	-2.0238612278	-0.1335882425	 1.0764082899	 0.115606
H	-1.8848402832	-1.1361278556	-0.398825025	 0.133816
H	 0.8483089327	 0.0026112399	 1.9943007793	 0.096917
H	 2.4542634144	-1.8350837265	 1.3861088672	 0.146135
H	 1.9578450926	-1.7028195794	-0.3004045063	 0.139077
H	 4.5797499431	 1.5903591251	 0.10900665	 0.198374
60.1944	91.4341	111.8168	202.4002	216.155	262.792	285.1957	339.5595	395.8657	432.9855	540.3555	569.5355	620.8576	632.4083	640.7274	770.9084	819.8597	912.5501	963.6522	990.7841	1014.5269	1070.108	1105.5568	1116.1108	1151.1479	1190.2682	1204.8307	1234.9361	1263.723	1289.1053	1330.6687	1365.9824	1451.4725	1457.7692	1475.9381	1496.5329	1498.4786	1916.5208	2236.8338	2927.591	2952.5479	2966.2211	3030.0939	3068.1772	3070.7711	3071.8485	3121.277	3505.5515
CN1CC(=O)C1CC#C	CN1CC(=O)[C@H]1CC#C	
InChI=1S/C7H9NO/c1-3-4-6-7(9)5-8(6)2/h1,6H,4-5H2,2H3	InChI=1S/C7H9NO/c1-3-4-6-7(9)5-8(6)2/h1,6H,4-5H2,2H3/t6-/m1/s1
