15
gdb 7298	3.90043	1.33723	1.10034	5.4561	62.91	-0.2586	0.0191	0.2776	1049.6964	0.118729	-396.025279	-396.016497	-396.015553	-396.059285	30.307	
C	-0.3566798778	 1.3612090676	 0.0591345417	-0.363936
N	-0.1210404645	-0.0680021895	-0.0511275325	-0.106031
C	 0.011349557	-0.8476411641	 1.1633725547	-0.295835
C	-1.2032407304	-0.8129210613	 1.9922886917	 0.265148
N	-2.1494461776	-0.7532790423	 2.652567587	-0.30855
C	 0.0431992333	-0.7411465554	-1.2508346343	 0.471896
N	 0.0009048024	 0.0527692197	-2.3839084539	-0.571008
O	 0.1747203134	-1.9516757301	-1.3127293807	-0.402336
H	 0.5749503763	 1.9449232515	 0.0887834559	 0.124667
H	-0.9720570535	 1.7078989054	-0.7737576791	 0.152799
H	-0.9142955994	 1.5640305474	 0.9772955581	 0.160276
H	 0.2170158296	-1.8765904766	 0.8573462963	 0.201036
H	 0.8516172591	-0.4949629443	 1.7772874419	 0.147342
H	 0.3452708655	 0.9982243011	-2.3399040284	 0.256831
H	 0.2783045367	-0.4561202191	-3.2091090084	 0.267703
49.0642	95.964	120.7546	151.3283	241.0931	301.4029	373.8083	377.9429	436.9106	458.8741	546.6812	593.8501	614.1933	770.4312	799.3593	924.5848	968.9983	1061.0219	1102.9452	1150.4865	1196.4653	1284.2388	1317.4098	1374.7752	1424.0559	1462.1527	1487.9015	1504.2956	1522.0515	1624.3538	1782.7759	2360.7715	2998.0919	3013.9782	3090.501	3109.967	3128.4494	3590.6729	3703.5975
CN(CC#N)C(N)=O	CN(CC#N)C(=O)N	
InChI=1S/C4H7N3O/c1-7(3-2-5)4(6)8/h3H2,1H3,(H2,6,8)	InChI=1S/C4H7N3O/c1-7(3-2-5)4(6)8/h3H2,1H3,(H2,6,8)
