20
gdb 112952	3.25201	0.96763	0.87041	4.5592	75.46	-0.2459	0.0249	0.2708	1383.365	0.17056	-440.305221	-440.295205	-440.294261	-440.341813	35.804	
N	 0.328449783	 0.9996083663	-0.0664352584	-0.529528
C	-0.0341238453	-0.267536595	-0.4177137476	 0.411217
O	 0.6971375994	-0.9904680583	-1.0733532192	-0.37145
C	-1.4191177695	-0.6963895293	 0.0335736246	-0.089145
C	-2.4359117772	-0.8252795391	-1.1548596172	-0.259649
C	-2.4694227792	-2.3691035208	-0.9646344745	 0.030363
C	-1.8595476379	-3.1607371763	-2.1163524183	-0.08995
O	-1.7832238638	-4.5518624605	-1.8361810444	-0.426557
C	-1.5559149411	-2.2252651524	 0.2890462602	-0.252806
H	 1.2075951607	 1.3573581991	-0.402934766	 0.260447
H	-0.2814577895	 1.6121855346	 0.4445810621	 0.258658
H	-1.7762524689	-0.0643711915	 0.8508163811	 0.063255
H	-3.3870878423	-0.3237816726	-0.9648907285	 0.1006
H	-2.0531031559	-0.4882127823	-2.1222241885	 0.112174
H	-3.4607506696	-2.7737696675	-0.7439057415	 0.072775
H	-2.49397212	-3.0671517017	-3.0057350529	 0.099952
H	-0.8718150899	-2.7448189813	-2.3608677363	 0.11848
H	-1.0889582211	-4.6771199277	-1.1817243672	 0.284344
H	-0.6029697788	-2.7574860037	 0.2292828759	 0.109648
H	-2.0413661331	-2.4671300702	 1.2365713066	 0.097173
20.2242	48.7484	126.6165	147.0712	194.101	242.4045	250.1211	281.5928	355.7281	398.9334	460.9156	586.7046	597.0286	718.1527	755.5291	790.7712	797.3912	848.5208	909.704	968.8654	995.5699	1024.051	1057.5627	1066.516	1086.9117	1095.6632	1135.2176	1169.3836	1220.2209	1250.6174	1261.3034	1271.6874	1283.6439	1294.2233	1350.2053	1403.2111	1411.3184	1418.8821	1462.8702	1479.6502	1509.1055	1616.0244	1780.1929	3009.8694	3055.8328	3057.6361	3060.5209	3065.7416	3075.1276	3113.7772	3120.1685	3602.9973	3742.3403	3820.0583
NC(=O)C1CC(CO)C1	NC(=O)[C@H]1C[C@@H](CO)C1	
InChI=1S/C6H11NO2/c7-6(9)5-1-4(2-5)3-8/h4-5,8H,1-3H2,(H2,7,9)	InChI=1S/C6H11NO2/c7-6(9)5-1-4(2-5)3-8/h4-5,8H,1-3H2,(H2,7,9)/t4-,5+
