17
gdb 13828	4.44177	1.45078	1.12224	3.5931	71.86	-0.2405	-0.0211	0.2194	1042.9953	0.143551	-363.918415	-363.910488	-363.909543	-363.95098	29.183	
N	-0.0332509534	 1.33471993	 0.0628942347	-0.540066
C	 0.0422872159	-0.034987174	 0.0906766522	 0.30478
O	 1.1115546982	-0.6195122292	 0.1293761479	-0.366525
C	-1.2694196855	-0.7398265444	 0.0974121344	 0.249717
C	-1.3675464222	-2.072175795	 0.0518153563	-0.125055
C	-2.7947807514	-2.5451533595	 0.0206048507	-0.25766
C	-3.5989745249	-1.2688719371	 0.3827643203	-0.21254
C	-2.6384689359	-0.0825232037	 0.1037712583	-0.34055
H	 0.8312047372	 1.8374652574	-0.0565546957	 0.258084
H	-0.8920309579	 1.8133931194	-0.1448618161	 0.256677
H	-0.5073581258	-2.7293888179	 0.007359257	 0.121887
H	-3.0474638306	-2.9222675097	-0.981087293	 0.114185
H	-2.983755579	-3.374661337	 0.7110992368	 0.111611
H	-4.5396839595	-1.1881488733	-0.1668951292	 0.101487
H	-3.8480628029	-1.2882708669	 1.4480043952	 0.111816
H	-2.7321677929	 0.7061727291	 0.8593230621	 0.106712
H	-2.8497205293	 0.3875596417	-0.8681959118	 0.10544
67.5958	124.5466	192.4968	199.7062	241.3183	391.8577	401.9636	481.9215	570.4101	625.6831	664.9035	756.562	819.5333	856.2381	885.8522	915.641	931.7809	961.796	1032.3942	1069.1284	1086.3736	1102.4759	1154.1529	1230.4728	1232.6286	1268.1196	1315.7282	1328.3346	1352.9742	1368.0597	1479.3956	1489.825	1507.7328	1615.226	1692.9936	1774.5821	2995.225	3005.1984	3044.0986	3053.5181	3065.5822	3105.9282	3215.3089	3601.0278	3735.4228
NC(=O)C1=CCCC1	NC(=O)C1=CCCC1	
InChI=1S/C6H9NO/c7-6(8)5-3-1-2-4-5/h3H,1-2,4H2,(H2,7,8)	InChI=1S/C6H9NO/c7-6(8)5-3-1-2-4-5/h3H,1-2,4H2,(H2,7,8)
