23
gdb 68074	2.47772	1.64499	1.20811	1.3689	85.39	-0.2437	0.0814	0.3252	1140.1753	0.206363	-388.294716	-388.28601	-388.285066	-388.327126	35.216	
C	-0.0885826815	 1.5480434864	 0.014513788	-0.48365
C	 0.0312484843	 0.0351890047	-0.0078082951	 0.298049
C	 1.0978252047	-0.6569982496	-0.909143995	-0.289082
C	 1.128850966	-1.7790401876	 0.1721390798	 0.298049
C	 2.4013014657	-2.5674974549	 0.4227204035	-0.48365
C	 0.694138381	-0.6925297031	 1.194944007	-0.286259
C	-0.0834808607	-2.6947975464	-0.0736404317	-0.098344
O	-1.1667412493	-2.0042045149	-0.6787989853	-0.264305
C	-1.3199678952	-0.6510039439	-0.2763565237	-0.098344
H	 0.8731151217	 2.0125727738	 0.256325225	 0.112118
H	-0.4155832992	 1.9378200813	-0.9564931745	 0.115607
H	-0.8150238889	 1.8791692992	 0.7667210797	 0.114872
H	 0.8122369323	-0.9308603817	-1.9282501799	 0.099523
H	 2.0347376909	-0.0916172117	-0.9237475514	 0.086922
H	 3.2387536477	-1.8976022297	 0.6441637865	 0.112118
H	 2.2869616633	-3.248120779	 1.275278425	 0.114872
H	 2.6757723046	-3.1718949544	-0.4496780983	 0.115607
H	 1.5523539731	-0.1346795889	 1.5844330214	 0.085293
H	 0.0520282079	-0.9982848838	 2.0289129456	 0.084732
H	 0.1747268906	-3.5027244356	-0.7686178562	 0.099345
H	-0.3930125985	-3.1580916213	 0.8792842689	 0.083592
H	-1.9553744603	-0.5756588331	 0.6231424474	 0.083592
H	-1.8490483802	-0.1576210658	-1.1004061466	 0.099345
182.9729	203.4516	213.5259	226.3955	241.3708	268.2587	344.7231	413.3908	417.9135	435.7256	462.1107	553.7849	620.9788	702.5057	847.0062	873.5659	888.2981	909.4406	916.3606	919.5659	972.8827	982.4862	1011.4122	1034.4439	1055.2743	1078.5452	1110.3891	1140.0966	1159.9692	1206.9274	1217.2455	1268.1713	1273.9767	1280.3461	1287.9731	1301.6588	1303.4382	1389.1446	1412.7781	1413.5232	1418.2592	1472.1545	1491.1071	1492.1234	1493.6192	1493.893	1503.6681	1504.8521	1516.1595	2949.3734	2956.5594	3018.8769	3019.3194	3026.2588	3047.1725	3047.5253	3050.8973	3080.2841	3082.2968	3082.652	3093.8323	3094.0641	3106.0847
CC12CC(C)(C1)COC2	C[C@@]12C[C@@](C)(C1)COC2	
InChI=1S/C8H14O/c1-7-3-8(2,4-7)6-9-5-7/h3-6H2,1-2H3	InChI=1S/C8H14O/c1-7-3-8(2,4-7)6-9-5-7/h3-6H2,1-2H3/t7-,8+
