18
gdb 77072	2.79693	1.26588	1.14935	4.3989	72.43	-0.2766	0.0006	0.2772	1147.281	0.144716	-439.083751	-439.074044	-439.073099	-439.118793	35.083	
C	-0.4634772724	 1.548210004	 0.1026843842	-0.419341
C	-0.0882512842	 0.0755611488	 0.0629122759	 0.388962
C	-1.245916694	-0.8186640317	-0.349831659	-0.434632
O	 1.0620830084	-0.139266219	-0.8309543276	-0.319627
C	 1.9157259736	-0.545425138	 0.2431022483	-0.066595
C	 3.0425871154	 0.3597941252	 0.4845835339	 0.282167
N	 3.9415069275	 1.051325203	 0.7066321524	-0.321539
C	 0.7447335163	-0.4338053251	 1.2733392369	 0.01568
O	 0.8566086416	 0.4977382775	 2.3057730248	-0.406422
H	 0.3843938204	 2.16448741	 0.4042796153	 0.144982
H	-0.7919005913	 1.8616502864	-0.8929491937	 0.124666
H	-1.2805359831	 1.719787296	 0.8094889116	 0.125491
H	-1.6145133261	-0.5283796813	-1.3383045976	 0.133582
H	-0.9363481161	-1.8667945677	-0.395973921	 0.118604
H	-2.0714038851	-0.7287511584	 0.3640305238	 0.126395
H	 2.3086239089	-1.5583537671	 0.0907655826	 0.121145
H	 0.4261234876	-1.4183529681	 1.6375399175	 0.086509
H	 1.4813528627	 0.1742935054	 2.9635219017	 0.299973
25.3736	125.611	179.9954	189.9331	225.6844	240.2374	260.1445	306.8056	338.912	382.8009	409.0888	509.3351	539.3026	612.8795	713.9807	794.2438	859.9492	873.5316	939.5577	981.9265	996.6509	1007.1726	1054.5448	1144.9349	1163.2854	1179.8703	1244.5033	1262.2729	1281.6763	1318.9489	1358.6207	1400.6463	1412.5778	1434.7951	1472.6901	1476.6216	1495.8662	1501.7668	2354.6183	3020.3373	3034.699	3037.895	3049.3053	3110.4552	3114.8498	3120.0239	3146.5833	3817.2858
CC1(C)OC(C#N)C1O	CC1(C)O[C@@H](C#N)[C@H]1O	
InChI=1S/C6H9NO2/c1-6(2)5(8)4(3-7)9-6/h4-5,8H,1-2H3	InChI=1S/C6H9NO2/c1-6(2)5(8)4(3-7)9-6/h4-5,8H,1-2H3/t4-,5+/m0/s1
