23
gdb 85915	2.42823	1.30711	1.07709	1.3766	88.4	-0.2338	0.0205	0.2543	1280.1094	0.203892	-388.320722	-388.310501	-388.309556	-388.355065	39.14	
C	 0.6897286611	 1.53738958	-0.1667579925	-0.397196
C	-0.022577101	 0.1983510792	 0.1002430849	-0.073929
C	 0.1599665457	-0.8245627544	-1.0492456522	-0.248468
C	 1.3029167418	-1.7635880235	-0.6039594555	 0.366605
C	 1.1415357006	-3.2085400186	-1.0796549187	-0.434591
O	 2.5209060584	-1.216669452	-1.1575468467	-0.471333
C	 1.2764769201	-1.5998014026	 0.9014427101	-0.239088
C	 0.569707076	-0.5376880962	 1.2935966618	 0.328548
C	 0.3719213923	-0.0536451532	 2.695941516	-0.496307
H	 1.7435654075	 1.3602984161	-0.399388804	 0.135548
H	 0.2328178892	 2.0538606786	-1.0173211332	 0.110191
H	 0.6308916363	 2.2078199168	 0.6971397634	 0.105331
H	-1.0876387447	 0.4056337816	 0.2699044828	 0.062616
H	-0.7564277675	-1.4085256984	-1.1768104571	 0.092319
H	 0.3988288212	-0.3585692493	-2.0087259864	 0.105036
H	 1.1261087293	-3.2489261919	-2.1731014348	 0.120587
H	 1.9780497327	-3.8264945691	-0.7315823262	 0.099431
H	 0.2166921128	-3.6521380182	-0.6971636506	 0.113158
H	 3.2603566793	-1.6383678806	-0.7065856087	 0.268905
H	 1.8219342864	-2.2662022202	 1.5648374898	 0.075822
H	 0.8757476376	-0.6980137299	 3.4214540803	 0.121561
H	 0.7556862234	 0.9658872249	 2.8247136659	 0.130303
H	-0.6945381783	-0.0177212492	 2.9533859017	 0.124951
88.9474	121.1609	177.2848	220.386	236.2856	241.7258	252.3254	273.0059	295.3971	359.2877	391.2929	445.9708	466.8458	577.7658	585.6088	634.2023	780.6862	823.9983	858.6201	880.6822	914.7273	940.2977	948.7895	1010.094	1027.0236	1039.7447	1063.3514	1104.1771	1115.0674	1161.3465	1167.5047	1196.2074	1250.1084	1294.8571	1315.4994	1339.3984	1354.1518	1376.9049	1401.7905	1403.6113	1411.8441	1477.0884	1478.6255	1486.8442	1490.2394	1491.1714	1499.3562	1504.6493	1716.446	3008.3721	3018.9071	3024.4673	3032.2462	3056.7452	3065.95	3090.4368	3095.5458	3106.6096	3109.6077	3111.8265	3119.9376	3160.9531	3804.3595
CC1CC(C)(O)C=C1C	C[C@H]1C[C@@](C)(O)C=C1C	
InChI=1S/C8H14O/c1-6-4-8(3,9)5-7(6)2/h4,7,9H,5H2,1-3H3	InChI=1S/C8H14O/c1-6-4-8(3,9)5-7(6)2/h4,7,9H,5H2,1-3H3/t7-,8-/m0/s1
