19
gdb 51796	3.80205	0.98471	0.88292	3.0187	75.03	-0.2359	-0.0257	0.2103	1324.4475	0.159181	-423.018387	-423.010051	-423.009107	-423.052397	30.996	
O	-0.6777286508	 0.9176625339	 0.7033505914	-0.238785
C	 0.0509096214	 1.0493564344	-0.2459919129	 0.162809
C	 1.3509768071	 1.8215591489	-0.2445870653	-0.290871
C	 1.3372679657	 2.9675459069	-1.2725131787	-0.026202
C	 0.304609133	 4.0760386417	-0.9406065301	-0.104393
O	 0.8172716841	 5.2954254586	-1.4677876347	-0.254939
C	 2.2166061285	 5.1892209935	-1.522318724	 0.116606
C	 2.958870913	 4.749314942	-0.2875541149	-0.331375
C	 2.6358118157	 3.7544897343	-1.3937504239	-0.093827
H	-0.2092017453	 0.5960894419	-1.2326918106	 0.071402
H	 1.5401181075	 2.1951718979	 0.7658714295	 0.122423
H	 2.1538996075	 1.1194592368	-0.509000402	 0.119906
H	 1.1119697345	 2.54884394	-2.2621208677	 0.085831
H	-0.6786645548	 3.9027239715	-1.3869418732	 0.117878
H	 0.1670310617	 4.1519084044	 0.147987701	 0.108089
H	 2.651406347	 5.8946736896	-2.2198739019	 0.105024
H	 3.9944249193	 5.0583395379	-0.1955831549	 0.117194
H	 2.427304057	 4.69442515	 0.6563782413	 0.121704
H	 3.4436637381	 3.3324755658	-1.9801765984	 0.091527
48.3479	75.1187	134.4715	203.8024	270.0723	346.1362	415.0849	441.381	537.5865	629.544	695.5341	764.014	794.5001	820.4929	886.5434	928.5141	949.9775	971.921	1008.4156	1011.0772	1042.4184	1050.2777	1079.6023	1094.7882	1116.2421	1143.7263	1165.4287	1199.4021	1208.9553	1247.3279	1273.3655	1320.0562	1320.8273	1363.465	1386.1843	1408.0658	1429.0744	1464.179	1478.7112	1524.9681	1834.2752	2845.3868	2997.8368	3018.9638	3021.0402	3084.7492	3101.242	3134.8745	3173.9882	3190.2084	3220.3793
O=CCC1COC2CC12	O=CC[C@H]1CO[C@H]2C[C@@H]12	
InChI=1S/C7H10O2/c8-2-1-5-4-9-7-3-6(5)7/h2,5-7H,1,3-4H2	InChI=1S/C7H10O2/c8-2-1-5-4-9-7-3-6(5)7/h2,5-7H,1,3-4H2/t5-,6-,7-/m0/s1
