18
gdb 43672	4.04696	0.91106	0.80997	5.1037	73.17	-0.2445	0.0381	0.2826	1404.1667	0.147489	-439.08463	-439.076143	-439.075198	-439.118724	31.211	
O	 0.3226845143	 0.0981653856	 0.4696443003	-0.356592
C	 0.1206879143	 1.2617409937	 0.2515748777	 0.42617
C	-1.1244615808	 2.149157777	-0.0108615816	-0.414341
C	-0.1245616655	 3.3423831371	-0.029747546	 0.06878
C	-0.2412711624	 4.367044286	 1.0989180242	-0.246065
C	 0.9245185174	 5.3293486763	 1.1015902216	 0.090841
C	 1.6360697722	 5.7128938285	 2.3264468492	-0.17851
O	 2.2071740404	 4.7680603269	 1.4182183369	-0.239529
N	 0.9490922067	 2.3548171332	 0.1501664915	-0.31577
H	-1.6445897361	 1.9458525789	-0.9482549527	 0.13053
H	-1.8410951573	 2.1571772165	 0.8133253133	 0.127725
H	-0.0647854231	 3.8536547806	-0.9986958252	 0.084057
H	-1.1725925798	 4.935576634	 0.9811335015	 0.110675
H	-0.2903977784	 3.8402494559	 2.0588278818	 0.107521
H	 0.955671579	 6.0256117732	 0.2612695759	 0.099038
H	 2.1477309698	 6.6723750356	 2.381006989	 0.121316
H	 1.311847615	 5.3038578315	 3.2823355994	 0.120666
H	 1.9090587342	 2.4965816995	 0.4304767032	 0.26349
62.0282	77.7328	111.4549	172.454	290.69	365.712	431.0443	433.0662	476.943	518.9678	569.6929	734.2239	791.1687	828.7722	860.6899	898.7019	948.0019	958.7915	1006.4573	1016.8267	1074.4168	1078.0248	1103.044	1161.19	1164.478	1174.4749	1189.0188	1196.2101	1245.8321	1270.937	1295.8777	1327.3176	1378.4875	1405.252	1445.7139	1461.1391	1466.3523	1529.716	1895.5669	3023.5255	3028.8295	3074.8402	3083.0486	3086.7411	3098.4408	3141.9532	3174.895	3611.4508
O=C1CC(CC2CO2)N1	O=C1C[C@@H](C[C@H]2CO2)N1	
InChI=1S/C6H9NO2/c8-6-2-4(7-6)1-5-3-9-5/h4-5H,1-3H2,(H,7,8)	InChI=1S/C6H9NO2/c8-6-2-4(7-6)1-5-3-9-5/h4-5H,1-3H2,(H,7,8)/t4-,5+/m1/s1
