16
gdb 104944	2.96018	0.86096	0.71811	1.6919	89.31	-0.2437	-0.0229	0.2208	1545.0748	0.122254	-400.656032	-400.646653	-400.645709	-400.690847	34.05	
O	 0.1054412314	 1.3252229543	 0.4341362286	-0.411086
C	-0.0100948226	 0.0467218636	-0.155163454	-0.130877
C	-1.4182930207	-0.5268726	-0.0424901698	-0.017606
C	-1.5668141839	-1.9926195056	 0.2259673472	-0.262251
N	-1.8774558476	-1.0238841592	 1.2763849528	-0.318832
C	-2.4020901658	 0.1827140996	-0.817293723	 0.432744
C	-3.174745794	 0.8198454832	-1.4991845444	-0.209929
C	-4.0548400035	 1.5232251562	-2.2609730083	 0.288784
C	-4.8327930088	 2.1507401124	-2.9388102476	-0.568176
H	-0.5057271684	 1.9145535452	-0.0229911407	 0.294364
H	 0.2943678115	 0.0550108161	-1.212638703	 0.104706
H	 0.6845190219	-0.6030151635	 0.3885638339	 0.104925
H	-2.4240704538	-2.5210215883	-0.1787307643	 0.134395
H	-0.6519095692	-2.5774969863	 0.2882392177	 0.120404
H	-1.1084902151	-0.9435536127	 1.9389467099	 0.243821
H	-5.5207119616	 2.699844725	-3.532575245	 0.194612
55.8059	92.4592	100.8569	198.619	254.5344	261.1453	317.0502	364.2109	433.367	492.544	516.9122	541.5965	566.0284	599.5651	615.2509	644.813	807.2482	877.4304	917.6137	969.5153	1010.268	1034.9574	1081.3615	1123.5687	1148.7176	1202.308	1246.9606	1299.6596	1375.4037	1389.8646	1424.4502	1494.0759	1505.4777	2180.8318	2354.4323	2991.6882	3069.2357	3108.4565	3202.982	3490.9414	3504.2276	3796.665
OCC1(CN1)C#CC#C	OC[C@]1(CN1)C#CC#C	
InChI=1S/C7H7NO/c1-2-3-4-7(6-9)5-8-7/h1,8-9H,5-6H2	InChI=1S/C7H7NO/c1-2-3-4-7(6-9)5-8-7/h1,8-9H,5-6H2/t7-/m1/s1
