17
gdb 105572	1.9955	1.58484	1.33751	2.163	76.83	-0.2384	0.0118	0.2502	1079.1487	0.133913	-417.943799	-417.934454	-417.93351	-417.977715	34.175	
C	 0.0260694817	 1.4961747445	 0.0273642269	-0.26395
O	-0.0547535864	 0.0725856368	 0.0591629029	-0.27713
C	 0.6376191804	-0.5334515042	 1.1202953508	 0.162104
C	 0.7196846207	-2.0805331681	 0.891286005	-0.215004
N	 2.1828621414	-1.947915822	 0.9214839787	-0.326477
C	 2.1860129452	-0.5635945131	 0.9481428251	 0.33742
N	 3.0309528162	 0.369211598	 0.8380052808	-0.550184
C	 0.1704084083	-0.1241060606	 2.4403845108	 0.325826
C	-0.2197769522	 0.2061959037	 3.5280997616	-0.495444
H	 1.0659390505	 1.8304090837	-0.0425304715	 0.152217
H	-0.5277632591	 1.8074769303	-0.8606171529	 0.123412
H	-0.4376854241	 1.9375053802	 0.9181312313	 0.120587
H	 0.3066561482	-2.7084003022	 1.6834864743	 0.123142
H	 0.2984176451	-2.3487816783	-0.0816621299	 0.126463
H	 2.8597065254	-2.5515709628	 0.4784103956	 0.243818
H	 3.9709659516	 0.0146153885	 0.6502025822	 0.210785
H	-0.5558473828	 0.5046536755	 4.4905892283	 0.202414
106.8961	118.7029	128.0609	168.3485	183.5109	255.9678	283.3053	366.1903	407.0077	430.8167	529.2295	577.9194	630.1166	648.9273	673.65	714.3501	779.8036	829.4981	909.8399	997.67	1016.6115	1048.8183	1071.5898	1142.2578	1187.3174	1189.5036	1199.8224	1237.9761	1243.7261	1328.9004	1378.6579	1474.3108	1484.6816	1513.239	1515.8966	1793.5395	2232.4941	3021.7737	3056.0436	3095.3578	3118.8656	3133.3353	3450.3603	3499.7815	3606.1731
COC1(CNC1=N)C#C	CO[C@]1(CN[C]1[NH])C#C	
InChI=1S/C6H8N2O/c1-3-6(9-2)4-8-5(6)7/h1H,4H2,2H3,(H2,7,8)	InChI=1S/C6H8N2O/c1-3-6(9-2)4-8-5(6)7/h1H,4H2,2H3,(H2,7,8)/t6-/m0/s1
