16
gdb 125384	3.01735	1.38278	1.00674	3.2486	73.45	-0.2254	0.0057	0.231	1138.3967	0.126086	-434.118497	-434.110154	-434.10921	-434.151862	30.305	
C	-0.8038220863	 1.0646203391	 0.6021677944	-0.513626
C	-0.1800559713	-0.236737969	 0.2056690246	 0.148241
C	-0.0466006336	-0.7390474777	-1.0744139956	-0.089469
N	 0.6336708829	-1.9059614076	-0.9858680668	-0.191308
N	 0.9540277766	-2.2288356636	 0.2800164473	-0.306716
C	 0.4615705743	-1.2240722094	 1.0007707177	 0.34815
N	 0.6988110608	-1.2495791442	 2.3855619548	-0.382843
C	-0.1737284523	-0.8967008535	 3.3772842222	 0.140537
O	-1.2679300074	-0.4014401221	 3.2286317389	-0.306656
H	-1.1621212295	 1.6008902781	-0.2811553514	 0.109518
H	-1.6344700656	 0.9119696275	 1.293640519	 0.169143
H	-0.0816518972	 1.7119137491	 1.1132489133	 0.12387
H	-0.3752918425	-0.3414270928	-2.0221326806	 0.134054
H	 0.900755778	-2.5278646813	-1.7286624898	 0.276869
H	 1.4965774932	-1.8040453695	 2.6615104327	 0.260812
H	 0.2607158698	-1.1106553231	 4.3736633192	 0.079423
59.7967	122.1032	183.0579	207.1138	243.7933	299.9893	364.0743	455.7126	467.8669	573.1709	609.0487	659.2207	696.8229	724.0785	791.7404	874.3336	948.61	1014.9181	1024.0643	1072.4028	1092.947	1137.064	1201.9744	1256.1006	1326.0714	1380.6463	1422.8545	1433.5255	1474.018	1476.8808	1493.3723	1513.6513	1545.5854	1627.1818	1811.6084	2940.7486	3035.6994	3094.9281	3136.3974	3256.544	3609.8405	3685.9287
CC1=CNN=C1NC=O	Cc1c[nH]nc1NC=O	
InChI=1S/C5H7N3O/c1-4-2-7-8-5(4)6-3-9/h2-3H,1H3,(H2,6,7,8,9)	InChI=1S/C5H7N3O/c1-4-2-7-8-5(4)6-3-9/h2-3H,1H3,(H2,6,7,8,9)
