13
gdb 43330	2.61246	1.8645	1.2379	5.0024	65.11	-0.2495	-0.1077	0.1418	946.4943	0.089192	-456.568915	-456.561915	-456.560971	-456.600743	26.114	
O	-0.013083088	 0.0517971153	-0.4445836291	-0.289273
C	-0.0394185366	 1.2030609025	-0.0769059572	 0.293501
C	-1.292274708	 1.9629917728	 0.1207234176	-0.175843
C	-1.310980808	 3.1659096236	 0.7098186621	-0.045144
C	-0.0914816298	 3.7799000465	 1.2960314034	-0.020576
O	 0.5957247239	 2.9788583137	 2.2661873839	-0.231281
C	 1.2393578964	 3.1920855821	 1.0076926963	-0.081605
C	 1.2884994872	 1.9920210484	 0.1090298178	 0.314945
O	 2.2830178895	 1.6717296514	-0.4893834696	-0.274736
H	-2.1977855934	 1.4804532312	-0.2327894366	 0.134841
H	-2.2434628409	 3.7105411631	 0.8260376817	 0.128499
H	-0.1358706137	 4.8378265897	 1.5441663637	 0.121619
H	 2.1375527414	 3.8059011497	 1.026791016	 0.125053
67.7114	171.7931	266.9568	332.232	366.1047	458.9987	474.7137	559.8235	573.4379	658.7316	745.8086	806.3557	835.898	863.4091	896.6345	970.9054	1009.836	1043.9628	1104.9659	1123.6985	1182.588	1244.5558	1271.4061	1348.3975	1397.2282	1429.4352	1678.2322	1784.4007	1821.9499	3139.8057	3148.9818	3174.7971	3197.1657
O=C1C=CC2OC2C1=O	O=C1C=C[C@H]2O[C@H]2C1=O	
InChI=1S/C6H4O3/c7-3-1-2-4-6(9-4)5(3)8/h1-2,4,6H	InChI=1S/C6H4O3/c7-3-1-2-4-6(9-4)5(3)8/h1-2,4,6H/t4-,6-/m1/s1
