17
gdb 74208	2.44473	1.61238	1.01872	4.6955	83.86	-0.2059	-0.0447	0.1612	1139.1726	0.138281	-418.024788	-418.016903	-418.015959	-418.057067	30.967	
N	 0.0552354316	 1.4114872039	 0.2965915969	-0.565451
C	 0.0043898921	 0.053198643	-0.0065736148	 0.308913
C	-1.1909097967	-0.5686342956	-0.1927022935	-0.240298
C	-1.5092534026	-1.9912447387	-0.2436716879	 0.352926
N	-2.6950170843	-2.3798279254	 0.0267485716	-0.527873
O	-0.5418974191	-2.9144416631	-0.549946726	-0.252548
C	 0.5411314058	-2.500233578	-1.3910990379	-0.162046
C	 1.5936017618	-1.7396226439	-0.6414223449	-0.081418
C	 1.3172925624	-0.5931539202	-0.0129768072	-0.097223
H	 0.8560986798	 1.9109242085	-0.0618953094	 0.250651
H	-0.8068262247	 1.9192948953	 0.1608901979	 0.254295
H	-2.0889943155	 0.0394142904	-0.140667379	 0.09823
H	-2.7525274703	-3.3928597308	-0.0928082777	 0.212642
H	 0.9445369187	-3.4240715986	-1.8105164402	 0.119407
H	 0.1454683937	-1.8891197185	-2.2147395355	 0.120774
H	 2.5984060192	-2.1485256108	-0.6032735653	 0.107329
H	 2.1026365482	-0.0641882376	 0.5215710231	 0.10169
88.9207	175.8447	232.2702	301.4042	367.2632	375.7263	386.3739	422.8006	489.943	573.5966	625.3015	665.8524	694.6504	708.7184	798.4451	854.6935	874.3939	889.8785	912.2344	962.0245	998.3113	1044.37	1078.7704	1123.2852	1168.1283	1227.7023	1263.0447	1295.4382	1336.2395	1380.4512	1420.2128	1458.4319	1483.561	1632.1242	1661.093	1684.5509	1716.8916	3007.2883	3107.4926	3154.883	3174.3349	3184.9788	3468.998	3561.5256	3665.7911
NC1=CC(=N)OCC=C1	NC1=C[C]([NH])OCC=C1	
InChI=1S/C6H8N2O/c7-5-2-1-3-9-6(8)4-5/h1-2,4,8H,3,7H2	InChI=1S/C6H8N2O/c7-5-2-1-3-9-6(8)4-5/h1-2,4,8H,3,7H2
