13
gdb 129394	4.43394	1.15757	0.91892	4.4539	64.81	-0.2592	-0.0581	0.2011	1172.6852	0.08943	-486.052033	-486.044263	-486.043319	-486.084787	28.603	
N	-0.0344246704	 1.2873165016	 0.2837161869	-0.551751
C	 0.0475079096	-0.0631111793	 0.0424312135	 0.252099
N	 1.0729969996	-0.791407127	-0.1696995671	-0.493459
C	-1.2716446968	-0.7363387615	 0.0819962173	 0.469162
N	-2.3948653508	-0.1259573499	 0.190037891	-0.192867
O	-3.359941133	-1.1543222555	 0.1709400132	-0.242375
C	-2.7071025602	-2.3575348762	 0.0463481707	 0.506204
N	-3.1738731911	-3.5151438509	-0.0110911034	-0.569808
O	-1.3625191351	-2.0772825965	-0.009839298	-0.188086
H	 0.75470856	 1.855736871	 0.0228322173	 0.261182
H	-0.9401657615	 1.7266320614	 0.2182723245	 0.280419
H	 1.9296782072	-0.235031556	-0.1816024322	 0.219923
H	-4.1887278776	-3.5077841612	 0.0478313965	 0.249357
60.3046	138.5302	182.6044	266.6882	362.9712	388.0886	422.9664	430.8316	556.4524	580.9336	637.5094	720.295	768.094	771.1176	785.4952	875.3286	927.9669	930.0276	989.2581	1037.9553	1103.2993	1125.1986	1240.8533	1312.3404	1484.473	1636.0487	1660.4477	1728.4086	1824.8253	3466.4709	3551.2578	3583.3015	3704.7182
NC(=N)C1=NOC(=N)O1	NC(=N)C1=NO[C@H]([NH])O1	
InChI=1S/C3H4N4O2/c4-1(5)2-7-9-3(6)8-2/h6H,(H3,4,5)	InChI=1S/C3H5N4O2/c4-1(5)2-7-9-3(6)8-2/h3,6H,(H3,4,5)/t3-/m1/s1
