16
gdb 24025	4.54156	1.04095	0.85123	2.2913	82.6	-0.2522	-0.0228	0.2294	1288.8435	0.125501	-363.637868	-363.630043	-363.629099	-363.671713	29.284	
C	-0.4419401027	-0.832053775	 1.1391097884	-0.426358
C	-0.1415611416	 0.0382573874	 0.3671094473	 0.297124
C	 0.2154558143	 1.0921420181	-0.5736015903	-0.46925
C	 1.5240219165	 1.8165272367	-0.28896507	 0.293657
C	 2.3446751161	 1.5118116353	 0.7924292611	-0.191208
C	 3.524401571	 2.2326648113	 0.9684582852	 0.008436
N	 3.9306262655	 3.2122922471	 0.1590413269	-0.270188
C	 3.1360764755	 3.4986310933	-0.8776354813	 0.00748
C	 1.9411442931	 2.8406411304	-1.1417610743	-0.184127
H	-0.7146491275	-1.6027890554	 1.8169074493	 0.201662
H	 0.2629222116	 0.6695817799	-1.5864243769	 0.153723
H	-0.5943022435	 1.8335933868	-0.6076980306	 0.153726
H	 2.0704197373	 0.7262723656	 1.4865777324	 0.114702
H	 4.1761058214	 2.0056986665	 1.8093636347	 0.109187
H	 3.473438114	 4.2982347069	-1.5332443675	 0.108357
H	 1.3439700389	 3.124927995	-2.0030880043	 0.093076
15.1909	129.92	192.4997	309.6308	322.083	390.7628	421.2271	494.8493	610.7373	619.1211	655.049	681.4759	750.3232	811.4871	816.6916	901.812	953.7339	977.0276	995.4964	1003.3035	1010.9521	1096.7522	1111.8988	1207.7916	1230.7125	1249.7903	1280.9583	1323.0355	1370.6573	1445.2437	1456.425	1527.7782	1606.2355	1636.7048	2242.5803	3013.7462	3038.3962	3149.5559	3151.885	3175.8182	3204.5688	3504.8202
C#CCC1=CC=NC=C1	C#CCc1ccncc1	
InChI=1S/C8H7N/c1-2-3-8-4-6-9-7-5-8/h1,4-7H,3H2	InChI=1S/C8H7N/c1-2-3-8-4-6-9-7-5-8/h1,4-7H,3H2
