20
gdb 114755	2.28251	1.4843	1.12235	2.9077	73.76	-0.2383	0.0616	0.2999	1147.406	0.17215	-440.254827	-440.246032	-440.245088	-440.288263	33.719	
O	 0.2699564865	 1.1379941292	-0.5710427045	-0.43058
C	-0.0319635768	-0.253751467	-0.5800823206	-0.066509
C	-1.3774970226	-0.5461316725	 0.1049539973	-0.080507
C	-2.6068853621	-0.0449358258	-0.7052851718	-0.229043
C	-3.1426892509	-1.2727784528	-1.4226550282	-0.030786
N	-2.087689861	-2.0133449292	-2.146712783	-0.326566
C	-2.5449968359	-2.4873933943	-0.822382365	-0.041079
C	-1.6471991153	-2.0721864129	 0.322576486	 0.127658
O	-0.4937951096	-2.8968721401	 0.3763300517	-0.43129
H	-0.2805885646	 1.5634750851	-1.2347244672	 0.280226
H	-0.021981634	-0.667975733	-1.59318872	 0.124071
H	 0.7743486687	-0.7339077795	-0.0197252272	 0.091588
H	-1.3401233637	-0.0331356835	 1.0721111648	 0.072046
H	-3.3810170783	 0.3495589147	-0.0376401561	 0.101039
H	-2.349187619	 0.7632591356	-1.4002669386	 0.085517
H	-4.1521878688	-1.2718909227	-1.8214847909	 0.083538
H	-2.5134355894	-2.5943504381	-2.864451408	 0.231809
H	-3.0777991821	-3.4303227359	-0.7586357123	 0.087043
H	-2.2357350079	-2.195094162	 1.246874007	 0.066343
H	-0.027794533	-2.7085289855	 1.1968816564	 0.285482
77.2276	117.8183	200.14	218.2768	261.7481	295.0799	308.7153	361.6954	411.9098	489.8664	532.9746	628.3582	774.6737	791.5193	824.8125	864.573	872.3445	915.1382	937.5134	963.1853	1002.1164	1049.5622	1065.6384	1086.9063	1093.3747	1124.225	1130.6499	1161.9466	1187.123	1227.2294	1250.1328	1259.3187	1269.1504	1328.5099	1331.4446	1358.0055	1369.2528	1392.2198	1411.6845	1434.9112	1449.9978	1486.1466	1506.3329	2958.5365	3028.9817	3043.7316	3056.0665	3069.0625	3106.0294	3157.437	3170.4658	3503.3394	3820.979	3827.2102
OCC1CC2NC2C1O	OC[C@H]1C[C@H]2N[C@H]2[C@H]1O	
InChI=1S/C6H11NO2/c8-2-3-1-4-5(7-4)6(3)9/h3-9H,1-2H2	InChI=1S/C6H11NO2/c8-2-3-1-4-5(7-4)6(3)9/h3-9H,1-2H2/t3-,4-,5-,6+/m1/s1
